SHL.pdb
     RDKit          3D

 25 25  0  0  1  0  0  0  0  0999 V2000
    9.6958  -12.1426   17.9525 O   0  0  0  0  0  0  0  0  0  0  0  0
    8.9875  -12.6243   19.0582 C   0  0  0  0  0  0  0  0  0  0  0  0
    8.6599  -14.0755   18.7978 C   0  0  2  0  0  0  0  0  0  0  0  0
    7.6369  -14.2210   17.7818 N   0  0  0  0  0  0  0  0  0  0  0  0
    8.3291  -14.8112   20.0345 C   0  0  0  0  0  0  0  0  0  0  0  0
    7.1604  -14.7738   20.5079 O   0  0  0  0  0  0  0  0  0  0  0  0
    9.2765  -15.5874   20.7531 N   0  0  0  0  0  0  0  0  0  0  0  0
    9.0048  -16.3218   21.9467 C   0  0  1  0  0  0  0  0  0  0  0  0
    9.7681  -17.5987   22.0672 C   0  0  0  0  0  0  0  0  0  0  0  0
    9.3071  -18.6357   21.1114 C   0  0  0  0  0  0  0  0  0  0  0  0
    8.1480  -18.6099   20.3682 C   0  0  0  0  0  0  0  0  0  0  0  0
    8.1054  -19.7287   19.6341 N   0  0  0  0  0  0  0  0  0  0  0  0
    9.2010  -20.4662   19.8867 C   0  0  0  0  0  0  0  0  0  0  0  0
    9.9316  -19.7929   20.7905 N   0  0  0  0  0  0  0  0  0  0  0  0
    9.1320  -15.5246   23.1749 C   0  0  0  0  0  0  0  0  0  0  0  0
   10.1870  -14.8791   23.3879 O   0  0  0  0  0  0  0  0  0  0  0  0
    5.5270  -12.5442   27.0905 C   0  0  0  0  0  0  0  0  0  0  0  0
    6.9498  -12.9394   26.7304 C   0  0  2  0  0  0  0  0  0  0  0  0
    7.8562  -11.7708   26.8052 C   0  0  0  0  0  0  0  0  0  0  0  0
    7.0470  -13.8280   25.5546 C   0  0  0  0  0  0  0  0  0  0  0  0
    8.2728  -14.6302   25.3464 C   0  0  2  0  0  0  0  0  0  0  0  0
    8.0899  -15.4615   24.1363 N   0  0  0  0  0  0  0  0  0  0  0  0
    8.7097  -15.5061   26.4296 C   0  0  0  0  0  0  0  0  0  0  0  0
    9.6757  -15.0521   27.3272 O   0  0  0  0  0  0  0  0  0  0  0  0
    8.2516  -16.6429   26.5811 O   0  0  0  0  0  0  0  0  0  0  0  0
  2  1  1  0
  3  2  1  0
  3  5  1  0
  3  4  1  6
  5  6  2  0
  5  7  1  0
  7  8  1  0
  8 15  1  0
  8  9  1  1
  9 10  1  0
 10 11  2  0
 10 14  1  0
 11 12  1  0
 12 13  1  0
 14 13  2  0
 15 22  1  0
 15 16  2  0
 18 17  1  6
 18 19  1  0
 18 20  1  0
 21 20  1  1
 21 23  1  0
 22 21  1  0
 23 24  1  0
 25 23  2  0
M  END
$$$$
