VPN.pdb
     RDKit          3D

 23 23  0  0  1  0  0  0  0  0999 V2000
    6.3456  -11.7841   27.3298 C   0  0  0  0  0  0  0  0  0  0  0  0
    7.0762  -12.8171   26.5138 C   0  0  2  0  0  0  0  0  0  0  0  0
    8.1997  -12.2169   25.7489 C   0  0  0  0  0  0  0  0  0  0  0  0
    6.1051  -13.6376   25.6425 C   0  0  2  0  0  0  0  0  0  0  0  0
    5.2301  -14.2795   26.6359 N   0  0  0  0  0  0  0  0  0  0  0  0
    6.8902  -14.7173   24.9910 C   0  0  0  0  0  0  0  0  0  0  0  0
    6.9607  -15.8152   25.6545 O   0  0  0  0  0  0  0  0  0  0  0  0
    7.5275  -14.6037   23.7444 N   0  0  0  0  0  0  0  0  0  0  0  0
    7.5473  -13.4351   22.9290 C   0  0  0  0  0  0  0  0  0  0  0  0
    7.5638  -13.9931   21.5244 C   0  0  0  0  0  0  0  0  0  0  0  0
    7.7122  -15.4908   21.6569 C   0  0  0  0  0  0  0  0  0  0  0  0
    8.2586  -15.6058   23.0628 C   0  0  1  0  0  0  0  0  0  0  0  0
    9.7258  -15.2957   22.9665 C   0  0  0  0  0  0  0  0  0  0  0  0
   10.2107  -14.1749   23.2670 O   0  0  0  0  0  0  0  0  0  0  0  0
   10.8931  -19.2614   26.3050 N   0  0  0  0  0  0  0  0  0  0  0  0
   11.2110  -18.0113   25.7241 C   0  0  0  0  0  0  0  0  0  0  0  0
   11.9510  -17.2322   26.3504 O   0  0  0  0  0  0  0  0  0  0  0  0
   10.6706  -17.6716   24.4231 C   0  0  0  0  0  0  0  0  0  0  0  0
   11.5698  -16.9158   23.4893 C   0  0  2  0  0  0  0  0  0  0  0  0
   10.6597  -16.2735   22.5220 N   0  0  0  0  0  0  0  0  0  0  0  0
   12.4976  -17.7789   22.7398 C   0  0  0  0  0  0  0  0  0  0  0  0
   13.8512  -17.9027   22.9711 O   0  0  0  0  0  0  0  0  0  0  0  0
   12.0559  -18.4993   21.7746 O   0  0  0  0  0  0  0  0  0  0  0  0
  2  1  1  6
  2  3  1  0
  4  2  1  0
  4  6  1  0
  4  5  1  1
  6  7  2  0
  8  6  1  0
  8 12  1  0
  9  8  1  0
 10  9  1  0
 10 11  1  0
 11 12  1  0
 12 13  1  6
 13 20  1  0
 13 14  2  0
 16 18  1  0
 16 15  1  0
 17 16  2  0
 19 21  1  0
 19 18  1  1
 20 19  1  0
 21 22  1  0
 23 21  2  0
M  END
$$$$
