VPN.pdb
     RDKit          3D

 23 23  0  0  1  0  0  0  0  0999 V2000
    6.3599  -11.5014   26.7957 C   0  0  0  0  0  0  0  0  0  0  0  0
    7.0059  -12.7293   26.2111 C   0  0  2  0  0  0  0  0  0  0  0  0
    8.2955  -12.4068   25.5473 C   0  0  0  0  0  0  0  0  0  0  0  0
    6.0263  -13.5078   25.3111 C   0  0  2  0  0  0  0  0  0  0  0  0
    5.0297  -14.0150   26.2671 N   0  0  0  0  0  0  0  0  0  0  0  0
    6.7524  -14.6863   24.7721 C   0  0  0  0  0  0  0  0  0  0  0  0
    6.5947  -15.7738   25.4377 O   0  0  0  0  0  0  0  0  0  0  0  0
    7.5628  -14.6719   23.6248 N   0  0  0  0  0  0  0  0  0  0  0  0
    8.0146  -13.5033   22.9459 C   0  0  0  0  0  0  0  0  0  0  0  0
    8.0721  -13.9426   21.5008 C   0  0  0  0  0  0  0  0  0  0  0  0
    7.7847  -15.4260   21.4892 C   0  0  0  0  0  0  0  0  0  0  0  0
    8.0786  -15.7905   22.9277 C   0  0  1  0  0  0  0  0  0  0  0  0
    9.5732  -15.9058   23.0316 C   0  0  0  0  0  0  0  0  0  0  0  0
   10.3595  -15.0114   22.6276 O   0  0  0  0  0  0  0  0  0  0  0  0
   10.0096  -19.2149   26.2092 N   0  0  0  0  0  0  0  0  0  0  0  0
   11.0006  -18.2154   26.0673 C   0  0  0  0  0  0  0  0  0  0  0  0
   11.1413  -17.3798   26.9777 O   0  0  0  0  0  0  0  0  0  0  0  0
   11.8215  -18.1896   24.8733 C   0  0  0  0  0  0  0  0  0  0  0  0
   11.6243  -17.0335   23.9371 C   0  0  2  0  0  0  0  0  0  0  0  0
   10.1873  -17.0553   23.6039 N   0  0  0  0  0  0  0  0  0  0  0  0
   12.3859  -17.1562   22.6832 C   0  0  0  0  0  0  0  0  0  0  0  0
   13.7263  -16.8769   22.5215 O   0  0  0  0  0  0  0  0  0  0  0  0
   11.7940  -17.5537   21.6167 O   0  0  0  0  0  0  0  0  0  0  0  0
  2  1  1  6
  2  3  1  0
  4  2  1  0
  4  6  1  0
  4  5  1  1
  6  7  2  0
  8  6  1  0
  8 12  1  0
  9  8  1  0
 10  9  1  0
 10 11  1  0
 11 12  1  0
 12 13  1  6
 13 20  1  0
 13 14  2  0
 16 18  1  0
 16 15  1  0
 17 16  2  0
 19 21  1  0
 19 18  1  1
 20 19  1  0
 21 22  1  0
 23 21  2  0
M  END
$$$$
