VPN.pdb
     RDKit          3D

 23 23  0  0  1  0  0  0  0  0999 V2000
    7.5990  -15.2900   20.4057 C   0  0  0  0  0  0  0  0  0  0  0  0
    7.4668  -13.7990   20.5668 C   0  0  2  0  0  0  0  0  0  0  0  0
    7.1413  -13.1353   19.2780 C   0  0  0  0  0  0  0  0  0  0  0  0
    8.6947  -13.1974   21.2780 C   0  0  2  0  0  0  0  0  0  0  0  0
    9.8057  -13.5588   20.3837 N   0  0  0  0  0  0  0  0  0  0  0  0
    8.8924  -13.9486   22.5442 C   0  0  0  0  0  0  0  0  0  0  0  0
    9.9873  -14.6170   22.6152 O   0  0  0  0  0  0  0  0  0  0  0  0
    7.9859  -13.9626   23.6171 N   0  0  0  0  0  0  0  0  0  0  0  0
    6.6965  -13.3558   23.6185 C   0  0  0  0  0  0  0  0  0  0  0  0
    6.5181  -12.9246   25.0562 C   0  0  0  0  0  0  0  0  0  0  0  0
    7.6982  -13.4764   25.8215 C   0  0  0  0  0  0  0  0  0  0  0  0
    8.1692  -14.5663   24.8841 C   0  0  1  0  0  0  0  0  0  0  0  0
    7.2542  -15.7363   25.1121 C   0  0  0  0  0  0  0  0  0  0  0  0
    6.2081  -15.9294   24.4414 O   0  0  0  0  0  0  0  0  0  0  0  0
    9.3142  -20.0788   23.9548 N   0  0  0  0  0  0  0  0  0  0  0  0
    9.9070  -18.8180   24.1996 C   0  0  0  0  0  0  0  0  0  0  0  0
   11.1300  -18.6866   24.0151 O   0  0  0  0  0  0  0  0  0  0  0  0
    9.0810  -17.7182   24.6561 C   0  0  0  0  0  0  0  0  0  0  0  0
    8.0903  -18.0171   25.7428 C   0  0  2  0  0  0  0  0  0  0  0  0
    7.5304  -16.7047   26.1180 N   0  0  0  0  0  0  0  0  0  0  0  0
    8.6974  -18.6147   26.9435 C   0  0  0  0  0  0  0  0  0  0  0  0
    9.6623  -18.0310   27.7367 O   0  0  0  0  0  0  0  0  0  0  0  0
    8.3301  -19.7825   27.3270 O   0  0  0  0  0  0  0  0  0  0  0  0
  2  1  1  6
  2  3  1  0
  4  2  1  0
  4  6  1  0
  4  5  1  6
  6  7  2  0
  8  6  1  0
  8 12  1  0
  9  8  1  0
 10  9  1  0
 10 11  1  0
 11 12  1  0
 12 13  1  6
 13 20  1  0
 13 14  2  0
 16 18  1  0
 16 15  1  0
 17 16  2  0
 19 21  1  0
 19 18  1  6
 20 19  1  0
 21 22  1  0
 23 21  2  0
M  END
$$$$
