VPN.pdb
     RDKit          3D

 23 23  0  0  1  0  0  0  0  0999 V2000
    6.1117  -12.0147   27.3360 C   0  0  0  0  0  0  0  0  0  0  0  0
    6.7628  -12.5556   26.0909 C   0  0  2  0  0  0  0  0  0  0  0  0
    7.1551  -11.4660   25.1601 C   0  0  0  0  0  0  0  0  0  0  0  0
    5.8989  -13.6489   25.4321 C   0  0  2  0  0  0  0  0  0  0  0  0
    5.2091  -14.2616   26.5782 N   0  0  0  0  0  0  0  0  0  0  0  0
    6.8194  -14.6747   24.8782 C   0  0  0  0  0  0  0  0  0  0  0  0
    7.0084  -15.6992   25.6301 O   0  0  0  0  0  0  0  0  0  0  0  0
    7.4615  -14.5855   23.6321 N   0  0  0  0  0  0  0  0  0  0  0  0
    7.4365  -13.4526   22.7679 C   0  0  0  0  0  0  0  0  0  0  0  0
    7.4894  -14.0681   21.3884 C   0  0  0  0  0  0  0  0  0  0  0  0
    7.7026  -15.5508   21.5854 C   0  0  0  0  0  0  0  0  0  0  0  0
    8.2418  -15.5820   22.9985 C   0  0  1  0  0  0  0  0  0  0  0  0
    9.6947  -15.2112   22.8986 C   0  0  0  0  0  0  0  0  0  0  0  0
   10.1157  -14.0379   23.0647 O   0  0  0  0  0  0  0  0  0  0  0  0
   12.8295  -17.9304   25.8591 N   0  0  0  0  0  0  0  0  0  0  0  0
   11.4165  -17.8686   25.8326 C   0  0  0  0  0  0  0  0  0  0  0  0
   10.7769  -18.4220   26.7446 O   0  0  0  0  0  0  0  0  0  0  0  0
   10.7535  -17.1674   24.7515 C   0  0  0  0  0  0  0  0  0  0  0  0
   11.6254  -16.6235   23.6580 C   0  0  2  0  0  0  0  0  0  0  0  0
   10.6876  -16.1879   22.6055 N   0  0  0  0  0  0  0  0  0  0  0  0
   12.5320  -17.6265   23.0753 C   0  0  0  0  0  0  0  0  0  0  0  0
   12.1627  -18.8610   22.5847 O   0  0  0  0  0  0  0  0  0  0  0  0
   13.7879  -17.3775   22.9954 O   0  0  0  0  0  0  0  0  0  0  0  0
  2  1  1  1
  2  3  1  0
  4  2  1  0
  4  6  1  0
  4  5  1  1
  6  7  2  0
  8  6  1  0
  8 12  1  0
  9  8  1  0
 10  9  1  0
 10 11  1  0
 11 12  1  0
 12 13  1  6
 13 20  1  0
 13 14  2  0
 16 18  1  0
 16 15  1  0
 17 16  2  0
 19 21  1  0
 19 18  1  1
 20 19  1  0
 21 22  1  0
 23 21  2  0
M  END
$$$$
