VPN.pdb
     RDKit          3D

 23 23  0  0  1  0  0  0  0  0999 V2000
    7.9962  -13.2921   27.0360 C   0  0  0  0  0  0  0  0  0  0  0  0
    7.0973  -12.6084   26.0404 C   0  0  2  0  0  0  0  0  0  0  0  0
    6.4734  -11.3877   26.6132 C   0  0  0  0  0  0  0  0  0  0  0  0
    6.0806  -13.5926   25.4295 C   0  0  2  0  0  0  0  0  0  0  0  0
    5.4267  -14.1711   26.6138 N   0  0  0  0  0  0  0  0  0  0  0  0
    6.8488  -14.6848   24.7788 C   0  0  0  0  0  0  0  0  0  0  0  0
    6.8967  -15.7853   25.4400 O   0  0  0  0  0  0  0  0  0  0  0  0
    7.4934  -14.5798   23.5351 N   0  0  0  0  0  0  0  0  0  0  0  0
    7.5193  -13.4164   22.7126 C   0  0  0  0  0  0  0  0  0  0  0  0
    7.5431  -13.9833   21.3116 C   0  0  0  0  0  0  0  0  0  0  0  0
    7.6889  -15.4804   21.4544 C   0  0  0  0  0  0  0  0  0  0  0  0
    8.2271  -15.5871   22.8642 C   0  0  1  0  0  0  0  0  0  0  0  0
    9.6952  -15.2794   22.7742 C   0  0  0  0  0  0  0  0  0  0  0  0
   10.1580  -14.1135   22.8643 O   0  0  0  0  0  0  0  0  0  0  0  0
   12.6863  -17.9271   25.9596 N   0  0  0  0  0  0  0  0  0  0  0  0
   11.2839  -17.7428   25.9448 C   0  0  0  0  0  0  0  0  0  0  0  0
   10.6201  -18.1285   26.9234 O   0  0  0  0  0  0  0  0  0  0  0  0
   10.6593  -17.1138   24.7984 C   0  0  0  0  0  0  0  0  0  0  0  0
   11.5637  -16.6899   23.6785 C   0  0  2  0  0  0  0  0  0  0  0  0
   10.6556  -16.3116   22.5791 N   0  0  0  0  0  0  0  0  0  0  0  0
   12.4436  -17.7663   23.1941 C   0  0  0  0  0  0  0  0  0  0  0  0
   12.0414  -19.0293   22.8148 O   0  0  0  0  0  0  0  0  0  0  0  0
   13.7063  -17.5605   23.0995 O   0  0  0  0  0  0  0  0  0  0  0  0
  2  1  1  1
  2  3  1  0
  4  2  1  0
  4  6  1  0
  4  5  1  1
  6  7  2  0
  8  6  1  0
  8 12  1  0
  9  8  1  0
 10  9  1  0
 10 11  1  0
 11 12  1  0
 12 13  1  6
 13 20  1  0
 13 14  2  0
 16 18  1  0
 16 15  1  0
 17 16  2  0
 19 21  1  0
 19 18  1  1
 20 19  1  0
 21 22  1  0
 23 21  2  0
M  END
$$$$
