VPN.pdb
     RDKit          3D

 23 23  0  0  1  0  0  0  0  0999 V2000
    6.1719  -15.1323   20.8428 C   0  0  0  0  0  0  0  0  0  0  0  0
    7.1816  -14.3292   20.0668 C   0  0  2  0  0  0  0  0  0  0  0  0
    8.3799  -15.1385   19.7251 C   0  0  0  0  0  0  0  0  0  0  0  0
    7.5149  -13.0032   20.7785 C   0  0  2  0  0  0  0  0  0  0  0  0
    8.4067  -12.3289   19.8222 N   0  0  0  0  0  0  0  0  0  0  0  0
    8.3286  -13.3300   21.9775 C   0  0  0  0  0  0  0  0  0  0  0  0
    9.6004  -13.2924   21.7989 O   0  0  0  0  0  0  0  0  0  0  0  0
    7.8021  -13.6606   23.2371 N   0  0  0  0  0  0  0  0  0  0  0  0
    6.4171  -13.7886   23.5469 C   0  0  0  0  0  0  0  0  0  0  0  0
    6.3395  -13.3265   24.9840 C   0  0  0  0  0  0  0  0  0  0  0  0
    7.7619  -13.1088   25.4445 C   0  0  0  0  0  0  0  0  0  0  0  0
    8.5260  -13.9240   24.4245 C   0  0  1  0  0  0  0  0  0  0  0  0
    8.4184  -15.3552   24.8696 C   0  0  0  0  0  0  0  0  0  0  0  0
    7.3246  -15.9722   24.9358 O   0  0  0  0  0  0  0  0  0  0  0  0
   12.7037  -18.3900   25.1582 N   0  0  0  0  0  0  0  0  0  0  0  0
   11.7611  -17.6961   24.3638 C   0  0  0  0  0  0  0  0  0  0  0  0
   12.1473  -16.7247   23.6899 O   0  0  0  0  0  0  0  0  0  0  0  0
   10.3787  -18.1308   24.3547 C   0  0  0  0  0  0  0  0  0  0  0  0
    9.4802  -17.5631   25.4141 C   0  0  2  0  0  0  0  0  0  0  0  0
    9.5713  -16.1003   25.2458 N   0  0  0  0  0  0  0  0  0  0  0  0
    9.9060  -17.8926   26.7843 C   0  0  0  0  0  0  0  0  0  0  0  0
   10.3166  -16.9896   27.7418 O   0  0  0  0  0  0  0  0  0  0  0  0
    9.9144  -19.1161   27.1701 O   0  0  0  0  0  0  0  0  0  0  0  0
  2  1  1  1
  2  3  1  0
  4  2  1  0
  4  6  1  0
  4  5  1  6
  6  7  2  0
  8  6  1  0
  8 12  1  0
  9  8  1  0
 10  9  1  0
 10 11  1  0
 11 12  1  0
 12 13  1  1
 13 20  1  0
 13 14  2  0
 16 18  1  0
 16 15  1  0
 17 16  2  0
 19 21  1  0
 19 18  1  6
 20 19  1  0
 21 22  1  0
 23 21  2  0
M  END
$$$$
