VPN.pdb
     RDKit          3D

 23 23  0  0  1  0  0  0  0  0999 V2000
    8.2301  -18.5770   18.2612 C   0  0  0  0  0  0  0  0  0  0  0  0
    7.0167  -17.7724   17.8779 C   0  0  2  0  0  0  0  0  0  0  0  0
    6.0519  -18.5791   17.0866 C   0  0  0  0  0  0  0  0  0  0  0  0
    7.4109  -16.4443   17.2022 C   0  0  2  0  0  0  0  0  0  0  0  0
    8.0391  -16.8849   15.9469 N   0  0  0  0  0  0  0  0  0  0  0  0
    8.4767  -15.8204   18.0275 C   0  0  0  0  0  0  0  0  0  0  0  0
    9.6692  -15.9549   17.5688 O   0  0  0  0  0  0  0  0  0  0  0  0
    8.2561  -15.1224   19.2265 N   0  0  0  0  0  0  0  0  0  0  0  0
    6.9812  -14.8462   19.8001 C   0  0  0  0  0  0  0  0  0  0  0  0
    7.1882  -13.5107   20.4772 C   0  0  0  0  0  0  0  0  0  0  0  0
    8.6606  -13.1922   20.3618 C   0  0  0  0  0  0  0  0  0  0  0  0
    9.2342  -14.5641   20.0837 C   0  0  1  0  0  0  0  0  0  0  0  0
    9.3127  -15.2604   21.4130 C   0  0  0  0  0  0  0  0  0  0  0  0
    8.3288  -15.8353   21.9449 O   0  0  0  0  0  0  0  0  0  0  0  0
   12.1414  -18.7786   24.0496 N   0  0  0  0  0  0  0  0  0  0  0  0
   12.8756  -18.0285   23.1013 C   0  0  0  0  0  0  0  0  0  0  0  0
   14.0334  -18.3872   22.8225 O   0  0  0  0  0  0  0  0  0  0  0  0
   12.2653  -16.8689   22.4823 C   0  0  0  0  0  0  0  0  0  0  0  0
   10.8757  -16.5144   22.9241 C   0  0  2  0  0  0  0  0  0  0  0  0
   10.5282  -15.3061   22.1521 N   0  0  0  0  0  0  0  0  0  0  0  0
   10.7802  -16.1848   24.3558 C   0  0  0  0  0  0  0  0  0  0  0  0
   10.3486  -17.0334   25.3530 O   0  0  0  0  0  0  0  0  0  0  0  0
   11.1162  -15.0154   24.7623 O   0  0  0  0  0  0  0  0  0  0  0  0
  2  1  1  6
  2  3  1  0
  4  2  1  0
  4  6  1  0
  4  5  1  6
  6  7  2  0
  8  6  1  0
  8 12  1  0
  9  8  1  0
 10  9  1  0
 10 11  1  0
 11 12  1  0
 12 13  1  1
 13 20  1  0
 13 14  2  0
 16 18  1  0
 16 15  1  0
 17 16  2  0
 19 21  1  0
 19 18  1  1
 20 19  1  0
 21 22  1  0
 23 21  2  0
M  END
$$$$
