VPN.pdb
     RDKit          3D

 23 23  0  0  1  0  0  0  0  0999 V2000
    7.3510  -17.6422   19.4305 C   0  0  0  0  0  0  0  0  0  0  0  0
    7.9497  -17.3090   20.7712 C   0  0  2  0  0  0  0  0  0  0  0  0
    7.1055  -17.8077   21.8875 C   0  0  0  0  0  0  0  0  0  0  0  0
    8.2929  -15.8103   20.8788 C   0  0  2  0  0  0  0  0  0  0  0  0
    9.2396  -15.6067   19.7712 N   0  0  0  0  0  0  0  0  0  0  0  0
    9.0504  -15.6132   22.1413 C   0  0  0  0  0  0  0  0  0  0  0  0
   10.3238  -15.7502   22.0391 O   0  0  0  0  0  0  0  0  0  0  0  0
    8.4716  -15.2980   23.3818 N   0  0  0  0  0  0  0  0  0  0  0  0
    7.0780  -15.1253   23.6243 C   0  0  0  0  0  0  0  0  0  0  0  0
    7.0431  -14.0741   24.7099 C   0  0  0  0  0  0  0  0  0  0  0  0
    8.4763  -13.8329   25.1231 C   0  0  0  0  0  0  0  0  0  0  0  0
    9.1424  -15.0908   24.6108 C   0  0  1  0  0  0  0  0  0  0  0  0
    8.8489  -16.1605   25.6247 C   0  0  0  0  0  0  0  0  0  0  0  0
    7.7006  -16.6424   25.7999 O   0  0  0  0  0  0  0  0  0  0  0  0
   10.7312  -20.8281   27.0599 N   0  0  0  0  0  0  0  0  0  0  0  0
   11.4062  -20.0559   26.0857 C   0  0  0  0  0  0  0  0  0  0  0  0
   12.3192  -20.5874   25.4293 O   0  0  0  0  0  0  0  0  0  0  0  0
   11.0204  -18.6746   25.8779 C   0  0  0  0  0  0  0  0  0  0  0  0
    9.9145  -18.1402   26.7399 C   0  0  2  0  0  0  0  0  0  0  0  0
    9.8754  -16.6933   26.4543 N   0  0  0  0  0  0  0  0  0  0  0  0
   10.1564  -18.3148   28.1816 C   0  0  0  0  0  0  0  0  0  0  0  0
    9.7912  -19.4101   28.9352 O   0  0  0  0  0  0  0  0  0  0  0  0
   10.7563  -17.3926   28.8414 O   0  0  0  0  0  0  0  0  0  0  0  0
  2  1  1  6
  2  3  1  0
  4  2  1  0
  4  6  1  0
  4  5  1  6
  6  7  2  0
  8  6  1  0
  8 12  1  0
  9  8  1  0
 10  9  1  0
 10 11  1  0
 11 12  1  0
 12 13  1  1
 13 20  1  0
 13 14  2  0
 16 18  1  0
 16 15  1  0
 17 16  2  0
 19 21  1  0
 19 18  1  6
 20 19  1  0
 21 22  1  0
 23 21  2  0
M  END
$$$$
