RMT.pdb
     RDKit          3D

 27 26  0  0  1  0  0  0  0  0999 V2000
   28.5778  -21.5578  -20.6242 N   0  0  0  0  0  0  0  0  0  0  0  0
   29.9414  -21.4074  -20.2382 C   0  0  0  0  0  0  0  0  0  0  0  0
   30.8924  -21.2856  -21.1067 N   0  0  0  0  0  0  0  0  0  0  0  0
   30.2466  -21.3894  -18.8507 N   0  0  0  0  0  0  0  0  0  0  0  0
   29.1643  -21.5376  -17.9147 C   0  0  0  0  0  0  0  0  0  0  0  0
   28.5885  -20.1657  -17.5472 C   0  0  0  0  0  0  0  0  0  0  0  0
   27.4767  -20.3338  -16.5311 C   0  0  0  0  0  0  0  0  0  0  0  0
   28.0137  -21.0910  -15.3349 C   0  0  2  0  0  0  0  0  0  0  0  0
   28.7287  -22.2301  -15.8451 N   0  0  0  0  0  0  0  0  0  0  0  0
   26.9220  -21.4814  -14.4106 C   0  0  0  0  0  0  0  0  0  0  0  0
   26.0506  -22.3623  -14.7191 O   0  0  0  0  0  0  0  0  0  0  0  0
   31.8632  -21.1957  -20.7423 C   0  0  0  0  0  0  0  0  0  0  0  0
   26.4392  -19.4998   -7.9670 S   0  0  0  0  0  0  0  0  0  0  0  0
   25.4939  -21.0337   -8.0811 C   0  0  0  0  0  0  0  0  0  0  0  0
   25.0263  -21.3980   -9.7968 C   0  0  0  0  0  0  0  0  0  0  0  0
   26.1325  -20.9579  -10.7573 C   0  0  1  0  0  0  0  0  0  0  0  0
   25.8039  -21.2857  -12.1644 N   0  0  0  0  0  0  0  0  0  0  0  0
   26.7800  -20.9066  -13.1411 C   0  0  0  0  0  0  0  0  0  0  0  0
   24.5243  -20.6207  -12.5229 O   0  0  0  0  0  0  0  0  0  0  0  0
   24.4125  -19.3462  -12.5494 C   0  0  0  0  0  0  0  0  0  0  0  0
   22.7045  -20.5390  -15.5748 C   0  0  2  0  0  0  0  0  0  0  0  0
   21.6954  -21.0542  -14.5705 O   0  0  0  0  0  0  0  0  0  0  0  0
   21.5628  -22.4353  -14.6294 C   0  0  2  0  0  0  0  0  0  0  0  0
   22.0778  -20.6412  -13.1486 N   0  0  0  0  0  0  0  0  0  0  0  0
   23.3341  -21.3220  -12.8623 C   0  0  0  0  0  0  0  0  0  0  0  0
   21.0250  -20.9716  -12.1988 O   0  0  0  0  0  0  0  0  0  0  0  0
   21.2305  -21.8023  -11.2900 O   0  0  0  0  0  0  0  0  0  0  0  0
  2  1  1  0
  3  2  2  0
  4  2  1  0
  5  4  1  0
  6  5  1  0
  7  8  1  0
  7  6  1  0
  8 10  1  0
  8  9  1  6
 10 17  1  0
 11 10  2  0
 13 14  1  0
 13 12  1  0
 14 15  1  0
 16 15  1  1
 17 16  1  0
 18 19  2  0
 18 16  1  0
 21 20  1  6
 21 23  1  0
 21 22  1  0
 23 24  1  1
 24 18  1  0
 25 27  1  0
 25 23  1  0
 26 25  2  0
M  END
$$$$
