RMT.pdb
     RDKit          3D

 27 26  0  0  1  0  0  0  0  0999 V2000
   33.5337  -26.5730  -16.6829 N   0  0  0  0  0  0  0  0  0  0  0  0
   34.0470  -25.7300  -17.7111 C   0  0  0  0  0  0  0  0  0  0  0  0
   34.9590  -26.1300  -18.5367 N   0  0  0  0  0  0  0  0  0  0  0  0
   33.5259  -24.4126  -17.8194 N   0  0  0  0  0  0  0  0  0  0  0  0
   32.3511  -24.0816  -17.0581 C   0  0  0  0  0  0  0  0  0  0  0  0
   31.1590  -23.8531  -17.9937 C   0  0  0  0  0  0  0  0  0  0  0  0
   30.3815  -22.6332  -17.5419 C   0  0  0  0  0  0  0  0  0  0  0  0
   29.4226  -23.0401  -16.4430 C   0  0  2  0  0  0  0  0  0  0  0  0
   28.5374  -24.0266  -17.0019 N   0  0  0  0  0  0  0  0  0  0  0  0
   28.6899  -21.8680  -15.9066 C   0  0  0  0  0  0  0  0  0  0  0  0
   29.2908  -20.8204  -15.4919 O   0  0  0  0  0  0  0  0  0  0  0  0
   35.3431  -25.4270  -19.2011 C   0  0  0  0  0  0  0  0  0  0  0  0
   23.8429  -18.2980  -17.9633 S   0  0  0  0  0  0  0  0  0  0  0  0
   25.5863  -18.2581  -18.4305 C   0  0  0  0  0  0  0  0  0  0  0  0
   26.6031  -19.2266  -17.2802 C   0  0  0  0  0  0  0  0  0  0  0  0
   25.7157  -19.9977  -16.3016 C   0  0  2  0  0  0  0  0  0  0  0  0
   26.5156  -20.7509  -15.3075 N   0  0  0  0  0  0  0  0  0  0  0  0
   27.2920  -21.8388  -15.8217 C   0  0  0  0  0  0  0  0  0  0  0  0
   25.5993  -21.2989  -14.2741 O   0  0  0  0  0  0  0  0  0  0  0  0
   24.9503  -22.3862  -14.4583 C   0  0  0  0  0  0  0  0  0  0  0  0
   26.4381  -21.6719  -10.5809 C   0  0  2  0  0  0  0  0  0  0  0  0
   25.0896  -20.9891  -10.6683 O   0  0  0  0  0  0  0  0  0  0  0  0
   25.1836  -19.6227  -10.4388 C   0  0  2  0  0  0  0  0  0  0  0  0
   24.4402  -21.2314  -12.0314 N   0  0  0  0  0  0  0  0  0  0  0  0
   25.3646  -20.6809  -13.0144 C   0  0  0  0  0  0  0  0  0  0  0  0
   23.1152  -20.6323  -12.1020 O   0  0  0  0  0  0  0  0  0  0  0  0
   22.1866  -21.0645  -11.3885 O   0  0  0  0  0  0  0  0  0  0  0  0
  2  1  1  0
  3  2  2  0
  4  2  1  0
  5  4  1  0
  6  5  1  0
  7  8  1  0
  7  6  1  0
  8 10  1  0
  8  9  1  6
 10 17  1  0
 11 10  2  0
 13 14  1  0
 13 12  1  0
 14 15  1  0
 16 15  1  6
 17 16  1  0
 18 19  2  0
 18 16  1  0
 21 20  1  1
 21 23  1  0
 21 22  1  0
 23 24  1  1
 24 18  1  0
 25 27  1  0
 25 23  1  0
 26 25  2  0
M  END
$$$$
