RMT.pdb
     RDKit          3D

 27 26  0  0  1  0  0  0  0  0999 V2000
   16.7324   -9.7584  -21.3065 N   0  0  0  0  0  0  0  0  0  0  0  0
   16.8023  -11.1455  -21.6261 C   0  0  0  0  0  0  0  0  0  0  0  0
   15.9873  -11.7000  -22.4638 N   0  0  0  0  0  0  0  0  0  0  0  0
   17.8080  -11.9278  -20.9973 N   0  0  0  0  0  0  0  0  0  0  0  0
   18.4576  -11.3903  -19.8317 C   0  0  0  0  0  0  0  0  0  0  0  0
   17.5190  -11.4578  -18.6221 C   0  0  0  0  0  0  0  0  0  0  0  0
   18.2402  -10.9560  -17.3873 C   0  0  0  0  0  0  0  0  0  0  0  0
   19.4611  -11.8182  -17.1459 C   0  0  2  0  0  0  0  0  0  0  0  0
   18.9931  -13.0689  -16.6111 N   0  0  0  0  0  0  0  0  0  0  0  0
   20.4245  -11.1462  -16.2411 C   0  0  0  0  0  0  0  0  0  0  0  0
   20.1828  -10.9678  -15.0000 O   0  0  0  0  0  0  0  0  0  0  0  0
   16.1259  -12.7114  -22.6666 C   0  0  0  0  0  0  0  0  0  0  0  0
   27.9059  -10.1285  -14.2039 S   0  0  0  0  0  0  0  0  0  0  0  0
   26.7438  -10.6072  -15.4999 C   0  0  0  0  0  0  0  0  0  0  0  0
   25.0773   -9.9709  -15.1639 C   0  0  0  0  0  0  0  0  0  0  0  0
   24.0571  -10.6253  -16.0970 C   0  0  1  0  0  0  0  0  0  0  0  0
   22.6873  -10.1108  -15.8644 N   0  0  0  0  0  0  0  0  0  0  0  0
   21.6598  -10.6651  -16.6936 C   0  0  0  0  0  0  0  0  0  0  0  0
   22.6889   -8.6392  -16.0702 O   0  0  0  0  0  0  0  0  0  0  0  0
   23.1872   -8.1074  -17.1220 C   0  0  0  0  0  0  0  0  0  0  0  0
   20.2490   -6.3787  -16.9264 C   0  0  2  0  0  0  0  0  0  0  0  0
   20.7557   -5.8334  -15.6080 O   0  0  0  0  0  0  0  0  0  0  0  0
   19.9607   -6.2319  -14.5414 C   0  0  2  0  0  0  0  0  0  0  0  0
   22.2000   -6.2673  -15.3544 N   0  0  0  0  0  0  0  0  0  0  0  0
   22.1494   -7.7079  -15.1401 C   0  0  0  0  0  0  0  0  0  0  0  0
   22.7808   -5.5473  -14.2303 O   0  0  0  0  0  0  0  0  0  0  0  0
   23.0793   -6.1501  -13.1788 O   0  0  0  0  0  0  0  0  0  0  0  0
  2  1  1  0
  3  2  2  0
  4  2  1  0
  5  4  1  0
  6  5  1  0
  7  8  1  0
  7  6  1  0
  8 10  1  0
  8  9  1  1
 10 17  1  0
 11 10  2  0
 13 14  1  0
 13 12  1  0
 14 15  1  0
 16 15  1  1
 17 16  1  0
 18 19  2  0
 18 16  1  0
 21 20  1  6
 21 23  1  0
 21 22  1  0
 23 24  1  1
 24 18  1  0
 25 27  1  0
 25 23  1  0
 26 25  2  0
M  END
$$$$
