RMT.pdb
     RDKit          3D

 27 26  0  0  1  0  0  0  0  0999 V2000
   26.9391  -21.6594  -10.8306 N   0  0  0  0  0  0  0  0  0  0  0  0
   26.9011  -21.4742  -12.2432 C   0  0  0  0  0  0  0  0  0  0  0  0
   27.9226  -21.7228  -12.9970 N   0  0  0  0  0  0  0  0  0  0  0  0
   25.6930  -21.0042  -12.8247 N   0  0  0  0  0  0  0  0  0  0  0  0
   24.5212  -20.9326  -11.9933 C   0  0  0  0  0  0  0  0  0  0  0  0
   23.5066  -22.0020  -12.4125 C   0  0  0  0  0  0  0  0  0  0  0  0
   23.0492  -21.7430  -13.8339 C   0  0  0  0  0  0  0  0  0  0  0  0
   22.3101  -20.4224  -13.8801 C   0  0  2  0  0  0  0  0  0  0  0  0
   20.9309  -20.7223  -14.1573 N   0  0  0  0  0  0  0  0  0  0  0  0
   22.9000  -19.5103  -14.8893 C   0  0  0  0  0  0  0  0  0  0  0  0
   22.3628  -19.3197  -16.0319 O   0  0  0  0  0  0  0  0  0  0  0  0
   27.8240  -21.5276  -14.0145 C   0  0  0  0  0  0  0  0  0  0  0  0
   27.7530  -13.4476  -16.5362 S   0  0  0  0  0  0  0  0  0  0  0  0
   27.0007  -14.5180  -15.2922 C   0  0  0  0  0  0  0  0  0  0  0  0
   26.1100  -15.9012  -16.0591 C   0  0  0  0  0  0  0  0  0  0  0  0
   25.4216  -16.7519  -14.9903 C   0  0  1  0  0  0  0  0  0  0  0  0
   24.7234  -17.9185  -15.5792 N   0  0  0  0  0  0  0  0  0  0  0  0
   24.0844  -18.8016  -14.6504 C   0  0  0  0  0  0  0  0  0  0  0  0
   25.7034  -18.7169  -16.3602 O   0  0  0  0  0  0  0  0  0  0  0  0
   26.6462  -19.3687  -15.7913 C   0  0  0  0  0  0  0  0  0  0  0  0
   25.1292  -21.6302  -18.7920 C   0  0  2  0  0  0  0  0  0  0  0  0
   25.8097  -20.4749  -19.4953 O   0  0  0  0  0  0  0  0  0  0  0  0
   24.8976  -19.6481  -20.1378 C   0  0  2  0  0  0  0  0  0  0  0  0
   26.6400  -19.6479  -18.5128 N   0  0  0  0  0  0  0  0  0  0  0  0
   25.6847  -18.8283  -17.7783 C   0  0  0  0  0  0  0  0  0  0  0  0
   27.6497  -18.8591  -19.2040 O   0  0  0  0  0  0  0  0  0  0  0  0
   28.6269  -19.4163  -19.7451 O   0  0  0  0  0  0  0  0  0  0  0  0
  2  1  1  0
  3  2  2  0
  4  2  1  0
  5  4  1  0
  6  5  1  0
  7  8  1  0
  7  6  1  0
  8 10  1  0
  8  9  1  6
 10 17  1  0
 11 10  2  0
 13 14  1  0
 13 12  1  0
 14 15  1  0
 16 15  1  6
 17 16  1  0
 18 19  2  0
 18 16  1  0
 21 20  1  6
 21 23  1  0
 21 22  1  0
 23 24  1  6
 24 18  1  0
 25 27  1  0
 25 23  1  0
 26 25  2  0
M  END
$$$$
