RMT.pdb
     RDKit          3D

 27 26  0  0  1  0  0  0  0  0999 V2000
   27.6371  -19.2799  -19.0939 N   0  0  0  0  0  0  0  0  0  0  0  0
   29.0125  -19.0317  -18.8145 C   0  0  0  0  0  0  0  0  0  0  0  0
   29.9430  -19.2622  -19.6831 N   0  0  0  0  0  0  0  0  0  0  0  0
   29.3530  -18.5111  -17.5371 N   0  0  0  0  0  0  0  0  0  0  0  0
   28.2954  -18.3007  -16.5849 C   0  0  0  0  0  0  0  0  0  0  0  0
   27.4535  -19.5726  -16.4368 C   0  0  0  0  0  0  0  0  0  0  0  0
   26.8212  -19.6093  -15.0600 C   0  0  0  0  0  0  0  0  0  0  0  0
   27.1121  -20.9505  -14.4204 C   0  0  2  0  0  0  0  0  0  0  0  0
   27.2357  -21.9069  -15.4877 N   0  0  0  0  0  0  0  0  0  0  0  0
   26.0549  -21.3251  -13.4506 C   0  0  0  0  0  0  0  0  0  0  0  0
   25.1254  -22.1509  -13.7414 O   0  0  0  0  0  0  0  0  0  0  0  0
   30.9242  -19.0699  -19.3940 C   0  0  0  0  0  0  0  0  0  0  0  0
   25.8681  -19.2554   -6.9495 S   0  0  0  0  0  0  0  0  0  0  0  0
   27.1735  -19.9915   -7.9562 C   0  0  0  0  0  0  0  0  0  0  0  0
   26.4911  -21.1142   -9.2087 C   0  0  0  0  0  0  0  0  0  0  0  0
   25.2261  -20.5181   -9.8286 C   0  0  2  0  0  0  0  0  0  0  0  0
   24.9804  -21.0424  -11.1924 N   0  0  0  0  0  0  0  0  0  0  0  0
   26.0113  -20.7947  -12.1549 C   0  0  0  0  0  0  0  0  0  0  0  0
   23.7233  -20.4458  -11.7136 O   0  0  0  0  0  0  0  0  0  0  0  0
   23.5558  -19.1788  -11.7782 C   0  0  0  0  0  0  0  0  0  0  0  0
   22.1621  -20.4504  -14.9634 C   0  0  2  0  0  0  0  0  0  0  0  0
   21.1299  -21.0519  -14.0333 O   0  0  0  0  0  0  0  0  0  0  0  0
   21.1311  -22.4396  -14.0843 C   0  0  2  0  0  0  0  0  0  0  0  0
   21.3602  -20.5968  -12.5916 N   0  0  0  0  0  0  0  0  0  0  0  0
   22.6165  -21.2091  -12.1784 C   0  0  0  0  0  0  0  0  0  0  0  0
   20.2422  -20.9636  -11.7344 O   0  0  0  0  0  0  0  0  0  0  0  0
   20.4009  -21.7766  -10.8006 O   0  0  0  0  0  0  0  0  0  0  0  0
  2  1  1  0
  3  2  2  0
  4  2  1  0
  5  4  1  0
  6  5  1  0
  7  8  1  0
  7  6  1  0
  8 10  1  0
  8  9  1  6
 10 17  1  0
 11 10  2  0
 13 14  1  0
 13 12  1  0
 14 15  1  0
 16 15  1  1
 17 16  1  0
 18 19  2  0
 18 16  1  0
 21 20  1  6
 21 23  1  0
 21 22  1  0
 23 24  1  1
 24 18  1  0
 25 27  1  0
 25 23  1  0
 26 25  2  0
M  END
$$$$
