RMT.pdb
     RDKit          3D

 27 26  0  0  1  0  0  0  0  0999 V2000
   29.8327  -23.7339  -17.2389 N   0  0  0  0  0  0  0  0  0  0  0  0
   30.4149  -22.6245  -17.9183 C   0  0  0  0  0  0  0  0  0  0  0  0
   31.3618  -22.7705  -18.7875 N   0  0  0  0  0  0  0  0  0  0  0  0
   29.9244  -21.3246  -17.6209 N   0  0  0  0  0  0  0  0  0  0  0  0
   28.8408  -21.2053  -16.6823 C   0  0  0  0  0  0  0  0  0  0  0  0
   27.5032  -21.4808  -17.3777 C   0  0  0  0  0  0  0  0  0  0  0  0
   26.3709  -21.3446  -16.3797 C   0  0  0  0  0  0  0  0  0  0  0  0
   26.4314  -22.5024  -15.4059 C   0  0  2  0  0  0  0  0  0  0  0  0
   26.2721  -23.7072  -16.1753 N   0  0  0  0  0  0  0  0  0  0  0  0
   25.4002  -22.3711  -14.3486 C   0  0  0  0  0  0  0  0  0  0  0  0
   24.3042  -23.0254  -14.3810 O   0  0  0  0  0  0  0  0  0  0  0  0
   31.7736  -21.9056  -19.1946 C   0  0  0  0  0  0  0  0  0  0  0  0
   25.8966  -19.4593   -8.2977 S   0  0  0  0  0  0  0  0  0  0  0  0
   26.8956  -20.8790   -8.7935 C   0  0  0  0  0  0  0  0  0  0  0  0
   26.2574  -21.6405  -10.3126 C   0  0  0  0  0  0  0  0  0  0  0  0
   25.1641  -20.7668  -10.9299 C   0  0  2  0  0  0  0  0  0  0  0  0
   24.6276  -21.3554  -12.1794 N   0  0  0  0  0  0  0  0  0  0  0  0
   25.5658  -21.5196  -13.2487 C   0  0  0  0  0  0  0  0  0  0  0  0
   23.5228  -20.4948  -12.6762 O   0  0  0  0  0  0  0  0  0  0  0  0
   23.6644  -19.2306  -12.8142 C   0  0  0  0  0  0  0  0  0  0  0  0
   21.8204  -20.4167  -15.8555 C   0  0  2  0  0  0  0  0  0  0  0  0
   20.7195  -20.6118  -14.8345 O   0  0  0  0  0  0  0  0  0  0  0  0
   20.3323  -21.9418  -14.7361 C   0  0  2  0  0  0  0  0  0  0  0  0
   21.1531  -20.1062  -13.4580 N   0  0  0  0  0  0  0  0  0  0  0  0
   22.2367  -20.9847  -13.0361 C   0  0  0  0  0  0  0  0  0  0  0  0
   20.0380  -20.0924  -12.5222 O   0  0  0  0  0  0  0  0  0  0  0  0
   20.0387  -20.8442  -11.5257 O   0  0  0  0  0  0  0  0  0  0  0  0
  2  1  1  0
  3  2  2  0
  4  2  1  0
  5  4  1  0
  6  5  1  0
  7  8  1  0
  7  6  1  0
  8 10  1  0
  8  9  1  6
 10 17  1  0
 11 10  2  0
 13 14  1  0
 13 12  1  0
 14 15  1  0
 16 15  1  1
 17 16  1  0
 18 19  2  0
 18 16  1  0
 21 20  1  6
 21 23  1  0
 21 22  1  0
 23 24  1  1
 24 18  1  0
 25 27  1  0
 25 23  1  0
 26 25  2  0
M  END
$$$$
