RMT.pdb
     RDKit          3D

 27 26  0  0  1  0  0  0  0  0999 V2000
   28.5377  -21.2652  -10.7267 N   0  0  0  0  0  0  0  0  0  0  0  0
   29.3455  -21.0741  -11.8851 C   0  0  0  0  0  0  0  0  0  0  0  0
   30.2814  -21.9039  -12.2153 N   0  0  0  0  0  0  0  0  0  0  0  0
   29.0982  -19.9317  -12.6930 N   0  0  0  0  0  0  0  0  0  0  0  0
   27.9379  -19.1324  -12.4029 C   0  0  0  0  0  0  0  0  0  0  0  0
   27.0872  -18.9536  -13.6651 C   0  0  0  0  0  0  0  0  0  0  0  0
   26.1342  -20.1232  -13.8087 C   0  0  0  0  0  0  0  0  0  0  0  0
   26.3348  -20.7572  -15.1689 C   0  0  2  0  0  0  0  0  0  0  0  0
   27.6150  -20.3156  -15.6536 N   0  0  0  0  0  0  0  0  0  0  0  0
   25.2319  -20.4049  -16.0951 C   0  0  0  0  0  0  0  0  0  0  0  0
   25.2026  -19.2969  -16.7292 O   0  0  0  0  0  0  0  0  0  0  0  0
   30.8683  -21.6586  -13.0391 C   0  0  0  0  0  0  0  0  0  0  0  0
   22.5358  -23.9931  -20.6995 S   0  0  0  0  0  0  0  0  0  0  0  0
   24.1022  -23.0969  -20.7503 C   0  0  0  0  0  0  0  0  0  0  0  0
   24.1929  -21.8459  -19.4382 C   0  0  0  0  0  0  0  0  0  0  0  0
   23.0842  -22.0700  -18.4084 C   0  0  2  0  0  0  0  0  0  0  0  0
   23.1344  -21.0690  -17.3172 N   0  0  0  0  0  0  0  0  0  0  0  0
   24.1533  -21.2670  -16.3307 C   0  0  0  0  0  0  0  0  0  0  0  0
   21.8237  -21.0602  -16.6171 O   0  0  0  0  0  0  0  0  0  0  0  0
   21.5353  -21.9233  -15.7176 C   0  0  0  0  0  0  0  0  0  0  0  0
   20.2475  -18.3812  -14.4932 C   0  0  2  0  0  0  0  0  0  0  0  0
   19.3277  -18.6848  -15.6568 O   0  0  0  0  0  0  0  0  0  0  0  0
   19.5155  -17.8011  -16.7114 C   0  0  2  0  0  0  0  0  0  0  0  0
   19.5273  -20.1174  -16.1536 N   0  0  0  0  0  0  0  0  0  0  0  0
   20.7933  -20.1140  -16.8754 C   0  0  0  0  0  0  0  0  0  0  0  0
   18.4078  -20.5549  -16.9750 O   0  0  0  0  0  0  0  0  0  0  0  0
   18.5540  -20.7301  -18.2023 O   0  0  0  0  0  0  0  0  0  0  0  0
  2  1  1  0
  3  2  2  0
  4  2  1  0
  5  4  1  0
  6  5  1  0
  7  8  1  0
  7  6  1  0
  8 10  1  0
  8  9  1  6
 10 17  1  0
 11 10  2  0
 13 14  1  0
 13 12  1  0
 14 15  1  0
 16 15  1  6
 17 16  1  0
 18 19  2  0
 18 16  1  0
 21 20  1  1
 21 23  1  0
 21 22  1  0
 23 24  1  1
 24 18  1  0
 25 27  1  0
 25 23  1  0
 26 25  2  0
M  END
$$$$
