PGS.pdb
     RDKit          3D

 18 18  0  0  1  0  0  0  0  0999 V2000
    7.3522  -14.7431   21.1119 N   0  0  0  0  0  0  0  0  0  0  0  0
    6.5729  -13.6505   20.6198 C   0  0  0  0  0  0  0  0  0  0  0  0
    7.5097  -12.7742   19.7891 C   0  0  0  0  0  0  0  0  0  0  0  0
    8.8521  -13.1237   20.4454 C   0  0  0  0  0  0  0  0  0  0  0  0
    8.6812  -14.6360   20.5967 C   0  0  1  0  0  0  0  0  0  0  0  0
    9.6563  -15.2131   21.5242 C   0  0  0  0  0  0  0  0  0  0  0  0
   10.8800  -15.1482   21.2434 O   0  0  0  0  0  0  0  0  0  0  0  0
    9.2582  -15.8492   22.7415 N   0  0  0  0  0  0  0  0  0  0  0  0
   10.2750  -16.4037   23.5793 C   0  0  0  0  0  0  0  0  0  0  0  0
   10.4164  -15.6127   24.8541 C   0  0  0  0  0  0  0  0  0  0  0  0
   11.3142  -15.8801   25.6944 O   0  0  0  0  0  0  0  0  0  0  0  0
    7.2167  -13.4338   26.0791 O   0  0  0  0  0  0  0  0  0  0  0  0
    8.4173  -12.7787   26.2893 C   0  0  0  0  0  0  0  0  0  0  0  0
    9.5818  -13.7719   26.3566 C   0  0  2  0  0  0  0  0  0  0  0  0
    9.5466  -14.5410   25.1543 N   0  0  0  0  0  0  0  0  0  0  0  0
    9.3821  -14.5944   27.5763 C   0  0  0  0  0  0  0  0  0  0  0  0
    8.9583  -15.9117   27.5054 O   0  0  0  0  0  0  0  0  0  0  0  0
    9.5916  -14.1227   28.7244 O   0  0  0  0  0  0  0  0  0  0  0  0
  1  5  1  0
  1  2  1  0
  2  3  1  0
  4  3  1  0
  5  4  1  0
  6  8  1  0
  5  6  1  1
  7  6  2  0
  9  8  1  0
 10  9  1  0
 11 10  2  0
 12 13  1  0
 14 13  1  6
 14 16  1  0
 14 15  1  0
 15 10  1  0
 16 17  1  0
 18 16  2  0
M  END
$$$$
