PGS.pdb
     RDKit          3D

 18 18  0  0  1  0  0  0  0  0999 V2000
    6.9548  -14.4920   20.1656 N   0  0  0  0  0  0  0  0  0  0  0  0
    6.7594  -13.3274   19.3602 C   0  0  0  0  0  0  0  0  0  0  0  0
    8.1432  -12.7416   19.0818 C   0  0  0  0  0  0  0  0  0  0  0  0
    8.9072  -13.2730   20.3021 C   0  0  0  0  0  0  0  0  0  0  0  0
    8.3568  -14.6991   20.3520 C   0  0  1  0  0  0  0  0  0  0  0  0
    8.6293  -15.3528   21.6335 C   0  0  0  0  0  0  0  0  0  0  0  0
    9.7869  -15.7848   21.8657 O   0  0  0  0  0  0  0  0  0  0  0  0
    7.6170  -15.5150   22.6306 N   0  0  0  0  0  0  0  0  0  0  0  0
    7.9709  -16.1618   23.8553 C   0  0  0  0  0  0  0  0  0  0  0  0
    8.8766  -15.2893   24.6856 C   0  0  0  0  0  0  0  0  0  0  0  0
   10.1074  -15.2013   24.4387 O   0  0  0  0  0  0  0  0  0  0  0  0
    7.0543  -12.9895   27.4797 O   0  0  0  0  0  0  0  0  0  0  0  0
    8.3323  -12.5855   27.1356 C   0  0  0  0  0  0  0  0  0  0  0  0
    9.1804  -13.7753   26.6750 C   0  0  2  0  0  0  0  0  0  0  0  0
    8.3784  -14.5372   25.7725 N   0  0  0  0  0  0  0  0  0  0  0  0
    9.5623  -14.5344   27.8925 C   0  0  0  0  0  0  0  0  0  0  0  0
   10.4271  -14.0074   28.8381 O   0  0  0  0  0  0  0  0  0  0  0  0
    9.1122  -15.6895   28.1107 O   0  0  0  0  0  0  0  0  0  0  0  0
  1  5  1  0
  1  2  1  0
  2  3  1  0
  4  3  1  0
  5  4  1  0
  6  8  1  0
  5  6  1  1
  7  6  2  0
  9  8  1  0
 10  9  1  0
 11 10  2  0
 12 13  1  0
 14 13  1  1
 14 16  1  0
 14 15  1  0
 15 10  1  0
 16 17  1  0
 18 16  2  0
M  END
$$$$
