PGS.pdb
     RDKit          3D

 18 18  0  0  1  0  0  0  0  0999 V2000
    7.3567  -15.0166   20.0833 N   0  0  0  0  0  0  0  0  0  0  0  0
    6.5894  -14.3101   19.1058 C   0  0  0  0  0  0  0  0  0  0  0  0
    7.3442  -13.0176   18.7968 C   0  0  0  0  0  0  0  0  0  0  0  0
    8.1155  -12.8395   20.1114 C   0  0  0  0  0  0  0  0  0  0  0  0
    8.5545  -14.2846   20.3526 C   0  0  1  0  0  0  0  0  0  0  0  0
    9.0099  -14.5025   21.7271 C   0  0  0  0  0  0  0  0  0  0  0  0
   10.1468  -14.0875   22.0676 O   0  0  0  0  0  0  0  0  0  0  0  0
    8.1995  -15.1740   22.6953 N   0  0  0  0  0  0  0  0  0  0  0  0
    8.6316  -15.1722   24.0579 C   0  0  0  0  0  0  0  0  0  0  0  0
    9.6209  -16.2799   24.3128 C   0  0  0  0  0  0  0  0  0  0  0  0
    9.5011  -17.4045   23.7609 O   0  0  0  0  0  0  0  0  0  0  0  0
   13.3469  -15.9747   24.0891 O   0  0  0  0  0  0  0  0  0  0  0  0
   13.0749  -16.3887   25.3811 C   0  0  0  0  0  0  0  0  0  0  0  0
   11.7129  -17.0855   25.4606 C   0  0  2  0  0  0  0  0  0  0  0  0
   10.7202  -16.0982   25.1810 N   0  0  0  0  0  0  0  0  0  0  0  0
   11.5947  -17.6550   26.8266 C   0  0  0  0  0  0  0  0  0  0  0  0
   12.4238  -18.6748   27.2650 O   0  0  0  0  0  0  0  0  0  0  0  0
   10.7329  -17.2300   27.6397 O   0  0  0  0  0  0  0  0  0  0  0  0
  1  5  1  0
  1  2  1  0
  2  3  1  0
  4  3  1  0
  5  4  1  0
  6  8  1  0
  5  6  1  1
  7  6  2  0
  9  8  1  0
 10  9  1  0
 11 10  2  0
 12 13  1  0
 14 13  1  1
 14 16  1  0
 14 15  1  0
 15 10  1  0
 16 17  1  0
 18 16  2  0
M  END
$$$$
