PGS.pdb
     RDKit          3D

 18 18  0  0  1  0  0  0  0  0999 V2000
   -3.0144  -27.1894   24.7083 N   0  0  0  0  0  0  0  0  0  0  0  0
   -3.1743  -28.5953   24.5051 C   0  0  0  0  0  0  0  0  0  0  0  0
   -4.4871  -28.7888   23.7470 C   0  0  0  0  0  0  0  0  0  0  0  0
   -5.2346  -27.5212   24.1821 C   0  0  0  0  0  0  0  0  0  0  0  0
   -4.0988  -26.5021   24.0799 C   0  0  1  0  0  0  0  0  0  0  0  0
   -4.4105  -25.2541   24.7794 C   0  0  0  0  0  0  0  0  0  0  0  0
   -3.7711  -24.2123   24.4855 O   0  0  0  0  0  0  0  0  0  0  0  0
   -5.4218  -25.1843   25.7881 N   0  0  0  0  0  0  0  0  0  0  0  0
   -5.7249  -23.9077   26.3553 C   0  0  0  0  0  0  0  0  0  0  0  0
   -6.8208  -24.0193   27.3837 C   0  0  0  0  0  0  0  0  0  0  0  0
   -7.5682  -25.0304   27.4368 O   0  0  0  0  0  0  0  0  0  0  0  0
   -6.5516  -21.9522   30.8778 O   0  0  0  0  0  0  0  0  0  0  0  0
   -7.7915  -21.8400   30.2737 C   0  0  0  0  0  0  0  0  0  0  0  0
   -8.0575  -23.0240   29.3388 C   0  0  2  0  0  0  0  0  0  0  0  0
   -7.0507  -22.9935   28.3270 N   0  0  0  0  0  0  0  0  0  0  0  0
   -9.4287  -22.8508   28.7968 C   0  0  0  0  0  0  0  0  0  0  0  0
  -10.5389  -23.3685   29.4443 O   0  0  0  0  0  0  0  0  0  0  0  0
   -9.6335  -22.2245   27.7242 O   0  0  0  0  0  0  0  0  0  0  0  0
  1  5  1  0
  1  2  1  0
  2  3  1  0
  4  3  1  0
  5  4  1  0
  6  8  1  0
  5  6  1  1
  7  6  2  0
  9  8  1  0
 10  9  1  0
 11 10  2  0
 12 13  1  0
 14 13  1  1
 14 16  1  0
 14 15  1  0
 15 10  1  0
 16 17  1  0
 18 16  2  0
M  END
$$$$
