PGS.pdb
     RDKit          3D

 18 18  0  0  1  0  0  0  0  0999 V2000
    8.6413  -18.1749   20.9530 N   0  0  0  0  0  0  0  0  0  0  0  0
    8.2523  -18.8638   19.7625 C   0  0  0  0  0  0  0  0  0  0  0  0
    8.9891  -18.1968   18.6015 C   0  0  0  0  0  0  0  0  0  0  0  0
    9.2033  -16.7967   19.1921 C   0  0  0  0  0  0  0  0  0  0  0  0
    9.6066  -17.1754   20.6180 C   0  0  1  0  0  0  0  0  0  0  0  0
    9.5297  -16.0369   21.5356 C   0  0  0  0  0  0  0  0  0  0  0  0
   10.3710  -15.1087   21.4302 O   0  0  0  0  0  0  0  0  0  0  0  0
    8.5250  -15.9488   22.5495 N   0  0  0  0  0  0  0  0  0  0  0  0
    8.4566  -14.7547   23.3324 C   0  0  0  0  0  0  0  0  0  0  0  0
    9.3312  -14.8589   24.5551 C   0  0  0  0  0  0  0  0  0  0  0  0
   10.3923  -15.5356   24.5453 O   0  0  0  0  0  0  0  0  0  0  0  0
    8.0172  -12.5806   27.4144 O   0  0  0  0  0  0  0  0  0  0  0  0
    9.3751  -12.7578   27.6134 C   0  0  0  0  0  0  0  0  0  0  0  0
    9.8881  -13.9827   26.8496 C   0  0  2  0  0  0  0  0  0  0  0  0
    8.9935  -14.2011   25.7586 N   0  0  0  0  0  0  0  0  0  0  0  0
    9.9166  -15.1140   27.8105 C   0  0  0  0  0  0  0  0  0  0  0  0
   10.7544  -15.1114   28.9142 O   0  0  0  0  0  0  0  0  0  0  0  0
    9.1774  -16.1212   27.6569 O   0  0  0  0  0  0  0  0  0  0  0  0
  1  5  1  0
  1  2  1  0
  2  3  1  0
  4  3  1  0
  5  4  1  0
  6  8  1  0
  5  6  1  1
  7  6  2  0
  9  8  1  0
 10  9  1  0
 11 10  2  0
 12 13  1  0
 14 13  1  1
 14 16  1  0
 14 15  1  0
 15 10  1  0
 16 17  1  0
 18 16  2  0
M  END
$$$$
