PGS.pdb
     RDKit          3D

 18 18  0  0  1  0  0  0  0  0999 V2000
    7.7154  -14.6637   19.5898 N   0  0  0  0  0  0  0  0  0  0  0  0
    6.8547  -13.5977   19.1820 C   0  0  0  0  0  0  0  0  0  0  0  0
    7.4010  -12.3181   19.8143 C   0  0  0  0  0  0  0  0  0  0  0  0
    8.1251  -12.9108   21.0306 C   0  0  0  0  0  0  0  0  0  0  0  0
    8.7823  -14.1261   20.3746 C   0  0  1  0  0  0  0  0  0  0  0  0
    9.2556  -15.0990   21.3612 C   0  0  0  0  0  0  0  0  0  0  0  0
   10.2155  -14.7907   22.1123 O   0  0  0  0  0  0  0  0  0  0  0  0
    8.6582  -16.3913   21.4965 N   0  0  0  0  0  0  0  0  0  0  0  0
    9.2646  -17.3268   22.3912 C   0  0  0  0  0  0  0  0  0  0  0  0
    8.6395  -17.2491   23.7601 C   0  0  0  0  0  0  0  0  0  0  0  0
    7.6566  -16.4974   23.9893 O   0  0  0  0  0  0  0  0  0  0  0  0
    6.6367  -19.4088   27.0447 O   0  0  0  0  0  0  0  0  0  0  0  0
    7.3982  -19.2552   25.8996 C   0  0  0  0  0  0  0  0  0  0  0  0
    8.4737  -18.1816   26.0937 C   0  0  2  0  0  0  0  0  0  0  0  0
    9.1329  -18.0171   24.8381 N   0  0  0  0  0  0  0  0  0  0  0  0
    9.3810  -18.6636   27.1654 C   0  0  0  0  0  0  0  0  0  0  0  0
    9.1205  -18.4207   28.5044 O   0  0  0  0  0  0  0  0  0  0  0  0
   10.4248  -19.3133   26.8953 O   0  0  0  0  0  0  0  0  0  0  0  0
  1  5  1  0
  1  2  1  0
  2  3  1  0
  4  3  1  0
  5  4  1  0
  6  8  1  0
  5  6  1  1
  7  6  2  0
  9  8  1  0
 10  9  1  0
 11 10  2  0
 12 13  1  0
 14 13  1  6
 14 16  1  0
 14 15  1  0
 15 10  1  0
 16 17  1  0
 18 16  2  0
M  END
$$$$
