PGS.pdb
     RDKit          3D

 18 18  0  0  1  0  0  0  0  0999 V2000
    8.0202  -14.8716   20.0048 N   0  0  0  0  0  0  0  0  0  0  0  0
    7.6998  -14.3471   18.7142 C   0  0  0  0  0  0  0  0  0  0  0  0
    7.7690  -12.8243   18.8229 C   0  0  0  0  0  0  0  0  0  0  0  0
    7.4833  -12.6516   20.3208 C   0  0  0  0  0  0  0  0  0  0  0  0
    8.3395  -13.7884   20.8811 C   0  0  1  0  0  0  0  0  0  0  0  0
    7.9941  -14.1098   22.2672 C   0  0  0  0  0  0  0  0  0  0  0  0
    8.3407  -13.3207   23.1825 O   0  0  0  0  0  0  0  0  0  0  0  0
    7.2733  -15.2959   22.6119 N   0  0  0  0  0  0  0  0  0  0  0  0
    6.9295  -15.5043   23.9837 C   0  0  0  0  0  0  0  0  0  0  0  0
    7.7758  -16.5914   24.5942 C   0  0  0  0  0  0  0  0  0  0  0  0
    7.5083  -17.0713   25.7264 O   0  0  0  0  0  0  0  0  0  0  0  0
   11.0664  -19.9843   23.5864 O   0  0  0  0  0  0  0  0  0  0  0  0
   10.1811  -18.9907   23.2075 C   0  0  0  0  0  0  0  0  0  0  0  0
    9.7410  -18.1561   24.4144 C   0  0  2  0  0  0  0  0  0  0  0  0
    8.9015  -17.1131   23.9189 N   0  0  0  0  0  0  0  0  0  0  0  0
   10.9748  -17.6470   25.0644 C   0  0  0  0  0  0  0  0  0  0  0  0
   11.7685  -18.4593   25.8581 O   0  0  0  0  0  0  0  0  0  0  0  0
   11.3464  -16.4533   24.9174 O   0  0  0  0  0  0  0  0  0  0  0  0
  1  5  1  0
  1  2  1  0
  2  3  1  0
  4  3  1  0
  5  4  1  0
  6  8  1  0
  5  6  1  1
  7  6  2  0
  9  8  1  0
 10  9  1  0
 11 10  2  0
 12 13  1  0
 14 13  1  6
 14 16  1  0
 14 15  1  0
 15 10  1  0
 16 17  1  0
 18 16  2  0
M  END
$$$$
