PGS.pdb
     RDKit          3D

 18 18  0  0  1  0  0  0  0  0999 V2000
    7.3686  -15.2183   20.1425 N   0  0  0  0  0  0  0  0  0  0  0  0
    6.3726  -14.1951   20.0766 C   0  0  0  0  0  0  0  0  0  0  0  0
    7.0501  -12.9509   19.5032 C   0  0  0  0  0  0  0  0  0  0  0  0
    8.5016  -13.2224   19.9207 C   0  0  0  0  0  0  0  0  0  0  0  0
    8.5901  -14.7146   19.5970 C   0  0  1  0  0  0  0  0  0  0  0  0
    9.7510  -15.3490   20.2244 C   0  0  0  0  0  0  0  0  0  0  0  0
   10.9038  -14.9450   19.9269 O   0  0  0  0  0  0  0  0  0  0  0  0
    9.6131  -16.4160   21.1666 N   0  0  0  0  0  0  0  0  0  0  0  0
   10.7993  -16.9669   21.7435 C   0  0  0  0  0  0  0  0  0  0  0  0
   10.9451  -16.5480   23.1837 C   0  0  0  0  0  0  0  0  0  0  0  0
   12.0453  -16.6478   23.7864 O   0  0  0  0  0  0  0  0  0  0  0  0
    8.4616  -13.8343   24.9244 O   0  0  0  0  0  0  0  0  0  0  0  0
    8.5546  -15.0184   25.6343 C   0  0  0  0  0  0  0  0  0  0  0  0
    9.8606  -15.7519   25.3127 C   0  0  2  0  0  0  0  0  0  0  0  0
    9.8524  -16.0274   23.9119 N   0  0  0  0  0  0  0  0  0  0  0  0
    9.8852  -16.9813   26.1445 C   0  0  0  0  0  0  0  0  0  0  0  0
   10.0190  -16.9260   27.5225 O   0  0  0  0  0  0  0  0  0  0  0  0
    9.7850  -18.1238   25.6258 O   0  0  0  0  0  0  0  0  0  0  0  0
  1  5  1  0
  1  2  1  0
  2  3  1  0
  4  3  1  0
  5  4  1  0
  6  8  1  0
  5  6  1  1
  7  6  2  0
  9  8  1  0
 10  9  1  0
 11 10  2  0
 12 13  1  0
 14 13  1  1
 14 16  1  0
 14 15  1  0
 15 10  1  0
 16 17  1  0
 18 16  2  0
M  END
$$$$
