PGS.pdb
     RDKit          3D

 18 18  0  0  1  0  0  0  0  0999 V2000
    7.5286  -15.1765   20.1864 N   0  0  0  0  0  0  0  0  0  0  0  0
    6.4505  -14.2444   20.0759 C   0  0  0  0  0  0  0  0  0  0  0  0
    7.0161  -12.9855   19.4195 C   0  0  0  0  0  0  0  0  0  0  0  0
    8.4896  -13.1112   19.8294 C   0  0  0  0  0  0  0  0  0  0  0  0
    8.6981  -14.6078   19.5930 C   0  0  1  0  0  0  0  0  0  0  0  0
    9.9144  -15.1058   20.2383 C   0  0  0  0  0  0  0  0  0  0  0  0
   11.0221  -14.5973   19.9302 O   0  0  0  0  0  0  0  0  0  0  0  0
    9.8803  -16.1546   21.2100 N   0  0  0  0  0  0  0  0  0  0  0  0
   11.1184  -16.5993   21.7693 C   0  0  0  0  0  0  0  0  0  0  0  0
   11.1864  -16.2938   23.2434 C   0  0  0  0  0  0  0  0  0  0  0  0
   12.2416  -16.4820   23.9030 O   0  0  0  0  0  0  0  0  0  0  0  0
    7.6607  -15.0969   25.1263 O   0  0  0  0  0  0  0  0  0  0  0  0
    8.8586  -14.6201   25.6287 C   0  0  0  0  0  0  0  0  0  0  0  0
   10.0006  -15.6040   25.3554 C   0  0  2  0  0  0  0  0  0  0  0  0
   10.0686  -15.7846   23.9409 N   0  0  0  0  0  0  0  0  0  0  0  0
    9.6794  -16.8567   26.0845 C   0  0  0  0  0  0  0  0  0  0  0  0
    9.8294  -16.9592   27.4581 O   0  0  0  0  0  0  0  0  0  0  0  0
    9.2570  -17.8759   25.4784 O   0  0  0  0  0  0  0  0  0  0  0  0
  1  5  1  0
  1  2  1  0
  2  3  1  0
  4  3  1  0
  5  4  1  0
  6  8  1  0
  5  6  1  1
  7  6  2  0
  9  8  1  0
 10  9  1  0
 11 10  2  0
 12 13  1  0
 14 13  1  6
 14 16  1  0
 14 15  1  0
 15 10  1  0
 16 17  1  0
 18 16  2  0
M  END
$$$$
