PGS.pdb
     RDKit          3D

 18 18  0  0  1  0  0  0  0  0999 V2000
    8.3032  -15.2010   19.8514 N   0  0  0  0  0  0  0  0  0  0  0  0
    7.7424  -14.8570   18.5824 C   0  0  0  0  0  0  0  0  0  0  0  0
    7.6461  -13.3324   18.5370 C   0  0  0  0  0  0  0  0  0  0  0  0
    7.5585  -13.0269   20.0384 C   0  0  0  0  0  0  0  0  0  0  0  0
    8.6140  -14.0013   20.5636 C   0  0  1  0  0  0  0  0  0  0  0  0
    8.5101  -14.2026   22.0101 C   0  0  0  0  0  0  0  0  0  0  0  0
    8.7285  -13.2328   22.7797 O   0  0  0  0  0  0  0  0  0  0  0  0
    8.1673  -15.4710   22.5749 N   0  0  0  0  0  0  0  0  0  0  0  0
    7.9213  -15.5413   23.9813 C   0  0  0  0  0  0  0  0  0  0  0  0
    9.1550  -15.1744   24.7650 C   0  0  0  0  0  0  0  0  0  0  0  0
   10.2882  -15.1301   24.2194 O   0  0  0  0  0  0  0  0  0  0  0  0
    8.5429  -13.4525   28.3484 O   0  0  0  0  0  0  0  0  0  0  0  0
    9.7803  -13.2623   27.7589 C   0  0  0  0  0  0  0  0  0  0  0  0
   10.2013  -14.4952   26.9529 C   0  0  2  0  0  0  0  0  0  0  0  0
    9.0865  -14.8663   26.1418 N   0  0  0  0  0  0  0  0  0  0  0  0
   10.5810  -15.5455   27.9310 C   0  0  0  0  0  0  0  0  0  0  0  0
   11.7036  -15.4218   28.7338 O   0  0  0  0  0  0  0  0  0  0  0  0
    9.8939  -16.5914   28.0671 O   0  0  0  0  0  0  0  0  0  0  0  0
  1  5  1  0
  1  2  1  0
  2  3  1  0
  4  3  1  0
  5  4  1  0
  6  8  1  0
  5  6  1  1
  7  6  2  0
  9  8  1  0
 10  9  1  0
 11 10  2  0
 12 13  1  0
 14 13  1  1
 14 16  1  0
 14 15  1  0
 15 10  1  0
 16 17  1  0
 18 16  2  0
M  END
$$$$
