PGS.pdb
     RDKit          3D

 18 18  0  0  1  0  0  0  0  0999 V2000
    7.6462  -14.6423   19.6988 N   0  0  0  0  0  0  0  0  0  0  0  0
    6.7738  -13.5653   19.3493 C   0  0  0  0  0  0  0  0  0  0  0  0
    7.6330  -12.3038   19.2721 C   0  0  0  0  0  0  0  0  0  0  0  0
    8.7714  -12.6991   20.2223 C   0  0  0  0  0  0  0  0  0  0  0  0
    8.9849  -14.1484   19.7828 C   0  0  1  0  0  0  0  0  0  0  0  0
    9.7704  -14.9114   20.7548 C   0  0  0  0  0  0  0  0  0  0  0  0
   10.9666  -14.5863   20.9643 O   0  0  0  0  0  0  0  0  0  0  0  0
    9.2172  -16.0167   21.4740 N   0  0  0  0  0  0  0  0  0  0  0  0
   10.0344  -16.6654   22.4512 C   0  0  0  0  0  0  0  0  0  0  0  0
    9.4779  -16.4691   23.8379 C   0  0  0  0  0  0  0  0  0  0  0  0
    9.2787  -15.3183   24.3065 O   0  0  0  0  0  0  0  0  0  0  0  0
    6.6364  -18.2436   25.0781 O   0  0  0  0  0  0  0  0  0  0  0  0
    7.4934  -18.3908   26.1545 C   0  0  0  0  0  0  0  0  0  0  0  0
    8.7124  -17.4732   26.0169 C   0  0  2  0  0  0  0  0  0  0  0  0
    9.1588  -17.5693   24.6643 N   0  0  0  0  0  0  0  0  0  0  0  0
    9.7244  -17.9445   26.9957 C   0  0  0  0  0  0  0  0  0  0  0  0
    9.5447  -17.7902   28.3609 O   0  0  0  0  0  0  0  0  0  0  0  0
   10.7872  -18.5041   26.6190 O   0  0  0  0  0  0  0  0  0  0  0  0
  1  5  1  0
  1  2  1  0
  2  3  1  0
  4  3  1  0
  5  4  1  0
  6  8  1  0
  5  6  1  1
  7  6  2  0
  9  8  1  0
 10  9  1  0
 11 10  2  0
 12 13  1  0
 14 13  1  6
 14 16  1  0
 14 15  1  0
 15 10  1  0
 16 17  1  0
 18 16  2  0
M  END
$$$$
