CLL.pdb
     RDKit          3D

 23 22  0  0  1  0  0  0  0  0999 V2000
   28.2558  -20.2487  -15.4718 N   0  0  0  0  0  0  0  0  0  0  0  0
   27.4460  -19.4946  -14.5685 C   0  0  1  0  0  0  0  0  0  0  0  0
   26.8393  -18.3071  -15.2628 C   0  0  0  0  0  0  0  0  0  0  0  0
   28.1580  -17.0655  -15.4562 S   0  0  0  0  0  0  0  0  0  0  0  0
   26.4164  -20.3604  -13.9237 C   0  0  0  0  0  0  0  0  0  0  0  0
   26.0045  -21.3488  -14.5528 O   0  0  0  0  0  0  0  0  0  0  0  0
   26.7239  -21.9989  -10.1019 C   0  0  0  0  0  0  0  0  0  0  0  0
   26.2252  -20.5709   -9.9760 C   0  0  2  0  0  0  0  0  0  0  0  0
   26.1514  -20.2473   -8.5005 C   0  0  0  0  0  0  0  0  0  0  0  0
   24.8190  -20.5444  -10.5375 C   0  0  0  0  0  0  0  0  0  0  0  0
   24.8028  -20.7731  -12.0112 C   0  0  2  0  0  0  0  0  0  0  0  0
   25.9067  -20.0817  -12.6268 N   0  0  0  0  0  0  0  0  0  0  0  0
   23.5355  -20.3430  -12.6534 C   0  0  0  0  0  0  0  0  0  0  0  0
   23.3568  -19.1333  -12.9226 O   0  0  0  0  0  0  0  0  0  0  0  0
   18.9903  -21.5466  -15.7726 C   0  0  0  0  0  0  0  0  0  0  0  0
   20.4035  -21.2050  -16.1249 C   0  0  2  0  0  0  0  0  0  0  0  0
   20.7490  -21.7719  -17.5100 C   0  0  0  0  0  0  0  0  0  0  0  0
   21.4503  -21.4856  -15.1351 C   0  0  0  0  0  0  0  0  0  0  0  0
   21.3328  -20.8689  -13.8120 C   0  0  2  0  0  0  0  0  0  0  0  0
   22.5045  -21.2473  -12.9806 N   0  0  0  0  0  0  0  0  0  0  0  0
   20.1720  -21.2229  -13.0274 C   0  0  0  0  0  0  0  0  0  0  0  0
   19.1316  -20.5581  -12.8148 O   0  0  0  0  0  0  0  0  0  0  0  0
   20.1646  -22.4962  -12.3891 O   0  0  0  0  0  0  0  0  0  0  0  0
  2  1  1  6
  2  5  1  0
  3  2  1  0
  4  3  1  0
  5 12  1  0
  5  6  2  0
  8  7  1  1
  8 10  1  0
  8  9  1  0
 11 10  1  1
 11 13  1  0
 12 11  1  0
 13 14  2  0
 16 18  1  0
 16 15  1  1
 17 16  1  0
 19 18  1  6
 19 21  1  0
 20 13  1  0
 20 19  1  0
 21 23  1  0
 22 21  2  0
M  END
$$$$
