CLL.pdb
     RDKit          3D

 23 22  0  0  1  0  0  0  0  0999 V2000
   25.4952  -16.6789  -16.3921 N   0  0  0  0  0  0  0  0  0  0  0  0
   26.5234  -17.1163  -15.5022 C   0  0  1  0  0  0  0  0  0  0  0  0
   26.6885  -16.1484  -14.3637 C   0  0  0  0  0  0  0  0  0  0  0  0
   27.0257  -14.5134  -15.0923 S   0  0  0  0  0  0  0  0  0  0  0  0
   26.2651  -18.5075  -15.0298 C   0  0  0  0  0  0  0  0  0  0  0  0
   25.0897  -18.8433  -14.8107 O   0  0  0  0  0  0  0  0  0  0  0  0
   26.8022  -22.1787  -16.9684 C   0  0  0  0  0  0  0  0  0  0  0  0
   28.1335  -21.5977  -16.5279 C   0  0  2  0  0  0  0  0  0  0  0  0
   29.2205  -22.4960  -17.0745 C   0  0  0  0  0  0  0  0  0  0  0  0
   28.1697  -21.6766  -15.0160 C   0  0  0  0  0  0  0  0  0  0  0  0
   27.1403  -20.7994  -14.3872 C   0  0  2  0  0  0  0  0  0  0  0  0
   27.3187  -19.4398  -14.8290 N   0  0  0  0  0  0  0  0  0  0  0  0
   27.1678  -20.8404  -12.9037 C   0  0  0  0  0  0  0  0  0  0  0  0
   28.2539  -20.6883  -12.2997 O   0  0  0  0  0  0  0  0  0  0  0  0
   27.4157  -20.6000   -7.8033 C   0  0  0  0  0  0  0  0  0  0  0  0
   26.6256  -19.6663   -8.6646 C   0  0  2  0  0  0  0  0  0  0  0  0
   25.1961  -19.5338   -8.1183 C   0  0  0  0  0  0  0  0  0  0  0  0
   26.6457  -19.8804  -10.1164 C   0  0  0  0  0  0  0  0  0  0  0  0
   26.0304  -21.1006  -10.6432 C   0  0  2  0  0  0  0  0  0  0  0  0
   26.0087  -21.0462  -12.1277 N   0  0  0  0  0  0  0  0  0  0  0  0
   24.6668  -21.3680  -10.2463 C   0  0  0  0  0  0  0  0  0  0  0  0
   23.6079  -20.8414  -10.6598 O   0  0  0  0  0  0  0  0  0  0  0  0
   24.4477  -22.3617   -9.2498 O   0  0  0  0  0  0  0  0  0  0  0  0
  2  1  1  6
  2  5  1  0
  3  2  1  0
  4  3  1  0
  5 12  1  0
  5  6  2  0
  8  7  1  6
  8 10  1  0
  8  9  1  0
 11 10  1  6
 11 13  1  0
 12 11  1  0
 13 14  2  0
 16 18  1  0
 16 15  1  1
 17 16  1  0
 19 18  1  1
 19 21  1  0
 20 13  1  0
 20 19  1  0
 21 23  1  0
 22 21  2  0
M  END
$$$$
