CLL.pdb
     RDKit          3D

 23 22  0  0  1  0  0  0  0  0999 V2000
   18.4004  -12.2912  -16.9652 N   0  0  0  0  0  0  0  0  0  0  0  0
   19.5338  -11.6152  -16.4185 C   0  0  1  0  0  0  0  0  0  0  0  0
   20.5839  -11.3998  -17.4726 C   0  0  0  0  0  0  0  0  0  0  0  0
   22.0594  -10.7376  -16.6345 S   0  0  0  0  0  0  0  0  0  0  0  0
   19.1280  -10.3421  -15.7551 C   0  0  0  0  0  0  0  0  0  0  0  0
   18.5708   -9.4732  -16.4456 O   0  0  0  0  0  0  0  0  0  0  0  0
   16.3509   -8.6485  -12.7572 C   0  0  0  0  0  0  0  0  0  0  0  0
   17.3189   -9.6998  -12.2456 C   0  0  2  0  0  0  0  0  0  0  0  0
   16.9762   -9.9611  -10.7960 C   0  0  0  0  0  0  0  0  0  0  0  0
   18.7032   -9.0884  -12.3023 C   0  0  0  0  0  0  0  0  0  0  0  0
   19.1502   -8.8494  -13.7050 C   0  0  2  0  0  0  0  0  0  0  0  0
   19.3622  -10.1080  -14.3732 N   0  0  0  0  0  0  0  0  0  0  0  0
   20.3875   -8.0341  -13.7910 C   0  0  0  0  0  0  0  0  0  0  0  0
   21.4928   -8.5547  -13.5168 O   0  0  0  0  0  0  0  0  0  0  0  0
   23.3484   -3.7710  -15.8604 C   0  0  0  0  0  0  0  0  0  0  0  0
   23.2628   -5.2361  -16.1500 C   0  0  2  0  0  0  0  0  0  0  0  0
   23.6474   -5.5037  -17.6128 C   0  0  0  0  0  0  0  0  0  0  0  0
   22.0399   -5.9479  -15.7600 C   0  0  0  0  0  0  0  0  0  0  0  0
   21.6197   -5.8822  -14.3586 C   0  0  2  0  0  0  0  0  0  0  0  0
   20.3782   -6.6771  -14.1735 N   0  0  0  0  0  0  0  0  0  0  0  0
   21.3222   -4.5718  -13.8270 C   0  0  0  0  0  0  0  0  0  0  0  0
   20.2461   -3.9315  -13.8645 O   0  0  0  0  0  0  0  0  0  0  0  0
   22.3677   -3.8735  -13.1576 O   0  0  0  0  0  0  0  0  0  0  0  0
  2  1  1  6
  2  5  1  0
  3  2  1  0
  4  3  1  0
  5 12  1  0
  5  6  2  0
  8  7  1  1
  8 10  1  0
  8  9  1  0
 11 10  1  1
 11 13  1  0
 12 11  1  0
 13 14  2  0
 16 18  1  0
 16 15  1  6
 17 16  1  0
 19 18  1  6
 19 21  1  0
 20 13  1  0
 20 19  1  0
 21 23  1  0
 22 21  2  0
M  END
$$$$
