CLL.pdb
     RDKit          3D

 23 22  0  0  1  0  0  0  0  0999 V2000
   28.3442  -20.0773  -15.4157 N   0  0  0  0  0  0  0  0  0  0  0  0
   28.5218  -20.7117  -14.1482 C   0  0  1  0  0  0  0  0  0  0  0  0
   29.9569  -20.6278  -13.7080 C   0  0  0  0  0  0  0  0  0  0  0  0
   30.1333  -21.6955  -12.2428 S   0  0  0  0  0  0  0  0  0  0  0  0
   27.5843  -20.1495  -13.1331 C   0  0  0  0  0  0  0  0  0  0  0  0
   27.6174  -18.9266  -12.9187 O   0  0  0  0  0  0  0  0  0  0  0  0
   24.0132  -18.8726  -13.2831 C   0  0  0  0  0  0  0  0  0  0  0  0
   24.0334  -20.3897  -13.3288 C   0  0  2  0  0  0  0  0  0  0  0  0
   22.6427  -20.8481  -13.7067 C   0  0  0  0  0  0  0  0  0  0  0  0
   24.3242  -20.8687  -11.9219 C   0  0  0  0  0  0  0  0  0  0  0  0
   25.6952  -20.4875  -11.4753 C   0  0  2  0  0  0  0  0  0  0  0  0
   26.6704  -20.9707  -12.4192 N   0  0  0  0  0  0  0  0  0  0  0  0
   26.0291  -20.9963  -10.1215 C   0  0  0  0  0  0  0  0  0  0  0  0
   26.3271  -22.2029   -9.9692 O   0  0  0  0  0  0  0  0  0  0  0  0
   29.0354  -20.4455   -6.3793 C   0  0  0  0  0  0  0  0  0  0  0  0
   28.0889  -19.3234   -6.6674 C   0  0  2  0  0  0  0  0  0  0  0  0
   28.3998  -18.1290   -5.7530 C   0  0  0  0  0  0  0  0  0  0  0  0
   26.6533  -19.6247   -6.7155 C   0  0  0  0  0  0  0  0  0  0  0  0
   26.2027  -20.7008   -7.6009 C   0  0  2  0  0  0  0  0  0  0  0  0
   26.0270  -20.1716   -8.9780 N   0  0  0  0  0  0  0  0  0  0  0  0
   24.9488  -21.3377   -7.2687 C   0  0  0  0  0  0  0  0  0  0  0  0
   24.6929  -22.1380   -6.3395 O   0  0  0  0  0  0  0  0  0  0  0  0
   23.8181  -21.0435   -8.0833 O   0  0  0  0  0  0  0  0  0  0  0  0
  2  1  1  6
  2  5  1  0
  3  2  1  0
  4  3  1  0
  5 12  1  0
  5  6  2  0
  8  7  1  1
  8 10  1  0
  8  9  1  0
 11 10  1  6
 11 13  1  0
 12 11  1  0
 13 14  2  0
 16 18  1  0
 16 15  1  1
 17 16  1  0
 19 18  1  1
 19 21  1  0
 20 13  1  0
 20 19  1  0
 21 23  1  0
 22 21  2  0
M  END
$$$$
