CLL.pdb
     RDKit          3D

 23 22  0  0  1  0  0  0  0  0999 V2000
   26.7288  -15.5680  -17.2869 N   0  0  0  0  0  0  0  0  0  0  0  0
   26.1105  -15.7665  -16.0146 C   0  0  1  0  0  0  0  0  0  0  0  0
   25.0058  -14.7699  -15.7989 C   0  0  0  0  0  0  0  0  0  0  0  0
   25.7565  -13.2885  -15.0504 S   0  0  0  0  0  0  0  0  0  0  0  0
   25.6407  -17.1742  -15.8626 C   0  0  0  0  0  0  0  0  0  0  0  0
   25.0292  -17.6936  -16.8107 O   0  0  0  0  0  0  0  0  0  0  0  0
   27.6482  -21.2939  -14.9002 C   0  0  0  0  0  0  0  0  0  0  0  0
   27.7128  -20.1577  -13.8958 C   0  0  2  0  0  0  0  0  0  0  0  0
   28.5379  -20.6387  -12.7231 C   0  0  0  0  0  0  0  0  0  0  0  0
   26.2981  -19.9165  -13.4123 C   0  0  0  0  0  0  0  0  0  0  0  0
   25.4511  -19.2800  -14.4620 C   0  0  2  0  0  0  0  0  0  0  0  0
   25.8748  -17.9197  -14.6756 N   0  0  0  0  0  0  0  0  0  0  0  0
   24.0040  -19.2966  -14.1319 C   0  0  0  0  0  0  0  0  0  0  0  0
   23.5848  -18.6415  -13.1506 O   0  0  0  0  0  0  0  0  0  0  0  0
   18.6878  -19.8174  -14.6771 C   0  0  0  0  0  0  0  0  0  0  0  0
   19.5103  -18.9169  -15.5434 C   0  0  2  0  0  0  0  0  0  0  0  0
   18.8187  -18.7221  -16.9010 C   0  0  0  0  0  0  0  0  0  0  0  0
   20.9404  -19.2135  -15.6883 C   0  0  0  0  0  0  0  0  0  0  0  0
   21.6003  -19.9698  -14.6218 C   0  0  2  0  0  0  0  0  0  0  0  0
   23.0616  -20.0278  -14.8836 N   0  0  0  0  0  0  0  0  0  0  0  0
   21.1853  -21.3423  -14.4417 C   0  0  0  0  0  0  0  0  0  0  0  0
   21.3972  -22.3330  -15.1786 O   0  0  0  0  0  0  0  0  0  0  0  0
   20.4286  -21.6602  -13.2777 O   0  0  0  0  0  0  0  0  0  0  0  0
  2  1  1  6
  2  5  1  0
  3  2  1  0
  4  3  1  0
  5 12  1  0
  5  6  2  0
  8  7  1  6
  8 10  1  0
  8  9  1  0
 11 10  1  1
 11 13  1  0
 12 11  1  0
 13 14  2  0
 16 18  1  0
 16 15  1  6
 17 16  1  0
 19 18  1  6
 19 21  1  0
 20 13  1  0
 20 19  1  0
 21 23  1  0
 22 21  2  0
M  END
$$$$
