CLL.pdb
     RDKit          3D

 23 22  0  0  1  0  0  0  0  0999 V2000
   27.8717  -19.2657  -15.2768 N   0  0  0  0  0  0  0  0  0  0  0  0
   27.7521  -20.3460  -14.3499 C   0  0  1  0  0  0  0  0  0  0  0  0
   29.1079  -20.8034  -13.8885 C   0  0  0  0  0  0  0  0  0  0  0  0
   29.6823  -22.0630  -15.0723 S   0  0  0  0  0  0  0  0  0  0  0  0
   26.8612  -19.9774  -13.2116 C   0  0  0  0  0  0  0  0  0  0  0  0
   26.9616  -18.8349  -12.7350 O   0  0  0  0  0  0  0  0  0  0  0  0
   22.6197  -19.0944  -12.2953 C   0  0  0  0  0  0  0  0  0  0  0  0
   22.9346  -20.4687  -12.8575 C   0  0  2  0  0  0  0  0  0  0  0  0
   21.6176  -21.1805  -13.0727 C   0  0  0  0  0  0  0  0  0  0  0  0
   23.7072  -21.2148  -11.7899 C   0  0  0  0  0  0  0  0  0  0  0  0
   25.0518  -20.6144  -11.5527 C   0  0  2  0  0  0  0  0  0  0  0  0
   25.9165  -20.8912  -12.6713 N   0  0  0  0  0  0  0  0  0  0  0  0
   25.6939  -21.0987  -10.3051 C   0  0  0  0  0  0  0  0  0  0  0  0
   26.0662  -22.2913  -10.2225 O   0  0  0  0  0  0  0  0  0  0  0  0
   27.2369  -20.3715   -4.9189 C   0  0  0  0  0  0  0  0  0  0  0  0
   28.0511  -19.9224   -6.0907 C   0  0  2  0  0  0  0  0  0  0  0  0
   28.9600  -18.7544   -5.6794 C   0  0  0  0  0  0  0  0  0  0  0  0
   27.3562  -19.6635   -7.3573 C   0  0  0  0  0  0  0  0  0  0  0  0
   26.5534  -20.7422   -7.9376 C   0  0  2  0  0  0  0  0  0  0  0  0
   25.9086  -20.2654   -9.1883 N   0  0  0  0  0  0  0  0  0  0  0  0
   25.4796  -21.2666   -7.1250 C   0  0  0  0  0  0  0  0  0  0  0  0
   24.3001  -20.8582   -7.0182 O   0  0  0  0  0  0  0  0  0  0  0  0
   25.7540  -22.4069   -6.3169 O   0  0  0  0  0  0  0  0  0  0  0  0
  2  1  1  6
  2  5  1  0
  3  2  1  0
  4  3  1  0
  5 12  1  0
  5  6  2  0
  8  7  1  1
  8 10  1  0
  8  9  1  0
 11 10  1  6
 11 13  1  0
 12 11  1  0
 13 14  2  0
 16 18  1  0
 16 15  1  1
 17 16  1  0
 19 18  1  1
 19 21  1  0
 20 13  1  0
 20 19  1  0
 21 23  1  0
 22 21  2  0
M  END
$$$$
