CLL.pdb
     RDKit          3D

 23 22  0  0  1  0  0  0  0  0999 V2000
   26.8994  -19.8578  -14.9677 N   0  0  0  0  0  0  0  0  0  0  0  0
   26.5509  -21.2137  -15.2515 C   0  0  1  0  0  0  0  0  0  0  0  0
   27.7718  -22.0909  -15.2361 C   0  0  0  0  0  0  0  0  0  0  0  0
   28.7079  -21.7367  -16.7581 S   0  0  0  0  0  0  0  0  0  0  0  0
   25.4926  -21.6998  -14.3194 C   0  0  0  0  0  0  0  0  0  0  0  0
   25.0052  -22.8242  -14.5213 O   0  0  0  0  0  0  0  0  0  0  0  0
   26.5071  -21.9633  -10.6878 C   0  0  0  0  0  0  0  0  0  0  0  0
   25.8349  -20.6048  -10.7691 C   0  0  2  0  0  0  0  0  0  0  0  0
   26.0596  -19.9104   -9.4445 C   0  0  0  0  0  0  0  0  0  0  0  0
   24.3499  -20.8571  -10.9256 C   0  0  0  0  0  0  0  0  0  0  0  0
   24.0037  -21.3109  -12.3036 C   0  0  2  0  0  0  0  0  0  0  0  0
   25.0389  -20.9159  -13.2244 N   0  0  0  0  0  0  0  0  0  0  0  0
   22.6988  -20.7867  -12.7787 C   0  0  0  0  0  0  0  0  0  0  0  0
   21.8805  -20.3211  -11.9532 O   0  0  0  0  0  0  0  0  0  0  0  0
   21.4507  -17.4249  -16.0194 C   0  0  0  0  0  0  0  0  0  0  0  0
   21.9398  -18.8026  -16.3368 C   0  0  2  0  0  0  0  0  0  0  0  0
   22.4439  -18.8577  -17.7867 C   0  0  0  0  0  0  0  0  0  0  0  0
   21.0690  -19.9380  -16.0100 C   0  0  0  0  0  0  0  0  0  0  0  0
   20.9859  -20.3645  -14.6114 C   0  0  2  0  0  0  0  0  0  0  0  0
   22.3296  -20.7877  -14.1394 N   0  0  0  0  0  0  0  0  0  0  0  0
   20.1065  -21.4730  -14.3179 C   0  0  0  0  0  0  0  0  0  0  0  0
   20.3701  -22.6967  -14.2686 O   0  0  0  0  0  0  0  0  0  0  0  0
   18.7406  -21.1814  -14.0385 O   0  0  0  0  0  0  0  0  0  0  0  0
  2  1  1  1
  2  5  1  0
  3  2  1  0
  4  3  1  0
  5 12  1  0
  5  6  2  0
  8  7  1  1
  8 10  1  0
  8  9  1  0
 11 10  1  1
 11 13  1  0
 12 11  1  0
 13 14  2  0
 16 18  1  0
 16 15  1  6
 17 16  1  0
 19 18  1  6
 19 21  1  0
 20 13  1  0
 20 19  1  0
 21 23  1  0
 22 21  2  0
M  END
$$$$
