CLL.pdb
     RDKit          3D

 23 22  0  0  1  0  0  0  0  0999 V2000
   28.5443  -20.4099  -15.4215 N   0  0  0  0  0  0  0  0  0  0  0  0
   27.6867  -19.5786  -14.6380 C   0  0  1  0  0  0  0  0  0  0  0  0
   27.1752  -18.4238  -15.4535 C   0  0  0  0  0  0  0  0  0  0  0  0
   28.5955  -17.3355  -15.7948 S   0  0  0  0  0  0  0  0  0  0  0  0
   26.5820  -20.3746  -14.0285 C   0  0  0  0  0  0  0  0  0  0  0  0
   26.1854  -21.3848  -14.6323 O   0  0  0  0  0  0  0  0  0  0  0  0
   26.5260  -22.0035  -10.0908 C   0  0  0  0  0  0  0  0  0  0  0  0
   26.1811  -20.5268  -10.0251 C   0  0  2  0  0  0  0  0  0  0  0  0
   26.0142  -20.1670   -8.5657 C   0  0  0  0  0  0  0  0  0  0  0  0
   24.8417  -20.3565  -10.7111 C   0  0  0  0  0  0  0  0  0  0  0  0
   24.9057  -20.7180  -12.1567 C   0  0  2  0  0  0  0  0  0  0  0  0
   25.9849  -20.0064  -12.7926 N   0  0  0  0  0  0  0  0  0  0  0  0
   23.6410  -20.4413  -12.8827 C   0  0  0  0  0  0  0  0  0  0  0  0
   23.4115  -19.2868  -13.3095 O   0  0  0  0  0  0  0  0  0  0  0  0
   19.1607  -22.0057  -15.8911 C   0  0  0  0  0  0  0  0  0  0  0  0
   20.5943  -21.7889  -16.2593 C   0  0  2  0  0  0  0  0  0  0  0  0
   20.9290  -22.5680  -17.5401 C   0  0  0  0  0  0  0  0  0  0  0  0
   21.6115  -21.9734  -15.2174 C   0  0  0  0  0  0  0  0  0  0  0  0
   21.4759  -21.2074  -13.9766 C   0  0  2  0  0  0  0  0  0  0  0  0
   22.6679  -21.4338  -13.1191 N   0  0  0  0  0  0  0  0  0  0  0  0
   20.3362  -21.5125  -13.1421 C   0  0  0  0  0  0  0  0  0  0  0  0
   20.1205  -22.5298  -12.4435 O   0  0  0  0  0  0  0  0  0  0  0  0
   19.2874  -20.5513  -13.0727 O   0  0  0  0  0  0  0  0  0  0  0  0
  2  1  1  6
  2  5  1  0
  3  2  1  0
  4  3  1  0
  5 12  1  0
  5  6  2  0
  8  7  1  1
  8 10  1  0
  8  9  1  0
 11 10  1  1
 11 13  1  0
 12 11  1  0
 13 14  2  0
 16 18  1  0
 16 15  1  1
 17 16  1  0
 19 18  1  6
 19 21  1  0
 20 13  1  0
 20 19  1  0
 21 23  1  0
 22 21  2  0
M  END
$$$$
