CLL.pdb
     RDKit          3D

 23 22  0  0  1  0  0  0  0  0999 V2000
   28.2289  -22.4124  -17.0710 N   0  0  0  0  0  0  0  0  0  0  0  0
   28.1457  -21.2730  -16.2136 C   0  0  1  0  0  0  0  0  0  0  0  0
   27.9775  -20.0137  -17.0174 C   0  0  0  0  0  0  0  0  0  0  0  0
   29.6268  -19.5430  -17.6310 S   0  0  0  0  0  0  0  0  0  0  0  0
   27.0658  -21.4455  -15.1989 C   0  0  0  0  0  0  0  0  0  0  0  0
   26.0812  -22.1387  -15.5031 O   0  0  0  0  0  0  0  0  0  0  0  0
   26.0360  -19.8079   -9.3218 C   0  0  0  0  0  0  0  0  0  0  0  0
   25.4279  -20.3213  -10.6143 C   0  0  2  0  0  0  0  0  0  0  0  0
   24.9819  -21.7453  -10.3684 C   0  0  0  0  0  0  0  0  0  0  0  0
   26.5375  -20.3436  -11.6446 C   0  0  0  0  0  0  0  0  0  0  0  0
   26.0356  -20.7252  -12.9963 C   0  0  2  0  0  0  0  0  0  0  0  0
   27.1399  -20.8430  -13.9140 N   0  0  0  0  0  0  0  0  0  0  0  0
   25.0448  -19.7642  -13.5423 C   0  0  0  0  0  0  0  0  0  0  0  0
   23.9696  -19.5685  -12.9312 O   0  0  0  0  0  0  0  0  0  0  0  0
   26.1825  -15.5615  -14.7500 C   0  0  0  0  0  0  0  0  0  0  0  0
   26.2168  -16.5269  -15.8922 C   0  0  2  0  0  0  0  0  0  0  0  0
   26.9067  -15.8808  -17.1029 C   0  0  0  0  0  0  0  0  0  0  0  0
   24.9686  -17.2044  -16.2628 C   0  0  0  0  0  0  0  0  0  0  0  0
   24.3059  -18.0323  -15.2527 C   0  0  2  0  0  0  0  0  0  0  0  0
   25.2600  -19.0480  -14.7375 N   0  0  0  0  0  0  0  0  0  0  0  0
   23.1425  -18.7761  -15.6789 C   0  0  0  0  0  0  0  0  0  0  0  0
   22.9909  -20.0160  -15.7738 O   0  0  0  0  0  0  0  0  0  0  0  0
   21.9824  -18.0386  -16.0516 O   0  0  0  0  0  0  0  0  0  0  0  0
  2  1  1  6
  2  5  1  0
  3  2  1  0
  4  3  1  0
  5 12  1  0
  5  6  2  0
  8  7  1  1
  8 10  1  0
  8  9  1  0
 11 10  1  1
 11 13  1  0
 12 11  1  0
 13 14  2  0
 16 18  1  0
 16 15  1  1
 17 16  1  0
 19 18  1  6
 19 21  1  0
 20 13  1  0
 20 19  1  0
 21 23  1  0
 22 21  2  0
M  END
$$$$
