CLL.pdb
     RDKit          3D

 23 22  0  0  1  0  0  0  0  0999 V2000
   28.3545  -21.2400  -16.3962 N   0  0  0  0  0  0  0  0  0  0  0  0
   27.8693  -20.2133  -15.5296 C   0  0  1  0  0  0  0  0  0  0  0  0
   27.2981  -19.0723  -16.3247 C   0  0  0  0  0  0  0  0  0  0  0  0
   28.7005  -18.0609  -16.8978 S   0  0  0  0  0  0  0  0  0  0  0  0
   26.8923  -20.7625  -14.5452 C   0  0  0  0  0  0  0  0  0  0  0  0
   26.0685  -21.6024  -14.9432 O   0  0  0  0  0  0  0  0  0  0  0  0
   25.6462  -19.8304   -8.5471 C   0  0  0  0  0  0  0  0  0  0  0  0
   25.2054  -20.5095   -9.8311 C   0  0  2  0  0  0  0  0  0  0  0  0
   25.1813  -21.9986   -9.5684 C   0  0  0  0  0  0  0  0  0  0  0  0
   26.2737  -20.2285  -10.8670 C   0  0  0  0  0  0  0  0  0  0  0  0
   25.8816  -20.7197  -12.2196 C   0  0  2  0  0  0  0  0  0  0  0  0
   26.8854  -20.3510  -13.1850 N   0  0  0  0  0  0  0  0  0  0  0  0
   24.5615  -20.2076  -12.6650 C   0  0  0  0  0  0  0  0  0  0  0  0
   24.4514  -19.0160  -13.0332 O   0  0  0  0  0  0  0  0  0  0  0  0
   21.0335  -21.2715  -17.0273 C   0  0  0  0  0  0  0  0  0  0  0  0
   21.0677  -20.6891  -15.6498 C   0  0  2  0  0  0  0  0  0  0  0  0
   20.8228  -19.1742  -15.7160 C   0  0  0  0  0  0  0  0  0  0  0  0
   22.2024  -21.0290  -14.7831 C   0  0  0  0  0  0  0  0  0  0  0  0
   22.1533  -20.6037  -13.3825 C   0  0  2  0  0  0  0  0  0  0  0  0
   23.4046  -21.0130  -12.6939 N   0  0  0  0  0  0  0  0  0  0  0  0
   21.0775  -21.1340  -12.5764 C   0  0  0  0  0  0  0  0  0  0  0  0
   20.0945  -20.5355  -12.0815 O   0  0  0  0  0  0  0  0  0  0  0  0
   21.0950  -22.5266  -12.2784 O   0  0  0  0  0  0  0  0  0  0  0  0
  2  1  1  6
  2  5  1  0
  3  2  1  0
  4  3  1  0
  5 12  1  0
  5  6  2  0
  8  7  1  1
  8 10  1  0
  8  9  1  0
 11 10  1  1
 11 13  1  0
 12 11  1  0
 13 14  2  0
 16 18  1  0
 16 15  1  6
 17 16  1  0
 19 18  1  6
 19 21  1  0
 20 13  1  0
 20 19  1  0
 21 23  1  0
 22 21  2  0
M  END
$$$$
