ERS.pdb
     RDKit          3D

 27 26  0  0  1  0  0  0  0  0999 V2000
   19.0380  -10.0001  -15.6553 N   0  0  0  0  0  0  0  0  0  0  0  0
   19.3589   -8.9597  -14.6867 C   0  0  1  0  0  0  0  0  0  0  0  0
   20.3844   -8.0679  -15.2976 C   0  0  0  0  0  0  0  0  0  0  0  0
   21.8060   -8.4202  -15.0034 C   0  0  0  0  0  0  0  0  0  0  0  0
   22.1914   -8.3097  -13.5835 C   0  0  0  0  0  0  0  0  0  0  0  0
   22.1805   -9.3017  -12.8199 O   0  0  0  0  0  0  0  0  0  0  0  0
   18.1108   -8.2332  -14.2803 C   0  0  0  0  0  0  0  0  0  0  0  0
   17.2141   -7.9774  -15.1176 O   0  0  0  0  0  0  0  0  0  0  0  0
   22.5695   -7.0535  -13.1234 O   0  0  0  0  0  0  0  0  0  0  0  0
   13.4263   -9.4954   -7.2601 N   0  0  0  0  0  0  0  0  0  0  0  0
   12.9363   -8.2101   -7.6021 C   0  0  0  0  0  0  0  0  0  0  0  0
   11.9614   -7.6492   -6.9545 N   0  0  0  0  0  0  0  0  0  0  0  0
   13.5433   -7.5285   -8.6919 N   0  0  0  0  0  0  0  0  0  0  0  0
   14.6435   -8.0709   -9.4328 C   0  0  0  0  0  0  0  0  0  0  0  0
   15.0242   -7.1765  -10.6168 C   0  0  0  0  0  0  0  0  0  0  0  0
   16.2266   -7.7749  -11.2541 C   0  0  0  0  0  0  0  0  0  0  0  0
   16.6560   -7.1125  -12.5511 C   0  0  2  0  0  0  0  0  0  0  0  0
   17.8941   -7.8098  -12.9461 N   0  0  0  0  0  0  0  0  0  0  0  0
   16.8986   -5.6786  -12.3741 C   0  0  0  0  0  0  0  0  0  0  0  0
   17.8627   -5.2368  -11.7028 O   0  0  0  0  0  0  0  0  0  0  0  0
   11.6094   -6.7197   -7.2563 O   0  0  0  0  0  0  0  0  0  0  0  0
   16.2730   -1.1641  -14.0449 C   0  0  0  0  0  0  0  0  0  0  0  0
   16.0139   -2.5235  -14.1392 C   0  0  1  0  0  0  0  0  0  0  0  0
   16.3490   -3.2686  -12.8614 N   0  0  0  0  0  0  0  0  0  0  0  0
   16.0555   -4.6670  -12.9534 C   0  0  0  0  0  0  0  0  0  0  0  0
   15.5724   -2.6877  -11.7406 O   0  0  0  0  0  0  0  0  0  0  0  0
   14.4484   -3.2029  -11.4917 O   0  0  0  0  0  0  0  0  0  0  0  0
  2  7  1  0
  2  1  1  6
  3  2  1  0
  4  3  1  0
  5  4  1  0
  5  6  2  0
  7  8  2  0
  9  5  1  0
 10 11  1  0
 11 12  2  0
 11 13  1  0
 13 14  1  0
 14 15  1  0
 17 16  1  1
 16 15  1  0
 18 17  1  0
 18  7  1  0
 19 17  1  0
 20 19  2  0
 21 22  1  0
 23 22  1  6
 23 25  1  0
 23 24  1  0
 24 19  1  0
 25 27  1  0
 26 25  2  0
M  END
$$$$
