ERS.pdb
     RDKit          3D

 27 26  0  0  1  0  0  0  0  0999 V2000
   24.4261  -17.6065  -18.6198 N   0  0  0  0  0  0  0  0  0  0  0  0
   23.7459  -17.4130  -17.3456 C   0  0  1  0  0  0  0  0  0  0  0  0
   22.6004  -16.4882  -17.5753 C   0  0  0  0  0  0  0  0  0  0  0  0
   22.7987  -15.0836  -17.1070 C   0  0  0  0  0  0  0  0  0  0  0  0
   21.5990  -14.2285  -17.1849 C   0  0  0  0  0  0  0  0  0  0  0  0
   20.6867  -14.2955  -16.3303 O   0  0  0  0  0  0  0  0  0  0  0  0
   23.3308  -18.7382  -16.7780 C   0  0  0  0  0  0  0  0  0  0  0  0
   22.8063  -19.6135  -17.5057 O   0  0  0  0  0  0  0  0  0  0  0  0
   21.5203  -13.3396  -18.2510 O   0  0  0  0  0  0  0  0  0  0  0  0
   28.0759  -20.5697  -10.5284 N   0  0  0  0  0  0  0  0  0  0  0  0
   26.7255  -20.9781  -10.6649 C   0  0  0  0  0  0  0  0  0  0  0  0
   25.8370  -20.7387   -9.7496 N   0  0  0  0  0  0  0  0  0  0  0  0
   26.3502  -21.6711  -11.8479 N   0  0  0  0  0  0  0  0  0  0  0  0
   26.4281  -21.0824  -13.1520 C   0  0  0  0  0  0  0  0  0  0  0  0
   25.1864  -20.2432  -13.4693 C   0  0  0  0  0  0  0  0  0  0  0  0
   24.3411  -21.0382  -14.3984 C   0  0  0  0  0  0  0  0  0  0  0  0
   23.0683  -20.3456  -14.8519 C   0  0  2  0  0  0  0  0  0  0  0  0
   23.5123  -19.0543  -15.4094 N   0  0  0  0  0  0  0  0  0  0  0  0
   22.1359  -20.1410  -13.7405 C   0  0  0  0  0  0  0  0  0  0  0  0
   22.2034  -19.1450  -12.9798 O   0  0  0  0  0  0  0  0  0  0  0  0
   24.8663  -21.0884   -9.8695 O   0  0  0  0  0  0  0  0  0  0  0  0
   19.3754  -19.2269  -10.7390 C   0  0  0  0  0  0  0  0  0  0  0  0
   20.3480  -19.5015  -11.6892 C   0  0  1  0  0  0  0  0  0  0  0  0
   20.0780  -20.7910  -12.4407 N   0  0  0  0  0  0  0  0  0  0  0  0
   21.0730  -21.0610  -13.4342 C   0  0  0  0  0  0  0  0  0  0  0  0
   18.7532  -20.7028  -13.0995 O   0  0  0  0  0  0  0  0  0  0  0  0
   18.6498  -19.9169  -14.0805 O   0  0  0  0  0  0  0  0  0  0  0  0
  2  7  1  0
  2  1  1  6
  3  2  1  0
  4  3  1  0
  5  4  1  0
  5  6  2  0
  7  8  2  0
  9  5  1  0
 10 11  1  0
 11 12  2  0
 11 13  1  0
 13 14  1  0
 14 15  1  0
 17 16  1  1
 16 15  1  0
 18 17  1  0
 18  7  1  0
 19 17  1  0
 20 19  2  0
 21 22  1  0
 23 22  1  1
 23 25  1  0
 23 24  1  0
 24 19  1  0
 25 27  1  0
 26 25  2  0
M  END
$$$$
