ERS.pdb
     RDKit          3D

 27 26  0  0  1  0  0  0  0  0999 V2000
   17.3437  -14.0224  -16.0254 N   0  0  0  0  0  0  0  0  0  0  0  0
   17.0342  -12.7622  -16.6886 C   0  0  1  0  0  0  0  0  0  0  0  0
   15.5659  -12.7266  -16.9391 C   0  0  0  0  0  0  0  0  0  0  0  0
   15.0529  -11.4920  -17.6055 C   0  0  0  0  0  0  0  0  0  0  0  0
   14.2417  -10.6125  -16.7423 C   0  0  0  0  0  0  0  0  0  0  0  0
   14.5068   -9.3965  -16.6077 O   0  0  0  0  0  0  0  0  0  0  0  0
   17.5199  -11.6113  -15.8578 C   0  0  0  0  0  0  0  0  0  0  0  0
   17.2348  -11.5319  -14.6400 O   0  0  0  0  0  0  0  0  0  0  0  0
   13.1646  -11.1901  -16.0797 O   0  0  0  0  0  0  0  0  0  0  0  0
   21.7699   -4.8429  -14.3710 N   0  0  0  0  0  0  0  0  0  0  0  0
   22.2167   -6.0445  -13.7665 C   0  0  0  0  0  0  0  0  0  0  0  0
   22.0336   -6.2914  -12.5055 N   0  0  0  0  0  0  0  0  0  0  0  0
   22.8851   -6.9979  -14.5819 N   0  0  0  0  0  0  0  0  0  0  0  0
   22.2445   -8.1776  -15.0834 C   0  0  0  0  0  0  0  0  0  0  0  0
   20.7195   -8.0851  -14.9701 C   0  0  0  0  0  0  0  0  0  0  0  0
   20.1540   -9.3014  -15.6110 C   0  0  0  0  0  0  0  0  0  0  0  0
   18.6371   -9.3606  -15.6372 C   0  0  2  0  0  0  0  0  0  0  0  0
   18.3141  -10.5757  -16.4082 N   0  0  0  0  0  0  0  0  0  0  0  0
   18.0582   -8.1725  -16.2692 C   0  0  0  0  0  0  0  0  0  0  0  0
   18.2713   -7.8776  -17.4705 O   0  0  0  0  0  0  0  0  0  0  0  0
   22.2297   -7.2407  -12.1323 O   0  0  0  0  0  0  0  0  0  0  0  0
   14.6182   -4.7079  -16.1408 C   0  0  0  0  0  0  0  0  0  0  0  0
   15.1894   -5.8582  -15.6166 C   0  0  1  0  0  0  0  0  0  0  0  0
   16.5524   -6.1534  -16.2128 N   0  0  0  0  0  0  0  0  0  0  0  0
   17.2027   -7.2534  -15.5669 C   0  0  0  0  0  0  0  0  0  0  0  0
   17.4089   -4.9500  -16.0901 O   0  0  0  0  0  0  0  0  0  0  0  0
   18.0945   -4.8368  -15.0376 O   0  0  0  0  0  0  0  0  0  0  0  0
  2  7  1  0
  2  1  1  1
  3  2  1  0
  4  3  1  0
  5  4  1  0
  5  6  2  0
  7  8  2  0
  9  5  1  0
 10 11  1  0
 11 12  2  0
 11 13  1  0
 13 14  1  0
 14 15  1  0
 17 16  1  6
 16 15  1  0
 18 17  1  0
 18  7  1  0
 19 17  1  0
 20 19  2  0
 21 22  1  0
 23 22  1  6
 23 25  1  0
 23 24  1  0
 24 19  1  0
 25 27  1  0
 26 25  2  0
M  END
$$$$
