ERS.pdb
     RDKit          3D

 27 26  0  0  1  0  0  0  0  0999 V2000
   15.8594  -11.3102  -17.3367 N   0  0  0  0  0  0  0  0  0  0  0  0
   16.2699  -11.3751  -15.9399 C   0  0  1  0  0  0  0  0  0  0  0  0
   17.3643  -12.3805  -15.8318 C   0  0  0  0  0  0  0  0  0  0  0  0
   16.9283  -13.8084  -15.7813 C   0  0  0  0  0  0  0  0  0  0  0  0
   16.9162  -14.4059  -14.4324 C   0  0  0  0  0  0  0  0  0  0  0  0
   15.8459  -14.6554  -13.8330 O   0  0  0  0  0  0  0  0  0  0  0  0
   16.6701  -10.0119  -15.4579 C   0  0  0  0  0  0  0  0  0  0  0  0
   17.4203   -9.2811  -16.1463 O   0  0  0  0  0  0  0  0  0  0  0  0
   18.1473  -14.6828  -13.8487 O   0  0  0  0  0  0  0  0  0  0  0  0
   12.8751   -7.4591   -8.7587 N   0  0  0  0  0  0  0  0  0  0  0  0
   14.2594   -7.2260   -8.5631 C   0  0  0  0  0  0  0  0  0  0  0  0
   14.7660   -7.0314   -7.3841 N   0  0  0  0  0  0  0  0  0  0  0  0
   15.1050   -7.2076   -9.7056 N   0  0  0  0  0  0  0  0  0  0  0  0
   14.8523   -6.3786  -10.8469 C   0  0  0  0  0  0  0  0  0  0  0  0
   15.9336   -6.5466  -11.9189 C   0  0  0  0  0  0  0  0  0  0  0  0
   15.7192   -7.8709  -12.5594 C   0  0  0  0  0  0  0  0  0  0  0  0
   16.6113   -8.1516  -13.7556 C   0  0  2  0  0  0  0  0  0  0  0  0
   16.2216   -9.4971  -14.2170 N   0  0  0  0  0  0  0  0  0  0  0  0
   18.0308   -8.1145  -13.3948 C   0  0  0  0  0  0  0  0  0  0  0  0
   18.5283   -8.8867  -12.5396 O   0  0  0  0  0  0  0  0  0  0  0  0
   15.7891   -6.8853   -7.2803 O   0  0  0  0  0  0  0  0  0  0  0  0
   22.5535   -7.7986  -14.4844 C   0  0  0  0  0  0  0  0  0  0  0  0
   21.1921   -7.8880  -14.7346 C   0  0  1  0  0  0  0  0  0  0  0  0
   20.3597   -7.1949  -13.6730 N   0  0  0  0  0  0  0  0  0  0  0  0
   18.9634   -7.1947  -13.9898 C   0  0  0  0  0  0  0  0  0  0  0  0
   20.8201   -5.7932  -13.5311 O   0  0  0  0  0  0  0  0  0  0  0  0
   20.1187   -4.8992  -14.0786 O   0  0  0  0  0  0  0  0  0  0  0  0
  2  7  1  0
  2  1  1  6
  3  2  1  0
  4  3  1  0
  5  4  1  0
  5  6  2  0
  7  8  2  0
  9  5  1  0
 10 11  1  0
 11 12  2  0
 11 13  1  0
 13 14  1  0
 14 15  1  0
 17 16  1  1
 16 15  1  0
 18 17  1  0
 18  7  1  0
 19 17  1  0
 20 19  2  0
 21 22  1  0
 23 22  1  1
 23 25  1  0
 23 24  1  0
 24 19  1  0
 25 27  1  0
 26 25  2  0
M  END
$$$$
