ERS.pdb
     RDKit          3D

 27 26  0  0  1  0  0  0  0  0999 V2000
   22.9503  -15.2914  -19.6105 N   0  0  0  0  0  0  0  0  0  0  0  0
   22.0884  -14.1741  -19.9745 C   0  0  1  0  0  0  0  0  0  0  0  0
   20.9433  -14.7171  -20.7580 C   0  0  0  0  0  0  0  0  0  0  0  0
   19.9256  -13.7149  -21.1956 C   0  0  0  0  0  0  0  0  0  0  0  0
   18.8237  -14.2642  -22.0084 C   0  0  0  0  0  0  0  0  0  0  0  0
   19.0309  -14.8033  -23.1191 O   0  0  0  0  0  0  0  0  0  0  0  0
   21.6621  -13.4313  -18.7427 C   0  0  0  0  0  0  0  0  0  0  0  0
   21.0609  -14.0189  -17.8132 O   0  0  0  0  0  0  0  0  0  0  0  0
   17.5380  -14.1594  -21.4899 O   0  0  0  0  0  0  0  0  0  0  0  0
   21.3370   -6.2480  -16.0269 N   0  0  0  0  0  0  0  0  0  0  0  0
   22.0803   -6.5005  -14.8468 C   0  0  0  0  0  0  0  0  0  0  0  0
   21.7472   -5.9918  -13.7001 N   0  0  0  0  0  0  0  0  0  0  0  0
   23.2241   -7.3393  -14.9405 N   0  0  0  0  0  0  0  0  0  0  0  0
   23.4040   -8.2943  -15.9936 C   0  0  0  0  0  0  0  0  0  0  0  0
   22.2371   -9.2842  -16.0654 C   0  0  0  0  0  0  0  0  0  0  0  0
   22.5245  -10.2264  -17.1787 C   0  0  0  0  0  0  0  0  0  0  0  0
   21.4928  -11.3246  -17.3659 C   0  0  2  0  0  0  0  0  0  0  0  0
   21.9186  -12.0480  -18.5786 N   0  0  0  0  0  0  0  0  0  0  0  0
   20.1431  -10.7791  -17.5308 C   0  0  0  0  0  0  0  0  0  0  0  0
   19.7968  -10.1364  -18.5517 O   0  0  0  0  0  0  0  0  0  0  0  0
   22.3382   -6.1717  -12.8651 O   0  0  0  0  0  0  0  0  0  0  0  0
   16.8417  -12.4269  -15.6811 C   0  0  0  0  0  0  0  0  0  0  0  0
   16.7637  -11.5926  -16.7865 C   0  0  1  0  0  0  0  0  0  0  0  0
   17.7741  -10.4627  -16.7338 N   0  0  0  0  0  0  0  0  0  0  0  0
   19.1114  -10.9365  -16.5405 C   0  0  0  0  0  0  0  0  0  0  0  0
   17.4237   -9.5472  -15.6220 O   0  0  0  0  0  0  0  0  0  0  0  0
   18.2522   -9.4472  -14.6763 O   0  0  0  0  0  0  0  0  0  0  0  0
  2  7  1  0
  2  1  1  1
  3  2  1  0
  4  3  1  0
  5  4  1  0
  5  6  2  0
  7  8  2  0
  9  5  1  0
 10 11  1  0
 11 12  2  0
 11 13  1  0
 13 14  1  0
 14 15  1  0
 17 16  1  6
 16 15  1  0
 18 17  1  0
 18  7  1  0
 19 17  1  0
 20 19  2  0
 21 22  1  0
 23 22  1  6
 23 25  1  0
 23 24  1  0
 24 19  1  0
 25 27  1  0
 26 25  2  0
M  END
$$$$
