ERS.pdb
     RDKit          3D

 27 26  0  0  1  0  0  0  0  0999 V2000
   25.2042  -14.3638  -19.3772 N   0  0  0  0  0  0  0  0  0  0  0  0
   25.0502  -14.4799  -17.9327 C   0  0  1  0  0  0  0  0  0  0  0  0
   23.9021  -13.6219  -17.5255 C   0  0  0  0  0  0  0  0  0  0  0  0
   22.6105  -14.3361  -17.2951 C   0  0  0  0  0  0  0  0  0  0  0  0
   21.5003  -13.4784  -16.8385 C   0  0  0  0  0  0  0  0  0  0  0  0
   20.3663  -13.9469  -16.5901 O   0  0  0  0  0  0  0  0  0  0  0  0
   24.8774  -15.9197  -17.5482 C   0  0  0  0  0  0  0  0  0  0  0  0
   24.4020  -16.7490  -18.3587 O   0  0  0  0  0  0  0  0  0  0  0  0
   21.7638  -12.1210  -16.6937 O   0  0  0  0  0  0  0  0  0  0  0  0
   26.2263  -20.0949  -10.2013 N   0  0  0  0  0  0  0  0  0  0  0  0
   26.3490  -21.0646  -11.2277 C   0  0  0  0  0  0  0  0  0  0  0  0
   25.8092  -22.2412  -11.1327 N   0  0  0  0  0  0  0  0  0  0  0  0
   27.0906  -20.7209  -12.3907 N   0  0  0  0  0  0  0  0  0  0  0  0
   27.0198  -19.4279  -13.0043 C   0  0  0  0  0  0  0  0  0  0  0  0
   25.9971  -19.3977  -14.1445 C   0  0  0  0  0  0  0  0  0  0  0  0
   26.0309  -18.0328  -14.7326 C   0  0  0  0  0  0  0  0  0  0  0  0
   25.0880  -17.8205  -15.9036 C   0  0  2  0  0  0  0  0  0  0  0  0
   25.2407  -16.3990  -16.2659 N   0  0  0  0  0  0  0  0  0  0  0  0
   23.6999  -18.1211  -15.5443 C   0  0  0  0  0  0  0  0  0  0  0  0
   23.0429  -17.4115  -14.7442 O   0  0  0  0  0  0  0  0  0  0  0  0
   25.9182  -22.9226  -11.9090 O   0  0  0  0  0  0  0  0  0  0  0  0
   19.6244  -20.6903  -16.4658 C   0  0  0  0  0  0  0  0  0  0  0  0
   20.9302  -20.3703  -16.8076 C   0  0  1  0  0  0  0  0  0  0  0  0
   21.6130  -19.5165  -15.7563 N   0  0  0  0  0  0  0  0  0  0  0  0
   22.9821  -19.2480  -16.0780 C   0  0  0  0  0  0  0  0  0  0  0  0
   21.5546  -20.2134  -14.4494 O   0  0  0  0  0  0  0  0  0  0  0  0
   22.5129  -20.9822  -14.1642 O   0  0  0  0  0  0  0  0  0  0  0  0
  2  7  1  0
  2  1  1  6
  3  2  1  0
  4  3  1  0
  5  4  1  0
  5  6  2  0
  7  8  2  0
  9  5  1  0
 10 11  1  0
 11 12  2  0
 11 13  1  0
 13 14  1  0
 14 15  1  0
 17 16  1  1
 16 15  1  0
 18 17  1  0
 18  7  1  0
 19 17  1  0
 20 19  2  0
 21 22  1  0
 23 22  1  6
 23 25  1  0
 23 24  1  0
 24 19  1  0
 25 27  1  0
 26 25  2  0
M  END
$$$$
