MYQ.pdb
     RDKit          3D

 30 30  0  0  1  0  0  0  0  0999 V2000
    8.0947  -11.7508   19.2317 C   0  0  0  0  0  0  0  0  0  0  0  0
    6.6500  -12.6839   19.7455 S   0  0  0  0  0  0  0  0  0  0  0  0
    7.1499  -14.2375   20.5366 C   0  0  0  0  0  0  0  0  0  0  0  0
    8.4644  -14.7521   20.0822 C   0  0  0  0  0  0  0  0  0  0  0  0
    8.9221  -15.9588   20.7660 C   0  0  2  0  0  0  0  0  0  0  0  0
    7.8260  -16.9945   20.8089 N   0  0  0  0  0  0  0  0  0  0  0  0
    9.2290  -15.8348   22.2278 C   0  0  0  0  0  0  0  0  0  0  0  0
   10.3153  -15.2572   22.5736 O   0  0  0  0  0  0  0  0  0  0  0  0
    6.3061  -10.6031   26.9904 O   0  0  0  0  0  0  0  0  0  0  0  0
    6.6385  -11.9073   26.6268 C   0  0  0  0  0  0  0  0  0  0  0  0
    5.8055  -12.6492   25.8232 C   0  0  0  0  0  0  0  0  0  0  0  0
    6.1322  -13.9391   25.4606 C   0  0  0  0  0  0  0  0  0  0  0  0
    7.2942  -14.5498   25.8780 C   0  0  0  0  0  0  0  0  0  0  0  0
    7.5702  -15.9045   25.4576 C   0  0  0  0  0  0  0  0  0  0  0  0
    8.8333  -16.1555   24.6941 C   0  0  2  0  0  0  0  0  0  0  0  0
    8.4249  -16.3076   23.2796 N   0  0  0  0  0  0  0  0  0  0  0  0
    9.6085  -17.2932   25.1475 C   0  0  0  0  0  0  0  0  0  0  0  0
    9.0542  -18.4440   25.0682 O   0  0  0  0  0  0  0  0  0  0  0  0
    8.1256  -13.8056   26.6830 C   0  0  0  0  0  0  0  0  0  0  0  0
    7.8151  -12.5001   27.0597 C   0  0  0  0  0  0  0  0  0  0  0  0
   15.2233  -19.0056   24.0467 N   0  0  0  0  0  0  0  0  0  0  0  0
   15.0558  -19.6882   25.2793 C   0  0  0  0  0  0  0  0  0  0  0  0
   15.8862  -20.5905   25.5345 O   0  0  0  0  0  0  0  0  0  0  0  0
   13.9797  -19.3691   26.2109 C   0  0  0  0  0  0  0  0  0  0  0  0
   13.0683  -18.2664   25.8243 C   0  0  0  0  0  0  0  0  0  0  0  0
   11.5977  -18.5201   26.0860 C   0  0  2  0  0  0  0  0  0  0  0  0
   10.9154  -17.2956   25.6683 N   0  0  0  0  0  0  0  0  0  0  0  0
   11.3262  -18.7623   27.5134 C   0  0  0  0  0  0  0  0  0  0  0  0
   11.6300  -19.9747   28.0854 O   0  0  0  0  0  0  0  0  0  0  0  0
   10.8163  -17.8532   28.2061 O   0  0  0  0  0  0  0  0  0  0  0  0
  2  3  1  0
  2  1  1  0
  4  3  1  0
  5  4  1  0
  5  6  1  1
  7  5  1  0
  8  7  2  0
  9 10  1  0
 10 11  2  0
 11 12  1  0
 13 14  1  0
 13 12  2  0
 15 14  1  1
 15 17  1  0
 15 16  1  0
 16  7  1  0
 17 18  2  0
 19 13  1  0
 20 19  2  0
 20 10  1  0
 22 21  1  0
 23 22  2  0
 24 22  1  0
 25 24  1  0
 26 25  1  1
 27 26  1  0
 27 17  1  0
 28 26  1  0
 29 28  1  0
 30 28  2  0
M  END
$$$$
