MYQ.pdb
     RDKit          3D

 30 30  0  0  1  0  0  0  0  0999 V2000
    6.1797  -12.1428   18.2766 C   0  0  0  0  0  0  0  0  0  0  0  0
    7.8135  -12.5597   18.8917 S   0  0  0  0  0  0  0  0  0  0  0  0
    7.7844  -14.1735   19.7187 C   0  0  0  0  0  0  0  0  0  0  0  0
    9.0558  -14.5305   20.3935 C   0  0  0  0  0  0  0  0  0  0  0  0
    9.0462  -15.8190   21.0813 C   0  0  2  0  0  0  0  0  0  0  0  0
    7.6470  -16.3796   21.1419 N   0  0  0  0  0  0  0  0  0  0  0  0
    9.3940  -15.8120   22.5392 C   0  0  0  0  0  0  0  0  0  0  0  0
   10.5501  -15.3920   22.8859 O   0  0  0  0  0  0  0  0  0  0  0  0
    6.5699  -10.5055   26.5974 O   0  0  0  0  0  0  0  0  0  0  0  0
    6.8560  -11.8556   26.3996 C   0  0  0  0  0  0  0  0  0  0  0  0
    8.1086  -12.3569   26.6637 C   0  0  0  0  0  0  0  0  0  0  0  0
    8.3942  -13.6922   26.4705 C   0  0  0  0  0  0  0  0  0  0  0  0
    7.4551  -14.5869   26.0070 C   0  0  0  0  0  0  0  0  0  0  0  0
    7.8268  -15.9720   25.8291 C   0  0  0  0  0  0  0  0  0  0  0  0
    9.0291  -16.2703   24.9885 C   0  0  2  0  0  0  0  0  0  0  0  0
    8.5576  -16.2377   23.5859 N   0  0  0  0  0  0  0  0  0  0  0  0
    9.6971  -17.5197   25.2944 C   0  0  0  0  0  0  0  0  0  0  0  0
    8.9969  -18.5881   25.2173 O   0  0  0  0  0  0  0  0  0  0  0  0
    6.2026  -14.0825   25.7425 C   0  0  0  0  0  0  0  0  0  0  0  0
    5.8926  -12.7370   25.9325 C   0  0  0  0  0  0  0  0  0  0  0  0
   15.1903  -19.3770   23.4036 N   0  0  0  0  0  0  0  0  0  0  0  0
   15.0056  -20.2467   24.5095 C   0  0  0  0  0  0  0  0  0  0  0  0
   15.7970  -21.2136   24.5970 O   0  0  0  0  0  0  0  0  0  0  0  0
   13.9553  -20.0405   25.5004 C   0  0  0  0  0  0  0  0  0  0  0  0
   13.0753  -18.8644   25.3044 C   0  0  0  0  0  0  0  0  0  0  0  0
   11.6468  -19.0386   25.7784 C   0  0  2  0  0  0  0  0  0  0  0  0
   11.0398  -17.7126   25.6674 N   0  0  0  0  0  0  0  0  0  0  0  0
   11.5824  -19.4843   27.1809 C   0  0  0  0  0  0  0  0  0  0  0  0
   11.8038  -20.8015   27.5053 O   0  0  0  0  0  0  0  0  0  0  0  0
   11.3253  -18.6526   28.0800 O   0  0  0  0  0  0  0  0  0  0  0  0
  2  3  1  0
  2  1  1  0
  4  3  1  0
  5  4  1  0
  5  6  1  1
  7  5  1  0
  8  7  2  0
  9 10  1  0
 10 11  2  0
 11 12  1  0
 13 14  1  0
 13 12  2  0
 15 14  1  1
 15 17  1  0
 15 16  1  0
 16  7  1  0
 17 18  2  0
 19 13  1  0
 20 19  2  0
 20 10  1  0
 22 21  1  0
 23 22  2  0
 24 22  1  0
 25 24  1  0
 26 25  1  1
 27 26  1  0
 27 17  1  0
 28 26  1  0
 29 28  1  0
 30 28  2  0
M  END
$$$$
