MYQ.pdb
     RDKit          3D

 30 30  0  0  1  0  0  0  0  0999 V2000
    7.8430  -11.2964   19.7499 C   0  0  0  0  0  0  0  0  0  0  0  0
    7.0397  -12.5523   18.7505 S   0  0  0  0  0  0  0  0  0  0  0  0
    7.1840  -14.1776   19.5424 C   0  0  0  0  0  0  0  0  0  0  0  0
    8.3459  -14.3048   20.4550 C   0  0  0  0  0  0  0  0  0  0  0  0
    8.4909  -15.6135   21.0871 C   0  0  2  0  0  0  0  0  0  0  0  0
    7.1409  -16.2459   21.3177 N   0  0  0  0  0  0  0  0  0  0  0  0
    9.0376  -15.6357   22.4825 C   0  0  0  0  0  0  0  0  0  0  0  0
   10.1576  -15.0620   22.7054 O   0  0  0  0  0  0  0  0  0  0  0  0
    6.7455  -10.5961   26.8833 O   0  0  0  0  0  0  0  0  0  0  0  0
    7.0415  -11.9358   26.6363 C   0  0  0  0  0  0  0  0  0  0  0  0
    8.2575  -12.4671   26.9958 C   0  0  0  0  0  0  0  0  0  0  0  0
    8.5527  -13.7925   26.7541 C   0  0  0  0  0  0  0  0  0  0  0  0
    7.6598  -14.6471   26.1461 C   0  0  0  0  0  0  0  0  0  0  0  0
    8.0388  -16.0240   25.9254 C   0  0  0  0  0  0  0  0  0  0  0  0
    9.1037  -16.3015   24.9104 C   0  0  2  0  0  0  0  0  0  0  0  0
    8.4294  -16.2449   23.5940 N   0  0  0  0  0  0  0  0  0  0  0  0
    9.8115  -17.5536   25.0902 C   0  0  0  0  0  0  0  0  0  0  0  0
    9.1141  -18.6262   25.0577 O   0  0  0  0  0  0  0  0  0  0  0  0
    6.4441  -14.1127   25.7863 C   0  0  0  0  0  0  0  0  0  0  0  0
    6.1250  -12.7767   26.0229 C   0  0  0  0  0  0  0  0  0  0  0  0
   15.7917  -18.8719   23.5215 N   0  0  0  0  0  0  0  0  0  0  0  0
   15.4100  -19.9597   24.3488 C   0  0  0  0  0  0  0  0  0  0  0  0
   16.2944  -20.8127   24.5919 O   0  0  0  0  0  0  0  0  0  0  0  0
   14.0641  -20.0930   24.8951 C   0  0  0  0  0  0  0  0  0  0  0  0
   13.1608  -18.9294   24.7336 C   0  0  0  0  0  0  0  0  0  0  0  0
   11.7995  -19.0714   25.3837 C   0  0  2  0  0  0  0  0  0  0  0  0
   11.1900  -17.7448   25.2949 N   0  0  0  0  0  0  0  0  0  0  0  0
   11.9038  -19.4621   26.8002 C   0  0  0  0  0  0  0  0  0  0  0  0
   12.1350  -20.7718   27.1474 O   0  0  0  0  0  0  0  0  0  0  0  0
   11.7818  -18.5904   27.6898 O   0  0  0  0  0  0  0  0  0  0  0  0
  2  3  1  0
  2  1  1  0
  4  3  1  0
  5  4  1  0
  5  6  1  1
  7  5  1  0
  8  7  2  0
  9 10  1  0
 10 11  2  0
 11 12  1  0
 13 14  1  0
 13 12  2  0
 15 14  1  1
 15 17  1  0
 15 16  1  0
 16  7  1  0
 17 18  2  0
 19 13  1  0
 20 19  2  0
 20 10  1  0
 22 21  1  0
 23 22  2  0
 24 22  1  0
 25 24  1  0
 26 25  1  1
 27 26  1  0
 27 17  1  0
 28 26  1  0
 29 28  1  0
 30 28  2  0
M  END
$$$$
