MYQ.pdb
     RDKit          3D

 30 30  0  0  1  0  0  0  0  0999 V2000
    5.9755  -10.9883   27.6274 C   0  0  0  0  0  0  0  0  0  0  0  0
    6.1369  -12.7701   27.7724 S   0  0  0  0  0  0  0  0  0  0  0  0
    7.4819  -13.3707   26.7144 C   0  0  0  0  0  0  0  0  0  0  0  0
    7.5711  -14.8485   26.6297 C   0  0  0  0  0  0  0  0  0  0  0  0
    6.6436  -15.4674   25.6862 C   0  0  2  0  0  0  0  0  0  0  0  0
    6.3533  -16.8936   26.0831 N   0  0  0  0  0  0  0  0  0  0  0  0
    7.1381  -15.6755   24.2868 C   0  0  0  0  0  0  0  0  0  0  0  0
    7.8917  -16.6806   24.0519 O   0  0  0  0  0  0  0  0  0  0  0  0
    8.4617  -14.2448   15.5163 O   0  0  0  0  0  0  0  0  0  0  0  0
    8.1040  -14.1631   16.8613 C   0  0  0  0  0  0  0  0  0  0  0  0
    7.3084  -15.1241   17.4389 C   0  0  0  0  0  0  0  0  0  0  0  0
    6.9541  -15.0467   18.7696 C   0  0  0  0  0  0  0  0  0  0  0  0
    7.3697  -14.0164   19.5839 C   0  0  0  0  0  0  0  0  0  0  0  0
    6.9588  -14.0017   20.9692 C   0  0  0  0  0  0  0  0  0  0  0  0
    7.5044  -15.0648   21.8712 C   0  0  2  0  0  0  0  0  0  0  0  0
    6.8538  -14.8519   23.1835 N   0  0  0  0  0  0  0  0  0  0  0  0
    8.9487  -15.0849   21.9924 C   0  0  0  0  0  0  0  0  0  0  0  0
    9.4644  -14.3755   22.9244 O   0  0  0  0  0  0  0  0  0  0  0  0
    8.1649  -13.0555   19.0032 C   0  0  0  0  0  0  0  0  0  0  0  0
    8.5359  -13.1156   17.6610 C   0  0  0  0  0  0  0  0  0  0  0  0
   11.7775  -18.6417   25.1194 N   0  0  0  0  0  0  0  0  0  0  0  0
   12.6474  -18.6376   23.9983 C   0  0  0  0  0  0  0  0  0  0  0  0
   13.4605  -19.5871   23.9198 O   0  0  0  0  0  0  0  0  0  0  0  0
   12.6101  -17.5914   22.9825 C   0  0  0  0  0  0  0  0  0  0  0  0
   11.2820  -17.0138   22.6688 C   0  0  0  0  0  0  0  0  0  0  0  0
   11.2760  -15.9562   21.5838 C   0  0  2  0  0  0  0  0  0  0  0  0
    9.8715  -15.7992   21.2069 N   0  0  0  0  0  0  0  0  0  0  0  0
   12.0501  -16.3747   20.4025 C   0  0  0  0  0  0  0  0  0  0  0  0
   11.4554  -17.1055   19.4018 O   0  0  0  0  0  0  0  0  0  0  0  0
   13.2577  -16.0582   20.3140 O   0  0  0  0  0  0  0  0  0  0  0  0
  2  3  1  0
  2  1  1  0
  4  3  1  0
  5  4  1  0
  5  6  1  1
  7  5  1  0
  8  7  2  0
  9 10  1  0
 10 11  2  0
 11 12  1  0
 13 14  1  0
 13 12  2  0
 15 14  1  6
 15 17  1  0
 15 16  1  0
 16  7  1  0
 17 18  2  0
 19 13  1  0
 20 19  2  0
 20 10  1  0
 22 21  1  0
 23 22  2  0
 24 22  1  0
 25 24  1  0
 26 25  1  1
 27 26  1  0
 27 17  1  0
 28 26  1  0
 29 28  1  0
 30 28  2  0
M  END
$$$$
