MYQ.pdb
     RDKit          3D

 30 30  0  0  1  0  0  0  0  0999 V2000
    8.3870  -13.6815   15.4640 C   0  0  0  0  0  0  0  0  0  0  0  0
    8.7615  -15.4319   15.3323 S   0  0  0  0  0  0  0  0  0  0  0  0
    8.4245  -16.2701   16.9050 C   0  0  0  0  0  0  0  0  0  0  0  0
    8.6538  -15.4252   18.1020 C   0  0  0  0  0  0  0  0  0  0  0  0
    9.1850  -16.1349   19.2629 C   0  0  2  0  0  0  0  0  0  0  0  0
    8.2831  -17.2826   19.6437 N   0  0  0  0  0  0  0  0  0  0  0  0
    9.2215  -15.3830   20.5589 C   0  0  0  0  0  0  0  0  0  0  0  0
   10.0326  -14.4016   20.6693 O   0  0  0  0  0  0  0  0  0  0  0  0
    6.5104  -11.6212   28.1385 O   0  0  0  0  0  0  0  0  0  0  0  0
    6.6712  -12.4474   27.0272 C   0  0  0  0  0  0  0  0  0  0  0  0
    7.2554  -11.9749   25.8759 C   0  0  0  0  0  0  0  0  0  0  0  0
    7.4172  -12.7903   24.7754 C   0  0  0  0  0  0  0  0  0  0  0  0
    7.0072  -14.1053   24.7662 C   0  0  0  0  0  0  0  0  0  0  0  0
    7.2098  -14.8997   23.5763 C   0  0  0  0  0  0  0  0  0  0  0  0
    8.5609  -14.8618   22.9326 C   0  0  2  0  0  0  0  0  0  0  0  0
    8.4386  -15.6613   21.6929 N   0  0  0  0  0  0  0  0  0  0  0  0
    9.6500  -15.3353   23.7636 C   0  0  0  0  0  0  0  0  0  0  0  0
   10.6016  -14.5129   24.0001 O   0  0  0  0  0  0  0  0  0  0  0  0
    6.4219  -14.5754   25.9192 C   0  0  0  0  0  0  0  0  0  0  0  0
    6.2505  -13.7688   27.0429 C   0  0  0  0  0  0  0  0  0  0  0  0
   10.8189  -14.0849   28.6429 N   0  0  0  0  0  0  0  0  0  0  0  0
   10.5955  -15.4719   28.8423 C   0  0  0  0  0  0  0  0  0  0  0  0
   10.4581  -15.8497   30.0286 O   0  0  0  0  0  0  0  0  0  0  0  0
   10.5271  -16.4206   27.7365 C   0  0  0  0  0  0  0  0  0  0  0  0
   10.7917  -15.8844   26.3806 C   0  0  0  0  0  0  0  0  0  0  0  0
   10.8840  -16.9222   25.2806 C   0  0  2  0  0  0  0  0  0  0  0  0
    9.7959  -16.6024   24.3571 N   0  0  0  0  0  0  0  0  0  0  0  0
   10.6950  -18.2892   25.7960 C   0  0  0  0  0  0  0  0  0  0  0  0
    9.4903  -18.9328   25.6413 O   0  0  0  0  0  0  0  0  0  0  0  0
   11.6424  -18.8647   26.3770 O   0  0  0  0  0  0  0  0  0  0  0  0
  2  3  1  0
  2  1  1  0
  4  3  1  0
  5  4  1  0
  5  6  1  1
  7  5  1  0
  8  7  2  0
  9 10  1  0
 10 11  2  0
 11 12  1  0
 13 14  1  0
 13 12  2  0
 15 14  1  1
 15 17  1  0
 15 16  1  0
 16  7  1  0
 17 18  2  0
 19 13  1  0
 20 19  2  0
 20 10  1  0
 22 21  1  0
 23 22  2  0
 24 22  1  0
 25 24  1  0
 26 25  1  1
 27 26  1  0
 27 17  1  0
 28 26  1  0
 29 28  1  0
 30 28  2  0
M  END
$$$$
