MYQ.pdb
     RDKit          3D

 30 30  0  0  1  0  0  0  0  0999 V2000
    7.8948  -11.3104   19.6743 C   0  0  0  0  0  0  0  0  0  0  0  0
    6.9088  -12.4981   18.7583 S   0  0  0  0  0  0  0  0  0  0  0  0
    7.1696  -14.1709   19.4087 C   0  0  0  0  0  0  0  0  0  0  0  0
    8.3804  -14.3096   20.2535 C   0  0  0  0  0  0  0  0  0  0  0  0
    8.6569  -15.6679   20.7137 C   0  0  2  0  0  0  0  0  0  0  0  0
    7.3747  -16.3858   21.0546 N   0  0  0  0  0  0  0  0  0  0  0  0
    9.3938  -15.8075   22.0113 C   0  0  0  0  0  0  0  0  0  0  0  0
   10.6668  -15.9154   21.9785 O   0  0  0  0  0  0  0  0  0  0  0  0
   10.7232  -15.3074   30.8879 O   0  0  0  0  0  0  0  0  0  0  0  0
   10.2399  -15.2619   29.5811 C   0  0  0  0  0  0  0  0  0  0  0  0
    9.9093  -16.4159   28.9110 C   0  0  0  0  0  0  0  0  0  0  0  0
    9.4295  -16.3740   27.6186 C   0  0  0  0  0  0  0  0  0  0  0  0
    9.2581  -15.1908   26.9345 C   0  0  0  0  0  0  0  0  0  0  0  0
    8.7503  -15.2245   25.5820 C   0  0  0  0  0  0  0  0  0  0  0  0
    9.6331  -15.7992   24.5183 C   0  0  2  0  0  0  0  0  0  0  0  0
    8.8091  -15.8387   23.2894 N   0  0  0  0  0  0  0  0  0  0  0  0
   10.1936  -17.1007   24.8230 C   0  0  0  0  0  0  0  0  0  0  0  0
    9.3790  -18.0862   24.8804 O   0  0  0  0  0  0  0  0  0  0  0  0
    9.5907  -14.0375   27.6069 C   0  0  0  0  0  0  0  0  0  0  0  0
   10.0755  -14.0575   28.9135 C   0  0  0  0  0  0  0  0  0  0  0  0
   14.8366  -19.7381   22.1663 N   0  0  0  0  0  0  0  0  0  0  0  0
   14.9218  -18.5220   22.8924 C   0  0  0  0  0  0  0  0  0  0  0  0
   15.8294  -17.7299   22.5492 O   0  0  0  0  0  0  0  0  0  0  0  0
   14.0096  -18.1960   23.9829 C   0  0  0  0  0  0  0  0  0  0  0  0
   12.9262  -19.1685   24.2591 C   0  0  0  0  0  0  0  0  0  0  0  0
   11.9817  -18.7844   25.3799 C   0  0  2  0  0  0  0  0  0  0  0  0
   11.5409  -17.4262   25.0635 N   0  0  0  0  0  0  0  0  0  0  0  0
   12.6545  -18.7818   26.6904 C   0  0  0  0  0  0  0  0  0  0  0  0
   13.1314  -19.9516   27.2321 O   0  0  0  0  0  0  0  0  0  0  0  0
   12.7915  -17.7031   27.3100 O   0  0  0  0  0  0  0  0  0  0  0  0
  2  3  1  0
  2  1  1  0
  4  3  1  0
  5  4  1  0
  5  6  1  1
  7  5  1  0
  8  7  2  0
  9 10  1  0
 10 11  2  0
 11 12  1  0
 13 14  1  0
 13 12  2  0
 15 14  1  1
 15 17  1  0
 15 16  1  0
 16  7  1  0
 17 18  2  0
 19 13  1  0
 20 19  2  0
 20 10  1  0
 22 21  1  0
 23 22  2  0
 24 22  1  0
 25 24  1  0
 26 25  1  6
 27 26  1  0
 27 17  1  0
 28 26  1  0
 29 28  1  0
 30 28  2  0
M  END
$$$$
