FMG.pdb
     RDKit          3D

 24 24  0  0  1  0  0  0  0  0999 V2000
   18.8790   -8.8171  -19.8407 N   0  0  0  0  0  0  0  0  0  0  0  0
   18.6690   -8.6992  -18.4095 C   0  0  1  0  0  0  0  0  0  0  0  0
   19.7507   -9.4248  -17.6369 C   0  0  0  0  0  0  0  0  0  0  0  0
   19.7429  -10.8745  -17.8451 C   0  0  0  0  0  0  0  0  0  0  0  0
   20.7266  -11.4538  -18.6065 C   0  0  0  0  0  0  0  0  0  0  0  0
   20.7728  -12.8223  -18.8405 C   0  0  0  0  0  0  0  0  0  0  0  0
   19.7550  -13.5779  -18.2530 C   0  0  0  0  0  0  0  0  0  0  0  0
   18.7633  -13.0123  -17.4881 C   0  0  0  0  0  0  0  0  0  0  0  0
   18.7410  -11.6519  -17.2717 C   0  0  0  0  0  0  0  0  0  0  0  0
   18.7391   -7.2609  -18.0383 C   0  0  0  0  0  0  0  0  0  0  0  0
   19.4643   -6.5172  -18.7428 O   0  0  0  0  0  0  0  0  0  0  0  0
   14.0596   -1.5134  -16.6130 C   0  0  0  0  0  0  0  0  0  0  0  0
   14.4701   -3.2563  -16.3458 S   0  0  0  0  0  0  0  0  0  0  0  0
   16.3047   -3.4846  -16.3835 C   0  0  0  0  0  0  0  0  0  0  0  0
   16.6401   -4.9162  -16.1220 C   0  0  0  0  0  0  0  0  0  0  0  0
   18.0277   -5.2706  -16.6341 C   0  0  2  0  0  0  0  0  0  0  0  0
   18.0325   -6.7141  -16.9431 N   0  0  0  0  0  0  0  0  0  0  0  0
   18.9753   -5.0861  -15.5175 C   0  0  0  0  0  0  0  0  0  0  0  0
   18.8517   -5.8140  -14.4975 O   0  0  0  0  0  0  0  0  0  0  0  0
   20.0355   -4.1443  -15.5003 N   0  0  0  0  0  0  0  0  0  0  0  0
   20.8602   -4.0288  -14.3141 C   0  0  0  0  0  0  0  0  0  0  0  0
   21.9868   -4.9960  -14.3482 C   0  0  0  0  0  0  0  0  0  0  0  0
   22.8811   -4.9632  -13.4722 O   0  0  0  0  0  0  0  0  0  0  0  0
   22.0348   -5.9279  -15.3547 O   0  0  0  0  0  0  0  0  0  0  0  0
  2  1  1  6
  2 10  1  0
  3  2  1  0
  4  3  1  0
  4  9  2  0
  5  4  1  0
  6  5  2  0
  6  7  1  0
  7  8  2  0
  8  9  1  0
 10 11  2  0
 12 13  1  0
 13 14  1  0
 14 15  1  0
 16 15  1  1
 16 18  1  0
 17 10  1  0
 17 16  1  0
 18 19  2  0
 20 21  1  0
 20 18  1  0
 21 22  1  0
 22 23  2  0
 22 24  1  0
M  END
$$$$
