FMG.pdb
     RDKit          3D

 24 24  0  0  1  0  0  0  0  0999 V2000
   27.1889  -19.7140  -16.0845 N   0  0  0  0  0  0  0  0  0  0  0  0
   26.7971  -19.0512  -14.8543 C   0  0  1  0  0  0  0  0  0  0  0  0
   25.8154  -17.9304  -15.1261 C   0  0  0  0  0  0  0  0  0  0  0  0
   26.4288  -16.7581  -15.7541 C   0  0  0  0  0  0  0  0  0  0  0  0
   27.1454  -15.8761  -14.9851 C   0  0  0  0  0  0  0  0  0  0  0  0
   27.7498  -14.7465  -15.5222 C   0  0  0  0  0  0  0  0  0  0  0  0
   27.5848  -14.5598  -16.8969 C   0  0  0  0  0  0  0  0  0  0  0  0
   26.8701  -15.4340  -17.6801 C   0  0  0  0  0  0  0  0  0  0  0  0
   26.2806  -16.5470  -17.1218 C   0  0  0  0  0  0  0  0  0  0  0  0
   26.1168  -20.0425  -13.9792 C   0  0  0  0  0  0  0  0  0  0  0  0
   25.5752  -21.0286  -14.5357 O   0  0  0  0  0  0  0  0  0  0  0  0
   25.7323  -19.8889   -7.0347 C   0  0  0  0  0  0  0  0  0  0  0  0
   26.1928  -21.5150   -7.6839 S   0  0  0  0  0  0  0  0  0  0  0  0
   25.4416  -21.7621   -9.3554 C   0  0  0  0  0  0  0  0  0  0  0  0
   26.0822  -20.8376  -10.3378 C   0  0  0  0  0  0  0  0  0  0  0  0
   25.4180  -20.9212  -11.7034 C   0  0  2  0  0  0  0  0  0  0  0  0
   26.0600  -19.9154  -12.5727 N   0  0  0  0  0  0  0  0  0  0  0  0
   24.0151  -20.4909  -11.5437 C   0  0  0  0  0  0  0  0  0  0  0  0
   23.7626  -19.2574  -11.5279 O   0  0  0  0  0  0  0  0  0  0  0  0
   22.9080  -21.3670  -11.4095 N   0  0  0  0  0  0  0  0  0  0  0  0
   22.5247  -22.2001  -12.5318 C   0  0  0  0  0  0  0  0  0  0  0  0
   21.3741  -21.6145  -13.2660 C   0  0  0  0  0  0  0  0  0  0  0  0
   20.6827  -20.7081  -12.7477 O   0  0  0  0  0  0  0  0  0  0  0  0
   21.0783  -22.0808  -14.5225 O   0  0  0  0  0  0  0  0  0  0  0  0
  2  1  1  6
  2 10  1  0
  3  2  1  0
  4  3  1  0
  4  9  2  0
  5  4  1  0
  6  5  2  0
  6  7  1  0
  7  8  2  0
  8  9  1  0
 10 11  2  0
 12 13  1  0
 13 14  1  0
 14 15  1  0
 16 15  1  1
 16 18  1  0
 17 10  1  0
 17 16  1  0
 18 19  2  0
 20 21  1  0
 20 18  1  0
 21 22  1  0
 22 23  2  0
 22 24  1  0
M  END
$$$$
