FMG.pdb
     RDKit          3D

 24 24  0  0  1  0  0  0  0  0999 V2000
   33.4538  -38.5237   -6.5392 N   0  0  0  0  0  0  0  0  0  0  0  0
   32.9147  -37.5033   -5.6592 C   0  0  1  0  0  0  0  0  0  0  0  0
   31.7259  -36.8094   -6.2908 C   0  0  0  0  0  0  0  0  0  0  0  0
   31.5340  -35.4364   -5.8186 C   0  0  0  0  0  0  0  0  0  0  0  0
   32.5646  -34.5361   -5.9198 C   0  0  0  0  0  0  0  0  0  0  0  0
   32.4440  -33.2208   -5.4893 C   0  0  0  0  0  0  0  0  0  0  0  0
   31.2071  -32.8665   -4.9450 C   0  0  0  0  0  0  0  0  0  0  0  0
   30.1658  -33.7566   -4.8370 C   0  0  0  0  0  0  0  0  0  0  0  0
   30.3121  -35.0557   -5.2718 C   0  0  0  0  0  0  0  0  0  0  0  0
   32.4420  -38.1578   -4.4104 C   0  0  0  0  0  0  0  0  0  0  0  0
   31.7740  -39.2138   -4.5287 O   0  0  0  0  0  0  0  0  0  0  0  0
   36.1236  -42.1117   -0.8884 C   0  0  0  0  0  0  0  0  0  0  0  0
   35.5549  -40.4393   -0.4915 S   0  0  0  0  0  0  0  0  0  0  0  0
   34.0789  -40.0146   -1.5211 C   0  0  0  0  0  0  0  0  0  0  0  0
   33.5380  -38.6867   -1.1035 C   0  0  0  0  0  0  0  0  0  0  0  0
   32.2843  -38.3206   -1.8829 C   0  0  2  0  0  0  0  0  0  0  0  0
   32.7131  -37.6429   -3.1223 N   0  0  0  0  0  0  0  0  0  0  0  0
   31.5491  -37.3113   -1.0957 C   0  0  0  0  0  0  0  0  0  0  0  0
   31.8767  -36.1012   -1.2140 O   0  0  0  0  0  0  0  0  0  0  0  0
   30.4823  -37.5958   -0.2058 N   0  0  0  0  0  0  0  0  0  0  0  0
   29.7676  -36.4988    0.4159 C   0  0  0  0  0  0  0  0  0  0  0  0
   30.5653  -35.8918    1.5118 C   0  0  0  0  0  0  0  0  0  0  0  0
   31.7077  -36.3265    1.7841 O   0  0  0  0  0  0  0  0  0  0  0  0
   30.0326  -34.8461    2.2234 O   0  0  0  0  0  0  0  0  0  0  0  0
  2  1  1  6
  2 10  1  0
  3  2  1  0
  4  3  1  0
  4  9  2  0
  5  4  1  0
  6  5  2  0
  6  7  1  0
  7  8  2  0
  8  9  1  0
 10 11  2  0
 12 13  1  0
 13 14  1  0
 14 15  1  0
 16 15  1  1
 16 18  1  0
 17 10  1  0
 17 16  1  0
 18 19  2  0
 20 21  1  0
 20 18  1  0
 21 22  1  0
 22 23  2  0
 22 24  1  0
M  END
$$$$
