FMG.pdb
     RDKit          3D

 24 24  0  0  1  0  0  0  0  0999 V2000
   26.2933  -18.4068   -7.9801 N   0  0  0  0  0  0  0  0  0  0  0  0
   27.1573  -19.5236   -8.3154 C   0  0  1  0  0  0  0  0  0  0  0  0
   27.1017  -20.5971   -7.2485 C   0  0  0  0  0  0  0  0  0  0  0  0
   27.7404  -20.2026   -5.9910 C   0  0  0  0  0  0  0  0  0  0  0  0
   28.5799  -19.1173   -5.9702 C   0  0  0  0  0  0  0  0  0  0  0  0
   29.2152  -18.6946   -4.8094 C   0  0  0  0  0  0  0  0  0  0  0  0
   28.9485  -19.4417   -3.6594 C   0  0  0  0  0  0  0  0  0  0  0  0
   28.1103  -20.5306   -3.6644 C   0  0  0  0  0  0  0  0  0  0  0  0
   27.4928  -20.9288   -4.8299 C   0  0  0  0  0  0  0  0  0  0  0  0
   26.6771  -20.1277   -9.5866 C   0  0  0  0  0  0  0  0  0  0  0  0
   25.6418  -19.6409  -10.1026 O   0  0  0  0  0  0  0  0  0  0  0  0
   31.6722  -23.2088   -9.4046 C   0  0  0  0  0  0  0  0  0  0  0  0
   31.8239  -22.1419  -10.8593 S   0  0  0  0  0  0  0  0  0  0  0  0
   30.3159  -21.0847  -11.0256 C   0  0  0  0  0  0  0  0  0  0  0  0
   29.1968  -21.8894  -11.6002 C   0  0  0  0  0  0  0  0  0  0  0  0
   27.8857  -21.1188  -11.5858 C   0  0  2  0  0  0  0  0  0  0  0  0
   27.3322  -21.2081  -10.2201 N   0  0  0  0  0  0  0  0  0  0  0  0
   26.9377  -21.8356  -12.4612 C   0  0  0  0  0  0  0  0  0  0  0  0
   27.1197  -21.7936  -13.7064 O   0  0  0  0  0  0  0  0  0  0  0  0
   25.8226  -22.5854  -12.0078 N   0  0  0  0  0  0  0  0  0  0  0  0
   24.5217  -21.9496  -11.9427 C   0  0  0  0  0  0  0  0  0  0  0  0
   23.8607  -21.9439  -13.2727 C   0  0  0  0  0  0  0  0  0  0  0  0
   24.4582  -22.3810  -14.2828 O   0  0  0  0  0  0  0  0  0  0  0  0
   22.5838  -21.4523  -13.3801 O   0  0  0  0  0  0  0  0  0  0  0  0
  2  1  1  1
  2 10  1  0
  3  2  1  0
  4  3  1  0
  4  9  2  0
  5  4  1  0
  6  5  2  0
  6  7  1  0
  7  8  2  0
  8  9  1  0
 10 11  2  0
 12 13  1  0
 13 14  1  0
 14 15  1  0
 16 15  1  1
 16 18  1  0
 17 10  1  0
 17 16  1  0
 18 19  2  0
 20 21  1  0
 20 18  1  0
 21 22  1  0
 22 23  2  0
 22 24  1  0
M  END
$$$$
