FMG.pdb
     RDKit          3D

 24 24  0  0  1  0  0  0  0  0999 V2000
   27.7049  -21.2055  -14.1786 N   0  0  0  0  0  0  0  0  0  0  0  0
   27.4098  -20.1301  -13.2498 C   0  0  1  0  0  0  0  0  0  0  0  0
   26.3981  -19.1660  -13.8336 C   0  0  0  0  0  0  0  0  0  0  0  0
   26.9358  -18.3444  -14.9202 C   0  0  0  0  0  0  0  0  0  0  0  0
   26.6827  -18.6953  -16.2224 C   0  0  0  0  0  0  0  0  0  0  0  0
   27.1651  -17.9569  -17.2957 C   0  0  0  0  0  0  0  0  0  0  0  0
   27.9263  -16.8314  -16.9707 C   0  0  0  0  0  0  0  0  0  0  0  0
   28.1883  -16.4673  -15.6718 C   0  0  0  0  0  0  0  0  0  0  0  0
   27.6975  -17.2175  -14.6257 C   0  0  0  0  0  0  0  0  0  0  0  0
   26.8140  -20.7174  -12.0204 C   0  0  0  0  0  0  0  0  0  0  0  0
   26.1704  -21.7878  -12.1449 O   0  0  0  0  0  0  0  0  0  0  0  0
   28.7277  -20.2163   -5.2444 C   0  0  0  0  0  0  0  0  0  0  0  0
   27.0886  -19.5500   -5.6279 S   0  0  0  0  0  0  0  0  0  0  0  0
   26.3478  -20.4764   -7.0464 C   0  0  0  0  0  0  0  0  0  0  0  0
   26.9101  -19.9645   -8.3318 C   0  0  0  0  0  0  0  0  0  0  0  0
   26.3212  -20.6908   -9.5313 C   0  0  2  0  0  0  0  0  0  0  0  0
   26.9443  -20.1247  -10.7440 N   0  0  0  0  0  0  0  0  0  0  0  0
   24.8888  -20.3421   -9.6041 C   0  0  0  0  0  0  0  0  0  0  0  0
   24.5633  -19.2431  -10.1255 O   0  0  0  0  0  0  0  0  0  0  0  0
   23.8298  -21.1589   -9.1322 N   0  0  0  0  0  0  0  0  0  0  0  0
   22.4658  -20.6803   -9.2379 C   0  0  0  0  0  0  0  0  0  0  0  0
   21.9127  -20.9324  -10.5929 C   0  0  0  0  0  0  0  0  0  0  0  0
   22.6139  -21.4773  -11.4758 O   0  0  0  0  0  0  0  0  0  0  0  0
   20.6201  -20.5595  -10.8650 O   0  0  0  0  0  0  0  0  0  0  0  0
  2  1  1  6
  2 10  1  0
  3  2  1  0
  4  3  1  0
  4  9  2  0
  5  4  1  0
  6  5  2  0
  6  7  1  0
  7  8  2  0
  8  9  1  0
 10 11  2  0
 12 13  1  0
 13 14  1  0
 14 15  1  0
 16 15  1  1
 16 18  1  0
 17 10  1  0
 17 16  1  0
 18 19  2  0
 20 21  1  0
 20 18  1  0
 21 22  1  0
 22 23  2  0
 22 24  1  0
M  END
$$$$
