FMG.pdb
     RDKit          3D

 24 24  0  0  1  0  0  0  0  0999 V2000
   21.0122  -20.0796  -12.6606 N   0  0  0  0  0  0  0  0  0  0  0  0
   22.0152  -21.1283  -12.6790 C   0  0  1  0  0  0  0  0  0  0  0  0
   22.1690  -21.7131  -14.0676 C   0  0  0  0  0  0  0  0  0  0  0  0
   20.9909  -22.4558  -14.5209 C   0  0  0  0  0  0  0  0  0  0  0  0
   20.7911  -23.7404  -14.0821 C   0  0  0  0  0  0  0  0  0  0  0  0
   19.6939  -24.4956  -14.4767 C   0  0  0  0  0  0  0  0  0  0  0  0
   18.8019  -23.8683  -15.3500 C   0  0  0  0  0  0  0  0  0  0  0  0
   18.9884  -22.5827  -15.7981 C   0  0  0  0  0  0  0  0  0  0  0  0
   20.0856  -21.8556  -15.3910 C   0  0  0  0  0  0  0  0  0  0  0  0
   23.3239  -20.5375  -12.2923 C   0  0  0  0  0  0  0  0  0  0  0  0
   23.6208  -19.4207  -12.7820 O   0  0  0  0  0  0  0  0  0  0  0  0
   27.0923  -19.4394   -6.0189 C   0  0  0  0  0  0  0  0  0  0  0  0
   26.8128  -20.7806   -7.2025 S   0  0  0  0  0  0  0  0  0  0  0  0
   26.2842  -20.0835   -8.8316 C   0  0  0  0  0  0  0  0  0  0  0  0
   26.0235  -21.1947   -9.7948 C   0  0  0  0  0  0  0  0  0  0  0  0
   25.5881  -20.6692  -11.1540 C   0  0  2  0  0  0  0  0  0  0  0  0
   24.2259  -21.1765  -11.4115 N   0  0  0  0  0  0  0  0  0  0  0  0
   26.4576  -21.2913  -12.1717 C   0  0  0  0  0  0  0  0  0  0  0  0
   26.2794  -22.5055  -12.4537 O   0  0  0  0  0  0  0  0  0  0  0  0
   27.4916  -20.6218  -12.8743 N   0  0  0  0  0  0  0  0  0  0  0  0
   28.3083  -21.3673  -13.8112 C   0  0  0  0  0  0  0  0  0  0  0  0
   27.8733  -21.1272  -15.2108 C   0  0  0  0  0  0  0  0  0  0  0  0
   26.6589  -21.1605  -15.5148 O   0  0  0  0  0  0  0  0  0  0  0  0
   28.8218  -20.8679  -16.1683 O   0  0  0  0  0  0  0  0  0  0  0  0
  2  1  1  6
  2 10  1  0
  3  2  1  0
  4  3  1  0
  4  9  2  0
  5  4  1  0
  6  5  2  0
  6  7  1  0
  7  8  2  0
  8  9  1  0
 10 11  2  0
 12 13  1  0
 13 14  1  0
 14 15  1  0
 16 15  1  1
 16 18  1  0
 17 10  1  0
 17 16  1  0
 18 19  2  0
 20 21  1  0
 20 18  1  0
 21 22  1  0
 22 23  2  0
 22 24  1  0
M  END
$$$$
