FMG.pdb
     RDKit          3D

 24 24  0  0  1  0  0  0  0  0999 V2000
   28.1202  -19.0363  -13.1512 N   0  0  0  0  0  0  0  0  0  0  0  0
   27.4741  -20.1285  -13.8553 C   0  0  1  0  0  0  0  0  0  0  0  0
   26.0172  -20.2482  -13.4592 C   0  0  0  0  0  0  0  0  0  0  0  0
   25.8198  -20.4734  -12.0255 C   0  0  0  0  0  0  0  0  0  0  0  0
   24.7158  -19.9464  -11.4039 C   0  0  0  0  0  0  0  0  0  0  0  0
   24.4738  -20.1249  -10.0476 C   0  0  0  0  0  0  0  0  0  0  0  0
   25.4237  -20.8754   -9.3504 C   0  0  0  0  0  0  0  0  0  0  0  0
   26.5340  -21.4095   -9.9589 C   0  0  0  0  0  0  0  0  0  0  0  0
   26.7502  -21.2173  -11.3060 C   0  0  0  0  0  0  0  0  0  0  0  0
   27.5216  -19.8443  -15.3142 C   0  0  0  0  0  0  0  0  0  0  0  0
   27.6168  -18.6433  -15.6659 O   0  0  0  0  0  0  0  0  0  0  0  0
   31.8335  -24.2881  -17.3988 C   0  0  0  0  0  0  0  0  0  0  0  0
   30.1754  -23.9465  -18.0404 S   0  0  0  0  0  0  0  0  0  0  0  0
   29.6815  -22.2148  -17.6204 C   0  0  0  0  0  0  0  0  0  0  0  0
   28.3843  -21.8856  -18.2831 C   0  0  0  0  0  0  0  0  0  0  0  0
   27.7731  -20.6119  -17.7198 C   0  0  2  0  0  0  0  0  0  0  0  0
   27.4642  -20.8581  -16.2974 N   0  0  0  0  0  0  0  0  0  0  0  0
   26.4756  -20.4050  -18.3924 C   0  0  0  0  0  0  0  0  0  0  0  0
   26.4708  -20.1635  -19.6282 O   0  0  0  0  0  0  0  0  0  0  0  0
   25.2115  -20.4619  -17.7520 N   0  0  0  0  0  0  0  0  0  0  0  0
   24.0105  -20.2596  -18.5376 C   0  0  0  0  0  0  0  0  0  0  0  0
   23.4949  -21.5467  -19.0698 C   0  0  0  0  0  0  0  0  0  0  0  0
   24.2479  -22.3213  -19.7032 O   0  0  0  0  0  0  0  0  0  0  0  0
   22.1796  -21.8764  -18.8578 O   0  0  0  0  0  0  0  0  0  0  0  0
  2  1  1  1
  2 10  1  0
  3  2  1  0
  4  3  1  0
  4  9  2  0
  5  4  1  0
  6  5  2  0
  6  7  1  0
  7  8  2  0
  8  9  1  0
 10 11  2  0
 12 13  1  0
 13 14  1  0
 14 15  1  0
 16 15  1  6
 16 18  1  0
 17 10  1  0
 17 16  1  0
 18 19  2  0
 20 21  1  0
 20 18  1  0
 21 22  1  0
 22 23  2  0
 22 24  1  0
M  END
$$$$
