FMG.pdb
     RDKit          3D

 24 24  0  0  1  0  0  0  0  0999 V2000
   26.0804  -20.6791  -17.5624 N   0  0  0  0  0  0  0  0  0  0  0  0
   25.3868  -19.6489  -16.8116 C   0  0  1  0  0  0  0  0  0  0  0  0
   24.2574  -19.0484  -17.6226 C   0  0  0  0  0  0  0  0  0  0  0  0
   24.7181  -18.2184  -18.7379 C   0  0  0  0  0  0  0  0  0  0  0  0
   25.2110  -16.9625  -18.4878 C   0  0  0  0  0  0  0  0  0  0  0  0
   25.6624  -16.1283  -19.5028 C   0  0  0  0  0  0  0  0  0  0  0  0
   25.5849  -16.6446  -20.7986 C   0  0  0  0  0  0  0  0  0  0  0  0
   25.0939  -17.9001  -21.0649 C   0  0  0  0  0  0  0  0  0  0  0  0
   24.6526  -18.7073  -20.0392 C   0  0  0  0  0  0  0  0  0  0  0  0
   24.7895  -20.2688  -15.5990 C   0  0  0  0  0  0  0  0  0  0  0  0
   24.4477  -21.4740  -15.6751 O   0  0  0  0  0  0  0  0  0  0  0  0
   24.5191  -22.1882   -8.7598 C   0  0  0  0  0  0  0  0  0  0  0  0
   25.0170  -21.5009  -10.3590 S   0  0  0  0  0  0  0  0  0  0  0  0
   24.1075  -19.9228  -10.6774 C   0  0  0  0  0  0  0  0  0  0  0  0
   24.5447  -19.3433  -11.9826 C   0  0  0  0  0  0  0  0  0  0  0  0
   24.1085  -20.2080  -13.1552 C   0  0  2  0  0  0  0  0  0  0  0  0
   24.5973  -19.5628  -14.3898 N   0  0  0  0  0  0  0  0  0  0  0  0
   22.6348  -20.1587  -13.2214 C   0  0  0  0  0  0  0  0  0  0  0  0
   22.0794  -19.0490  -13.4353 O   0  0  0  0  0  0  0  0  0  0  0  0
   21.7777  -21.2779  -13.0667 N   0  0  0  0  0  0  0  0  0  0  0  0
   20.3425  -21.0757  -13.0684 C   0  0  0  0  0  0  0  0  0  0  0  0
   19.6196  -22.3629  -12.9063 C   0  0  0  0  0  0  0  0  0  0  0  0
   20.2465  -23.4467  -12.8811 O   0  0  0  0  0  0  0  0  0  0  0  0
   18.2526  -22.3487  -12.7842 O   0  0  0  0  0  0  0  0  0  0  0  0
  2  1  1  6
  2 10  1  0
  3  2  1  0
  4  3  1  0
  4  9  2  0
  5  4  1  0
  6  5  2  0
  6  7  1  0
  7  8  2  0
  8  9  1  0
 10 11  2  0
 12 13  1  0
 13 14  1  0
 14 15  1  0
 16 15  1  1
 16 18  1  0
 17 10  1  0
 17 16  1  0
 18 19  2  0
 20 21  1  0
 20 18  1  0
 21 22  1  0
 22 23  2  0
 22 24  1  0
M  END
$$$$
