FMG.pdb
     RDKit          3D

 24 24  0  0  1  0  0  0  0  0999 V2000
   13.7745  -20.8551    0.2707 N   0  0  0  0  0  0  0  0  0  0  0  0
   14.6233  -21.5738    1.2030 C   0  0  1  0  0  0  0  0  0  0  0  0
   15.8518  -22.1255    0.5100 C   0  0  0  0  0  0  0  0  0  0  0  0
   15.5812  -23.3212   -0.2913 C   0  0  0  0  0  0  0  0  0  0  0  0
   15.4107  -23.2021   -1.6476 C   0  0  0  0  0  0  0  0  0  0  0  0
   15.1513  -24.2984   -2.4606 C   0  0  0  0  0  0  0  0  0  0  0  0
   15.0738  -25.5345   -1.8141 C   0  0  0  0  0  0  0  0  0  0  0  0
   15.2423  -25.6696   -0.4570 C   0  0  0  0  0  0  0  0  0  0  0  0
   15.4986  -24.5656    0.3264 C   0  0  0  0  0  0  0  0  0  0  0  0
   15.0859  -20.6242    2.2497 C   0  0  0  0  0  0  0  0  0  0  0  0
   15.4545  -19.4848    1.8739 O   0  0  0  0  0  0  0  0  0  0  0  0
   15.2054  -15.3861    6.4131 C   0  0  0  0  0  0  0  0  0  0  0  0
   15.3209  -17.1925    6.4474 S   0  0  0  0  0  0  0  0  0  0  0  0
   14.2045  -17.9198    5.1652 C   0  0  0  0  0  0  0  0  0  0  0  0
   14.2335  -19.4101    5.2580 C   0  0  0  0  0  0  0  0  0  0  0  0
   15.5121  -19.9847    4.6682 C   0  0  2  0  0  0  0  0  0  0  0  0
   15.1242  -20.9532    3.6238 N   0  0  0  0  0  0  0  0  0  0  0  0
   16.1790  -20.7674    5.7272 C   0  0  0  0  0  0  0  0  0  0  0  0
   15.7125  -21.8991    6.0225 O   0  0  0  0  0  0  0  0  0  0  0  0
   17.3247  -20.3454    6.4486 N   0  0  0  0  0  0  0  0  0  0  0  0
   17.7780  -21.1308    7.5793 C   0  0  0  0  0  0  0  0  0  0  0  0
   16.9611  -20.8518    8.7878 C   0  0  0  0  0  0  0  0  0  0  0  0
   16.0519  -19.9912    8.7572 O   0  0  0  0  0  0  0  0  0  0  0  0
   17.2165  -21.5511    9.9409 O   0  0  0  0  0  0  0  0  0  0  0  0
  2  1  1  6
  2 10  1  0
  3  2  1  0
  4  3  1  0
  4  9  2  0
  5  4  1  0
  6  5  2  0
  6  7  1  0
  7  8  2  0
  8  9  1  0
 10 11  2  0
 12 13  1  0
 13 14  1  0
 14 15  1  0
 16 15  1  1
 16 18  1  0
 17 10  1  0
 17 16  1  0
 18 19  2  0
 20 21  1  0
 20 18  1  0
 21 22  1  0
 22 23  2  0
 22 24  1  0
M  END
$$$$
