FMG.pdb
     RDKit          3D

 24 24  0  0  1  0  0  0  0  0999 V2000
   26.8758  -21.4449   -7.8295 N   0  0  0  0  0  0  0  0  0  0  0  0
   26.3705  -20.0870   -7.9132 C   0  0  1  0  0  0  0  0  0  0  0  0
   27.4361  -19.0826   -7.5266 C   0  0  0  0  0  0  0  0  0  0  0  0
   27.9790  -19.2970   -6.1834 C   0  0  0  0  0  0  0  0  0  0  0  0
   29.2444  -19.8077   -6.0389 C   0  0  0  0  0  0  0  0  0  0  0  0
   29.8140  -20.0337   -4.7921 C   0  0  0  0  0  0  0  0  0  0  0  0
   29.0201  -19.7094   -3.6892 C   0  0  0  0  0  0  0  0  0  0  0  0
   27.7515  -19.1973   -3.8179 C   0  0  0  0  0  0  0  0  0  0  0  0
   27.2103  -18.9827   -5.0666 C   0  0  0  0  0  0  0  0  0  0  0  0
   25.9840  -19.8125   -9.3227 C   0  0  0  0  0  0  0  0  0  0  0  0
   26.0766  -18.6279   -9.7268 O   0  0  0  0  0  0  0  0  0  0  0  0
   28.8974  -21.2726  -13.3674 C   0  0  0  0  0  0  0  0  0  0  0  0
   27.6181  -21.2831  -14.6485 S   0  0  0  0  0  0  0  0  0  0  0  0
   25.9543  -21.5152  -13.8757 C   0  0  0  0  0  0  0  0  0  0  0  0
   26.1010  -21.6591  -12.3965 C   0  0  0  0  0  0  0  0  0  0  0  0
   25.3256  -20.5858  -11.6482 C   0  0  2  0  0  0  0  0  0  0  0  0
   25.5256  -20.8178  -10.2041 N   0  0  0  0  0  0  0  0  0  0  0  0
   23.8899  -20.8119  -11.9058 C   0  0  0  0  0  0  0  0  0  0  0  0
   23.3383  -21.8204  -11.3919 O   0  0  0  0  0  0  0  0  0  0  0  0
   23.0645  -19.9698  -12.6937 N   0  0  0  0  0  0  0  0  0  0  0  0
   21.6492  -20.2640  -12.7993 C   0  0  0  0  0  0  0  0  0  0  0  0
   21.3638  -21.1041  -13.9903 C   0  0  0  0  0  0  0  0  0  0  0  0
   22.2787  -21.7553  -14.5445 O   0  0  0  0  0  0  0  0  0  0  0  0
   20.0813  -21.1574  -14.4764 O   0  0  0  0  0  0  0  0  0  0  0  0
  2  1  1  6
  2 10  1  0
  3  2  1  0
  4  3  1  0
  4  9  2  0
  5  4  1  0
  6  5  2  0
  6  7  1  0
  7  8  2  0
  8  9  1  0
 10 11  2  0
 12 13  1  0
 13 14  1  0
 14 15  1  0
 16 15  1  6
 16 18  1  0
 17 10  1  0
 17 16  1  0
 18 19  2  0
 20 21  1  0
 20 18  1  0
 21 22  1  0
 22 23  2  0
 22 24  1  0
M  END
$$$$
