FMG.pdb
     RDKit          3D

 24 24  0  0  1  0  0  0  0  0999 V2000
   27.1371  -21.4855  -13.5260 N   0  0  0  0  0  0  0  0  0  0  0  0
   26.9297  -20.3580  -12.6361 C   0  0  1  0  0  0  0  0  0  0  0  0
   25.8533  -19.4339  -13.1665 C   0  0  0  0  0  0  0  0  0  0  0  0
   26.2362  -18.7397  -14.3980 C   0  0  0  0  0  0  0  0  0  0  0  0
   27.1848  -17.7494  -14.3492 C   0  0  0  0  0  0  0  0  0  0  0  0
   27.5892  -17.0549  -15.4823 C   0  0  0  0  0  0  0  0  0  0  0  0
   26.9714  -17.4249  -16.6795 C   0  0  0  0  0  0  0  0  0  0  0  0
   26.0201  -18.4143  -16.7442 C   0  0  0  0  0  0  0  0  0  0  0  0
   25.6370  -19.0878  -15.6049 C   0  0  0  0  0  0  0  0  0  0  0  0
   26.4708  -20.8736  -11.3190 C   0  0  0  0  0  0  0  0  0  0  0  0
   25.8673  -21.9740  -11.3078 O   0  0  0  0  0  0  0  0  0  0  0  0
   28.9062  -20.2131   -4.6204 C   0  0  0  0  0  0  0  0  0  0  0  0
   27.4005  -19.3182   -5.0785 S   0  0  0  0  0  0  0  0  0  0  0  0
   26.4612  -20.2753   -6.3516 C   0  0  0  0  0  0  0  0  0  0  0  0
   26.9041  -19.8665   -7.7180 C   0  0  0  0  0  0  0  0  0  0  0  0
   26.2295  -20.6968   -8.7990 C   0  0  2  0  0  0  0  0  0  0  0  0
   26.6859  -20.1821  -10.1051 N   0  0  0  0  0  0  0  0  0  0  0  0
   24.7806  -20.4223   -8.7326 C   0  0  0  0  0  0  0  0  0  0  0  0
   24.3512  -19.3400   -9.2118 O   0  0  0  0  0  0  0  0  0  0  0  0
   23.8146  -21.2941   -8.1687 N   0  0  0  0  0  0  0  0  0  0  0  0
   22.4066  -21.0159   -8.3709 C   0  0  0  0  0  0  0  0  0  0  0  0
   21.5573  -21.9834   -7.6304 C   0  0  0  0  0  0  0  0  0  0  0  0
   20.3154  -21.8311   -7.5785 O   0  0  0  0  0  0  0  0  0  0  0  0
   22.1528  -23.0488   -7.0027 O   0  0  0  0  0  0  0  0  0  0  0  0
  2  1  1  6
  2 10  1  0
  3  2  1  0
  4  3  1  0
  4  9  2  0
  5  4  1  0
  6  5  2  0
  6  7  1  0
  7  8  2  0
  8  9  1  0
 10 11  2  0
 12 13  1  0
 13 14  1  0
 14 15  1  0
 16 15  1  1
 16 18  1  0
 17 10  1  0
 17 16  1  0
 18 19  2  0
 20 21  1  0
 20 18  1  0
 21 22  1  0
 22 23  2  0
 22 24  1  0
M  END
$$$$
