DKS.pdb
     RDKit          3D

 24 23  0  0  1  0  0  0  0  0999 V2000
   17.2641  -11.6121  -15.0728 N   0  0  0  0  0  0  0  0  0  0  0  0
   17.3631  -10.3490  -15.7324 C   0  0  1  0  0  0  0  0  0  0  0  0
   16.1728   -9.5046  -15.3989 C   0  0  0  0  0  0  0  0  0  0  0  0
   14.9447  -10.2120  -15.8356 C   0  0  0  0  0  0  0  0  0  0  0  0
   14.8364  -10.7503  -16.9700 O   0  0  0  0  0  0  0  0  0  0  0  0
   18.6424   -9.6503  -15.4560 C   0  0  0  0  0  0  0  0  0  0  0  0
   18.9116   -9.3213  -14.2747 O   0  0  0  0  0  0  0  0  0  0  0  0
   13.8503  -10.3008  -14.9774 O   0  0  0  0  0  0  0  0  0  0  0  0
   19.5900   -9.3277  -16.4548 N   0  0  0  0  0  0  0  0  0  0  0  0
   20.9278   -8.8437  -16.1871 C   0  0  1  0  0  0  0  0  0  0  0  0
   21.8059   -9.2197  -17.3764 C   0  0  0  0  0  0  0  0  0  0  0  0
   22.1836  -10.6824  -17.2777 C   0  0  0  0  0  0  0  0  0  0  0  0
   22.9314  -11.0425  -18.5591 C   0  0  0  0  0  0  0  0  0  0  0  0
   23.3522  -12.5001  -18.5418 C   0  0  0  0  0  0  0  0  0  0  0  0
   24.0875  -12.7460  -19.7633 N   0  0  0  0  0  0  0  0  0  0  0  0
   20.8966   -7.3787  -15.9854 C   0  0  0  0  0  0  0  0  0  0  0  0
   20.3305   -6.6696  -16.8561 O   0  0  0  0  0  0  0  0  0  0  0  0
   22.2532   -5.4833  -12.5374 O   0  0  0  0  0  0  0  0  0  0  0  0
   21.2930   -4.8594  -13.3018 C   0  0  0  0  0  0  0  0  0  0  0  0
   21.3974   -5.2991  -14.7712 C   0  0  2  0  0  0  0  0  0  0  0  0
   21.4600   -6.7238  -14.8803 N   0  0  0  0  0  0  0  0  0  0  0  0
   22.6041   -4.6267  -15.2993 C   0  0  0  0  0  0  0  0  0  0  0  0
   22.6547   -3.3800  -15.2983 O   0  0  0  0  0  0  0  0  0  0  0  0
   23.6701   -5.3462  -15.7909 O   0  0  0  0  0  0  0  0  0  0  0  0
  2  1  1  1
  2  6  1  0
  2  3  1  0
  3  4  1  0
  4  5  2  0
  4  8  1  0
  6  7  2  0
  9 10  1  0
  9  6  1  0
 10 11  1  6
 11 12  1  0
 12 13  1  0
 13 14  1  0
 15 14  1  0
 16 17  2  0
 16 10  1  0
 18 19  1  0
 20 19  1  1
 20 22  1  0
 20 21  1  0
 21 16  1  0
 22 24  1  0
 23 22  2  0
M  END
$$$$
