DKS.pdb
     RDKit          3D

 24 23  0  0  1  0  0  0  0  0999 V2000
   20.5545  -11.8754  -18.2549 N   0  0  0  0  0  0  0  0  0  0  0  0
   21.4147  -10.9486  -17.5906 C   0  0  1  0  0  0  0  0  0  0  0  0
   22.6057  -10.6532  -18.4481 C   0  0  0  0  0  0  0  0  0  0  0  0
   23.3953  -11.8969  -18.6183 C   0  0  0  0  0  0  0  0  0  0  0  0
   23.0254  -13.0071  -18.1503 O   0  0  0  0  0  0  0  0  0  0  0  0
   20.7132   -9.7145  -17.1595 C   0  0  0  0  0  0  0  0  0  0  0  0
   20.3966   -8.8621  -18.0251 O   0  0  0  0  0  0  0  0  0  0  0  0
   24.5991  -11.8666  -19.3198 O   0  0  0  0  0  0  0  0  0  0  0  0
   20.3747   -9.4354  -15.8152 N   0  0  0  0  0  0  0  0  0  0  0  0
   19.6829   -8.2417  -15.3769 C   0  0  1  0  0  0  0  0  0  0  0  0
   18.5336   -8.6749  -14.4722 C   0  0  0  0  0  0  0  0  0  0  0  0
   17.3579   -9.1013  -15.3252 C   0  0  0  0  0  0  0  0  0  0  0  0
   16.2111   -9.4394  -14.3758 C   0  0  0  0  0  0  0  0  0  0  0  0
   14.9477   -9.7565  -15.1538 C   0  0  0  0  0  0  0  0  0  0  0  0
   13.9267  -10.0986  -14.1876 N   0  0  0  0  0  0  0  0  0  0  0  0
   20.6248   -7.3548  -14.6600 C   0  0  0  0  0  0  0  0  0  0  0  0
   21.2328   -7.8154  -13.6602 O   0  0  0  0  0  0  0  0  0  0  0  0
   22.4241   -4.1939  -16.4111 O   0  0  0  0  0  0  0  0  0  0  0  0
   22.9800   -4.7857  -15.2992 C   0  0  0  0  0  0  0  0  0  0  0  0
   21.8842   -5.2673  -14.3343 C   0  0  2  0  0  0  0  0  0  0  0  0
   20.8864   -6.0255  -15.0237 N   0  0  0  0  0  0  0  0  0  0  0  0
   21.3455   -4.0416  -13.7062 C   0  0  0  0  0  0  0  0  0  0  0  0
   20.1442   -3.7497  -13.8751 O   0  0  0  0  0  0  0  0  0  0  0  0
   22.1402   -3.2180  -12.9407 O   0  0  0  0  0  0  0  0  0  0  0  0
  2  1  1  6
  2  6  1  0
  2  3  1  0
  3  4  1  0
  4  5  2  0
  4  8  1  0
  6  7  2  0
  9 10  1  0
  9  6  1  0
 10 11  1  1
 11 12  1  0
 12 13  1  0
 13 14  1  0
 15 14  1  0
 16 17  2  0
 16 10  1  0
 18 19  1  0
 20 19  1  6
 20 22  1  0
 20 21  1  0
 21 16  1  0
 22 24  1  0
 23 22  2  0
M  END
$$$$
