DKS.pdb
     RDKit          3D

 24 23  0  0  1  0  0  0  0  0999 V2000
   13.1124  -11.9921  -11.5248 N   0  0  0  0  0  0  0  0  0  0  0  0
   14.5107  -11.8731  -11.2587 C   0  0  1  0  0  0  0  0  0  0  0  0
   15.2799  -12.7995  -12.1483 C   0  0  0  0  0  0  0  0  0  0  0  0
   14.9586  -14.1988  -11.7770 C   0  0  0  0  0  0  0  0  0  0  0  0
   13.9939  -14.8326  -12.2829 O   0  0  0  0  0  0  0  0  0  0  0  0
   14.9998  -10.4752  -11.3466 C   0  0  0  0  0  0  0  0  0  0  0  0
   14.7351   -9.8028  -12.3732 O   0  0  0  0  0  0  0  0  0  0  0  0
   15.7379  -14.8650  -10.8331 O   0  0  0  0  0  0  0  0  0  0  0  0
   15.7559   -9.8451  -10.3314 N   0  0  0  0  0  0  0  0  0  0  0  0
   16.2020   -8.4687  -10.3787 C   0  0  1  0  0  0  0  0  0  0  0  0
   16.0971   -7.8962   -8.9687 C   0  0  0  0  0  0  0  0  0  0  0  0
   16.6110   -6.4722   -8.9667 C   0  0  0  0  0  0  0  0  0  0  0  0
   15.4324   -5.5670   -9.3166 C   0  0  0  0  0  0  0  0  0  0  0  0
   15.8800   -4.1210   -9.4194 C   0  0  0  0  0  0  0  0  0  0  0  0
   14.7323   -3.3486   -9.8427 N   0  0  0  0  0  0  0  0  0  0  0  0
   17.5932   -8.4128  -10.8782 C   0  0  0  0  0  0  0  0  0  0  0  0
   18.4848   -9.0138  -10.2261 O   0  0  0  0  0  0  0  0  0  0  0  0
   20.7293   -8.5756  -14.2931 O   0  0  0  0  0  0  0  0  0  0  0  0
   19.4335   -8.5661  -13.8276 C   0  0  0  0  0  0  0  0  0  0  0  0
   19.3387   -7.7989  -12.4987 C   0  0  2  0  0  0  0  0  0  0  0  0
   17.9863   -7.7294  -12.0385 N   0  0  0  0  0  0  0  0  0  0  0  0
   19.9251   -6.4684  -12.7688 C   0  0  0  0  0  0  0  0  0  0  0  0
   19.1716   -5.5240  -13.0807 O   0  0  0  0  0  0  0  0  0  0  0  0
   21.2820   -6.2507  -12.6834 O   0  0  0  0  0  0  0  0  0  0  0  0
  2  1  1  6
  2  6  1  0
  2  3  1  0
  3  4  1  0
  4  5  2  0
  4  8  1  0
  6  7  2  0
  9 10  1  0
  9  6  1  0
 10 11  1  1
 11 12  1  0
 12 13  1  0
 13 14  1  0
 15 14  1  0
 16 17  2  0
 16 10  1  0
 18 19  1  0
 20 19  1  6
 20 22  1  0
 20 21  1  0
 21 16  1  0
 22 24  1  0
 23 22  2  0
M  END
$$$$
