DKS.pdb
     RDKit          3D

 24 23  0  0  1  0  0  0  0  0999 V2000
   15.6974  -10.8106  -15.1548 N   0  0  0  0  0  0  0  0  0  0  0  0
   16.1002   -9.4595  -15.3839 C   0  0  1  0  0  0  0  0  0  0  0  0
   15.2342   -8.5281  -14.5942 C   0  0  0  0  0  0  0  0  0  0  0  0
   13.8680   -8.5375  -15.1711 C   0  0  0  0  0  0  0  0  0  0  0  0
   13.6505   -8.6932  -16.4026 O   0  0  0  0  0  0  0  0  0  0  0  0
   17.5445   -9.2349  -15.1292 C   0  0  0  0  0  0  0  0  0  0  0  0
   17.9689   -9.2916  -13.9490 O   0  0  0  0  0  0  0  0  0  0  0  0
   12.7610   -8.3695  -14.3414 O   0  0  0  0  0  0  0  0  0  0  0  0
   18.4851   -8.9573  -16.1478 N   0  0  0  0  0  0  0  0  0  0  0  0
   19.9031   -8.7717  -15.9231 C   0  0  1  0  0  0  0  0  0  0  0  0
   20.6441   -9.3369  -17.1308 C   0  0  0  0  0  0  0  0  0  0  0  0
   20.6262  -10.8493  -17.0667 C   0  0  0  0  0  0  0  0  0  0  0  0
   21.3179  -11.3622  -18.3274 C   0  0  0  0  0  0  0  0  0  0  0  0
   21.2020  -12.8719  -18.4252 C   0  0  0  0  0  0  0  0  0  0  0  0
   21.9695  -13.2844  -19.5800 N   0  0  0  0  0  0  0  0  0  0  0  0
   20.1945   -7.3332  -15.7401 C   0  0  0  0  0  0  0  0  0  0  0  0
   19.7142   -6.5181  -16.5686 O   0  0  0  0  0  0  0  0  0  0  0  0
   22.0885   -5.7559  -12.4002 O   0  0  0  0  0  0  0  0  0  0  0  0
   21.2853   -4.9344  -13.1590 C   0  0  0  0  0  0  0  0  0  0  0  0
   21.2449   -5.4118  -14.6198 C   0  0  2  0  0  0  0  0  0  0  0  0
   20.9760   -6.8145  -14.6971 N   0  0  0  0  0  0  0  0  0  0  0  0
   22.5585   -5.0442  -15.1913 C   0  0  0  0  0  0  0  0  0  0  0  0
   22.8943   -3.8428  -15.2194 O   0  0  0  0  0  0  0  0  0  0  0  0
   23.4164   -5.9978  -15.6915 O   0  0  0  0  0  0  0  0  0  0  0  0
  2  1  1  1
  2  6  1  0
  2  3  1  0
  3  4  1  0
  4  5  2  0
  4  8  1  0
  6  7  2  0
  9 10  1  0
  9  6  1  0
 10 11  1  6
 11 12  1  0
 12 13  1  0
 13 14  1  0
 15 14  1  0
 16 17  2  0
 16 10  1  0
 18 19  1  0
 20 19  1  1
 20 22  1  0
 20 21  1  0
 21 16  1  0
 22 24  1  0
 23 22  2  0
M  END
$$$$
