DKS.pdb
     RDKit          3D

 24 23  0  0  1  0  0  0  0  0999 V2000
   25.5030  -22.2813  -14.9648 N   0  0  0  0  0  0  0  0  0  0  0  0
   24.9583  -21.0270  -14.5523 C   0  0  1  0  0  0  0  0  0  0  0  0
   24.8917  -20.0913  -15.7190 C   0  0  0  0  0  0  0  0  0  0  0  0
   26.2706  -19.8012  -16.1812 C   0  0  0  0  0  0  0  0  0  0  0  0
   27.2684  -20.4764  -15.8113 O   0  0  0  0  0  0  0  0  0  0  0  0
   23.6503  -21.1617  -13.8652 C   0  0  0  0  0  0  0  0  0  0  0  0
   22.8293  -22.0141  -14.2842 O   0  0  0  0  0  0  0  0  0  0  0  0
   26.5021  -18.7452  -17.0606 O   0  0  0  0  0  0  0  0  0  0  0  0
   23.2663  -20.3785  -12.7522 N   0  0  0  0  0  0  0  0  0  0  0  0
   22.0013  -20.5058  -12.0599 C   0  0  1  0  0  0  0  0  0  0  0  0
   22.0957  -19.7039  -10.7657 C   0  0  0  0  0  0  0  0  0  0  0  0
   20.8446  -19.9301   -9.9439 C   0  0  0  0  0  0  0  0  0  0  0  0
   20.9231  -21.3482   -9.3839 C   0  0  0  0  0  0  0  0  0  0  0  0
   19.6729  -21.6809   -8.5914 C   0  0  0  0  0  0  0  0  0  0  0  0
   19.8315  -23.0291   -8.0911 N   0  0  0  0  0  0  0  0  0  0  0  0
   20.9088  -20.0055  -12.9224 C   0  0  0  0  0  0  0  0  0  0  0  0
   21.0208  -18.8554  -13.4185 O   0  0  0  0  0  0  0  0  0  0  0  0
   19.4549  -21.2625  -16.0677 O   0  0  0  0  0  0  0  0  0  0  0  0
   18.3800  -21.1093  -15.2210 C   0  0  0  0  0  0  0  0  0  0  0  0
   18.7333  -20.1672  -14.0586 C   0  0  2  0  0  0  0  0  0  0  0  0
   19.7487  -20.7336  -13.2257 N   0  0  0  0  0  0  0  0  0  0  0  0
   17.4620  -19.9335  -13.3401 C   0  0  0  0  0  0  0  0  0  0  0  0
   17.4010  -20.1769  -12.1178 O   0  0  0  0  0  0  0  0  0  0  0  0
   16.3470  -19.4542  -13.9904 O   0  0  0  0  0  0  0  0  0  0  0  0
  2  1  1  6
  2  6  1  0
  2  3  1  0
  3  4  1  0
  4  5  2  0
  4  8  1  0
  6  7  2  0
  9 10  1  0
  9  6  1  0
 10 11  1  1
 11 12  1  0
 12 13  1  0
 13 14  1  0
 15 14  1  0
 16 17  2  0
 16 10  1  0
 18 19  1  0
 20 19  1  6
 20 22  1  0
 20 21  1  0
 21 16  1  0
 22 24  1  0
 23 22  2  0
M  END
$$$$
