DKS.pdb
     RDKit          3D

 24 23  0  0  1  0  0  0  0  0999 V2000
   28.2716  -21.2255  -16.5677 N   0  0  0  0  0  0  0  0  0  0  0  0
   27.3505  -20.2760  -16.0289 C   0  0  1  0  0  0  0  0  0  0  0  0
   26.6720  -19.5365  -17.1398 C   0  0  0  0  0  0  0  0  0  0  0  0
   27.6871  -18.7540  -17.8859 C   0  0  0  0  0  0  0  0  0  0  0  0
   27.9745  -18.9862  -19.0908 O   0  0  0  0  0  0  0  0  0  0  0  0
   26.3809  -20.8822  -15.0837 C   0  0  0  0  0  0  0  0  0  0  0  0
   25.9678  -22.0475  -15.3017 O   0  0  0  0  0  0  0  0  0  0  0  0
   28.3663  -17.7139  -17.2543 O   0  0  0  0  0  0  0  0  0  0  0  0
   25.8867  -20.2192  -13.9367 N   0  0  0  0  0  0  0  0  0  0  0  0
   24.9988  -20.8198  -12.9637 C   0  0  1  0  0  0  0  0  0  0  0  0
   25.2219  -20.1129  -11.6305 C   0  0  0  0  0  0  0  0  0  0  0  0
   25.2778  -21.1415  -10.5213 C   0  0  0  0  0  0  0  0  0  0  0  0
   25.5568  -20.3892   -9.2224 C   0  0  0  0  0  0  0  0  0  0  0  0
   25.6369  -21.3521   -8.0526 C   0  0  0  0  0  0  0  0  0  0  0  0
   26.0507  -20.5858   -6.8973 N   0  0  0  0  0  0  0  0  0  0  0  0
   23.5974  -20.6817  -13.4161 C   0  0  0  0  0  0  0  0  0  0  0  0
   23.2231  -19.5679  -13.8642 O   0  0  0  0  0  0  0  0  0  0  0  0
   21.2615  -23.5913  -14.9451 O   0  0  0  0  0  0  0  0  0  0  0  0
   20.5661  -22.8101  -14.0497 C   0  0  0  0  0  0  0  0  0  0  0  0
   21.3040  -21.4854  -13.7962 C   0  0  2  0  0  0  0  0  0  0  0  0
   22.6520  -21.7174  -13.3782 N   0  0  0  0  0  0  0  0  0  0  0  0
   20.4993  -20.7741  -12.7795 C   0  0  0  0  0  0  0  0  0  0  0  0
   21.0114  -20.5147  -11.6716 O   0  0  0  0  0  0  0  0  0  0  0  0
   19.2000  -20.3932  -13.0295 O   0  0  0  0  0  0  0  0  0  0  0  0
  2  1  1  6
  2  6  1  0
  2  3  1  0
  3  4  1  0
  4  5  2  0
  4  8  1  0
  6  7  2  0
  9 10  1  0
  9  6  1  0
 10 11  1  1
 11 12  1  0
 12 13  1  0
 13 14  1  0
 15 14  1  0
 16 17  2  0
 16 10  1  0
 18 19  1  0
 20 19  1  1
 20 22  1  0
 20 21  1  0
 21 16  1  0
 22 24  1  0
 23 22  2  0
M  END
$$$$
