DKS.pdb
     RDKit          3D

 24 23  0  0  1  0  0  0  0  0999 V2000
   18.5855  -11.7128  -17.6060 N   0  0  0  0  0  0  0  0  0  0  0  0
   18.9091  -11.4337  -16.2431 C   0  0  1  0  0  0  0  0  0  0  0  0
   19.1764  -12.7115  -15.5102 C   0  0  0  0  0  0  0  0  0  0  0  0
   17.9147  -13.4854  -15.4186 C   0  0  0  0  0  0  0  0  0  0  0  0
   17.0786  -13.5378  -16.3601 O   0  0  0  0  0  0  0  0  0  0  0  0
   20.0202  -10.4611  -16.0994 C   0  0  0  0  0  0  0  0  0  0  0  0
   20.4598  -10.2068  -14.9513 O   0  0  0  0  0  0  0  0  0  0  0  0
   17.6152  -14.1931  -14.2560 O   0  0  0  0  0  0  0  0  0  0  0  0
   20.6227   -9.7939  -17.1909 N   0  0  0  0  0  0  0  0  0  0  0  0
   21.6707   -8.8030  -17.0664 C   0  0  1  0  0  0  0  0  0  0  0  0
   22.2996   -8.6144  -18.4432 C   0  0  0  0  0  0  0  0  0  0  0  0
   23.4148   -7.5950  -18.3492 C   0  0  0  0  0  0  0  0  0  0  0  0
   24.0197   -7.4584  -19.7443 C   0  0  0  0  0  0  0  0  0  0  0  0
   25.2099   -6.5177  -19.7222 C   0  0  0  0  0  0  0  0  0  0  0  0
   25.5962   -6.2866  -21.0971 N   0  0  0  0  0  0  0  0  0  0  0  0
   21.1005   -7.5359  -16.5591 C   0  0  0  0  0  0  0  0  0  0  0  0
   20.1015   -7.0532  -17.1509 O   0  0  0  0  0  0  0  0  0  0  0  0
   19.3414   -4.6683  -13.5778 O   0  0  0  0  0  0  0  0  0  0  0  0
   19.9624   -5.8461  -13.9283 C   0  0  0  0  0  0  0  0  0  0  0  0
   20.9982   -5.6053  -15.0385 C   0  0  2  0  0  0  0  0  0  0  0  0
   21.6035   -6.8326  -15.4545 N   0  0  0  0  0  0  0  0  0  0  0  0
   21.9702   -4.6467  -14.4697 C   0  0  0  0  0  0  0  0  0  0  0  0
   23.1297   -5.0335  -14.2188 O   0  0  0  0  0  0  0  0  0  0  0  0
   21.6230   -3.3395  -14.2120 O   0  0  0  0  0  0  0  0  0  0  0  0
  2  1  1  6
  2  6  1  0
  2  3  1  0
  3  4  1  0
  4  5  2  0
  4  8  1  0
  6  7  2  0
  9 10  1  0
  9  6  1  0
 10 11  1  6
 11 12  1  0
 12 13  1  0
 13 14  1  0
 15 14  1  0
 16 17  2  0
 16 10  1  0
 18 19  1  0
 20 19  1  1
 20 22  1  0
 20 21  1  0
 21 16  1  0
 22 24  1  0
 23 22  2  0
M  END
$$$$
