WSW.pdb
     RDKit          3D

 35 38  0  0  1  0  0  0  0  0999 V2000
   10.5717  -18.4908   17.7029 N   0  0  0  0  0  0  0  0  0  0  0  0
   11.2191  -18.5249   18.9347 C   0  0  1  0  0  0  0  0  0  0  0  0
   12.6575  -18.1164   18.8528 C   0  0  0  0  0  0  0  0  0  0  0  0
   13.5182  -18.9864   18.0506 C   0  0  0  0  0  0  0  0  0  0  0  0
   14.0041  -18.7953   16.7895 C   0  0  0  0  0  0  0  0  0  0  0  0
   14.7760  -19.8482   16.4119 N   0  0  0  0  0  0  0  0  0  0  0  0
   14.7804  -20.7132   17.4374 C   0  0  0  0  0  0  0  0  0  0  0  0
   15.4151  -21.9545   17.5808 C   0  0  0  0  0  0  0  0  0  0  0  0
   15.2697  -22.6843   18.7666 C   0  0  0  0  0  0  0  0  0  0  0  0
   14.4980  -22.1702   19.7917 C   0  0  0  0  0  0  0  0  0  0  0  0
   13.8936  -20.9523   19.6119 C   0  0  0  0  0  0  0  0  0  0  0  0
   14.0103  -20.2011   18.4601 C   0  0  0  0  0  0  0  0  0  0  0  0
   10.5222  -17.8720   20.0982 C   0  0  0  0  0  0  0  0  0  0  0  0
   10.2516  -16.6496   19.9277 O   0  0  0  0  0  0  0  0  0  0  0  0
    9.1390  -20.3410   23.3331 O   0  0  0  0  0  0  0  0  0  0  0  0
    8.5284  -19.2365   22.8657 C   0  0  0  0  0  0  0  0  0  0  0  0
    9.5006  -18.1227   22.4795 C   0  0  2  0  0  0  0  0  0  0  0  0
   10.1773  -18.5219   21.2834 N   0  0  0  0  0  0  0  0  0  0  0  0
   10.1917  -17.4770   23.5499 C   0  0  0  0  0  0  0  0  0  0  0  0
   11.4347  -17.6845   23.7529 O   0  0  0  0  0  0  0  0  0  0  0  0
    9.6061  -16.5641   24.4721 N   0  0  0  0  0  0  0  0  0  0  0  0
   10.2790  -16.1829   25.6748 C   0  0  1  0  0  0  0  0  0  0  0  0
    9.7138  -15.1511   26.5520 C   0  0  0  0  0  0  0  0  0  0  0  0
    8.2627  -14.8922   26.4781 C   0  0  0  0  0  0  0  0  0  0  0  0
    7.1783  -15.7428   26.4228 C   0  0  0  0  0  0  0  0  0  0  0  0
    6.0302  -15.0091   26.3604 N   0  0  0  0  0  0  0  0  0  0  0  0
    6.3353  -13.6979   26.3753 C   0  0  0  0  0  0  0  0  0  0  0  0
    5.5900  -12.5363   26.3565 C   0  0  0  0  0  0  0  0  0  0  0  0
    6.2112  -11.3073   26.4080 C   0  0  0  0  0  0  0  0  0  0  0  0
    7.5828  -11.1808   26.4776 C   0  0  0  0  0  0  0  0  0  0  0  0
    8.3231  -12.3739   26.4946 C   0  0  0  0  0  0  0  0  0  0  0  0
    7.7067  -13.6050   26.4448 C   0  0  0  0  0  0  0  0  0  0  0  0
   10.4769  -17.4421   26.4846 C   0  0  0  0  0  0  0  0  0  0  0  0
   11.1952  -17.4256   27.5266 O   0  0  0  0  0  0  0  0  0  0  0  0
    9.8894  -18.6430   26.1261 O   0  0  0  0  0  0  0  0  0  0  0  0
  2  3  1  0
  2  1  1  6
  4  5  2  0
  4  3  1  0
  6  5  1  0
  7 12  2  0
  7  6  1  0
  8  7  1  0
  9 10  1  0
  9  8  2  0
 10 11  2  0
 11 12  1  0
 12  4  1  0
 13  2  1  0
 14 13  2  0
 16 15  1  0
 17 16  1  1
 17 18  1  0
 18 13  1  0
 19 17  1  0
 19 21  1  0
 20 19  2  0
 22 23  1  1
 22 33  1  0
 22 21  1  0
 24 23  1  0
 24 32  1  0
 25 24  2  0
 26 25  1  0
 26 27  1  0
 27 28  1  0
 27 32  2  0
 28 29  2  0
 29 30  1  0
 31 30  2  0
 32 31  1  0
 33 35  1  0
 34 33  2  0
M  END
$$$$
