WSW.pdb
     RDKit          3D

 35 38  0  0  1  0  0  0  0  0999 V2000
    8.7866  -17.4825   20.6893 N   0  0  0  0  0  0  0  0  0  0  0  0
    8.9203  -16.7580   21.8704 C   0  0  1  0  0  0  0  0  0  0  0  0
    7.7174  -15.9237   22.1861 C   0  0  0  0  0  0  0  0  0  0  0  0
    7.2123  -15.0996   21.0875 C   0  0  0  0  0  0  0  0  0  0  0  0
    6.0818  -15.2567   20.3392 C   0  0  0  0  0  0  0  0  0  0  0  0
    5.9776  -14.2621   19.4190 N   0  0  0  0  0  0  0  0  0  0  0  0
    7.0473  -13.4691   19.5823 C   0  0  0  0  0  0  0  0  0  0  0  0
    7.4324  -12.3054   18.9028 C   0  0  0  0  0  0  0  0  0  0  0  0
    8.6109  -11.6405   19.2616 C   0  0  0  0  0  0  0  0  0  0  0  0
    9.3879  -12.1401   20.2898 C   0  0  0  0  0  0  0  0  0  0  0  0
    8.9765  -13.2812   20.9296 C   0  0  0  0  0  0  0  0  0  0  0  0
    7.8231  -13.9674   20.6076 C   0  0  0  0  0  0  0  0  0  0  0  0
    9.4140  -17.5010   23.0827 C   0  0  0  0  0  0  0  0  0  0  0  0
    8.5290  -17.7250   23.9562 O   0  0  0  0  0  0  0  0  0  0  0  0
   13.6063  -17.8027   23.2180 O   0  0  0  0  0  0  0  0  0  0  0  0
   12.8976  -18.6929   23.9367 C   0  0  0  0  0  0  0  0  0  0  0  0
   11.5523  -18.1511   24.4178 C   0  0  2  0  0  0  0  0  0  0  0  0
   10.7275  -17.9326   23.2690 N   0  0  0  0  0  0  0  0  0  0  0  0
   11.5876  -17.2207   25.5011 C   0  0  0  0  0  0  0  0  0  0  0  0
   12.3054  -16.1668   25.4424 O   0  0  0  0  0  0  0  0  0  0  0  0
   10.8574  -17.3486   26.7165 N   0  0  0  0  0  0  0  0  0  0  0  0
   10.9296  -16.3519   27.7393 C   0  0  1  0  0  0  0  0  0  0  0  0
   10.1438  -15.1168   27.6353 C   0  0  0  0  0  0  0  0  0  0  0  0
    8.8013  -15.1943   27.0274 C   0  0  0  0  0  0  0  0  0  0  0  0
    7.9303  -16.2494   26.8526 C   0  0  0  0  0  0  0  0  0  0  0  0
    6.8024  -15.8064   26.2264 N   0  0  0  0  0  0  0  0  0  0  0  0
    6.9119  -14.4858   25.9881 C   0  0  0  0  0  0  0  0  0  0  0  0
    6.0849  -13.5393   25.4179 C   0  0  0  0  0  0  0  0  0  0  0  0
    6.4825  -12.2222   25.3374 C   0  0  0  0  0  0  0  0  0  0  0  0
    7.7047  -11.7946   25.8124 C   0  0  0  0  0  0  0  0  0  0  0  0
    8.5317  -12.7727   26.3879 C   0  0  0  0  0  0  0  0  0  0  0  0
    8.1381  -14.0903   26.4719 C   0  0  0  0  0  0  0  0  0  0  0  0
   10.5789  -17.0328   29.0408 C   0  0  0  0  0  0  0  0  0  0  0  0
   10.0622  -18.1883   29.0387 O   0  0  0  0  0  0  0  0  0  0  0  0
   10.8060  -16.4309   30.2664 O   0  0  0  0  0  0  0  0  0  0  0  0
  2  3  1  0
  2  1  1  6
  4  5  2  0
  4  3  1  0
  6  5  1  0
  7 12  2  0
  7  6  1  0
  8  7  1  0
  9 10  1  0
  9  8  2  0
 10 11  2  0
 11 12  1  0
 12  4  1  0
 13  2  1  0
 14 13  2  0
 16 15  1  0
 17 16  1  6
 17 18  1  0
 18 13  1  0
 19 17  1  0
 19 21  1  0
 20 19  2  0
 22 23  1  6
 22 33  1  0
 22 21  1  0
 24 23  1  0
 24 32  1  0
 25 24  2  0
 26 25  1  0
 26 27  1  0
 27 28  1  0
 27 32  2  0
 28 29  2  0
 29 30  1  0
 31 30  2  0
 32 31  1  0
 33 35  1  0
 34 33  2  0
M  END
$$$$
