WSW.pdb
     RDKit          3D

 35 38  0  0  1  0  0  0  0  0999 V2000
    8.3492  -17.2276   19.3980 N   0  0  0  0  0  0  0  0  0  0  0  0
    8.7054  -16.4247   20.4779 C   0  0  1  0  0  0  0  0  0  0  0  0
    8.3202  -14.9893   20.2938 C   0  0  0  0  0  0  0  0  0  0  0  0
    8.8968  -14.3238   19.1251 C   0  0  0  0  0  0  0  0  0  0  0  0
    8.2730  -13.8387   18.0123 C   0  0  0  0  0  0  0  0  0  0  0  0
    9.1775  -13.2851   17.1623 N   0  0  0  0  0  0  0  0  0  0  0  0
   10.3823  -13.4196   17.7369 C   0  0  0  0  0  0  0  0  0  0  0  0
   11.6525  -13.0245   17.2955 C   0  0  0  0  0  0  0  0  0  0  0  0
   12.7801  -13.2773   18.0857 C   0  0  0  0  0  0  0  0  0  0  0  0
   12.6292  -13.9169   19.3018 C   0  0  0  0  0  0  0  0  0  0  0  0
   11.3696  -14.2874   19.6976 C   0  0  0  0  0  0  0  0  0  0  0  0
   10.2325  -14.0580   18.9499 C   0  0  0  0  0  0  0  0  0  0  0  0
    8.3509  -16.9223   21.8535 C   0  0  0  0  0  0  0  0  0  0  0  0
    7.5014  -17.8574   21.8694 O   0  0  0  0  0  0  0  0  0  0  0  0
    7.3788  -17.2470   24.9294 O   0  0  0  0  0  0  0  0  0  0  0  0
    7.4168  -15.9040   24.8513 C   0  0  0  0  0  0  0  0  0  0  0  0
    8.5284  -15.3799   23.9431 C   0  0  2  0  0  0  0  0  0  0  0  0
    8.8929  -16.4287   23.0404 N   0  0  0  0  0  0  0  0  0  0  0  0
    9.5119  -14.5429   24.5535 C   0  0  0  0  0  0  0  0  0  0  0  0
    9.6355  -13.3175   24.2181 O   0  0  0  0  0  0  0  0  0  0  0  0
   10.4258  -14.9541   25.5647 N   0  0  0  0  0  0  0  0  0  0  0  0
   10.8840  -16.3059   25.6520 C   0  0  1  0  0  0  0  0  0  0  0  0
   10.0859  -17.3215   26.3485 C   0  0  0  0  0  0  0  0  0  0  0  0
    9.8014  -17.1211   27.7827 C   0  0  0  0  0  0  0  0  0  0  0  0
    9.2474  -17.9508   28.7352 C   0  0  0  0  0  0  0  0  0  0  0  0
    9.1917  -17.2947   29.9298 N   0  0  0  0  0  0  0  0  0  0  0  0
    9.6974  -16.0554   29.7841 C   0  0  0  0  0  0  0  0  0  0  0  0
    9.9052  -14.9941   30.6417 C   0  0  0  0  0  0  0  0  0  0  0  0
   10.4833  -13.8298   30.1844 C   0  0  0  0  0  0  0  0  0  0  0  0
   10.8733  -13.6709   28.8710 C   0  0  0  0  0  0  0  0  0  0  0  0
   10.6524  -14.7615   28.0144 C   0  0  0  0  0  0  0  0  0  0  0  0
   10.0762  -15.9281   28.4672 C   0  0  0  0  0  0  0  0  0  0  0  0
   11.1294  -16.7780   24.2387 C   0  0  0  0  0  0  0  0  0  0  0  0
   10.1593  -16.9442   23.4429 O   0  0  0  0  0  0  0  0  0  0  0  0
   12.4032  -17.0417   23.7657 O   0  0  0  0  0  0  0  0  0  0  0  0
  2  3  1  0
  2  1  1  6
  4  5  2  0
  4  3  1  0
  6  5  1  0
  7 12  2  0
  7  6  1  0
  8  7  1  0
  9 10  1  0
  9  8  2  0
 10 11  2  0
 11 12  1  0
 12  4  1  0
 13  2  1  0
 14 13  2  0
 16 15  1  0
 17 16  1  1
 17 18  1  0
 18 13  1  0
 19 17  1  0
 19 21  1  0
 20 19  2  0
 22 23  1  6
 22 33  1  0
 22 21  1  0
 24 23  1  0
 24 32  1  0
 25 24  2  0
 26 25  1  0
 26 27  1  0
 27 28  1  0
 27 32  2  0
 28 29  2  0
 29 30  1  0
 31 30  2  0
 32 31  1  0
 33 35  1  0
 34 33  2  0
M  END
$$$$
