WSW.pdb
     RDKit          3D

 35 38  0  0  1  0  0  0  0  0999 V2000
    7.3628  -18.1039   21.1984 N   0  0  0  0  0  0  0  0  0  0  0  0
    7.2687  -16.9868   22.0236 C   0  0  1  0  0  0  0  0  0  0  0  0
    6.3448  -15.9374   21.4871 C   0  0  0  0  0  0  0  0  0  0  0  0
    6.7765  -15.2861   20.2499 C   0  0  0  0  0  0  0  0  0  0  0  0
    6.4698  -15.5983   18.9571 C   0  0  0  0  0  0  0  0  0  0  0  0
    7.0757  -14.7335   18.1017 N   0  0  0  0  0  0  0  0  0  0  0  0
    7.7717  -13.8677   18.8539 C   0  0  0  0  0  0  0  0  0  0  0  0
    8.5724  -12.7780   18.4856 C   0  0  0  0  0  0  0  0  0  0  0  0
    9.2061  -12.0087   19.4686 C   0  0  0  0  0  0  0  0  0  0  0  0
    9.0341  -12.3320   20.8014 C   0  0  0  0  0  0  0  0  0  0  0  0
    8.2429  -13.4058   21.1204 C   0  0  0  0  0  0  0  0  0  0  0  0
    7.6009  -14.1901   20.1836 C   0  0  0  0  0  0  0  0  0  0  0  0
    7.0387  -17.2310   23.4909 C   0  0  0  0  0  0  0  0  0  0  0  0
    5.8371  -17.1050   23.8608 O   0  0  0  0  0  0  0  0  0  0  0  0
    6.9728  -19.9894   25.6951 O   0  0  0  0  0  0  0  0  0  0  0  0
    6.8455  -18.7242   26.1361 C   0  0  0  0  0  0  0  0  0  0  0  0
    8.0509  -17.8435   25.8099 C   0  0  2  0  0  0  0  0  0  0  0  0
    8.0352  -17.5761   24.4041 N   0  0  0  0  0  0  0  0  0  0  0  0
    9.2652  -18.1390   26.5015 C   0  0  0  0  0  0  0  0  0  0  0  0
    9.2522  -18.5675   27.7039 O   0  0  0  0  0  0  0  0  0  0  0  0
   10.5735  -18.0024   25.9571 N   0  0  0  0  0  0  0  0  0  0  0  0
   11.0352  -16.7573   25.4267 C   0  0  1  0  0  0  0  0  0  0  0  0
   10.1056  -15.6389   25.2294 C   0  0  0  0  0  0  0  0  0  0  0  0
    9.6768  -14.8719   26.4150 C   0  0  0  0  0  0  0  0  0  0  0  0
   10.2397  -14.7196   27.6650 C   0  0  0  0  0  0  0  0  0  0  0  0
    9.4509  -13.9025   28.4202 N   0  0  0  0  0  0  0  0  0  0  0  0
    8.3852  -13.5137   27.6951 C   0  0  0  0  0  0  0  0  0  0  0  0
    7.3045  -12.6902   27.9385 C   0  0  0  0  0  0  0  0  0  0  0  0
    6.3647  -12.4631   26.9566 C   0  0  0  0  0  0  0  0  0  0  0  0
    6.4558  -13.0388   25.7066 C   0  0  0  0  0  0  0  0  0  0  0  0
    7.5617  -13.8738   25.4792 C   0  0  0  0  0  0  0  0  0  0  0  0
    8.5047  -14.1028   26.4572 C   0  0  0  0  0  0  0  0  0  0  0  0
   12.1608  -16.2908   26.3190 C   0  0  0  0  0  0  0  0  0  0  0  0
   12.9857  -15.4238   25.9067 O   0  0  0  0  0  0  0  0  0  0  0  0
   12.3309  -16.7837   27.6011 O   0  0  0  0  0  0  0  0  0  0  0  0
  2  3  1  0
  2  1  1  6
  4  5  2  0
  4  3  1  0
  6  5  1  0
  7 12  2  0
  7  6  1  0
  8  7  1  0
  9 10  1  0
  9  8  2  0
 10 11  2  0
 11 12  1  0
 12  4  1  0
 13  2  1  0
 14 13  2  0
 16 15  1  0
 17 16  1  6
 17 18  1  0
 18 13  1  0
 19 17  1  0
 19 21  1  0
 20 19  2  0
 22 23  1  1
 22 33  1  0
 22 21  1  0
 24 23  1  0
 24 32  1  0
 25 24  2  0
 26 25  1  0
 26 27  1  0
 27 28  1  0
 27 32  2  0
 28 29  2  0
 29 30  1  0
 31 30  2  0
 32 31  1  0
 33 35  1  0
 34 33  2  0
M  END
$$$$
