WSW.pdb
     RDKit          3D

 35 38  0  0  1  0  0  0  0  0999 V2000
    8.2280  -17.7483   21.1514 N   0  0  0  0  0  0  0  0  0  0  0  0
    7.7319  -16.7898   22.0304 C   0  0  1  0  0  0  0  0  0  0  0  0
    6.5233  -16.0799   21.5032 C   0  0  0  0  0  0  0  0  0  0  0  0
    6.7019  -15.3885   20.2260 C   0  0  0  0  0  0  0  0  0  0  0  0
    6.2905  -15.7590   18.9785 C   0  0  0  0  0  0  0  0  0  0  0  0
    6.6548  -14.8258   18.0601 N   0  0  0  0  0  0  0  0  0  0  0  0
    7.3017  -13.8578   18.7265 C   0  0  0  0  0  0  0  0  0  0  0  0
    7.8831  -12.6674   18.2691 C   0  0  0  0  0  0  0  0  0  0  0  0
    8.5110  -11.8009   19.1717 C   0  0  0  0  0  0  0  0  0  0  0  0
    8.5508  -12.1286   20.5140 C   0  0  0  0  0  0  0  0  0  0  0  0
    7.9703  -13.3025   20.9213 C   0  0  0  0  0  0  0  0  0  0  0  0
    7.3422  -14.1845   20.0655 C   0  0  0  0  0  0  0  0  0  0  0  0
    7.5518  -17.1997   23.4675 C   0  0  0  0  0  0  0  0  0  0  0  0
    6.8453  -16.4080   24.1533 O   0  0  0  0  0  0  0  0  0  0  0  0
    9.6669  -20.7481   24.5951 O   0  0  0  0  0  0  0  0  0  0  0  0
    8.8048  -20.1561   25.4422 C   0  0  0  0  0  0  0  0  0  0  0  0
    8.7422  -18.6378   25.2819 C   0  0  2  0  0  0  0  0  0  0  0  0
    8.0943  -18.3511   24.0386 N   0  0  0  0  0  0  0  0  0  0  0  0
    9.8858  -17.9007   25.7168 C   0  0  0  0  0  0  0  0  0  0  0  0
   10.7600  -17.4870   24.8838 O   0  0  0  0  0  0  0  0  0  0  0  0
   10.1719  -17.5514   27.0670 N   0  0  0  0  0  0  0  0  0  0  0  0
   11.3117  -16.7579   27.4075 C   0  0  1  0  0  0  0  0  0  0  0  0
   11.3106  -15.3094   27.1717 C   0  0  0  0  0  0  0  0  0  0  0  0
   10.1994  -14.5137   27.7287 C   0  0  0  0  0  0  0  0  0  0  0  0
    9.9815  -13.9929   28.9872 C   0  0  0  0  0  0  0  0  0  0  0  0
    8.7900  -13.3291   29.0023 N   0  0  0  0  0  0  0  0  0  0  0  0
    8.2221  -13.4004   27.7837 C   0  0  0  0  0  0  0  0  0  0  0  0
    7.0575  -12.9034   27.2343 C   0  0  0  0  0  0  0  0  0  0  0  0
    6.7571  -13.1332   25.9092 C   0  0  0  0  0  0  0  0  0  0  0  0
    7.5896  -13.8594   25.0834 C   0  0  0  0  0  0  0  0  0  0  0  0
    8.7686  -14.3571   25.6613 C   0  0  0  0  0  0  0  0  0  0  0  0
    9.0741  -14.1289   26.9852 C   0  0  0  0  0  0  0  0  0  0  0  0
   11.5959  -17.0034   28.8702 C   0  0  0  0  0  0  0  0  0  0  0  0
   12.6262  -16.5074   29.4131 O   0  0  0  0  0  0  0  0  0  0  0  0
   10.7547  -17.7662   29.6615 O   0  0  0  0  0  0  0  0  0  0  0  0
  2  3  1  0
  2  1  1  6
  4  5  2  0
  4  3  1  0
  6  5  1  0
  7 12  2  0
  7  6  1  0
  8  7  1  0
  9 10  1  0
  9  8  2  0
 10 11  2  0
 11 12  1  0
 12  4  1  0
 13  2  1  0
 14 13  2  0
 16 15  1  0
 17 16  1  6
 17 18  1  0
 18 13  1  0
 19 17  1  0
 19 21  1  0
 20 19  2  0
 22 23  1  1
 22 33  1  0
 22 21  1  0
 24 23  1  0
 24 32  1  0
 25 24  2  0
 26 25  1  0
 26 27  1  0
 27 28  1  0
 27 32  2  0
 28 29  2  0
 29 30  1  0
 31 30  2  0
 32 31  1  0
 33 35  1  0
 34 33  2  0
M  END
$$$$
