WSW.pdb
     RDKit          3D

 35 38  0  0  1  0  0  0  0  0999 V2000
    7.4185  -17.5369   20.8878 N   0  0  0  0  0  0  0  0  0  0  0  0
    8.2356  -16.8396   21.7732 C   0  0  1  0  0  0  0  0  0  0  0  0
    7.6638  -15.5172   22.1816 C   0  0  0  0  0  0  0  0  0  0  0  0
    7.3023  -14.6178   21.0855 C   0  0  0  0  0  0  0  0  0  0  0  0
    6.0808  -14.3939   20.5192 C   0  0  0  0  0  0  0  0  0  0  0  0
    6.1780  -13.4708   19.5265 N   0  0  0  0  0  0  0  0  0  0  0  0
    7.4675  -13.1066   19.4606 C   0  0  0  0  0  0  0  0  0  0  0  0
    8.1146  -12.1900   18.6207 C   0  0  0  0  0  0  0  0  0  0  0  0
    9.4923  -11.9753   18.7453 C   0  0  0  0  0  0  0  0  0  0  0  0
   10.2058  -12.6725   19.7021 C   0  0  0  0  0  0  0  0  0  0  0  0
    9.5357  -13.5604   20.5042 C   0  0  0  0  0  0  0  0  0  0  0  0
    8.1798  -13.8023   20.4145 C   0  0  0  0  0  0  0  0  0  0  0  0
    8.7776  -17.5986   22.9546 C   0  0  0  0  0  0  0  0  0  0  0  0
    7.8936  -18.0724   23.7231 O   0  0  0  0  0  0  0  0  0  0  0  0
   13.0249  -17.6258   23.3877 O   0  0  0  0  0  0  0  0  0  0  0  0
   12.2683  -18.5716   23.9744 C   0  0  0  0  0  0  0  0  0  0  0  0
   10.8902  -18.0681   24.4015 C   0  0  2  0  0  0  0  0  0  0  0  0
   10.1333  -17.7948   23.2181 N   0  0  0  0  0  0  0  0  0  0  0  0
   10.8496  -17.1975   25.5332 C   0  0  0  0  0  0  0  0  0  0  0  0
   11.2452  -15.9868   25.4487 O   0  0  0  0  0  0  0  0  0  0  0  0
   10.3806  -17.5570   26.8284 N   0  0  0  0  0  0  0  0  0  0  0  0
   10.5342  -16.6808   27.9479 C   0  0  1  0  0  0  0  0  0  0  0  0
    9.4278  -15.8181   28.3784 C   0  0  0  0  0  0  0  0  0  0  0  0
    8.3672  -15.5054   27.4010 C   0  0  0  0  0  0  0  0  0  0  0  0
    7.4369  -16.3021   26.7668 C   0  0  0  0  0  0  0  0  0  0  0  0
    6.6698  -15.5332   25.9416 N   0  0  0  0  0  0  0  0  0  0  0  0
    7.0734  -14.2512   26.0208 C   0  0  0  0  0  0  0  0  0  0  0  0
    6.6526  -13.0724   25.4389 C   0  0  0  0  0  0  0  0  0  0  0  0
    7.2714  -11.8809   25.7494 C   0  0  0  0  0  0  0  0  0  0  0  0
    8.3231  -11.8102   26.6389 C   0  0  0  0  0  0  0  0  0  0  0  0
    8.7368  -13.0202   27.2191 C   0  0  0  0  0  0  0  0  0  0  0  0
    8.1205  -14.2138   26.9131 C   0  0  0  0  0  0  0  0  0  0  0  0
   10.9570  -17.5353   29.1191 C   0  0  0  0  0  0  0  0  0  0  0  0
   11.0151  -18.7944   29.0035 O   0  0  0  0  0  0  0  0  0  0  0  0
   11.2930  -16.9846   30.3436 O   0  0  0  0  0  0  0  0  0  0  0  0
  2  3  1  0
  2  1  1  1
  4  5  2  0
  4  3  1  0
  6  5  1  0
  7 12  2  0
  7  6  1  0
  8  7  1  0
  9 10  1  0
  9  8  2  0
 10 11  2  0
 11 12  1  0
 12  4  1  0
 13  2  1  0
 14 13  2  0
 16 15  1  0
 17 16  1  6
 17 18  1  0
 18 13  1  0
 19 17  1  0
 19 21  1  0
 20 19  2  0
 22 23  1  1
 22 33  1  0
 22 21  1  0
 24 23  1  0
 24 32  1  0
 25 24  2  0
 26 25  1  0
 26 27  1  0
 27 28  1  0
 27 32  2  0
 28 29  2  0
 29 30  1  0
 31 30  2  0
 32 31  1  0
 33 35  1  0
 34 33  2  0
M  END
$$$$
