PMP.pdb
     RDKit          3D

 23 24  0  0  1  0  0  0  0  0999 V2000
    7.8286  -15.7286   20.6494 N   0  0  0  0  0  0  0  0  0  0  0  0
    7.3734  -15.5583   19.3050 C   0  0  0  0  0  0  0  0  0  0  0  0
    7.8056  -14.1915   18.8258 C   0  0  0  0  0  0  0  0  0  0  0  0
    8.1788  -13.5106   20.1474 C   0  0  0  0  0  0  0  0  0  0  0  0
    8.7565  -14.6595   20.9042 C   0  0  1  0  0  0  0  0  0  0  0  0
    8.9661  -14.4087   22.3398 C   0  0  0  0  0  0  0  0  0  0  0  0
    9.8416  -13.5569   22.6715 O   0  0  0  0  0  0  0  0  0  0  0  0
    5.3433  -10.8552   26.5967 C   0  0  0  0  0  0  0  0  0  0  0  0
    5.7309  -12.6166   26.7563 S   0  0  0  0  0  0  0  0  0  0  0  0
    6.3527  -13.2088   25.1392 C   0  0  0  0  0  0  0  0  0  0  0  0
    6.9759  -14.5601   25.3948 C   0  0  0  0  0  0  0  0  0  0  0  0
    8.3645  -14.6644   24.7724 C   0  0  2  0  0  0  0  0  0  0  0  0
    8.2701  -15.0382   23.4050 N   0  0  0  0  0  0  0  0  0  0  0  0
    9.1961  -15.5249   25.6364 C   0  0  0  0  0  0  0  0  0  0  0  0
    9.3005  -16.7279   25.1891 O   0  0  0  0  0  0  0  0  0  0  0  0
    9.8364  -15.1423   26.8333 N   0  0  0  0  0  0  0  0  0  0  0  0
    9.7226  -13.8915   27.5556 C   0  0  0  0  0  0  0  0  0  0  0  0
   10.3285  -14.1744   28.9217 C   0  0  0  0  0  0  0  0  0  0  0  0
   11.4420  -15.1723   28.5644 C   0  0  0  0  0  0  0  0  0  0  0  0
   10.7531  -16.0293   27.5427 C   0  0  1  0  0  0  0  0  0  0  0  0
    9.9803  -17.1005   28.2436 C   0  0  0  0  0  0  0  0  0  0  0  0
    8.7287  -17.0622   28.3165 O   0  0  0  0  0  0  0  0  0  0  0  0
   10.6285  -18.1743   28.8372 O   0  0  0  0  0  0  0  0  0  0  0  0
  2  3  1  0
  2  1  1  0
  4  3  1  0
  5  6  1  1
  5  4  1  0
  5  1  1  0
  6  7  2  0
  9  8  1  0
  9 10  1  0
 10 11  1  0
 12 11  1  1
 12 14  1  0
 13 12  1  0
 13  6  1  0
 14 15  2  0
 14 16  1  0
 16 17  1  0
 16 20  1  0
 18 17  1  0
 18 19  1  0
 19 20  1  0
 20 21  1  1
 21 22  2  0
 21 23  1  0
M  END
$$$$
