PMP.pdb
     RDKit          3D

 23 24  0  0  1  0  0  0  0  0999 V2000
    8.2558  -17.2232   20.9413 N   0  0  0  0  0  0  0  0  0  0  0  0
    7.9715  -17.4258   19.5551 C   0  0  0  0  0  0  0  0  0  0  0  0
    8.5799  -16.2846   18.7728 C   0  0  0  0  0  0  0  0  0  0  0  0
    8.8650  -15.2711   19.8867 C   0  0  0  0  0  0  0  0  0  0  0  0
    9.2450  -16.1810   21.0066 C   0  0  1  0  0  0  0  0  0  0  0  0
    9.3154  -15.5357   22.3280 C   0  0  0  0  0  0  0  0  0  0  0  0
   10.3016  -14.7790   22.5668 O   0  0  0  0  0  0  0  0  0  0  0  0
    6.3888  -11.0429   26.4487 C   0  0  0  0  0  0  0  0  0  0  0  0
    5.6922  -12.7124   26.3742 S   0  0  0  0  0  0  0  0  0  0  0  0
    7.0782  -13.9076   26.4282 C   0  0  0  0  0  0  0  0  0  0  0  0
    7.0345  -14.6653   25.1229 C   0  0  0  0  0  0  0  0  0  0  0  0
    8.4350  -15.0147   24.6298 C   0  0  2  0  0  0  0  0  0  0  0  0
    8.3695  -15.6807   23.3766 N   0  0  0  0  0  0  0  0  0  0  0  0
    9.1463  -15.7180   25.7151 C   0  0  0  0  0  0  0  0  0  0  0  0
    9.0970  -16.9991   25.5949 O   0  0  0  0  0  0  0  0  0  0  0  0
    9.8262  -15.1207   26.7966 N   0  0  0  0  0  0  0  0  0  0  0  0
    9.7102  -13.7654   27.2956 C   0  0  0  0  0  0  0  0  0  0  0  0
   10.3803  -13.7944   28.6606 C   0  0  0  0  0  0  0  0  0  0  0  0
   11.5037  -14.8185   28.4308 C   0  0  0  0  0  0  0  0  0  0  0  0
   10.7950  -15.8532   27.6062 C   0  0  1  0  0  0  0  0  0  0  0  0
   10.0808  -16.7998   28.5171 C   0  0  0  0  0  0  0  0  0  0  0  0
    8.8306  -16.7917   28.6183 O   0  0  0  0  0  0  0  0  0  0  0  0
   10.7838  -17.7202   29.2815 O   0  0  0  0  0  0  0  0  0  0  0  0
  2  3  1  0
  2  1  1  0
  4  3  1  0
  5  6  1  1
  5  4  1  0
  5  1  1  0
  6  7  2  0
  9  8  1  0
  9 10  1  0
 10 11  1  0
 12 11  1  1
 12 14  1  0
 13 12  1  0
 13  6  1  0
 14 15  2  0
 14 16  1  0
 16 17  1  0
 16 20  1  0
 18 17  1  0
 18 19  1  0
 19 20  1  0
 20 21  1  1
 21 22  2  0
 21 23  1  0
M  END
$$$$
