PMP.pdb
     RDKit          3D

 23 24  0  0  1  0  0  0  0  0999 V2000
    8.4038  -16.9511   21.0100 N   0  0  0  0  0  0  0  0  0  0  0  0
    7.8917  -17.1174   19.6857 C   0  0  0  0  0  0  0  0  0  0  0  0
    8.0078  -15.7959   18.9612 C   0  0  0  0  0  0  0  0  0  0  0  0
    8.2560  -14.8317   20.1266 C   0  0  0  0  0  0  0  0  0  0  0  0
    9.0850  -15.6845   21.0277 C   0  0  1  0  0  0  0  0  0  0  0  0
    9.2687  -15.1482   22.3865 C   0  0  0  0  0  0  0  0  0  0  0  0
   10.3530  -14.5490   22.6462 O   0  0  0  0  0  0  0  0  0  0  0  0
    5.9258  -10.9769   26.4895 C   0  0  0  0  0  0  0  0  0  0  0  0
    5.7224  -12.6984   27.0122 S   0  0  0  0  0  0  0  0  0  0  0  0
    7.2830  -13.5870   26.6557 C   0  0  0  0  0  0  0  0  0  0  0  0
    7.1727  -14.0819   25.2334 C   0  0  0  0  0  0  0  0  0  0  0  0
    8.4977  -14.6465   24.7314 C   0  0  2  0  0  0  0  0  0  0  0  0
    8.3330  -15.2381   23.4503 N   0  0  0  0  0  0  0  0  0  0  0  0
    9.0648  -15.5069   25.7882 C   0  0  0  0  0  0  0  0  0  0  0  0
    8.8241  -16.7571   25.5955 O   0  0  0  0  0  0  0  0  0  0  0  0
    9.7992  -15.0788   26.9135 N   0  0  0  0  0  0  0  0  0  0  0  0
    9.7762  -13.7850   27.5651 C   0  0  0  0  0  0  0  0  0  0  0  0
   10.4669  -14.0097   28.9014 C   0  0  0  0  0  0  0  0  0  0  0  0
   11.5203  -15.0661   28.5300 C   0  0  0  0  0  0  0  0  0  0  0  0
   10.7346  -15.9556   27.6111 C   0  0  1  0  0  0  0  0  0  0  0  0
    9.9791  -16.9558   28.4263 C   0  0  0  0  0  0  0  0  0  0  0  0
    8.7331  -16.8879   28.5537 O   0  0  0  0  0  0  0  0  0  0  0  0
   10.6375  -17.9944   29.0692 O   0  0  0  0  0  0  0  0  0  0  0  0
  2  3  1  0
  2  1  1  0
  4  3  1  0
  5  6  1  1
  5  4  1  0
  5  1  1  0
  6  7  2  0
  9  8  1  0
  9 10  1  0
 10 11  1  0
 12 11  1  1
 12 14  1  0
 13 12  1  0
 13  6  1  0
 14 15  2  0
 14 16  1  0
 16 17  1  0
 16 20  1  0
 18 17  1  0
 18 19  1  0
 19 20  1  0
 20 21  1  1
 21 22  2  0
 21 23  1  0
M  END
$$$$
