PMP.pdb
     RDKit          3D

 23 24  0  0  1  0  0  0  0  0999 V2000
    7.9523  -16.4920   21.0091 N   0  0  0  0  0  0  0  0  0  0  0  0
    7.5428  -16.5123   19.6396 C   0  0  0  0  0  0  0  0  0  0  0  0
    7.9527  -15.2050   19.0010 C   0  0  0  0  0  0  0  0  0  0  0  0
    8.2564  -14.3469   20.2342 C   0  0  0  0  0  0  0  0  0  0  0  0
    8.8385  -15.3684   21.1531 C   0  0  1  0  0  0  0  0  0  0  0  0
    8.9870  -14.9272   22.5499 C   0  0  0  0  0  0  0  0  0  0  0  0
    9.8569  -14.0434   22.8036 O   0  0  0  0  0  0  0  0  0  0  0  0
    6.1918  -11.0088   26.5275 C   0  0  0  0  0  0  0  0  0  0  0  0
    5.5663  -12.7073   26.5699 S   0  0  0  0  0  0  0  0  0  0  0  0
    6.2143  -13.5866   25.1004 C   0  0  0  0  0  0  0  0  0  0  0  0
    6.9639  -14.7886   25.6230 C   0  0  0  0  0  0  0  0  0  0  0  0
    8.3441  -14.9101   24.9853 C   0  0  2  0  0  0  0  0  0  0  0  0
    8.2370  -15.4032   23.6573 N   0  0  0  0  0  0  0  0  0  0  0  0
    9.2136  -15.6706   25.9040 C   0  0  0  0  0  0  0  0  0  0  0  0
    9.3912  -16.8892   25.5278 O   0  0  0  0  0  0  0  0  0  0  0  0
    9.8178  -15.1840   27.0817 N   0  0  0  0  0  0  0  0  0  0  0  0
    9.6032  -13.9144   27.7459 C   0  0  0  0  0  0  0  0  0  0  0  0
   10.2251  -14.0854   29.1233 C   0  0  0  0  0  0  0  0  0  0  0  0
   11.4153  -15.0074   28.8117 C   0  0  0  0  0  0  0  0  0  0  0  0
   10.7996  -15.9622   27.8308 C   0  0  1  0  0  0  0  0  0  0  0  0
   10.1117  -17.0579   28.5806 C   0  0  0  0  0  0  0  0  0  0  0  0
    8.8608  -17.1138   28.6547 O   0  0  0  0  0  0  0  0  0  0  0  0
   10.8407  -18.0506   29.2197 O   0  0  0  0  0  0  0  0  0  0  0  0
  2  3  1  0
  2  1  1  0
  4  3  1  0
  5  6  1  1
  5  4  1  0
  5  1  1  0
  6  7  2  0
  9  8  1  0
  9 10  1  0
 10 11  1  0
 12 11  1  1
 12 14  1  0
 13 12  1  0
 13  6  1  0
 14 15  2  0
 14 16  1  0
 16 17  1  0
 16 20  1  0
 18 17  1  0
 18 19  1  0
 19 20  1  0
 20 21  1  1
 21 22  2  0
 21 23  1  0
M  END
$$$$
