PMP.pdb
     RDKit          3D

 23 24  0  0  1  0  0  0  0  0999 V2000
   10.0346  -16.4268   20.1471 N   0  0  0  0  0  0  0  0  0  0  0  0
   10.0894  -17.5365   19.2476 C   0  0  0  0  0  0  0  0  0  0  0  0
    9.3631  -18.7001   19.8827 C   0  0  0  0  0  0  0  0  0  0  0  0
    9.2640  -18.2369   21.3404 C   0  0  0  0  0  0  0  0  0  0  0  0
    9.0704  -16.7687   21.1581 C   0  0  1  0  0  0  0  0  0  0  0  0
    9.2166  -15.9707   22.3868 C   0  0  0  0  0  0  0  0  0  0  0  0
   10.3794  -15.5920   22.7133 O   0  0  0  0  0  0  0  0  0  0  0  0
    6.0041  -11.0572   27.0062 C   0  0  0  0  0  0  0  0  0  0  0  0
    5.6078  -12.7904   26.6643 S   0  0  0  0  0  0  0  0  0  0  0  0
    7.1768  -13.6776   26.3428 C   0  0  0  0  0  0  0  0  0  0  0  0
    7.0295  -14.3187   24.9837 C   0  0  0  0  0  0  0  0  0  0  0  0
    8.3399  -14.9401   24.5115 C   0  0  2  0  0  0  0  0  0  0  0  0
    8.1638  -15.5774   23.2541 N   0  0  0  0  0  0  0  0  0  0  0  0
    8.8781  -15.7733   25.6045 C   0  0  0  0  0  0  0  0  0  0  0  0
    8.5137  -17.0053   25.5177 O   0  0  0  0  0  0  0  0  0  0  0  0
    9.7048  -15.3383   26.6610 N   0  0  0  0  0  0  0  0  0  0  0  0
    9.8614  -13.9983   27.1891 C   0  0  0  0  0  0  0  0  0  0  0  0
   10.5771  -14.1847   28.5181 C   0  0  0  0  0  0  0  0  0  0  0  0
   11.4826  -15.3894   28.2142 C   0  0  0  0  0  0  0  0  0  0  0  0
   10.5597  -16.2559   27.4079 C   0  0  1  0  0  0  0  0  0  0  0  0
    9.7273  -17.0809   28.3365 C   0  0  0  0  0  0  0  0  0  0  0  0
    8.4957  -16.8799   28.4636 O   0  0  0  0  0  0  0  0  0  0  0  0
   10.2958  -18.0987   29.0891 O   0  0  0  0  0  0  0  0  0  0  0  0
  2  3  1  0
  2  1  1  0
  4  3  1  0
  5  6  1  1
  5  4  1  0
  5  1  1  0
  6  7  2  0
  9  8  1  0
  9 10  1  0
 10 11  1  0
 12 11  1  1
 12 14  1  0
 13 12  1  0
 13  6  1  0
 14 15  2  0
 14 16  1  0
 16 17  1  0
 16 20  1  0
 18 17  1  0
 18 19  1  0
 19 20  1  0
 20 21  1  1
 21 22  2  0
 21 23  1  0
M  END
$$$$
