IMC.pdb
     RDKit          3D

 23 22  0  0  1  0  0  0  0  0999 V2000
    7.1618  -18.7892   18.4589 C   0  0  0  0  0  0  0  0  0  0  0  0
    7.4643  -17.3831   18.8388 C   0  0  0  0  0  0  0  0  0  0  0  0
    7.9070  -17.1648   20.2426 C   0  0  2  0  0  0  0  0  0  0  0  0
    6.9810  -17.8282   21.2033 C   0  0  0  0  0  0  0  0  0  0  0  0
    8.1993  -15.7165   20.5957 C   0  0  2  0  0  0  0  0  0  0  0  0
    9.1911  -15.2876   19.6057 N   0  0  0  0  0  0  0  0  0  0  0  0
    8.7581  -15.5633   21.9352 C   0  0  0  0  0  0  0  0  0  0  0  0
    9.9125  -15.8686   22.2990 O   0  0  0  0  0  0  0  0  0  0  0  0
    6.9177  -10.8235   25.9708 C   0  0  0  0  0  0  0  0  0  0  0  0
    6.4640  -12.2861   26.9036 S   0  0  0  0  0  0  0  0  0  0  0  0
    7.4719  -13.7490   26.4463 C   0  0  0  0  0  0  0  0  0  0  0  0
    7.3711  -13.8700   24.9688 C   0  0  0  0  0  0  0  0  0  0  0  0
    8.2639  -14.9109   24.3358 C   0  0  2  0  0  0  0  0  0  0  0  0
    7.9081  -15.0057   22.9389 N   0  0  0  0  0  0  0  0  0  0  0  0
    8.3470  -16.1569   25.0636 C   0  0  0  0  0  0  0  0  0  0  0  0
    7.3802  -16.9522   25.2451 O   0  0  0  0  0  0  0  0  0  0  0  0
    9.5801  -16.5957   25.6522 N   0  0  0  0  0  0  0  0  0  0  0  0
    9.7549  -17.8891   26.2403 C   0  0  1  0  0  0  0  0  0  0  0  0
   10.7631  -18.7413   25.4512 C   0  0  0  0  0  0  0  0  0  0  0  0
   12.3227  -17.8036   25.3049 S   0  0  0  0  0  0  0  0  0  0  0  0
   10.1265  -17.7692   27.6456 C   0  0  0  0  0  0  0  0  0  0  0  0
   10.2610  -18.8974   28.4796 O   0  0  0  0  0  0  0  0  0  0  0  0
   10.3385  -16.6491   28.1533 O   0  0  0  0  0  0  0  0  0  0  0  0
  2  1  1  0
  3  2  1  0
  3  4  1  1
  5  3  1  0
  5  6  1  6
  7  8  2  0
  7  5  1  0
  9 10  1  0
 10 11  1  0
 11 12  1  0
 13 12  1  1
 13 14  1  0
 14  7  1  0
 15 17  1  0
 15 13  1  0
 16 15  2  0
 18 21  1  0
 18 17  1  0
 18 19  1  6
 20 19  1  0
 21 22  1  0
 23 21  2  0
M  END
$$$$
