IMC.pdb
     RDKit          3D

 23 22  0  0  1  0  0  0  0  0999 V2000
    4.0975  -20.3638   22.0023 C   0  0  0  0  0  0  0  0  0  0  0  0
    5.1075  -20.0885   23.0593 C   0  0  0  0  0  0  0  0  0  0  0  0
    6.0464  -18.9656   22.7912 C   0  0  2  0  0  0  0  0  0  0  0  0
    6.5483  -19.0130   21.3890 C   0  0  0  0  0  0  0  0  0  0  0  0
    7.1542  -18.8083   23.8187 C   0  0  2  0  0  0  0  0  0  0  0  0
    6.4535  -18.6115   25.0906 N   0  0  0  0  0  0  0  0  0  0  0  0
    8.0089  -17.6549   23.5559 C   0  0  0  0  0  0  0  0  0  0  0  0
    8.8587  -17.5504   22.6475 O   0  0  0  0  0  0  0  0  0  0  0  0
    5.8635  -12.9020   27.1019 C   0  0  0  0  0  0  0  0  0  0  0  0
    6.0992  -12.4089   25.3941 S   0  0  0  0  0  0  0  0  0  0  0  0
    6.7784  -13.7641   24.3611 C   0  0  0  0  0  0  0  0  0  0  0  0
    8.0097  -14.2275   25.0517 C   0  0  0  0  0  0  0  0  0  0  0  0
    8.7380  -15.3735   24.3905 C   0  0  2  0  0  0  0  0  0  0  0  0
    7.8651  -16.5243   24.4171 N   0  0  0  0  0  0  0  0  0  0  0  0
   10.0889  -15.5809   24.8609 C   0  0  0  0  0  0  0  0  0  0  0  0
   11.1023  -14.9473   24.4468 O   0  0  0  0  0  0  0  0  0  0  0  0
   10.3852  -16.5569   25.8704 N   0  0  0  0  0  0  0  0  0  0  0  0
   10.8578  -16.2176   27.1784 C   0  0  1  0  0  0  0  0  0  0  0  0
    9.8829  -15.2796   27.9100 C   0  0  0  0  0  0  0  0  0  0  0  0
   10.8560  -14.0480   28.8424 S   0  0  0  0  0  0  0  0  0  0  0  0
   11.1383  -17.4215   27.9524 C   0  0  0  0  0  0  0  0  0  0  0  0
   12.1563  -17.4608   28.9264 O   0  0  0  0  0  0  0  0  0  0  0  0
   10.4748  -18.4627   27.7704 O   0  0  0  0  0  0  0  0  0  0  0  0
  2  1  1  0
  3  2  1  0
  3  4  1  6
  5  3  1  0
  5  6  1  1
  7  8  2  0
  7  5  1  0
  9 10  1  0
 10 11  1  0
 11 12  1  0
 13 12  1  1
 13 14  1  0
 14  7  1  0
 15 17  1  0
 15 13  1  0
 16 15  2  0
 18 21  1  0
 18 17  1  0
 18 19  1  1
 20 19  1  0
 21 22  1  0
 23 21  2  0
M  END
$$$$
