IMC.pdb
     RDKit          3D

 23 22  0  0  1  0  0  0  0  0999 V2000
    6.3450  -18.2656   18.1968 C   0  0  0  0  0  0  0  0  0  0  0  0
    6.7683  -16.8881   18.5664 C   0  0  0  0  0  0  0  0  0  0  0  0
    7.3879  -16.7319   19.9102 C   0  0  2  0  0  0  0  0  0  0  0  0
    6.5999  -17.4541   20.9484 C   0  0  0  0  0  0  0  0  0  0  0  0
    7.7125  -15.2985   20.2943 C   0  0  2  0  0  0  0  0  0  0  0  0
    8.5216  -14.7920   19.1824 N   0  0  0  0  0  0  0  0  0  0  0  0
    8.4814  -15.2053   21.5313 C   0  0  0  0  0  0  0  0  0  0  0  0
    9.6482  -15.6093   21.7140 O   0  0  0  0  0  0  0  0  0  0  0  0
    5.3983  -12.0660   26.6221 C   0  0  0  0  0  0  0  0  0  0  0  0
    7.1645  -11.7903   26.7615 S   0  0  0  0  0  0  0  0  0  0  0  0
    8.1463  -13.2050   26.1295 C   0  0  0  0  0  0  0  0  0  0  0  0
    7.7145  -13.4069   24.7221 C   0  0  0  0  0  0  0  0  0  0  0  0
    8.4390  -14.4950   23.9658 C   0  0  2  0  0  0  0  0  0  0  0  0
    7.8455  -14.5885   22.6520 N   0  0  0  0  0  0  0  0  0  0  0  0
    8.5906  -15.7356   24.6919 C   0  0  0  0  0  0  0  0  0  0  0  0
    7.6444  -16.5259   24.9752 O   0  0  0  0  0  0  0  0  0  0  0  0
    9.8748  -16.1741   25.1586 N   0  0  0  0  0  0  0  0  0  0  0  0
   10.0934  -17.4430   25.7844 C   0  0  1  0  0  0  0  0  0  0  0  0
   11.2367  -18.2202   25.1106 C   0  0  0  0  0  0  0  0  0  0  0  0
   10.7892  -18.5079   23.3642 S   0  0  0  0  0  0  0  0  0  0  0  0
   10.3173  -17.2786   27.2163 C   0  0  0  0  0  0  0  0  0  0  0  0
   10.5776  -18.3767   28.0606 O   0  0  0  0  0  0  0  0  0  0  0  0
   10.2844  -16.1456   27.7384 O   0  0  0  0  0  0  0  0  0  0  0  0
  2  1  1  0
  3  2  1  0
  3  4  1  1
  5  3  1  0
  5  6  1  6
  7  8  2  0
  7  5  1  0
  9 10  1  0
 10 11  1  0
 11 12  1  0
 13 12  1  1
 13 14  1  0
 14  7  1  0
 15 17  1  0
 15 13  1  0
 16 15  2  0
 18 21  1  0
 18 17  1  0
 18 19  1  6
 20 19  1  0
 21 22  1  0
 23 21  2  0
M  END
$$$$
