IMC.pdb
     RDKit          3D

 23 22  0  0  1  0  0  0  0  0999 V2000
    7.9034  -22.4120   23.4953 C   0  0  0  0  0  0  0  0  0  0  0  0
    7.2802  -21.2145   24.1205 C   0  0  0  0  0  0  0  0  0  0  0  0
    6.1208  -20.6264   23.3965 C   0  0  2  0  0  0  0  0  0  0  0  0
    6.4378  -20.4269   21.9543 C   0  0  0  0  0  0  0  0  0  0  0  0
    5.5231  -19.3944   24.0543 C   0  0  2  0  0  0  0  0  0  0  0  0
    4.2413  -19.1962   23.3721 N   0  0  0  0  0  0  0  0  0  0  0  0
    6.3500  -18.2044   23.8815 C   0  0  0  0  0  0  0  0  0  0  0  0
    6.4156  -17.4856   22.8630 O   0  0  0  0  0  0  0  0  0  0  0  0
    9.5375  -12.6783   28.4597 C   0  0  0  0  0  0  0  0  0  0  0  0
    8.6668  -14.2135   28.1436 S   0  0  0  0  0  0  0  0  0  0  0  0
    8.9275  -14.8276   26.4349 C   0  0  0  0  0  0  0  0  0  0  0  0
    8.0726  -16.0354   26.2989 C   0  0  0  0  0  0  0  0  0  0  0  0
    8.0970  -16.7045   24.9452 C   0  0  2  0  0  0  0  0  0  0  0  0
    7.1691  -17.8110   24.9839 N   0  0  0  0  0  0  0  0  0  0  0  0
    9.4199  -16.9929   24.4391 C   0  0  0  0  0  0  0  0  0  0  0  0
   10.1278  -17.9801   24.7917 O   0  0  0  0  0  0  0  0  0  0  0  0
   10.0453  -16.1473   23.4628 N   0  0  0  0  0  0  0  0  0  0  0  0
   11.3112  -16.4412   22.8625 C   0  0  1  0  0  0  0  0  0  0  0  0
   11.4990  -15.6900   21.5337 C   0  0  0  0  0  0  0  0  0  0  0  0
   10.1159  -16.1242   20.4240 S   0  0  0  0  0  0  0  0  0  0  0  0
   12.3983  -16.1731   23.7973 C   0  0  0  0  0  0  0  0  0  0  0  0
   13.7458  -16.4138   23.4617 O   0  0  0  0  0  0  0  0  0  0  0  0
   12.1605  -15.7167   24.9341 O   0  0  0  0  0  0  0  0  0  0  0  0
  2  1  1  0
  3  2  1  0
  3  4  1  6
  5  3  1  0
  5  6  1  6
  7  8  2  0
  7  5  1  0
  9 10  1  0
 10 11  1  0
 11 12  1  0
 13 12  1  1
 13 14  1  0
 14  7  1  0
 15 17  1  0
 15 13  1  0
 16 15  2  0
 18 21  1  0
 18 17  1  0
 18 19  1  6
 20 19  1  0
 21 22  1  0
 23 21  2  0
M  END
$$$$
