IMC.pdb
     RDKit          3D

 23 22  0  0  1  0  0  0  0  0999 V2000
    7.5943  -11.8966   19.6579 C   0  0  0  0  0  0  0  0  0  0  0  0
    7.3642  -13.1671   20.3969 C   0  0  0  0  0  0  0  0  0  0  0  0
    8.4031  -14.2193   20.2296 C   0  0  2  0  0  0  0  0  0  0  0  0
    8.6605  -14.4905   18.7872 C   0  0  0  0  0  0  0  0  0  0  0  0
    8.1633  -15.4799   21.0425 C   0  0  2  0  0  0  0  0  0  0  0  0
    6.7046  -15.5970   21.1214 N   0  0  0  0  0  0  0  0  0  0  0  0
    8.7137  -15.3956   22.3915 C   0  0  0  0  0  0  0  0  0  0  0  0
    9.9224  -15.3965   22.7032 O   0  0  0  0  0  0  0  0  0  0  0  0
    7.2473  -11.5528   27.6865 C   0  0  0  0  0  0  0  0  0  0  0  0
    6.1311  -12.0696   26.3818 S   0  0  0  0  0  0  0  0  0  0  0  0
    6.9860  -13.0137   25.0617 C   0  0  0  0  0  0  0  0  0  0  0  0
    7.1581  -14.3919   25.5898 C   0  0  0  0  0  0  0  0  0  0  0  0
    8.1683  -15.2486   24.8641 C   0  0  2  0  0  0  0  0  0  0  0  0
    7.7845  -15.2988   23.4723 N   0  0  0  0  0  0  0  0  0  0  0  0
    8.4504  -16.5163   25.4988 C   0  0  0  0  0  0  0  0  0  0  0  0
    7.5987  -17.4311   25.6932 O   0  0  0  0  0  0  0  0  0  0  0  0
    9.7675  -16.8376   25.9693 N   0  0  0  0  0  0  0  0  0  0  0  0
   10.1767  -18.1645   26.3175 C   0  0  1  0  0  0  0  0  0  0  0  0
   10.7575  -18.9166   25.1082 C   0  0  0  0  0  0  0  0  0  0  0  0
   11.3140  -20.5637   25.6650 S   0  0  0  0  0  0  0  0  0  0  0  0
   11.1079  -18.1378   27.4398 C   0  0  0  0  0  0  0  0  0  0  0  0
   11.1411  -19.1642   28.4051 O   0  0  0  0  0  0  0  0  0  0  0  0
   11.9112  -17.1925   27.5763 O   0  0  0  0  0  0  0  0  0  0  0  0
  2  1  1  0
  3  2  1  0
  3  4  1  6
  5  3  1  0
  5  6  1  1
  7  8  2  0
  7  5  1  0
  9 10  1  0
 10 11  1  0
 11 12  1  0
 13 12  1  1
 13 14  1  0
 14  7  1  0
 15 17  1  0
 15 13  1  0
 16 15  2  0
 18 21  1  0
 18 17  1  0
 18 19  1  6
 20 19  1  0
 21 22  1  0
 23 21  2  0
M  END
$$$$
