IMC.pdb
     RDKit          3D

 23 22  0  0  1  0  0  0  0  0999 V2000
    7.0173  -13.1127   18.3908 C   0  0  0  0  0  0  0  0  0  0  0  0
    7.6659  -14.2186   19.1455 C   0  0  0  0  0  0  0  0  0  0  0  0
    7.9906  -13.9368   20.5701 C   0  0  2  0  0  0  0  0  0  0  0  0
    8.8719  -12.7412   20.6900 C   0  0  0  0  0  0  0  0  0  0  0  0
    8.4984  -15.1359   21.3523 C   0  0  2  0  0  0  0  0  0  0  0  0
    7.3940  -16.0983   21.3117 N   0  0  0  0  0  0  0  0  0  0  0  0
    8.8065  -14.8145   22.7422 C   0  0  0  0  0  0  0  0  0  0  0  0
    9.8202  -14.2181   23.1605 O   0  0  0  0  0  0  0  0  0  0  0  0
    6.2950  -10.2627   26.6580 C   0  0  0  0  0  0  0  0  0  0  0  0
    6.5895  -12.0141   26.9054 S   0  0  0  0  0  0  0  0  0  0  0  0
    6.6046  -12.9514   25.3287 C   0  0  0  0  0  0  0  0  0  0  0  0
    6.8008  -14.3764   25.7013 C   0  0  0  0  0  0  0  0  0  0  0  0
    8.0468  -15.0300   25.1524 C   0  0  2  0  0  0  0  0  0  0  0  0
    7.8580  -15.2154   23.7323 N   0  0  0  0  0  0  0  0  0  0  0  0
    8.5001  -16.1835   25.8962 C   0  0  0  0  0  0  0  0  0  0  0  0
    8.6535  -16.2179   27.1513 O   0  0  0  0  0  0  0  0  0  0  0  0
    8.8185  -17.4177   25.2368 N   0  0  0  0  0  0  0  0  0  0  0  0
    9.2401  -18.5956   25.9326 C   0  0  1  0  0  0  0  0  0  0  0  0
    8.2535  -19.7583   25.7327 C   0  0  0  0  0  0  0  0  0  0  0  0
    6.6861  -19.3363   26.5684 S   0  0  0  0  0  0  0  0  0  0  0  0
   10.5982  -18.9624   25.5473 C   0  0  0  0  0  0  0  0  0  0  0  0
   11.2203  -20.1306   26.0316 O   0  0  0  0  0  0  0  0  0  0  0  0
   11.2538  -18.2416   24.7674 O   0  0  0  0  0  0  0  0  0  0  0  0
  2  1  1  0
  3  2  1  0
  3  4  1  6
  5  3  1  0
  5  6  1  1
  7  8  2  0
  7  5  1  0
  9 10  1  0
 10 11  1  0
 11 12  1  0
 13 12  1  1
 13 14  1  0
 14  7  1  0
 15 17  1  0
 15 13  1  0
 16 15  2  0
 18 21  1  0
 18 17  1  0
 18 19  1  6
 20 19  1  0
 21 22  1  0
 23 21  2  0
M  END
$$$$
