IMC.pdb
     RDKit          3D

 23 22  0  0  1  0  0  0  0  0999 V2000
    6.6015  -18.5604   18.2858 C   0  0  0  0  0  0  0  0  0  0  0  0
    6.9841  -17.1626   18.6218 C   0  0  0  0  0  0  0  0  0  0  0  0
    7.5161  -16.9411   19.9937 C   0  0  2  0  0  0  0  0  0  0  0  0
    6.6707  -17.6273   21.0110 C   0  0  0  0  0  0  0  0  0  0  0  0
    7.8023  -15.4886   20.3343 C   0  0  2  0  0  0  0  0  0  0  0  0
    8.6851  -15.0242   19.2607 N   0  0  0  0  0  0  0  0  0  0  0  0
    8.4803  -15.3321   21.6172 C   0  0  0  0  0  0  0  0  0  0  0  0
    9.6552  -15.6596   21.8824 O   0  0  0  0  0  0  0  0  0  0  0  0
    5.6436  -11.3326   26.4247 C   0  0  0  0  0  0  0  0  0  0  0  0
    7.2908  -11.9676   26.7391 S   0  0  0  0  0  0  0  0  0  0  0  0
    7.4570  -13.7378   26.2880 C   0  0  0  0  0  0  0  0  0  0  0  0
    7.2272  -13.8100   24.8217 C   0  0  0  0  0  0  0  0  0  0  0  0
    8.2004  -14.6685   24.0491 C   0  0  2  0  0  0  0  0  0  0  0  0
    7.7345  -14.7428   22.6837 N   0  0  0  0  0  0  0  0  0  0  0  0
    8.5323  -15.9240   24.6838 C   0  0  0  0  0  0  0  0  0  0  0  0
    7.7409  -16.9036   24.8027 O   0  0  0  0  0  0  0  0  0  0  0  0
    9.8333  -16.1554   25.2435 N   0  0  0  0  0  0  0  0  0  0  0  0
   10.2394  -17.4112   25.7979 C   0  0  1  0  0  0  0  0  0  0  0  0
   11.5252  -17.9358   25.1368 C   0  0  0  0  0  0  0  0  0  0  0  0
   12.0761  -19.4217   26.0432 S   0  0  0  0  0  0  0  0  0  0  0  0
   10.3734  -17.3145   27.2470 C   0  0  0  0  0  0  0  0  0  0  0  0
   10.3089  -18.4506   28.0787 O   0  0  0  0  0  0  0  0  0  0  0  0
   10.5515  -16.2081   27.7961 O   0  0  0  0  0  0  0  0  0  0  0  0
  2  1  1  0
  3  2  1  0
  3  4  1  1
  5  3  1  0
  5  6  1  6
  7  8  2  0
  7  5  1  0
  9 10  1  0
 10 11  1  0
 11 12  1  0
 13 12  1  1
 13 14  1  0
 14  7  1  0
 15 17  1  0
 15 13  1  0
 16 15  2  0
 18 21  1  0
 18 17  1  0
 18 19  1  6
 20 19  1  0
 21 22  1  0
 23 21  2  0
M  END
$$$$
