IMC.pdb
     RDKit          3D

 23 22  0  0  1  0  0  0  0  0999 V2000
    6.7254  -18.6374   18.2348 C   0  0  0  0  0  0  0  0  0  0  0  0
    6.9765  -17.2629   18.7454 C   0  0  0  0  0  0  0  0  0  0  0  0
    7.4918  -17.1656   20.1380 C   0  0  2  0  0  0  0  0  0  0  0  0
    6.7727  -18.1088   21.0401 C   0  0  0  0  0  0  0  0  0  0  0  0
    7.5669  -15.7514   20.6874 C   0  0  2  0  0  0  0  0  0  0  0  0
    8.2814  -14.9922   19.6575 N   0  0  0  0  0  0  0  0  0  0  0  0
    8.3051  -15.6718   21.9439 C   0  0  0  0  0  0  0  0  0  0  0  0
    9.5403  -15.7779   22.0888 O   0  0  0  0  0  0  0  0  0  0  0  0
    6.5687  -10.5353   26.3682 C   0  0  0  0  0  0  0  0  0  0  0  0
    6.4550  -12.3230   26.4474 S   0  0  0  0  0  0  0  0  0  0  0  0
    7.4293  -13.1460   25.1289 C   0  0  0  0  0  0  0  0  0  0  0  0
    7.2670  -14.6062   25.3508 C   0  0  0  0  0  0  0  0  0  0  0  0
    8.1048  -15.4989   24.4663 C   0  0  2  0  0  0  0  0  0  0  0  0
    7.5481  -15.4470   23.1343 N   0  0  0  0  0  0  0  0  0  0  0  0
    8.3580  -16.8157   25.0058 C   0  0  0  0  0  0  0  0  0  0  0  0
    7.8788  -17.8902   24.5411 O   0  0  0  0  0  0  0  0  0  0  0  0
    9.2045  -17.0027   26.1495 N   0  0  0  0  0  0  0  0  0  0  0  0
   10.1551  -18.0675   26.2592 C   0  0  1  0  0  0  0  0  0  0  0  0
   11.1267  -18.0879   25.0672 C   0  0  0  0  0  0  0  0  0  0  0  0
   11.6083  -19.8189   24.7438 S   0  0  0  0  0  0  0  0  0  0  0  0
   10.8599  -17.9985   27.5343 C   0  0  0  0  0  0  0  0  0  0  0  0
   11.1922  -19.1566   28.2655 O   0  0  0  0  0  0  0  0  0  0  0  0
   11.1922  -16.8970   28.0176 O   0  0  0  0  0  0  0  0  0  0  0  0
  2  1  1  0
  3  2  1  0
  3  4  1  1
  5  3  1  0
  5  6  1  6
  7  8  2  0
  7  5  1  0
  9 10  1  0
 10 11  1  0
 11 12  1  0
 13 12  1  1
 13 14  1  0
 14  7  1  0
 15 17  1  0
 15 13  1  0
 16 15  2  0
 18 21  1  0
 18 17  1  0
 18 19  1  6
 20 19  1  0
 21 22  1  0
 23 21  2  0
M  END
$$$$
