DRM.pdb
     RDKit          3D

 28 27  0  0  1  0  0  0  0  0999 V2000
   13.7206   -8.4135   -8.1712 N   0  0  0  0  0  0  0  0  0  0  0  0
   14.4312   -7.3802   -8.8954 C   0  0  1  0  0  0  0  0  0  0  0  0
   14.8143   -6.2530   -7.9455 C   0  0  0  0  0  0  0  0  0  0  0  0
   13.6314   -5.4362   -7.5824 C   0  0  0  0  0  0  0  0  0  0  0  0
   12.5481   -5.6538   -8.1624 O   0  0  0  0  0  0  0  0  0  0  0  0
   15.6748   -8.0156   -9.4564 C   0  0  0  0  0  0  0  0  0  0  0  0
   16.4206   -8.7163   -8.7382 O   0  0  0  0  0  0  0  0  0  0  0  0
   13.6682   -4.4278   -6.6168 O   0  0  0  0  0  0  0  0  0  0  0  0
   17.4000  -10.8685  -17.7046 N   0  0  0  0  0  0  0  0  0  0  0  0
   16.5360  -11.0715  -16.5621 C   0  0  0  0  0  0  0  0  0  0  0  0
   15.4699  -11.7124  -16.7100 N   0  0  0  0  0  0  0  0  0  0  0  0
   16.9153  -10.5353  -15.3018 N   0  0  0  0  0  0  0  0  0  0  0  0
   17.9111   -9.5671  -15.0409 C   0  0  0  0  0  0  0  0  0  0  0  0
   18.1553   -9.1943  -13.6290 C   0  0  0  0  0  0  0  0  0  0  0  0
   16.8570   -8.6728  -12.9790 C   0  0  0  0  0  0  0  0  0  0  0  0
   17.1243   -8.2497  -11.5417 C   0  0  2  0  0  0  0  0  0  0  0  0
   15.9867   -7.8065  -10.8117 N   0  0  0  0  0  0  0  0  0  0  0  0
   18.3072   -7.3883  -11.4857 C   0  0  0  0  0  0  0  0  0  0  0  0
   18.2612   -6.1768  -11.8693 O   0  0  0  0  0  0  0  0  0  0  0  0
   14.6928  -12.0149  -16.1676 C   0  0  0  0  0  0  0  0  0  0  0  0
   22.6872   -6.8792   -6.3833 S   0  0  0  0  0  0  0  0  0  0  0  0
   23.6350   -7.0674   -7.9074 C   0  0  0  0  0  0  0  0  0  0  0  0
   22.6879   -6.4601   -9.3372 C   0  0  0  0  0  0  0  0  0  0  0  0
   21.5237   -7.3459   -9.6140 C   0  0  1  0  0  0  0  0  0  0  0  0
   20.6758   -6.8768  -10.7467 N   0  0  0  0  0  0  0  0  0  0  0  0
   19.5798   -7.8136  -11.0107 C   0  0  0  0  0  0  0  0  0  0  0  0
   21.4709   -6.7772  -11.9833 O   0  0  0  0  0  0  0  0  0  0  0  0
   22.2038   -5.6708  -12.3850 O   0  0  0  0  0  0  0  0  0  0  0  0
  2  1  1  1
  2  3  1  0
  3  4  1  0
  4  5  2  0
  4  8  1  0
  6  2  1  0
  7  6  2  0
  9 10  1  0
 10 12  1  0
 11 10  2  0
 12 13  1  0
 13 14  1  0
 14 15  1  0
 16 15  1  6
 16 17  1  0
 17  6  1  0
 18 19  2  0
 18 16  1  0
 21 20  1  0
 22 21  1  0
 23 22  1  0
 24 23  1  1
 24 25  1  0
 25 18  1  0
 26 27  1  0
 26 24  1  0
 28 26  2  0
M  END
$$$$
