DRM.pdb
     RDKit          3D

 28 27  0  0  1  0  0  0  0  0999 V2000
   24.8136  -18.6700  -16.6164 N   0  0  0  0  0  0  0  0  0  0  0  0
   25.6625  -18.2209  -15.5326 C   0  0  1  0  0  0  0  0  0  0  0  0
   24.9670  -17.1098  -14.7572 C   0  0  0  0  0  0  0  0  0  0  0  0
   24.7411  -15.9215  -15.6147 C   0  0  0  0  0  0  0  0  0  0  0  0
   24.2971  -14.8781  -15.0935 O   0  0  0  0  0  0  0  0  0  0  0  0
   25.8853  -19.4056  -14.6317 C   0  0  0  0  0  0  0  0  0  0  0  0
   24.9346  -20.1409  -14.2872 O   0  0  0  0  0  0  0  0  0  0  0  0
   25.0020  -15.9103  -16.9867 O   0  0  0  0  0  0  0  0  0  0  0  0
   30.2721  -23.0559  -17.0111 N   0  0  0  0  0  0  0  0  0  0  0  0
   30.9957  -23.9751  -16.1599 C   0  0  0  0  0  0  0  0  0  0  0  0
   31.2892  -25.1109  -16.5992 N   0  0  0  0  0  0  0  0  0  0  0  0
   31.3515  -23.5690  -14.8453 N   0  0  0  0  0  0  0  0  0  0  0  0
   30.8942  -22.4329  -14.1401 C   0  0  0  0  0  0  0  0  0  0  0  0
   29.4326  -22.2074  -14.0721 C   0  0  0  0  0  0  0  0  0  0  0  0
   29.1224  -20.9401  -13.2488 C   0  0  0  0  0  0  0  0  0  0  0  0
   27.6257  -20.6640  -13.2563 C   0  0  2  0  0  0  0  0  0  0  0  0
   27.1898  -19.6739  -14.1800 N   0  0  0  0  0  0  0  0  0  0  0  0
   27.1348  -20.5312  -11.8831 C   0  0  0  0  0  0  0  0  0  0  0  0
   27.3078  -19.4600  -11.2202 O   0  0  0  0  0  0  0  0  0  0  0  0
   31.7626  -25.9334  -16.3010 C   0  0  0  0  0  0  0  0  0  0  0  0
   28.9137  -19.8095   -6.4227 S   0  0  0  0  0  0  0  0  0  0  0  0
   27.3768  -18.9555   -6.8292 C   0  0  0  0  0  0  0  0  0  0  0  0
   26.2379  -20.0614   -7.7180 C   0  0  0  0  0  0  0  0  0  0  0  0
   26.7302  -20.3282   -9.0975 C   0  0  1  0  0  0  0  0  0  0  0  0
   25.9614  -21.3892   -9.8083 N   0  0  0  0  0  0  0  0  0  0  0  0
   26.4390  -21.5574  -11.1838 C   0  0  0  0  0  0  0  0  0  0  0  0
   24.5335  -21.0330   -9.8837 O   0  0  0  0  0  0  0  0  0  0  0  0
   23.5792  -21.3140   -8.9177 O   0  0  0  0  0  0  0  0  0  0  0  0
  2  1  1  6
  2  3  1  0
  3  4  1  0
  4  5  2  0
  4  8  1  0
  6  2  1  0
  7  6  2  0
  9 10  1  0
 10 12  1  0
 11 10  2  0
 12 13  1  0
 13 14  1  0
 14 15  1  0
 16 15  1  1
 16 17  1  0
 17  6  1  0
 18 19  2  0
 18 16  1  0
 21 20  1  0
 22 21  1  0
 23 22  1  0
 24 23  1  1
 24 25  1  0
 25 18  1  0
 26 27  1  0
 26 24  1  0
 28 26  2  0
M  END
$$$$
