DRM.pdb
     RDKit          3D

 28 27  0  0  1  0  0  0  0  0999 V2000
   18.1589  -21.8439  -12.0345 N   0  0  0  0  0  0  0  0  0  0  0  0
   18.7153  -21.9011  -13.3703 C   0  0  1  0  0  0  0  0  0  0  0  0
   17.6136  -21.6847  -14.3993 C   0  0  0  0  0  0  0  0  0  0  0  0
   16.7349  -22.8749  -14.4984 C   0  0  0  0  0  0  0  0  0  0  0  0
   16.9627  -23.8550  -13.7603 O   0  0  0  0  0  0  0  0  0  0  0  0
   19.7278  -20.7922  -13.4702 C   0  0  0  0  0  0  0  0  0  0  0  0
   19.5873  -19.7312  -12.8239 O   0  0  0  0  0  0  0  0  0  0  0  0
   15.6568  -22.9555  -15.3826 O   0  0  0  0  0  0  0  0  0  0  0  0
   28.2189  -21.4701  -12.7310 N   0  0  0  0  0  0  0  0  0  0  0  0
   27.0843  -21.1714  -11.8845 C   0  0  0  0  0  0  0  0  0  0  0  0
   27.1519  -21.4293  -10.6605 N   0  0  0  0  0  0  0  0  0  0  0  0
   25.9198  -20.5975  -12.4626 N   0  0  0  0  0  0  0  0  0  0  0  0
   25.7266  -20.2082  -13.8074 C   0  0  0  0  0  0  0  0  0  0  0  0
   24.4133  -19.6324  -14.1752 C   0  0  0  0  0  0  0  0  0  0  0  0
   23.3052  -20.6983  -14.0489 C   0  0  0  0  0  0  0  0  0  0  0  0
   21.9679  -20.1179  -14.4860 C   0  0  2  0  0  0  0  0  0  0  0  0
   20.8427  -20.9700  -14.3088 N   0  0  0  0  0  0  0  0  0  0  0  0
   22.1025  -19.4859  -15.8000 C   0  0  0  0  0  0  0  0  0  0  0  0
   22.1751  -20.1801  -16.8629 O   0  0  0  0  0  0  0  0  0  0  0  0
   26.5893  -21.3532   -9.8437 C   0  0  0  0  0  0  0  0  0  0  0  0
   17.8046  -18.1172  -19.0466 S   0  0  0  0  0  0  0  0  0  0  0  0
   19.5661  -17.7410  -18.9350 C   0  0  0  0  0  0  0  0  0  0  0  0
   19.9069  -16.6556  -17.5152 C   0  0  0  0  0  0  0  0  0  0  0  0
   21.3509  -16.2974  -17.4591 C   0  0  2  0  0  0  0  0  0  0  0  0
   22.2521  -17.4786  -17.3383 N   0  0  0  0  0  0  0  0  0  0  0  0
   22.1624  -18.0784  -16.0039 C   0  0  0  0  0  0  0  0  0  0  0  0
   23.6565  -17.0828  -17.5443 O   0  0  0  0  0  0  0  0  0  0  0  0
   24.3376  -17.1221  -18.7515 O   0  0  0  0  0  0  0  0  0  0  0  0
  2  1  1  1
  2  3  1  0
  3  4  1  0
  4  5  2  0
  4  8  1  0
  6  2  1  0
  7  6  2  0
  9 10  1  0
 10 12  1  0
 11 10  2  0
 12 13  1  0
 13 14  1  0
 14 15  1  0
 16 15  1  6
 16 17  1  0
 17  6  1  0
 18 19  2  0
 18 16  1  0
 21 20  1  0
 22 21  1  0
 23 22  1  0
 24 23  1  6
 24 25  1  0
 25 18  1  0
 26 27  1  0
 26 24  1  0
 28 26  2  0
M  END
$$$$
