DRM.pdb
     RDKit          3D

 28 27  0  0  1  0  0  0  0  0999 V2000
   22.2744  -20.0313  -16.1909 N   0  0  0  0  0  0  0  0  0  0  0  0
   22.6999  -19.5754  -14.8839 C   0  0  1  0  0  0  0  0  0  0  0  0
   21.4838  -19.3306  -14.0003 C   0  0  0  0  0  0  0  0  0  0  0  0
   20.7452  -18.1198  -14.4326 C   0  0  0  0  0  0  0  0  0  0  0  0
   20.7405  -17.8173  -15.6433 O   0  0  0  0  0  0  0  0  0  0  0  0
   23.5448  -20.6711  -14.2920 C   0  0  0  0  0  0  0  0  0  0  0  0
   23.1247  -21.8471  -14.2310 O   0  0  0  0  0  0  0  0  0  0  0  0
   20.0491  -17.2943  -13.5469 O   0  0  0  0  0  0  0  0  0  0  0  0
   31.3394  -23.2047  -14.7173 N   0  0  0  0  0  0  0  0  0  0  0  0
   30.5399  -22.3105  -15.5261 C   0  0  0  0  0  0  0  0  0  0  0  0
   30.6858  -22.3185  -16.7702 N   0  0  0  0  0  0  0  0  0  0  0  0
   29.6125  -21.4420  -14.8895 N   0  0  0  0  0  0  0  0  0  0  0  0
   29.5833  -21.0587  -13.5295 C   0  0  0  0  0  0  0  0  0  0  0  0
   28.2632  -20.9865  -12.8631 C   0  0  0  0  0  0  0  0  0  0  0  0
   27.1346  -21.2764  -13.8742 C   0  0  0  0  0  0  0  0  0  0  0  0
   25.7804  -21.1987  -13.1839 C   0  0  2  0  0  0  0  0  0  0  0  0
   24.8240  -20.3484  -13.8050 N   0  0  0  0  0  0  0  0  0  0  0  0
   25.9636  -21.0245  -11.7416 C   0  0  0  0  0  0  0  0  0  0  0  0
   26.6901  -20.0907  -11.2756 O   0  0  0  0  0  0  0  0  0  0  0  0
   30.2891  -21.8924  -17.5768 C   0  0  0  0  0  0  0  0  0  0  0  0
   29.6033  -20.0103   -7.3589 S   0  0  0  0  0  0  0  0  0  0  0  0
   28.0380  -19.1141   -7.3006 C   0  0  0  0  0  0  0  0  0  0  0  0
   26.6374  -20.2394   -7.5868 C   0  0  0  0  0  0  0  0  0  0  0  0
   26.5542  -20.6243   -9.0226 C   0  0  1  0  0  0  0  0  0  0  0  0
   25.4351  -21.5620   -9.3229 N   0  0  0  0  0  0  0  0  0  0  0  0
   25.3634  -21.8586  -10.7566 C   0  0  0  0  0  0  0  0  0  0  0  0
   24.1430  -20.9686   -8.9359 O   0  0  0  0  0  0  0  0  0  0  0  0
   23.6701  -20.8395   -7.6389 O   0  0  0  0  0  0  0  0  0  0  0  0
  2  1  1  6
  2  3  1  0
  3  4  1  0
  4  5  2  0
  4  8  1  0
  6  2  1  0
  7  6  2  0
  9 10  1  0
 10 12  1  0
 11 10  2  0
 12 13  1  0
 13 14  1  0
 14 15  1  0
 16 15  1  6
 16 17  1  0
 17  6  1  0
 18 19  2  0
 18 16  1  0
 21 20  1  0
 22 21  1  0
 23 22  1  0
 24 23  1  1
 24 25  1  0
 25 18  1  0
 26 27  1  0
 26 24  1  0
 28 26  2  0
M  END
$$$$
