DRM.pdb
     RDKit          3D

 28 27  0  0  1  0  0  0  0  0999 V2000
   23.8137  -21.8269  -19.9996 N   0  0  0  0  0  0  0  0  0  0  0  0
   24.2448  -21.8366  -18.6172 C   0  0  1  0  0  0  0  0  0  0  0  0
   24.4724  -20.4095  -18.1363 C   0  0  0  0  0  0  0  0  0  0  0  0
   25.7047  -19.8368  -18.7296 C   0  0  0  0  0  0  0  0  0  0  0  0
   25.6410  -18.7263  -19.2954 O   0  0  0  0  0  0  0  0  0  0  0  0
   23.1382  -22.4707  -17.8184 C   0  0  0  0  0  0  0  0  0  0  0  0
   21.9643  -22.0474  -17.8947 O   0  0  0  0  0  0  0  0  0  0  0  0
   26.9427  -20.4819  -18.6870 O   0  0  0  0  0  0  0  0  0  0  0  0
   20.9645  -26.6488  -11.7615 N   0  0  0  0  0  0  0  0  0  0  0  0
   20.8799  -27.9829  -12.3149 C   0  0  0  0  0  0  0  0  0  0  0  0
   20.0388  -28.7849  -11.8474 N   0  0  0  0  0  0  0  0  0  0  0  0
   21.7557  -28.3522  -13.3714 N   0  0  0  0  0  0  0  0  0  0  0  0
   22.6405  -27.5168  -14.0902 C   0  0  0  0  0  0  0  0  0  0  0  0
   22.1000  -26.2525  -14.6391 C   0  0  0  0  0  0  0  0  0  0  0  0
   23.1447  -25.5711  -15.5470 C   0  0  0  0  0  0  0  0  0  0  0  0
   22.5994  -24.2516  -16.0740 C   0  0  2  0  0  0  0  0  0  0  0  0
   23.4484  -23.5551  -16.9783 N   0  0  0  0  0  0  0  0  0  0  0  0
   22.0412  -23.4653  -14.9720 C   0  0  0  0  0  0  0  0  0  0  0  0
   22.7930  -22.8387  -14.1601 O   0  0  0  0  0  0  0  0  0  0  0  0
   19.7624  -29.7341  -11.9578 C   0  0  0  0  0  0  0  0  0  0  0  0
   21.8296  -18.3247  -15.4329 S   0  0  0  0  0  0  0  0  0  0  0  0
   20.2462  -18.1913  -14.5775 C   0  0  0  0  0  0  0  0  0  0  0  0
   19.8047  -19.7680  -13.7843 C   0  0  0  0  0  0  0  0  0  0  0  0
   20.4307  -20.9130  -14.5011 C   0  0  1  0  0  0  0  0  0  0  0  0
   20.0951  -22.2396  -13.9097 N   0  0  0  0  0  0  0  0  0  0  0  0
   20.6475  -23.3328  -14.7149 C   0  0  0  0  0  0  0  0  0  0  0  0
   18.6349  -22.4307  -13.8594 O   0  0  0  0  0  0  0  0  0  0  0  0
   17.7989  -21.9995  -12.8406 O   0  0  0  0  0  0  0  0  0  0  0  0
  2  1  1  6
  2  3  1  0
  3  4  1  0
  4  5  2  0
  4  8  1  0
  6  2  1  0
  7  6  2  0
  9 10  1  0
 10 12  1  0
 11 10  2  0
 12 13  1  0
 13 14  1  0
 14 15  1  0
 16 15  1  1
 16 17  1  0
 17  6  1  0
 18 19  2  0
 18 16  1  0
 21 20  1  0
 22 21  1  0
 23 22  1  0
 24 23  1  1
 24 25  1  0
 25 18  1  0
 26 27  1  0
 26 24  1  0
 28 26  2  0
M  END
$$$$
