DRM.pdb
     RDKit          3D

 28 27  0  0  1  0  0  0  0  0999 V2000
   24.1210  -22.9840  -18.4449 N   0  0  0  0  0  0  0  0  0  0  0  0
   24.3339  -22.5683  -17.0742 C   0  0  1  0  0  0  0  0  0  0  0  0
   25.4317  -21.5142  -17.0178 C   0  0  0  0  0  0  0  0  0  0  0  0
   26.7588  -22.1102  -17.3045 C   0  0  0  0  0  0  0  0  0  0  0  0
   27.3490  -21.7890  -18.3560 O   0  0  0  0  0  0  0  0  0  0  0  0
   23.0374  -21.9770  -16.5901 C   0  0  0  0  0  0  0  0  0  0  0  0
   22.1604  -21.5992  -17.3972 O   0  0  0  0  0  0  0  0  0  0  0  0
   27.3867  -23.0199  -16.4508 O   0  0  0  0  0  0  0  0  0  0  0  0
   16.9754  -24.3544  -11.6202 N   0  0  0  0  0  0  0  0  0  0  0  0
   16.9038  -22.9367  -11.3409 C   0  0  0  0  0  0  0  0  0  0  0  0
   15.7812  -22.3860  -11.2642 N   0  0  0  0  0  0  0  0  0  0  0  0
   18.1081  -22.2028  -11.1651 N   0  0  0  0  0  0  0  0  0  0  0  0
   19.3823  -22.4951  -11.7019 C   0  0  0  0  0  0  0  0  0  0  0  0
   19.8784  -21.6381  -12.8025 C   0  0  0  0  0  0  0  0  0  0  0  0
   21.2508  -22.1400  -13.2972 C   0  0  0  0  0  0  0  0  0  0  0  0
   21.6895  -21.3458  -14.5191 C   0  0  2  0  0  0  0  0  0  0  0  0
   22.8269  -21.8551  -15.2049 N   0  0  0  0  0  0  0  0  0  0  0  0
   21.7075  -19.9155  -14.2058 C   0  0  0  0  0  0  0  0  0  0  0  0
   21.9331  -19.5003  -13.0252 O   0  0  0  0  0  0  0  0  0  0  0  0
   15.3947  -21.4896  -11.0732 C   0  0  0  0  0  0  0  0  0  0  0  0
   26.8342  -18.3620  -14.3161 S   0  0  0  0  0  0  0  0  0  0  0  0
   26.3147  -17.1128  -15.5104 C   0  0  0  0  0  0  0  0  0  0  0  0
   24.5584  -16.6944  -15.2859 C   0  0  0  0  0  0  0  0  0  0  0  0
   23.7166  -17.9222  -15.3039 C   0  0  2  0  0  0  0  0  0  0  0  0
   22.2570  -17.6442  -15.1844 N   0  0  0  0  0  0  0  0  0  0  0  0
   21.4814  -18.8878  -15.1644 C   0  0  0  0  0  0  0  0  0  0  0  0
   21.7835  -16.8541  -16.3346 O   0  0  0  0  0  0  0  0  0  0  0  0
   20.9969  -17.3306  -17.3723 O   0  0  0  0  0  0  0  0  0  0  0  0
  2  1  1  6
  2  3  1  0
  3  4  1  0
  4  5  2  0
  4  8  1  0
  6  2  1  0
  7  6  2  0
  9 10  1  0
 10 12  1  0
 11 10  2  0
 12 13  1  0
 13 14  1  0
 14 15  1  0
 16 15  1  1
 16 17  1  0
 17  6  1  0
 18 19  2  0
 18 16  1  0
 21 20  1  0
 22 21  1  0
 23 22  1  0
 24 23  1  1
 24 25  1  0
 25 18  1  0
 26 27  1  0
 26 24  1  0
 28 26  2  0
M  END
$$$$
