DRM.pdb
     RDKit          3D

 28 27  0  0  1  0  0  0  0  0999 V2000
   27.4672  -19.6252  -15.6054 N   0  0  0  0  0  0  0  0  0  0  0  0
   27.9447  -19.0053  -14.3869 C   0  0  1  0  0  0  0  0  0  0  0  0
   28.3291  -17.5571  -14.6595 C   0  0  0  0  0  0  0  0  0  0  0  0
   28.2559  -17.2493  -16.1081 C   0  0  0  0  0  0  0  0  0  0  0  0
   28.8100  -18.0216  -16.9167 O   0  0  0  0  0  0  0  0  0  0  0  0
   26.8104  -19.0518  -13.3989 C   0  0  0  0  0  0  0  0  0  0  0  0
   26.2995  -18.0008  -12.9546 O   0  0  0  0  0  0  0  0  0  0  0  0
   27.5932  -16.1305  -16.6175 O   0  0  0  0  0  0  0  0  0  0  0  0
   24.9952  -25.2118  -15.7894 N   0  0  0  0  0  0  0  0  0  0  0  0
   23.8356  -24.9126  -14.9777 C   0  0  0  0  0  0  0  0  0  0  0  0
   22.9967  -25.8161  -14.7560 N   0  0  0  0  0  0  0  0  0  0  0  0
   23.6742  -23.6006  -14.4559 N   0  0  0  0  0  0  0  0  0  0  0  0
   24.3392  -22.4222  -14.8640 C   0  0  0  0  0  0  0  0  0  0  0  0
   24.0171  -21.1671  -14.1479 C   0  0  0  0  0  0  0  0  0  0  0  0
   24.1120  -21.3795  -12.6227 C   0  0  0  0  0  0  0  0  0  0  0  0
   25.2888  -20.5975  -12.0573 C   0  0  2  0  0  0  0  0  0  0  0  0
   26.3311  -20.3060  -12.9804 N   0  0  0  0  0  0  0  0  0  0  0  0
   25.7002  -21.1710  -10.7743 C   0  0  0  0  0  0  0  0  0  0  0  0
   25.6183  -22.4204  -10.5522 O   0  0  0  0  0  0  0  0  0  0  0  0
   22.1498  -25.9486  -14.2513 C   0  0  0  0  0  0  0  0  0  0  0  0
   29.3587  -18.7874   -5.6766 S   0  0  0  0  0  0  0  0  0  0  0  0
   27.7654  -19.1757   -4.9235 C   0  0  0  0  0  0  0  0  0  0  0  0
   26.8273  -20.3409   -5.9591 C   0  0  0  0  0  0  0  0  0  0  0  0
   26.8755  -19.9324   -7.3899 C   0  0  1  0  0  0  0  0  0  0  0  0
   26.1809  -20.8837   -8.3035 N   0  0  0  0  0  0  0  0  0  0  0  0
   26.2146  -20.4068   -9.6892 C   0  0  0  0  0  0  0  0  0  0  0  0
   24.7635  -21.0243   -7.9259 O   0  0  0  0  0  0  0  0  0  0  0  0
   24.2727  -21.8489   -6.9249 O   0  0  0  0  0  0  0  0  0  0  0  0
  2  1  1  6
  2  3  1  0
  3  4  1  0
  4  5  2  0
  4  8  1  0
  6  2  1  0
  7  6  2  0
  9 10  1  0
 10 12  1  0
 11 10  2  0
 12 13  1  0
 13 14  1  0
 14 15  1  0
 16 15  1  6
 16 17  1  0
 17  6  1  0
 18 19  2  0
 18 16  1  0
 21 20  1  0
 22 21  1  0
 23 22  1  0
 24 23  1  6
 24 25  1  0
 25 18  1  0
 26 27  1  0
 26 24  1  0
 28 26  2  0
M  END
$$$$
