DRM.pdb
     RDKit          3D

 28 27  0  0  1  0  0  0  0  0999 V2000
   26.0154  -20.6098  -19.6213 N   0  0  0  0  0  0  0  0  0  0  0  0
   25.7833  -19.6110  -18.5988 C   0  0  1  0  0  0  0  0  0  0  0  0
   25.0025  -18.4422  -19.1852 C   0  0  0  0  0  0  0  0  0  0  0  0
   25.8751  -17.5844  -20.0227 C   0  0  0  0  0  0  0  0  0  0  0  0
   27.0672  -17.9153  -20.1860 O   0  0  0  0  0  0  0  0  0  0  0  0
   24.9712  -20.2722  -17.5179 C   0  0  0  0  0  0  0  0  0  0  0  0
   24.1418  -21.1669  -17.7911 O   0  0  0  0  0  0  0  0  0  0  0  0
   25.4272  -16.4159  -20.6428 O   0  0  0  0  0  0  0  0  0  0  0  0
   26.2096  -21.0311   -8.5651 N   0  0  0  0  0  0  0  0  0  0  0  0
   24.7818  -21.0823   -8.7922 C   0  0  0  0  0  0  0  0  0  0  0  0
   24.0104  -21.1660   -7.8088 N   0  0  0  0  0  0  0  0  0  0  0  0
   24.2896  -21.0412  -10.1248 N   0  0  0  0  0  0  0  0  0  0  0  0
   24.9304  -20.5054  -11.2648 C   0  0  0  0  0  0  0  0  0  0  0  0
   24.2266  -20.6106  -12.5630 C   0  0  0  0  0  0  0  0  0  0  0  0
   25.1305  -20.1053  -13.7066 C   0  0  0  0  0  0  0  0  0  0  0  0
   24.3933  -20.1944  -15.0351 C   0  0  2  0  0  0  0  0  0  0  0  0
   25.1618  -19.8640  -16.1856 N   0  0  0  0  0  0  0  0  0  0  0  0
   23.0826  -19.5511  -14.9238 C   0  0  0  0  0  0  0  0  0  0  0  0
   22.9750  -18.2966  -14.7455 O   0  0  0  0  0  0  0  0  0  0  0  0
   23.0361  -21.2377   -7.6211 C   0  0  0  0  0  0  0  0  0  0  0  0
   15.8036  -18.4543  -17.3062 S   0  0  0  0  0  0  0  0  0  0  0  0
   17.4576  -19.1524  -17.4899 C   0  0  0  0  0  0  0  0  0  0  0  0
   18.3900  -19.0248  -15.9328 C   0  0  0  0  0  0  0  0  0  0  0  0
   19.7258  -19.6692  -16.0630 C   0  0  1  0  0  0  0  0  0  0  0  0
   20.5513  -19.5816  -14.8249 N   0  0  0  0  0  0  0  0  0  0  0  0
   21.8443  -20.2487  -15.0028 C   0  0  0  0  0  0  0  0  0  0  0  0
   19.8702  -20.2452  -13.6993 O   0  0  0  0  0  0  0  0  0  0  0  0
   20.0080  -21.5788  -13.3452 O   0  0  0  0  0  0  0  0  0  0  0  0
  2  1  1  6
  2  3  1  0
  3  4  1  0
  4  5  2  0
  4  8  1  0
  6  2  1  0
  7  6  2  0
  9 10  1  0
 10 12  1  0
 11 10  2  0
 12 13  1  0
 13 14  1  0
 14 15  1  0
 16 15  1  1
 16 17  1  0
 17  6  1  0
 18 19  2  0
 18 16  1  0
 21 20  1  0
 22 21  1  0
 23 22  1  0
 24 23  1  6
 24 25  1  0
 25 18  1  0
 26 27  1  0
 26 24  1  0
 28 26  2  0
M  END
$$$$
