LRW.pdb
     RDKit          3D

 34 35  0  0  1  0  0  0  0  0999 V2000
    7.8791  -11.3248   20.2432 C   0  0  0  0  0  0  0  0  0  0  0  0
    7.7711  -12.7332   19.7240 C   0  0  1  0  0  0  0  0  0  0  0  0
    8.8627  -13.0571   18.7546 C   0  0  0  0  0  0  0  0  0  0  0  0
    7.7729  -13.7436   20.8705 C   0  0  0  0  0  0  0  0  0  0  0  0
    7.5742  -15.1446   20.3483 C   0  0  2  0  0  0  0  0  0  0  0  0
    6.2019  -15.3808   19.9494 N   0  0  0  0  0  0  0  0  0  0  0  0
    7.9198  -16.1377   21.3926 C   0  0  0  0  0  0  0  0  0  0  0  0
    7.1057  -16.3354   22.3349 O   0  0  0  0  0  0  0  0  0  0  0  0
   13.6739  -19.3566   21.6210 N   0  0  0  0  0  0  0  0  0  0  0  0
   13.8321  -20.0286   22.8586 C   0  0  0  0  0  0  0  0  0  0  0  0
   14.9511  -19.9041   23.4751 N   0  0  0  0  0  0  0  0  0  0  0  0
   12.8043  -20.8218   23.4248 N   0  0  0  0  0  0  0  0  0  0  0  0
   11.5199  -20.9618   22.8159 C   0  0  0  0  0  0  0  0  0  0  0  0
   10.5576  -19.8641   23.2196 C   0  0  0  0  0  0  0  0  0  0  0  0
   10.3832  -18.8561   22.1044 C   0  0  0  0  0  0  0  0  0  0  0  0
    9.4177  -17.7608   22.4806 C   0  0  2  0  0  0  0  0  0  0  0  0
    9.1165  -16.8799   21.3924 N   0  0  0  0  0  0  0  0  0  0  0  0
   10.1040  -16.9434   23.5299 C   0  0  0  0  0  0  0  0  0  0  0  0
   11.1044  -16.2240   23.2816 O   0  0  0  0  0  0  0  0  0  0  0  0
   15.1413  -20.4596   24.3163 N   0  0  0  0  0  0  0  0  0  0  0  0
    9.6207  -16.9644   24.8788 C   0  0  1  0  0  0  0  0  0  0  0  0
   10.4550  -16.5875   26.0085 C   0  0  0  0  0  0  0  0  0  0  0  0
   10.0332  -15.2318   26.5321 C   0  0  0  0  0  0  0  0  0  0  0  0
    8.5949  -15.0288   26.2306 C   0  0  0  0  0  0  0  0  0  0  0  0
    7.5996  -15.9909   26.1293 N   0  0  0  0  0  0  0  0  0  0  0  0
    6.4323  -15.4115   25.8403 C   0  0  0  0  0  0  0  0  0  0  0  0
    6.6353  -14.0895   25.7491 C   0  0  0  0  0  0  0  0  0  0  0  0
    5.8083  -13.0081   25.4779 C   0  0  0  0  0  0  0  0  0  0  0  0
    6.3029  -11.7268   25.4484 C   0  0  0  0  0  0  0  0  0  0  0  0
    7.6344  -11.4565   25.6848 C   0  0  0  0  0  0  0  0  0  0  0  0
    8.4745  -12.5125   25.9562 C   0  0  0  0  0  0  0  0  0  0  0  0
    7.9802  -13.7951   25.9860 C   0  0  0  0  0  0  0  0  0  0  0  0
   10.3351  -17.5636   27.1089 O   0  0  0  0  0  0  0  0  0  0  0  0
   11.0165  -17.5283   28.1485 O   0  0  0  0  0  0  0  0  0  0  0  0
  2  1  1  1
  2  4  1  0
  3  2  1  0
  5  4  1  0
  5  6  1  1
  7  8  2  0
  7  5  1  0
  9 10  1  0
 10 12  1  0
 11 10  2  0
 12 13  1  0
 13 14  1  0
 14 15  1  0
 16 15  1  6
 16 17  1  0
 17  7  1  0
 18 19  2  0
 18 16  1  0
 20 18  1  0
 21 20  1  0
 21 22  1  1
 22 23  1  0
 23 31  1  0
 23 24  2  0
 24 25  1  0
 26 25  1  0
 26 27  2  0
 28 27  1  0
 29 28  2  0
 30 31  2  0
 30 29  1  0
 31 26  1  0
 32 21  1  0
 33 32  2  0
 34 32  1  0
M  END
$$$$
