LRW.pdb
     RDKit          3D

 34 35  0  0  1  0  0  0  0  0999 V2000
    7.3562  -12.9415   18.4101 C   0  0  0  0  0  0  0  0  0  0  0  0
    8.4988  -12.7385   19.3683 C   0  0  1  0  0  0  0  0  0  0  0  0
    8.6527  -11.3034   19.7591 C   0  0  0  0  0  0  0  0  0  0  0  0
    8.3310  -13.6053   20.6157 C   0  0  0  0  0  0  0  0  0  0  0  0
    8.9111  -14.9796   20.3933 C   0  0  2  0  0  0  0  0  0  0  0  0
    8.2269  -15.6874   19.3308 N   0  0  0  0  0  0  0  0  0  0  0  0
    8.7964  -15.7932   21.6268 C   0  0  0  0  0  0  0  0  0  0  0  0
    7.9072  -15.4951   22.4696 O   0  0  0  0  0  0  0  0  0  0  0  0
    7.1784  -21.6616   21.0268 N   0  0  0  0  0  0  0  0  0  0  0  0
    8.1998  -21.8507   20.0627 C   0  0  0  0  0  0  0  0  0  0  0  0
    7.8506  -22.0533   18.8442 N   0  0  0  0  0  0  0  0  0  0  0  0
    9.5745  -21.8226   20.4025 N   0  0  0  0  0  0  0  0  0  0  0  0
   10.0677  -21.1249   21.5471 C   0  0  0  0  0  0  0  0  0  0  0  0
    9.3744  -19.7963   21.7667 C   0  0  0  0  0  0  0  0  0  0  0  0
    9.9398  -19.0804   22.9741 C   0  0  0  0  0  0  0  0  0  0  0  0
    9.4125  -17.6728   23.0928 C   0  0  2  0  0  0  0  0  0  0  0  0
    9.6315  -16.8901   21.9137 N   0  0  0  0  0  0  0  0  0  0  0  0
   10.1902  -17.0289   24.1977 C   0  0  0  0  0  0  0  0  0  0  0  0
   11.3371  -16.5442   24.0257 O   0  0  0  0  0  0  0  0  0  0  0  0
    8.5610  -22.2416   18.1285 N   0  0  0  0  0  0  0  0  0  0  0  0
    9.6270  -16.9493   25.5130 C   0  0  1  0  0  0  0  0  0  0  0  0
   10.4336  -16.6555   26.6866 C   0  0  0  0  0  0  0  0  0  0  0  0
    9.8639  -15.4598   27.4185 C   0  0  0  0  0  0  0  0  0  0  0  0
    8.5059  -15.1787   26.8915 C   0  0  0  0  0  0  0  0  0  0  0  0
    7.5363  -16.0913   26.4996 N   0  0  0  0  0  0  0  0  0  0  0  0
    6.4462  -15.4463   26.0783 C   0  0  0  0  0  0  0  0  0  0  0  0
    6.6750  -14.1296   26.1837 C   0  0  0  0  0  0  0  0  0  0  0  0
    5.9211  -12.9990   25.9006 C   0  0  0  0  0  0  0  0  0  0  0  0
    6.4250  -11.7388   26.1135 C   0  0  0  0  0  0  0  0  0  0  0  0
    7.6943  -11.5391   26.6146 C   0  0  0  0  0  0  0  0  0  0  0  0
    8.4612  -12.6451   26.9032 C   0  0  0  0  0  0  0  0  0  0  0  0
    7.9574  -13.9066   26.6905 C   0  0  0  0  0  0  0  0  0  0  0  0
   10.4542  -17.7992   27.6192 O   0  0  0  0  0  0  0  0  0  0  0  0
    9.7552  -18.8190   27.4861 O   0  0  0  0  0  0  0  0  0  0  0  0
  2  1  1  6
  2  4  1  0
  3  2  1  0
  5  4  1  0
  5  6  1  6
  7  8  2  0
  7  5  1  0
  9 10  1  0
 10 12  1  0
 11 10  2  0
 12 13  1  0
 13 14  1  0
 14 15  1  0
 16 15  1  6
 16 17  1  0
 17  7  1  0
 18 19  2  0
 18 16  1  0
 20 18  1  0
 21 20  1  0
 21 22  1  6
 22 23  1  0
 23 31  1  0
 23 24  2  0
 24 25  1  0
 26 25  1  0
 26 27  2  0
 28 27  1  0
 29 28  2  0
 30 31  2  0
 30 29  1  0
 31 26  1  0
 32 21  1  0
 33 32  2  0
 34 32  1  0
M  END
$$$$
