LRW.pdb
     RDKit          3D

 34 35  0  0  1  0  0  0  0  0999 V2000
    7.1952  -12.0023   20.0559 C   0  0  0  0  0  0  0  0  0  0  0  0
    7.7689  -13.3116   19.5858 C   0  0  1  0  0  0  0  0  0  0  0  0
    9.0853  -13.1312   18.8996 C   0  0  0  0  0  0  0  0  0  0  0  0
    7.9142  -14.2963   20.7454 C   0  0  0  0  0  0  0  0  0  0  0  0
    8.4169  -15.6306   20.2535 C   0  0  2  0  0  0  0  0  0  0  0  0
    7.4285  -16.3132   19.4440 N   0  0  0  0  0  0  0  0  0  0  0  0
    8.7500  -16.5100   21.3990 C   0  0  0  0  0  0  0  0  0  0  0  0
    7.8454  -17.2412   21.8856 O   0  0  0  0  0  0  0  0  0  0  0  0
   12.2394  -17.9882   18.6644 N   0  0  0  0  0  0  0  0  0  0  0  0
   13.1565  -19.0612   18.7904 C   0  0  0  0  0  0  0  0  0  0  0  0
   14.0972  -19.1572   17.9223 N   0  0  0  0  0  0  0  0  0  0  0  0
   13.0642  -20.0160   19.8325 N   0  0  0  0  0  0  0  0  0  0  0  0
   12.8629  -19.6451   21.1971 C   0  0  0  0  0  0  0  0  0  0  0  0
   11.6522  -18.7556   21.3898 C   0  0  0  0  0  0  0  0  0  0  0  0
   11.5107  -18.3349   22.8365 C   0  0  0  0  0  0  0  0  0  0  0  0
   10.2866  -17.4832   23.0585 C   0  0  2  0  0  0  0  0  0  0  0  0
   10.0310  -16.5759   21.9803 N   0  0  0  0  0  0  0  0  0  0  0  0
   10.5710  -16.6540   24.2717 C   0  0  0  0  0  0  0  0  0  0  0  0
   11.5018  -15.8103   24.3127 O   0  0  0  0  0  0  0  0  0  0  0  0
   14.8000  -19.9001   18.0033 N   0  0  0  0  0  0  0  0  0  0  0  0
    9.7645  -16.8092   25.4460 C   0  0  1  0  0  0  0  0  0  0  0  0
   10.1570  -16.2632   26.7352 C   0  0  0  0  0  0  0  0  0  0  0  0
    8.9318  -16.0340   27.5934 C   0  0  0  0  0  0  0  0  0  0  0  0
    7.8648  -15.4358   26.7540 C   0  0  0  0  0  0  0  0  0  0  0  0
    6.8043  -16.0812   26.1332 N   0  0  0  0  0  0  0  0  0  0  0  0
    6.0611  -15.1974   25.4636 C   0  0  0  0  0  0  0  0  0  0  0  0
    6.6074  -13.9844   25.6289 C   0  0  0  0  0  0  0  0  0  0  0  0
    6.2774  -12.7138   25.1777 C   0  0  0  0  0  0  0  0  0  0  0  0
    7.0398  -11.6215   25.5137 C   0  0  0  0  0  0  0  0  0  0  0  0
    8.1607  -11.7350   26.3092 C   0  0  0  0  0  0  0  0  0  0  0  0
    8.5083  -12.9849   26.7690 C   0  0  0  0  0  0  0  0  0  0  0  0
    7.7456  -14.0785   26.4332 C   0  0  0  0  0  0  0  0  0  0  0  0
   11.0560  -17.1871   27.4539 O   0  0  0  0  0  0  0  0  0  0  0  0
   11.2708  -18.3615   27.1058 O   0  0  0  0  0  0  0  0  0  0  0  0
  2  1  1  1
  2  4  1  0
  3  2  1  0
  5  4  1  0
  5  6  1  1
  7  8  2  0
  7  5  1  0
  9 10  1  0
 10 12  1  0
 11 10  2  0
 12 13  1  0
 13 14  1  0
 14 15  1  0
 16 15  1  6
 16 17  1  0
 17  7  1  0
 18 19  2  0
 18 16  1  0
 20 18  1  0
 21 20  1  0
 21 22  1  1
 22 23  1  0
 23 31  1  0
 23 24  2  0
 24 25  1  0
 26 25  1  0
 26 27  2  0
 28 27  1  0
 29 28  2  0
 30 31  2  0
 30 29  1  0
 31 26  1  0
 32 21  1  0
 33 32  2  0
 34 32  1  0
M  END
$$$$
