LRW.pdb
     RDKit          3D

 34 35  0  0  1  0  0  0  0  0999 V2000
    7.9953  -13.4185   17.9492 C   0  0  0  0  0  0  0  0  0  0  0  0
    7.2148  -13.2100   19.2189 C   0  0  1  0  0  0  0  0  0  0  0  0
    5.7435  -13.1294   18.9640 C   0  0  0  0  0  0  0  0  0  0  0  0
    7.5103  -14.3139   20.2335 C   0  0  0  0  0  0  0  0  0  0  0  0
    8.7128  -13.9606   21.0725 C   0  0  2  0  0  0  0  0  0  0  0  0
    9.8811  -13.7010   20.2565 N   0  0  0  0  0  0  0  0  0  0  0  0
    9.0425  -15.0728   21.9949 C   0  0  0  0  0  0  0  0  0  0  0  0
    8.1211  -15.5740   22.6946 O   0  0  0  0  0  0  0  0  0  0  0  0
   16.1674  -14.5427   22.5752 N   0  0  0  0  0  0  0  0  0  0  0  0
   15.5761  -14.8830   21.3331 C   0  0  0  0  0  0  0  0  0  0  0  0
   15.8616  -14.1621   20.3102 N   0  0  0  0  0  0  0  0  0  0  0  0
   14.6918  -15.9804   21.1924 N   0  0  0  0  0  0  0  0  0  0  0  0
   14.3075  -16.8023   22.2957 C   0  0  0  0  0  0  0  0  0  0  0  0
   13.0493  -16.3114   22.9813 C   0  0  0  0  0  0  0  0  0  0  0  0
   11.9321  -17.3247   22.8589 C   0  0  0  0  0  0  0  0  0  0  0  0
   10.5753  -16.6923   23.0388 C   0  0  2  0  0  0  0  0  0  0  0  0
   10.3380  -15.6065   22.1355 N   0  0  0  0  0  0  0  0  0  0  0  0
   10.5618  -16.1227   24.4228 C   0  0  0  0  0  0  0  0  0  0  0  0
   11.1932  -15.0809   24.7329 O   0  0  0  0  0  0  0  0  0  0  0  0
   15.5294  -14.4340   19.3784 N   0  0  0  0  0  0  0  0  0  0  0  0
    9.8068  -16.7720   25.4533 C   0  0  1  0  0  0  0  0  0  0  0  0
    9.9190  -16.3947   26.8530 C   0  0  0  0  0  0  0  0  0  0  0  0
    8.5507  -16.3962   27.4994 C   0  0  0  0  0  0  0  0  0  0  0  0
    7.6347  -15.5629   26.6825 C   0  0  0  0  0  0  0  0  0  0  0  0
    6.7005  -15.9864   25.7474 N   0  0  0  0  0  0  0  0  0  0  0  0
    6.0722  -14.9332   25.2204 C   0  0  0  0  0  0  0  0  0  0  0  0
    6.5709  -13.8251   25.7868 C   0  0  0  0  0  0  0  0  0  0  0  0
    6.3093  -12.4701   25.6374 C   0  0  0  0  0  0  0  0  0  0  0  0
    6.9933  -11.5306   26.3701 C   0  0  0  0  0  0  0  0  0  0  0  0
    7.9651  -11.8868   27.2816 C   0  0  0  0  0  0  0  0  0  0  0  0
    8.2423  -13.2247   27.4475 C   0  0  0  0  0  0  0  0  0  0  0  0
    7.5581  -14.1655   26.7146 C   0  0  0  0  0  0  0  0  0  0  0  0
   10.7784  -17.3397   27.5925 O   0  0  0  0  0  0  0  0  0  0  0  0
   11.0936  -17.2053   28.7880 O   0  0  0  0  0  0  0  0  0  0  0  0
  2  1  1  6
  2  4  1  0
  3  2  1  0
  5  4  1  0
  5  6  1  6
  7  8  2  0
  7  5  1  0
  9 10  1  0
 10 12  1  0
 11 10  2  0
 12 13  1  0
 13 14  1  0
 14 15  1  0
 16 15  1  6
 16 17  1  0
 17  7  1  0
 18 19  2  0
 18 16  1  0
 20 18  1  0
 21 20  1  0
 21 22  1  1
 22 23  1  0
 23 31  1  0
 23 24  2  0
 24 25  1  0
 26 25  1  0
 26 27  2  0
 28 27  1  0
 29 28  2  0
 30 31  2  0
 30 29  1  0
 31 26  1  0
 32 21  1  0
 33 32  2  0
 34 32  1  0
M  END
$$$$
