LRW.pdb
     RDKit          3D

 34 35  0  0  1  0  0  0  0  0999 V2000
    6.1664  -12.8271   18.4586 C   0  0  0  0  0  0  0  0  0  0  0  0
    7.5128  -13.2853   18.9504 C   0  0  1  0  0  0  0  0  0  0  0  0
    8.3557  -12.1425   19.4189 C   0  0  0  0  0  0  0  0  0  0  0  0
    7.3678  -14.3200   20.0657 C   0  0  0  0  0  0  0  0  0  0  0  0
    8.7085  -14.6324   20.6822 C   0  0  2  0  0  0  0  0  0  0  0  0
    9.6403  -15.1590   19.7062 N   0  0  0  0  0  0  0  0  0  0  0  0
    8.5589  -15.6422   21.7566 C   0  0  0  0  0  0  0  0  0  0  0  0
    7.7099  -15.4388   22.6664 O   0  0  0  0  0  0  0  0  0  0  0  0
   11.0225  -19.7037   18.1233 N   0  0  0  0  0  0  0  0  0  0  0  0
   11.1712  -20.8847   18.8924 C   0  0  0  0  0  0  0  0  0  0  0  0
   12.2342  -21.5847   18.7256 N   0  0  0  0  0  0  0  0  0  0  0  0
   10.1932  -21.3069   19.8259 N   0  0  0  0  0  0  0  0  0  0  0  0
    9.3552  -20.3874   20.5278 C   0  0  0  0  0  0  0  0  0  0  0  0
   10.1359  -19.2686   21.1858 C   0  0  0  0  0  0  0  0  0  0  0  0
    9.7325  -19.1027   22.6349 C   0  0  0  0  0  0  0  0  0  0  0  0
    9.1264  -17.7478   22.8996 C   0  0  2  0  0  0  0  0  0  0  0  0
    9.3180  -16.8266   21.8199 N   0  0  0  0  0  0  0  0  0  0  0  0
    9.8519  -17.1917   24.0848 C   0  0  0  0  0  0  0  0  0  0  0  0
   11.0572  -16.8382   24.0368 O   0  0  0  0  0  0  0  0  0  0  0  0
   12.3642  -22.4578   19.2482 N   0  0  0  0  0  0  0  0  0  0  0  0
    9.1676  -17.0465   25.3355 C   0  0  1  0  0  0  0  0  0  0  0  0
    9.8419  -16.5938   26.5416 C   0  0  0  0  0  0  0  0  0  0  0  0
    8.8316  -16.0304   27.5172 C   0  0  0  0  0  0  0  0  0  0  0  0
    7.7935  -15.2913   26.7577 C   0  0  0  0  0  0  0  0  0  0  0  0
    6.6375  -15.7963   26.1788 N   0  0  0  0  0  0  0  0  0  0  0  0
    5.9610  -14.8143   25.5789 C   0  0  0  0  0  0  0  0  0  0  0  0
    6.6445  -13.6737   25.7492 C   0  0  0  0  0  0  0  0  0  0  0  0
    6.4320  -12.3597   25.3556 C   0  0  0  0  0  0  0  0  0  0  0  0
    7.3260  -11.3684   25.6805 C   0  0  0  0  0  0  0  0  0  0  0  0
    8.4682  -11.6302   26.4077 C   0  0  0  0  0  0  0  0  0  0  0  0
    8.7009  -12.9259   26.8096 C   0  0  0  0  0  0  0  0  0  0  0  0
    7.8066  -13.9184   26.4848 C   0  0  0  0  0  0  0  0  0  0  0  0
   10.5518  -17.7051   27.2044 O   0  0  0  0  0  0  0  0  0  0  0  0
   10.4928  -18.8900   26.8317 O   0  0  0  0  0  0  0  0  0  0  0  0
  2  1  1  1
  2  4  1  0
  3  2  1  0
  5  4  1  0
  5  6  1  6
  7  8  2  0
  7  5  1  0
  9 10  1  0
 10 12  1  0
 11 10  2  0
 12 13  1  0
 13 14  1  0
 14 15  1  0
 16 15  1  6
 16 17  1  0
 17  7  1  0
 18 19  2  0
 18 16  1  0
 20 18  1  0
 21 20  1  0
 21 22  1  1
 22 23  1  0
 23 31  1  0
 23 24  2  0
 24 25  1  0
 26 25  1  0
 26 27  2  0
 28 27  1  0
 29 28  2  0
 30 31  2  0
 30 29  1  0
 31 26  1  0
 32 21  1  0
 33 32  2  0
 34 32  1  0
M  END
$$$$
