LRW.pdb
     RDKit          3D

 34 35  0  0  1  0  0  0  0  0999 V2000
    8.4504  -20.7024   18.4281 C   0  0  0  0  0  0  0  0  0  0  0  0
    9.8240  -20.8111   19.0330 C   0  0  1  0  0  0  0  0  0  0  0  0
   10.7893  -21.4855   18.1112 C   0  0  0  0  0  0  0  0  0  0  0  0
   10.3580  -19.4369   19.4353 C   0  0  0  0  0  0  0  0  0  0  0  0
    9.9942  -19.1197   20.8642 C   0  0  2  0  0  0  0  0  0  0  0  0
    8.5814  -19.3164   21.1165 N   0  0  0  0  0  0  0  0  0  0  0  0
   10.3179  -17.7077   21.1772 C   0  0  0  0  0  0  0  0  0  0  0  0
   11.4911  -17.2943   20.9713 O   0  0  0  0  0  0  0  0  0  0  0  0
    7.5834  -15.3230   17.1042 N   0  0  0  0  0  0  0  0  0  0  0  0
    7.7690  -13.9181   17.1134 C   0  0  0  0  0  0  0  0  0  0  0  0
    8.0505  -13.3385   16.0031 N   0  0  0  0  0  0  0  0  0  0  0  0
    7.6543  -13.1482   18.2967 N   0  0  0  0  0  0  0  0  0  0  0  0
    7.2913  -13.7223   19.5532 C   0  0  0  0  0  0  0  0  0  0  0  0
    8.2942  -14.7476   20.0401 C   0  0  0  0  0  0  0  0  0  0  0  0
    8.7514  -14.4354   21.4485 C   0  0  0  0  0  0  0  0  0  0  0  0
    9.7630  -15.4359   21.9474 C   0  0  2  0  0  0  0  0  0  0  0  0
    9.3812  -16.7931   21.6961 N   0  0  0  0  0  0  0  0  0  0  0  0
    9.8205  -15.2641   23.4332 C   0  0  0  0  0  0  0  0  0  0  0  0
   10.0983  -14.1660   23.9780 O   0  0  0  0  0  0  0  0  0  0  0  0
    8.2270  -12.3282   15.9788 N   0  0  0  0  0  0  0  0  0  0  0  0
    9.5521  -16.3806   24.2905 C   0  0  1  0  0  0  0  0  0  0  0  0
    9.8840  -16.3700   25.7061 C   0  0  0  0  0  0  0  0  0  0  0  0
    8.6381  -16.6122   26.5302 C   0  0  0  0  0  0  0  0  0  0  0  0
    7.5883  -15.6549   26.1033 C   0  0  0  0  0  0  0  0  0  0  0  0
    6.4369  -15.9194   25.3748 N   0  0  0  0  0  0  0  0  0  0  0  0
    5.7461  -14.7926   25.1878 C   0  0  0  0  0  0  0  0  0  0  0  0
    6.4158  -13.7916   25.7765 C   0  0  0  0  0  0  0  0  0  0  0  0
    6.1854  -12.4289   25.9066 C   0  0  0  0  0  0  0  0  0  0  0  0
    7.0678  -11.6216   26.5826 C   0  0  0  0  0  0  0  0  0  0  0  0
    8.2156  -12.1233   27.1595 C   0  0  0  0  0  0  0  0  0  0  0  0
    8.4659  -13.4718   27.0441 C   0  0  0  0  0  0  0  0  0  0  0  0
    7.5832  -14.2803   26.3677 C   0  0  0  0  0  0  0  0  0  0  0  0
   10.8636  -17.4247   26.0318 O   0  0  0  0  0  0  0  0  0  0  0  0
   11.2780  -18.2664   25.2156 O   0  0  0  0  0  0  0  0  0  0  0  0
  2  1  1  6
  2  4  1  0
  3  2  1  0
  5  4  1  0
  5  6  1  6
  7  8  2  0
  7  5  1  0
  9 10  1  0
 10 12  1  0
 11 10  2  0
 12 13  1  0
 13 14  1  0
 14 15  1  0
 16 15  1  1
 16 17  1  0
 17  7  1  0
 18 19  2  0
 18 16  1  0
 20 18  1  0
 21 20  1  0
 21 22  1  1
 22 23  1  0
 23 31  1  0
 23 24  2  0
 24 25  1  0
 26 25  1  0
 26 27  2  0
 28 27  1  0
 29 28  2  0
 30 31  2  0
 30 29  1  0
 31 26  1  0
 32 21  1  0
 33 32  2  0
 34 32  1  0
M  END
$$$$
