LRW.pdb
     RDKit          3D

 34 35  0  0  1  0  0  0  0  0999 V2000
    7.6484  -11.8350   20.0868 C   0  0  0  0  0  0  0  0  0  0  0  0
    7.8888  -13.2517   19.6398 C   0  0  1  0  0  0  0  0  0  0  0  0
    9.0463  -13.3524   18.6985 C   0  0  0  0  0  0  0  0  0  0  0  0
    8.1062  -14.1765   20.8369 C   0  0  0  0  0  0  0  0  0  0  0  0
    8.3687  -15.5897   20.3796 C   0  0  2  0  0  0  0  0  0  0  0  0
    7.1789  -16.2079   19.8315 N   0  0  0  0  0  0  0  0  0  0  0  0
    8.8292  -16.4220   21.5160 C   0  0  0  0  0  0  0  0  0  0  0  0
    7.9684  -16.9204   22.2909 O   0  0  0  0  0  0  0  0  0  0  0  0
   12.6024  -22.1297   23.8306 N   0  0  0  0  0  0  0  0  0  0  0  0
   13.6956  -21.7160   23.0294 C   0  0  0  0  0  0  0  0  0  0  0  0
   14.3695  -22.6188   22.4139 N   0  0  0  0  0  0  0  0  0  0  0  0
   14.0591  -20.3541   22.8917 N   0  0  0  0  0  0  0  0  0  0  0  0
   13.7658  -19.3769   23.8913 C   0  0  0  0  0  0  0  0  0  0  0  0
   12.3024  -18.9873   23.9178 C   0  0  0  0  0  0  0  0  0  0  0  0
   11.9897  -17.9731   22.8391 C   0  0  0  0  0  0  0  0  0  0  0  0
   10.5515  -17.5232   22.8883 C   0  0  2  0  0  0  0  0  0  0  0  0
   10.1857  -16.6904   21.7821 N   0  0  0  0  0  0  0  0  0  0  0  0
   10.4174  -16.6926   24.1261 C   0  0  0  0  0  0  0  0  0  0  0  0
   10.6373  -15.4550   24.1387 O   0  0  0  0  0  0  0  0  0  0  0  0
   15.1845  -22.3581   21.8480 N   0  0  0  0  0  0  0  0  0  0  0  0
   10.0240  -17.3087   25.3586 C   0  0  1  0  0  0  0  0  0  0  0  0
    9.8769  -16.5532   26.5922 C   0  0  0  0  0  0  0  0  0  0  0  0
    8.4656  -16.6955   27.1196 C   0  0  0  0  0  0  0  0  0  0  0  0
    7.5765  -15.7829   26.3596 C   0  0  0  0  0  0  0  0  0  0  0  0
    6.5759  -16.1201   25.4587 N   0  0  0  0  0  0  0  0  0  0  0  0
    6.0013  -15.0145   24.9798 C   0  0  0  0  0  0  0  0  0  0  0  0
    6.6002  -13.9564   25.5445 C   0  0  0  0  0  0  0  0  0  0  0  0
    6.4283  -12.5835   25.4324 C   0  0  0  0  0  0  0  0  0  0  0  0
    7.2073  -11.7100   26.1519 C   0  0  0  0  0  0  0  0  0  0  0  0
    8.1895  -12.1526   27.0129 C   0  0  0  0  0  0  0  0  0  0  0  0
    8.3789  -13.5099   27.1412 C   0  0  0  0  0  0  0  0  0  0  0  0
    7.5996  -14.3847   26.4215 C   0  0  0  0  0  0  0  0  0  0  0  0
   10.8072  -17.0398   27.6295 O   0  0  0  0  0  0  0  0  0  0  0  0
   11.2270  -16.3436   28.5705 O   0  0  0  0  0  0  0  0  0  0  0  0
  2  1  1  1
  2  4  1  0
  3  2  1  0
  5  4  1  0
  5  6  1  1
  7  8  2  0
  7  5  1  0
  9 10  1  0
 10 12  1  0
 11 10  2  0
 12 13  1  0
 13 14  1  0
 14 15  1  0
 16 15  1  6
 16 17  1  0
 17  7  1  0
 18 19  2  0
 18 16  1  0
 20 18  1  0
 21 20  1  0
 21 22  1  1
 22 23  1  0
 23 31  1  0
 23 24  2  0
 24 25  1  0
 26 25  1  0
 26 27  2  0
 28 27  1  0
 29 28  2  0
 30 31  2  0
 30 29  1  0
 31 26  1  0
 32 21  1  0
 33 32  2  0
 34 32  1  0
M  END
$$$$
