LRW.pdb
     RDKit          3D

 34 35  0  0  1  0  0  0  0  0999 V2000
    7.8336  -11.5178   19.3421 C   0  0  0  0  0  0  0  0  0  0  0  0
    8.1793  -12.9186   18.9146 C   0  0  1  0  0  0  0  0  0  0  0  0
    9.5683  -13.0098   18.3680 C   0  0  0  0  0  0  0  0  0  0  0  0
    8.0059  -13.9045   20.0693 C   0  0  0  0  0  0  0  0  0  0  0  0
    8.5155  -15.2714   19.6859 C   0  0  2  0  0  0  0  0  0  0  0  0
    7.6449  -15.9213   18.7278 N   0  0  0  0  0  0  0  0  0  0  0  0
    8.6038  -16.1425   20.8816 C   0  0  0  0  0  0  0  0  0  0  0  0
    7.5955  -16.2475   21.6315 O   0  0  0  0  0  0  0  0  0  0  0  0
    9.3750  -22.8950   19.8575 N   0  0  0  0  0  0  0  0  0  0  0  0
   10.0414  -22.9420   21.1073 C   0  0  0  0  0  0  0  0  0  0  0  0
    9.7991  -23.9344   21.8844 N   0  0  0  0  0  0  0  0  0  0  0  0
   10.9537  -21.9384   21.5156 N   0  0  0  0  0  0  0  0  0  0  0  0
   11.2796  -20.8172   20.6928 C   0  0  0  0  0  0  0  0  0  0  0  0
   10.3368  -19.6490   20.8946 C   0  0  0  0  0  0  0  0  0  0  0  0
   10.6109  -18.9492   22.2081 C   0  0  0  0  0  0  0  0  0  0  0  0
    9.7551  -17.7200   22.3810 C   0  0  2  0  0  0  0  0  0  0  0  0
    9.7600  -16.8664   21.2311 N   0  0  0  0  0  0  0  0  0  0  0  0
   10.3642  -16.9437   23.5064 C   0  0  0  0  0  0  0  0  0  0  0  0
   11.2874  -16.1087   23.3318 O   0  0  0  0  0  0  0  0  0  0  0  0
   10.2304  -23.9790   22.8142 N   0  0  0  0  0  0  0  0  0  0  0  0
    9.8938  -17.1419   24.8454 C   0  0  2  0  0  0  0  0  0  0  0  0
   10.4250  -16.3943   25.9737 C   0  0  0  0  0  0  0  0  0  0  0  0
    9.9614  -14.9554   25.9037 C   0  0  0  0  0  0  0  0  0  0  0  0
    8.4834  -14.9224   26.0266 C   0  0  0  0  0  0  0  0  0  0  0  0
    7.5880  -15.9673   25.8450 N   0  0  0  0  0  0  0  0  0  0  0  0
    6.3395  -15.5379   26.0414 C   0  0  0  0  0  0  0  0  0  0  0  0
    6.3914  -14.2340   26.3484 C   0  0  0  0  0  0  0  0  0  0  0  0
    5.4291  -13.2798   26.6487 C   0  0  0  0  0  0  0  0  0  0  0  0
    5.7807  -11.9822   26.9315 C   0  0  0  0  0  0  0  0  0  0  0  0
    7.0967  -11.5696   26.9303 C   0  0  0  0  0  0  0  0  0  0  0  0
    8.0693  -12.4978   26.6357 C   0  0  0  0  0  0  0  0  0  0  0  0
    7.7181  -13.7966   26.3526 C   0  0  0  0  0  0  0  0  0  0  0  0
    9.9650  -16.9643   27.2550 O   0  0  0  0  0  0  0  0  0  0  0  0
   10.2331  -16.4805   28.3687 O   0  0  0  0  0  0  0  0  0  0  0  0
  2  1  1  1
  2  4  1  0
  3  2  1  0
  5  4  1  0
  5  6  1  6
  7  8  2  0
  7  5  1  0
  9 10  1  0
 10 12  1  0
 11 10  2  0
 12 13  1  0
 13 14  1  0
 14 15  1  0
 16 15  1  6
 16 17  1  0
 17  7  1  0
 18 19  2  0
 18 16  1  0
 20 18  1  0
 21 20  1  0
 21 22  1  6
 22 23  1  0
 23 31  1  0
 23 24  2  0
 24 25  1  0
 26 25  1  0
 26 27  2  0
 28 27  1  0
 29 28  2  0
 30 31  2  0
 30 29  1  0
 31 26  1  0
 32 21  1  0
 33 32  2  0
 34 32  1  0
M  END
$$$$
