LRW.pdb
     RDKit          3D

 34 35  0  0  1  0  0  0  0  0999 V2000
    6.0847  -12.7154   18.2176 C   0  0  0  0  0  0  0  0  0  0  0  0
    7.3946  -13.2996   18.6734 C   0  0  1  0  0  0  0  0  0  0  0  0
    8.4477  -12.2507   18.8375 C   0  0  0  0  0  0  0  0  0  0  0  0
    7.2250  -14.0791   19.9769 C   0  0  0  0  0  0  0  0  0  0  0  0
    8.5654  -14.3645   20.6069 C   0  0  2  0  0  0  0  0  0  0  0  0
    9.5676  -14.6939   19.6143 N   0  0  0  0  0  0  0  0  0  0  0  0
    8.4617  -15.5089   21.5429 C   0  0  0  0  0  0  0  0  0  0  0  0
    7.5177  -15.5253   22.3787 O   0  0  0  0  0  0  0  0  0  0  0  0
   14.3825  -19.6296   23.1742 N   0  0  0  0  0  0  0  0  0  0  0  0
   13.8297  -20.6093   24.0361 C   0  0  0  0  0  0  0  0  0  0  0  0
   14.5626  -21.0579   24.9897 N   0  0  0  0  0  0  0  0  0  0  0  0
   12.5104  -21.0991   23.8760 N   0  0  0  0  0  0  0  0  0  0  0  0
   11.6314  -20.6173   22.8585 C   0  0  0  0  0  0  0  0  0  0  0  0
   10.9444  -19.3233   23.2427 C   0  0  0  0  0  0  0  0  0  0  0  0
    9.9723  -18.8838   22.1694 C   0  0  0  0  0  0  0  0  0  0  0  0
    9.2532  -17.6133   22.5463 C   0  0  2  0  0  0  0  0  0  0  0  0
    9.3655  -16.5887   21.5521 N   0  0  0  0  0  0  0  0  0  0  0  0
    9.9289  -17.1031   23.7806 C   0  0  0  0  0  0  0  0  0  0  0  0
   11.0179  -16.4764   23.7469 O   0  0  0  0  0  0  0  0  0  0  0  0
   14.2247  -21.8230   25.5839 N   0  0  0  0  0  0  0  0  0  0  0  0
    9.3309  -17.3251   25.0638 C   0  0  2  0  0  0  0  0  0  0  0  0
    9.9018  -16.7901   26.2895 C   0  0  0  0  0  0  0  0  0  0  0  0
    8.8033  -16.5143   27.2931 C   0  0  0  0  0  0  0  0  0  0  0  0
    7.7528  -15.6955   26.6398 C   0  0  0  0  0  0  0  0  0  0  0  0
    6.6504  -16.1365   25.9209 N   0  0  0  0  0  0  0  0  0  0  0  0
    5.9406  -15.0923   25.4876 C   0  0  0  0  0  0  0  0  0  0  0  0
    6.5498  -13.9733   25.9045 C   0  0  0  0  0  0  0  0  0  0  0  0
    6.2759  -12.6203   25.7587 C   0  0  0  0  0  0  0  0  0  0  0  0
    7.0979  -11.6669   26.3087 C   0  0  0  0  0  0  0  0  0  0  0  0
    8.2257  -12.0065   27.0262 C   0  0  0  0  0  0  0  0  0  0  0  0
    8.5184  -13.3421   27.1845 C   0  0  0  0  0  0  0  0  0  0  0  0
    7.6960  -14.2968   26.6344 C   0  0  0  0  0  0  0  0  0  0  0  0
   10.8507  -17.7439   26.8962 O   0  0  0  0  0  0  0  0  0  0  0  0
   11.5231  -17.5048   27.9145 O   0  0  0  0  0  0  0  0  0  0  0  0
  2  1  1  1
  2  4  1  0
  3  2  1  0
  5  4  1  0
  5  6  1  6
  7  8  2  0
  7  5  1  0
  9 10  1  0
 10 12  1  0
 11 10  2  0
 12 13  1  0
 13 14  1  0
 14 15  1  0
 16 15  1  6
 16 17  1  0
 17  7  1  0
 18 19  2  0
 18 16  1  0
 20 18  1  0
 21 20  1  0
 21 22  1  1
 22 23  1  0
 23 31  1  0
 23 24  2  0
 24 25  1  0
 26 25  1  0
 26 27  2  0
 28 27  1  0
 29 28  2  0
 30 31  2  0
 30 29  1  0
 31 26  1  0
 32 21  1  0
 33 32  2  0
 34 32  1  0
M  END
$$$$
