ITF.pdb
     RDKit          3D

 27 27  0  0  1  0  0  0  0  0999 V2000
    6.5864  -10.5113   26.2322 C   0  0  0  0  0  0  0  0  0  0  0  0
    6.0274  -11.8453   25.8330 C   0  0  0  0  0  0  0  0  0  0  0  0
    7.1475  -12.8549   25.5261 C   0  0  2  0  0  0  0  0  0  0  0  0
    8.1008  -12.2838   24.5272 C   0  0  0  0  0  0  0  0  0  0  0  0
    6.5118  -14.1518   25.0199 C   0  0  2  0  0  0  0  0  0  0  0  0
    5.6838  -14.5913   26.1686 N   0  0  0  0  0  0  0  0  0  0  0  0
    7.4880  -15.2201   24.7836 C   0  0  0  0  0  0  0  0  0  0  0  0
    7.9654  -15.8611   25.7610 O   0  0  0  0  0  0  0  0  0  0  0  0
    7.8242  -17.0543   21.1255 C   0  0  0  0  0  0  0  0  0  0  0  0
    9.1321  -16.9223   21.8525 C   0  0  1  0  0  0  0  0  0  0  0  0
    9.9161  -15.8950   21.3776 O   0  0  0  0  0  0  0  0  0  0  0  0
    8.9178  -16.7090   23.3631 C   0  0  2  0  0  0  0  0  0  0  0  0
    7.9823  -15.6404   23.5078 N   0  0  0  0  0  0  0  0  0  0  0  0
   10.1938  -16.5636   24.0603 C   0  0  0  0  0  0  0  0  0  0  0  0
   10.8564  -15.4723   23.9396 O   0  0  0  0  0  0  0  0  0  0  0  0
   10.8172  -17.5284   24.8943 N   0  0  0  0  0  0  0  0  0  0  0  0
   12.0751  -17.2660   25.6127 C   0  0  1  0  0  0  0  0  0  0  0  0
   11.8787  -17.3967   27.0935 C   0  0  0  0  0  0  0  0  0  0  0  0
   10.9079  -16.4389   27.6657 C   0  0  0  0  0  0  0  0  0  0  0  0
   11.2920  -15.2048   28.1491 C   0  0  0  0  0  0  0  0  0  0  0  0
   10.3895  -14.3022   28.6792 C   0  0  0  0  0  0  0  0  0  0  0  0
    9.0543  -14.6157   28.7412 C   0  0  0  0  0  0  0  0  0  0  0  0
    8.6375  -15.8396   28.2675 C   0  0  0  0  0  0  0  0  0  0  0  0
    9.5440  -16.7332   27.7406 C   0  0  0  0  0  0  0  0  0  0  0  0
   13.1086  -18.1750   25.0954 C   0  0  0  0  0  0  0  0  0  0  0  0
   12.8040  -19.1312   24.1440 O   0  0  0  0  0  0  0  0  0  0  0  0
   14.2917  -18.1006   25.5085 O   0  0  0  0  0  0  0  0  0  0  0  0
  2  1  1  0
  3  2  1  0
  3  4  1  6
  5  6  1  1
  5  3  1  0
  7  5  1  0
  8  7  2  0
 10  9  1  6
 10 11  1  0
 12 10  1  0
 12 13  1  6
 13  7  1  0
 14 15  2  0
 14 12  1  0
 16 14  1  0
 17 25  1  0
 17 16  1  0
 17 18  1  1
 18 19  1  0
 19 20  2  0
 19 24  1  0
 20 21  1  0
 21 22  2  0
 23 22  1  0
 24 23  2  0
 25 26  1  0
 27 25  2  0
M  END
$$$$
