ITF.pdb
     RDKit          3D

 27 27  0  0  1  0  0  0  0  0999 V2000
    7.1689  -11.6268   19.7896 C   0  0  0  0  0  0  0  0  0  0  0  0
    7.6608  -13.0260   19.5620 C   0  0  0  0  0  0  0  0  0  0  0  0
    7.8258  -13.7867   20.8895 C   0  0  2  0  0  0  0  0  0  0  0  0
    8.8229  -13.0960   21.7622 C   0  0  0  0  0  0  0  0  0  0  0  0
    8.2491  -15.2244   20.5801 C   0  0  2  0  0  0  0  0  0  0  0  0
    7.0732  -15.7746   19.8640 N   0  0  0  0  0  0  0  0  0  0  0  0
    8.4216  -16.0474   21.7814 C   0  0  0  0  0  0  0  0  0  0  0  0
    7.4077  -16.4471   22.4189 O   0  0  0  0  0  0  0  0  0  0  0  0
   10.4981  -19.2402   22.2239 C   0  0  0  0  0  0  0  0  0  0  0  0
   10.8514  -18.2927   23.3348 C   0  0  1  0  0  0  0  0  0  0  0  0
   12.0473  -17.6411   23.1330 O   0  0  0  0  0  0  0  0  0  0  0  0
    9.7523  -17.2335   23.5425 C   0  0  2  0  0  0  0  0  0  0  0  0
    9.6700  -16.4717   22.3379 N   0  0  0  0  0  0  0  0  0  0  0  0
    9.9691  -16.4855   24.7790 C   0  0  0  0  0  0  0  0  0  0  0  0
   10.2544  -15.2367   24.7175 O   0  0  0  0  0  0  0  0  0  0  0  0
    9.8982  -16.9972   26.1012 N   0  0  0  0  0  0  0  0  0  0  0  0
    9.9158  -16.1317   27.2918 C   0  0  1  0  0  0  0  0  0  0  0  0
    8.5224  -15.7456   27.6891 C   0  0  0  0  0  0  0  0  0  0  0  0
    8.0711  -14.4476   27.1426 C   0  0  0  0  0  0  0  0  0  0  0  0
    8.8326  -13.3017   27.2487 C   0  0  0  0  0  0  0  0  0  0  0  0
    8.4202  -12.0868   26.7347 C   0  0  0  0  0  0  0  0  0  0  0  0
    7.2129  -11.9837   26.0892 C   0  0  0  0  0  0  0  0  0  0  0  0
    6.4282  -13.1086   25.9662 C   0  0  0  0  0  0  0  0  0  0  0  0
    6.8472  -14.3155   26.4815 C   0  0  0  0  0  0  0  0  0  0  0  0
   10.6395  -16.8273   28.3662 C   0  0  0  0  0  0  0  0  0  0  0  0
   11.1390  -16.1334   29.4532 O   0  0  0  0  0  0  0  0  0  0  0  0
   10.8188  -18.0688   28.3179 O   0  0  0  0  0  0  0  0  0  0  0  0
  2  1  1  0
  3  2  1  0
  3  4  1  1
  5  6  1  6
  5  3  1  0
  7  5  1  0
  8  7  2  0
 10  9  1  6
 10 11  1  0
 12 10  1  0
 12 13  1  6
 13  7  1  0
 14 15  2  0
 14 12  1  0
 16 14  1  0
 17 25  1  0
 17 16  1  0
 17 18  1  1
 18 19  1  0
 19 20  2  0
 19 24  1  0
 20 21  1  0
 21 22  2  0
 23 22  1  0
 24 23  2  0
 25 26  1  0
 27 25  2  0
M  END
$$$$
