ITF.pdb
     RDKit          3D

 27 27  0  0  1  0  0  0  0  0999 V2000
    7.7302  -11.9279   18.7087 C   0  0  0  0  0  0  0  0  0  0  0  0
    8.2157  -13.3466   18.7624 C   0  0  0  0  0  0  0  0  0  0  0  0
    7.9900  -13.9656   20.1531 C   0  0  2  0  0  0  0  0  0  0  0  0
    8.6151  -13.1117   21.2082 C   0  0  0  0  0  0  0  0  0  0  0  0
    8.5702  -15.3817   20.1583 C   0  0  2  0  0  0  0  0  0  0  0  0
    7.6727  -16.1164   19.2348 N   0  0  0  0  0  0  0  0  0  0  0  0
    8.4567  -16.0480   21.4595 C   0  0  0  0  0  0  0  0  0  0  0  0
    7.3188  -16.3684   21.9031 O   0  0  0  0  0  0  0  0  0  0  0  0
    9.3189  -19.3109   22.4662 C   0  0  0  0  0  0  0  0  0  0  0  0
   10.0164  -18.4375   23.4698 C   0  0  1  0  0  0  0  0  0  0  0  0
   11.3519  -18.2508   23.1920 O   0  0  0  0  0  0  0  0  0  0  0  0
    9.3461  -17.0545   23.5750 C   0  0  2  0  0  0  0  0  0  0  0  0
    9.5432  -16.3958   22.3238 N   0  0  0  0  0  0  0  0  0  0  0  0
    9.7939  -16.3421   24.7698 C   0  0  0  0  0  0  0  0  0  0  0  0
   10.7324  -15.4738   24.6703 O   0  0  0  0  0  0  0  0  0  0  0  0
    9.2921  -16.5015   26.0880 N   0  0  0  0  0  0  0  0  0  0  0  0
    9.8615  -15.7955   27.2475 C   0  0  1  0  0  0  0  0  0  0  0  0
    8.7779  -15.1694   28.0734 C   0  0  0  0  0  0  0  0  0  0  0  0
    8.0487  -14.0770   27.3937 C   0  0  0  0  0  0  0  0  0  0  0  0
    6.8025  -14.2646   26.8315 C   0  0  0  0  0  0  0  0  0  0  0  0
    6.1125  -13.2468   26.2006 C   0  0  0  0  0  0  0  0  0  0  0  0
    6.6606  -11.9911   26.1133 C   0  0  0  0  0  0  0  0  0  0  0  0
    7.9033  -11.7700   26.6640 C   0  0  0  0  0  0  0  0  0  0  0  0
    8.5839  -12.7904   27.2911 C   0  0  0  0  0  0  0  0  0  0  0  0
   10.6841  -16.7422   28.0150 C   0  0  0  0  0  0  0  0  0  0  0  0
   10.7419  -18.0794   27.6671 O   0  0  0  0  0  0  0  0  0  0  0  0
   11.3522  -16.3542   29.0043 O   0  0  0  0  0  0  0  0  0  0  0  0
  2  1  1  0
  3  2  1  0
  3  4  1  1
  5  6  1  6
  5  3  1  0
  7  5  1  0
  8  7  2  0
 10  9  1  6
 10 11  1  0
 12 10  1  0
 12 13  1  6
 13  7  1  0
 14 15  2  0
 14 12  1  0
 16 14  1  0
 17 25  1  0
 17 16  1  0
 17 18  1  1
 18 19  1  0
 19 20  2  0
 19 24  1  0
 20 21  1  0
 21 22  2  0
 23 22  1  0
 24 23  2  0
 25 26  1  0
 27 25  2  0
M  END
$$$$
