ITF.pdb
     RDKit          3D

 27 27  0  0  1  0  0  0  0  0999 V2000
    8.2502  -11.8995   19.1685 C   0  0  0  0  0  0  0  0  0  0  0  0
    7.7741  -13.3202   19.2473 C   0  0  0  0  0  0  0  0  0  0  0  0
    8.9196  -14.3124   18.9798 C   0  0  2  0  0  0  0  0  0  0  0  0
    9.4843  -14.0959   17.6133 C   0  0  0  0  0  0  0  0  0  0  0  0
    8.3831  -15.7358   19.1480 C   0  0  2  0  0  0  0  0  0  0  0  0
    7.3285  -15.8227   18.1094 N   0  0  0  0  0  0  0  0  0  0  0  0
    7.7131  -15.9527   20.4341 C   0  0  0  0  0  0  0  0  0  0  0  0
    6.7646  -15.1957   20.7829 O   0  0  0  0  0  0  0  0  0  0  0  0
    5.7490  -18.5474   22.0327 C   0  0  0  0  0  0  0  0  0  0  0  0
    6.8665  -18.2940   23.0040 C   0  0  1  0  0  0  0  0  0  0  0  0
    7.8281  -19.2792   22.9947 O   0  0  0  0  0  0  0  0  0  0  0  0
    7.5550  -16.9433   22.7304 C   0  0  2  0  0  0  0  0  0  0  0  0
    8.0261  -16.9772   21.3831 N   0  0  0  0  0  0  0  0  0  0  0  0
    8.5420  -16.6368   23.7636 C   0  0  0  0  0  0  0  0  0  0  0  0
    9.7778  -16.5238   23.4400 O   0  0  0  0  0  0  0  0  0  0  0  0
    8.2866  -16.4390   25.1458 N   0  0  0  0  0  0  0  0  0  0  0  0
    9.3349  -16.0428   26.1004 C   0  0  1  0  0  0  0  0  0  0  0  0
    9.5028  -14.5528   26.1173 C   0  0  0  0  0  0  0  0  0  0  0  0
    8.2539  -13.8023   26.3700 C   0  0  0  0  0  0  0  0  0  0  0  0
    8.1469  -12.8761   27.3873 C   0  0  0  0  0  0  0  0  0  0  0  0
    6.9850  -12.1664   27.6252 C   0  0  0  0  0  0  0  0  0  0  0  0
    5.8787  -12.3680   26.8376 C   0  0  0  0  0  0  0  0  0  0  0  0
    5.9518  -13.2857   25.8135 C   0  0  0  0  0  0  0  0  0  0  0  0
    7.1141  -13.9886   25.5835 C   0  0  0  0  0  0  0  0  0  0  0  0
    8.9961  -16.5902   27.4224 C   0  0  0  0  0  0  0  0  0  0  0  0
    7.8966  -17.4116   27.5921 O   0  0  0  0  0  0  0  0  0  0  0  0
    9.7005  -16.3219   28.4262 O   0  0  0  0  0  0  0  0  0  0  0  0
  2  1  1  0
  3  2  1  0
  3  4  1  6
  5  6  1  6
  5  3  1  0
  7  5  1  0
  8  7  2  0
 10  9  1  6
 10 11  1  0
 12 10  1  0
 12 13  1  6
 13  7  1  0
 14 15  2  0
 14 12  1  0
 16 14  1  0
 17 25  1  0
 17 16  1  0
 17 18  1  1
 18 19  1  0
 19 20  2  0
 19 24  1  0
 20 21  1  0
 21 22  2  0
 23 22  1  0
 24 23  2  0
 25 26  1  0
 27 25  2  0
M  END
$$$$
