ITF.pdb
     RDKit          3D

 27 27  0  0  1  0  0  0  0  0999 V2000
    7.8145  -12.0515   18.1339 C   0  0  0  0  0  0  0  0  0  0  0  0
    8.3009  -13.4701   18.1815 C   0  0  0  0  0  0  0  0  0  0  0  0
    8.0202  -14.1149   19.5502 C   0  0  2  0  0  0  0  0  0  0  0  0
    8.6870  -13.3355   20.6370 C   0  0  0  0  0  0  0  0  0  0  0  0
    8.5081  -15.5651   19.5171 C   0  0  2  0  0  0  0  0  0  0  0  0
    7.5950  -16.2049   18.5397 N   0  0  0  0  0  0  0  0  0  0  0  0
    8.3107  -16.2704   20.7874 C   0  0  0  0  0  0  0  0  0  0  0  0
    7.3858  -17.1231   20.8945 O   0  0  0  0  0  0  0  0  0  0  0  0
    7.8977  -18.6961   21.7670 C   0  0  0  0  0  0  0  0  0  0  0  0
    8.9191  -18.3286   22.8053 C   0  0  1  0  0  0  0  0  0  0  0  0
   10.2106  -18.6096   22.4199 O   0  0  0  0  0  0  0  0  0  0  0  0
    8.8376  -16.8345   23.1714 C   0  0  2  0  0  0  0  0  0  0  0  0
    9.0881  -16.0949   21.9763 N   0  0  0  0  0  0  0  0  0  0  0  0
    9.6836  -16.5278   24.3229 C   0  0  0  0  0  0  0  0  0  0  0  0
   10.9513  -16.4196   24.1617 O   0  0  0  0  0  0  0  0  0  0  0  0
    9.2522  -16.3250   25.6599 N   0  0  0  0  0  0  0  0  0  0  0  0
   10.1614  -15.8890   26.7324 C   0  0  1  0  0  0  0  0  0  0  0  0
   10.1509  -14.3953   26.8637 C   0  0  0  0  0  0  0  0  0  0  0  0
    8.8117  -13.7820   26.7317 C   0  0  0  0  0  0  0  0  0  0  0  0
    7.9660  -14.0838   25.6838 C   0  0  0  0  0  0  0  0  0  0  0  0
    6.7107  -13.5195   25.5575 C   0  0  0  0  0  0  0  0  0  0  0  0
    6.2595  -12.6217   26.4930 C   0  0  0  0  0  0  0  0  0  0  0  0
    7.0789  -12.2984   27.5515 C   0  0  0  0  0  0  0  0  0  0  0  0
    8.3287  -12.8658   27.6695 C   0  0  0  0  0  0  0  0  0  0  0  0
    9.7779  -16.5703   27.9777 C   0  0  0  0  0  0  0  0  0  0  0  0
   10.4900  -16.3712   29.1463 O   0  0  0  0  0  0  0  0  0  0  0  0
    8.7934  -17.3486   28.0048 O   0  0  0  0  0  0  0  0  0  0  0  0
  2  1  1  0
  3  2  1  0
  3  4  1  1
  5  6  1  6
  5  3  1  0
  7  5  1  0
  8  7  2  0
 10  9  1  6
 10 11  1  0
 12 10  1  0
 12 13  1  6
 13  7  1  0
 14 15  2  0
 14 12  1  0
 16 14  1  0
 17 25  1  0
 17 16  1  0
 17 18  1  1
 18 19  1  0
 19 20  2  0
 19 24  1  0
 20 21  1  0
 21 22  2  0
 23 22  1  0
 24 23  2  0
 25 26  1  0
 27 25  2  0
M  END
$$$$
