WRD.pdb
     RDKit          3D

 34 35  0  0  1  0  0  0  0  0999 V2000
   22.1434  -19.1218  -19.2435 N   0  0  0  0  0  0  0  0  0  0  0  0
   21.2737  -18.5625  -18.2493 C   0  0  1  0  0  0  0  0  0  0  0  0
   19.9041  -18.2808  -18.8180 C   0  0  0  0  0  0  0  0  0  0  0  0
   20.0446  -17.2230  -19.8462 C   0  0  0  0  0  0  0  0  0  0  0  0
   19.9904  -17.4294  -21.2138 C   0  0  0  0  0  0  0  0  0  0  0  0
   20.1546  -16.2645  -21.8265 N   0  0  0  0  0  0  0  0  0  0  0  0
   20.3134  -15.3118  -20.8904 C   0  0  0  0  0  0  0  0  0  0  0  0
   20.5167  -13.9474  -20.9686 C   0  0  0  0  0  0  0  0  0  0  0  0
   20.6515  -13.1777  -19.8410 C   0  0  0  0  0  0  0  0  0  0  0  0
   20.5876  -13.7472  -18.5836 C   0  0  0  0  0  0  0  0  0  0  0  0
   20.3851  -15.1070  -18.4948 C   0  0  0  0  0  0  0  0  0  0  0  0
   20.2503  -15.8756  -19.6364 C   0  0  0  0  0  0  0  0  0  0  0  0
   21.1787  -19.4768  -17.0733 C   0  0  0  0  0  0  0  0  0  0  0  0
   21.1350  -20.7155  -17.3084 O   0  0  0  0  0  0  0  0  0  0  0  0
   26.0375  -21.9039  -13.0264 N   0  0  0  0  0  0  0  0  0  0  0  0
   25.2691  -22.2004  -11.8566 C   0  0  0  0  0  0  0  0  0  0  0  0
   25.8085  -22.9964  -10.9913 N   0  0  0  0  0  0  0  0  0  0  0  0
   23.9940  -21.6188  -11.7175 N   0  0  0  0  0  0  0  0  0  0  0  0
   23.5174  -20.7570  -12.7936 C   0  0  0  0  0  0  0  0  0  0  0  0
   22.1650  -20.2227  -12.3969 C   0  0  0  0  0  0  0  0  0  0  0  0
   21.6566  -19.2253  -13.3816 C   0  0  0  0  0  0  0  0  0  0  0  0
   21.1309  -19.8748  -14.6219 C   0  0  2  0  0  0  0  0  0  0  0  0
   21.1386  -18.9882  -15.7470 N   0  0  0  0  0  0  0  0  0  0  0  0
   19.7756  -20.4557  -14.3930 C   0  0  0  0  0  0  0  0  0  0  0  0
   18.8050  -19.6777  -14.2706 O   0  0  0  0  0  0  0  0  0  0  0  0
   25.2735  -23.3166  -10.1569 N   0  0  0  0  0  0  0  0  0  0  0  0
   19.5533  -21.8470  -14.3101 C   0  0  2  0  0  0  0  0  0  0  0  0
   18.2430  -22.3868  -14.0242 C   0  0  0  0  0  0  0  0  0  0  0  0
   18.3737  -23.9039  -13.9634 C   0  0  0  0  0  0  0  0  0  0  0  0
   18.0898  -24.4644  -15.3058 O   0  0  0  0  0  0  0  0  0  0  0  0
   17.7378  -23.6898  -16.2305 C   0  0  0  0  0  0  0  0  0  0  0  0
   17.7613  -21.8962  -12.6981 O   0  0  0  0  0  0  0  0  0  0  0  0
   16.3956  -21.8173  -12.4422 O   0  0  0  0  0  0  0  0  0  0  0  0
   18.1900  -25.8155  -15.6111 O   0  0  0  0  0  0  0  0  0  0  0  0
  2  1  1  6
  3  2  1  0
  4  3  1  0
  5  4  2  0
  6  5  1  0
  7  6  1  0
  7 12  2  0
  8  7  1  0
  9  8  2  0
  9 10  1  0
 10 11  2  0
 11 12  1  0
 12  4  1  0
 13 14  2  0
 13  2  1  0
 16 15  1  0
 16 18  1  0
 17 16  2  0
 18 19  1  0
 19 20  1  0
 20 21  1  0
 22 21  1  1
 22 24  1  0
 22 23  1  0
 23 13  1  0
 24 25  2  0
 26 27  1  0
 26 24  1  0
 27 28  1  6
 28 29  1  0
 29 33  1  0
 30 29  2  0
 31 27  1  0
 32 31  1  0
 34 31  2  0
M  END
$$$$
