WRD.pdb
     RDKit          3D

 34 35  0  0  1  0  0  0  0  0999 V2000
   26.7719  -18.6437   -9.5790 N   0  0  0  0  0  0  0  0  0  0  0  0
   26.8050  -20.0525   -9.8472 C   0  0  1  0  0  0  0  0  0  0  0  0
   26.2864  -20.8445   -8.6715 C   0  0  0  0  0  0  0  0  0  0  0  0
   26.8672  -20.2646   -7.4376 C   0  0  0  0  0  0  0  0  0  0  0  0
   26.3496  -19.1835   -6.7455 C   0  0  0  0  0  0  0  0  0  0  0  0
   27.1235  -18.9403   -5.6961 N   0  0  0  0  0  0  0  0  0  0  0  0
   28.1270  -19.8359   -5.6928 C   0  0  0  0  0  0  0  0  0  0  0  0
   29.1983  -20.0379   -4.8441 C   0  0  0  0  0  0  0  0  0  0  0  0
   30.1049  -21.0443   -5.0623 C   0  0  0  0  0  0  0  0  0  0  0  0
   29.9735  -21.8927   -6.1451 C   0  0  0  0  0  0  0  0  0  0  0  0
   28.9085  -21.6995   -6.9974 C   0  0  0  0  0  0  0  0  0  0  0  0
   27.9993  -20.6828   -6.7702 C   0  0  0  0  0  0  0  0  0  0  0  0
   26.0206  -20.3619  -11.0789 C   0  0  0  0  0  0  0  0  0  0  0  0
   24.8086  -20.0123  -11.0933 O   0  0  0  0  0  0  0  0  0  0  0  0
   31.0881  -22.9462  -15.1677 N   0  0  0  0  0  0  0  0  0  0  0  0
   29.8282  -23.5661  -15.4418 C   0  0  0  0  0  0  0  0  0  0  0  0
   29.7785  -24.8547  -15.3411 N   0  0  0  0  0  0  0  0  0  0  0  0
   28.7355  -22.7522  -15.7983 N   0  0  0  0  0  0  0  0  0  0  0  0
   28.9238  -21.3061  -15.7652 C   0  0  0  0  0  0  0  0  0  0  0  0
   27.9721  -20.7366  -14.7445 C   0  0  0  0  0  0  0  0  0  0  0  0
   26.7910  -21.6228  -14.5382 C   0  0  0  0  0  0  0  0  0  0  0  0
   25.9052  -21.1346  -13.4367 C   0  0  2  0  0  0  0  0  0  0  0  0
   26.5995  -21.0187  -12.1892 N   0  0  0  0  0  0  0  0  0  0  0  0
   24.6870  -21.9866  -13.3073 C   0  0  0  0  0  0  0  0  0  0  0  0
   24.5702  -22.7124  -12.2964 O   0  0  0  0  0  0  0  0  0  0  0  0
   28.8713  -25.3602  -15.4216 N   0  0  0  0  0  0  0  0  0  0  0  0
   23.6670  -22.0010  -14.2827 C   0  0  1  0  0  0  0  0  0  0  0  0
   22.2795  -22.1871  -13.9219 C   0  0  0  0  0  0  0  0  0  0  0  0
   21.9112  -21.0907  -12.9296 C   0  0  0  0  0  0  0  0  0  0  0  0
   20.5364  -21.3350  -12.4327 O   0  0  0  0  0  0  0  0  0  0  0  0
   20.1024  -22.5134  -12.3871 C   0  0  0  0  0  0  0  0  0  0  0  0
   21.4100  -22.0496  -15.1288 O   0  0  0  0  0  0  0  0  0  0  0  0
   20.3193  -22.8973  -15.2977 O   0  0  0  0  0  0  0  0  0  0  0  0
   19.6828  -20.3257  -12.0069 O   0  0  0  0  0  0  0  0  0  0  0  0
  2  1  1  1
  3  2  1  0
  4  3  1  0
  5  4  2  0
  6  5  1  0
  7  6  1  0
  7 12  2  0
  8  7  1  0
  9  8  2  0
  9 10  1  0
 10 11  2  0
 11 12  1  0
 12  4  1  0
 13 14  2  0
 13  2  1  0
 16 15  1  0
 16 18  1  0
 17 16  2  0
 18 19  1  0
 19 20  1  0
 20 21  1  0
 22 21  1  6
 22 24  1  0
 22 23  1  0
 23 13  1  0
 24 25  2  0
 26 27  1  0
 26 24  1  0
 27 28  1  6
 28 29  1  0
 29 33  1  0
 30 29  2  0
 31 27  1  0
 32 31  1  0
 34 31  2  0
M  END
$$$$
