WRD.pdb
     RDKit          3D

 34 35  0  0  1  0  0  0  0  0999 V2000
   24.8270  -15.2403  -18.8570 N   0  0  0  0  0  0  0  0  0  0  0  0
   25.2392  -15.5890  -17.5280 C   0  0  1  0  0  0  0  0  0  0  0  0
   24.2617  -15.0730  -16.5000 C   0  0  0  0  0  0  0  0  0  0  0  0
   24.5016  -13.6206  -16.3296 C   0  0  0  0  0  0  0  0  0  0  0  0
   23.5842  -12.6233  -16.6120 C   0  0  0  0  0  0  0  0  0  0  0  0
   24.1371  -11.4482  -16.3422 N   0  0  0  0  0  0  0  0  0  0  0  0
   25.3870  -11.6608  -15.8932 C   0  0  0  0  0  0  0  0  0  0  0  0
   26.3895  -10.8066  -15.4757 C   0  0  0  0  0  0  0  0  0  0  0  0
   27.6055  -11.2815  -15.0539 C   0  0  0  0  0  0  0  0  0  0  0  0
   27.8670  -12.6383  -15.0336 C   0  0  0  0  0  0  0  0  0  0  0  0
   26.8738  -13.4984  -15.4480 C   0  0  0  0  0  0  0  0  0  0  0  0
   25.6509  -13.0114  -15.8716 C   0  0  0  0  0  0  0  0  0  0  0  0
   25.3986  -17.0682  -17.4085 C   0  0  0  0  0  0  0  0  0  0  0  0
   24.5351  -17.7889  -17.9799 O   0  0  0  0  0  0  0  0  0  0  0  0
   26.7825  -23.2648  -18.0979 N   0  0  0  0  0  0  0  0  0  0  0  0
   27.7698  -23.8321  -17.2317 C   0  0  0  0  0  0  0  0  0  0  0  0
   27.7209  -25.1121  -17.0517 N   0  0  0  0  0  0  0  0  0  0  0  0
   28.7201  -22.9797  -16.6369 N   0  0  0  0  0  0  0  0  0  0  0  0
   28.5841  -21.5450  -16.8627 C   0  0  0  0  0  0  0  0  0  0  0  0
   27.9386  -20.9414  -15.6418 C   0  0  0  0  0  0  0  0  0  0  0  0
   27.8033  -19.4617  -15.7652 C   0  0  0  0  0  0  0  0  0  0  0  0
   26.6282  -19.0707  -16.6034 C   0  0  2  0  0  0  0  0  0  0  0  0
   26.4673  -17.6499  -16.6882 N   0  0  0  0  0  0  0  0  0  0  0  0
   25.3804  -19.7345  -16.1250 C   0  0  0  0  0  0  0  0  0  0  0  0
   24.9004  -19.3832  -15.0257 O   0  0  0  0  0  0  0  0  0  0  0  0
   28.3726  -25.5815  -16.3884 N   0  0  0  0  0  0  0  0  0  0  0  0
   24.7265  -20.7409  -16.8679 C   0  0  2  0  0  0  0  0  0  0  0  0
   23.5806  -21.4459  -16.3392 C   0  0  0  0  0  0  0  0  0  0  0  0
   23.0999  -22.4138  -17.4138 C   0  0  0  0  0  0  0  0  0  0  0  0
   21.8331  -23.0387  -16.9651 O   0  0  0  0  0  0  0  0  0  0  0  0
   21.8325  -24.2506  -16.6329 C   0  0  0  0  0  0  0  0  0  0  0  0
   23.9712  -22.2315  -15.1301 O   0  0  0  0  0  0  0  0  0  0  0  0
   23.1535  -22.2233  -14.0040 O   0  0  0  0  0  0  0  0  0  0  0  0
   20.6256  -22.3572  -16.8876 O   0  0  0  0  0  0  0  0  0  0  0  0
  2  1  1  6
  3  2  1  0
  4  3  1  0
  5  4  2  0
  6  5  1  0
  7  6  1  0
  7 12  2  0
  8  7  1  0
  9  8  2  0
  9 10  1  0
 10 11  2  0
 11 12  1  0
 12  4  1  0
 13 14  2  0
 13  2  1  0
 16 15  1  0
 16 18  1  0
 17 16  2  0
 18 19  1  0
 19 20  1  0
 20 21  1  0
 22 21  1  1
 22 24  1  0
 22 23  1  0
 23 13  1  0
 24 25  2  0
 26 27  1  0
 26 24  1  0
 27 28  1  6
 28 29  1  0
 29 33  1  0
 30 29  2  0
 31 27  1  0
 32 31  1  0
 34 31  2  0
M  END
$$$$
