WRD.pdb
     RDKit          3D

 34 35  0  0  1  0  0  0  0  0999 V2000
   28.0051  -21.3472   -8.8351 N   0  0  0  0  0  0  0  0  0  0  0  0
   26.5975  -21.0842   -8.9217 C   0  0  1  0  0  0  0  0  0  0  0  0
   26.1916  -19.9707   -7.9869 C   0  0  0  0  0  0  0  0  0  0  0  0
   26.5817  -20.3629   -6.6121 C   0  0  0  0  0  0  0  0  0  0  0  0
   25.9143  -21.2880   -5.8280 C   0  0  0  0  0  0  0  0  0  0  0  0
   26.5396  -21.3874   -4.6625 N   0  0  0  0  0  0  0  0  0  0  0  0
   27.5927  -20.5509   -4.6736 C   0  0  0  0  0  0  0  0  0  0  0  0
   28.5661  -20.2591   -3.7375 C   0  0  0  0  0  0  0  0  0  0  0  0
   29.5570  -19.3460   -3.9955 C   0  0  0  0  0  0  0  0  0  0  0  0
   29.6125  -18.6856   -5.2081 C   0  0  0  0  0  0  0  0  0  0  0  0
   28.6465  -18.9696   -6.1484 C   0  0  0  0  0  0  0  0  0  0  0  0
   27.6512  -19.8913   -5.8802 C   0  0  0  0  0  0  0  0  0  0  0  0
   26.2192  -20.7566  -10.3279 C   0  0  0  0  0  0  0  0  0  0  0  0
   26.7517  -19.7366  -10.8453 O   0  0  0  0  0  0  0  0  0  0  0  0
   28.0205  -23.3860  -15.9798 N   0  0  0  0  0  0  0  0  0  0  0  0
   27.6046  -22.3380  -16.8604 C   0  0  0  0  0  0  0  0  0  0  0  0
   27.5614  -22.6197  -18.1222 N   0  0  0  0  0  0  0  0  0  0  0  0
   27.2720  -21.0840  -16.3124 N   0  0  0  0  0  0  0  0  0  0  0  0
   26.8949  -21.0344  -14.9042 C   0  0  0  0  0  0  0  0  0  0  0  0
   25.5625  -21.7233  -14.7552 C   0  0  0  0  0  0  0  0  0  0  0  0
   25.3772  -22.2725  -13.3815 C   0  0  0  0  0  0  0  0  0  0  0  0
   24.9444  -21.2229  -12.4081 C   0  0  2  0  0  0  0  0  0  0  0  0
   25.3041  -21.5476  -11.0602 N   0  0  0  0  0  0  0  0  0  0  0  0
   23.4840  -20.9427  -12.5318 C   0  0  0  0  0  0  0  0  0  0  0  0
   22.6923  -21.5580  -11.7855 O   0  0  0  0  0  0  0  0  0  0  0  0
   27.3355  -21.8841  -18.8242 N   0  0  0  0  0  0  0  0  0  0  0  0
   22.9684  -20.0110  -13.4582 C   0  0  2  0  0  0  0  0  0  0  0  0
   21.5494  -19.7555  -13.5623 C   0  0  0  0  0  0  0  0  0  0  0  0
   21.3708  -18.2780  -13.8905 C   0  0  0  0  0  0  0  0  0  0  0  0
   19.9887  -17.8724  -13.5415 O   0  0  0  0  0  0  0  0  0  0  0  0
   19.2440  -18.6885  -12.9428 C   0  0  0  0  0  0  0  0  0  0  0  0
   20.9596  -20.5649  -14.6707 O   0  0  0  0  0  0  0  0  0  0  0  0
   21.7943  -21.1991  -15.5861 O   0  0  0  0  0  0  0  0  0  0  0  0
   19.4557  -16.6252  -13.8398 O   0  0  0  0  0  0  0  0  0  0  0  0
  2  1  1  6
  3  2  1  0
  4  3  1  0
  5  4  2  0
  6  5  1  0
  7  6  1  0
  7 12  2  0
  8  7  1  0
  9  8  2  0
  9 10  1  0
 10 11  2  0
 11 12  1  0
 12  4  1  0
 13 14  2  0
 13  2  1  0
 16 15  1  0
 16 18  1  0
 17 16  2  0
 18 19  1  0
 19 20  1  0
 20 21  1  0
 22 21  1  6
 22 24  1  0
 22 23  1  0
 23 13  1  0
 24 25  2  0
 26 27  1  0
 26 24  1  0
 27 28  1  6
 28 29  1  0
 29 33  1  0
 30 29  2  0
 31 27  1  0
 32 31  1  0
 34 31  2  0
M  END
$$$$
