WRD.pdb
     RDKit          3D

 34 35  0  0  1  0  0  0  0  0999 V2000
   27.8716  -21.4825  -10.6373 N   0  0  0  0  0  0  0  0  0  0  0  0
   26.5797  -21.1873  -10.0881 C   0  0  1  0  0  0  0  0  0  0  0  0
   26.6625  -20.0862   -9.0589 C   0  0  0  0  0  0  0  0  0  0  0  0
   27.9316  -20.2526   -8.3123 C   0  0  0  0  0  0  0  0  0  0  0  0
   29.1040  -20.7665   -8.8389 C   0  0  0  0  0  0  0  0  0  0  0  0
   30.0310  -20.7693   -7.8902 N   0  0  0  0  0  0  0  0  0  0  0  0
   29.4878  -20.2708   -6.7653 C   0  0  0  0  0  0  0  0  0  0  0  0
   29.9946  -20.0513   -5.4988 C   0  0  0  0  0  0  0  0  0  0  0  0
   29.2195  -19.5193   -4.4996 C   0  0  0  0  0  0  0  0  0  0  0  0
   27.8989  -19.1842   -4.7307 C   0  0  0  0  0  0  0  0  0  0  0  0
   27.3841  -19.3992   -5.9903 C   0  0  0  0  0  0  0  0  0  0  0  0
   28.1722  -19.9358   -6.9918 C   0  0  0  0  0  0  0  0  0  0  0  0
   25.6273  -20.8208  -11.1773 C   0  0  0  0  0  0  0  0  0  0  0  0
   25.8303  -19.7299  -11.7775 O   0  0  0  0  0  0  0  0  0  0  0  0
   27.6633  -23.7946  -16.0334 N   0  0  0  0  0  0  0  0  0  0  0  0
   26.4707  -23.5797  -16.7939 C   0  0  0  0  0  0  0  0  0  0  0  0
   26.2861  -24.3479  -17.8181 N   0  0  0  0  0  0  0  0  0  0  0  0
   25.5833  -22.5632  -16.3904 N   0  0  0  0  0  0  0  0  0  0  0  0
   25.8264  -21.9174  -15.1053 C   0  0  0  0  0  0  0  0  0  0  0  0
   25.2586  -22.8025  -14.0254 C   0  0  0  0  0  0  0  0  0  0  0  0
   23.8411  -22.4564  -13.7186 C   0  0  0  0  0  0  0  0  0  0  0  0
   23.7341  -21.3815  -12.6845 C   0  0  2  0  0  0  0  0  0  0  0  0
   24.5396  -21.6520  -11.5313 N   0  0  0  0  0  0  0  0  0  0  0  0
   22.3110  -21.1327  -12.3111 C   0  0  0  0  0  0  0  0  0  0  0  0
   21.8337  -21.7473  -11.3329 O   0  0  0  0  0  0  0  0  0  0  0  0
   25.4220  -24.2683  -18.3943 N   0  0  0  0  0  0  0  0  0  0  0  0
   21.4892  -20.2316  -13.0215 C   0  0  2  0  0  0  0  0  0  0  0  0
   20.0985  -20.0432  -12.6743 C   0  0  0  0  0  0  0  0  0  0  0  0
   19.5243  -18.9999  -13.6253 C   0  0  0  0  0  0  0  0  0  0  0  0
   19.4254  -17.7039  -12.9132 O   0  0  0  0  0  0  0  0  0  0  0  0
   19.7373  -17.6483  -11.6972 C   0  0  0  0  0  0  0  0  0  0  0  0
   19.3444  -21.3198  -12.8553 O   0  0  0  0  0  0  0  0  0  0  0  0
   18.2280  -21.5833  -12.0673 O   0  0  0  0  0  0  0  0  0  0  0  0
   19.0022  -16.5266  -13.5160 O   0  0  0  0  0  0  0  0  0  0  0  0
  2  1  1  6
  3  2  1  0
  4  3  1  0
  5  4  2  0
  6  5  1  0
  7  6  1  0
  7 12  2  0
  8  7  1  0
  9  8  2  0
  9 10  1  0
 10 11  2  0
 11 12  1  0
 12  4  1  0
 13 14  2  0
 13  2  1  0
 16 15  1  0
 16 18  1  0
 17 16  2  0
 18 19  1  0
 19 20  1  0
 20 21  1  0
 22 21  1  6
 22 24  1  0
 22 23  1  0
 23 13  1  0
 24 25  2  0
 26 27  1  0
 26 24  1  0
 27 28  1  1
 28 29  1  0
 29 33  1  0
 30 29  2  0
 31 27  1  0
 32 31  1  0
 34 31  2  0
M  END
$$$$
