WRD.pdb
     RDKit          3D

 34 35  0  0  1  0  0  0  0  0999 V2000
   28.3025  -21.4518  -11.7788 N   0  0  0  0  0  0  0  0  0  0  0  0
   27.1341  -20.9963  -11.0822 C   0  0  1  0  0  0  0  0  0  0  0  0
   27.4583  -19.8365  -10.1722 C   0  0  0  0  0  0  0  0  0  0  0  0
   28.4602  -20.2978   -9.1826 C   0  0  0  0  0  0  0  0  0  0  0  0
   29.7082  -20.8102   -9.4923 C   0  0  0  0  0  0  0  0  0  0  0  0
   30.3330  -21.1192   -8.3638 N   0  0  0  0  0  0  0  0  0  0  0  0
   29.5211  -20.8199   -7.3341 C   0  0  0  0  0  0  0  0  0  0  0  0
   29.6644  -20.9363   -5.9648 C   0  0  0  0  0  0  0  0  0  0  0  0
   28.6667  -20.5519   -5.1052 C   0  0  0  0  0  0  0  0  0  0  0  0
   27.4795  -20.0329   -5.5856 C   0  0  0  0  0  0  0  0  0  0  0  0
   27.3268  -19.9127   -6.9495 C   0  0  0  0  0  0  0  0  0  0  0  0
   28.3375  -20.3025   -7.8090 C   0  0  0  0  0  0  0  0  0  0  0  0
   26.0665  -20.6209  -12.0555 C   0  0  0  0  0  0  0  0  0  0  0  0
   26.2524  -19.5782  -12.7409 O   0  0  0  0  0  0  0  0  0  0  0  0
   27.4744  -23.6857  -16.1709 N   0  0  0  0  0  0  0  0  0  0  0  0
   27.0697  -24.8943  -15.5210 C   0  0  0  0  0  0  0  0  0  0  0  0
   27.9953  -25.7657  -15.2820 N   0  0  0  0  0  0  0  0  0  0  0  0
   25.7122  -25.0618  -15.1852 N   0  0  0  0  0  0  0  0  0  0  0  0
   24.8063  -23.9459  -15.4341 C   0  0  0  0  0  0  0  0  0  0  0  0
   24.8402  -23.0419  -14.2285 C   0  0  0  0  0  0  0  0  0  0  0  0
   23.8586  -21.9261  -14.3493 C   0  0  0  0  0  0  0  0  0  0  0  0
   23.8761  -21.0276  -13.1539 C   0  0  2  0  0  0  0  0  0  0  0  0
   24.8920  -21.3923  -12.2123 N   0  0  0  0  0  0  0  0  0  0  0  0
   22.5318  -20.9616  -12.5097 C   0  0  0  0  0  0  0  0  0  0  0  0
   22.2831  -21.7413  -11.5649 O   0  0  0  0  0  0  0  0  0  0  0  0
   27.7651  -26.6774  -14.8340 N   0  0  0  0  0  0  0  0  0  0  0  0
   21.5360  -20.0534  -12.9287 C   0  0  2  0  0  0  0  0  0  0  0  0
   20.2342  -20.0174  -12.3012 C   0  0  0  0  0  0  0  0  0  0  0  0
   19.4645  -18.8489  -12.9050 C   0  0  0  0  0  0  0  0  0  0  0  0
   18.1217  -18.7848  -12.2811 O   0  0  0  0  0  0  0  0  0  0  0  0
   17.8551  -19.5520  -11.3223 C   0  0  0  0  0  0  0  0  0  0  0  0
   19.4882  -21.2792  -12.5887 O   0  0  0  0  0  0  0  0  0  0  0  0
   18.6181  -21.8025  -11.6369 O   0  0  0  0  0  0  0  0  0  0  0  0
   17.1221  -17.9151  -12.6970 O   0  0  0  0  0  0  0  0  0  0  0  0
  2  1  1  6
  3  2  1  0
  4  3  1  0
  5  4  2  0
  6  5  1  0
  7  6  1  0
  7 12  2  0
  8  7  1  0
  9  8  2  0
  9 10  1  0
 10 11  2  0
 11 12  1  0
 12  4  1  0
 13 14  2  0
 13  2  1  0
 16 15  1  0
 16 18  1  0
 17 16  2  0
 18 19  1  0
 19 20  1  0
 20 21  1  0
 22 21  1  6
 22 24  1  0
 22 23  1  0
 23 13  1  0
 24 25  2  0
 26 27  1  0
 26 24  1  0
 27 28  1  6
 28 29  1  0
 29 33  1  0
 30 29  2  0
 31 27  1  0
 32 31  1  0
 34 31  2  0
M  END
$$$$
