WRD.pdb
     RDKit          3D

 34 35  0  0  1  0  0  0  0  0999 V2000
   23.2745  -15.9252  -16.7345 N   0  0  0  0  0  0  0  0  0  0  0  0
   24.4078  -16.5706  -16.1370 C   0  0  1  0  0  0  0  0  0  0  0  0
   25.2056  -15.6044  -15.2953 C   0  0  0  0  0  0  0  0  0  0  0  0
   26.4304  -15.2454  -16.0482 C   0  0  0  0  0  0  0  0  0  0  0  0
   26.6735  -14.0151  -16.6340 C   0  0  0  0  0  0  0  0  0  0  0  0
   27.8624  -14.0510  -17.2209 N   0  0  0  0  0  0  0  0  0  0  0  0
   28.3931  -15.2719  -17.0294 C   0  0  0  0  0  0  0  0  0  0  0  0
   29.5891  -15.8442  -17.4181 C   0  0  0  0  0  0  0  0  0  0  0  0
   29.9037  -17.1386  -17.0899 C   0  0  0  0  0  0  0  0  0  0  0  0
   29.0281  -17.9153  -16.3555 C   0  0  0  0  0  0  0  0  0  0  0  0
   27.8327  -17.3540  -15.9630 C   0  0  0  0  0  0  0  0  0  0  0  0
   27.5234  -16.0485  -16.2980 C   0  0  0  0  0  0  0  0  0  0  0  0
   23.9653  -17.7398  -15.3215 C   0  0  0  0  0  0  0  0  0  0  0  0
   23.0052  -17.5559  -14.5240 O   0  0  0  0  0  0  0  0  0  0  0  0
   19.6763  -20.1006  -14.1373 N   0  0  0  0  0  0  0  0  0  0  0  0
   19.4263  -21.2303  -14.9788 C   0  0  0  0  0  0  0  0  0  0  0  0
   18.3785  -21.1731  -15.7353 N   0  0  0  0  0  0  0  0  0  0  0  0
   20.3192  -22.3185  -14.9358 N   0  0  0  0  0  0  0  0  0  0  0  0
   21.7014  -22.0508  -14.5543 C   0  0  0  0  0  0  0  0  0  0  0  0
   22.4247  -21.5240  -15.7673 C   0  0  0  0  0  0  0  0  0  0  0  0
   23.8790  -21.3315  -15.5007 C   0  0  0  0  0  0  0  0  0  0  0  0
   24.1428  -20.1262  -14.6557 C   0  0  2  0  0  0  0  0  0  0  0  0
   24.5873  -19.0051  -15.4285 N   0  0  0  0  0  0  0  0  0  0  0  0
   25.0952  -20.4407  -13.5508 C   0  0  0  0  0  0  0  0  0  0  0  0
   26.3216  -20.3944  -13.7878 O   0  0  0  0  0  0  0  0  0  0  0  0
   18.1123  -21.9802  -16.3376 N   0  0  0  0  0  0  0  0  0  0  0  0
   24.6607  -20.7872  -12.2534 C   0  0  2  0  0  0  0  0  0  0  0  0
   25.6008  -21.0508  -11.1873 C   0  0  0  0  0  0  0  0  0  0  0  0
   24.8000  -21.2436   -9.9051 C   0  0  0  0  0  0  0  0  0  0  0  0
   25.4343  -20.4578   -8.8203 O   0  0  0  0  0  0  0  0  0  0  0  0
   26.5345  -19.8910   -9.0379 C   0  0  0  0  0  0  0  0  0  0  0  0
   26.3603  -22.3060  -11.4684 O   0  0  0  0  0  0  0  0  0  0  0  0
   25.9545  -23.1455  -12.5015 O   0  0  0  0  0  0  0  0  0  0  0  0
   24.8795  -20.3062   -7.5562 O   0  0  0  0  0  0  0  0  0  0  0  0
  2  1  1  1
  3  2  1  0
  4  3  1  0
  5  4  2  0
  6  5  1  0
  7  6  1  0
  7 12  2  0
  8  7  1  0
  9  8  2  0
  9 10  1  0
 10 11  2  0
 11 12  1  0
 12  4  1  0
 13 14  2  0
 13  2  1  0
 16 15  1  0
 16 18  1  0
 17 16  2  0
 18 19  1  0
 19 20  1  0
 20 21  1  0
 22 21  1  6
 22 24  1  0
 22 23  1  0
 23 13  1  0
 24 25  2  0
 26 27  1  0
 26 24  1  0
 27 28  1  6
 28 29  1  0
 29 33  1  0
 30 29  2  0
 31 27  1  0
 32 31  1  0
 34 31  2  0
M  END
$$$$
