VAC.pdb
     RDKit          3D

 19 18  0  0  1  0  0  0  0  0999 V2000
   19.7983  -13.5010  -18.3700 C   0  0  0  0  0  0  0  0  0  0  0  0
   21.1875  -13.7401  -18.9176 C   0  0  2  0  0  0  0  0  0  0  0  0
   21.1288  -14.8451  -19.9678 C   0  0  0  0  0  0  0  0  0  0  0  0
   22.1550  -14.1779  -17.8537 C   0  0  2  0  0  0  0  0  0  0  0  0
   21.7984  -15.4109  -17.2299 N   0  0  0  0  0  0  0  0  0  0  0  0
   22.2252  -13.1143  -16.8210 C   0  0  0  0  0  0  0  0  0  0  0  0
   21.3312  -13.0245  -15.9098 O   0  0  0  0  0  0  0  0  0  0  0  0
   24.5974  -10.2706  -16.0378 C   0  0  0  0  0  0  0  0  0  0  0  0
   23.3165  -11.0693  -15.9330 C   0  0  2  0  0  0  0  0  0  0  0  0
   23.2930  -12.1813  -16.8363 N   0  0  0  0  0  0  0  0  0  0  0  0
   22.2005  -10.1266  -16.1434 C   0  0  0  0  0  0  0  0  0  0  0  0
   21.7038  -10.0335  -17.2826 O   0  0  0  0  0  0  0  0  0  0  0  0
   21.6874   -9.3358  -15.0953 N   0  0  0  0  0  0  0  0  0  0  0  0
   20.6403   -8.3527  -15.2731 C   0  0  1  0  0  0  0  0  0  0  0  0
   19.2792   -8.9441  -14.9653 C   0  0  0  0  0  0  0  0  0  0  0  0
   18.0324   -7.6683  -14.7598 S   0  0  0  0  0  0  0  0  0  0  0  0
   20.9075   -7.2034  -14.3797 C   0  0  0  0  0  0  0  0  0  0  0  0
   20.6896   -6.0145  -14.7289 O   0  0  0  0  0  0  0  0  0  0  0  0
   21.4161   -7.4067  -13.1060 O   0  0  0  0  0  0  0  0  0  0  0  0
  2  1  1  1
  2  4  1  0
  3  2  1  0
  4  6  1  0
  4  5  1  1
  6  7  2  0
  9  8  1  6
 10  9  1  0
 10  6  1  0
 11 12  2  0
 11  9  1  0
 13 11  1  0
 14 13  1  0
 14 15  1  1
 16 15  1  0
 17 19  1  0
 17 14  1  0
 18 17  2  0
M  END
$$$$
