VAC.pdb
     RDKit          3D

 19 18  0  0  1  0  0  0  0  0999 V2000
   22.5570  -16.0912  -15.1436 C   0  0  0  0  0  0  0  0  0  0  0  0
   22.4459  -14.7425  -15.8186 C   0  0  2  0  0  0  0  0  0  0  0  0
   22.5915  -13.6439  -14.7701 C   0  0  0  0  0  0  0  0  0  0  0  0
   21.1179  -14.5487  -16.4958 C   0  0  2  0  0  0  0  0  0  0  0  0
   20.8376  -15.5288  -17.4943 N   0  0  0  0  0  0  0  0  0  0  0  0
   21.1049  -13.2023  -17.1202 C   0  0  0  0  0  0  0  0  0  0  0  0
   21.8128  -12.9530  -18.1568 O   0  0  0  0  0  0  0  0  0  0  0  0
   19.1797  -10.6173  -18.0887 C   0  0  0  0  0  0  0  0  0  0  0  0
   20.3153  -10.8490  -17.1160 C   0  0  2  0  0  0  0  0  0  0  0  0
   20.3009  -12.1729  -16.5680 N   0  0  0  0  0  0  0  0  0  0  0  0
   20.2260   -9.7941  -16.0876 C   0  0  0  0  0  0  0  0  0  0  0  0
   19.4385   -9.9534  -15.1350 O   0  0  0  0  0  0  0  0  0  0  0  0
   21.0039   -8.6205  -16.1568 N   0  0  0  0  0  0  0  0  0  0  0  0
   20.9196   -7.5461  -15.1907 C   0  0  1  0  0  0  0  0  0  0  0  0
   22.1969   -6.7306  -15.1692 C   0  0  0  0  0  0  0  0  0  0  0  0
   23.6178   -7.7349  -14.7257 S   0  0  0  0  0  0  0  0  0  0  0  0
   19.7709   -6.6801  -15.5386 C   0  0  0  0  0  0  0  0  0  0  0  0
   19.2539   -6.6766  -16.6856 O   0  0  0  0  0  0  0  0  0  0  0  0
   19.2195   -5.8301  -14.5923 O   0  0  0  0  0  0  0  0  0  0  0  0
  2  1  1  1
  2  4  1  0
  3  2  1  0
  4  6  1  0
  4  5  1  6
  6  7  2  0
  9  8  1  6
 10  9  1  0
 10  6  1  0
 11 12  2  0
 11  9  1  0
 13 11  1  0
 14 13  1  0
 14 15  1  6
 16 15  1  0
 17 19  1  0
 17 14  1  0
 18 17  2  0
M  END
$$$$
