VAC.pdb
     RDKit          3D

 19 18  0  0  1  0  0  0  0  0999 V2000
   28.5376  -18.2199  -16.6111 C   0  0  0  0  0  0  0  0  0  0  0  0
   27.4327  -18.7882  -15.7488 C   0  0  2  0  0  0  0  0  0  0  0  0
   27.1845  -17.8512  -14.5707 C   0  0  0  0  0  0  0  0  0  0  0  0
   27.7813  -20.1384  -15.1876 C   0  0  2  0  0  0  0  0  0  0  0  0
   28.0904  -21.1096  -16.1864 N   0  0  0  0  0  0  0  0  0  0  0  0
   26.6313  -20.6198  -14.3824 C   0  0  0  0  0  0  0  0  0  0  0  0
   25.5566  -21.0224  -14.9486 O   0  0  0  0  0  0  0  0  0  0  0  0
   26.0050  -21.2325  -10.7018 C   0  0  0  0  0  0  0  0  0  0  0  0
   25.6428  -21.1527  -12.1687 C   0  0  2  0  0  0  0  0  0  0  0  0
   26.7153  -20.6373  -12.9669 N   0  0  0  0  0  0  0  0  0  0  0  0
   24.4085  -20.3493  -12.2663 C   0  0  0  0  0  0  0  0  0  0  0  0
   24.4932  -19.1098  -12.1697 O   0  0  0  0  0  0  0  0  0  0  0  0
   23.1468  -20.9459  -12.4646 N   0  0  0  0  0  0  0  0  0  0  0  0
   22.0007  -20.2376  -12.9934 C   0  0  1  0  0  0  0  0  0  0  0  0
   22.2595  -19.7614  -14.4088 C   0  0  0  0  0  0  0  0  0  0  0  0
   20.8661  -18.8370  -15.0631 S   0  0  0  0  0  0  0  0  0  0  0  0
   20.8282  -21.1404  -12.9686 C   0  0  0  0  0  0  0  0  0  0  0  0
   20.8982  -22.3444  -13.3268 O   0  0  0  0  0  0  0  0  0  0  0  0
   19.5933  -20.6771  -12.5413 O   0  0  0  0  0  0  0  0  0  0  0  0
  2  1  1  1
  2  4  1  0
  3  2  1  0
  4  6  1  0
  4  5  1  6
  6  7  2  0
  9  8  1  1
 10  9  1  0
 10  6  1  0
 11 12  2  0
 11  9  1  0
 13 11  1  0
 14 13  1  0
 14 15  1  6
 16 15  1  0
 17 19  1  0
 17 14  1  0
 18 17  2  0
M  END
$$$$
