VAC.pdb
     RDKit          3D

 19 18  0  0  1  0  0  0  0  0999 V2000
   17.7863  -11.4801  -19.3324 C   0  0  0  0  0  0  0  0  0  0  0  0
   18.6461  -10.7946  -18.2942 C   0  0  2  0  0  0  0  0  0  0  0  0
   18.5407   -9.2833  -18.4748 C   0  0  0  0  0  0  0  0  0  0  0  0
   20.0978  -11.1649  -18.4178 C   0  0  2  0  0  0  0  0  0  0  0  0
   20.3459  -12.5618  -18.2647 N   0  0  0  0  0  0  0  0  0  0  0  0
   20.8586  -10.4207  -17.3833 C   0  0  0  0  0  0  0  0  0  0  0  0
   20.7787  -10.7471  -16.1485 O   0  0  0  0  0  0  0  0  0  0  0  0
   23.6122   -7.8661  -17.3947 C   0  0  0  0  0  0  0  0  0  0  0  0
   22.4455   -8.6092  -16.7817 C   0  0  2  0  0  0  0  0  0  0  0  0
   21.6872   -9.3328  -17.7587 N   0  0  0  0  0  0  0  0  0  0  0  0
   21.6417   -7.6172  -16.0412 C   0  0  0  0  0  0  0  0  0  0  0  0
   20.7601   -6.9849  -16.6543 O   0  0  0  0  0  0  0  0  0  0  0  0
   21.8461   -7.3700  -14.6685 N   0  0  0  0  0  0  0  0  0  0  0  0
   21.1392   -6.3491  -13.9250 C   0  0  1  0  0  0  0  0  0  0  0  0
   20.9048   -6.7822  -12.4917 C   0  0  0  0  0  0  0  0  0  0  0  0
   19.7901   -8.1868  -12.3968 S   0  0  0  0  0  0  0  0  0  0  0  0
   21.9337   -5.1008  -13.9541 C   0  0  0  0  0  0  0  0  0  0  0  0
   23.1613   -5.0907  -14.2295 O   0  0  0  0  0  0  0  0  0  0  0  0
   21.3371   -3.8813  -13.6730 O   0  0  0  0  0  0  0  0  0  0  0  0
  2  1  1  6
  2  4  1  0
  3  2  1  0
  4  6  1  0
  4  5  1  1
  6  7  2  0
  9  8  1  6
 10  9  1  0
 10  6  1  0
 11 12  2  0
 11  9  1  0
 13 11  1  0
 14 13  1  0
 14 15  1  1
 16 15  1  0
 17 19  1  0
 17 14  1  0
 18 17  2  0
M  END
$$$$
