GET.pdb
     RDKit          3D

 21 20  0  0  1  0  0  0  0  0999 V2000
    8.2625  -13.8488   17.6425 N   0  0  0  0  0  0  0  0  0  0  0  0
    9.4588  -13.2300   18.1733 C   0  0  0  0  0  0  0  0  0  0  0  0
   10.4014  -14.2951   18.6029 C   0  0  0  0  0  0  0  0  0  0  0  0
    9.9599  -15.3988   19.0275 O   0  0  0  0  0  0  0  0  0  0  0  0
   11.8068  -14.1346   18.5612 N   0  0  0  0  0  0  0  0  0  0  0  0
   12.7425  -15.1373   19.0243 C   0  0  1  0  0  0  0  0  0  0  0  0
   14.1019  -14.9702   18.4196 C   0  0  0  0  0  0  0  0  0  0  0  0
   14.1912  -15.6265   17.0557 C   0  0  0  0  0  0  0  0  0  0  0  0
   15.5706  -15.4981   16.5335 C   0  0  0  0  0  0  0  0  0  0  0  0
   16.4880  -16.2107   17.0471 O   0  0  0  0  0  0  0  0  0  0  0  0
   12.8707  -15.1474   20.5007 C   0  0  0  0  0  0  0  0  0  0  0  0
   13.3675  -14.1683   21.0984 O   0  0  0  0  0  0  0  0  0  0  0  0
   15.7696  -14.5987   15.5095 O   0  0  0  0  0  0  0  0  0  0  0  0
   10.8151  -17.9608   22.9063 C   0  0  0  0  0  0  0  0  0  0  0  0
   11.0546  -16.5075   23.2630 C   0  0  1  0  0  0  0  0  0  0  0  0
   11.1689  -16.4671   24.6719 O   0  0  0  0  0  0  0  0  0  0  0  0
   12.4255  -16.1276   22.7225 C   0  0  2  0  0  0  0  0  0  0  0  0
   12.4363  -16.2529   21.2720 N   0  0  0  0  0  0  0  0  0  0  0  0
   13.5119  -16.9375   23.3288 C   0  0  0  0  0  0  0  0  0  0  0  0
   14.2973  -17.7330   22.5004 O   0  0  0  0  0  0  0  0  0  0  0  0
   13.7789  -16.9620   24.5462 O   0  0  0  0  0  0  0  0  0  0  0  0
  2  1  1  0
  3  5  1  0
  3  2  1  0
  4  3  2  0
  6 11  1  0
  6  5  1  0
  6  7  1  6
  8  7  1  0
  9 10  2  0
  9  8  1  0
 11 18  1  0
 12 11  2  0
 13  9  1  0
 15 14  1  1
 16 15  1  0
 17 19  1  0
 17 15  1  0
 17 18  1  6
 19 20  1  0
 21 19  2  0
M  END
$$$$
