GET.pdb
     RDKit          3D

 21 20  0  0  1  0  0  0  0  0999 V2000
    4.2300  -20.0450   20.1343 N   0  0  0  0  0  0  0  0  0  0  0  0
    5.5290  -20.3985   20.6667 C   0  0  0  0  0  0  0  0  0  0  0  0
    5.6405  -19.8728   22.0519 C   0  0  0  0  0  0  0  0  0  0  0  0
    5.0668  -18.7939   22.3685 O   0  0  0  0  0  0  0  0  0  0  0  0
    6.3760  -20.5344   23.0638 N   0  0  0  0  0  0  0  0  0  0  0  0
    6.5363  -20.0177   24.4065 C   0  0  1  0  0  0  0  0  0  0  0  0
    6.7300  -21.1061   25.4161 C   0  0  0  0  0  0  0  0  0  0  0  0
    5.4867  -21.9619   25.5607 C   0  0  0  0  0  0  0  0  0  0  0  0
    5.7238  -23.0125   26.5765 C   0  0  0  0  0  0  0  0  0  0  0  0
    5.8541  -22.6696   27.7925 O   0  0  0  0  0  0  0  0  0  0  0  0
    7.6625  -19.0599   24.5097 C   0  0  0  0  0  0  0  0  0  0  0  0
    8.7144  -19.2493   23.8613 O   0  0  0  0  0  0  0  0  0  0  0  0
    5.7893  -24.3128   26.1267 O   0  0  0  0  0  0  0  0  0  0  0  0
    7.8286  -15.6843   23.5114 C   0  0  0  0  0  0  0  0  0  0  0  0
    8.2747  -15.6057   24.9576 C   0  0  1  0  0  0  0  0  0  0  0  0
    7.1092  -15.3297   25.7092 O   0  0  0  0  0  0  0  0  0  0  0  0
    8.7175  -17.0013   25.3724 C   0  0  2  0  0  0  0  0  0  0  0  0
    7.5817  -17.9114   25.3343 N   0  0  0  0  0  0  0  0  0  0  0  0
    9.3559  -17.0122   26.7127 C   0  0  0  0  0  0  0  0  0  0  0  0
   10.4899  -16.2335   26.9214 O   0  0  0  0  0  0  0  0  0  0  0  0
    8.9479  -17.6790   27.6837 O   0  0  0  0  0  0  0  0  0  0  0  0
  2  1  1  0
  3  5  1  0
  3  2  1  0
  4  3  2  0
  6 11  1  0
  6  5  1  0
  6  7  1  1
  8  7  1  0
  9 10  2  0
  9  8  1  0
 11 18  1  0
 12 11  2  0
 13  9  1  0
 15 14  1  6
 16 15  1  0
 17 19  1  0
 17 15  1  0
 17 18  1  1
 19 20  1  0
 21 19  2  0
M  END
$$$$
