GET.pdb
     RDKit          3D

 21 20  0  0  1  0  0  0  0  0999 V2000
    7.8654  -13.8485   20.4202 N   0  0  0  0  0  0  0  0  0  0  0  0
    7.2081  -13.7446   21.7059 C   0  0  0  0  0  0  0  0  0  0  0  0
    7.9357  -14.5895   22.6879 C   0  0  0  0  0  0  0  0  0  0  0  0
    8.8540  -15.3641   22.3002 O   0  0  0  0  0  0  0  0  0  0  0  0
    7.6467  -14.5729   24.0732 N   0  0  0  0  0  0  0  0  0  0  0  0
    8.3899  -15.3320   25.0565 C   0  0  1  0  0  0  0  0  0  0  0  0
    8.6561  -14.5443   26.3016 C   0  0  0  0  0  0  0  0  0  0  0  0
    9.5283  -15.3142   27.2739 C   0  0  0  0  0  0  0  0  0  0  0  0
    9.8564  -14.4539   28.4333 C   0  0  0  0  0  0  0  0  0  0  0  0
    9.9559  -14.9867   29.5819 O   0  0  0  0  0  0  0  0  0  0  0  0
    7.7084  -16.5958   25.4235 C   0  0  0  0  0  0  0  0  0  0  0  0
    6.4990  -16.5928   25.7397 O   0  0  0  0  0  0  0  0  0  0  0  0
   10.0336  -13.1108   28.1841 O   0  0  0  0  0  0  0  0  0  0  0  0
    6.7801  -19.4691   23.6861 C   0  0  0  0  0  0  0  0  0  0  0  0
    7.6227  -20.0575   24.7998 C   0  0  1  0  0  0  0  0  0  0  0  0
    8.9326  -20.1685   24.2788 O   0  0  0  0  0  0  0  0  0  0  0  0
    7.7014  -19.0168   25.9074 C   0  0  2  0  0  0  0  0  0  0  0  0
    8.3977  -17.8330   25.4241 N   0  0  0  0  0  0  0  0  0  0  0  0
    8.3533  -19.5479   27.1310 C   0  0  0  0  0  0  0  0  0  0  0  0
    7.7542  -20.6088   27.8030 O   0  0  0  0  0  0  0  0  0  0  0  0
    9.4151  -19.1074   27.6131 O   0  0  0  0  0  0  0  0  0  0  0  0
  2  1  1  0
  3  5  1  0
  3  2  1  0
  4  3  2  0
  6 11  1  0
  6  5  1  0
  6  7  1  1
  8  7  1  0
  9 10  2  0
  9  8  1  0
 11 18  1  0
 12 11  2  0
 13  9  1  0
 15 14  1  6
 16 15  1  0
 17 19  1  0
 17 15  1  0
 17 18  1  6
 19 20  1  0
 21 19  2  0
M  END
$$$$
