GET.pdb
     RDKit          3D

 21 20  0  0  1  0  0  0  0  0999 V2000
    7.0463  -13.4481   18.6864 N   0  0  0  0  0  0  0  0  0  0  0  0
    8.2062  -13.2645   19.5330 C   0  0  0  0  0  0  0  0  0  0  0  0
    8.0168  -14.0431   20.7841 C   0  0  0  0  0  0  0  0  0  0  0  0
    6.8598  -14.2004   21.2638 O   0  0  0  0  0  0  0  0  0  0  0  0
    9.0934  -14.6343   21.4871 N   0  0  0  0  0  0  0  0  0  0  0  0
    8.9263  -15.4502   22.6711 C   0  0  1  0  0  0  0  0  0  0  0  0
    9.8953  -16.5905   22.7183 C   0  0  0  0  0  0  0  0  0  0  0  0
    9.8487  -17.4161   21.4474 C   0  0  0  0  0  0  0  0  0  0  0  0
   10.9202  -18.4373   21.4805 C   0  0  0  0  0  0  0  0  0  0  0  0
   11.6707  -18.5698   20.4646 O   0  0  0  0  0  0  0  0  0  0  0  0
    9.0506  -14.6614   23.9196 C   0  0  0  0  0  0  0  0  0  0  0  0
   10.0556  -13.9445   24.1166 O   0  0  0  0  0  0  0  0  0  0  0  0
   11.0322  -19.1881   22.6299 O   0  0  0  0  0  0  0  0  0  0  0  0
    6.7260  -12.1052   25.2480 C   0  0  0  0  0  0  0  0  0  0  0  0
    6.9196  -13.0984   26.3762 C   0  0  1  0  0  0  0  0  0  0  0  0
    5.8772  -14.0446   26.2439 O   0  0  0  0  0  0  0  0  0  0  0  0
    8.2090  -13.8569   26.0967 C   0  0  2  0  0  0  0  0  0  0  0  0
    8.0444  -14.6923   24.9157 N   0  0  0  0  0  0  0  0  0  0  0  0
    8.6451  -14.6699   27.2599 C   0  0  0  0  0  0  0  0  0  0  0  0
    8.7953  -16.0437   27.0989 O   0  0  0  0  0  0  0  0  0  0  0  0
    8.8900  -14.2084   28.3917 O   0  0  0  0  0  0  0  0  0  0  0  0
  2  1  1  0
  3  5  1  0
  3  2  1  0
  4  3  2  0
  6 11  1  0
  6  5  1  0
  6  7  1  1
  8  7  1  0
  9 10  2  0
  9  8  1  0
 11 18  1  0
 12 11  2  0
 13  9  1  0
 15 14  1  6
 16 15  1  0
 17 19  1  0
 17 15  1  0
 17 18  1  6
 19 20  1  0
 21 19  2  0
M  END
$$$$
