GET.pdb
     RDKit          3D

 21 20  0  0  1  0  0  0  0  0999 V2000
    7.0542  -13.0645   18.1632 N   0  0  0  0  0  0  0  0  0  0  0  0
    8.0220  -12.7876   19.2037 C   0  0  0  0  0  0  0  0  0  0  0  0
    7.8974  -13.8208   20.2641 C   0  0  0  0  0  0  0  0  0  0  0  0
    6.8050  -14.4315   20.4288 O   0  0  0  0  0  0  0  0  0  0  0  0
    8.9669  -14.1669   21.1238 N   0  0  0  0  0  0  0  0  0  0  0  0
    8.8813  -15.1994   22.1347 C   0  0  1  0  0  0  0  0  0  0  0  0
    9.9312  -16.2529   21.9631 C   0  0  0  0  0  0  0  0  0  0  0  0
    9.3279  -17.5803   21.5471 C   0  0  0  0  0  0  0  0  0  0  0  0
   10.4013  -18.5906   21.4090 C   0  0  0  0  0  0  0  0  0  0  0  0
   10.0808  -19.8171   21.3305 O   0  0  0  0  0  0  0  0  0  0  0  0
    8.9710  -14.6502   23.5082 C   0  0  0  0  0  0  0  0  0  0  0  0
    9.8919  -13.8625   23.8149 O   0  0  0  0  0  0  0  0  0  0  0  0
   11.6971  -18.1247   21.3756 O   0  0  0  0  0  0  0  0  0  0  0  0
    6.8406  -12.4507   25.3397 C   0  0  0  0  0  0  0  0  0  0  0  0
    6.9271  -13.6724   26.2323 C   0  0  1  0  0  0  0  0  0  0  0  0
    5.8414  -14.5002   25.8639 O   0  0  0  0  0  0  0  0  0  0  0  0
    8.1844  -14.4340   25.8385 C   0  0  2  0  0  0  0  0  0  0  0  0
    8.0246  -14.9943   24.5042 N   0  0  0  0  0  0  0  0  0  0  0  0
    8.5269  -15.4960   26.8177 C   0  0  0  0  0  0  0  0  0  0  0  0
    8.8681  -15.1268   28.1151 O   0  0  0  0  0  0  0  0  0  0  0  0
    8.5344  -16.7161   26.5623 O   0  0  0  0  0  0  0  0  0  0  0  0
  2  1  1  0
  3  5  1  0
  3  2  1  0
  4  3  2  0
  6 11  1  0
  6  5  1  0
  6  7  1  6
  8  7  1  0
  9 10  2  0
  9  8  1  0
 11 18  1  0
 12 11  2  0
 13  9  1  0
 15 14  1  6
 16 15  1  0
 17 19  1  0
 17 15  1  0
 17 18  1  6
 19 20  1  0
 21 19  2  0
M  END
$$$$
