GET.pdb
     RDKit          3D

 21 20  0  0  1  0  0  0  0  0999 V2000
    7.4200  -13.5118   18.3818 N   0  0  0  0  0  0  0  0  0  0  0  0
    8.4459  -13.3662   19.3927 C   0  0  0  0  0  0  0  0  0  0  0  0
    7.9810  -14.0136   20.6467 C   0  0  0  0  0  0  0  0  0  0  0  0
    6.7575  -14.2793   20.8070 O   0  0  0  0  0  0  0  0  0  0  0  0
    8.8602  -14.3577   21.7009 N   0  0  0  0  0  0  0  0  0  0  0  0
    8.4608  -15.1296   22.8584 C   0  0  1  0  0  0  0  0  0  0  0  0
    9.1675  -16.4473   22.9357 C   0  0  0  0  0  0  0  0  0  0  0  0
   10.5914  -16.3484   22.4242 C   0  0  0  0  0  0  0  0  0  0  0  0
   11.2123  -17.6924   22.4243 C   0  0  0  0  0  0  0  0  0  0  0  0
   12.2934  -17.8669   23.0676 O   0  0  0  0  0  0  0  0  0  0  0  0
    8.6759  -14.3935   24.1266 C   0  0  0  0  0  0  0  0  0  0  0  0
    9.7364  -13.7598   24.3173 O   0  0  0  0  0  0  0  0  0  0  0  0
   10.5653  -18.6793   21.7139 O   0  0  0  0  0  0  0  0  0  0  0  0
    6.8374  -11.5998   25.7428 C   0  0  0  0  0  0  0  0  0  0  0  0
    6.8212  -12.7484   26.7313 C   0  0  1  0  0  0  0  0  0  0  0  0
    5.6491  -13.4873   26.4490 O   0  0  0  0  0  0  0  0  0  0  0  0
    7.9855  -13.6641   26.3820 C   0  0  2  0  0  0  0  0  0  0  0  0
    7.6960  -14.3824   25.1491 N   0  0  0  0  0  0  0  0  0  0  0  0
    8.3038  -14.6108   27.4804 C   0  0  0  0  0  0  0  0  0  0  0  0
    8.6547  -14.0991   28.7258 O   0  0  0  0  0  0  0  0  0  0  0  0
    8.2824  -15.8524   27.3707 O   0  0  0  0  0  0  0  0  0  0  0  0
  2  1  1  0
  3  5  1  0
  3  2  1  0
  4  3  2  0
  6 11  1  0
  6  5  1  0
  6  7  1  1
  8  7  1  0
  9 10  2  0
  9  8  1  0
 11 18  1  0
 12 11  2  0
 13  9  1  0
 15 14  1  6
 16 15  1  0
 17 19  1  0
 17 15  1  0
 17 18  1  6
 19 20  1  0
 21 19  2  0
M  END
$$$$
