GET.pdb
     RDKit          3D

 21 20  0  0  1  0  0  0  0  0999 V2000
    7.5606  -13.3829   18.2946 N   0  0  0  0  0  0  0  0  0  0  0  0
    8.3324  -12.9856   19.4532 C   0  0  0  0  0  0  0  0  0  0  0  0
    8.0724  -13.9458   20.5569 C   0  0  0  0  0  0  0  0  0  0  0  0
    6.8871  -14.2075   20.9032 O   0  0  0  0  0  0  0  0  0  0  0  0
    9.1107  -14.6008   21.2608 N   0  0  0  0  0  0  0  0  0  0  0  0
    8.8925  -15.4124   22.4394 C   0  0  1  0  0  0  0  0  0  0  0  0
    9.8883  -16.5241   22.5577 C   0  0  0  0  0  0  0  0  0  0  0  0
    9.8354  -17.4513   21.3591 C   0  0  0  0  0  0  0  0  0  0  0  0
   10.8702  -18.5009   21.4988 C   0  0  0  0  0  0  0  0  0  0  0  0
   10.5121  -19.7193   21.4804 O   0  0  0  0  0  0  0  0  0  0  0  0
    8.9158  -14.6112   23.6860 C   0  0  0  0  0  0  0  0  0  0  0  0
    9.8259  -13.7774   23.8842 O   0  0  0  0  0  0  0  0  0  0  0  0
   12.1732  -18.0782   21.6428 O   0  0  0  0  0  0  0  0  0  0  0  0
    6.6285  -12.2077   27.0897 C   0  0  0  0  0  0  0  0  0  0  0  0
    6.5270  -13.2677   26.0114 C   0  0  1  0  0  0  0  0  0  0  0  0
    6.2195  -12.5777   24.8160 O   0  0  0  0  0  0  0  0  0  0  0  0
    7.9201  -13.8469   25.8119 C   0  0  2  0  0  0  0  0  0  0  0  0
    7.9171  -14.7612   24.6789 N   0  0  0  0  0  0  0  0  0  0  0  0
    8.4265  -14.5233   27.0326 C   0  0  0  0  0  0  0  0  0  0  0  0
    8.7720  -15.8691   26.9589 O   0  0  0  0  0  0  0  0  0  0  0  0
    8.5671  -13.9688   28.1402 O   0  0  0  0  0  0  0  0  0  0  0  0
  2  1  1  0
  3  5  1  0
  3  2  1  0
  4  3  2  0
  6 11  1  0
  6  5  1  0
  6  7  1  1
  8  7  1  0
  9 10  2  0
  9  8  1  0
 11 18  1  0
 12 11  2  0
 13  9  1  0
 15 14  1  1
 16 15  1  0
 17 19  1  0
 17 15  1  0
 17 18  1  6
 19 20  1  0
 21 19  2  0
M  END
$$$$
