GET.pdb
     RDKit          3D

 21 20  0  0  1  0  0  0  0  0999 V2000
    9.5398  -17.3037   19.4408 N   0  0  0  0  0  0  0  0  0  0  0  0
   10.1122  -16.2696   20.2768 C   0  0  0  0  0  0  0  0  0  0  0  0
    9.5563  -16.3976   21.6488 C   0  0  0  0  0  0  0  0  0  0  0  0
    8.3157  -16.2708   21.8444 O   0  0  0  0  0  0  0  0  0  0  0  0
   10.3650  -16.6608   22.7798 N   0  0  0  0  0  0  0  0  0  0  0  0
    9.8493  -16.7598   24.1288 C   0  0  1  0  0  0  0  0  0  0  0  0
   10.8096  -17.4359   25.0574 C   0  0  0  0  0  0  0  0  0  0  0  0
   11.0762  -18.8688   24.6391 C   0  0  0  0  0  0  0  0  0  0  0  0
   12.0143  -19.4978   25.5963 C   0  0  0  0  0  0  0  0  0  0  0  0
   11.5542  -19.9759   26.6793 O   0  0  0  0  0  0  0  0  0  0  0  0
    9.4874  -15.4371   24.6907 C   0  0  0  0  0  0  0  0  0  0  0  0
   10.2431  -14.4543   24.5307 O   0  0  0  0  0  0  0  0  0  0  0  0
   13.3452  -19.5217   25.2425 O   0  0  0  0  0  0  0  0  0  0  0  0
    6.1916  -12.2037   26.0192 C   0  0  0  0  0  0  0  0  0  0  0  0
    6.4631  -13.6440   25.6339 C   0  0  1  0  0  0  0  0  0  0  0  0
    6.2645  -13.7161   24.2357 O   0  0  0  0  0  0  0  0  0  0  0  0
    7.9460  -13.9019   25.8582 C   0  0  2  0  0  0  0  0  0  0  0  0
    8.2857  -15.2468   25.4157 N   0  0  0  0  0  0  0  0  0  0  0  0
    8.3431  -13.6976   27.2740 C   0  0  0  0  0  0  0  0  0  0  0  0
    8.2736  -12.4161   27.8115 O   0  0  0  0  0  0  0  0  0  0  0  0
    8.7435  -14.6022   28.0326 O   0  0  0  0  0  0  0  0  0  0  0  0
  2  1  1  0
  3  5  1  0
  3  2  1  0
  4  3  2  0
  6 11  1  0
  6  5  1  0
  6  7  1  1
  8  7  1  0
  9 10  2  0
  9  8  1  0
 11 18  1  0
 12 11  2  0
 13  9  1  0
 15 14  1  6
 16 15  1  0
 17 19  1  0
 17 15  1  0
 17 18  1  1
 19 20  1  0
 21 19  2  0
M  END
$$$$
