GET.pdb
     RDKit          3D

 21 20  0  0  1  0  0  0  0  0999 V2000
    8.1670  -17.7415   18.6319 N   0  0  0  0  0  0  0  0  0  0  0  0
    8.5028  -16.5635   19.4036 C   0  0  0  0  0  0  0  0  0  0  0  0
    9.2329  -16.9824   20.6279 C   0  0  0  0  0  0  0  0  0  0  0  0
    8.7840  -17.9200   21.3440 O   0  0  0  0  0  0  0  0  0  0  0  0
   10.4379  -16.3698   21.0468 N   0  0  0  0  0  0  0  0  0  0  0  0
   11.1533  -16.7458   22.2477 C   0  0  1  0  0  0  0  0  0  0  0  0
   12.5519  -16.2117   22.2681 C   0  0  0  0  0  0  0  0  0  0  0  0
   13.3595  -16.8041   23.4065 C   0  0  0  0  0  0  0  0  0  0  0  0
   14.7657  -16.3523   23.3037 C   0  0  0  0  0  0  0  0  0  0  0  0
   15.5846  -17.0497   22.6284 O   0  0  0  0  0  0  0  0  0  0  0  0
   10.4536  -16.3089   23.4789 C   0  0  0  0  0  0  0  0  0  0  0  0
   10.3188  -15.0920   23.7311 O   0  0  0  0  0  0  0  0  0  0  0  0
   15.0968  -15.1871   23.9593 O   0  0  0  0  0  0  0  0  0  0  0  0
    7.3435  -15.8965   24.4525 C   0  0  0  0  0  0  0  0  0  0  0  0
    7.7993  -16.8560   25.5333 C   0  0  1  0  0  0  0  0  0  0  0  0
    7.5306  -18.1535   25.0394 O   0  0  0  0  0  0  0  0  0  0  0  0
    9.3147  -16.7501   25.6245 C   0  0  2  0  0  0  0  0  0  0  0  0
    9.9190  -17.2462   24.3963 N   0  0  0  0  0  0  0  0  0  0  0  0
    9.8572  -17.4680   26.8053 C   0  0  0  0  0  0  0  0  0  0  0  0
    9.4574  -17.0663   28.0761 O   0  0  0  0  0  0  0  0  0  0  0  0
   10.6599  -18.4199   26.7455 O   0  0  0  0  0  0  0  0  0  0  0  0
  2  1  1  0
  3  5  1  0
  3  2  1  0
  4  3  2  0
  6 11  1  0
  6  5  1  0
  6  7  1  6
  8  7  1  0
  9 10  2  0
  9  8  1  0
 11 18  1  0
 12 11  2  0
 13  9  1  0
 15 14  1  6
 16 15  1  0
 17 19  1  0
 17 15  1  0
 17 18  1  6
 19 20  1  0
 21 19  2  0
M  END
$$$$
