GET.pdb
     RDKit          3D

 21 20  0  0  1  0  0  0  0  0999 V2000
    5.2366  -12.9151   26.4673 N   0  0  0  0  0  0  0  0  0  0  0  0
    6.2256  -12.7801   25.4186 C   0  0  0  0  0  0  0  0  0  0  0  0
    7.0249  -14.0306   25.3472 C   0  0  0  0  0  0  0  0  0  0  0  0
    6.8720  -14.9312   26.2184 O   0  0  0  0  0  0  0  0  0  0  0  0
    7.9752  -14.2733   24.3271 N   0  0  0  0  0  0  0  0  0  0  0  0
    8.8326  -15.4390   24.2908 C   0  0  1  0  0  0  0  0  0  0  0  0
    9.4713  -15.6346   22.9509 C   0  0  0  0  0  0  0  0  0  0  0  0
   10.2651  -16.9252   22.8935 C   0  0  0  0  0  0  0  0  0  0  0  0
   10.7714  -17.1345   21.5180 C   0  0  0  0  0  0  0  0  0  0  0  0
   11.9583  -16.7767   21.2418 O   0  0  0  0  0  0  0  0  0  0  0  0
    9.8919  -15.3901   25.3260 C   0  0  0  0  0  0  0  0  0  0  0  0
   10.6190  -14.3795   25.4389 O   0  0  0  0  0  0  0  0  0  0  0  0
    9.9062  -17.7120   20.6152 O   0  0  0  0  0  0  0  0  0  0  0  0
   10.5390  -13.9025   27.3392 C   0  0  0  0  0  0  0  0  0  0  0  0
   10.5894  -15.1488   28.2000 C   0  0  1  0  0  0  0  0  0  0  0  0
    9.2487  -15.4371   28.5449 O   0  0  0  0  0  0  0  0  0  0  0  0
   11.0472  -16.2960   27.3110 C   0  0  2  0  0  0  0  0  0  0  0  0
   10.1090  -16.4736   26.2119 N   0  0  0  0  0  0  0  0  0  0  0  0
   11.2147  -17.5611   28.0696 C   0  0  0  0  0  0  0  0  0  0  0  0
   12.2010  -17.6302   29.0486 O   0  0  0  0  0  0  0  0  0  0  0  0
   10.5284  -18.5866   27.8927 O   0  0  0  0  0  0  0  0  0  0  0  0
  2  1  1  0
  3  5  1  0
  3  2  1  0
  4  3  2  0
  6 11  1  0
  6  5  1  0
  6  7  1  6
  8  7  1  0
  9 10  2  0
  9  8  1  0
 11 18  1  0
 12 11  2  0
 13  9  1  0
 15 14  1  6
 16 15  1  0
 17 19  1  0
 17 15  1  0
 17 18  1  6
 19 20  1  0
 21 19  2  0
M  END
$$$$
