GET.pdb
     RDKit          3D

 21 20  0  0  1  0  0  0  0  0999 V2000
    5.2263  -20.5223   20.2144 N   0  0  0  0  0  0  0  0  0  0  0  0
    5.8377  -21.3998   21.1901 C   0  0  0  0  0  0  0  0  0  0  0  0
    5.8774  -20.7058   22.5033 C   0  0  0  0  0  0  0  0  0  0  0  0
    5.5992  -19.4769   22.5794 O   0  0  0  0  0  0  0  0  0  0  0  0
    6.2204  -21.3662   23.7070 N   0  0  0  0  0  0  0  0  0  0  0  0
    6.3349  -20.6959   24.9849 C   0  0  1  0  0  0  0  0  0  0  0  0
    6.3502  -21.6570   26.1327 C   0  0  0  0  0  0  0  0  0  0  0  0
    6.3508  -20.9349   27.4660 C   0  0  0  0  0  0  0  0  0  0  0  0
    6.3921  -21.9253   28.5657 C   0  0  0  0  0  0  0  0  0  0  0  0
    5.3027  -22.2689   29.1209 O   0  0  0  0  0  0  0  0  0  0  0  0
    7.5389  -19.8351   25.0622 C   0  0  0  0  0  0  0  0  0  0  0  0
    8.6282  -20.2286   24.5918 O   0  0  0  0  0  0  0  0  0  0  0  0
    7.6300  -22.4148   28.9192 O   0  0  0  0  0  0  0  0  0  0  0  0
    7.2541  -15.7174   25.6539 C   0  0  0  0  0  0  0  0  0  0  0  0
    8.3420  -16.4138   24.8614 C   0  0  1  0  0  0  0  0  0  0  0  0
    9.4904  -15.5970   24.9770 O   0  0  0  0  0  0  0  0  0  0  0  0
    8.6758  -17.7080   25.5892 C   0  0  2  0  0  0  0  0  0  0  0  0
    7.4924  -18.5530   25.6619 N   0  0  0  0  0  0  0  0  0  0  0  0
    9.2313  -17.4625   26.9439 C   0  0  0  0  0  0  0  0  0  0  0  0
    8.5977  -18.0356   28.0422 O   0  0  0  0  0  0  0  0  0  0  0  0
   10.2395  -16.7679   27.1784 O   0  0  0  0  0  0  0  0  0  0  0  0
  2  1  1  0
  3  5  1  0
  3  2  1  0
  4  3  2  0
  6 11  1  0
  6  5  1  0
  6  7  1  1
  8  7  1  0
  9 10  2  0
  9  8  1  0
 11 18  1  0
 12 11  2  0
 13  9  1  0
 15 14  1  1
 16 15  1  0
 17 19  1  0
 17 15  1  0
 17 18  1  1
 19 20  1  0
 21 19  2  0
M  END
$$$$
