GET.pdb
     RDKit          3D

 21 20  0  0  1  0  0  0  0  0999 V2000
    8.0771  -13.8656   15.9061 N   0  0  0  0  0  0  0  0  0  0  0  0
    9.1198  -13.1825   16.6422 C   0  0  0  0  0  0  0  0  0  0  0  0
    9.6475  -14.0959   17.6885 C   0  0  0  0  0  0  0  0  0  0  0  0
    8.8892  -14.9507   18.2249 O   0  0  0  0  0  0  0  0  0  0  0  0
   10.9918  -14.0582   18.1291 N   0  0  0  0  0  0  0  0  0  0  0  0
   11.5307  -14.9471   19.1365 C   0  0  1  0  0  0  0  0  0  0  0  0
   13.0273  -14.9281   19.1709 C   0  0  0  0  0  0  0  0  0  0  0  0
   13.6227  -15.4862   17.8929 C   0  0  0  0  0  0  0  0  0  0  0  0
   15.0917  -15.3031   17.9097 C   0  0  0  0  0  0  0  0  0  0  0  0
   15.8001  -16.1020   18.5975 O   0  0  0  0  0  0  0  0  0  0  0  0
   11.0145  -14.6400   20.4913 C   0  0  0  0  0  0  0  0  0  0  0  0
   11.4825  -13.6817   21.1436 O   0  0  0  0  0  0  0  0  0  0  0  0
   15.5998  -14.2606   17.1665 O   0  0  0  0  0  0  0  0  0  0  0  0
    7.8544  -13.4953   21.3576 C   0  0  0  0  0  0  0  0  0  0  0  0
    7.9928  -14.6866   22.2841 C   0  0  1  0  0  0  0  0  0  0  0  0
    7.4022  -15.7774   21.6052 O   0  0  0  0  0  0  0  0  0  0  0  0
    9.4758  -15.0124   22.3859 C   0  0  2  0  0  0  0  0  0  0  0  0
    9.9841  -15.4120   21.0814 N   0  0  0  0  0  0  0  0  0  0  0  0
    9.7518  -16.0595   23.4015 C   0  0  0  0  0  0  0  0  0  0  0  0
   10.3969  -17.2262   23.0033 O   0  0  0  0  0  0  0  0  0  0  0  0
    9.4429  -15.9734   24.6062 O   0  0  0  0  0  0  0  0  0  0  0  0
  2  1  1  0
  3  5  1  0
  3  2  1  0
  4  3  2  0
  6 11  1  0
  6  5  1  0
  6  7  1  1
  8  7  1  0
  9 10  2  0
  9  8  1  0
 11 18  1  0
 12 11  2  0
 13  9  1  0
 15 14  1  6
 16 15  1  0
 17 19  1  0
 17 15  1  0
 17 18  1  6
 19 20  1  0
 21 19  2  0
M  END
$$$$
