GET.pdb
     RDKit          3D

 21 20  0  0  1  0  0  0  0  0999 V2000
   10.0276  -18.0708   16.8564 N   0  0  0  0  0  0  0  0  0  0  0  0
   11.0410  -17.5552   17.7525 C   0  0  0  0  0  0  0  0  0  0  0  0
   10.5916  -17.7572   19.1542 C   0  0  0  0  0  0  0  0  0  0  0  0
    9.3759  -17.9890   19.4029 O   0  0  0  0  0  0  0  0  0  0  0  0
   11.4772  -17.7019   20.2566 N   0  0  0  0  0  0  0  0  0  0  0  0
   11.0468  -17.7870   21.6361 C   0  0  1  0  0  0  0  0  0  0  0  0
   12.1422  -18.2474   22.5470 C   0  0  0  0  0  0  0  0  0  0  0  0
   12.7555  -19.5494   22.0697 C   0  0  0  0  0  0  0  0  0  0  0  0
   13.8913  -19.9128   22.9470 C   0  0  0  0  0  0  0  0  0  0  0  0
   15.0686  -19.6061   22.5824 O   0  0  0  0  0  0  0  0  0  0  0  0
   10.5126  -16.4993   22.1388 C   0  0  0  0  0  0  0  0  0  0  0  0
   11.2326  -15.4774   22.1490 O   0  0  0  0  0  0  0  0  0  0  0  0
   13.5897  -20.5711   24.1188 O   0  0  0  0  0  0  0  0  0  0  0  0
    8.0753  -14.3279   20.8305 C   0  0  0  0  0  0  0  0  0  0  0  0
    7.5384  -14.6343   22.2141 C   0  0  1  0  0  0  0  0  0  0  0  0
    6.7094  -15.7704   22.0664 O   0  0  0  0  0  0  0  0  0  0  0  0
    8.7149  -15.0850   23.0678 C   0  0  2  0  0  0  0  0  0  0  0  0
    9.1835  -16.3869   22.6149 N   0  0  0  0  0  0  0  0  0  0  0  0
    8.3781  -15.1205   24.5133 C   0  0  0  0  0  0  0  0  0  0  0  0
    7.8986  -13.9631   25.1186 O   0  0  0  0  0  0  0  0  0  0  0  0
    8.4957  -16.1257   25.2411 O   0  0  0  0  0  0  0  0  0  0  0  0
  2  1  1  0
  3  5  1  0
  3  2  1  0
  4  3  2  0
  6 11  1  0
  6  5  1  0
  6  7  1  1
  8  7  1  0
  9 10  2  0
  9  8  1  0
 11 18  1  0
 12 11  2  0
 13  9  1  0
 15 14  1  6
 16 15  1  0
 17 19  1  0
 17 15  1  0
 17 18  1  6
 19 20  1  0
 21 19  2  0
M  END
$$$$
