VNY.pdb
     RDKit          3D

 28 28  0  0  1  0  0  0  0  0999 V2000
    8.4900  -12.9277   20.8074 C   0  0  0  0  0  0  0  0  0  0  0  0
    7.6093  -13.4881   19.7166 C   0  0  1  0  0  0  0  0  0  0  0  0
    7.3196  -12.3326   18.7601 C   0  0  0  0  0  0  0  0  0  0  0  0
    8.3858  -14.5421   18.9573 C   0  0  2  0  0  0  0  0  0  0  0  0
    7.5762  -15.0007   17.8633 N   0  0  0  0  0  0  0  0  0  0  0  0
    8.7295  -15.6815   19.8451 C   0  0  0  0  0  0  0  0  0  0  0  0
    7.8771  -16.3361   20.4816 O   0  0  0  0  0  0  0  0  0  0  0  0
   12.0546  -18.3043   17.9757 N   0  0  0  0  0  0  0  0  0  0  0  0
   11.3955  -18.6304   19.2084 C   0  0  0  0  0  0  0  0  0  0  0  0
   10.5924  -19.5885   19.1611 O   0  0  0  0  0  0  0  0  0  0  0  0
   11.6946  -17.8405   20.4224 C   0  0  0  0  0  0  0  0  0  0  0  0
   10.5208  -17.0662   20.9356 C   0  0  2  0  0  0  0  0  0  0  0  0
   10.0911  -16.0663   19.9951 N   0  0  0  0  0  0  0  0  0  0  0  0
   10.8348  -16.4162   22.2410 C   0  0  0  0  0  0  0  0  0  0  0  0
   11.6695  -15.4788   22.2928 O   0  0  0  0  0  0  0  0  0  0  0  0
   10.8009  -14.2104   30.7603 O   0  0  0  0  0  0  0  0  0  0  0  0
   10.4478  -14.6261   29.4838 C   0  0  0  0  0  0  0  0  0  0  0  0
   10.1726  -13.7217   28.4823 C   0  0  0  0  0  0  0  0  0  0  0  0
    9.8248  -14.1594   27.2250 C   0  0  0  0  0  0  0  0  0  0  0  0
    9.7327  -15.5033   26.8989 C   0  0  0  0  0  0  0  0  0  0  0  0
    9.3350  -15.9083   25.5382 C   0  0  0  0  0  0  0  0  0  0  0  0
   10.5463  -16.1998   24.7217 C   0  0  2  0  0  0  0  0  0  0  0  0
   10.2244  -16.8132   23.4495 N   0  0  0  0  0  0  0  0  0  0  0  0
   11.5650  -17.0363   25.3887 C   0  0  0  0  0  0  0  0  0  0  0  0
   11.5033  -18.4275   25.3505 O   0  0  0  0  0  0  0  0  0  0  0  0
   10.0129  -16.3866   27.9195 C   0  0  0  0  0  0  0  0  0  0  0  0
   10.3633  -15.9679   29.1859 C   0  0  0  0  0  0  0  0  0  0  0  0
   12.5263  -16.5391   26.0162 O   0  0  0  0  0  0  0  0  0  0  0  0
  2  3  1  6
  2  1  1  0
  4  5  1  6
  4  2  1  0
  6  4  1  0
  7  6  2  0
  9 11  1  0
  9  8  1  0
 10  9  2  0
 12 11  1  6
 12 13  1  0
 13  6  1  0
 14 12  1  0
 14 15  2  0
 17 16  1  0
 17 18  2  0
 19 18  1  0
 20 19  2  0
 21 20  1  0
 22 21  1  1
 23 22  1  0
 23 14  1  0
 24 22  1  0
 25 24  1  0
 26 27  2  0
 26 20  1  0
 27 17  1  0
 28 24  2  0
M  END
$$$$
