VNY.pdb
     RDKit          3D

 28 28  0  0  1  0  0  0  0  0999 V2000
    7.6697  -12.2853   17.9180 C   0  0  0  0  0  0  0  0  0  0  0  0
    7.5655  -13.2979   19.0331 C   0  0  1  0  0  0  0  0  0  0  0  0
    6.9632  -14.5588   18.4157 C   0  0  0  0  0  0  0  0  0  0  0  0
    8.9593  -13.6330   19.5183 C   0  0  2  0  0  0  0  0  0  0  0  0
    9.7256  -14.1088   18.4008 N   0  0  0  0  0  0  0  0  0  0  0  0
    8.9101  -14.6721   20.5776 C   0  0  0  0  0  0  0  0  0  0  0  0
    8.1960  -14.5777   21.5980 O   0  0  0  0  0  0  0  0  0  0  0  0
    8.2591  -18.6946   19.4308 N   0  0  0  0  0  0  0  0  0  0  0  0
    9.6884  -18.6747   19.5610 C   0  0  0  0  0  0  0  0  0  0  0  0
   10.3322  -19.0975   18.5752 O   0  0  0  0  0  0  0  0  0  0  0  0
   10.2963  -18.1719   20.8120 C   0  0  0  0  0  0  0  0  0  0  0  0
    9.6191  -16.9535   21.3576 C   0  0  2  0  0  0  0  0  0  0  0  0
    9.7072  -15.8435   20.4470 N   0  0  0  0  0  0  0  0  0  0  0  0
   10.1985  -16.5609   22.6749 C   0  0  0  0  0  0  0  0  0  0  0  0
   11.4221  -16.2928   22.7697 O   0  0  0  0  0  0  0  0  0  0  0  0
   11.0588  -14.6407   31.2308 O   0  0  0  0  0  0  0  0  0  0  0  0
   10.5645  -14.8125   29.9451 C   0  0  0  0  0  0  0  0  0  0  0  0
   10.6340  -13.8073   29.0064 C   0  0  0  0  0  0  0  0  0  0  0  0
   10.1367  -14.0028   27.7385 C   0  0  0  0  0  0  0  0  0  0  0  0
    9.5504  -15.1936   27.3395 C   0  0  0  0  0  0  0  0  0  0  0  0
    9.0179  -15.3337   25.9718 C   0  0  0  0  0  0  0  0  0  0  0  0
    9.9808  -16.0954   25.1285 C   0  0  2  0  0  0  0  0  0  0  0  0
    9.4193  -16.4741   23.8480 N   0  0  0  0  0  0  0  0  0  0  0  0
   10.5426  -17.3079   25.7586 C   0  0  0  0  0  0  0  0  0  0  0  0
   11.7701  -17.2840   26.4168 O   0  0  0  0  0  0  0  0  0  0  0  0
    9.4936  -16.1825   28.2983 C   0  0  0  0  0  0  0  0  0  0  0  0
    9.9863  -16.0061   29.5741 C   0  0  0  0  0  0  0  0  0  0  0  0
    9.9470  -18.4076   25.7317 O   0  0  0  0  0  0  0  0  0  0  0  0
  2  3  1  6
  2  1  1  0
  4  5  1  6
  4  2  1  0
  6  4  1  0
  7  6  2  0
  9 11  1  0
  9  8  1  0
 10  9  2  0
 12 11  1  6
 12 13  1  0
 13  6  1  0
 14 12  1  0
 14 15  2  0
 17 16  1  0
 17 18  2  0
 19 18  1  0
 20 19  2  0
 21 20  1  0
 22 21  1  1
 23 22  1  0
 23 14  1  0
 24 22  1  0
 25 24  1  0
 26 27  2  0
 26 20  1  0
 27 17  1  0
 28 24  2  0
M  END
$$$$
