VNY.pdb
     RDKit          3D

 28 28  0  0  1  0  0  0  0  0999 V2000
    8.5239  -12.8470   21.2623 C   0  0  0  0  0  0  0  0  0  0  0  0
    7.5575  -13.4695   20.2833 C   0  0  1  0  0  0  0  0  0  0  0  0
    7.3686  -12.4532   19.1585 C   0  0  0  0  0  0  0  0  0  0  0  0
    8.1936  -14.7096   19.6931 C   0  0  2  0  0  0  0  0  0  0  0  0
    7.3107  -15.2384   18.6915 N   0  0  0  0  0  0  0  0  0  0  0  0
    8.4324  -15.7284   20.7464 C   0  0  0  0  0  0  0  0  0  0  0  0
    7.5706  -16.5580   21.1059 O   0  0  0  0  0  0  0  0  0  0  0  0
   11.5445  -19.8149   22.6750 N   0  0  0  0  0  0  0  0  0  0  0  0
   11.8440  -18.4398   22.9568 C   0  0  0  0  0  0  0  0  0  0  0  0
   12.4683  -18.2237   24.0192 O   0  0  0  0  0  0  0  0  0  0  0  0
   11.4112  -17.3931   22.0057 C   0  0  0  0  0  0  0  0  0  0  0  0
   10.0603  -16.8270   22.3144 C   0  0  2  0  0  0  0  0  0  0  0  0
    9.6984  -15.7828   21.3937 N   0  0  0  0  0  0  0  0  0  0  0  0
   10.0042  -16.2997   23.7086 C   0  0  0  0  0  0  0  0  0  0  0  0
   10.6959  -15.3024   24.0328 O   0  0  0  0  0  0  0  0  0  0  0  0
    6.4804  -10.6394   26.0243 O   0  0  0  0  0  0  0  0  0  0  0  0
    6.8083  -11.9818   26.1561 C   0  0  0  0  0  0  0  0  0  0  0  0
    6.1400  -12.9588   25.4523 C   0  0  0  0  0  0  0  0  0  0  0  0
    6.4843  -14.2827   25.6005 C   0  0  0  0  0  0  0  0  0  0  0  0
    7.4992  -14.7024   26.4460 C   0  0  0  0  0  0  0  0  0  0  0  0
    7.8067  -16.1384   26.5761 C   0  0  0  0  0  0  0  0  0  0  0  0
    9.1828  -16.4096   26.0744 C   0  0  2  0  0  0  0  0  0  0  0  0
    9.1920  -16.8815   24.7049 N   0  0  0  0  0  0  0  0  0  0  0  0
    9.9718  -17.3557   26.8900 C   0  0  0  0  0  0  0  0  0  0  0  0
   10.4804  -18.5345   26.3493 O   0  0  0  0  0  0  0  0  0  0  0  0
    8.1514  -13.7044   27.1381 C   0  0  0  0  0  0  0  0  0  0  0  0
    7.8213  -12.3722   27.0033 C   0  0  0  0  0  0  0  0  0  0  0  0
   10.2197  -17.1454   28.0980 O   0  0  0  0  0  0  0  0  0  0  0  0
  2  3  1  6
  2  1  1  0
  4  5  1  6
  4  2  1  0
  6  4  1  0
  7  6  2  0
  9 11  1  0
  9  8  1  0
 10  9  2  0
 12 11  1  6
 12 13  1  0
 13  6  1  0
 14 12  1  0
 14 15  2  0
 17 16  1  0
 17 18  2  0
 19 18  1  0
 20 19  2  0
 21 20  1  0
 22 21  1  1
 23 22  1  0
 23 14  1  0
 24 22  1  0
 25 24  1  0
 26 27  2  0
 26 20  1  0
 27 17  1  0
 28 24  2  0
M  END
$$$$
