VNY.pdb
     RDKit          3D

 28 28  0  0  1  0  0  0  0  0999 V2000
    7.0028  -13.4804   18.2281 C   0  0  0  0  0  0  0  0  0  0  0  0
    8.2425  -13.8812   18.9911 C   0  0  1  0  0  0  0  0  0  0  0  0
    8.9941  -12.5881   19.3025 C   0  0  0  0  0  0  0  0  0  0  0  0
    7.8248  -14.5086   20.3035 C   0  0  2  0  0  0  0  0  0  0  0  0
    7.5310  -13.4561   21.2354 N   0  0  0  0  0  0  0  0  0  0  0  0
    8.9070  -15.3722   20.8398 C   0  0  0  0  0  0  0  0  0  0  0  0
    9.1609  -16.5104   20.3926 O   0  0  0  0  0  0  0  0  0  0  0  0
   12.7658  -13.6192   20.2088 N   0  0  0  0  0  0  0  0  0  0  0  0
   12.6259  -14.8709   20.8971 C   0  0  0  0  0  0  0  0  0  0  0  0
   12.9611  -15.8890   20.2519 O   0  0  0  0  0  0  0  0  0  0  0  0
   12.1104  -14.8833   22.2833 C   0  0  0  0  0  0  0  0  0  0  0  0
   10.8284  -15.6406   22.4372 C   0  0  2  0  0  0  0  0  0  0  0  0
    9.7089  -14.9021   21.9171 N   0  0  0  0  0  0  0  0  0  0  0  0
   10.5748  -15.9833   23.8666 C   0  0  0  0  0  0  0  0  0  0  0  0
   11.5033  -15.8987   24.7086 O   0  0  0  0  0  0  0  0  0  0  0  0
    6.8526  -10.9065   26.2607 O   0  0  0  0  0  0  0  0  0  0  0  0
    7.0514  -12.2801   26.2359 C   0  0  0  0  0  0  0  0  0  0  0  0
    8.2944  -12.8319   26.4528 C   0  0  0  0  0  0  0  0  0  0  0  0
    8.4652  -14.1969   26.4231 C   0  0  0  0  0  0  0  0  0  0  0  0
    7.4226  -15.0768   26.1791 C   0  0  0  0  0  0  0  0  0  0  0  0
    7.6745  -16.5289   26.1401 C   0  0  0  0  0  0  0  0  0  0  0  0
    9.0758  -16.7890   25.7073 C   0  0  2  0  0  0  0  0  0  0  0  0
    9.3116  -16.4084   24.3296 N   0  0  0  0  0  0  0  0  0  0  0  0
    9.5377  -18.1813   25.8831 C   0  0  0  0  0  0  0  0  0  0  0  0
    9.9175  -18.6702   27.1310 O   0  0  0  0  0  0  0  0  0  0  0  0
    6.1898  -14.4981   25.9652 C   0  0  0  0  0  0  0  0  0  0  0  0
    5.9982  -13.1327   25.9910 C   0  0  0  0  0  0  0  0  0  0  0  0
    9.6096  -18.9835   24.9259 O   0  0  0  0  0  0  0  0  0  0  0  0
  2  3  1  1
  2  1  1  0
  4  5  1  1
  4  2  1  0
  6  4  1  0
  7  6  2  0
  9 11  1  0
  9  8  1  0
 10  9  2  0
 12 11  1  1
 12 13  1  0
 13  6  1  0
 14 12  1  0
 14 15  2  0
 17 16  1  0
 17 18  2  0
 19 18  1  0
 20 19  2  0
 21 20  1  0
 22 21  1  6
 23 22  1  0
 23 14  1  0
 24 22  1  0
 25 24  1  0
 26 27  2  0
 26 20  1  0
 27 17  1  0
 28 24  2  0
M  END
$$$$
