VNY.pdb
     RDKit          3D

 28 28  0  0  1  0  0  0  0  0999 V2000
    7.0456  -13.0845   18.5472 C   0  0  0  0  0  0  0  0  0  0  0  0
    8.1661  -13.9795   19.0192 C   0  0  1  0  0  0  0  0  0  0  0  0
    9.2839  -13.0549   19.4983 C   0  0  0  0  0  0  0  0  0  0  0  0
    7.6805  -14.7827   20.2066 C   0  0  2  0  0  0  0  0  0  0  0  0
    7.2013  -13.8692   21.2057 N   0  0  0  0  0  0  0  0  0  0  0  0
    8.7792  -15.6116   20.7636 C   0  0  0  0  0  0  0  0  0  0  0  0
    9.1709  -16.6744   20.2370 O   0  0  0  0  0  0  0  0  0  0  0  0
   12.7995  -13.7477   20.6691 N   0  0  0  0  0  0  0  0  0  0  0  0
   12.4149  -15.0328   21.1797 C   0  0  0  0  0  0  0  0  0  0  0  0
   12.6389  -16.0079   20.4287 O   0  0  0  0  0  0  0  0  0  0  0  0
   11.7964  -15.1256   22.5200 C   0  0  0  0  0  0  0  0  0  0  0  0
   10.5298  -15.9232   22.5395 C   0  0  2  0  0  0  0  0  0  0  0  0
    9.4345  -15.1958   21.9562 N   0  0  0  0  0  0  0  0  0  0  0  0
   10.1711  -16.3286   23.9295 C   0  0  0  0  0  0  0  0  0  0  0  0
   11.0734  -16.5156   24.7833 O   0  0  0  0  0  0  0  0  0  0  0  0
    7.2877  -10.7264   26.0109 O   0  0  0  0  0  0  0  0  0  0  0  0
    7.2512  -12.1137   26.0386 C   0  0  0  0  0  0  0  0  0  0  0  0
    8.0515  -12.8383   26.8936 C   0  0  0  0  0  0  0  0  0  0  0  0
    7.9964  -14.2131   26.9019 C   0  0  0  0  0  0  0  0  0  0  0  0
    7.1532  -14.9337   26.0710 C   0  0  0  0  0  0  0  0  0  0  0  0
    7.1555  -16.4074   26.1134 C   0  0  0  0  0  0  0  0  0  0  0  0
    8.4855  -16.9247   25.6865 C   0  0  2  0  0  0  0  0  0  0  0  0
    8.8348  -16.5166   24.3412 N   0  0  0  0  0  0  0  0  0  0  0  0
    8.6458  -18.3906   25.7765 C   0  0  0  0  0  0  0  0  0  0  0  0
    8.8609  -19.0258   26.9975 O   0  0  0  0  0  0  0  0  0  0  0  0
    6.3635  -14.1840   25.2255 C   0  0  0  0  0  0  0  0  0  0  0  0
    6.4040  -12.8058   25.2022 C   0  0  0  0  0  0  0  0  0  0  0  0
    8.5964  -19.1278   24.7670 O   0  0  0  0  0  0  0  0  0  0  0  0
  2  3  1  1
  2  1  1  0
  4  5  1  1
  4  2  1  0
  6  4  1  0
  7  6  2  0
  9 11  1  0
  9  8  1  0
 10  9  2  0
 12 11  1  1
 12 13  1  0
 13  6  1  0
 14 12  1  0
 14 15  2  0
 17 16  1  0
 17 18  2  0
 19 18  1  0
 20 19  2  0
 21 20  1  0
 22 21  1  6
 23 22  1  0
 23 14  1  0
 24 22  1  0
 25 24  1  0
 26 27  2  0
 26 20  1  0
 27 17  1  0
 28 24  2  0
M  END
$$$$
