VNY.pdb
     RDKit          3D

 28 28  0  0  1  0  0  0  0  0999 V2000
    7.0570  -13.2811   18.8106 C   0  0  0  0  0  0  0  0  0  0  0  0
    8.5002  -13.7110   18.7021 C   0  0  1  0  0  0  0  0  0  0  0  0
    9.2628  -12.9366   19.7756 C   0  0  0  0  0  0  0  0  0  0  0  0
    8.5951  -15.1853   19.0308 C   0  0  2  0  0  0  0  0  0  0  0  0
    7.9172  -15.4163   20.2756 N   0  0  0  0  0  0  0  0  0  0  0  0
   10.0142  -15.6077   19.1411 C   0  0  0  0  0  0  0  0  0  0  0  0
   10.7244  -15.8896   18.1531 O   0  0  0  0  0  0  0  0  0  0  0  0
   13.7435  -16.0972   18.3462 N   0  0  0  0  0  0  0  0  0  0  0  0
   13.4138  -14.7927   18.8460 C   0  0  0  0  0  0  0  0  0  0  0  0
   13.6791  -13.8343   18.0869 O   0  0  0  0  0  0  0  0  0  0  0  0
   12.7999  -14.6625   20.1852 C   0  0  0  0  0  0  0  0  0  0  0  0
   12.0342  -15.8759   20.6120 C   0  0  2  0  0  0  0  0  0  0  0  0
   10.6183  -15.7038   20.4258 N   0  0  0  0  0  0  0  0  0  0  0  0
   12.3092  -16.2106   22.0393 C   0  0  0  0  0  0  0  0  0  0  0  0
   13.4831  -16.4557   22.4136 O   0  0  0  0  0  0  0  0  0  0  0  0
    5.3249  -15.4337   24.0702 O   0  0  0  0  0  0  0  0  0  0  0  0
    6.6790  -15.4769   24.3725 C   0  0  0  0  0  0  0  0  0  0  0  0
    7.2889  -16.6421   24.7810 C   0  0  0  0  0  0  0  0  0  0  0  0
    8.6330  -16.6587   25.0747 C   0  0  0  0  0  0  0  0  0  0  0  0
    9.4342  -15.5318   24.9796 C   0  0  0  0  0  0  0  0  0  0  0  0
   10.8646  -15.6100   25.3282 C   0  0  0  0  0  0  0  0  0  0  0  0
   11.5601  -16.5516   24.4071 C   0  0  2  0  0  0  0  0  0  0  0  0
   11.2895  -16.2667   23.0129 N   0  0  0  0  0  0  0  0  0  0  0  0
   11.2793  -17.9825   24.6448 C   0  0  0  0  0  0  0  0  0  0  0  0
   11.5871  -18.5928   25.8587 O   0  0  0  0  0  0  0  0  0  0  0  0
    8.7985  -14.3795   24.5689 C   0  0  0  0  0  0  0  0  0  0  0  0
    7.4528  -14.3425   24.2699 C   0  0  0  0  0  0  0  0  0  0  0  0
   10.7550  -18.7106   23.7732 O   0  0  0  0  0  0  0  0  0  0  0  0
  2  3  1  1
  2  1  1  0
  4  5  1  1
  4  2  1  0
  6  4  1  0
  7  6  2  0
  9 11  1  0
  9  8  1  0
 10  9  2  0
 12 11  1  1
 12 13  1  0
 13  6  1  0
 14 12  1  0
 14 15  2  0
 17 16  1  0
 17 18  2  0
 19 18  1  0
 20 19  2  0
 21 20  1  0
 22 21  1  1
 23 22  1  0
 23 14  1  0
 24 22  1  0
 25 24  1  0
 26 27  2  0
 26 20  1  0
 27 17  1  0
 28 24  2  0
M  END
$$$$
