ADF.pdb
     RDKit          3D

 25 25  0  0  1  0  0  0  0  0999 V2000
    8.1707  -13.5861   18.3426 C   0  0  0  0  0  0  0  0  0  0  0  0
    7.6246  -13.6466   19.7341 C   0  0  2  0  0  0  0  0  0  0  0  0
    7.9823  -12.5227   20.5501 N   0  0  0  0  0  0  0  0  0  0  0  0
    7.9868  -14.9269   20.4210 C   0  0  0  0  0  0  0  0  0  0  0  0
    7.8068  -16.0350   19.8612 O   0  0  0  0  0  0  0  0  0  0  0  0
    8.5542  -14.9414   21.7456 N   0  0  0  0  0  0  0  0  0  0  0  0
    9.3012  -16.0521   22.2520 C   0  0  1  0  0  0  0  0  0  0  0  0
   10.4574  -16.4809   21.3914 C   0  0  0  0  0  0  0  0  0  0  0  0
   11.1544  -17.6716   21.9188 C   0  0  0  0  0  0  0  0  0  0  0  0
   10.4721  -18.6429   22.3168 O   0  0  0  0  0  0  0  0  0  0  0  0
    9.7208  -15.8637   23.6672 C   0  0  0  0  0  0  0  0  0  0  0  0
   10.7619  -15.2880   24.0136 O   0  0  0  0  0  0  0  0  0  0  0  0
   12.5302  -17.7622   21.9922 O   0  0  0  0  0  0  0  0  0  0  0  0
    8.8639  -16.3824   24.6766 N   0  0  0  0  0  0  0  0  0  0  0  0
    9.0996  -16.1298   26.0862 C   0  0  1  0  0  0  0  0  0  0  0  0
    7.7497  -15.7978   26.6893 C   0  0  0  0  0  0  0  0  0  0  0  0
    7.3449  -14.4033   26.3699 C   0  0  0  0  0  0  0  0  0  0  0  0
    8.0399  -13.3647   26.9064 C   0  0  0  0  0  0  0  0  0  0  0  0
    7.7239  -12.0402   26.6525 C   0  0  0  0  0  0  0  0  0  0  0  0
    6.6614  -11.7583   25.8222 C   0  0  0  0  0  0  0  0  0  0  0  0
    5.9645  -12.8079   25.2845 C   0  0  0  0  0  0  0  0  0  0  0  0
    6.2727  -14.1277   25.5321 C   0  0  0  0  0  0  0  0  0  0  0  0
    9.5889  -17.3716   26.7687 C   0  0  0  0  0  0  0  0  0  0  0  0
    9.6763  -18.5706   26.0896 O   0  0  0  0  0  0  0  0  0  0  0  0
    9.9166  -17.2835   27.9787 O   0  0  0  0  0  0  0  0  0  0  0  0
  2  1  1  6
  2  3  1  0
  4  5  2  0
  4  2  1  0
  6  4  1  0
  7  8  1  6
  7  6  1  0
  8  9  1  0
  9 10  2  0
  9 13  1  0
 11  7  1  0
 12 11  2  0
 14 11  1  0
 15 16  1  1
 15 14  1  0
 16 17  1  0
 17 22  2  0
 18 19  2  0
 18 17  1  0
 19 20  1  0
 20 21  2  0
 22 21  1  0
 23 15  1  0
 23 24  1  0
 25 23  2  0
M  END
$$$$
