ADF.pdb
     RDKit          3D

 25 25  0  0  1  0  0  0  0  0999 V2000
    7.2347  -12.9811   18.9567 C   0  0  0  0  0  0  0  0  0  0  0  0
    8.3760  -13.1418   19.9106 C   0  0  2  0  0  0  0  0  0  0  0  0
    9.6574  -13.2430   19.2747 N   0  0  0  0  0  0  0  0  0  0  0  0
    8.1647  -14.2922   20.8456 C   0  0  0  0  0  0  0  0  0  0  0  0
    7.0714  -14.4506   21.4399 O   0  0  0  0  0  0  0  0  0  0  0  0
    9.2009  -15.2606   21.1010 N   0  0  0  0  0  0  0  0  0  0  0  0
    9.0178  -16.3699   21.9865 C   0  0  1  0  0  0  0  0  0  0  0  0
    9.5998  -17.6687   21.5008 C   0  0  0  0  0  0  0  0  0  0  0  0
   10.9580  -17.5148   20.9411 C   0  0  0  0  0  0  0  0  0  0  0  0
   11.3946  -16.3614   20.7259 O   0  0  0  0  0  0  0  0  0  0  0  0
    9.4503  -16.0702   23.3784 C   0  0  0  0  0  0  0  0  0  0  0  0
   10.6037  -15.7456   23.6940 O   0  0  0  0  0  0  0  0  0  0  0  0
   11.7714  -18.5904   20.6443 O   0  0  0  0  0  0  0  0  0  0  0  0
    8.4680  -16.1665   24.4021 N   0  0  0  0  0  0  0  0  0  0  0  0
    8.8037  -16.0014   25.8045 C   0  0  1  0  0  0  0  0  0  0  0  0
    7.5047  -15.6843   26.5173 C   0  0  0  0  0  0  0  0  0  0  0  0
    7.1931  -14.2322   26.4493 C   0  0  0  0  0  0  0  0  0  0  0  0
    8.2090  -13.3331   26.3531 C   0  0  0  0  0  0  0  0  0  0  0  0
    7.9964  -11.9662   26.2825 C   0  0  0  0  0  0  0  0  0  0  0  0
    6.7030  -11.4929   26.3107 C   0  0  0  0  0  0  0  0  0  0  0  0
    5.6833  -12.4025   26.4077 C   0  0  0  0  0  0  0  0  0  0  0  0
    5.8867  -13.7633   26.4782 C   0  0  0  0  0  0  0  0  0  0  0  0
    9.3135  -17.2890   26.3785 C   0  0  0  0  0  0  0  0  0  0  0  0
    9.1681  -18.4805   25.6961 O   0  0  0  0  0  0  0  0  0  0  0  0
    9.8772  -17.2464   27.5009 O   0  0  0  0  0  0  0  0  0  0  0  0
  2  1  1  6
  2  3  1  0
  4  5  2  0
  4  2  1  0
  6  4  1  0
  7  8  1  6
  7  6  1  0
  8  9  1  0
  9 10  2  0
  9 13  1  0
 11  7  1  0
 12 11  2  0
 14 11  1  0
 15 16  1  1
 15 14  1  0
 16 17  1  0
 17 22  2  0
 18 19  2  0
 18 17  1  0
 19 20  1  0
 20 21  2  0
 22 21  1  0
 23 15  1  0
 23 24  1  0
 25 23  2  0
M  END
$$$$
