ADF.pdb
     RDKit          3D

 25 25  0  0  1  0  0  0  0  0999 V2000
    7.6423  -12.3760   19.0153 C   0  0  0  0  0  0  0  0  0  0  0  0
    8.5430  -13.5558   19.2021 C   0  0  2  0  0  0  0  0  0  0  0  0
    8.4903  -14.5052   18.1286 N   0  0  0  0  0  0  0  0  0  0  0  0
    8.3058  -14.2374   20.5142 C   0  0  0  0  0  0  0  0  0  0  0  0
    8.3724  -13.6029   21.5943 O   0  0  0  0  0  0  0  0  0  0  0  0
    7.9926  -15.6418   20.5922 N   0  0  0  0  0  0  0  0  0  0  0  0
    7.6878  -16.2960   21.8280 C   0  0  1  0  0  0  0  0  0  0  0  0
    7.1587  -17.6966   21.6877 C   0  0  0  0  0  0  0  0  0  0  0  0
    8.1065  -18.6024   21.0074 C   0  0  0  0  0  0  0  0  0  0  0  0
    8.8187  -19.3625   21.7020 O   0  0  0  0  0  0  0  0  0  0  0  0
    8.8127  -16.2375   22.8005 C   0  0  0  0  0  0  0  0  0  0  0  0
   10.0077  -16.3396   22.4893 O   0  0  0  0  0  0  0  0  0  0  0  0
    8.2424  -18.6491   19.6341 O   0  0  0  0  0  0  0  0  0  0  0  0
    8.4815  -16.0530   24.1711 N   0  0  0  0  0  0  0  0  0  0  0  0
    9.5014  -15.8930   25.1912 C   0  0  1  0  0  0  0  0  0  0  0  0
    9.6522  -14.4011   25.4102 C   0  0  0  0  0  0  0  0  0  0  0  0
    8.3824  -13.7959   25.8915 C   0  0  0  0  0  0  0  0  0  0  0  0
    7.4608  -13.3663   24.9884 C   0  0  0  0  0  0  0  0  0  0  0  0
    6.2551  -12.7955   25.3612 C   0  0  0  0  0  0  0  0  0  0  0  0
    5.9733  -12.6549   26.7023 C   0  0  0  0  0  0  0  0  0  0  0  0
    6.9048  -13.0891   27.6080 C   0  0  0  0  0  0  0  0  0  0  0  0
    8.1060  -13.6579   27.2450 C   0  0  0  0  0  0  0  0  0  0  0  0
    9.0419  -16.4807   26.4914 C   0  0  0  0  0  0  0  0  0  0  0  0
    7.7910  -17.0526   26.6124 O   0  0  0  0  0  0  0  0  0  0  0  0
    9.8337  -16.4352   27.4662 O   0  0  0  0  0  0  0  0  0  0  0  0
  2  1  1  6
  2  3  1  0
  4  5  2  0
  4  2  1  0
  6  4  1  0
  7  8  1  6
  7  6  1  0
  8  9  1  0
  9 10  2  0
  9 13  1  0
 11  7  1  0
 12 11  2  0
 14 11  1  0
 15 16  1  1
 15 14  1  0
 16 17  1  0
 17 22  2  0
 18 19  2  0
 18 17  1  0
 19 20  1  0
 20 21  2  0
 22 21  1  0
 23 15  1  0
 23 24  1  0
 25 23  2  0
M  END
$$$$
