ADF.pdb
     RDKit          3D

 25 25  0  0  1  0  0  0  0  0999 V2000
    6.5883  -19.3773   23.7936 C   0  0  0  0  0  0  0  0  0  0  0  0
    7.5427  -19.4295   22.6428 C   0  0  2  0  0  0  0  0  0  0  0  0
    7.8703  -20.7592   22.2169 N   0  0  0  0  0  0  0  0  0  0  0  0
    8.7896  -18.6464   22.9153 C   0  0  0  0  0  0  0  0  0  0  0  0
    9.8252  -19.2080   23.3465 O   0  0  0  0  0  0  0  0  0  0  0  0
    8.8537  -17.2237   22.6953 N   0  0  0  0  0  0  0  0  0  0  0  0
   10.0557  -16.4689   22.8782 C   0  0  1  0  0  0  0  0  0  0  0  0
   10.2213  -15.3069   21.9381 C   0  0  0  0  0  0  0  0  0  0  0  0
   10.4830  -15.7277   20.5466 C   0  0  0  0  0  0  0  0  0  0  0  0
   11.2218  -16.7181   20.3449 O   0  0  0  0  0  0  0  0  0  0  0  0
   10.2631  -16.0544   24.2923 C   0  0  0  0  0  0  0  0  0  0  0  0
   11.2940  -15.5119   24.7144 O   0  0  0  0  0  0  0  0  0  0  0  0
    9.9466  -15.0758   19.4541 O   0  0  0  0  0  0  0  0  0  0  0  0
    9.2033  -16.3028   25.2074 N   0  0  0  0  0  0  0  0  0  0  0  0
    9.3588  -16.0943   26.6352 C   0  0  1  0  0  0  0  0  0  0  0  0
    8.0071  -15.6397   27.1474 C   0  0  0  0  0  0  0  0  0  0  0  0
    7.7563  -14.2128   26.8138 C   0  0  0  0  0  0  0  0  0  0  0  0
    6.6019  -13.8651   26.1844 C   0  0  0  0  0  0  0  0  0  0  0  0
    6.2976  -12.5572   25.8447 C   0  0  0  0  0  0  0  0  0  0  0  0
    7.1995  -11.5633   26.1554 C   0  0  0  0  0  0  0  0  0  0  0  0
    8.3607  -11.9186   26.7892 C   0  0  0  0  0  0  0  0  0  0  0  0
    8.6704  -13.2170   27.1305 C   0  0  0  0  0  0  0  0  0  0  0  0
    9.6743  -17.3876   27.3245 C   0  0  0  0  0  0  0  0  0  0  0  0
    9.6952  -18.5797   26.6281 O   0  0  0  0  0  0  0  0  0  0  0  0
    9.9189  -17.3492   28.5566 O   0  0  0  0  0  0  0  0  0  0  0  0
  2  1  1  1
  2  3  1  0
  4  5  2  0
  4  2  1  0
  6  4  1  0
  7  8  1  6
  7  6  1  0
  8  9  1  0
  9 10  2  0
  9 13  1  0
 11  7  1  0
 12 11  2  0
 14 11  1  0
 15 16  1  1
 15 14  1  0
 16 17  1  0
 17 22  2  0
 18 19  2  0
 18 17  1  0
 19 20  1  0
 20 21  2  0
 22 21  1  0
 23 15  1  0
 23 24  1  0
 25 23  2  0
M  END
$$$$
