ADF.pdb
     RDKit          3D

 25 25  0  0  1  0  0  0  0  0999 V2000
    7.0737  -12.9726   19.2097 C   0  0  0  0  0  0  0  0  0  0  0  0
    8.4572  -13.3923   19.5946 C   0  0  2  0  0  0  0  0  0  0  0  0
    9.2148  -13.9605   18.5176 N   0  0  0  0  0  0  0  0  0  0  0  0
    8.4532  -14.3149   20.7739 C   0  0  0  0  0  0  0  0  0  0  0  0
    7.8307  -14.0217   21.8228 O   0  0  0  0  0  0  0  0  0  0  0  0
    9.1592  -15.5711   20.7551 N   0  0  0  0  0  0  0  0  0  0  0  0
    9.0947  -16.5077   21.8352 C   0  0  1  0  0  0  0  0  0  0  0  0
    9.4201  -17.9273   21.4607 C   0  0  0  0  0  0  0  0  0  0  0  0
    8.7087  -18.3778   20.2471 C   0  0  0  0  0  0  0  0  0  0  0  0
    7.4661  -18.5226   20.2951 O   0  0  0  0  0  0  0  0  0  0  0  0
    9.8770  -16.0686   23.0225 C   0  0  0  0  0  0  0  0  0  0  0  0
   10.9790  -15.5055   22.9604 O   0  0  0  0  0  0  0  0  0  0  0  0
    9.3552  -18.6464   19.0570 O   0  0  0  0  0  0  0  0  0  0  0  0
    9.3130  -16.3173   24.3040 N   0  0  0  0  0  0  0  0  0  0  0  0
    9.9778  -15.9060   25.5269 C   0  0  1  0  0  0  0  0  0  0  0  0
   10.0120  -14.3912   25.5025 C   0  0  0  0  0  0  0  0  0  0  0  0
    8.6726  -13.8170   25.7966 C   0  0  0  0  0  0  0  0  0  0  0  0
    8.4146  -13.3195   27.0358 C   0  0  0  0  0  0  0  0  0  0  0  0
    7.1928  -12.7668   27.3825 C   0  0  0  0  0  0  0  0  0  0  0  0
    6.1937  -12.7169   26.4354 C   0  0  0  0  0  0  0  0  0  0  0  0
    6.4584  -13.2193   25.1889 C   0  0  0  0  0  0  0  0  0  0  0  0
    7.6709  -13.7704   24.8364 C   0  0  0  0  0  0  0  0  0  0  0  0
    9.1698  -16.3050   26.7249 C   0  0  0  0  0  0  0  0  0  0  0  0
    9.6481  -16.1075   28.0050 O   0  0  0  0  0  0  0  0  0  0  0  0
    8.0434  -16.8248   26.5239 O   0  0  0  0  0  0  0  0  0  0  0  0
  2  1  1  6
  2  3  1  0
  4  5  2  0
  4  2  1  0
  6  4  1  0
  7  8  1  6
  7  6  1  0
  8  9  1  0
  9 10  2  0
  9 13  1  0
 11  7  1  0
 12 11  2  0
 14 11  1  0
 15 16  1  6
 15 14  1  0
 16 17  1  0
 17 22  2  0
 18 19  2  0
 18 17  1  0
 19 20  1  0
 20 21  2  0
 22 21  1  0
 23 15  1  0
 23 24  1  0
 25 23  2  0
M  END
$$$$
