ADF.pdb
     RDKit          3D

 25 25  0  0  1  0  0  0  0  0999 V2000
    7.1814  -12.6567   19.2620 C   0  0  0  0  0  0  0  0  0  0  0  0
    8.4829  -13.2520   19.6981 C   0  0  2  0  0  0  0  0  0  0  0  0
    9.1336  -14.0345   18.6877 N   0  0  0  0  0  0  0  0  0  0  0  0
    8.3395  -14.0442   20.9606 C   0  0  0  0  0  0  0  0  0  0  0  0
    7.8115  -13.5434   21.9824 O   0  0  0  0  0  0  0  0  0  0  0  0
    8.7985  -15.4069   21.0557 N   0  0  0  0  0  0  0  0  0  0  0  0
    8.5374  -16.2303   22.1968 C   0  0  1  0  0  0  0  0  0  0  0  0
    8.4826  -17.7058   21.9120 C   0  0  0  0  0  0  0  0  0  0  0  0
    9.7408  -18.2266   21.3397 C   0  0  0  0  0  0  0  0  0  0  0  0
   10.3035  -17.5772   20.4291 O   0  0  0  0  0  0  0  0  0  0  0  0
    9.4448  -15.9330   23.3382 C   0  0  0  0  0  0  0  0  0  0  0  0
   10.5391  -15.3625   23.2270 O   0  0  0  0  0  0  0  0  0  0  0  0
   10.3270  -19.4018   21.7661 O   0  0  0  0  0  0  0  0  0  0  0  0
    9.0173  -16.3348   24.6336 N   0  0  0  0  0  0  0  0  0  0  0  0
    9.8915  -16.2518   25.7892 C   0  0  1  0  0  0  0  0  0  0  0  0
    9.9995  -14.7804   26.1349 C   0  0  0  0  0  0  0  0  0  0  0  0
    8.6563  -14.1681   26.3112 C   0  0  0  0  0  0  0  0  0  0  0  0
    7.5545  -14.9651   26.3323 C   0  0  0  0  0  0  0  0  0  0  0  0
    6.2722  -14.4676   26.4954 C   0  0  0  0  0  0  0  0  0  0  0  0
    6.1007  -13.1087   26.6426 C   0  0  0  0  0  0  0  0  0  0  0  0
    7.2135  -12.3102   26.6205 C   0  0  0  0  0  0  0  0  0  0  0  0
    8.4920  -12.7975   26.4590 C   0  0  0  0  0  0  0  0  0  0  0  0
    9.2684  -16.9330   26.9703 C   0  0  0  0  0  0  0  0  0  0  0  0
    8.0567  -17.5857   26.8590 O   0  0  0  0  0  0  0  0  0  0  0  0
    9.8863  -16.8897   28.0637 O   0  0  0  0  0  0  0  0  0  0  0  0
  2  1  1  6
  2  3  1  0
  4  5  2  0
  4  2  1  0
  6  4  1  0
  7  8  1  6
  7  6  1  0
  8  9  1  0
  9 10  2  0
  9 13  1  0
 11  7  1  0
 12 11  2  0
 14 11  1  0
 15 16  1  1
 15 14  1  0
 16 17  1  0
 17 22  2  0
 18 19  2  0
 18 17  1  0
 19 20  1  0
 20 21  2  0
 22 21  1  0
 23 15  1  0
 23 24  1  0
 25 23  2  0
M  END
$$$$
