ADF.pdb
     RDKit          3D

 25 25  0  0  1  0  0  0  0  0999 V2000
    6.7878  -13.2427   19.6087 C   0  0  0  0  0  0  0  0  0  0  0  0
    8.1421  -13.4527   20.2087 C   0  0  2  0  0  0  0  0  0  0  0  0
    9.1796  -13.6729   19.2434 N   0  0  0  0  0  0  0  0  0  0  0  0
    8.1371  -14.5486   21.2291 C   0  0  0  0  0  0  0  0  0  0  0  0
    7.2645  -14.5905   22.1295 O   0  0  0  0  0  0  0  0  0  0  0  0
    9.1273  -15.5956   21.2209 N   0  0  0  0  0  0  0  0  0  0  0  0
    9.1609  -16.6323   22.2068 C   0  0  1  0  0  0  0  0  0  0  0  0
   10.0317  -17.8078   21.8581 C   0  0  0  0  0  0  0  0  0  0  0  0
    9.6895  -18.4077   20.5525 C   0  0  0  0  0  0  0  0  0  0  0  0
   10.3782  -18.1066   19.5513 O   0  0  0  0  0  0  0  0  0  0  0  0
    9.4663  -16.1182   23.5695 C   0  0  0  0  0  0  0  0  0  0  0  0
   10.4146  -15.3655   23.8329 O   0  0  0  0  0  0  0  0  0  0  0  0
    8.6406  -19.2900   20.3862 O   0  0  0  0  0  0  0  0  0  0  0  0
    8.6079  -16.5245   24.6279 N   0  0  0  0  0  0  0  0  0  0  0  0
    8.8671  -16.1587   26.0083 C   0  0  1  0  0  0  0  0  0  0  0  0
    7.5276  -15.7757   26.6044 C   0  0  0  0  0  0  0  0  0  0  0  0
    7.2450  -14.3291   26.4102 C   0  0  0  0  0  0  0  0  0  0  0  0
    6.0868  -13.9480   25.8077 C   0  0  0  0  0  0  0  0  0  0  0  0
    5.7537  -12.6204   25.5951 C   0  0  0  0  0  0  0  0  0  0  0  0
    6.6295  -11.6413   26.0099 C   0  0  0  0  0  0  0  0  0  0  0  0
    7.7946  -12.0302   26.6162 C   0  0  0  0  0  0  0  0  0  0  0  0
    8.1330  -13.3484   26.8312 C   0  0  0  0  0  0  0  0  0  0  0  0
    9.3665  -17.3420   26.7813 C   0  0  0  0  0  0  0  0  0  0  0  0
    9.4325  -18.5943   26.2036 O   0  0  0  0  0  0  0  0  0  0  0  0
    9.7227  -17.1548   27.9718 O   0  0  0  0  0  0  0  0  0  0  0  0
  2  1  1  6
  2  3  1  0
  4  5  2  0
  4  2  1  0
  6  4  1  0
  7  8  1  6
  7  6  1  0
  8  9  1  0
  9 10  2  0
  9 13  1  0
 11  7  1  0
 12 11  2  0
 14 11  1  0
 15 16  1  1
 15 14  1  0
 16 17  1  0
 17 22  2  0
 18 19  2  0
 18 17  1  0
 19 20  1  0
 20 21  2  0
 22 21  1  0
 23 15  1  0
 23 24  1  0
 25 23  2  0
M  END
$$$$
