ADF.pdb
     RDKit          3D

 25 25  0  0  1  0  0  0  0  0999 V2000
    8.0566  -21.7717   22.4543 C   0  0  0  0  0  0  0  0  0  0  0  0
    7.8224  -20.3455   22.8409 C   0  0  2  0  0  0  0  0  0  0  0  0
    6.7488  -19.7170   22.1274 N   0  0  0  0  0  0  0  0  0  0  0  0
    9.0709  -19.5257   22.7342 C   0  0  0  0  0  0  0  0  0  0  0  0
   10.1263  -19.8755   23.3150 O   0  0  0  0  0  0  0  0  0  0  0  0
    9.1137  -18.3080   21.9648 N   0  0  0  0  0  0  0  0  0  0  0  0
   10.2677  -17.4625   21.9236 C   0  0  1  0  0  0  0  0  0  0  0  0
   10.6471  -16.9778   20.5516 C   0  0  0  0  0  0  0  0  0  0  0  0
   11.0975  -18.0679   19.6624 C   0  0  0  0  0  0  0  0  0  0  0  0
   10.2542  -18.6409   18.9358 O   0  0  0  0  0  0  0  0  0  0  0  0
   10.1880  -16.3358   22.8925 C   0  0  0  0  0  0  0  0  0  0  0  0
   11.1028  -15.5245   23.0931 O   0  0  0  0  0  0  0  0  0  0  0  0
   12.4122  -18.4844   19.5958 O   0  0  0  0  0  0  0  0  0  0  0  0
    8.9801  -16.1927   23.6291 N   0  0  0  0  0  0  0  0  0  0  0  0
    8.7907  -15.1215   24.5899 C   0  0  1  0  0  0  0  0  0  0  0  0
    7.4221  -14.5353   24.3076 C   0  0  0  0  0  0  0  0  0  0  0  0
    7.0855  -13.4604   25.2780 C   0  0  0  0  0  0  0  0  0  0  0  0
    6.1381  -13.6875   26.2269 C   0  0  0  0  0  0  0  0  0  0  0  0
    5.7738  -12.7363   27.1656 C   0  0  0  0  0  0  0  0  0  0  0  0
    6.3947  -11.5068   27.1407 C   0  0  0  0  0  0  0  0  0  0  0  0
    7.3481  -11.2829   26.1829 C   0  0  0  0  0  0  0  0  0  0  0  0
    7.7160  -12.2239   25.2461 C   0  0  0  0  0  0  0  0  0  0  0  0
    8.7522  -15.6673   25.9856 C   0  0  0  0  0  0  0  0  0  0  0  0
    8.5292  -17.0096   26.2199 O   0  0  0  0  0  0  0  0  0  0  0  0
    8.9300  -14.8618   26.9337 O   0  0  0  0  0  0  0  0  0  0  0  0
  2  1  1  6
  2  3  1  0
  4  5  2  0
  4  2  1  0
  6  4  1  0
  7  8  1  6
  7  6  1  0
  8  9  1  0
  9 10  2  0
  9 13  1  0
 11  7  1  0
 12 11  2  0
 14 11  1  0
 15 16  1  6
 15 14  1  0
 16 17  1  0
 17 22  2  0
 18 19  2  0
 18 17  1  0
 19 20  1  0
 20 21  2  0
 22 21  1  0
 23 15  1  0
 23 24  1  0
 25 23  2  0
M  END
$$$$
