NMA.pdb
     RDKit          3D

 22 21  0  0  1  0  0  0  0  0999 V2000
   21.1768  -15.0519  -21.6758 N   0  0  0  0  0  0  0  0  0  0  0  0
   20.0743  -14.8530  -20.8283 C   0  0  0  0  0  0  0  0  0  0  0  0
   18.9892  -15.4256  -21.0687 O   0  0  0  0  0  0  0  0  0  0  0  0
   20.2056  -13.9645  -19.6537 C   0  0  0  0  0  0  0  0  0  0  0  0
   21.4422  -14.3419  -18.8716 C   0  0  2  0  0  0  0  0  0  0  0  0
   21.2500  -15.6648  -18.3248 N   0  0  0  0  0  0  0  0  0  0  0  0
   21.6933  -13.4131  -17.7447 C   0  0  0  0  0  0  0  0  0  0  0  0
   20.8126  -13.1567  -16.8696 O   0  0  0  0  0  0  0  0  0  0  0  0
   27.6357  -13.7272  -16.2035 C   0  0  0  0  0  0  0  0  0  0  0  0
   26.6343  -13.3522  -14.7132 S   0  0  0  0  0  0  0  0  0  0  0  0
   24.9313  -13.2127  -15.2472 C   0  0  0  0  0  0  0  0  0  0  0  0
   24.5681  -11.9613  -15.9432 C   0  0  0  0  0  0  0  0  0  0  0  0
   23.2097  -11.8068  -16.4897 C   0  0  2  0  0  0  0  0  0  0  0  0
   22.9462  -12.7407  -17.5644 N   0  0  0  0  0  0  0  0  0  0  0  0
   22.7880  -10.4384  -16.8159 C   0  0  0  0  0  0  0  0  0  0  0  0
   23.0787   -9.8244  -17.8601 O   0  0  0  0  0  0  0  0  0  0  0  0
   20.1869   -8.2055  -16.4660 C   0  0  0  0  0  0  0  0  0  0  0  0
   21.6320   -8.3136  -16.0836 C   0  0  2  0  0  0  0  0  0  0  0  0
   21.9795   -9.7301  -15.8808 N   0  0  0  0  0  0  0  0  0  0  0  0
   21.8232   -7.5841  -14.8078 C   0  0  0  0  0  0  0  0  0  0  0  0
   21.7540   -6.2098  -14.7185 O   0  0  0  0  0  0  0  0  0  0  0  0
   22.0574   -8.2411  -13.7660 O   0  0  0  0  0  0  0  0  0  0  0  0
  1  2  1  0
  2  4  1  0
  3  2  2  0
  4  5  1  0
  5  6  1  1
  7  5  1  0
  8  7  2  0
 10 11  1  0
 10  9  1  0
 11 12  1  0
 13 12  1  6
 13 15  1  0
 13 14  1  0
 14  7  1  0
 15 19  1  0
 16 15  2  0
 18 17  1  1
 18 20  1  0
 19 18  1  0
 20 22  2  0
 20 21  1  0
M  END
$$$$
