NMA.pdb
     RDKit          3D

 22 21  0  0  1  0  0  0  0  0999 V2000
   24.3769  -24.0903  -16.4307 N   0  0  0  0  0  0  0  0  0  0  0  0
   25.0839  -23.3031  -17.3547 C   0  0  0  0  0  0  0  0  0  0  0  0
   24.5360  -22.3081  -17.8770 O   0  0  0  0  0  0  0  0  0  0  0  0
   26.4760  -23.6582  -17.7040 C   0  0  0  0  0  0  0  0  0  0  0  0
   26.8665  -24.9307  -16.9889 C   0  0  2  0  0  0  0  0  0  0  0  0
   26.9282  -24.6572  -15.5720 N   0  0  0  0  0  0  0  0  0  0  0  0
   28.1959  -25.4251  -17.4176 C   0  0  0  0  0  0  0  0  0  0  0  0
   28.4914  -25.6014  -18.6378 O   0  0  0  0  0  0  0  0  0  0  0  0
   35.7614  -26.5674  -15.2751 C   0  0  0  0  0  0  0  0  0  0  0  0
   34.1208  -25.9352  -14.7523 S   0  0  0  0  0  0  0  0  0  0  0  0
   32.9610  -26.3488  -16.0518 C   0  0  0  0  0  0  0  0  0  0  0  0
   31.5776  -25.8644  -15.8676 C   0  0  0  0  0  0  0  0  0  0  0  0
   30.5575  -26.1907  -16.8780 C   0  0  2  0  0  0  0  0  0  0  0  0
   29.2392  -25.7380  -16.4860 N   0  0  0  0  0  0  0  0  0  0  0  0
   30.5534  -27.5705  -17.3809 C   0  0  0  0  0  0  0  0  0  0  0  0
   30.0990  -28.5579  -16.7723 O   0  0  0  0  0  0  0  0  0  0  0  0
   31.1808  -29.0878  -20.7401 C   0  0  0  0  0  0  0  0  0  0  0  0
   31.0990  -29.1855  -19.2468 C   0  0  2  0  0  0  0  0  0  0  0  0
   31.1077  -27.8320  -18.6670 N   0  0  0  0  0  0  0  0  0  0  0  0
   32.2946  -29.9204  -18.7705 C   0  0  0  0  0  0  0  0  0  0  0  0
   33.4444  -29.2823  -18.3558 O   0  0  0  0  0  0  0  0  0  0  0  0
   32.2615  -31.1734  -18.7427 O   0  0  0  0  0  0  0  0  0  0  0  0
  1  2  1  0
  2  4  1  0
  3  2  2  0
  4  5  1  0
  5  6  1  1
  7  5  1  0
  8  7  2  0
 10 11  1  0
 10  9  1  0
 11 12  1  0
 13 12  1  1
 13 15  1  0
 13 14  1  0
 14  7  1  0
 15 19  1  0
 16 15  2  0
 18 17  1  6
 18 20  1  0
 19 18  1  0
 20 22  2  0
 20 21  1  0
M  END
$$$$
