NMA.pdb
     RDKit          3D

 22 21  0  0  1  0  0  0  0  0999 V2000
   20.0798   -5.3374  -15.6330 N   0  0  0  0  0  0  0  0  0  0  0  0
   20.6708   -6.6104  -15.6942 C   0  0  0  0  0  0  0  0  0  0  0  0
   21.3148   -6.9529  -16.7095 O   0  0  0  0  0  0  0  0  0  0  0  0
   20.5264   -7.5394  -14.5530 C   0  0  0  0  0  0  0  0  0  0  0  0
   19.7047   -6.8821  -13.4685 C   0  0  2  0  0  0  0  0  0  0  0  0
   20.6022   -6.4031  -12.4432 N   0  0  0  0  0  0  0  0  0  0  0  0
   18.7545   -7.8288  -12.8387 C   0  0  0  0  0  0  0  0  0  0  0  0
   19.1384   -8.7690  -12.0800 O   0  0  0  0  0  0  0  0  0  0  0  0
   15.6993   -6.9201   -7.4450 C   0  0  0  0  0  0  0  0  0  0  0  0
   14.8373   -7.0998   -9.0541 S   0  0  0  0  0  0  0  0  0  0  0  0
   16.0140   -7.8067  -10.2033 C   0  0  0  0  0  0  0  0  0  0  0  0
   15.4870   -8.1646  -11.5362 C   0  0  0  0  0  0  0  0  0  0  0  0
   16.3979   -8.7314  -12.5446 C   0  0  2  0  0  0  0  0  0  0  0  0
   17.3380   -7.7488  -13.0421 N   0  0  0  0  0  0  0  0  0  0  0  0
   15.7762   -9.5126  -13.6216 C   0  0  0  0  0  0  0  0  0  0  0  0
   15.2057   -9.0354  -14.6210 O   0  0  0  0  0  0  0  0  0  0  0  0
   15.7551  -13.1271  -14.5791 C   0  0  0  0  0  0  0  0  0  0  0  0
   15.1088  -11.7759  -14.5270 C   0  0  2  0  0  0  0  0  0  0  0  0
   15.8128  -10.9347  -13.5446 N   0  0  0  0  0  0  0  0  0  0  0  0
   13.7052  -11.9570  -14.0870 C   0  0  0  0  0  0  0  0  0  0  0  0
   12.6940  -12.3158  -14.9531 O   0  0  0  0  0  0  0  0  0  0  0  0
   13.4234  -11.7773  -12.8787 O   0  0  0  0  0  0  0  0  0  0  0  0
  1  2  1  0
  2  4  1  0
  3  2  2  0
  4  5  1  0
  5  6  1  1
  7  5  1  0
  8  7  2  0
 10 11  1  0
 10  9  1  0
 11 12  1  0
 13 12  1  6
 13 15  1  0
 13 14  1  0
 14  7  1  0
 15 19  1  0
 16 15  2  0
 18 17  1  1
 18 20  1  0
 19 18  1  0
 20 22  2  0
 20 21  1  0
M  END
$$$$
