NMA.pdb
     RDKit          3D

 22 21  0  0  1  0  0  0  0  0999 V2000
   19.0295  -13.3408  -20.1644 N   0  0  0  0  0  0  0  0  0  0  0  0
   19.9582  -12.2871  -20.1381 C   0  0  0  0  0  0  0  0  0  0  0  0
   20.6000  -11.9932  -21.1700 O   0  0  0  0  0  0  0  0  0  0  0  0
   20.1706  -11.5305  -18.8857 C   0  0  0  0  0  0  0  0  0  0  0  0
   21.6521  -11.4120  -18.6131 C   0  0  2  0  0  0  0  0  0  0  0  0
   22.1625  -12.7236  -18.2883 N   0  0  0  0  0  0  0  0  0  0  0  0
   21.9379  -10.5140  -17.4697 C   0  0  0  0  0  0  0  0  0  0  0  0
   21.2750  -10.5606  -16.3901 O   0  0  0  0  0  0  0  0  0  0  0  0
   27.6528  -11.1506  -16.9207 C   0  0  0  0  0  0  0  0  0  0  0  0
   27.0404  -10.5094  -15.3150 S   0  0  0  0  0  0  0  0  0  0  0  0
   25.2728  -10.2799  -15.4817 C   0  0  0  0  0  0  0  0  0  0  0  0
   24.8348   -8.9855  -16.0427 C   0  0  0  0  0  0  0  0  0  0  0  0
   23.4094   -8.7747  -16.3454 C   0  0  2  0  0  0  0  0  0  0  0  0
   22.9812   -9.5318  -17.5029 N   0  0  0  0  0  0  0  0  0  0  0  0
   22.9478   -7.3809  -16.3810 C   0  0  0  0  0  0  0  0  0  0  0  0
   23.0916   -6.5986  -17.3398 O   0  0  0  0  0  0  0  0  0  0  0  0
   20.6076   -5.4182  -14.2231 C   0  0  0  0  0  0  0  0  0  0  0  0
   21.6978   -5.4988  -15.2485 C   0  0  2  0  0  0  0  0  0  0  0  0
   22.2775   -6.8524  -15.2404 N   0  0  0  0  0  0  0  0  0  0  0  0
   22.7492   -4.5231  -14.8756 C   0  0  0  0  0  0  0  0  0  0  0  0
   22.5825   -3.1610  -15.0114 O   0  0  0  0  0  0  0  0  0  0  0  0
   23.8351   -4.9511  -14.4180 O   0  0  0  0  0  0  0  0  0  0  0  0
  1  2  1  0
  2  4  1  0
  3  2  2  0
  4  5  1  0
  5  6  1  1
  7  5  1  0
  8  7  2  0
 10 11  1  0
 10  9  1  0
 11 12  1  0
 13 12  1  6
 13 15  1  0
 13 14  1  0
 14  7  1  0
 15 19  1  0
 16 15  2  0
 18 17  1  1
 18 20  1  0
 19 18  1  0
 20 22  2  0
 20 21  1  0
M  END
$$$$
