NMA.pdb
     RDKit          3D

 22 21  0  0  1  0  0  0  0  0999 V2000
   22.2441  -13.4751  -19.9412 N   0  0  0  0  0  0  0  0  0  0  0  0
   21.4255  -12.3990  -20.3222 C   0  0  0  0  0  0  0  0  0  0  0  0
   21.1707  -12.2042  -21.5306 O   0  0  0  0  0  0  0  0  0  0  0  0
   20.8691  -11.5011  -19.2876 C   0  0  0  0  0  0  0  0  0  0  0  0
   21.4263  -11.8828  -17.9359 C   0  0  2  0  0  0  0  0  0  0  0  0
   20.9385  -13.1993  -17.5967 N   0  0  0  0  0  0  0  0  0  0  0  0
   20.9950  -10.9469  -16.8712 C   0  0  0  0  0  0  0  0  0  0  0  0
   19.8828  -11.0663  -16.2746 O   0  0  0  0  0  0  0  0  0  0  0  0
   20.2816   -9.7389  -11.3382 C   0  0  0  0  0  0  0  0  0  0  0  0
   22.0784   -9.5325  -11.6437 S   0  0  0  0  0  0  0  0  0  0  0  0
   22.3666   -9.9287  -13.3656 C   0  0  0  0  0  0  0  0  0  0  0  0
   22.2983   -8.7979  -14.3136 C   0  0  0  0  0  0  0  0  0  0  0  0
   21.3751   -8.8698  -15.4584 C   0  0  2  0  0  0  0  0  0  0  0  0
   21.8023   -9.8433  -16.4415 N   0  0  0  0  0  0  0  0  0  0  0  0
   20.9844   -7.5905  -16.0646 C   0  0  0  0  0  0  0  0  0  0  0  0
   21.7589   -6.7935  -16.6273 O   0  0  0  0  0  0  0  0  0  0  0  0
   17.6681   -6.0762  -16.9289 C   0  0  0  0  0  0  0  0  0  0  0  0
   19.1425   -5.9730  -16.6798 C   0  0  2  0  0  0  0  0  0  0  0  0
   19.6143   -7.2024  -16.0209 N   0  0  0  0  0  0  0  0  0  0  0  0
   19.3738   -4.8228  -15.7744 C   0  0  0  0  0  0  0  0  0  0  0  0
   19.2069   -3.5142  -16.1757 O   0  0  0  0  0  0  0  0  0  0  0  0
   19.7360   -5.0462  -14.5951 O   0  0  0  0  0  0  0  0  0  0  0  0
  1  2  1  0
  2  4  1  0
  3  2  2  0
  4  5  1  0
  5  6  1  1
  7  5  1  0
  8  7  2  0
 10 11  1  0
 10  9  1  0
 11 12  1  0
 13 12  1  1
 13 15  1  0
 13 14  1  0
 14  7  1  0
 15 19  1  0
 16 15  2  0
 18 17  1  1
 18 20  1  0
 19 18  1  0
 20 22  2  0
 20 21  1  0
M  END
$$$$
