NMA.pdb
     RDKit          3D

 22 21  0  0  1  0  0  0  0  0999 V2000
   29.2696  -18.3248  -16.1871 N   0  0  0  0  0  0  0  0  0  0  0  0
   28.1942  -18.6154  -17.0429 C   0  0  0  0  0  0  0  0  0  0  0  0
   28.1766  -18.1534  -18.2045 O   0  0  0  0  0  0  0  0  0  0  0  0
   27.0867  -19.4688  -16.5618 C   0  0  0  0  0  0  0  0  0  0  0  0
   27.3308  -19.8462  -15.1192 C   0  0  2  0  0  0  0  0  0  0  0  0
   28.4766  -20.7239  -15.0650 N   0  0  0  0  0  0  0  0  0  0  0  0
   26.1768  -20.5637  -14.5283 C   0  0  0  0  0  0  0  0  0  0  0  0
   25.5735  -21.4956  -15.1404 O   0  0  0  0  0  0  0  0  0  0  0  0
   25.3818  -20.0400   -8.1766 C   0  0  0  0  0  0  0  0  0  0  0  0
   26.7783  -20.6269   -9.2108 S   0  0  0  0  0  0  0  0  0  0  0  0
   26.0727  -21.5740  -10.5562 C   0  0  0  0  0  0  0  0  0  0  0  0
   24.8018  -21.0666  -11.1125 C   0  0  0  0  0  0  0  0  0  0  0  0
   24.6202  -21.0198  -12.5729 C   0  0  2  0  0  0  0  0  0  0  0  0
   25.6621  -20.2558  -13.2266 N   0  0  0  0  0  0  0  0  0  0  0  0
   23.2777  -20.6688  -13.0539 C   0  0  0  0  0  0  0  0  0  0  0  0
   22.8097  -19.5155  -13.1060 O   0  0  0  0  0  0  0  0  0  0  0  0
   20.5653  -22.5673  -14.8144 C   0  0  0  0  0  0  0  0  0  0  0  0
   21.0460  -21.4325  -13.9615 C   0  0  2  0  0  0  0  0  0  0  0  0
   22.4175  -21.7115  -13.5041 N   0  0  0  0  0  0  0  0  0  0  0  0
   20.1550  -21.3385  -12.7809 C   0  0  0  0  0  0  0  0  0  0  0  0
   18.8997  -20.7708  -12.8390 O   0  0  0  0  0  0  0  0  0  0  0  0
   20.5568  -21.7929  -11.6837 O   0  0  0  0  0  0  0  0  0  0  0  0
  1  2  1  0
  2  4  1  0
  3  2  2  0
  4  5  1  0
  5  6  1  6
  7  5  1  0
  8  7  2  0
 10 11  1  0
 10  9  1  0
 11 12  1  0
 13 12  1  1
 13 15  1  0
 13 14  1  0
 14  7  1  0
 15 19  1  0
 16 15  2  0
 18 17  1  6
 18 20  1  0
 19 18  1  0
 20 22  2  0
 20 21  1  0
M  END
$$$$
