NMA.pdb
     RDKit          3D

 22 21  0  0  1  0  0  0  0  0999 V2000
   15.3719  -10.8021  -19.4424 N   0  0  0  0  0  0  0  0  0  0  0  0
   15.2819  -10.8015  -18.0405 C   0  0  0  0  0  0  0  0  0  0  0  0
   14.6646  -11.7163  -17.4530 O   0  0  0  0  0  0  0  0  0  0  0  0
   15.9202   -9.7150  -17.2671 C   0  0  0  0  0  0  0  0  0  0  0  0
   17.2491  -10.1923  -16.7291 C   0  0  2  0  0  0  0  0  0  0  0  0
   16.9983  -11.1720  -15.6978 N   0  0  0  0  0  0  0  0  0  0  0  0
   18.0362   -9.0890  -16.1301 C   0  0  0  0  0  0  0  0  0  0  0  0
   17.6609   -8.4804  -15.0832 O   0  0  0  0  0  0  0  0  0  0  0  0
   23.1918   -9.6254  -12.5762 C   0  0  0  0  0  0  0  0  0  0  0  0
   22.4445   -9.7200  -14.2486 S   0  0  0  0  0  0  0  0  0  0  0  0
   22.1841   -8.0376  -14.8025 C   0  0  0  0  0  0  0  0  0  0  0  0
   21.4995   -7.8791  -16.1019 C   0  0  0  0  0  0  0  0  0  0  0  0
   20.0630   -7.5572  -16.1269 C   0  0  2  0  0  0  0  0  0  0  0  0
   19.2741   -8.6328  -16.6901 N   0  0  0  0  0  0  0  0  0  0  0  0
   19.6967   -6.2439  -16.6728 C   0  0  0  0  0  0  0  0  0  0  0  0
   19.7003   -5.9392  -17.8806 O   0  0  0  0  0  0  0  0  0  0  0  0
   18.1613   -3.1363  -15.2570 C   0  0  0  0  0  0  0  0  0  0  0  0
   19.0512   -3.8396  -16.2367 C   0  0  2  0  0  0  0  0  0  0  0  0
   19.3007   -5.2142  -15.7713 N   0  0  0  0  0  0  0  0  0  0  0  0
   20.3394   -3.1088  -16.2906 C   0  0  0  0  0  0  0  0  0  0  0  0
   20.4817   -1.8974  -16.9339 O   0  0  0  0  0  0  0  0  0  0  0  0
   21.3419   -3.6104  -15.7292 O   0  0  0  0  0  0  0  0  0  0  0  0
  1  2  1  0
  2  4  1  0
  3  2  2  0
  4  5  1  0
  5  6  1  1
  7  5  1  0
  8  7  2  0
 10 11  1  0
 10  9  1  0
 11 12  1  0
 13 12  1  6
 13 15  1  0
 13 14  1  0
 14  7  1  0
 15 19  1  0
 16 15  2  0
 18 17  1  1
 18 20  1  0
 19 18  1  0
 20 22  2  0
 20 21  1  0
M  END
$$$$
