NMA.pdb
     RDKit          3D

 22 21  0  0  1  0  0  0  0  0999 V2000
   12.7290  -12.3801  -10.9206 N   0  0  0  0  0  0  0  0  0  0  0  0
   12.5775  -11.4936   -9.8414 C   0  0  0  0  0  0  0  0  0  0  0  0
   11.4967  -11.4503   -9.2145 O   0  0  0  0  0  0  0  0  0  0  0  0
   13.7016  -10.6150   -9.4533 C   0  0  0  0  0  0  0  0  0  0  0  0
   14.8957  -10.9057  -10.3324 C   0  0  2  0  0  0  0  0  0  0  0  0
   15.5012  -12.1389   -9.8861 N   0  0  0  0  0  0  0  0  0  0  0  0
   15.9199   -9.8379  -10.2517 C   0  0  0  0  0  0  0  0  0  0  0  0
   16.6578   -9.6833   -9.2325 O   0  0  0  0  0  0  0  0  0  0  0  0
   21.7512   -5.7967  -11.6279 C   0  0  0  0  0  0  0  0  0  0  0  0
   20.6647   -7.2646  -11.4567 S   0  0  0  0  0  0  0  0  0  0  0  0
   19.2047   -6.9544  -12.4452 C   0  0  0  0  0  0  0  0  0  0  0  0
   18.1258   -7.9585  -12.3451 C   0  0  0  0  0  0  0  0  0  0  0  0
   17.1349   -7.8484  -11.2616 C   0  0  2  0  0  0  0  0  0  0  0  0
   16.1483   -8.9068  -11.3170 N   0  0  0  0  0  0  0  0  0  0  0  0
   16.5312   -6.5249  -11.0599 C   0  0  0  0  0  0  0  0  0  0  0  0
   15.7518   -5.9604  -11.8509 O   0  0  0  0  0  0  0  0  0  0  0  0
   16.7085   -3.9892   -8.2688 C   0  0  0  0  0  0  0  0  0  0  0  0
   16.3703   -4.4253   -9.6623 C   0  0  2  0  0  0  0  0  0  0  0  0
   16.8439   -5.8038   -9.8717 N   0  0  0  0  0  0  0  0  0  0  0  0
   17.0746   -3.5260  -10.6065 C   0  0  0  0  0  0  0  0  0  0  0  0
   16.5988   -2.2752  -10.9386 O   0  0  0  0  0  0  0  0  0  0  0  0
   18.1470   -3.9163  -11.1257 O   0  0  0  0  0  0  0  0  0  0  0  0
  1  2  1  0
  2  4  1  0
  3  2  2  0
  4  5  1  0
  5  6  1  1
  7  5  1  0
  8  7  2  0
 10 11  1  0
 10  9  1  0
 11 12  1  0
 13 12  1  6
 13 15  1  0
 13 14  1  0
 14  7  1  0
 15 19  1  0
 16 15  2  0
 18 17  1  1
 18 20  1  0
 19 18  1  0
 20 22  2  0
 20 21  1  0
M  END
$$$$
