NMA.pdb
     RDKit          3D

 22 21  0  0  1  0  0  0  0  0999 V2000
   16.6004  -12.1106  -18.0427 N   0  0  0  0  0  0  0  0  0  0  0  0
   16.3262  -11.6088  -16.7596 C   0  0  0  0  0  0  0  0  0  0  0  0
   15.6925  -12.3059  -15.9376 O   0  0  0  0  0  0  0  0  0  0  0  0
   16.7908  -10.2549  -16.3891 C   0  0  0  0  0  0  0  0  0  0  0  0
   18.1360  -10.3522  -15.7079 C   0  0  2  0  0  0  0  0  0  0  0  0
   17.9636  -11.0500  -14.4551 N   0  0  0  0  0  0  0  0  0  0  0  0
   18.7088   -9.0177  -15.4130 C   0  0  0  0  0  0  0  0  0  0  0  0
   18.2166   -8.2492  -14.5332 O   0  0  0  0  0  0  0  0  0  0  0  0
   24.1083  -10.4846  -13.9834 C   0  0  0  0  0  0  0  0  0  0  0  0
   23.3380   -9.6443  -15.4204 S   0  0  0  0  0  0  0  0  0  0  0  0
   22.6240   -8.1184  -14.8147 C   0  0  0  0  0  0  0  0  0  0  0  0
   21.9296   -7.2827  -15.8155 C   0  0  0  0  0  0  0  0  0  0  0  0
   20.4587   -7.2186  -15.8076 C   0  0  2  0  0  0  0  0  0  0  0  0
   19.8566   -8.5026  -16.0997 N   0  0  0  0  0  0  0  0  0  0  0  0
   19.8479   -6.1228  -16.5711 C   0  0  0  0  0  0  0  0  0  0  0  0
   19.5824   -6.1529  -17.7878 O   0  0  0  0  0  0  0  0  0  0  0  0
   17.9698   -3.0651  -15.6580 C   0  0  0  0  0  0  0  0  0  0  0  0
   18.8939   -3.7826  -16.5948 C   0  0  2  0  0  0  0  0  0  0  0  0
   19.5212   -4.9140  -15.8916 N   0  0  0  0  0  0  0  0  0  0  0  0
   19.9502   -2.8309  -17.0132 C   0  0  0  0  0  0  0  0  0  0  0  0
   19.6818   -1.6995  -17.7542 O   0  0  0  0  0  0  0  0  0  0  0  0
   21.1368   -3.0619  -16.6809 O   0  0  0  0  0  0  0  0  0  0  0  0
  1  2  1  0
  2  4  1  0
  3  2  2  0
  4  5  1  0
  5  6  1  1
  7  5  1  0
  8  7  2  0
 10 11  1  0
 10  9  1  0
 11 12  1  0
 13 12  1  6
 13 15  1  0
 13 14  1  0
 14  7  1  0
 15 19  1  0
 16 15  2  0
 18 17  1  1
 18 20  1  0
 19 18  1  0
 20 22  2  0
 20 21  1  0
M  END
$$$$
