NMA.pdb
     RDKit          3D

 22 21  0  0  1  0  0  0  0  0999 V2000
   29.2423  -18.6130  -15.0582 N   0  0  0  0  0  0  0  0  0  0  0  0
   27.8600  -18.3651  -15.0234 C   0  0  0  0  0  0  0  0  0  0  0  0
   27.3900  -17.3607  -15.6008 O   0  0  0  0  0  0  0  0  0  0  0  0
   26.9677  -19.2973  -14.3016 C   0  0  0  0  0  0  0  0  0  0  0  0
   27.7965  -20.3524  -13.6066 C   0  0  2  0  0  0  0  0  0  0  0  0
   27.9765  -21.4618  -14.5140 N   0  0  0  0  0  0  0  0  0  0  0  0
   27.1346  -20.8645  -12.3838 C   0  0  0  0  0  0  0  0  0  0  0  0
   26.2886  -21.8082  -12.4165 O   0  0  0  0  0  0  0  0  0  0  0  0
   26.3955  -20.4757   -4.4772 C   0  0  0  0  0  0  0  0  0  0  0  0
   27.4500  -20.0200   -5.9071 S   0  0  0  0  0  0  0  0  0  0  0  0
   26.5217  -20.4077   -7.3880 C   0  0  0  0  0  0  0  0  0  0  0  0
   27.2177  -20.1789   -8.6707 C   0  0  0  0  0  0  0  0  0  0  0  0
   26.5539  -20.5556   -9.9299 C   0  0  2  0  0  0  0  0  0  0  0  0
   27.4030  -20.3309  -11.0809 N   0  0  0  0  0  0  0  0  0  0  0  0
   25.1902  -20.0474  -10.1275 C   0  0  0  0  0  0  0  0  0  0  0  0
   24.8496  -18.8513  -10.0554 O   0  0  0  0  0  0  0  0  0  0  0  0
   22.3907  -21.3028  -12.0626 C   0  0  0  0  0  0  0  0  0  0  0  0
   22.8173  -20.5215  -10.8568 C   0  0  2  0  0  0  0  0  0  0  0  0
   24.1509  -20.9745  -10.4274 N   0  0  0  0  0  0  0  0  0  0  0  0
   21.8453  -20.7897   -9.7707 C   0  0  0  0  0  0  0  0  0  0  0  0
   20.5187  -20.4224   -9.8514 O   0  0  0  0  0  0  0  0  0  0  0  0
   22.2432  -21.3743   -8.7354 O   0  0  0  0  0  0  0  0  0  0  0  0
  1  2  1  0
  2  4  1  0
  3  2  2  0
  4  5  1  0
  5  6  1  6
  7  5  1  0
  8  7  2  0
 10 11  1  0
 10  9  1  0
 11 12  1  0
 13 12  1  1
 13 15  1  0
 13 14  1  0
 14  7  1  0
 15 19  1  0
 16 15  2  0
 18 17  1  6
 18 20  1  0
 19 18  1  0
 20 22  2  0
 20 21  1  0
M  END
$$$$
