NMA.pdb
     RDKit          3D

 22 21  0  0  1  0  0  0  0  0999 V2000
   19.1736  -22.4541  -13.5418 N   0  0  0  0  0  0  0  0  0  0  0  0
   19.6035  -21.5633  -14.5395 C   0  0  0  0  0  0  0  0  0  0  0  0
   18.9827  -21.4900  -15.6222 O   0  0  0  0  0  0  0  0  0  0  0  0
   20.7913  -20.7158  -14.3008 C   0  0  0  0  0  0  0  0  0  0  0  0
   21.3868  -21.0500  -12.9529 C   0  0  2  0  0  0  0  0  0  0  0  0
   20.5919  -20.4089  -11.9314 N   0  0  0  0  0  0  0  0  0  0  0  0
   22.7795  -20.5612  -12.8227 C   0  0  0  0  0  0  0  0  0  0  0  0
   23.0540  -19.3342  -12.6607 O   0  0  0  0  0  0  0  0  0  0  0  0
   29.8944  -20.2816  -10.9706 C   0  0  0  0  0  0  0  0  0  0  0  0
   28.1119  -20.6499  -10.7437 S   0  0  0  0  0  0  0  0  0  0  0  0
   27.6200  -21.7144  -12.0964 C   0  0  0  0  0  0  0  0  0  0  0  0
   26.1744  -21.9966  -12.2096 C   0  0  0  0  0  0  0  0  0  0  0  0
   25.2847  -20.9831  -12.8006 C   0  0  2  0  0  0  0  0  0  0  0  0
   23.9120  -21.4384  -12.8704 N   0  0  0  0  0  0  0  0  0  0  0  0
   25.7384  -20.3658  -14.0536 C   0  0  0  0  0  0  0  0  0  0  0  0
   25.6493  -20.8811  -15.1842 O   0  0  0  0  0  0  0  0  0  0  0  0
   27.3360  -17.0395  -14.8650 C   0  0  0  0  0  0  0  0  0  0  0  0
   26.7774  -18.3826  -15.2261 C   0  0  2  0  0  0  0  0  0  0  0  0
   26.3330  -19.0721  -14.0032 N   0  0  0  0  0  0  0  0  0  0  0  0
   27.8601  -19.1733  -15.8576 C   0  0  0  0  0  0  0  0  0  0  0  0
   28.1573  -19.0883  -17.2015 O   0  0  0  0  0  0  0  0  0  0  0  0
   28.5347  -19.9518  -15.1430 O   0  0  0  0  0  0  0  0  0  0  0  0
  1  2  1  0
  2  4  1  0
  3  2  2  0
  4  5  1  0
  5  6  1  1
  7  5  1  0
  8  7  2  0
 10 11  1  0
 10  9  1  0
 11 12  1  0
 13 12  1  6
 13 15  1  0
 13 14  1  0
 14  7  1  0
 15 19  1  0
 16 15  2  0
 18 17  1  1
 18 20  1  0
 19 18  1  0
 20 22  2  0
 20 21  1  0
M  END
$$$$
