NMA.pdb
     RDKit          3D

 22 21  0  0  1  0  0  0  0  0999 V2000
   28.8894  -22.0944  -16.7459 N   0  0  0  0  0  0  0  0  0  0  0  0
   27.8968  -21.1226  -16.9552 C   0  0  0  0  0  0  0  0  0  0  0  0
   28.0912  -20.1956  -17.7712 O   0  0  0  0  0  0  0  0  0  0  0  0
   26.6247  -21.2035  -16.2060 C   0  0  0  0  0  0  0  0  0  0  0  0
   26.6733  -22.3764  -15.2546 C   0  0  2  0  0  0  0  0  0  0  0  0
   26.2385  -23.5573  -15.9638 N   0  0  0  0  0  0  0  0  0  0  0  0
   25.7771  -22.1864  -14.0900 C   0  0  0  0  0  0  0  0  0  0  0  0
   24.5631  -22.5513  -14.1033 O   0  0  0  0  0  0  0  0  0  0  0  0
   25.1611  -19.8936   -6.4901 C   0  0  0  0  0  0  0  0  0  0  0  0
   26.3236  -20.2151   -7.8720 S   0  0  0  0  0  0  0  0  0  0  0  0
   25.3321  -20.5221   -9.3307 C   0  0  0  0  0  0  0  0  0  0  0  0
   26.0753  -20.8345  -10.5686 C   0  0  0  0  0  0  0  0  0  0  0  0
   25.3334  -21.2450  -11.7724 C   0  0  2  0  0  0  0  0  0  0  0  0
   26.2179  -21.5784  -12.8692 N   0  0  0  0  0  0  0  0  0  0  0  0
   24.2256  -20.3742  -12.1862 C   0  0  0  0  0  0  0  0  0  0  0  0
   24.3430  -19.2020  -12.5909 O   0  0  0  0  0  0  0  0  0  0  0  0
   20.9642  -20.7617  -13.5909 C   0  0  0  0  0  0  0  0  0  0  0  0
   21.7400  -20.0593  -12.5180 C   0  0  2  0  0  0  0  0  0  0  0  0
   22.8965  -20.8845  -12.1311 N   0  0  0  0  0  0  0  0  0  0  0  0
   20.8511  -19.8961  -11.3435 C   0  0  0  0  0  0  0  0  0  0  0  0
   19.7611  -19.0515  -11.3465 O   0  0  0  0  0  0  0  0  0  0  0  0
   21.0983  -20.5514  -10.3037 O   0  0  0  0  0  0  0  0  0  0  0  0
  1  2  1  0
  2  4  1  0
  3  2  2  0
  4  5  1  0
  5  6  1  6
  7  5  1  0
  8  7  2  0
 10 11  1  0
 10  9  1  0
 11 12  1  0
 13 12  1  1
 13 15  1  0
 13 14  1  0
 14  7  1  0
 15 19  1  0
 16 15  2  0
 18 17  1  6
 18 20  1  0
 19 18  1  0
 20 22  2  0
 20 21  1  0
M  END
$$$$
