GIN.pdb
     RDKit          3D

 21 20  0  0  1  0  0  0  0  0999 V2000
   20.8674  -21.5874  -11.2561 N   0  0  0  0  0  0  0  0  0  0  0  0
   21.3621  -20.6300  -10.2832 C   0  0  0  0  0  0  0  0  0  0  0  0
   22.7666  -20.2604  -10.5997 C   0  0  0  0  0  0  0  0  0  0  0  0
   22.9840  -19.3426  -11.4313 O   0  0  0  0  0  0  0  0  0  0  0  0
   26.4796  -19.6900   -6.7033 C   0  0  0  0  0  0  0  0  0  0  0  0
   25.6129  -19.6645   -7.9155 C   0  0  0  0  0  0  0  0  0  0  0  0
   26.0821  -20.6144   -8.9955 C   0  0  2  0  0  0  0  0  0  0  0  0
   27.5119  -20.2750   -9.3574 C   0  0  0  0  0  0  0  0  0  0  0  0
   25.2371  -20.5659  -10.2259 C   0  0  2  0  0  0  0  0  0  0  0  0
   23.8632  -20.9217   -9.9829 N   0  0  0  0  0  0  0  0  0  0  0  0
   25.8516  -21.5012  -11.2318 C   0  0  0  0  0  0  0  0  0  0  0  0
   25.9427  -22.7132  -10.9960 O   0  0  0  0  0  0  0  0  0  0  0  0
   25.7378  -23.9734  -15.5721 N   0  0  0  0  0  0  0  0  0  0  0  0
   24.8024  -22.9666  -15.2077 C   0  0  0  0  0  0  0  0  0  0  0  0
   23.8304  -22.7641  -15.9635 O   0  0  0  0  0  0  0  0  0  0  0  0
   24.9662  -22.1875  -13.9862 C   0  0  0  0  0  0  0  0  0  0  0  0
   26.3877  -21.7783  -13.6752 C   0  0  2  0  0  0  0  0  0  0  0  0
   26.3232  -20.9546  -12.4565 N   0  0  0  0  0  0  0  0  0  0  0  0
   26.8680  -20.9140  -14.7792 C   0  0  0  0  0  0  0  0  0  0  0  0
   27.8697  -21.3178  -15.6471 O   0  0  0  0  0  0  0  0  0  0  0  0
   26.3833  -19.7835  -14.9659 O   0  0  0  0  0  0  0  0  0  0  0  0
  1  2  1  0
  2  3  1  0
  3 10  1  0
  3  4  2  0
  6  7  1  0
  6  5  1  0
  7  8  1  6
  9 11  1  0
  9  7  1  0
  9 10  1  1
 11 12  2  0
 13 14  1  0
 14 15  2  0
 17 16  1  6
 16 14  1  0
 18 17  1  0
 18 11  1  0
 19 20  1  0
 19 17  1  0
 21 19  2  0
M  END
$$$$
