GIN.pdb
     RDKit          3D

 21 20  0  0  1  0  0  0  0  0999 V2000
   23.4393  -20.5992   -7.4748 N   0  0  0  0  0  0  0  0  0  0  0  0
   24.2733  -21.4003   -8.3525 C   0  0  0  0  0  0  0  0  0  0  0  0
   24.5840  -20.6426   -9.5929 C   0  0  0  0  0  0  0  0  0  0  0  0
   24.0964  -19.4935   -9.7449 O   0  0  0  0  0  0  0  0  0  0  0  0
   29.5083  -20.9927  -11.7192 C   0  0  0  0  0  0  0  0  0  0  0  0
   28.1736  -20.4497  -11.3384 C   0  0  0  0  0  0  0  0  0  0  0  0
   27.0932  -20.7833  -12.3437 C   0  0  2  0  0  0  0  0  0  0  0  0
   27.3335  -19.9803  -13.6038 C   0  0  0  0  0  0  0  0  0  0  0  0
   25.7160  -20.5059  -11.8371 C   0  0  2  0  0  0  0  0  0  0  0  0
   25.4178  -21.1898  -10.6056 N   0  0  0  0  0  0  0  0  0  0  0  0
   24.7485  -20.9172  -12.9136 C   0  0  0  0  0  0  0  0  0  0  0  0
   24.5644  -22.1131  -13.1759 O   0  0  0  0  0  0  0  0  0  0  0  0
   21.3704  -18.3072  -17.1926 N   0  0  0  0  0  0  0  0  0  0  0  0
   21.2937  -19.0546  -15.9855 C   0  0  0  0  0  0  0  0  0  0  0  0
   20.3168  -19.8140  -15.8238 O   0  0  0  0  0  0  0  0  0  0  0  0
   22.3236  -18.9435  -14.9594 C   0  0  0  0  0  0  0  0  0  0  0  0
   23.0372  -20.2341  -14.6281 C   0  0  2  0  0  0  0  0  0  0  0  0
   24.0545  -19.8963  -13.6187 N   0  0  0  0  0  0  0  0  0  0  0  0
   23.7453  -20.6924  -15.8468 C   0  0  0  0  0  0  0  0  0  0  0  0
   23.2464  -21.7045  -16.6507 O   0  0  0  0  0  0  0  0  0  0  0  0
   24.8244  -20.1787  -16.1928 O   0  0  0  0  0  0  0  0  0  0  0  0
  1  2  1  0
  2  3  1  0
  3 10  1  0
  3  4  2  0
  6  7  1  0
  6  5  1  0
  7  8  1  6
  9 11  1  0
  9  7  1  0
  9 10  1  1
 11 12  2  0
 13 14  1  0
 14 15  2  0
 17 16  1  6
 16 14  1  0
 18 17  1  0
 18 11  1  0
 19 20  1  0
 19 17  1  0
 21 19  2  0
M  END
$$$$
