GIN.pdb
     RDKit          3D

 21 20  0  0  1  0  0  0  0  0999 V2000
   13.7897  -13.3505  -11.6029 N   0  0  0  0  0  0  0  0  0  0  0  0
   14.7372  -12.5525  -10.8458 C   0  0  0  0  0  0  0  0  0  0  0  0
   14.5748  -11.1135  -11.1807 C   0  0  0  0  0  0  0  0  0  0  0  0
   13.7579  -10.7838  -12.0780 O   0  0  0  0  0  0  0  0  0  0  0  0
   13.3968   -6.1578  -10.3542 C   0  0  0  0  0  0  0  0  0  0  0  0
   14.7708   -6.4140   -9.8369 C   0  0  0  0  0  0  0  0  0  0  0  0
   15.0280   -7.8764   -9.5464 C   0  0  2  0  0  0  0  0  0  0  0  0
   16.2853   -7.9952   -8.7125 C   0  0  0  0  0  0  0  0  0  0  0  0
   15.1759   -8.7018  -10.7822 C   0  0  2  0  0  0  0  0  0  0  0  0
   15.3219  -10.1080  -10.5092 N   0  0  0  0  0  0  0  0  0  0  0  0
   16.3758   -8.1846  -11.5286 C   0  0  0  0  0  0  0  0  0  0  0  0
   17.4906   -8.1539  -10.9910 O   0  0  0  0  0  0  0  0  0  0  0  0
   19.1285   -6.2671  -15.6248 N   0  0  0  0  0  0  0  0  0  0  0  0
   18.5072   -7.5359  -15.7847 C   0  0  0  0  0  0  0  0  0  0  0  0
   18.8500   -8.2417  -16.7550 O   0  0  0  0  0  0  0  0  0  0  0  0
   17.4965   -8.0078  -14.8457 C   0  0  0  0  0  0  0  0  0  0  0  0
   17.3090   -7.1422  -13.6208 C   0  0  2  0  0  0  0  0  0  0  0  0
   16.1927   -7.7335  -12.8643 N   0  0  0  0  0  0  0  0  0  0  0  0
   16.8854   -5.7954  -14.0715 C   0  0  0  0  0  0  0  0  0  0  0  0
   15.6053   -5.5447  -14.5384 O   0  0  0  0  0  0  0  0  0  0  0  0
   17.6740   -4.8334  -14.0465 O   0  0  0  0  0  0  0  0  0  0  0  0
  1  2  1  0
  2  3  1  0
  3 10  1  0
  3  4  2  0
  6  7  1  0
  6  5  1  0
  7  8  1  1
  9 11  1  0
  9  7  1  0
  9 10  1  1
 11 12  2  0
 13 14  1  0
 14 15  2  0
 17 16  1  6
 16 14  1  0
 18 17  1  0
 18 11  1  0
 19 20  1  0
 19 17  1  0
 21 19  2  0
M  END
$$$$
