GIN.pdb
     RDKit          3D

 21 20  0  0  1  0  0  0  0  0999 V2000
   15.5010   -4.0852   -6.9782 N   0  0  0  0  0  0  0  0  0  0  0  0
   14.9668   -4.6040   -8.2245 C   0  0  0  0  0  0  0  0  0  0  0  0
   15.7673   -5.7724   -8.6756 C   0  0  0  0  0  0  0  0  0  0  0  0
   16.8702   -6.0082   -8.1197 O   0  0  0  0  0  0  0  0  0  0  0  0
   13.4004  -10.4189   -9.4574 C   0  0  0  0  0  0  0  0  0  0  0  0
   14.4720   -9.4235   -9.1711 C   0  0  0  0  0  0  0  0  0  0  0  0
   15.2008   -8.9677  -10.4162 C   0  0  2  0  0  0  0  0  0  0  0  0
   16.0631  -10.1043  -10.9212 C   0  0  0  0  0  0  0  0  0  0  0  0
   16.0551   -7.7643  -10.1874 C   0  0  2  0  0  0  0  0  0  0  0  0
   15.3118   -6.6238   -9.7185 N   0  0  0  0  0  0  0  0  0  0  0  0
   16.7415   -7.4452  -11.4879 C   0  0  0  0  0  0  0  0  0  0  0  0
   16.1067   -6.9700  -12.4386 O   0  0  0  0  0  0  0  0  0  0  0  0
   20.7600   -6.6122  -14.8064 N   0  0  0  0  0  0  0  0  0  0  0  0
   21.1288   -6.4587  -13.4419 C   0  0  0  0  0  0  0  0  0  0  0  0
   22.2627   -6.0055  -13.1855 O   0  0  0  0  0  0  0  0  0  0  0  0
   20.2136   -6.8180  -12.3653 C   0  0  0  0  0  0  0  0  0  0  0  0
   18.8769   -7.3601  -12.8173 C   0  0  2  0  0  0  0  0  0  0  0  0
   18.1354   -7.7045  -11.5928 N   0  0  0  0  0  0  0  0  0  0  0  0
   19.1208   -8.6160  -13.5656 C   0  0  0  0  0  0  0  0  0  0  0  0
   18.8135   -8.7425  -14.9105 O   0  0  0  0  0  0  0  0  0  0  0  0
   19.6147   -9.6108  -13.0049 O   0  0  0  0  0  0  0  0  0  0  0  0
  1  2  1  0
  2  3  1  0
  3 10  1  0
  3  4  2  0
  6  7  1  0
  6  5  1  0
  7  8  1  1
  9 11  1  0
  9  7  1  0
  9 10  1  6
 11 12  2  0
 13 14  1  0
 14 15  2  0
 17 16  1  1
 16 14  1  0
 18 17  1  0
 18 11  1  0
 19 20  1  0
 19 17  1  0
 21 19  2  0
M  END
$$$$
