GIN.pdb
     RDKit          3D

 21 20  0  0  1  0  0  0  0  0999 V2000
   29.1188  -22.5258  -15.1647 N   0  0  0  0  0  0  0  0  0  0  0  0
   28.0733  -22.0658  -16.0608 C   0  0  0  0  0  0  0  0  0  0  0  0
   27.0318  -21.3316  -15.2954 C   0  0  0  0  0  0  0  0  0  0  0  0
   26.8524  -21.6134  -14.0832 O   0  0  0  0  0  0  0  0  0  0  0  0
   27.0774  -16.8239  -16.4893 C   0  0  0  0  0  0  0  0  0  0  0  0
   26.3899  -17.3645  -15.2825 C   0  0  0  0  0  0  0  0  0  0  0  0
   25.1423  -18.1519  -15.6182 C   0  0  2  0  0  0  0  0  0  0  0  0
   23.9561  -17.4999  -14.9414 C   0  0  0  0  0  0  0  0  0  0  0  0
   25.2232  -19.5835  -15.2005 C   0  0  2  0  0  0  0  0  0  0  0  0
   26.2388  -20.3218  -15.9051 N   0  0  0  0  0  0  0  0  0  0  0  0
   23.8697  -20.1982  -15.4344 C   0  0  0  0  0  0  0  0  0  0  0  0
   23.5179  -20.5404  -16.5710 O   0  0  0  0  0  0  0  0  0  0  0  0
   19.5750  -22.7836  -11.7902 N   0  0  0  0  0  0  0  0  0  0  0  0
   20.0712  -22.2785  -13.0231 C   0  0  0  0  0  0  0  0  0  0  0  0
   19.3843  -22.4522  -14.0502 O   0  0  0  0  0  0  0  0  0  0  0  0
   21.3464  -21.5752  -13.0948 C   0  0  0  0  0  0  0  0  0  0  0  0
   21.7078  -21.0455  -14.4637 C   0  0  2  0  0  0  0  0  0  0  0  0
   23.0096  -20.3737  -14.3162 N   0  0  0  0  0  0  0  0  0  0  0  0
   20.7083  -20.0162  -14.8355 C   0  0  0  0  0  0  0  0  0  0  0  0
   19.7230  -20.2549  -15.7799 O   0  0  0  0  0  0  0  0  0  0  0  0
   20.7206  -18.8900  -14.3070 O   0  0  0  0  0  0  0  0  0  0  0  0
  1  2  1  0
  2  3  1  0
  3 10  1  0
  3  4  2  0
  6  7  1  0
  6  5  1  0
  7  8  1  1
  9 11  1  0
  9  7  1  0
  9 10  1  6
 11 12  2  0
 13 14  1  0
 14 15  2  0
 17 16  1  1
 16 14  1  0
 18 17  1  0
 18 11  1  0
 19 20  1  0
 19 17  1  0
 21 19  2  0
M  END
$$$$
