GIN.pdb
     RDKit          3D

 21 20  0  0  1  0  0  0  0  0999 V2000
   21.7117  -14.2845  -18.1355 N   0  0  0  0  0  0  0  0  0  0  0  0
   22.3088  -13.0446  -18.5980 C   0  0  0  0  0  0  0  0  0  0  0  0
   22.7794  -12.2415  -17.4392 C   0  0  0  0  0  0  0  0  0  0  0  0
   22.0849  -12.2163  -16.3913 O   0  0  0  0  0  0  0  0  0  0  0  0
   28.0262  -11.7783  -16.0630 C   0  0  0  0  0  0  0  0  0  0  0  0
   26.5388  -11.8538  -16.1187 C   0  0  0  0  0  0  0  0  0  0  0  0
   25.8869  -10.5017  -16.3085 C   0  0  2  0  0  0  0  0  0  0  0  0
   26.2160   -9.6289  -15.1167 C   0  0  0  0  0  0  0  0  0  0  0  0
   24.4040  -10.5834  -16.4656 C   0  0  2  0  0  0  0  0  0  0  0  0
   23.9939  -11.5050  -17.4930 N   0  0  0  0  0  0  0  0  0  0  0  0
   23.9066   -9.1973  -16.7746 C   0  0  0  0  0  0  0  0  0  0  0  0
   24.3180   -8.5842  -17.7684 O   0  0  0  0  0  0  0  0  0  0  0  0
   19.2859   -6.4766  -18.1726 N   0  0  0  0  0  0  0  0  0  0  0  0
   20.6476   -6.3650  -17.7792 C   0  0  0  0  0  0  0  0  0  0  0  0
   21.1745   -5.2340  -17.7948 O   0  0  0  0  0  0  0  0  0  0  0  0
   21.4149   -7.5342  -17.3671 C   0  0  0  0  0  0  0  0  0  0  0  0
   22.3472   -7.3073  -16.1992 C   0  0  2  0  0  0  0  0  0  0  0  0
   22.9540   -8.6140  -15.8951 N   0  0  0  0  0  0  0  0  0  0  0  0
   21.5288   -6.9069  -15.0302 C   0  0  0  0  0  0  0  0  0  0  0  0
   21.2813   -7.7699  -13.9751 O   0  0  0  0  0  0  0  0  0  0  0  0
   21.0298   -5.7695  -14.9562 O   0  0  0  0  0  0  0  0  0  0  0  0
  1  2  1  0
  2  3  1  0
  3 10  1  0
  3  4  2  0
  6  7  1  0
  6  5  1  0
  7  8  1  1
  9 11  1  0
  9  7  1  0
  9 10  1  6
 11 12  2  0
 13 14  1  0
 14 15  2  0
 17 16  1  6
 16 14  1  0
 18 17  1  0
 18 11  1  0
 19 20  1  0
 19 17  1  0
 21 19  2  0
M  END
$$$$
