GIN.pdb
     RDKit          3D

 21 20  0  0  1  0  0  0  0  0999 V2000
   21.7711  -13.9413  -17.7056 N   0  0  0  0  0  0  0  0  0  0  0  0
   21.4386  -12.5586  -17.9976 C   0  0  0  0  0  0  0  0  0  0  0  0
   22.0013  -11.6664  -16.9502 C   0  0  0  0  0  0  0  0  0  0  0  0
   21.3288  -11.4447  -15.9111 O   0  0  0  0  0  0  0  0  0  0  0  0
   27.3404  -11.7138  -15.9510 C   0  0  0  0  0  0  0  0  0  0  0  0
   25.8578  -11.6210  -15.8302 C   0  0  0  0  0  0  0  0  0  0  0  0
   25.3336  -10.2218  -16.0682 C   0  0  2  0  0  0  0  0  0  0  0  0
   25.8253   -9.3201  -14.9567 C   0  0  0  0  0  0  0  0  0  0  0  0
   23.8429  -10.1578  -16.1323 C   0  0  2  0  0  0  0  0  0  0  0  0
   23.2790  -11.0622  -17.1005 N   0  0  0  0  0  0  0  0  0  0  0  0
   23.4664   -8.7379  -16.4585 C   0  0  0  0  0  0  0  0  0  0  0  0
   23.4821   -8.3318  -17.6279 O   0  0  0  0  0  0  0  0  0  0  0  0
   20.6879   -4.7077  -17.7756 N   0  0  0  0  0  0  0  0  0  0  0  0
   20.5236   -5.4493  -16.5737 C   0  0  0  0  0  0  0  0  0  0  0  0
   19.7305   -5.0121  -15.7153 O   0  0  0  0  0  0  0  0  0  0  0  0
   21.2573   -6.6878  -16.3420 C   0  0  0  0  0  0  0  0  0  0  0  0
   22.5914   -6.5204  -15.6514 C   0  0  2  0  0  0  0  0  0  0  0  0
   23.0939   -7.8792  -15.3886 N   0  0  0  0  0  0  0  0  0  0  0  0
   22.3516   -5.8669  -14.3430 C   0  0  0  0  0  0  0  0  0  0  0  0
   22.4484   -4.4948  -14.1773 O   0  0  0  0  0  0  0  0  0  0  0  0
   22.0527   -6.5357  -13.3374 O   0  0  0  0  0  0  0  0  0  0  0  0
  1  2  1  0
  2  3  1  0
  3 10  1  0
  3  4  2  0
  6  7  1  0
  6  5  1  0
  7  8  1  1
  9 11  1  0
  9  7  1  0
  9 10  1  6
 11 12  2  0
 13 14  1  0
 14 15  2  0
 17 16  1  1
 16 14  1  0
 18 17  1  0
 18 11  1  0
 19 20  1  0
 19 17  1  0
 21 19  2  0
M  END
$$$$
