GIN.pdb
     RDKit          3D

 21 20  0  0  1  0  0  0  0  0999 V2000
   27.3041  -19.8020  -17.4734 N   0  0  0  0  0  0  0  0  0  0  0  0
   27.7666  -19.4007  -16.1571 C   0  0  0  0  0  0  0  0  0  0  0  0
   27.0583  -20.1798  -15.1079 C   0  0  0  0  0  0  0  0  0  0  0  0
   26.8817  -21.4131  -15.2778 O   0  0  0  0  0  0  0  0  0  0  0  0
   28.5290  -21.7512  -11.7649 C   0  0  0  0  0  0  0  0  0  0  0  0
   28.1445  -20.3176  -11.6301 C   0  0  0  0  0  0  0  0  0  0  0  0
   26.6479  -20.1150  -11.5388 C   0  0  2  0  0  0  0  0  0  0  0  0
   26.0815  -21.0998  -10.5389 C   0  0  0  0  0  0  0  0  0  0  0  0
   25.9525  -20.2874  -12.8492 C   0  0  2  0  0  0  0  0  0  0  0  0
   26.5790  -19.5598  -13.9221 N   0  0  0  0  0  0  0  0  0  0  0  0
   24.5296  -19.8330  -12.6674 C   0  0  0  0  0  0  0  0  0  0  0  0
   24.2737  -18.6609  -12.3616 O   0  0  0  0  0  0  0  0  0  0  0  0
   19.9747  -19.7017  -15.0586 N   0  0  0  0  0  0  0  0  0  0  0  0
   21.2729  -19.6602  -15.6369 C   0  0  0  0  0  0  0  0  0  0  0  0
   21.3731  -19.3333  -16.8369 O   0  0  0  0  0  0  0  0  0  0  0  0
   22.4601  -19.9885  -14.8568 C   0  0  0  0  0  0  0  0  0  0  0  0
   22.1928  -20.3840  -13.4226 C   0  0  2  0  0  0  0  0  0  0  0  0
   23.4911  -20.7854  -12.8560 N   0  0  0  0  0  0  0  0  0  0  0  0
   21.3158  -21.5788  -13.4322 C   0  0  0  0  0  0  0  0  0  0  0  0
   19.9795  -21.5133  -13.0724 O   0  0  0  0  0  0  0  0  0  0  0  0
   21.7548  -22.6938  -13.7667 O   0  0  0  0  0  0  0  0  0  0  0  0
  1  2  1  0
  2  3  1  0
  3 10  1  0
  3  4  2  0
  6  7  1  0
  6  5  1  0
  7  8  1  1
  9 11  1  0
  9  7  1  0
  9 10  1  6
 11 12  2  0
 13 14  1  0
 14 15  2  0
 17 16  1  6
 16 14  1  0
 18 17  1  0
 18 11  1  0
 19 20  1  0
 19 17  1  0
 21 19  2  0
M  END
$$$$
