GIN.pdb
     RDKit          3D

 21 20  0  0  1  0  0  0  0  0999 V2000
   28.2340  -22.4682  -15.7332 N   0  0  0  0  0  0  0  0  0  0  0  0
   27.6161  -21.2725  -15.1889 C   0  0  0  0  0  0  0  0  0  0  0  0
   26.4554  -21.6408  -14.3365 C   0  0  0  0  0  0  0  0  0  0  0  0
   25.8615  -22.7283  -14.5504 O   0  0  0  0  0  0  0  0  0  0  0  0
   26.4041  -20.2528   -9.0750 C   0  0  0  0  0  0  0  0  0  0  0  0
   26.1513  -21.0204  -10.3272 C   0  0  0  0  0  0  0  0  0  0  0  0
   24.9522  -20.5128  -11.0976 C   0  0  2  0  0  0  0  0  0  0  0  0
   23.6956  -20.8540  -10.3262 C   0  0  0  0  0  0  0  0  0  0  0  0
   24.8561  -21.0834  -12.4743 C   0  0  2  0  0  0  0  0  0  0  0  0
   26.0065  -20.7910  -13.2894 N   0  0  0  0  0  0  0  0  0  0  0  0
   23.6093  -20.5267  -13.1068 C   0  0  0  0  0  0  0  0  0  0  0  0
   23.5012  -19.3142  -13.3321 O   0  0  0  0  0  0  0  0  0  0  0  0
   19.1691  -21.9862  -16.6749 N   0  0  0  0  0  0  0  0  0  0  0  0
   19.3505  -21.9385  -15.2655 C   0  0  0  0  0  0  0  0  0  0  0  0
   18.3592  -21.6827  -14.5522 O   0  0  0  0  0  0  0  0  0  0  0  0
   20.6553  -22.1808  -14.6615 C   0  0  0  0  0  0  0  0  0  0  0  0
   21.3349  -20.9549  -14.0957 C   0  0  2  0  0  0  0  0  0  0  0  0
   22.5627  -21.4304  -13.4368 N   0  0  0  0  0  0  0  0  0  0  0  0
   20.4536  -20.3838  -13.0498 C   0  0  0  0  0  0  0  0  0  0  0  0
   19.7273  -19.2217  -13.2539 O   0  0  0  0  0  0  0  0  0  0  0  0
   20.3353  -20.9341  -11.9403 O   0  0  0  0  0  0  0  0  0  0  0  0
  1  2  1  0
  2  3  1  0
  3 10  1  0
  3  4  2  0
  6  7  1  0
  6  5  1  0
  7  8  1  1
  9 11  1  0
  9  7  1  0
  9 10  1  6
 11 12  2  0
 13 14  1  0
 14 15  2  0
 17 16  1  1
 16 14  1  0
 18 17  1  0
 18 11  1  0
 19 20  1  0
 19 17  1  0
 21 19  2  0
M  END
$$$$
