GIN.pdb
     RDKit          3D

 21 20  0  0  1  0  0  0  0  0999 V2000
   21.3267  -11.0332  -20.8054 N   0  0  0  0  0  0  0  0  0  0  0  0
   22.6855  -10.8547  -20.3262 C   0  0  0  0  0  0  0  0  0  0  0  0
   22.6782  -10.5621  -18.8689 C   0  0  0  0  0  0  0  0  0  0  0  0
   21.8478  -11.1521  -18.1317 O   0  0  0  0  0  0  0  0  0  0  0  0
   25.9752  -10.2327  -14.0079 C   0  0  0  0  0  0  0  0  0  0  0  0
   24.8124   -9.6137  -14.7049 C   0  0  0  0  0  0  0  0  0  0  0  0
   24.8438   -9.8228  -16.2030 C   0  0  2  0  0  0  0  0  0  0  0  0
   26.0577   -9.1185  -16.7694 C   0  0  0  0  0  0  0  0  0  0  0  0
   23.6167   -9.3207  -16.8904 C   0  0  2  0  0  0  0  0  0  0  0  0
   23.5879   -9.6324  -18.2958 N   0  0  0  0  0  0  0  0  0  0  0  0
   23.5608   -7.8315  -16.6817 C   0  0  0  0  0  0  0  0  0  0  0  0
   24.4310   -7.0923  -17.1602 O   0  0  0  0  0  0  0  0  0  0  0  0
   21.5322   -3.1429  -16.3902 N   0  0  0  0  0  0  0  0  0  0  0  0
   21.6759   -4.0167  -17.5025 C   0  0  0  0  0  0  0  0  0  0  0  0
   21.5191   -3.5445  -18.6468 O   0  0  0  0  0  0  0  0  0  0  0  0
   21.9978   -5.4271  -17.3207 C   0  0  0  0  0  0  0  0  0  0  0  0
   22.2267   -5.8505  -15.8878 C   0  0  2  0  0  0  0  0  0  0  0  0
   22.4835   -7.2999  -15.9214 N   0  0  0  0  0  0  0  0  0  0  0  0
   20.9666   -5.6327  -15.1385 C   0  0  0  0  0  0  0  0  0  0  0  0
   20.5688   -4.3739  -14.7183 O   0  0  0  0  0  0  0  0  0  0  0  0
   20.2151   -6.5837  -14.8575 O   0  0  0  0  0  0  0  0  0  0  0  0
  1  2  1  0
  2  3  1  0
  3 10  1  0
  3  4  2  0
  6  7  1  0
  6  5  1  0
  7  8  1  6
  9 11  1  0
  9  7  1  0
  9 10  1  6
 11 12  2  0
 13 14  1  0
 14 15  2  0
 17 16  1  6
 16 14  1  0
 18 17  1  0
 18 11  1  0
 19 20  1  0
 19 17  1  0
 21 19  2  0
M  END
$$$$
