GIN.pdb
     RDKit          3D

 21 20  0  0  1  0  0  0  0  0999 V2000
   17.6754  -13.4152  -17.3033 N   0  0  0  0  0  0  0  0  0  0  0  0
   18.6886  -12.5449  -17.8724 C   0  0  0  0  0  0  0  0  0  0  0  0
   19.3450  -11.7551  -16.7978 C   0  0  0  0  0  0  0  0  0  0  0  0
   18.7658  -11.6341  -15.6883 O   0  0  0  0  0  0  0  0  0  0  0  0
   24.3552  -12.3618  -15.2537 C   0  0  0  0  0  0  0  0  0  0  0  0
   22.9090  -12.0236  -15.3777 C   0  0  0  0  0  0  0  0  0  0  0  0
   22.6732  -10.5908  -15.8027 C   0  0  2  0  0  0  0  0  0  0  0  0
   23.2261   -9.6680  -14.7383 C   0  0  0  0  0  0  0  0  0  0  0  0
   21.2307  -10.2763  -16.0274 C   0  0  2  0  0  0  0  0  0  0  0  0
   20.6088  -11.1371  -16.9998 N   0  0  0  0  0  0  0  0  0  0  0  0
   21.1459   -8.8398  -16.4674 C   0  0  0  0  0  0  0  0  0  0  0  0
   21.6452   -8.4760  -17.5403 O   0  0  0  0  0  0  0  0  0  0  0  0
   19.4688   -3.8826  -16.6801 N   0  0  0  0  0  0  0  0  0  0  0  0
   18.5009   -4.9234  -16.6439 C   0  0  0  0  0  0  0  0  0  0  0  0
   17.3092   -4.6278  -16.8663 O   0  0  0  0  0  0  0  0  0  0  0  0
   18.8812   -6.3012  -16.3559 C   0  0  0  0  0  0  0  0  0  0  0  0
   20.3375   -6.5018  -16.0042 C   0  0  2  0  0  0  0  0  0  0  0  0
   20.4783   -7.9156  -15.6182 N   0  0  0  0  0  0  0  0  0  0  0  0
   20.6390   -5.6759  -14.8110 C   0  0  0  0  0  0  0  0  0  0  0  0
   20.8565   -6.2377  -13.5634 O   0  0  0  0  0  0  0  0  0  0  0  0
   20.7070   -4.4361  -14.8898 O   0  0  0  0  0  0  0  0  0  0  0  0
  1  2  1  0
  2  3  1  0
  3 10  1  0
  3  4  2  0
  6  7  1  0
  6  5  1  0
  7  8  1  1
  9 11  1  0
  9  7  1  0
  9 10  1  6
 11 12  2  0
 13 14  1  0
 14 15  2  0
 17 16  1  1
 16 14  1  0
 18 17  1  0
 18 11  1  0
 19 20  1  0
 19 17  1  0
 21 19  2  0
M  END
$$$$
