HCP.pdb
     RDKit          3D

 24 25  0  0  1  0  0  0  0  0999 V2000
   18.5573  -11.2458  -16.8256 N   0  0  0  0  0  0  0  0  0  0  0  0
   19.6992  -10.4279  -17.2277 C   0  0  1  0  0  0  0  0  0  0  0  0
   19.5966  -10.2734  -18.7259 C   0  0  0  0  0  0  0  0  0  0  0  0
   20.0217  -11.5638  -19.3357 C   0  0  0  0  0  0  0  0  0  0  0  0
   21.1625  -11.8305  -20.0612 C   0  0  0  0  0  0  0  0  0  0  0  0
   21.1726  -13.1358  -20.4389 N   0  0  0  0  0  0  0  0  0  0  0  0
   20.0442  -13.6762  -19.9504 C   0  0  0  0  0  0  0  0  0  0  0  0
   19.3519  -12.7502  -19.2924 N   0  0  0  0  0  0  0  0  0  0  0  0
   19.6974   -9.1726  -16.4815 C   0  0  0  0  0  0  0  0  0  0  0  0
   18.6196   -8.5531  -16.2897 O   0  0  0  0  0  0  0  0  0  0  0  0
   20.8692   -8.5608  -15.9249 N   0  0  0  0  0  0  0  0  0  0  0  0
   20.8499   -7.2703  -15.2968 C   0  0  1  0  0  0  0  0  0  0  0  0
   21.8027   -7.3731  -14.0927 C   0  0  0  0  0  0  0  0  0  0  0  0
   21.7872   -5.7522  -13.2804 S   0  0  0  0  0  0  0  0  0  0  0  0
   21.2544   -6.1275  -16.1004 C   0  0  0  0  0  0  0  0  0  0  0  0
   22.3031   -6.2783  -16.8545 O   0  0  0  0  0  0  0  0  0  0  0  0
   20.6742   -4.8518  -16.1909 N   0  0  0  0  0  0  0  0  0  0  0  0
   19.5345   -4.3295  -15.4085 C   0  0  0  0  0  0  0  0  0  0  0  0
   18.7317   -3.5635  -16.4079 C   0  0  0  0  0  0  0  0  0  0  0  0
   19.7491   -3.0153  -17.3641 C   0  0  0  0  0  0  0  0  0  0  0  0
   21.0499   -3.7599  -17.0448 C   0  0  1  0  0  0  0  0  0  0  0  0
   21.9066   -2.7774  -16.2977 C   0  0  0  0  0  0  0  0  0  0  0  0
   22.0488   -2.8404  -15.0575 O   0  0  0  0  0  0  0  0  0  0  0  0
   22.5723   -1.7615  -16.9674 O   0  0  0  0  0  0  0  0  0  0  0  0
  2  1  1  1
  3  2  1  0
  3  4  1  0
  4  5  2  0
  5  6  1  0
  7  6  1  0
  8  4  1  0
  8  7  2  0
  9  2  1  0
  9 10  2  0
 11  9  1  0
 12 11  1  0
 12 15  1  0
 12 13  1  1
 14 13  1  0
 15 17  1  0
 16 15  2  0
 17 21  1  0
 17 18  1  0
 19 18  1  0
 20 19  1  0
 20 21  1  0
 21 22  1  1
 22 23  2  0
 22 24  1  0
M  END
$$$$
