HCP.pdb
     RDKit          3D

 24 25  0  0  1  0  0  0  0  0999 V2000
   23.5590  -12.6620  -18.1664 N   0  0  0  0  0  0  0  0  0  0  0  0
   23.9457  -11.7073  -17.1303 C   0  0  1  0  0  0  0  0  0  0  0  0
   25.4368  -11.5185  -17.2704 C   0  0  0  0  0  0  0  0  0  0  0  0
   26.0829  -12.8160  -16.9285 C   0  0  0  0  0  0  0  0  0  0  0  0
   26.2644  -13.3776  -15.6833 C   0  0  0  0  0  0  0  0  0  0  0  0
   26.8988  -14.5730  -15.8060 N   0  0  0  0  0  0  0  0  0  0  0  0
   27.1099  -14.7523  -17.1203 C   0  0  0  0  0  0  0  0  0  0  0  0
   26.6286  -13.7133  -17.7976 N   0  0  0  0  0  0  0  0  0  0  0  0
   23.1587  -10.4844  -17.2642 C   0  0  0  0  0  0  0  0  0  0  0  0
   23.2285   -9.8002  -18.3175 O   0  0  0  0  0  0  0  0  0  0  0  0
   22.2757   -9.9762  -16.2547 N   0  0  0  0  0  0  0  0  0  0  0  0
   21.5127   -8.7720  -16.4223 C   0  0  1  0  0  0  0  0  0  0  0  0
   20.0563   -9.1465  -16.0952 C   0  0  0  0  0  0  0  0  0  0  0  0
   19.0973   -7.6096  -16.1699 S   0  0  0  0  0  0  0  0  0  0  0  0
   21.8816   -7.6258  -15.6065 C   0  0  0  0  0  0  0  0  0  0  0  0
   22.1785   -7.8585  -14.3619 O   0  0  0  0  0  0  0  0  0  0  0  0
   21.9686   -6.2699  -15.9622 N   0  0  0  0  0  0  0  0  0  0  0  0
   21.6137   -5.6610  -17.2611 C   0  0  0  0  0  0  0  0  0  0  0  0
   22.6978   -4.6622  -17.4996 C   0  0  0  0  0  0  0  0  0  0  0  0
   23.0725   -4.1822  -16.1287 C   0  0  0  0  0  0  0  0  0  0  0  0
   22.4063   -5.1634  -15.1582 C   0  0  1  0  0  0  0  0  0  0  0  0
   21.2271   -4.4294  -14.5852 C   0  0  0  0  0  0  0  0  0  0  0  0
   21.3573   -3.5968  -13.6621 O   0  0  0  0  0  0  0  0  0  0  0  0
   19.9466   -4.6549  -15.0678 O   0  0  0  0  0  0  0  0  0  0  0  0
  2  1  1  6
  3  2  1  0
  3  4  1  0
  4  5  2  0
  5  6  1  0
  7  6  1  0
  8  4  1  0
  8  7  2  0
  9  2  1  0
  9 10  2  0
 11  9  1  0
 12 11  1  0
 12 15  1  0
 12 13  1  1
 14 13  1  0
 15 17  1  0
 16 15  2  0
 17 21  1  0
 17 18  1  0
 19 18  1  0
 20 19  1  0
 20 21  1  0
 21 22  1  6
 22 23  2  0
 22 24  1  0
M  END
$$$$
