HCP.pdb
     RDKit          3D

 24 25  0  0  1  0  0  0  0  0999 V2000
   37.1756   -5.9963  -13.6505 N   0  0  0  0  0  0  0  0  0  0  0  0
   38.0462   -5.8482  -12.4866 C   0  0  1  0  0  0  0  0  0  0  0  0
   37.4211   -4.7737  -11.6302 C   0  0  0  0  0  0  0  0  0  0  0  0
   37.9451   -3.4641  -12.1077 C   0  0  0  0  0  0  0  0  0  0  0  0
   38.8383   -3.2229  -13.1290 C   0  0  0  0  0  0  0  0  0  0  0  0
   39.0554   -1.8865  -13.2441 N   0  0  0  0  0  0  0  0  0  0  0  0
   38.3010   -1.3014  -12.2993 C   0  0  0  0  0  0  0  0  0  0  0  0
   37.6363   -2.2302  -11.6174 N   0  0  0  0  0  0  0  0  0  0  0  0
   38.2125   -7.1391  -11.8243 C   0  0  0  0  0  0  0  0  0  0  0  0
   37.2095   -7.8581  -11.5804 O   0  0  0  0  0  0  0  0  0  0  0  0
   39.4753   -7.6796  -11.4114 N   0  0  0  0  0  0  0  0  0  0  0  0
   39.5889   -8.8299  -10.5605 C   0  0  1  0  0  0  0  0  0  0  0  0
   40.7798   -9.6397  -11.1028 C   0  0  0  0  0  0  0  0  0  0  0  0
   40.2313  -10.3865  -12.6613 S   0  0  0  0  0  0  0  0  0  0  0  0
   39.8070   -8.5953   -9.1418 C   0  0  0  0  0  0  0  0  0  0  0  0
   40.3288   -7.4524   -8.8062 O   0  0  0  0  0  0  0  0  0  0  0  0
   39.5355   -9.4334   -8.0480 N   0  0  0  0  0  0  0  0  0  0  0  0
   39.0431  -10.8262   -8.0883 C   0  0  0  0  0  0  0  0  0  0  0  0
   38.0426  -10.8873   -6.9815 C   0  0  0  0  0  0  0  0  0  0  0  0
   38.5722   -9.9405   -5.9456 C   0  0  0  0  0  0  0  0  0  0  0  0
   39.6794   -9.1472   -6.6480 C   0  0  1  0  0  0  0  0  0  0  0  0
   40.9725   -9.7066   -6.1260 C   0  0  0  0  0  0  0  0  0  0  0  0
   41.6963  -10.4487   -6.8244 O   0  0  0  0  0  0  0  0  0  0  0  0
   41.4069   -9.4135   -4.8419 O   0  0  0  0  0  0  0  0  0  0  0  0
  2  1  1  6
  3  2  1  0
  3  4  1  0
  4  5  2  0
  5  6  1  0
  7  6  1  0
  8  4  1  0
  8  7  2  0
  9  2  1  0
  9 10  2  0
 11  9  1  0
 12 11  1  0
 12 15  1  0
 12 13  1  6
 14 13  1  0
 15 17  1  0
 16 15  2  0
 17 21  1  0
 17 18  1  0
 19 18  1  0
 20 19  1  0
 20 21  1  0
 21 22  1  1
 22 23  2  0
 22 24  1  0
M  END
$$$$
