HCP.pdb
     RDKit          3D

 24 25  0  0  1  0  0  0  0  0999 V2000
   27.1170  -19.8416  -20.0822 N   0  0  0  0  0  0  0  0  0  0  0  0
   26.1513  -19.1866  -19.2030 C   0  0  1  0  0  0  0  0  0  0  0  0
   24.8031  -19.7666  -19.5561 C   0  0  0  0  0  0  0  0  0  0  0  0
   24.1619  -18.8398  -20.5295 C   0  0  0  0  0  0  0  0  0  0  0  0
   23.5182  -17.6478  -20.2769 C   0  0  0  0  0  0  0  0  0  0  0  0
   23.0735  -17.1092  -21.4426 N   0  0  0  0  0  0  0  0  0  0  0  0
   23.4393  -17.9624  -22.4133 C   0  0  0  0  0  0  0  0  0  0  0  0
   24.0874  -18.9954  -21.8817 N   0  0  0  0  0  0  0  0  0  0  0  0
   26.5486  -19.3657  -17.8092 C   0  0  0  0  0  0  0  0  0  0  0  0
   26.9353  -20.4913  -17.4020 O   0  0  0  0  0  0  0  0  0  0  0  0
   26.5353  -18.3233  -16.8241 N   0  0  0  0  0  0  0  0  0  0  0  0
   26.6219  -18.5828  -15.4150 C   0  0  1  0  0  0  0  0  0  0  0  0
   26.7210  -17.2045  -14.7377 C   0  0  0  0  0  0  0  0  0  0  0  0
   26.5157  -17.4860  -12.9584 S   0  0  0  0  0  0  0  0  0  0  0  0
   25.5256  -19.3140  -14.7994 C   0  0  0  0  0  0  0  0  0  0  0  0
   24.3549  -19.1991  -15.3539 O   0  0  0  0  0  0  0  0  0  0  0  0
   25.5340  -20.1468  -13.6685 N   0  0  0  0  0  0  0  0  0  0  0  0
   26.6364  -20.3326  -12.7021 C   0  0  0  0  0  0  0  0  0  0  0  0
   26.6315  -21.8002  -12.4268 C   0  0  0  0  0  0  0  0  0  0  0  0
   25.1887  -22.1962  -12.5348 C   0  0  0  0  0  0  0  0  0  0  0  0
   24.4851  -20.9973  -13.1797 C   0  0  1  0  0  0  0  0  0  0  0  0
   23.7341  -20.3216  -12.0675 C   0  0  0  0  0  0  0  0  0  0  0  0
   24.1665  -19.2856  -11.5180 O   0  0  0  0  0  0  0  0  0  0  0  0
   22.5268  -20.8309  -11.6130 O   0  0  0  0  0  0  0  0  0  0  0  0
  2  1  1  6
  3  2  1  0
  3  4  1  0
  4  5  2  0
  5  6  1  0
  7  6  1  0
  8  4  1  0
  8  7  2  0
  9  2  1  0
  9 10  2  0
 11  9  1  0
 12 11  1  0
 12 15  1  0
 12 13  1  1
 14 13  1  0
 15 17  1  0
 16 15  2  0
 17 21  1  0
 17 18  1  0
 19 18  1  0
 20 19  1  0
 20 21  1  0
 21 22  1  1
 22 23  2  0
 22 24  1  0
M  END
$$$$
