HCP.pdb
     RDKit          3D

 24 25  0  0  1  0  0  0  0  0999 V2000
   22.5973  -13.1327  -18.9373 N   0  0  0  0  0  0  0  0  0  0  0  0
   22.2619  -11.7251  -19.1389 C   0  0  1  0  0  0  0  0  0  0  0  0
   20.9625  -11.7102  -19.9072 C   0  0  0  0  0  0  0  0  0  0  0  0
   21.2510  -12.2160  -21.2778 C   0  0  0  0  0  0  0  0  0  0  0  0
   21.9455  -11.5904  -22.2903 C   0  0  0  0  0  0  0  0  0  0  0  0
   21.9840  -12.3934  -23.3859 N   0  0  0  0  0  0  0  0  0  0  0  0
   21.3171  -13.5113  -23.0551 C   0  0  0  0  0  0  0  0  0  0  0  0
   20.8766  -13.4168  -21.8034 N   0  0  0  0  0  0  0  0  0  0  0  0
   22.2200  -11.0360  -17.8521 C   0  0  0  0  0  0  0  0  0  0  0  0
   21.3874  -11.3841  -16.9758 O   0  0  0  0  0  0  0  0  0  0  0  0
   23.0841   -9.9510  -17.4870 N   0  0  0  0  0  0  0  0  0  0  0  0
   22.9700   -9.2509  -16.2392 C   0  0  1  0  0  0  0  0  0  0  0  0
   24.3593   -9.3312  -15.5820 C   0  0  0  0  0  0  0  0  0  0  0  0
   25.5050   -8.4610  -16.6854 S   0  0  0  0  0  0  0  0  0  0  0  0
   22.5706   -7.8533  -16.2887 C   0  0  0  0  0  0  0  0  0  0  0  0
   22.8186   -7.2075  -17.3900 O   0  0  0  0  0  0  0  0  0  0  0  0
   21.9427   -7.0706  -15.3060 N   0  0  0  0  0  0  0  0  0  0  0  0
   21.5758   -7.4811  -13.9346 C   0  0  0  0  0  0  0  0  0  0  0  0
   20.2311   -6.8676  -13.7220 C   0  0  0  0  0  0  0  0  0  0  0  0
   20.2723   -5.5929  -14.5117 C   0  0  0  0  0  0  0  0  0  0  0  0
   21.5222   -5.7001  -15.3919 C   0  0  1  0  0  0  0  0  0  0  0  0
   22.5419   -4.7955  -14.7599 C   0  0  0  0  0  0  0  0  0  0  0  0
   23.4565   -5.2426  -14.0347 O   0  0  0  0  0  0  0  0  0  0  0  0
   22.4996   -3.4244  -14.9641 O   0  0  0  0  0  0  0  0  0  0  0  0
  2  1  1  1
  3  2  1  0
  3  4  1  0
  4  5  2  0
  5  6  1  0
  7  6  1  0
  8  4  1  0
  8  7  2  0
  9  2  1  0
  9 10  2  0
 11  9  1  0
 12 11  1  0
 12 15  1  0
 12 13  1  6
 14 13  1  0
 15 17  1  0
 16 15  2  0
 17 21  1  0
 17 18  1  0
 19 18  1  0
 20 19  1  0
 20 21  1  0
 21 22  1  1
 22 23  2  0
 22 24  1  0
M  END
$$$$
