HCP.pdb
     RDKit          3D

 24 25  0  0  1  0  0  0  0  0999 V2000
   23.5815  -13.3866  -16.2618 N   0  0  0  0  0  0  0  0  0  0  0  0
   24.1951  -12.0621  -16.2020 C   0  0  1  0  0  0  0  0  0  0  0  0
   25.4327  -12.1347  -17.0634 C   0  0  0  0  0  0  0  0  0  0  0  0
   26.3909  -13.0528  -16.3879 C   0  0  0  0  0  0  0  0  0  0  0  0
   27.3922  -12.7363  -15.4955 C   0  0  0  0  0  0  0  0  0  0  0  0
   28.0412  -13.8670  -15.1124 N   0  0  0  0  0  0  0  0  0  0  0  0
   27.4459  -14.8798  -15.7634 C   0  0  0  0  0  0  0  0  0  0  0  0
   26.4629  -14.4072  -16.5250 N   0  0  0  0  0  0  0  0  0  0  0  0
   23.2259  -11.0477  -16.6073 C   0  0  0  0  0  0  0  0  0  0  0  0
   22.4669  -11.2554  -17.5886 O   0  0  0  0  0  0  0  0  0  0  0  0
   23.0586   -9.7819  -15.9538 N   0  0  0  0  0  0  0  0  0  0  0  0
   21.9997   -8.8703  -16.2822 C   0  0  1  0  0  0  0  0  0  0  0  0
   20.6896   -9.6221  -15.9880 C   0  0  0  0  0  0  0  0  0  0  0  0
   19.3376   -8.4794  -16.3804 S   0  0  0  0  0  0  0  0  0  0  0  0
   21.9643   -7.6007  -15.5734 C   0  0  0  0  0  0  0  0  0  0  0  0
   22.0899   -7.6436  -14.2797 O   0  0  0  0  0  0  0  0  0  0  0  0
   21.8106   -6.3004  -16.0816 N   0  0  0  0  0  0  0  0  0  0  0  0
   21.3596   -5.9163  -17.4354 C   0  0  0  0  0  0  0  0  0  0  0  0
   22.2500   -4.7750  -17.8021 C   0  0  0  0  0  0  0  0  0  0  0  0
   22.5265   -4.0830  -16.5003 C   0  0  0  0  0  0  0  0  0  0  0  0
   22.0407   -5.0495  -15.4148 C   0  0  1  0  0  0  0  0  0  0  0  0
   20.7469   -4.4756  -14.9104 C   0  0  0  0  0  0  0  0  0  0  0  0
   19.6412   -4.8842  -15.3259 O   0  0  0  0  0  0  0  0  0  0  0  0
   20.7399   -3.4660  -13.9595 O   0  0  0  0  0  0  0  0  0  0  0  0
  2  1  1  6
  3  2  1  0
  3  4  1  0
  4  5  2  0
  5  6  1  0
  7  6  1  0
  8  4  1  0
  8  7  2  0
  9  2  1  0
  9 10  2  0
 11  9  1  0
 12 11  1  0
 12 15  1  0
 12 13  1  1
 14 13  1  0
 15 17  1  0
 16 15  2  0
 17 21  1  0
 17 18  1  0
 19 18  1  0
 20 19  1  0
 20 21  1  0
 21 22  1  6
 22 23  2  0
 22 24  1  0
M  END
$$$$
