HCP.pdb
     RDKit          3D

 24 25  0  0  1  0  0  0  0  0999 V2000
   26.0141  -20.7262  -19.7727 N   0  0  0  0  0  0  0  0  0  0  0  0
   25.9336  -21.6812  -18.6700 C   0  0  1  0  0  0  0  0  0  0  0  0
   26.6885  -22.9077  -19.1224 C   0  0  0  0  0  0  0  0  0  0  0  0
   25.7741  -23.6956  -19.9946 C   0  0  0  0  0  0  0  0  0  0  0  0
   24.6839  -24.4532  -19.6252 C   0  0  0  0  0  0  0  0  0  0  0  0
   24.1183  -25.0130  -20.7267 N   0  0  0  0  0  0  0  0  0  0  0  0
   24.8536  -24.6050  -21.7741 C   0  0  0  0  0  0  0  0  0  0  0  0
   25.8412  -23.8208  -21.3504 N   0  0  0  0  0  0  0  0  0  0  0  0
   26.4398  -21.0682  -17.4450 C   0  0  0  0  0  0  0  0  0  0  0  0
   27.6594  -20.7782  -17.3409 O   0  0  0  0  0  0  0  0  0  0  0  0
   25.6306  -20.7551  -16.3030 N   0  0  0  0  0  0  0  0  0  0  0  0
   26.1703  -20.1966  -15.0959 C   0  0  1  0  0  0  0  0  0  0  0  0
   25.7107  -18.7282  -15.0684 C   0  0  0  0  0  0  0  0  0  0  0  0
   23.9102  -18.7452  -15.2811 S   0  0  0  0  0  0  0  0  0  0  0  0
   25.7841  -20.8176  -13.8387 C   0  0  0  0  0  0  0  0  0  0  0  0
   24.7527  -21.6093  -13.8642 O   0  0  0  0  0  0  0  0  0  0  0  0
   26.3662  -20.6916  -12.5668 N   0  0  0  0  0  0  0  0  0  0  0  0
   27.5198  -19.8483  -12.1902 C   0  0  0  0  0  0  0  0  0  0  0  0
   28.3085  -20.7102  -11.2602 C   0  0  0  0  0  0  0  0  0  0  0  0
   27.2772  -21.5382  -10.5524 C   0  0  0  0  0  0  0  0  0  0  0  0
   25.9797  -21.3337  -11.3418 C   0  0  1  0  0  0  0  0  0  0  0  0
   25.1379  -20.4114  -10.5063 C   0  0  0  0  0  0  0  0  0  0  0  0
   25.0553  -19.1898  -10.7573 O   0  0  0  0  0  0  0  0  0  0  0  0
   24.4198  -20.8918   -9.4213 O   0  0  0  0  0  0  0  0  0  0  0  0
  2  1  1  6
  3  2  1  0
  3  4  1  0
  4  5  2  0
  5  6  1  0
  7  6  1  0
  8  4  1  0
  8  7  2  0
  9  2  1  0
  9 10  2  0
 11  9  1  0
 12 11  1  0
 12 15  1  0
 12 13  1  1
 14 13  1  0
 15 17  1  0
 16 15  2  0
 17 21  1  0
 17 18  1  0
 19 18  1  0
 20 19  1  0
 20 21  1  0
 21 22  1  1
 22 23  2  0
 22 24  1  0
M  END
$$$$
