HCP.pdb
     RDKit          3D

 24 25  0  0  1  0  0  0  0  0999 V2000
   14.5482  -21.9760   -1.6964 N   0  0  0  0  0  0  0  0  0  0  0  0
   14.2873  -22.3702   -0.3141 C   0  0  1  0  0  0  0  0  0  0  0  0
   13.8883  -23.8254   -0.3618 C   0  0  0  0  0  0  0  0  0  0  0  0
   12.5730  -23.9028   -1.0557 C   0  0  0  0  0  0  0  0  0  0  0  0
   12.2866  -24.4592   -2.2835 C   0  0  0  0  0  0  0  0  0  0  0  0
   10.9618  -24.3220   -2.5529 N   0  0  0  0  0  0  0  0  0  0  0  0
   10.4289  -23.6838   -1.4980 C   0  0  0  0  0  0  0  0  0  0  0  0
   11.3781  -23.4295   -0.6013 N   0  0  0  0  0  0  0  0  0  0  0  0
   15.4564  -22.0830    0.5126 C   0  0  0  0  0  0  0  0  0  0  0  0
   16.6127  -22.3100    0.0724 O   0  0  0  0  0  0  0  0  0  0  0  0
   15.3957  -21.5408    1.8391 N   0  0  0  0  0  0  0  0  0  0  0  0
   16.5619  -21.3358    2.6504 C   0  0  1  0  0  0  0  0  0  0  0  0
   16.7171  -19.8109    2.7878 C   0  0  0  0  0  0  0  0  0  0  0  0
   15.3122  -19.0668    1.9160 S   0  0  0  0  0  0  0  0  0  0  0  0
   16.5605  -21.9146    3.9846 C   0  0  0  0  0  0  0  0  0  0  0  0
   15.4010  -22.1471    4.5257 O   0  0  0  0  0  0  0  0  0  0  0  0
   17.6453  -22.2707    4.8025 N   0  0  0  0  0  0  0  0  0  0  0  0
   19.0822  -22.0726    4.5197 C   0  0  0  0  0  0  0  0  0  0  0  0
   19.7213  -23.3348    4.9974 C   0  0  0  0  0  0  0  0  0  0  0  0
   18.8815  -23.7608    6.1650 C   0  0  0  0  0  0  0  0  0  0  0  0
   17.6198  -22.8938    6.0962 C   0  0  1  0  0  0  0  0  0  0  0  0
   17.7755  -21.8647    7.1798 C   0  0  0  0  0  0  0  0  0  0  0  0
   18.1401  -20.6960    6.9279 O   0  0  0  0  0  0  0  0  0  0  0  0
   17.5167  -22.1827    8.5047 O   0  0  0  0  0  0  0  0  0  0  0  0
  2  1  1  6
  3  2  1  0
  3  4  1  0
  4  5  2  0
  5  6  1  0
  7  6  1  0
  8  4  1  0
  8  7  2  0
  9  2  1  0
  9 10  2  0
 11  9  1  0
 12 11  1  0
 12 15  1  0
 12 13  1  1
 14 13  1  0
 15 17  1  0
 16 15  2  0
 17 21  1  0
 17 18  1  0
 19 18  1  0
 20 19  1  0
 20 21  1  0
 21 22  1  1
 22 23  2  0
 22 24  1  0
M  END
$$$$
