HCP.pdb
     RDKit          3D

 24 25  0  0  1  0  0  0  0  0999 V2000
   20.6686  -12.4731  -18.1458 N   0  0  0  0  0  0  0  0  0  0  0  0
   21.3794  -11.3131  -18.6784 C   0  0  1  0  0  0  0  0  0  0  0  0
   20.4762  -10.7149  -19.7296 C   0  0  0  0  0  0  0  0  0  0  0  0
   20.4316  -11.6690  -20.8721 C   0  0  0  0  0  0  0  0  0  0  0  0
   19.3653  -12.4208  -21.3156 C   0  0  0  0  0  0  0  0  0  0  0  0
   19.7418  -13.1647  -22.3887 N   0  0  0  0  0  0  0  0  0  0  0  0
   21.0347  -12.8761  -22.6099 C   0  0  0  0  0  0  0  0  0  0  0  0
   21.4555  -11.9874  -21.7138 N   0  0  0  0  0  0  0  0  0  0  0  0
   21.7356  -10.4070  -17.5899 C   0  0  0  0  0  0  0  0  0  0  0  0
   20.8443   -9.9578  -16.8244 O   0  0  0  0  0  0  0  0  0  0  0  0
   23.0715   -9.9678  -17.3075 N   0  0  0  0  0  0  0  0  0  0  0  0
   23.3818   -9.0512  -16.2474 C   0  0  1  0  0  0  0  0  0  0  0  0
   24.8433   -9.3355  -15.8583 C   0  0  0  0  0  0  0  0  0  0  0  0
   24.8391  -10.8964  -14.9357 S   0  0  0  0  0  0  0  0  0  0  0  0
   23.2551   -7.6303  -16.5312 C   0  0  0  0  0  0  0  0  0  0  0  0
   23.5383   -7.2426  -17.7398 O   0  0  0  0  0  0  0  0  0  0  0  0
   22.8650   -6.5831  -15.6806 N   0  0  0  0  0  0  0  0  0  0  0  0
   22.5593   -6.6692  -14.2373 C   0  0  0  0  0  0  0  0  0  0  0  0
   21.3666   -5.7868  -14.0679 C   0  0  0  0  0  0  0  0  0  0  0  0
   21.5559   -4.7021  -15.0865 C   0  0  0  0  0  0  0  0  0  0  0  0
   22.6825   -5.1951  -16.0009 C   0  0  1  0  0  0  0  0  0  0  0  0
   23.8971   -4.4006  -15.6123 C   0  0  0  0  0  0  0  0  0  0  0  0
   24.7584   -4.8581  -14.8305 O   0  0  0  0  0  0  0  0  0  0  0  0
   24.1019   -3.1239  -16.1140 O   0  0  0  0  0  0  0  0  0  0  0  0
  2  1  1  1
  3  2  1  0
  3  4  1  0
  4  5  2  0
  5  6  1  0
  7  6  1  0
  8  4  1  0
  8  7  2  0
  9  2  1  0
  9 10  2  0
 11  9  1  0
 12 11  1  0
 12 15  1  0
 12 13  1  6
 14 13  1  0
 15 17  1  0
 16 15  2  0
 17 21  1  0
 17 18  1  0
 19 18  1  0
 20 19  1  0
 20 21  1  0
 21 22  1  1
 22 23  2  0
 22 24  1  0
M  END
$$$$
