NYA.pdb
     RDKit          3D

 26 26  0  0  1  0  0  0  0  0999 V2000
   20.3499   -8.6870  -21.1124 N   0  0  0  0  0  0  0  0  0  0  0  0
   19.6132   -7.5153  -21.3951 C   0  0  0  0  0  0  0  0  0  0  0  0
   19.3936   -7.2309  -22.6095 O   0  0  0  0  0  0  0  0  0  0  0  0
   19.1054   -6.6342  -20.3143 C   0  0  0  0  0  0  0  0  0  0  0  0
   19.5797   -7.1750  -18.9993 C   0  0  2  0  0  0  0  0  0  0  0  0
   18.9425   -8.4129  -18.6774 N   0  0  0  0  0  0  0  0  0  0  0  0
   19.4640   -6.1687  -17.9061 C   0  0  0  0  0  0  0  0  0  0  0  0
   18.3828   -6.0701  -17.2766 O   0  0  0  0  0  0  0  0  0  0  0  0
   20.1588   -9.3860  -12.3798 O   0  0  0  0  0  0  0  0  0  0  0  0
   20.4876   -8.2392  -13.1136 C   0  0  0  0  0  0  0  0  0  0  0  0
   20.0342   -6.9925  -12.7351 C   0  0  0  0  0  0  0  0  0  0  0  0
   20.3695   -5.8636  -13.4743 C   0  0  0  0  0  0  0  0  0  0  0  0
   21.1590   -5.9396  -14.6025 C   0  0  0  0  0  0  0  0  0  0  0  0
   21.4870   -4.7212  -15.3512 C   0  0  0  0  0  0  0  0  0  0  0  0
   20.4346   -4.3893  -16.4112 C   0  0  2  0  0  0  0  0  0  0  0  0
   20.5264   -5.3035  -17.5335 N   0  0  0  0  0  0  0  0  0  0  0  0
   20.5552   -2.9752  -16.8494 C   0  0  0  0  0  0  0  0  0  0  0  0
   21.4803   -2.6453  -17.6221 O   0  0  0  0  0  0  0  0  0  0  0  0
   21.6122   -7.1875  -14.9805 C   0  0  0  0  0  0  0  0  0  0  0  0
   21.2766   -8.3049  -14.2434 C   0  0  0  0  0  0  0  0  0  0  0  0
   18.5418    0.2190  -16.6747 C   0  0  0  0  0  0  0  0  0  0  0  0
   19.7810   -0.5945  -16.9373 C   0  0  2  0  0  0  0  0  0  0  0  0
   19.6574   -1.9568  -16.4291 N   0  0  0  0  0  0  0  0  0  0  0  0
   21.0008    0.0169  -16.3480 C   0  0  0  0  0  0  0  0  0  0  0  0
   21.6088    1.1032  -16.9622 O   0  0  0  0  0  0  0  0  0  0  0  0
   21.5275   -0.4117  -15.2890 O   0  0  0  0  0  0  0  0  0  0  0  0
  2  3  2  0
  2  1  1  0
  4  2  1  0
  5  4  1  0
  5  6  1  1
  7  5  1  0
  7 16  1  0
  8  7  2  0
  9 10  1  0
 10 11  2  0
 11 12  1  0
 13 14  1  0
 13 12  2  0
 15 14  1  1
 15 16  1  0
 15 17  1  0
 17 18  2  0
 19 13  1  0
 20 19  2  0
 20 10  1  0
 22 21  1  1
 23 17  1  0
 23 22  1  0
 24 25  1  0
 24 22  1  0
 26 24  2  0
M  END
$$$$
