NYA.pdb
     RDKit          3D

 26 26  0  0  1  0  0  0  0  0999 V2000
   23.7123  -18.5752  -20.7558 N   0  0  0  0  0  0  0  0  0  0  0  0
   23.4926  -19.9682  -20.8372 C   0  0  0  0  0  0  0  0  0  0  0  0
   23.4552  -20.4969  -21.9875 O   0  0  0  0  0  0  0  0  0  0  0  0
   23.3094  -20.8007  -19.6224 C   0  0  0  0  0  0  0  0  0  0  0  0
   24.6341  -20.9321  -18.9334 C   0  0  2  0  0  0  0  0  0  0  0  0
   25.5298  -21.7688  -19.6680 N   0  0  0  0  0  0  0  0  0  0  0  0
   24.4860  -21.3578  -17.5129 C   0  0  0  0  0  0  0  0  0  0  0  0
   24.4746  -22.5824  -17.2386 O   0  0  0  0  0  0  0  0  0  0  0  0
   24.1949  -21.5212   -8.6745 O   0  0  0  0  0  0  0  0  0  0  0  0
   24.3382  -21.1153  -10.0072 C   0  0  0  0  0  0  0  0  0  0  0  0
   25.4173  -21.5181  -10.7664 C   0  0  0  0  0  0  0  0  0  0  0  0
   25.5451  -21.1063  -12.0882 C   0  0  0  0  0  0  0  0  0  0  0  0
   24.6118  -20.2886  -12.6901 C   0  0  0  0  0  0  0  0  0  0  0  0
   24.7883  -19.8794  -14.0879 C   0  0  0  0  0  0  0  0  0  0  0  0
   24.1440  -20.8629  -15.0672 C   0  0  2  0  0  0  0  0  0  0  0  0
   24.3552  -20.4391  -16.4381 N   0  0  0  0  0  0  0  0  0  0  0  0
   22.6996  -21.0360  -14.7671 C   0  0  0  0  0  0  0  0  0  0  0  0
   21.9125  -20.0831  -14.9518 O   0  0  0  0  0  0  0  0  0  0  0  0
   23.5323  -19.8860  -11.9297 C   0  0  0  0  0  0  0  0  0  0  0  0
   23.4101  -20.2975  -10.6181 C   0  0  0  0  0  0  0  0  0  0  0  0
   20.3209  -23.8427  -13.8897 C   0  0  0  0  0  0  0  0  0  0  0  0
   20.7143  -22.4029  -14.0852 C   0  0  2  0  0  0  0  0  0  0  0  0
   22.1536  -22.2508  -14.2714 N   0  0  0  0  0  0  0  0  0  0  0  0
   20.2940  -21.5373  -12.9524 C   0  0  0  0  0  0  0  0  0  0  0  0
   21.0898  -21.4266  -11.8203 O   0  0  0  0  0  0  0  0  0  0  0  0
   19.2219  -20.8794  -12.9660 O   0  0  0  0  0  0  0  0  0  0  0  0
  2  3  2  0
  2  1  1  0
  4  2  1  0
  5  4  1  0
  5  6  1  6
  7  5  1  0
  7 16  1  0
  8  7  2  0
  9 10  1  0
 10 11  2  0
 11 12  1  0
 13 14  1  0
 13 12  2  0
 15 14  1  1
 15 16  1  0
 15 17  1  0
 17 18  2  0
 19 13  1  0
 20 19  2  0
 20 10  1  0
 22 21  1  1
 23 17  1  0
 23 22  1  0
 24 25  1  0
 24 22  1  0
 26 24  2  0
M  END
$$$$
