NYA.pdb
     RDKit          3D

 26 26  0  0  1  0  0  0  0  0999 V2000
   26.3717  -32.5002  -15.4076 N   0  0  0  0  0  0  0  0  0  0  0  0
   26.2215  -33.9048  -15.4194 C   0  0  0  0  0  0  0  0  0  0  0  0
   26.1751  -34.4873  -16.5430 O   0  0  0  0  0  0  0  0  0  0  0  0
   26.1198  -34.6883  -14.1631 C   0  0  0  0  0  0  0  0  0  0  0  0
   26.2502  -33.7462  -13.0047 C   0  0  2  0  0  0  0  0  0  0  0  0
   27.5536  -33.1638  -12.9426 N   0  0  0  0  0  0  0  0  0  0  0  0
   25.8433  -34.3807  -11.7191 C   0  0  0  0  0  0  0  0  0  0  0  0
   24.7227  -34.9402  -11.6401 O   0  0  0  0  0  0  0  0  0  0  0  0
   25.5341  -40.8635  -12.0363 O   0  0  0  0  0  0  0  0  0  0  0  0
   25.9499  -39.7356  -11.3176 C   0  0  0  0  0  0  0  0  0  0  0  0
   25.3938  -39.4203  -10.0951 C   0  0  0  0  0  0  0  0  0  0  0  0
   25.8176  -38.2970   -9.3940 C   0  0  0  0  0  0  0  0  0  0  0  0
   26.7988  -37.4602   -9.8830 C   0  0  0  0  0  0  0  0  0  0  0  0
   27.2141  -36.2858   -9.1078 C   0  0  0  0  0  0  0  0  0  0  0  0
   26.3005  -35.0811   -9.3434 C   0  0  2  0  0  0  0  0  0  0  0  0
   26.6671  -34.3861  -10.5626 N   0  0  0  0  0  0  0  0  0  0  0  0
   26.3169  -34.1695   -8.1709 C   0  0  0  0  0  0  0  0  0  0  0  0
   27.1796  -33.2679   -8.1022 O   0  0  0  0  0  0  0  0  0  0  0  0
   27.3547  -37.7765  -11.1063 C   0  0  0  0  0  0  0  0  0  0  0  0
   26.9306  -38.8926  -11.7983 C   0  0  0  0  0  0  0  0  0  0  0  0
   24.1591  -33.2973   -5.2072 C   0  0  0  0  0  0  0  0  0  0  0  0
   25.4626  -33.3673   -5.9569 C   0  0  2  0  0  0  0  0  0  0  0  0
   25.3861  -34.2692   -7.1016 N   0  0  0  0  0  0  0  0  0  0  0  0
   26.5944  -33.7984   -5.0953 C   0  0  0  0  0  0  0  0  0  0  0  0
   27.2224  -35.0163   -5.3179 O   0  0  0  0  0  0  0  0  0  0  0  0
   27.0265  -33.0958   -4.1454 O   0  0  0  0  0  0  0  0  0  0  0  0
  2  3  2  0
  2  1  1  0
  4  2  1  0
  5  4  1  0
  5  6  1  1
  7  5  1  0
  7 16  1  0
  8  7  2  0
  9 10  1  0
 10 11  2  0
 11 12  1  0
 13 14  1  0
 13 12  2  0
 15 14  1  1
 15 16  1  0
 15 17  1  0
 17 18  2  0
 19 13  1  0
 20 19  2  0
 20 10  1  0
 22 21  1  1
 23 17  1  0
 23 22  1  0
 24 25  1  0
 24 22  1  0
 26 24  2  0
M  END
$$$$
