NYA.pdb
     RDKit          3D

 26 26  0  0  1  0  0  0  0  0999 V2000
   34.6950  -13.7226  -18.4690 N   0  0  0  0  0  0  0  0  0  0  0  0
   34.2227  -12.5146  -19.0287 C   0  0  0  0  0  0  0  0  0  0  0  0
   35.0772  -11.6933  -19.4749 O   0  0  0  0  0  0  0  0  0  0  0  0
   32.7735  -12.2025  -19.0993 C   0  0  0  0  0  0  0  0  0  0  0  0
   32.5918  -10.7356  -18.8509 C   0  0  2  0  0  0  0  0  0  0  0  0
   33.0538  -10.3594  -17.5520 N   0  0  0  0  0  0  0  0  0  0  0  0
   31.1930  -10.2929  -19.1128 C   0  0  0  0  0  0  0  0  0  0  0  0
   30.6731  -10.5349  -20.2291 O   0  0  0  0  0  0  0  0  0  0  0  0
   27.1112  -15.1028  -16.8853 O   0  0  0  0  0  0  0  0  0  0  0  0
   27.3582  -13.7275  -16.9806 C   0  0  0  0  0  0  0  0  0  0  0  0
   28.1075  -13.0669  -16.0291 C   0  0  0  0  0  0  0  0  0  0  0  0
   28.3437  -11.7011  -16.1381 C   0  0  0  0  0  0  0  0  0  0  0  0
   27.8463  -10.9571  -17.1874 C   0  0  0  0  0  0  0  0  0  0  0  0
   28.1213   -9.5178  -17.2610 C   0  0  0  0  0  0  0  0  0  0  0  0
   29.0506   -9.1623  -18.4235 C   0  0  2  0  0  0  0  0  0  0  0  0
   30.4061   -9.6024  -18.1537 N   0  0  0  0  0  0  0  0  0  0  0  0
   28.9984   -7.7067  -18.7143 C   0  0  0  0  0  0  0  0  0  0  0  0
   29.6198   -6.9081  -17.9809 O   0  0  0  0  0  0  0  0  0  0  0  0
   27.0967  -11.6189  -18.1390 C   0  0  0  0  0  0  0  0  0  0  0  0
   26.8651  -12.9747  -18.0263 C   0  0  0  0  0  0  0  0  0  0  0  0
   29.7897   -5.3147  -20.3522 C   0  0  0  0  0  0  0  0  0  0  0  0
   28.3633   -5.7449  -20.1367 C   0  0  2  0  0  0  0  0  0  0  0  0
   28.2652   -7.1622  -19.8032 N   0  0  0  0  0  0  0  0  0  0  0  0
   27.5024   -5.4808  -21.3191 C   0  0  0  0  0  0  0  0  0  0  0  0
   27.0580   -4.1940  -21.5910 O   0  0  0  0  0  0  0  0  0  0  0  0
   27.1443   -6.3902  -22.1111 O   0  0  0  0  0  0  0  0  0  0  0  0
  2  3  2  0
  2  1  1  0
  4  2  1  0
  5  4  1  0
  5  6  1  1
  7  5  1  0
  7 16  1  0
  8  7  2  0
  9 10  1  0
 10 11  2  0
 11 12  1  0
 13 14  1  0
 13 12  2  0
 15 14  1  1
 15 16  1  0
 15 17  1  0
 17 18  2  0
 19 13  1  0
 20 19  2  0
 20 10  1  0
 22 21  1  6
 23 17  1  0
 23 22  1  0
 24 25  1  0
 24 22  1  0
 26 24  2  0
M  END
$$$$
