NYA.pdb
     RDKit          3D

 26 26  0  0  1  0  0  0  0  0999 V2000
   23.9342  -11.9085  -21.4217 N   0  0  0  0  0  0  0  0  0  0  0  0
   22.9656  -12.5671  -20.6320 C   0  0  0  0  0  0  0  0  0  0  0  0
   22.4438  -13.6251  -21.0928 O   0  0  0  0  0  0  0  0  0  0  0  0
   22.5607  -12.0484  -19.3018 C   0  0  0  0  0  0  0  0  0  0  0  0
   23.6591  -12.3402  -18.3247 C   0  0  2  0  0  0  0  0  0  0  0  0
   23.8190  -13.7446  -18.1147 N   0  0  0  0  0  0  0  0  0  0  0  0
   23.4900  -11.5851  -17.0510 C   0  0  0  0  0  0  0  0  0  0  0  0
   23.1860  -12.2088  -16.0052 O   0  0  0  0  0  0  0  0  0  0  0  0
   29.4454  -10.8085  -17.7458 O   0  0  0  0  0  0  0  0  0  0  0  0
   28.2799  -10.5437  -17.0157 C   0  0  0  0  0  0  0  0  0  0  0  0
   27.5762   -9.3701  -17.1911 C   0  0  0  0  0  0  0  0  0  0  0  0
   26.4208   -9.1221  -16.4586 C   0  0  0  0  0  0  0  0  0  0  0  0
   25.9342  -10.0258  -15.5373 C   0  0  0  0  0  0  0  0  0  0  0  0
   24.7107   -9.7211  -14.7871 C   0  0  0  0  0  0  0  0  0  0  0  0
   23.5163   -9.4559  -15.7061 C   0  0  2  0  0  0  0  0  0  0  0  0
   23.6566  -10.1782  -16.9560 N   0  0  0  0  0  0  0  0  0  0  0  0
   23.3411   -7.9989  -15.9358 C   0  0  0  0  0  0  0  0  0  0  0  0
   24.1110   -7.4004  -16.7174 O   0  0  0  0  0  0  0  0  0  0  0  0
   26.6390  -11.1997  -15.3625 C   0  0  0  0  0  0  0  0  0  0  0  0
   27.7852  -11.4412  -16.0920 C   0  0  0  0  0  0  0  0  0  0  0  0
   20.9014   -5.4693  -16.2508 C   0  0  0  0  0  0  0  0  0  0  0  0
   22.1963   -5.8028  -15.5593 C   0  0  2  0  0  0  0  0  0  0  0  0
   22.3249   -7.2335  -15.3022 N   0  0  0  0  0  0  0  0  0  0  0  0
   22.3589   -5.0787  -14.2716 C   0  0  0  0  0  0  0  0  0  0  0  0
   22.6045   -3.7125  -14.2602 O   0  0  0  0  0  0  0  0  0  0  0  0
   22.2832   -5.6568  -13.1568 O   0  0  0  0  0  0  0  0  0  0  0  0
  2  3  2  0
  2  1  1  0
  4  2  1  0
  5  4  1  0
  5  6  1  1
  7  5  1  0
  7 16  1  0
  8  7  2  0
  9 10  1  0
 10 11  2  0
 11 12  1  0
 13 14  1  0
 13 12  2  0
 15 14  1  1
 15 16  1  0
 15 17  1  0
 17 18  2  0
 19 13  1  0
 20 19  2  0
 20 10  1  0
 22 21  1  1
 23 17  1  0
 23 22  1  0
 24 25  1  0
 24 22  1  0
 26 24  2  0
M  END
$$$$
