NYA.pdb
     RDKit          3D

 26 26  0  0  1  0  0  0  0  0999 V2000
   28.2589  -12.1604  -15.6707 N   0  0  0  0  0  0  0  0  0  0  0  0
   28.2864  -11.0880  -16.5898 C   0  0  0  0  0  0  0  0  0  0  0  0
   29.4143  -10.6998  -17.0152 O   0  0  0  0  0  0  0  0  0  0  0  0
   27.0414  -10.4261  -17.0527 C   0  0  0  0  0  0  0  0  0  0  0  0
   25.8928  -10.9652  -16.2547 C   0  0  2  0  0  0  0  0  0  0  0  0
   25.7649  -12.3806  -16.4043 N   0  0  0  0  0  0  0  0  0  0  0  0
   24.6227  -10.2406  -16.5426 C   0  0  0  0  0  0  0  0  0  0  0  0
   23.8149  -10.7263  -17.3712 O   0  0  0  0  0  0  0  0  0  0  0  0
   16.8845   -6.7219  -17.2147 O   0  0  0  0  0  0  0  0  0  0  0  0
   18.1037   -7.2956  -16.8324 C   0  0  0  0  0  0  0  0  0  0  0  0
   18.5396   -7.2458  -15.5245 C   0  0  0  0  0  0  0  0  0  0  0  0
   19.7524   -7.8201  -15.1610 C   0  0  0  0  0  0  0  0  0  0  0  0
   20.5617   -8.4560  -16.0790 C   0  0  0  0  0  0  0  0  0  0  0  0
   21.8336   -9.0479  -15.6494 C   0  0  0  0  0  0  0  0  0  0  0  0
   23.0429   -8.3055  -16.2221 C   0  0  2  0  0  0  0  0  0  0  0  0
   24.2727   -9.0130  -15.9209 N   0  0  0  0  0  0  0  0  0  0  0  0
   23.0849   -6.9055  -15.7276 C   0  0  0  0  0  0  0  0  0  0  0  0
   23.3552   -6.6825  -14.5281 O   0  0  0  0  0  0  0  0  0  0  0  0
   20.1247   -8.5054  -17.3875 C   0  0  0  0  0  0  0  0  0  0  0  0
   18.9200   -7.9338  -17.7432 C   0  0  0  0  0  0  0  0  0  0  0  0
   22.6480   -3.3911  -17.0929 C   0  0  0  0  0  0  0  0  0  0  0  0
   22.8654   -4.4277  -16.0232 C   0  0  2  0  0  0  0  0  0  0  0  0
   22.8291   -5.7835  -16.5616 N   0  0  0  0  0  0  0  0  0  0  0  0
   21.8685   -4.3325  -14.9250 C   0  0  0  0  0  0  0  0  0  0  0  0
   20.5926   -4.8548  -15.0874 O   0  0  0  0  0  0  0  0  0  0  0  0
   22.1282   -3.7866  -13.8217 O   0  0  0  0  0  0  0  0  0  0  0  0
  2  3  2  0
  2  1  1  0
  4  2  1  0
  5  4  1  0
  5  6  1  6
  7  5  1  0
  7 16  1  0
  8  7  2  0
  9 10  1  0
 10 11  2  0
 11 12  1  0
 13 14  1  0
 13 12  2  0
 15 14  1  1
 15 16  1  0
 15 17  1  0
 17 18  2  0
 19 13  1  0
 20 19  2  0
 20 10  1  0
 22 21  1  6
 23 17  1  0
 23 22  1  0
 24 25  1  0
 24 22  1  0
 26 24  2  0
M  END
$$$$
