NYA.pdb
     RDKit          3D

 26 26  0  0  1  0  0  0  0  0999 V2000
   28.9119  -22.2845  -19.6595 N   0  0  0  0  0  0  0  0  0  0  0  0
   28.5697  -23.5489  -19.1305 C   0  0  0  0  0  0  0  0  0  0  0  0
   29.0017  -24.5788  -19.7277 O   0  0  0  0  0  0  0  0  0  0  0  0
   27.7309  -23.6836  -17.9136 C   0  0  0  0  0  0  0  0  0  0  0  0
   27.3218  -22.3130  -17.4656 C   0  0  2  0  0  0  0  0  0  0  0  0
   28.4045  -21.3846  -17.5525 N   0  0  0  0  0  0  0  0  0  0  0  0
   26.6884  -22.3313  -16.1166 C   0  0  0  0  0  0  0  0  0  0  0  0
   25.8133  -23.1942  -15.8627 O   0  0  0  0  0  0  0  0  0  0  0  0
   24.4560  -20.2494   -7.7832 O   0  0  0  0  0  0  0  0  0  0  0  0
   25.1322  -20.3596   -9.0048 C   0  0  0  0  0  0  0  0  0  0  0  0
   25.4217  -21.5914   -9.5544 C   0  0  0  0  0  0  0  0  0  0  0  0
   26.0937  -21.6839  -10.7680 C   0  0  0  0  0  0  0  0  0  0  0  0
   26.4948  -20.5641  -11.4660 C   0  0  0  0  0  0  0  0  0  0  0  0
   27.2015  -20.7104  -12.7434 C   0  0  0  0  0  0  0  0  0  0  0  0
   26.3321  -21.3693  -13.8165 C   0  0  2  0  0  0  0  0  0  0  0  0
   27.0269  -21.4118  -15.0890 N   0  0  0  0  0  0  0  0  0  0  0  0
   25.0233  -20.6767  -13.9334 C   0  0  0  0  0  0  0  0  0  0  0  0
   24.9710  -19.5391  -14.4478 O   0  0  0  0  0  0  0  0  0  0  0  0
   26.2047  -19.3320  -10.9153 C   0  0  0  0  0  0  0  0  0  0  0  0
   25.5374  -19.2455   -9.7104 C   0  0  0  0  0  0  0  0  0  0  0  0
   21.9502  -20.5085  -14.9167 C   0  0  0  0  0  0  0  0  0  0  0  0
   22.5564  -20.4931  -13.5389 C   0  0  2  0  0  0  0  0  0  0  0  0
   23.8032  -21.2494  -13.4827 N   0  0  0  0  0  0  0  0  0  0  0  0
   21.6351  -21.0306  -12.5038 C   0  0  0  0  0  0  0  0  0  0  0  0
   20.4272  -20.3984  -12.2421 O   0  0  0  0  0  0  0  0  0  0  0  0
   21.9007  -22.0602  -11.8315 O   0  0  0  0  0  0  0  0  0  0  0  0
  2  3  2  0
  2  1  1  0
  4  2  1  0
  5  4  1  0
  5  6  1  1
  7  5  1  0
  7 16  1  0
  8  7  2  0
  9 10  1  0
 10 11  2  0
 11 12  1  0
 13 14  1  0
 13 12  2  0
 15 14  1  1
 15 16  1  0
 15 17  1  0
 17 18  2  0
 19 13  1  0
 20 19  2  0
 20 10  1  0
 22 21  1  6
 23 17  1  0
 23 22  1  0
 24 25  1  0
 24 22  1  0
 26 24  2  0
M  END
$$$$
