NYA.pdb
     RDKit          3D

 26 26  0  0  1  0  0  0  0  0999 V2000
   29.6226  -23.5145  -19.5630 N   0  0  0  0  0  0  0  0  0  0  0  0
   28.2835  -23.9080  -19.7811 C   0  0  0  0  0  0  0  0  0  0  0  0
   27.9422  -24.2241  -20.9591 O   0  0  0  0  0  0  0  0  0  0  0  0
   27.2949  -23.9548  -18.6753 C   0  0  0  0  0  0  0  0  0  0  0  0
   27.9257  -23.3654  -17.4500 C   0  0  2  0  0  0  0  0  0  0  0  0
   29.0824  -24.1009  -17.0465 N   0  0  0  0  0  0  0  0  0  0  0  0
   26.9424  -23.1900  -16.3439 C   0  0  0  0  0  0  0  0  0  0  0  0
   26.1780  -24.1402  -16.0477 O   0  0  0  0  0  0  0  0  0  0  0  0
   22.8410  -20.4148   -9.0354 O   0  0  0  0  0  0  0  0  0  0  0  0
   23.7175  -20.5286  -10.1218 C   0  0  0  0  0  0  0  0  0  0  0  0
   23.4459  -19.9170  -11.3282 C   0  0  0  0  0  0  0  0  0  0  0  0
   24.3263  -20.0396  -12.3972 C   0  0  0  0  0  0  0  0  0  0  0  0
   25.4935  -20.7678  -12.3001 C   0  0  0  0  0  0  0  0  0  0  0  0
   26.3927  -20.8694  -13.4550 C   0  0  0  0  0  0  0  0  0  0  0  0
   25.8604  -21.8267  -14.5235 C   0  0  2  0  0  0  0  0  0  0  0  0
   26.8225  -21.9885  -15.5967 N   0  0  0  0  0  0  0  0  0  0  0  0
   24.5448  -21.3656  -15.0364 C   0  0  0  0  0  0  0  0  0  0  0  0
   24.4794  -20.3170  -15.7130 O   0  0  0  0  0  0  0  0  0  0  0  0
   25.7645  -21.3794  -11.0926 C   0  0  0  0  0  0  0  0  0  0  0  0
   24.8873  -21.2547  -10.0345 C   0  0  0  0  0  0  0  0  0  0  0  0
   21.2363  -22.8392  -15.8180 C   0  0  0  0  0  0  0  0  0  0  0  0
   22.0902  -21.6579  -15.4419 C   0  0  2  0  0  0  0  0  0  0  0  0
   23.3325  -22.0666  -14.7944 N   0  0  0  0  0  0  0  0  0  0  0  0
   21.3848  -20.7061  -14.5444 C   0  0  0  0  0  0  0  0  0  0  0  0
   20.6923  -19.6249  -15.0721 O   0  0  0  0  0  0  0  0  0  0  0  0
   21.3822  -20.8328  -13.2928 O   0  0  0  0  0  0  0  0  0  0  0  0
  2  3  2  0
  2  1  1  0
  4  2  1  0
  5  4  1  0
  5  6  1  1
  7  5  1  0
  7 16  1  0
  8  7  2  0
  9 10  1  0
 10 11  2  0
 11 12  1  0
 13 14  1  0
 13 12  2  0
 15 14  1  1
 15 16  1  0
 15 17  1  0
 17 18  2  0
 19 13  1  0
 20 19  2  0
 20 10  1  0
 22 21  1  1
 23 17  1  0
 23 22  1  0
 24 25  1  0
 24 22  1  0
 26 24  2  0
M  END
$$$$
