NYA.pdb
     RDKit          3D

 26 26  0  0  1  0  0  0  0  0999 V2000
   18.7768  -13.4130  -16.5839 N   0  0  0  0  0  0  0  0  0  0  0  0
   19.0689  -12.0708  -16.9136 C   0  0  0  0  0  0  0  0  0  0  0  0
   19.0956  -11.7531  -18.1393 O   0  0  0  0  0  0  0  0  0  0  0  0
   19.3385  -11.0523  -15.8684 C   0  0  0  0  0  0  0  0  0  0  0  0
   20.2359  -10.0021  -16.4499 C   0  0  2  0  0  0  0  0  0  0  0  0
   21.6094  -10.3926  -16.3951 N   0  0  0  0  0  0  0  0  0  0  0  0
   19.9957   -8.6623  -15.8429 C   0  0  0  0  0  0  0  0  0  0  0  0
   20.3127   -8.4674  -14.6444 O   0  0  0  0  0  0  0  0  0  0  0  0
   25.5996   -5.7241  -16.5826 O   0  0  0  0  0  0  0  0  0  0  0  0
   24.2060   -5.5953  -16.6350 C   0  0  0  0  0  0  0  0  0  0  0  0
   23.5348   -4.7301  -15.7959 C   0  0  0  0  0  0  0  0  0  0  0  0
   22.1508   -4.6137  -15.8603 C   0  0  0  0  0  0  0  0  0  0  0  0
   21.3988   -5.3477  -16.7535 C   0  0  0  0  0  0  0  0  0  0  0  0
   19.9402   -5.1919  -16.7857 C   0  0  0  0  0  0  0  0  0  0  0  0
   19.2225   -6.2687  -15.9692 C   0  0  2  0  0  0  0  0  0  0  0  0
   19.4193   -7.5795  -16.5580 N   0  0  0  0  0  0  0  0  0  0  0  0
   17.7795   -5.9473  -15.8255 C   0  0  0  0  0  0  0  0  0  0  0  0
   16.9321   -6.6200  -16.4509 O   0  0  0  0  0  0  0  0  0  0  0  0
   22.0713   -6.2131  -17.5927 C   0  0  0  0  0  0  0  0  0  0  0  0
   23.4451   -6.3250  -17.5248 C   0  0  0  0  0  0  0  0  0  0  0  0
   15.1380   -5.8684  -14.3561 C   0  0  0  0  0  0  0  0  0  0  0  0
   15.8697   -4.6503  -14.8531 C   0  0  2  0  0  0  0  0  0  0  0  0
   17.3009   -4.8950  -14.9987 N   0  0  0  0  0  0  0  0  0  0  0  0
   15.6834   -3.4715  -13.9673 C   0  0  0  0  0  0  0  0  0  0  0  0
   14.4957   -2.7533  -13.9943 O   0  0  0  0  0  0  0  0  0  0  0  0
   16.5730   -3.0781  -13.1695 O   0  0  0  0  0  0  0  0  0  0  0  0
  2  3  2  0
  2  1  1  0
  4  2  1  0
  5  4  1  0
  5  6  1  1
  7  5  1  0
  7 16  1  0
  8  7  2  0
  9 10  1  0
 10 11  2  0
 11 12  1  0
 13 14  1  0
 13 12  2  0
 15 14  1  6
 15 16  1  0
 15 17  1  0
 17 18  2  0
 19 13  1  0
 20 19  2  0
 20 10  1  0
 22 21  1  1
 23 17  1  0
 23 22  1  0
 24 25  1  0
 24 22  1  0
 26 24  2  0
M  END
$$$$
