GNR.pdb
     RDKit          3D

 24 23  0  0  1  0  0  0  0  0999 V2000
    9.3892  -18.1513   16.1052 N   0  0  0  0  0  0  0  0  0  0  0  0
    8.3841  -17.7826   17.0682 C   0  0  0  0  0  0  0  0  0  0  0  0
    8.9511  -16.9330   18.1570 C   0  0  0  0  0  0  0  0  0  0  0  0
   10.1760  -17.0091   18.3742 O   0  0  0  0  0  0  0  0  0  0  0  0
    7.9199  -11.7797   19.7778 N   0  0  0  0  0  0  0  0  0  0  0  0
    7.6470  -13.1157   19.3967 C   0  0  0  0  0  0  0  0  0  0  0  0
    7.3014  -13.3211   18.2085 O   0  0  0  0  0  0  0  0  0  0  0  0
    7.7878  -14.1694   20.4213 C   0  0  0  0  0  0  0  0  0  0  0  0
    8.7125  -15.2805   19.9683 C   0  0  2  0  0  0  0  0  0  0  0  0
    8.1302  -16.0647   18.9243 N   0  0  0  0  0  0  0  0  0  0  0  0
    9.0111  -16.1056   21.1686 C   0  0  0  0  0  0  0  0  0  0  0  0
    8.0530  -16.6291   21.7824 O   0  0  0  0  0  0  0  0  0  0  0  0
   14.5719  -22.4518   22.5407 N   0  0  0  0  0  0  0  0  0  0  0  0
   13.4556  -21.8081   21.9240 C   0  0  0  0  0  0  0  0  0  0  0  0
   13.0189  -22.2001   20.7693 N   0  0  0  0  0  0  0  0  0  0  0  0
   12.7771  -20.7215   22.5358 N   0  0  0  0  0  0  0  0  0  0  0  0
   13.5344  -19.5113   22.8886 C   0  0  0  0  0  0  0  0  0  0  0  0
   12.6383  -18.5209   23.6086 C   0  0  0  0  0  0  0  0  0  0  0  0
   12.0656  -17.6293   22.5392 C   0  0  0  0  0  0  0  0  0  0  0  0
   10.6334  -17.2671   22.7224 C   0  0  2  0  0  0  0  0  0  0  0  0
   10.3203  -16.3168   21.6348 N   0  0  0  0  0  0  0  0  0  0  0  0
   10.4696  -16.4910   23.9706 C   0  0  0  0  0  0  0  0  0  0  0  0
   10.2956  -15.2392   23.9875 O   0  0  0  0  0  0  0  0  0  0  0  0
   10.4997  -17.1166   25.1913 O   0  0  0  0  0  0  0  0  0  0  0  0
  2  1  1  0
  2  3  1  0
  3 10  1  0
  4  3  2  0
  6  5  1  0
  6  7  2  0
  8  6  1  0
  9  8  1  1
  9 11  1  0
 10  9  1  0
 11 21  1  0
 11 12  2  0
 13 14  1  0
 14 16  1  0
 15 14  2  0
 16 17  1  0
 17 18  1  0
 18 19  1  0
 20 19  1  6
 21 20  1  0
 22 20  1  0
 22 24  1  0
 23 22  2  0
M  END
$$$$
