GNR.pdb
     RDKit          3D

 24 23  0  0  1  0  0  0  0  0999 V2000
   11.1191  -17.1055   17.4921 N   0  0  0  0  0  0  0  0  0  0  0  0
   12.1936  -16.9400   18.4363 C   0  0  0  0  0  0  0  0  0  0  0  0
   11.8022  -17.4010   19.8012 C   0  0  0  0  0  0  0  0  0  0  0  0
   10.5866  -17.5320   20.0431 O   0  0  0  0  0  0  0  0  0  0  0  0
   15.0269  -20.3622   22.4109 N   0  0  0  0  0  0  0  0  0  0  0  0
   13.7379  -19.9382   22.8149 C   0  0  0  0  0  0  0  0  0  0  0  0
   12.8702  -20.8230   23.0084 O   0  0  0  0  0  0  0  0  0  0  0  0
   13.5068  -18.4892   22.9794 C   0  0  0  0  0  0  0  0  0  0  0  0
   12.3552  -17.9985   22.1262 C   0  0  2  0  0  0  0  0  0  0  0  0
   12.7750  -17.6829   20.7965 N   0  0  0  0  0  0  0  0  0  0  0  0
   11.7874  -16.8098   22.8156 C   0  0  0  0  0  0  0  0  0  0  0  0
   12.5244  -15.8106   22.9800 O   0  0  0  0  0  0  0  0  0  0  0  0
    7.6586  -12.4668   20.1694 N   0  0  0  0  0  0  0  0  0  0  0  0
    7.9260  -13.4664   19.1844 C   0  0  0  0  0  0  0  0  0  0  0  0
    8.2813  -13.1356   17.9836 N   0  0  0  0  0  0  0  0  0  0  0  0
    7.8178  -14.8535   19.4667 N   0  0  0  0  0  0  0  0  0  0  0  0
    7.6670  -15.2908   20.8625 C   0  0  0  0  0  0  0  0  0  0  0  0
    8.7947  -14.7357   21.7127 C   0  0  0  0  0  0  0  0  0  0  0  0
    8.6039  -15.3230   23.0857 C   0  0  0  0  0  0  0  0  0  0  0  0
    9.8590  -15.5459   23.8545 C   0  0  2  0  0  0  0  0  0  0  0  0
   10.4631  -16.7687   23.2855 N   0  0  0  0  0  0  0  0  0  0  0  0
    9.5327  -15.8935   25.2545 C   0  0  0  0  0  0  0  0  0  0  0  0
    8.9705  -15.0904   26.0522 O   0  0  0  0  0  0  0  0  0  0  0  0
    9.8346  -17.1349   25.7546 O   0  0  0  0  0  0  0  0  0  0  0  0
  2  1  1  0
  2  3  1  0
  3 10  1  0
  4  3  2  0
  6  5  1  0
  6  7  2  0
  8  6  1  0
  9  8  1  1
  9 11  1  0
 10  9  1  0
 11 21  1  0
 11 12  2  0
 13 14  1  0
 14 16  1  0
 15 14  2  0
 16 17  1  0
 17 18  1  0
 18 19  1  0
 20 19  1  6
 21 20  1  0
 22 20  1  0
 22 24  1  0
 23 22  2  0
M  END
$$$$
