GNR.pdb
     RDKit          3D

 24 23  0  0  1  0  0  0  0  0999 V2000
    8.2953  -12.3873   17.4382 N   0  0  0  0  0  0  0  0  0  0  0  0
    7.6522  -13.4870   18.1095 C   0  0  0  0  0  0  0  0  0  0  0  0
    8.2491  -13.7347   19.4552 C   0  0  0  0  0  0  0  0  0  0  0  0
    9.4540  -13.4595   19.6152 O   0  0  0  0  0  0  0  0  0  0  0  0
    9.0747  -14.8100   24.3003 N   0  0  0  0  0  0  0  0  0  0  0  0
    7.6984  -15.1127   24.1627 C   0  0  0  0  0  0  0  0  0  0  0  0
    7.0786  -15.4760   25.1909 O   0  0  0  0  0  0  0  0  0  0  0  0
    7.0920  -14.9799   22.8231 C   0  0  0  0  0  0  0  0  0  0  0  0
    8.0902  -14.4882   21.7952 C   0  0  2  0  0  0  0  0  0  0  0  0
    7.4777  -14.2656   20.5228 N   0  0  0  0  0  0  0  0  0  0  0  0
    9.1616  -15.5158   21.7127 C   0  0  0  0  0  0  0  0  0  0  0  0
    8.8498  -16.6698   21.3385 O   0  0  0  0  0  0  0  0  0  0  0  0
   16.3999  -13.1280   18.0774 N   0  0  0  0  0  0  0  0  0  0  0  0
   16.4966  -14.5519   18.0136 C   0  0  0  0  0  0  0  0  0  0  0  0
   17.3991  -15.1229   17.2807 N   0  0  0  0  0  0  0  0  0  0  0  0
   15.6216  -15.4020   18.7395 N   0  0  0  0  0  0  0  0  0  0  0  0
   14.4287  -14.8256   19.3777 C   0  0  0  0  0  0  0  0  0  0  0  0
   13.7642  -15.8524   20.2758 C   0  0  0  0  0  0  0  0  0  0  0  0
   12.4893  -15.2142   20.7593 C   0  0  0  0  0  0  0  0  0  0  0  0
   11.6204  -16.0940   21.5881 C   0  0  2  0  0  0  0  0  0  0  0  0
   10.5012  -15.2399   22.0374 N   0  0  0  0  0  0  0  0  0  0  0  0
   12.3329  -16.4774   22.8262 C   0  0  0  0  0  0  0  0  0  0  0  0
   12.0877  -15.9592   23.9525 O   0  0  0  0  0  0  0  0  0  0  0  0
   13.3130  -17.4370   22.7994 O   0  0  0  0  0  0  0  0  0  0  0  0
  2  1  1  0
  2  3  1  0
  3 10  1  0
  4  3  2  0
  6  5  1  0
  6  7  2  0
  8  6  1  0
  9  8  1  1
  9 11  1  0
 10  9  1  0
 11 21  1  0
 11 12  2  0
 13 14  1  0
 14 16  1  0
 15 14  2  0
 16 17  1  0
 17 18  1  0
 18 19  1  0
 20 19  1  6
 21 20  1  0
 22 20  1  0
 22 24  1  0
 23 22  2  0
M  END
$$$$
