GNR.pdb
     RDKit          3D

 24 23  0  0  1  0  0  0  0  0999 V2000
   10.4219  -15.8759   14.9460 N   0  0  0  0  0  0  0  0  0  0  0  0
    9.1887  -15.7571   15.6799 C   0  0  0  0  0  0  0  0  0  0  0  0
    9.4306  -15.3810   17.1043 C   0  0  0  0  0  0  0  0  0  0  0  0
   10.6075  -15.3860   17.5141 O   0  0  0  0  0  0  0  0  0  0  0  0
    5.9340  -12.4104   19.1188 N   0  0  0  0  0  0  0  0  0  0  0  0
    7.2211  -12.7565   19.5965 C   0  0  0  0  0  0  0  0  0  0  0  0
    8.0973  -11.8591   19.6054 O   0  0  0  0  0  0  0  0  0  0  0  0
    7.4403  -14.1447   20.0489 C   0  0  0  0  0  0  0  0  0  0  0  0
    8.6238  -14.7868   19.3548 C   0  0  2  0  0  0  0  0  0  0  0  0
    8.3618  -15.0282   17.9703 N   0  0  0  0  0  0  0  0  0  0  0  0
    8.9142  -16.0500   20.0834 C   0  0  0  0  0  0  0  0  0  0  0  0
    8.4519  -17.1198   19.6244 O   0  0  0  0  0  0  0  0  0  0  0  0
   14.0187  -14.3799   18.7706 N   0  0  0  0  0  0  0  0  0  0  0  0
   14.3180  -15.7397   18.4509 C   0  0  0  0  0  0  0  0  0  0  0  0
   14.4827  -16.1108   17.2209 N   0  0  0  0  0  0  0  0  0  0  0  0
   14.4484  -16.7398   19.4500 N   0  0  0  0  0  0  0  0  0  0  0  0
   13.2963  -17.6007   19.7563 C   0  0  0  0  0  0  0  0  0  0  0  0
   12.3810  -16.9189   20.7562 C   0  0  0  0  0  0  0  0  0  0  0  0
   11.2199  -17.8556   20.9584 C   0  0  0  0  0  0  0  0  0  0  0  0
   10.1532  -17.3489   21.8647 C   0  0  2  0  0  0  0  0  0  0  0  0
    9.6832  -16.0852   21.2596 N   0  0  0  0  0  0  0  0  0  0  0  0
   10.7441  -16.9576   23.1628 C   0  0  0  0  0  0  0  0  0  0  0  0
   11.2189  -17.7920   23.9848 O   0  0  0  0  0  0  0  0  0  0  0  0
   10.8024  -15.6382   23.5344 O   0  0  0  0  0  0  0  0  0  0  0  0
  2  1  1  0
  2  3  1  0
  3 10  1  0
  4  3  2  0
  6  5  1  0
  6  7  2  0
  8  6  1  0
  9  8  1  1
  9 11  1  0
 10  9  1  0
 11 21  1  0
 11 12  2  0
 13 14  1  0
 14 16  1  0
 15 14  2  0
 16 17  1  0
 17 18  1  0
 18 19  1  0
 20 19  1  6
 21 20  1  0
 22 20  1  0
 22 24  1  0
 23 22  2  0
M  END
$$$$
