GNR.pdb
     RDKit          3D

 24 23  0  0  1  0  0  0  0  0999 V2000
    6.9194  -13.0988   18.9100 N   0  0  0  0  0  0  0  0  0  0  0  0
    8.3179  -13.4087   18.7631 C   0  0  0  0  0  0  0  0  0  0  0  0
    8.7150  -14.5728   19.6090 C   0  0  0  0  0  0  0  0  0  0  0  0
    7.8943  -14.9847   20.4517 O   0  0  0  0  0  0  0  0  0  0  0  0
   11.1640  -19.6335   19.5963 N   0  0  0  0  0  0  0  0  0  0  0  0
   11.6407  -18.4634   20.2351 C   0  0  0  0  0  0  0  0  0  0  0  0
   12.2266  -18.6008   21.3356 O   0  0  0  0  0  0  0  0  0  0  0  0
   11.4154  -17.1682   19.5630 C   0  0  0  0  0  0  0  0  0  0  0  0
   10.2624  -16.4029   20.1793 C   0  0  2  0  0  0  0  0  0  0  0  0
    9.9830  -15.1962   19.4655 N   0  0  0  0  0  0  0  0  0  0  0  0
   10.6373  -16.1272   21.5914 C   0  0  0  0  0  0  0  0  0  0  0  0
   11.5622  -15.3117   21.8117 O   0  0  0  0  0  0  0  0  0  0  0  0
    5.3611  -13.0854   27.0663 N   0  0  0  0  0  0  0  0  0  0  0  0
    6.4278  -12.2164   26.6816 C   0  0  0  0  0  0  0  0  0  0  0  0
    6.3285  -10.9347   26.8394 N   0  0  0  0  0  0  0  0  0  0  0  0
    7.6339  -12.7056   26.1148 N   0  0  0  0  0  0  0  0  0  0  0  0
    7.7369  -14.1315   25.7703 C   0  0  0  0  0  0  0  0  0  0  0  0
    8.9220  -14.3669   24.8524 C   0  0  0  0  0  0  0  0  0  0  0  0
    8.9694  -15.8523   24.6124 C   0  0  0  0  0  0  0  0  0  0  0  0
   10.2630  -16.3628   24.0813 C   0  0  2  0  0  0  0  0  0  0  0  0
    9.9953  -16.7445   22.6789 N   0  0  0  0  0  0  0  0  0  0  0  0
   10.6195  -17.6262   24.7626 C   0  0  0  0  0  0  0  0  0  0  0  0
   10.2468  -18.7616   24.3511 O   0  0  0  0  0  0  0  0  0  0  0  0
   11.3903  -17.6144   25.8975 O   0  0  0  0  0  0  0  0  0  0  0  0
  2  1  1  0
  2  3  1  0
  3 10  1  0
  4  3  2  0
  6  5  1  0
  6  7  2  0
  8  6  1  0
  9  8  1  6
  9 11  1  0
 10  9  1  0
 11 21  1  0
 11 12  2  0
 13 14  1  0
 14 16  1  0
 15 14  2  0
 16 17  1  0
 17 18  1  0
 18 19  1  0
 20 19  1  1
 21 20  1  0
 22 20  1  0
 22 24  1  0
 23 22  2  0
M  END
$$$$
