GNR.pdb
     RDKit          3D

 24 23  0  0  1  0  0  0  0  0999 V2000
   11.0460  -20.0156   16.8971 N   0  0  0  0  0  0  0  0  0  0  0  0
   12.2149  -19.1938   16.7187 C   0  0  0  0  0  0  0  0  0  0  0  0
   13.1966  -19.3861   17.8269 C   0  0  0  0  0  0  0  0  0  0  0  0
   12.7903  -19.9232   18.8755 O   0  0  0  0  0  0  0  0  0  0  0  0
   17.8585  -20.9518   17.1274 N   0  0  0  0  0  0  0  0  0  0  0  0
   17.4125  -20.4529   18.3751 C   0  0  0  0  0  0  0  0  0  0  0  0
   17.4995  -21.2134   19.3687 O   0  0  0  0  0  0  0  0  0  0  0  0
   16.8783  -19.0772   18.4184 C   0  0  0  0  0  0  0  0  0  0  0  0
   15.4208  -19.0479   18.8305 C   0  0  2  0  0  0  0  0  0  0  0  0
   14.5496  -18.9740   17.6993 N   0  0  0  0  0  0  0  0  0  0  0  0
   15.2524  -17.8734   19.7265 C   0  0  0  0  0  0  0  0  0  0  0  0
   15.2055  -16.7338   19.2090 O   0  0  0  0  0  0  0  0  0  0  0  0
    8.8282  -15.1865   24.2517 N   0  0  0  0  0  0  0  0  0  0  0  0
    9.7938  -15.7047   25.1682 C   0  0  0  0  0  0  0  0  0  0  0  0
    9.4228  -16.2697   26.2731 N   0  0  0  0  0  0  0  0  0  0  0  0
   11.1893  -15.6284   24.9190 N   0  0  0  0  0  0  0  0  0  0  0  0
   11.8229  -16.6511   24.0734 C   0  0  0  0  0  0  0  0  0  0  0  0
   13.3230  -16.4302   24.0151 C   0  0  0  0  0  0  0  0  0  0  0  0
   13.8480  -17.4249   23.0144 C   0  0  0  0  0  0  0  0  0  0  0  0
   14.7748  -16.8619   21.9945 C   0  0  2  0  0  0  0  0  0  0  0  0
   15.1448  -17.9963   21.1227 N   0  0  0  0  0  0  0  0  0  0  0  0
   16.0379  -16.4462   22.6419 C   0  0  0  0  0  0  0  0  0  0  0  0
   16.2065  -15.3044   23.1570 O   0  0  0  0  0  0  0  0  0  0  0  0
   17.1036  -17.3074   22.7115 O   0  0  0  0  0  0  0  0  0  0  0  0
  2  1  1  0
  2  3  1  0
  3 10  1  0
  4  3  2  0
  6  5  1  0
  6  7  2  0
  8  6  1  0
  9  8  1  6
  9 11  1  0
 10  9  1  0
 11 21  1  0
 11 12  2  0
 13 14  1  0
 14 16  1  0
 15 14  2  0
 16 17  1  0
 17 18  1  0
 18 19  1  0
 20 19  1  1
 21 20  1  0
 22 20  1  0
 22 24  1  0
 23 22  2  0
M  END
$$$$
