GNR.pdb
     RDKit          3D

 24 23  0  0  1  0  0  0  0  0999 V2000
    7.5756  -19.1117   18.9780 N   0  0  0  0  0  0  0  0  0  0  0  0
    6.8171  -17.9406   19.3339 C   0  0  0  0  0  0  0  0  0  0  0  0
    7.6106  -17.0111   20.1913 C   0  0  0  0  0  0  0  0  0  0  0  0
    8.7089  -17.4133   20.6214 O   0  0  0  0  0  0  0  0  0  0  0  0
    6.9237  -12.2356   19.1293 N   0  0  0  0  0  0  0  0  0  0  0  0
    7.9115  -12.9495   19.8499 C   0  0  0  0  0  0  0  0  0  0  0  0
    9.0151  -13.1426   19.2858 O   0  0  0  0  0  0  0  0  0  0  0  0
    7.5740  -13.4147   21.2099 C   0  0  0  0  0  0  0  0  0  0  0  0
    7.8909  -14.8836   21.4013 C   0  0  2  0  0  0  0  0  0  0  0  0
    7.1377  -15.7107   20.5111 N   0  0  0  0  0  0  0  0  0  0  0  0
    7.5971  -15.2035   22.8233 C   0  0  0  0  0  0  0  0  0  0  0  0
    6.5606  -14.7240   23.3377 O   0  0  0  0  0  0  0  0  0  0  0  0
    5.2050  -20.4893   21.1451 N   0  0  0  0  0  0  0  0  0  0  0  0
    4.3882  -19.6157   21.9265 C   0  0  0  0  0  0  0  0  0  0  0  0
    3.2342  -19.2206   21.4908 N   0  0  0  0  0  0  0  0  0  0  0  0
    4.7932  -19.1423   23.2022 N   0  0  0  0  0  0  0  0  0  0  0  0
    6.2058  -18.7986   23.4233 C   0  0  0  0  0  0  0  0  0  0  0  0
    6.4095  -18.2963   24.8406 C   0  0  0  0  0  0  0  0  0  0  0  0
    7.8558  -17.8879   24.9297 C   0  0  0  0  0  0  0  0  0  0  0  0
    8.0926  -16.4192   24.9847 C   0  0  2  0  0  0  0  0  0  0  0  0
    8.4349  -16.0187   23.6041 N   0  0  0  0  0  0  0  0  0  0  0  0
    9.3078  -16.1381   25.7795 C   0  0  0  0  0  0  0  0  0  0  0  0
    9.3479  -16.2390   27.0387 O   0  0  0  0  0  0  0  0  0  0  0  0
   10.4701  -15.7476   25.1640 O   0  0  0  0  0  0  0  0  0  0  0  0
  2  1  1  0
  2  3  1  0
  3 10  1  0
  4  3  2  0
  6  5  1  0
  6  7  2  0
  8  6  1  0
  9  8  1  6
  9 11  1  0
 10  9  1  0
 11 21  1  0
 11 12  2  0
 13 14  1  0
 14 16  1  0
 15 14  2  0
 16 17  1  0
 17 18  1  0
 18 19  1  0
 20 19  1  6
 21 20  1  0
 22 20  1  0
 22 24  1  0
 23 22  2  0
M  END
$$$$
