EYD.pdb
     RDKit          3D

 30 30  0  0  1  0  0  0  0  0999 V2000
    8.5592  -15.7606   18.0039 N   0  0  0  0  0  0  0  0  0  0  0  0
    8.0822  -16.6086   19.1079 C   0  0  1  0  0  0  0  0  0  0  0  0
    8.7440  -17.9539   18.9918 C   0  0  0  0  0  0  0  0  0  0  0  0
    8.8753  -18.4179   17.5793 C   0  0  0  0  0  0  0  0  0  0  0  0
    9.4035  -19.8315   17.6073 C   0  0  0  0  0  0  0  0  0  0  0  0
    8.8953  -20.7091   18.3414 O   0  0  0  0  0  0  0  0  0  0  0  0
    8.4477  -15.9098   20.3576 C   0  0  0  0  0  0  0  0  0  0  0  0
    9.6335  -15.5051   20.6077 O   0  0  0  0  0  0  0  0  0  0  0  0
   10.4882  -20.0893   16.7654 O   0  0  0  0  0  0  0  0  0  0  0  0
    7.6557  -11.9155   28.2442 O   0  0  0  0  0  0  0  0  0  0  0  0
    7.3963  -12.5449   27.0241 C   0  0  0  0  0  0  0  0  0  0  0  0
    6.6960  -13.7112   26.9623 C   0  0  0  0  0  0  0  0  0  0  0  0
    6.4379  -14.3386   25.7410 C   0  0  0  0  0  0  0  0  0  0  0  0
    6.8862  -13.7930   24.5615 C   0  0  0  0  0  0  0  0  0  0  0  0
    6.6263  -14.4376   23.2538 C   0  0  0  0  0  0  0  0  0  0  0  0
    7.8932  -14.9666   22.6223 C   0  0  2  0  0  0  0  0  0  0  0  0
    7.5093  -15.6266   21.3925 N   0  0  0  0  0  0  0  0  0  0  0  0
    8.5960  -15.9338   23.4652 C   0  0  0  0  0  0  0  0  0  0  0  0
    8.1320  -17.0846   23.6206 O   0  0  0  0  0  0  0  0  0  0  0  0
    7.5934  -12.6149   24.6268 C   0  0  0  0  0  0  0  0  0  0  0  0
    7.8525  -11.9858   25.8481 C   0  0  0  0  0  0  0  0  0  0  0  0
    9.8161  -15.6548   24.1495 N   0  0  0  0  0  0  0  0  0  0  0  0
   10.5561  -16.5853   24.9246 C   0  0  1  0  0  0  0  0  0  0  0  0
   12.0284  -16.3055   25.0056 C   0  0  0  0  0  0  0  0  0  0  0  0
   12.8555  -17.5132   24.8563 C   0  0  0  0  0  0  0  0  0  0  0  0
   12.4003  -18.6812   24.7448 O   0  0  0  0  0  0  0  0  0  0  0  0
    9.9838  -16.7307   26.2806 C   0  0  0  0  0  0  0  0  0  0  0  0
   10.1718  -17.8943   27.0043 O   0  0  0  0  0  0  0  0  0  0  0  0
   14.2329  -17.3579   24.8366 O   0  0  0  0  0  0  0  0  0  0  0  0
    9.3172  -15.8102   26.8081 O   0  0  0  0  0  0  0  0  0  0  0  0
  2  1  1  6
  2  3  1  0
  3  4  1  0
  4  5  1  0
  5  9  1  0
  6  5  2  0
  7  2  1  0
  8  7  2  0
 10 11  1  0
 11 12  2  0
 12 13  1  0
 14 15  1  0
 14 13  2  0
 16 15  1  1
 16 18  1  0
 16 17  1  0
 17  7  1  0
 18 19  2  0
 20 14  1  0
 21 20  2  0
 21 11  1  0
 22 23  1  0
 22 18  1  0
 24 25  1  0
 23 24  1  1
 25 29  1  0
 26 25  2  0
 27 28  1  0
 27 23  1  0
 30 27  2  0
M  END
$$$$
