EYD.pdb
     RDKit          3D

 30 30  0  0  1  0  0  0  0  0999 V2000
    7.7173  -14.2339   19.6329 N   0  0  0  0  0  0  0  0  0  0  0  0
    7.5803  -15.4213   20.4913 C   0  0  1  0  0  0  0  0  0  0  0  0
    8.0174  -16.6267   19.7056 C   0  0  0  0  0  0  0  0  0  0  0  0
    7.9158  -16.4277   18.2299 C   0  0  0  0  0  0  0  0  0  0  0  0
    8.2283  -17.7466   17.5659 C   0  0  0  0  0  0  0  0  0  0  0  0
    9.3781  -18.0184   17.1518 O   0  0  0  0  0  0  0  0  0  0  0  0
    8.4351  -15.1819   21.6728 C   0  0  0  0  0  0  0  0  0  0  0  0
    9.7010  -15.0266   21.5962 O   0  0  0  0  0  0  0  0  0  0  0  0
    7.1555  -18.6337   17.4469 O   0  0  0  0  0  0  0  0  0  0  0  0
   10.8260  -14.4866   30.2074 O   0  0  0  0  0  0  0  0  0  0  0  0
   10.1129  -14.5035   29.0060 C   0  0  0  0  0  0  0  0  0  0  0  0
    9.9994  -13.3883   28.2328 C   0  0  0  0  0  0  0  0  0  0  0  0
    9.2858  -13.4077   27.0319 C   0  0  0  0  0  0  0  0  0  0  0  0
    8.6752  -14.5595   26.5952 C   0  0  0  0  0  0  0  0  0  0  0  0
    7.9130  -14.6070   25.3264 C   0  0  0  0  0  0  0  0  0  0  0  0
    8.7861  -14.9973   24.1564 C   0  0  2  0  0  0  0  0  0  0  0  0
    7.9217  -15.1033   23.0002 N   0  0  0  0  0  0  0  0  0  0  0  0
    9.4625  -16.2805   24.3460 C   0  0  0  0  0  0  0  0  0  0  0  0
    8.8219  -17.3493   24.2403 O   0  0  0  0  0  0  0  0  0  0  0  0
    8.7915  -15.6845   27.3783 C   0  0  0  0  0  0  0  0  0  0  0  0
    9.5053  -15.6667   28.5802 C   0  0  0  0  0  0  0  0  0  0  0  0
   10.8492  -16.4115   24.6538 N   0  0  0  0  0  0  0  0  0  0  0  0
   11.5439  -17.6385   24.8150 C   0  0  1  0  0  0  0  0  0  0  0  0
   12.7289  -17.8134   23.9108 C   0  0  0  0  0  0  0  0  0  0  0  0
   13.6702  -16.6840   23.9663 C   0  0  0  0  0  0  0  0  0  0  0  0
   13.4500  -15.5460   23.4759 O   0  0  0  0  0  0  0  0  0  0  0  0
   11.9354  -17.8533   26.2250 C   0  0  0  0  0  0  0  0  0  0  0  0
   12.5092  -19.0469   26.6236 O   0  0  0  0  0  0  0  0  0  0  0  0
   14.8857  -16.8830   24.6025 O   0  0  0  0  0  0  0  0  0  0  0  0
   11.7595  -16.9659   27.0919 O   0  0  0  0  0  0  0  0  0  0  0  0
  2  1  1  6
  2  3  1  0
  3  4  1  0
  4  5  1  0
  5  9  1  0
  6  5  2  0
  7  2  1  0
  8  7  2  0
 10 11  1  0
 11 12  2  0
 12 13  1  0
 14 15  1  0
 14 13  2  0
 16 15  1  1
 16 18  1  0
 16 17  1  0
 17  7  1  0
 18 19  2  0
 20 14  1  0
 21 20  2  0
 21 11  1  0
 22 23  1  0
 22 18  1  0
 24 25  1  0
 23 24  1  6
 25 29  1  0
 26 25  2  0
 27 28  1  0
 27 23  1  0
 30 27  2  0
M  END
$$$$
