EYD.pdb
     RDKit          3D

 30 30  0  0  1  0  0  0  0  0999 V2000
    7.8903  -14.8890   20.0834 N   0  0  0  0  0  0  0  0  0  0  0  0
    7.2648  -15.7760   21.0771 C   0  0  1  0  0  0  0  0  0  0  0  0
    7.3520  -17.1896   20.5715 C   0  0  0  0  0  0  0  0  0  0  0  0
    8.1204  -17.3055   19.2973 C   0  0  0  0  0  0  0  0  0  0  0  0
    8.0909  -18.7537   18.8731 C   0  0  0  0  0  0  0  0  0  0  0  0
    8.9804  -19.2427   18.1404 O   0  0  0  0  0  0  0  0  0  0  0  0
    8.0134  -15.5837   22.3367 C   0  0  0  0  0  0  0  0  0  0  0  0
    9.1379  -14.9798   22.3928 O   0  0  0  0  0  0  0  0  0  0  0  0
    7.0123  -19.5024   19.3506 O   0  0  0  0  0  0  0  0  0  0  0  0
    6.5890   -9.6026   26.1646 O   0  0  0  0  0  0  0  0  0  0  0  0
    6.7195  -10.9900   26.0637 C   0  0  0  0  0  0  0  0  0  0  0  0
    7.6578  -11.5573   25.2560 C   0  0  0  0  0  0  0  0  0  0  0  0
    7.7863  -12.9449   25.1568 C   0  0  0  0  0  0  0  0  0  0  0  0
    6.9647  -13.7805   25.8757 C   0  0  0  0  0  0  0  0  0  0  0  0
    7.0800  -15.2544   25.7887 C   0  0  0  0  0  0  0  0  0  0  0  0
    8.1800  -15.6808   24.8443 C   0  0  2  0  0  0  0  0  0  0  0  0
    7.5461  -16.0552   23.5980 N   0  0  0  0  0  0  0  0  0  0  0  0
    8.9471  -16.8261   25.3342 C   0  0  0  0  0  0  0  0  0  0  0  0
    9.3117  -16.8722   26.5295 O   0  0  0  0  0  0  0  0  0  0  0  0
    6.0178  -13.2047   26.6908 C   0  0  0  0  0  0  0  0  0  0  0  0
    5.8879  -11.8164   26.7911 C   0  0  0  0  0  0  0  0  0  0  0  0
    9.3256  -17.9363   24.5226 N   0  0  0  0  0  0  0  0  0  0  0  0
   10.5881  -18.5840   24.5513 C   0  0  1  0  0  0  0  0  0  0  0  0
   11.6187  -17.9930   23.6342 C   0  0  0  0  0  0  0  0  0  0  0  0
   12.8917  -18.7307   23.6431 C   0  0  0  0  0  0  0  0  0  0  0  0
   13.1143  -19.7626   24.3284 O   0  0  0  0  0  0  0  0  0  0  0  0
   11.1155  -18.6725   25.9302 C   0  0  0  0  0  0  0  0  0  0  0  0
   11.4818  -17.5309   26.6198 O   0  0  0  0  0  0  0  0  0  0  0  0
   13.9203  -18.2595   22.8421 O   0  0  0  0  0  0  0  0  0  0  0  0
   11.2444  -19.7766   26.5084 O   0  0  0  0  0  0  0  0  0  0  0  0
  2  1  1  6
  2  3  1  0
  3  4  1  0
  4  5  1  0
  5  9  1  0
  6  5  2  0
  7  2  1  0
  8  7  2  0
 10 11  1  0
 11 12  2  0
 12 13  1  0
 14 15  1  0
 14 13  2  0
 16 15  1  1
 16 18  1  0
 16 17  1  0
 17  7  1  0
 18 19  2  0
 20 14  1  0
 21 20  2  0
 21 11  1  0
 22 23  1  0
 22 18  1  0
 24 25  1  0
 23 24  1  6
 25 29  1  0
 26 25  2  0
 27 28  1  0
 27 23  1  0
 30 27  2  0
M  END
$$$$
