EYD.pdb
     RDKit          3D

 30 30  0  0  1  0  0  0  0  0999 V2000
    8.6360  -18.1416   19.6360 N   0  0  0  0  0  0  0  0  0  0  0  0
   10.0375  -17.8222   19.9512 C   0  0  1  0  0  0  0  0  0  0  0  0
   10.6990  -17.3098   18.7017 C   0  0  0  0  0  0  0  0  0  0  0  0
   10.1825  -17.9598   17.4613 C   0  0  0  0  0  0  0  0  0  0  0  0
   10.8892  -17.3315   16.2850 C   0  0  0  0  0  0  0  0  0  0  0  0
   10.2707  -16.9921   15.2508 O   0  0  0  0  0  0  0  0  0  0  0  0
   10.0020  -16.8063   21.0238 C   0  0  0  0  0  0  0  0  0  0  0  0
   11.0513  -16.2351   21.4766 O   0  0  0  0  0  0  0  0  0  0  0  0
   12.2678  -17.1570   16.4296 O   0  0  0  0  0  0  0  0  0  0  0  0
    6.7511  -11.6775   27.5205 O   0  0  0  0  0  0  0  0  0  0  0  0
    6.9338  -12.4320   26.3588 C   0  0  0  0  0  0  0  0  0  0  0  0
    7.6861  -11.9682   25.3228 C   0  0  0  0  0  0  0  0  0  0  0  0
    7.8673  -12.7246   24.1622 C   0  0  0  0  0  0  0  0  0  0  0  0
    7.2879  -13.9647   24.0334 C   0  0  0  0  0  0  0  0  0  0  0  0
    7.4641  -14.7866   22.8141 C   0  0  0  0  0  0  0  0  0  0  0  0
    8.7908  -15.5101   22.8067 C   0  0  2  0  0  0  0  0  0  0  0  0
    8.7943  -16.3755   21.6464 N   0  0  0  0  0  0  0  0  0  0  0  0
    9.0039  -16.3334   23.9970 C   0  0  0  0  0  0  0  0  0  0  0  0
    8.3785  -17.4072   24.1376 O   0  0  0  0  0  0  0  0  0  0  0  0
    6.5285  -14.4306   25.0815 C   0  0  0  0  0  0  0  0  0  0  0  0
    6.3462  -13.6750   26.2434 C   0  0  0  0  0  0  0  0  0  0  0  0
    9.9044  -15.9928   25.0495 N   0  0  0  0  0  0  0  0  0  0  0  0
   10.4618  -16.9052   25.9829 C   0  0  1  0  0  0  0  0  0  0  0  0
   11.9560  -17.0320   25.9222 C   0  0  0  0  0  0  0  0  0  0  0  0
   12.4890  -18.0398   26.8523 C   0  0  0  0  0  0  0  0  0  0  0  0
   12.4166  -17.9633   28.1064 O   0  0  0  0  0  0  0  0  0  0  0  0
   10.0265  -16.5961   27.3622 C   0  0  0  0  0  0  0  0  0  0  0  0
   10.1207  -17.5479   28.3614 O   0  0  0  0  0  0  0  0  0  0  0  0
   13.1153  -19.1530   26.3136 O   0  0  0  0  0  0  0  0  0  0  0  0
    9.5633  -15.4713   27.6622 O   0  0  0  0  0  0  0  0  0  0  0  0
  2  1  1  6
  2  3  1  0
  3  4  1  0
  4  5  1  0
  5  9  1  0
  6  5  2  0
  7  2  1  0
  8  7  2  0
 10 11  1  0
 11 12  2  0
 12 13  1  0
 14 15  1  0
 14 13  2  0
 16 15  1  1
 16 18  1  0
 16 17  1  0
 17  7  1  0
 18 19  2  0
 20 14  1  0
 21 20  2  0
 21 11  1  0
 22 23  1  0
 22 18  1  0
 24 25  1  0
 23 24  1  1
 25 29  1  0
 26 25  2  0
 27 28  1  0
 27 23  1  0
 30 27  2  0
M  END
$$$$
