EYD.pdb
     RDKit          3D

 30 30  0  0  1  0  0  0  0  0999 V2000
    7.6577  -14.5481   19.1625 N   0  0  0  0  0  0  0  0  0  0  0  0
    7.2196  -15.4078   20.2736 C   0  0  1  0  0  0  0  0  0  0  0  0
    7.4635  -16.8408   19.8883 C   0  0  0  0  0  0  0  0  0  0  0  0
    6.9525  -17.1720   18.5256 C   0  0  0  0  0  0  0  0  0  0  0  0
    7.2303  -18.6340   18.2736 C   0  0  0  0  0  0  0  0  0  0  0  0
    7.5207  -19.0613   17.1332 O   0  0  0  0  0  0  0  0  0  0  0  0
    8.0127  -15.0013   21.4524 C   0  0  0  0  0  0  0  0  0  0  0  0
    9.2753  -14.8105   21.4097 O   0  0  0  0  0  0  0  0  0  0  0  0
    7.1417  -19.4684   19.3906 O   0  0  0  0  0  0  0  0  0  0  0  0
   10.0133  -13.8483   30.0336 O   0  0  0  0  0  0  0  0  0  0  0  0
    9.3553  -13.9097   28.8026 C   0  0  0  0  0  0  0  0  0  0  0  0
    9.0867  -12.7841   28.0848 C   0  0  0  0  0  0  0  0  0  0  0  0
    8.4286  -12.8482   26.8541 C   0  0  0  0  0  0  0  0  0  0  0  0
    8.0318  -14.0560   26.3309 C   0  0  0  0  0  0  0  0  0  0  0  0
    7.3327  -14.1517   25.0289 C   0  0  0  0  0  0  0  0  0  0  0  0
    8.2473  -14.6427   23.9307 C   0  0  2  0  0  0  0  0  0  0  0  0
    7.4382  -14.7868   22.7391 N   0  0  0  0  0  0  0  0  0  0  0  0
    8.8629  -15.9357   24.2296 C   0  0  0  0  0  0  0  0  0  0  0  0
    8.2569  -16.9962   23.9615 O   0  0  0  0  0  0  0  0  0  0  0  0
    8.3043  -15.1915   27.0581 C   0  0  0  0  0  0  0  0  0  0  0  0
    8.9628  -15.1290   28.2897 C   0  0  0  0  0  0  0  0  0  0  0  0
   10.1499  -16.0855   24.8260 N   0  0  0  0  0  0  0  0  0  0  0  0
   10.9612  -17.2477   24.7511 C   0  0  1  0  0  0  0  0  0  0  0  0
   11.9718  -17.2383   23.6416 C   0  0  0  0  0  0  0  0  0  0  0  0
   12.8156  -18.4433   23.6180 C   0  0  0  0  0  0  0  0  0  0  0  0
   12.7329  -19.3895   24.4438 O   0  0  0  0  0  0  0  0  0  0  0  0
   11.6197  -17.5278   26.0455 C   0  0  0  0  0  0  0  0  0  0  0  0
   12.3418  -18.6926   26.2319 O   0  0  0  0  0  0  0  0  0  0  0  0
   13.7698  -18.5478   22.6178 O   0  0  0  0  0  0  0  0  0  0  0  0
   11.5423  -16.7233   27.0029 O   0  0  0  0  0  0  0  0  0  0  0  0
  2  1  1  6
  2  3  1  0
  3  4  1  0
  4  5  1  0
  5  9  1  0
  6  5  2  0
  7  2  1  0
  8  7  2  0
 10 11  1  0
 11 12  2  0
 12 13  1  0
 14 15  1  0
 14 13  2  0
 16 15  1  1
 16 18  1  0
 16 17  1  0
 17  7  1  0
 18 19  2  0
 20 14  1  0
 21 20  2  0
 21 11  1  0
 22 23  1  0
 22 18  1  0
 24 25  1  0
 23 24  1  6
 25 29  1  0
 26 25  2  0
 27 28  1  0
 27 23  1  0
 30 27  2  0
M  END
$$$$
