EYD.pdb
     RDKit          3D

 30 30  0  0  1  0  0  0  0  0999 V2000
    7.6149  -12.5262   19.2676 N   0  0  0  0  0  0  0  0  0  0  0  0
    7.4141  -13.8764   19.8174 C   0  0  1  0  0  0  0  0  0  0  0  0
    7.9375  -14.8755   18.8229 C   0  0  0  0  0  0  0  0  0  0  0  0
    7.2579  -16.2010   18.9169 C   0  0  0  0  0  0  0  0  0  0  0  0
    7.8559  -17.0997   17.8620 C   0  0  0  0  0  0  0  0  0  0  0  0
    8.3387  -18.2188   18.1480 O   0  0  0  0  0  0  0  0  0  0  0  0
    8.1524  -13.9190   21.0968 C   0  0  0  0  0  0  0  0  0  0  0  0
    9.3735  -13.5599   21.2081 O   0  0  0  0  0  0  0  0  0  0  0  0
    7.8331  -16.6003   16.5574 O   0  0  0  0  0  0  0  0  0  0  0  0
    9.8637  -14.2027   29.7671 O   0  0  0  0  0  0  0  0  0  0  0  0
    9.2517  -14.1490   28.5122 C   0  0  0  0  0  0  0  0  0  0  0  0
    9.1966  -12.9902   27.7989 C   0  0  0  0  0  0  0  0  0  0  0  0
    8.5840  -12.9391   26.5444 C   0  0  0  0  0  0  0  0  0  0  0  0
    8.0170  -14.0633   25.9923 C   0  0  0  0  0  0  0  0  0  0  0  0
    7.3617  -14.0362   24.6644 C   0  0  0  0  0  0  0  0  0  0  0  0
    8.3139  -14.4212   23.5560 C   0  0  2  0  0  0  0  0  0  0  0  0
    7.5666  -14.3644   22.3176 N   0  0  0  0  0  0  0  0  0  0  0  0
    8.8560  -15.7716   23.7062 C   0  0  0  0  0  0  0  0  0  0  0  0
    8.3054  -16.7365   23.1320 O   0  0  0  0  0  0  0  0  0  0  0  0
    8.0742  -15.2324   26.7150 C   0  0  0  0  0  0  0  0  0  0  0  0
    8.6867  -15.2852   27.9705 C   0  0  0  0  0  0  0  0  0  0  0  0
   10.0082  -16.0844   24.4869 N   0  0  0  0  0  0  0  0  0  0  0  0
   10.9394  -17.1169   24.2022 C   0  0  1  0  0  0  0  0  0  0  0  0
   11.7672  -16.8946   22.9703 C   0  0  0  0  0  0  0  0  0  0  0  0
   12.6411  -18.0335   22.6477 C   0  0  0  0  0  0  0  0  0  0  0  0
   12.9695  -18.3737   21.4813 O   0  0  0  0  0  0  0  0  0  0  0  0
   11.8103  -17.3910   25.3657 C   0  0  0  0  0  0  0  0  0  0  0  0
   12.5414  -16.3750   25.9543 O   0  0  0  0  0  0  0  0  0  0  0  0
   13.1398  -18.7869   23.6990 O   0  0  0  0  0  0  0  0  0  0  0  0
   11.9096  -18.5433   25.8476 O   0  0  0  0  0  0  0  0  0  0  0  0
  2  1  1  6
  2  3  1  0
  3  4  1  0
  4  5  1  0
  5  9  1  0
  6  5  2  0
  7  2  1  0
  8  7  2  0
 10 11  1  0
 11 12  2  0
 12 13  1  0
 14 15  1  0
 14 13  2  0
 16 15  1  1
 16 18  1  0
 16 17  1  0
 17  7  1  0
 18 19  2  0
 20 14  1  0
 21 20  2  0
 21 11  1  0
 22 23  1  0
 22 18  1  0
 24 25  1  0
 23 24  1  6
 25 29  1  0
 26 25  2  0
 27 28  1  0
 27 23  1  0
 30 27  2  0
M  END
$$$$
