IHR.pdb
     RDKit          3D

 30 30  0  0  1  0  0  0  0  0999 V2000
    7.8555  -12.1076   19.3034 C   0  0  0  0  0  0  0  0  0  0  0  0
    7.8978  -13.3541   20.1497 C   0  0  0  0  0  0  0  0  0  0  0  0
    8.8697  -14.3846   19.6486 C   0  0  2  0  0  0  0  0  0  0  0  0
    8.4078  -14.7764   18.2590 C   0  0  0  0  0  0  0  0  0  0  0  0
    8.9395  -15.5422   20.5793 C   0  0  2  0  0  0  0  0  0  0  0  0
    7.6963  -16.3096   20.5777 N   0  0  0  0  0  0  0  0  0  0  0  0
    9.2513  -15.1246   21.9694 C   0  0  0  0  0  0  0  0  0  0  0  0
   10.3262  -14.5572   22.3008 O   0  0  0  0  0  0  0  0  0  0  0  0
    8.3136  -15.3614   23.0010 N   0  0  0  0  0  0  0  0  0  0  0  0
    8.6187  -14.8407   24.4016 C   0  0  1  0  0  0  0  0  0  0  0  0
    7.2718  -14.3637   24.8450 C   0  0  0  0  0  0  0  0  0  0  0  0
    7.1701  -13.4247   25.9439 C   0  0  0  0  0  0  0  0  0  0  0  0
    8.0976  -12.7382   26.6737 C   0  0  0  0  0  0  0  0  0  0  0  0
    7.4795  -11.8984   27.5577 N   0  0  0  0  0  0  0  0  0  0  0  0
    6.1725  -12.0796   27.3579 C   0  0  0  0  0  0  0  0  0  0  0  0
    5.9718  -12.9755   26.4100 N   0  0  0  0  0  0  0  0  0  0  0  0
    9.1103  -16.0490   25.1259 C   0  0  0  0  0  0  0  0  0  0  0  0
    8.9346  -16.1012   26.4031 O   0  0  0  0  0  0  0  0  0  0  0  0
   11.3339  -20.1739   19.7979 N   0  0  0  0  0  0  0  0  0  0  0  0
    9.9551  -20.4611   19.9683 C   0  0  0  0  0  0  0  0  0  0  0  0
    9.1643  -20.4041   18.9278 N   0  0  0  0  0  0  0  0  0  0  0  0
    9.4320  -20.8075   21.2492 N   0  0  0  0  0  0  0  0  0  0  0  0
   10.2576  -20.7325   22.4254 C   0  0  0  0  0  0  0  0  0  0  0  0
    9.7608  -19.6188   23.3232 C   0  0  0  0  0  0  0  0  0  0  0  0
   10.5517  -19.4783   24.5725 C   0  0  0  0  0  0  0  0  0  0  0  0
   10.1373  -18.3197   25.4117 C   0  0  2  0  0  0  0  0  0  0  0  0
    9.7510  -17.1677   24.6026 N   0  0  0  0  0  0  0  0  0  0  0  0
   11.2966  -17.8761   26.2316 C   0  0  0  0  0  0  0  0  0  0  0  0
   11.7814  -16.7474   26.0928 O   0  0  0  0  0  0  0  0  0  0  0  0
   11.8854  -18.7198   27.1942 O   0  0  0  0  0  0  0  0  0  0  0  0
  1  2  1  0
  3  5  1  0
  3  2  1  0
  3  4  1  6
  5  7  1  0
  5  6  1  1
  7  8  2  0
  9 10  1  0
  9  7  1  0
 10 17  1  0
 11 12  1  0
 10 11  1  1
 12 13  2  0
 13 14  1  0
 15 14  1  0
 16 12  1  0
 16 15  2  0
 17 27  1  0
 17 18  2  0
 19 20  1  0
 20 22  1  0
 21 20  2  0
 23 22  1  0
 23 24  1  0
 24 25  1  0
 26 25  1  6
 26 28  1  0
 27 26  1  0
 28 29  2  0
 28 30  1  0
M  END
$$$$
