IHR.pdb
     RDKit          3D

 30 30  0  0  1  0  0  0  0  0999 V2000
    7.2606  -11.9490   19.3321 C   0  0  0  0  0  0  0  0  0  0  0  0
    7.8623  -13.0354   18.4779 C   0  0  0  0  0  0  0  0  0  0  0  0
    8.7491  -13.9761   19.2437 C   0  0  2  0  0  0  0  0  0  0  0  0
    9.8177  -13.1256   19.9013 C   0  0  0  0  0  0  0  0  0  0  0  0
    9.3147  -15.0180   18.3462 C   0  0  2  0  0  0  0  0  0  0  0  0
    8.2727  -15.6745   17.5602 N   0  0  0  0  0  0  0  0  0  0  0  0
   10.0794  -16.0467   19.0951 C   0  0  0  0  0  0  0  0  0  0  0  0
    9.5469  -17.0511   19.6382 O   0  0  0  0  0  0  0  0  0  0  0  0
   11.4821  -15.9233   19.2250 N   0  0  0  0  0  0  0  0  0  0  0  0
   12.2549  -17.0420   19.9156 C   0  0  1  0  0  0  0  0  0  0  0  0
   13.5017  -17.0997   19.0908 C   0  0  0  0  0  0  0  0  0  0  0  0
   13.5114  -17.8623   17.8588 C   0  0  0  0  0  0  0  0  0  0  0  0
   12.5727  -18.6260   17.2265 C   0  0  0  0  0  0  0  0  0  0  0  0
   13.0528  -19.0718   16.0267 N   0  0  0  0  0  0  0  0  0  0  0  0
   14.2871  -18.5725   15.9358 C   0  0  0  0  0  0  0  0  0  0  0  0
   14.5740  -17.8568   17.0067 N   0  0  0  0  0  0  0  0  0  0  0  0
   12.4590  -16.5247   21.3002 C   0  0  0  0  0  0  0  0  0  0  0  0
   12.7074  -15.2669   21.4450 O   0  0  0  0  0  0  0  0  0  0  0  0
    6.5057  -15.7170   26.2493 N   0  0  0  0  0  0  0  0  0  0  0  0
    6.6156  -16.8436   25.3942 C   0  0  0  0  0  0  0  0  0  0  0  0
    6.0642  -17.9717   25.7611 N   0  0  0  0  0  0  0  0  0  0  0  0
    7.3134  -16.7559   24.1533 N   0  0  0  0  0  0  0  0  0  0  0  0
    8.4282  -15.8593   23.9985 C   0  0  0  0  0  0  0  0  0  0  0  0
    9.7227  -16.6401   24.0862 C   0  0  0  0  0  0  0  0  0  0  0  0
   10.9253  -15.8097   23.8213 C   0  0  0  0  0  0  0  0  0  0  0  0
   12.1932  -16.5909   23.7937 C   0  0  2  0  0  0  0  0  0  0  0  0
   12.4156  -17.2286   22.4995 N   0  0  0  0  0  0  0  0  0  0  0  0
   12.1035  -17.6953   24.7863 C   0  0  0  0  0  0  0  0  0  0  0  0
   11.9085  -18.8619   24.4266 O   0  0  0  0  0  0  0  0  0  0  0  0
   12.2367  -17.4576   26.1686 O   0  0  0  0  0  0  0  0  0  0  0  0
  1  2  1  0
  3  5  1  0
  3  2  1  0
  3  4  1  6
  5  7  1  0
  5  6  1  1
  7  8  2  0
  9 10  1  0
  9  7  1  0
 10 17  1  0
 11 12  1  0
 10 11  1  6
 12 13  2  0
 13 14  1  0
 15 14  1  0
 16 12  1  0
 16 15  2  0
 17 27  1  0
 17 18  2  0
 19 20  1  0
 20 22  1  0
 21 20  2  0
 23 22  1  0
 23 24  1  0
 24 25  1  0
 26 25  1  6
 26 28  1  0
 27 26  1  0
 28 29  2  0
 28 30  1  0
M  END
$$$$
