IHR.pdb
     RDKit          3D

 30 30  0  0  1  0  0  0  0  0999 V2000
   12.3787  -21.1745   14.3447 C   0  0  0  0  0  0  0  0  0  0  0  0
   11.3244  -20.0996   14.2738 C   0  0  0  0  0  0  0  0  0  0  0  0
   11.5073  -19.0141   15.2964 C   0  0  2  0  0  0  0  0  0  0  0  0
   11.4818  -19.6886   16.6537 C   0  0  0  0  0  0  0  0  0  0  0  0
   10.4579  -17.9704   15.1530 C   0  0  2  0  0  0  0  0  0  0  0  0
   10.5027  -17.3397   13.8359 N   0  0  0  0  0  0  0  0  0  0  0  0
   10.5652  -16.9215   16.1981 C   0  0  0  0  0  0  0  0  0  0  0  0
   10.8045  -15.7105   15.9464 O   0  0  0  0  0  0  0  0  0  0  0  0
   10.3950  -17.2659   17.5590 N   0  0  0  0  0  0  0  0  0  0  0  0
   10.2122  -16.1479   18.5800 C   0  0  1  0  0  0  0  0  0  0  0  0
    8.9671  -15.4855   18.0809 C   0  0  0  0  0  0  0  0  0  0  0  0
    8.2900  -14.5121   18.9137 C   0  0  0  0  0  0  0  0  0  0  0  0
    8.5559  -13.9947   20.1488 C   0  0  0  0  0  0  0  0  0  0  0  0
    7.6444  -13.0260   20.4643 N   0  0  0  0  0  0  0  0  0  0  0  0
    6.8259  -12.9591   19.4123 C   0  0  0  0  0  0  0  0  0  0  0  0
    7.1917  -13.8278   18.4888 N   0  0  0  0  0  0  0  0  0  0  0  0
   10.0439  -16.8759   19.8714 C   0  0  0  0  0  0  0  0  0  0  0  0
    9.2512  -17.8938   19.8926 O   0  0  0  0  0  0  0  0  0  0  0  0
   16.4206  -19.4237   22.6625 N   0  0  0  0  0  0  0  0  0  0  0  0
   16.0016  -19.2378   21.3199 C   0  0  0  0  0  0  0  0  0  0  0  0
   16.8981  -19.2702   20.3678 N   0  0  0  0  0  0  0  0  0  0  0  0
   14.6278  -19.0192   21.0051 N   0  0  0  0  0  0  0  0  0  0  0  0
   13.6625  -18.7880   22.0469 C   0  0  0  0  0  0  0  0  0  0  0  0
   12.2839  -18.6427   21.4374 C   0  0  0  0  0  0  0  0  0  0  0  0
   11.2016  -18.5656   22.4516 C   0  0  0  0  0  0  0  0  0  0  0  0
   10.3439  -17.3555   22.3153 C   0  0  2  0  0  0  0  0  0  0  0  0
   10.6423  -16.6068   21.0983 N   0  0  0  0  0  0  0  0  0  0  0  0
   10.6266  -16.4314   23.4464 C   0  0  0  0  0  0  0  0  0  0  0  0
   10.4400  -16.7807   24.6175 O   0  0  0  0  0  0  0  0  0  0  0  0
   11.1159  -15.1281   23.2296 O   0  0  0  0  0  0  0  0  0  0  0  0
  1  2  1  0
  3  5  1  0
  3  2  1  0
  3  4  1  1
  5  7  1  0
  5  6  1  6
  7  8  2  0
  9 10  1  0
  9  7  1  0
 10 17  1  0
 11 12  1  0
 10 11  1  6
 12 13  2  0
 13 14  1  0
 15 14  1  0
 16 12  1  0
 16 15  2  0
 17 27  1  0
 17 18  2  0
 19 20  1  0
 20 22  1  0
 21 20  2  0
 23 22  1  0
 23 24  1  0
 24 25  1  0
 26 25  1  1
 26 28  1  0
 27 26  1  0
 28 29  2  0
 28 30  1  0
M  END
$$$$
