IHR.pdb
     RDKit          3D

 30 30  0  0  1  0  0  0  0  0999 V2000
    7.9924  -20.0882   18.7698 C   0  0  0  0  0  0  0  0  0  0  0  0
    8.0947  -18.5852   18.7212 C   0  0  0  0  0  0  0  0  0  0  0  0
    8.4873  -17.9696   20.0344 C   0  0  2  0  0  0  0  0  0  0  0  0
    7.5026  -18.4840   21.0658 C   0  0  0  0  0  0  0  0  0  0  0  0
    8.4990  -16.4857   19.9402 C   0  0  2  0  0  0  0  0  0  0  0  0
    9.3766  -16.0214   18.8685 N   0  0  0  0  0  0  0  0  0  0  0  0
    8.9099  -15.8472   21.2159 C   0  0  0  0  0  0  0  0  0  0  0  0
   10.1047  -15.7882   21.6111 O   0  0  0  0  0  0  0  0  0  0  0  0
    7.9334  -15.2642   22.0563 N   0  0  0  0  0  0  0  0  0  0  0  0
    8.3683  -14.7073   23.4076 C   0  0  1  0  0  0  0  0  0  0  0  0
    7.1480  -13.9508   23.8279 C   0  0  0  0  0  0  0  0  0  0  0  0
    7.0386  -13.4662   25.1891 C   0  0  0  0  0  0  0  0  0  0  0  0
    7.8711  -13.5233   26.2698 C   0  0  0  0  0  0  0  0  0  0  0  0
    7.3356  -12.8297   27.3190 N   0  0  0  0  0  0  0  0  0  0  0  0
    6.1746  -12.3514   26.8668 C   0  0  0  0  0  0  0  0  0  0  0  0
    5.9835  -12.7166   25.6132 N   0  0  0  0  0  0  0  0  0  0  0  0
    8.6420  -15.9291   24.2192 C   0  0  0  0  0  0  0  0  0  0  0  0
    7.7374  -16.8486   24.2512 O   0  0  0  0  0  0  0  0  0  0  0  0
   14.3147  -19.5922   20.9195 N   0  0  0  0  0  0  0  0  0  0  0  0
   13.1810  -18.7485   20.7944 C   0  0  0  0  0  0  0  0  0  0  0  0
   13.1344  -17.8952   19.8039 N   0  0  0  0  0  0  0  0  0  0  0  0
   12.1057  -18.8236   21.7283 N   0  0  0  0  0  0  0  0  0  0  0  0
   12.3009  -18.4553   23.1055 C   0  0  0  0  0  0  0  0  0  0  0  0
   11.0265  -18.7078   23.8834 C   0  0  0  0  0  0  0  0  0  0  0  0
   11.1047  -18.2563   25.2962 C   0  0  0  0  0  0  0  0  0  0  0  0
    9.9209  -17.4657   25.7344 C   0  0  2  0  0  0  0  0  0  0  0  0
    9.7737  -16.2306   24.9703 N   0  0  0  0  0  0  0  0  0  0  0  0
   10.1114  -17.0527   27.1508 C   0  0  0  0  0  0  0  0  0  0  0  0
   10.2699  -17.8923   28.0443 O   0  0  0  0  0  0  0  0  0  0  0  0
   10.1192  -15.6955   27.5289 O   0  0  0  0  0  0  0  0  0  0  0  0
  1  2  1  0
  3  5  1  0
  3  2  1  0
  3  4  1  1
  5  7  1  0
  5  6  1  6
  7  8  2  0
  9 10  1  0
  9  7  1  0
 10 17  1  0
 11 12  1  0
 10 11  1  1
 12 13  2  0
 13 14  1  0
 15 14  1  0
 16 12  1  0
 16 15  2  0
 17 27  1  0
 17 18  2  0
 19 20  1  0
 20 22  1  0
 21 20  2  0
 23 22  1  0
 23 24  1  0
 24 25  1  0
 26 25  1  6
 26 28  1  0
 27 26  1  0
 28 29  2  0
 28 30  1  0
M  END
$$$$
