IHR.pdb
     RDKit          3D

 30 30  0  0  1  0  0  0  0  0999 V2000
    9.5682  -14.6671   15.7184 C   0  0  0  0  0  0  0  0  0  0  0  0
    8.6738  -14.1550   16.8182 C   0  0  0  0  0  0  0  0  0  0  0  0
    9.2112  -14.4167   18.1968 C   0  0  2  0  0  0  0  0  0  0  0  0
    9.4143  -15.9150   18.3054 C   0  0  0  0  0  0  0  0  0  0  0  0
    8.2879  -13.8847   19.2339 C   0  0  2  0  0  0  0  0  0  0  0  0
    8.0670  -12.4496   19.0726 N   0  0  0  0  0  0  0  0  0  0  0  0
    8.7795  -14.1492   20.6095 C   0  0  0  0  0  0  0  0  0  0  0  0
    9.7486  -13.5366   21.1317 O   0  0  0  0  0  0  0  0  0  0  0  0
    8.1490  -15.1349   21.4035 N   0  0  0  0  0  0  0  0  0  0  0  0
    8.7368  -15.4584   22.7730 C   0  0  1  0  0  0  0  0  0  0  0  0
    7.5006  -15.6228   23.5995 C   0  0  0  0  0  0  0  0  0  0  0  0
    6.9309  -14.4734   24.2732 C   0  0  0  0  0  0  0  0  0  0  0  0
    7.3114  -13.1658   24.3715 C   0  0  0  0  0  0  0  0  0  0  0  0
    6.3735  -12.4488   25.0607 N   0  0  0  0  0  0  0  0  0  0  0  0
    5.4225  -13.3296   25.3780 C   0  0  0  0  0  0  0  0  0  0  0  0
    5.7343  -14.5279   24.9215 N   0  0  0  0  0  0  0  0  0  0  0  0
    9.4919  -16.7242   22.5408 C   0  0  0  0  0  0  0  0  0  0  0  0
    9.6785  -17.1016   21.3212 O   0  0  0  0  0  0  0  0  0  0  0  0
   13.8082  -13.8827   19.0209 N   0  0  0  0  0  0  0  0  0  0  0  0
   13.7592  -15.2617   18.6916 C   0  0  0  0  0  0  0  0  0  0  0  0
   13.4743  -15.6083   17.4628 N   0  0  0  0  0  0  0  0  0  0  0  0
   14.0153  -16.2597   19.6778 N   0  0  0  0  0  0  0  0  0  0  0  0
   13.6731  -16.0351   21.0573 C   0  0  0  0  0  0  0  0  0  0  0  0
   12.6608  -17.0694   21.5033 C   0  0  0  0  0  0  0  0  0  0  0  0
   12.3625  -17.0064   22.9569 C   0  0  0  0  0  0  0  0  0  0  0  0
   11.4219  -18.0655   23.4175 C   0  0  2  0  0  0  0  0  0  0  0  0
   10.0453  -17.5844   23.4840 N   0  0  0  0  0  0  0  0  0  0  0  0
   11.7847  -18.4664   24.8034 C   0  0  0  0  0  0  0  0  0  0  0  0
   11.3934  -17.8154   25.7789 O   0  0  0  0  0  0  0  0  0  0  0  0
   12.5844  -19.5979   25.0587 O   0  0  0  0  0  0  0  0  0  0  0  0
  1  2  1  0
  3  5  1  0
  3  2  1  0
  3  4  1  1
  5  7  1  0
  5  6  1  6
  7  8  2  0
  9 10  1  0
  9  7  1  0
 10 17  1  0
 11 12  1  0
 10 11  1  1
 12 13  2  0
 13 14  1  0
 15 14  1  0
 16 12  1  0
 16 15  2  0
 17 27  1  0
 17 18  2  0
 19 20  1  0
 20 22  1  0
 21 20  2  0
 23 22  1  0
 23 24  1  0
 24 25  1  0
 26 25  1  1
 26 28  1  0
 27 26  1  0
 28 29  2  0
 28 30  1  0
M  END
$$$$
