IHR.pdb
     RDKit          3D

 30 30  0  0  1  0  0  0  0  0999 V2000
    6.1174  -11.9886   27.0325 C   0  0  0  0  0  0  0  0  0  0  0  0
    5.5909  -13.1815   26.2765 C   0  0  0  0  0  0  0  0  0  0  0  0
    6.6299  -13.8577   25.4274 C   0  0  2  0  0  0  0  0  0  0  0  0
    7.1027  -12.8287   24.4197 C   0  0  0  0  0  0  0  0  0  0  0  0
    6.0750  -15.0788   24.7854 C   0  0  2  0  0  0  0  0  0  0  0  0
    5.5241  -16.0032   25.7735 N   0  0  0  0  0  0  0  0  0  0  0  0
    7.0885  -15.7901   23.9663 C   0  0  0  0  0  0  0  0  0  0  0  0
    7.8339  -16.6999   24.4178 O   0  0  0  0  0  0  0  0  0  0  0  0
    7.2518  -15.4533   22.6027 N   0  0  0  0  0  0  0  0  0  0  0  0
    8.2322  -16.2630   21.7607 C   0  0  1  0  0  0  0  0  0  0  0  0
    7.7739  -15.9415   20.3733 C   0  0  0  0  0  0  0  0  0  0  0  0
    8.5401  -16.4141   19.2379 C   0  0  0  0  0  0  0  0  0  0  0  0
    9.6882  -17.1445   19.1257 C   0  0  0  0  0  0  0  0  0  0  0  0
    9.9588  -17.4049   17.8113 N   0  0  0  0  0  0  0  0  0  0  0  0
    8.9672  -16.8290   17.1285 C   0  0  0  0  0  0  0  0  0  0  0  0
    8.1217  -16.2407   17.9534 N   0  0  0  0  0  0  0  0  0  0  0  0
    9.5611  -15.6853   22.1167 C   0  0  0  0  0  0  0  0  0  0  0  0
    9.6157  -14.4297   22.4085 O   0  0  0  0  0  0  0  0  0  0  0  0
   11.1921  -16.9049   30.1537 N   0  0  0  0  0  0  0  0  0  0  0  0
   11.4722  -15.7396   29.3947 C   0  0  0  0  0  0  0  0  0  0  0  0
   11.2334  -14.5676   29.9246 N   0  0  0  0  0  0  0  0  0  0  0  0
   12.0057  -15.8356   28.0755 N   0  0  0  0  0  0  0  0  0  0  0  0
   11.3758  -16.6696   27.0865 C   0  0  0  0  0  0  0  0  0  0  0  0
   12.0442  -16.4575   25.7443 C   0  0  0  0  0  0  0  0  0  0  0  0
   11.0867  -16.4517   24.6089 C   0  0  0  0  0  0  0  0  0  0  0  0
   11.7242  -16.1602   23.2947 C   0  0  2  0  0  0  0  0  0  0  0  0
   10.7922  -16.3299   22.1841 N   0  0  0  0  0  0  0  0  0  0  0  0
   12.8229  -17.1359   23.0622 C   0  0  0  0  0  0  0  0  0  0  0  0
   13.8756  -17.0770   23.7078 O   0  0  0  0  0  0  0  0  0  0  0  0
   12.7086  -18.1608   22.1023 O   0  0  0  0  0  0  0  0  0  0  0  0
  1  2  1  0
  3  5  1  0
  3  2  1  0
  3  4  1  6
  5  7  1  0
  5  6  1  1
  7  8  2  0
  9 10  1  0
  9  7  1  0
 10 17  1  0
 11 12  1  0
 10 11  1  6
 12 13  2  0
 13 14  1  0
 15 14  1  0
 16 12  1  0
 16 15  2  0
 17 27  1  0
 17 18  2  0
 19 20  1  0
 20 22  1  0
 21 20  2  0
 23 22  1  0
 23 24  1  0
 24 25  1  0
 26 25  1  1
 26 28  1  0
 27 26  1  0
 28 29  2  0
 28 30  1  0
M  END
$$$$
