IHR.pdb
     RDKit          3D

 30 30  0  0  1  0  0  0  0  0999 V2000
    7.2832  -11.8306   19.5371 C   0  0  0  0  0  0  0  0  0  0  0  0
    7.8911  -12.7180   18.4811 C   0  0  0  0  0  0  0  0  0  0  0  0
    8.4519  -14.0003   19.0277 C   0  0  2  0  0  0  0  0  0  0  0  0
    9.4584  -13.6137   20.0932 C   0  0  0  0  0  0  0  0  0  0  0  0
    9.0504  -14.8209   17.9418 C   0  0  2  0  0  0  0  0  0  0  0  0
    8.0635  -15.1649   16.9209 N   0  0  0  0  0  0  0  0  0  0  0  0
    9.6697  -16.0672   18.4586 C   0  0  0  0  0  0  0  0  0  0  0  0
    9.3559  -17.2189   18.0556 O   0  0  0  0  0  0  0  0  0  0  0  0
   10.6684  -15.9938   19.4570 N   0  0  0  0  0  0  0  0  0  0  0  0
   11.3874  -17.2739   19.8692 C   0  0  1  0  0  0  0  0  0  0  0  0
   12.2208  -17.5538   18.6588 C   0  0  0  0  0  0  0  0  0  0  0  0
   11.7747  -18.5379   17.6934 C   0  0  0  0  0  0  0  0  0  0  0  0
   10.7329  -19.4201   17.6734 C   0  0  0  0  0  0  0  0  0  0  0  0
   10.6933  -20.0813   16.4776 N   0  0  0  0  0  0  0  0  0  0  0  0
   11.7165  -19.5933   15.7733 C   0  0  0  0  0  0  0  0  0  0  0  0
   12.3646  -18.6824   16.4743 N   0  0  0  0  0  0  0  0  0  0  0  0
   12.1705  -16.8651   21.0717 C   0  0  0  0  0  0  0  0  0  0  0  0
   12.8897  -15.7969   20.9902 O   0  0  0  0  0  0  0  0  0  0  0  0
    6.9724  -17.9133   25.5808 N   0  0  0  0  0  0  0  0  0  0  0  0
    7.2366  -16.5375   25.3573 C   0  0  0  0  0  0  0  0  0  0  0  0
    6.2353  -15.6958   25.3433 N   0  0  0  0  0  0  0  0  0  0  0  0
    8.5687  -16.0717   25.1508 N   0  0  0  0  0  0  0  0  0  0  0  0
    9.6554  -17.0006   24.9873 C   0  0  0  0  0  0  0  0  0  0  0  0
   10.9592  -16.2397   24.8683 C   0  0  0  0  0  0  0  0  0  0  0  0
   12.1428  -17.1261   24.7289 C   0  0  0  0  0  0  0  0  0  0  0  0
   12.9065  -16.9050   23.4694 C   0  0  2  0  0  0  0  0  0  0  0  0
   12.2364  -17.4910   22.3125 N   0  0  0  0  0  0  0  0  0  0  0  0
   14.2222  -17.5915   23.5738 C   0  0  0  0  0  0  0  0  0  0  0  0
   14.4832  -18.5796   22.8782 O   0  0  0  0  0  0  0  0  0  0  0  0
   15.2184  -17.1454   24.4647 O   0  0  0  0  0  0  0  0  0  0  0  0
  1  2  1  0
  3  5  1  0
  3  2  1  0
  3  4  1  1
  5  7  1  0
  5  6  1  6
  7  8  2  0
  9 10  1  0
  9  7  1  0
 10 17  1  0
 11 12  1  0
 10 11  1  6
 12 13  2  0
 13 14  1  0
 15 14  1  0
 16 12  1  0
 16 15  2  0
 17 27  1  0
 17 18  2  0
 19 20  1  0
 20 22  1  0
 21 20  2  0
 23 22  1  0
 23 24  1  0
 24 25  1  0
 26 25  1  1
 26 28  1  0
 27 26  1  0
 28 29  2  0
 28 30  1  0
M  END
$$$$
