KDE.pdb
     RDKit          3D

 27 26  0  0  1  0  0  0  0  0999 V2000
   20.3298  -13.5817  -17.9963 N   0  0  0  0  0  0  0  0  0  0  0  0
   19.1427  -13.4734  -17.2136 C   0  0  1  0  0  0  0  0  0  0  0  0
   18.9817  -14.6287  -16.2833 C   0  0  0  0  0  0  0  0  0  0  0  0
   18.9604  -15.9774  -16.9109 C   0  0  0  0  0  0  0  0  0  0  0  0
   20.1368  -16.8468  -16.6467 C   0  0  0  0  0  0  0  0  0  0  0  0
   20.0471  -18.2228  -17.2447 C   0  0  0  0  0  0  0  0  0  0  0  0
   21.2798  -18.9293  -16.9169 N   0  0  0  0  0  0  0  0  0  0  0  0
   18.9276  -12.1643  -16.5675 C   0  0  0  0  0  0  0  0  0  0  0  0
   17.9850  -12.0461  -15.7118 O   0  0  0  0  0  0  0  0  0  0  0  0
   19.6830  -10.9866  -16.8072 N   0  0  0  0  0  0  0  0  0  0  0  0
   19.4799   -9.7301  -16.1118 C   0  0  1  0  0  0  0  0  0  0  0  0
   20.6897   -8.8591  -16.0567 C   0  0  0  0  0  0  0  0  0  0  0  0
   21.6726   -9.4086  -15.1128 C   0  0  0  0  0  0  0  0  0  0  0  0
   22.7055   -9.9812  -15.5311 O   0  0  0  0  0  0  0  0  0  0  0  0
   18.3897   -8.9328  -16.7414 C   0  0  0  0  0  0  0  0  0  0  0  0
   18.3956   -8.7368  -17.9803 O   0  0  0  0  0  0  0  0  0  0  0  0
   21.5137   -9.3253  -13.7251 O   0  0  0  0  0  0  0  0  0  0  0  0
   17.3498   -8.3944  -15.9674 N   0  0  0  0  0  0  0  0  0  0  0  0
   16.1673   -7.7607  -16.5206 C   0  0  1  0  0  0  0  0  0  0  0  0
   14.9053   -8.5366  -16.2009 C   0  0  0  0  0  0  0  0  0  0  0  0
   14.7179   -8.6898  -14.7251 C   0  0  0  0  0  0  0  0  0  0  0  0
   13.4209   -9.3412  -14.4397 C   0  0  0  0  0  0  0  0  0  0  0  0
   13.4213  -10.4698  -13.8956 O   0  0  0  0  0  0  0  0  0  0  0  0
   16.0716   -6.4000  -15.9318 C   0  0  0  0  0  0  0  0  0  0  0  0
   15.2821   -5.5148  -16.3495 O   0  0  0  0  0  0  0  0  0  0  0  0
   12.2011   -8.7687  -14.7427 O   0  0  0  0  0  0  0  0  0  0  0  0
   16.8853   -6.0287  -14.8465 O   0  0  0  0  0  0  0  0  0  0  0  0
  2  1  1  1
  2  3  1  0
  3  4  1  0
  4  5  1  0
  6  5  1  0
  7  6  1  0
  8  2  1  0
  9  8  2  0
 10  8  1  0
 11 10  1  0
 12 13  1  0
 11 12  1  6
 13 17  1  0
 14 13  2  0
 15 11  1  0
 15 18  1  0
 16 15  2  0
 19 24  1  0
 19 18  1  0
 20 21  1  0
 19 20  1  1
 21 22  1  0
 22 23  2  0
 22 26  1  0
 24 27  1  0
 25 24  2  0
M  END
$$$$
