KDE.pdb
     RDKit          3D

 27 26  0  0  1  0  0  0  0  0999 V2000
   16.7311  -13.4044  -18.1118 N   0  0  0  0  0  0  0  0  0  0  0  0
   17.0476  -12.7762  -16.8713 C   0  0  1  0  0  0  0  0  0  0  0  0
   18.2196  -13.4164  -16.2060 C   0  0  0  0  0  0  0  0  0  0  0  0
   18.1938  -14.9014  -16.1198 C   0  0  0  0  0  0  0  0  0  0  0  0
   19.1959  -15.5275  -15.2179 C   0  0  0  0  0  0  0  0  0  0  0  0
   19.0776  -17.0203  -15.0886 C   0  0  0  0  0  0  0  0  0  0  0  0
   20.0876  -17.4636  -14.1350 N   0  0  0  0  0  0  0  0  0  0  0  0
   17.1257  -11.3031  -16.9094 C   0  0  0  0  0  0  0  0  0  0  0  0
   17.8968  -10.7482  -17.7651 O   0  0  0  0  0  0  0  0  0  0  0  0
   16.4110  -10.4123  -16.0665 N   0  0  0  0  0  0  0  0  0  0  0  0
   16.4830   -8.9666  -16.1576 C   0  0  1  0  0  0  0  0  0  0  0  0
   15.1549   -8.2920  -16.2392 C   0  0  0  0  0  0  0  0  0  0  0  0
   14.4283   -8.7369  -17.4362 C   0  0  0  0  0  0  0  0  0  0  0  0
   13.3013   -9.2744  -17.3335 O   0  0  0  0  0  0  0  0  0  0  0  0
   17.2028   -8.3855  -14.9894 C   0  0  0  0  0  0  0  0  0  0  0  0
   17.0514   -8.8881  -13.8501 O   0  0  0  0  0  0  0  0  0  0  0  0
   14.9428   -8.5886  -18.7291 O   0  0  0  0  0  0  0  0  0  0  0  0
   18.0528   -7.2789  -15.1427 N   0  0  0  0  0  0  0  0  0  0  0  0
   18.8300   -6.6941  -14.0659 C   0  0  1  0  0  0  0  0  0  0  0  0
   20.2538   -6.3953  -14.4907 C   0  0  0  0  0  0  0  0  0  0  0  0
   21.0225   -5.7303  -13.3938 C   0  0  0  0  0  0  0  0  0  0  0  0
   22.3493   -5.3010  -13.8873 C   0  0  0  0  0  0  0  0  0  0  0  0
   22.7202   -4.1243  -13.6695 O   0  0  0  0  0  0  0  0  0  0  0  0
   18.1597   -5.4300  -13.6653 C   0  0  0  0  0  0  0  0  0  0  0  0
   17.4396   -4.7486  -14.4390 O   0  0  0  0  0  0  0  0  0  0  0  0
   23.2069   -6.1328  -14.5800 O   0  0  0  0  0  0  0  0  0  0  0  0
   18.3049   -4.9224  -12.3620 O   0  0  0  0  0  0  0  0  0  0  0  0
  2  1  1  6
  2  3  1  0
  3  4  1  0
  4  5  1  0
  6  5  1  0
  7  6  1  0
  8  2  1  0
  9  8  2  0
 10  8  1  0
 11 10  1  0
 12 13  1  0
 11 12  1  1
 13 17  1  0
 14 13  2  0
 15 11  1  0
 15 18  1  0
 16 15  2  0
 19 24  1  0
 19 18  1  0
 20 21  1  0
 19 20  1  6
 21 22  1  0
 22 23  2  0
 22 26  1  0
 24 27  1  0
 25 24  2  0
M  END
$$$$
