KDE.pdb
     RDKit          3D

 27 26  0  0  1  0  0  0  0  0999 V2000
   13.6193  -11.3799  -11.6353 N   0  0  0  0  0  0  0  0  0  0  0  0
   13.4908  -10.0394  -12.1045 C   0  0  1  0  0  0  0  0  0  0  0  0
   13.0824   -9.1049  -11.0155 C   0  0  0  0  0  0  0  0  0  0  0  0
   11.7707   -9.3829  -10.3710 C   0  0  0  0  0  0  0  0  0  0  0  0
   11.3319   -8.4211   -9.3259 C   0  0  0  0  0  0  0  0  0  0  0  0
   10.0291   -8.7678   -8.6614 C   0  0  0  0  0  0  0  0  0  0  0  0
    9.7554   -7.7423   -7.6616 N   0  0  0  0  0  0  0  0  0  0  0  0
   14.6195   -9.5411  -12.9140 C   0  0  0  0  0  0  0  0  0  0  0  0
   15.7845  -10.0285  -12.7142 O   0  0  0  0  0  0  0  0  0  0  0  0
   14.5414   -8.5446  -13.9220 N   0  0  0  0  0  0  0  0  0  0  0  0
   15.6533   -8.1443  -14.7628 C   0  0  1  0  0  0  0  0  0  0  0  0
   15.2671   -7.7882  -16.1590 C   0  0  0  0  0  0  0  0  0  0  0  0
   14.7558   -8.9708  -16.8653 C   0  0  0  0  0  0  0  0  0  0  0  0
   15.3436  -10.0730  -16.7692 O   0  0  0  0  0  0  0  0  0  0  0  0
   16.3704   -6.9705  -14.1897 C   0  0  0  0  0  0  0  0  0  0  0  0
   15.7267   -6.0816  -13.5821 O   0  0  0  0  0  0  0  0  0  0  0  0
   13.6095   -8.9331  -17.6670 O   0  0  0  0  0  0  0  0  0  0  0  0
   17.7623   -6.8415  -14.3183 N   0  0  0  0  0  0  0  0  0  0  0  0
   18.5340   -5.7489  -13.7558 C   0  0  1  0  0  0  0  0  0  0  0  0
   20.0075   -6.0883  -13.6536 C   0  0  0  0  0  0  0  0  0  0  0  0
   20.7937   -4.9447  -13.0963 C   0  0  0  0  0  0  0  0  0  0  0  0
   22.2406   -5.2484  -13.1430 C   0  0  0  0  0  0  0  0  0  0  0  0
   23.0564   -4.2985  -13.0993 O   0  0  0  0  0  0  0  0  0  0  0  0
   18.3600   -4.5727  -14.6468 C   0  0  0  0  0  0  0  0  0  0  0  0
   18.0958   -4.6615  -15.8730 O   0  0  0  0  0  0  0  0  0  0  0  0
   22.7443   -6.5312  -13.2330 O   0  0  0  0  0  0  0  0  0  0  0  0
   18.4868   -3.2658  -14.1433 O   0  0  0  0  0  0  0  0  0  0  0  0
  2  1  1  1
  2  3  1  0
  3  4  1  0
  4  5  1  0
  6  5  1  0
  7  6  1  0
  8  2  1  0
  9  8  2  0
 10  8  1  0
 11 10  1  0
 12 13  1  0
 11 12  1  6
 13 17  1  0
 14 13  2  0
 15 11  1  0
 15 18  1  0
 16 15  2  0
 19 24  1  0
 19 18  1  0
 20 21  1  0
 19 20  1  6
 21 22  1  0
 22 23  2  0
 22 26  1  0
 24 27  1  0
 25 24  2  0
M  END
$$$$
