KDE.pdb
     RDKit          3D

 27 26  0  0  1  0  0  0  0  0999 V2000
   17.8218  -12.3865  -14.9532 N   0  0  0  0  0  0  0  0  0  0  0  0
   17.6754  -11.2966  -15.8611 C   0  0  1  0  0  0  0  0  0  0  0  0
   16.2907  -11.2114  -16.4102 C   0  0  0  0  0  0  0  0  0  0  0  0
   15.8140  -12.3965  -17.1729 C   0  0  0  0  0  0  0  0  0  0  0  0
   14.4796  -12.2741  -17.8163 C   0  0  0  0  0  0  0  0  0  0  0  0
   14.0814  -13.4497  -18.6638 C   0  0  0  0  0  0  0  0  0  0  0  0
   14.9314  -13.4496  -19.8486 N   0  0  0  0  0  0  0  0  0  0  0  0
   18.1998  -10.0018  -15.3857 C   0  0  0  0  0  0  0  0  0  0  0  0
   17.8821   -9.6003  -14.2141 O   0  0  0  0  0  0  0  0  0  0  0  0
   19.0460   -9.1295  -16.1192 N   0  0  0  0  0  0  0  0  0  0  0  0
   19.5754   -7.8811  -15.6049 C   0  0  1  0  0  0  0  0  0  0  0  0
   21.0564   -7.7491  -15.7249 C   0  0  0  0  0  0  0  0  0  0  0  0
   21.7286   -8.6942  -14.8228 C   0  0  0  0  0  0  0  0  0  0  0  0
   21.8261   -8.4458  -13.5987 O   0  0  0  0  0  0  0  0  0  0  0  0
   18.9697   -6.7094  -16.2984 C   0  0  0  0  0  0  0  0  0  0  0  0
   18.7589   -6.7561  -17.5340 O   0  0  0  0  0  0  0  0  0  0  0  0
   22.2853   -9.8975  -15.2703 O   0  0  0  0  0  0  0  0  0  0  0  0
   18.6284   -5.5475  -15.5885 N   0  0  0  0  0  0  0  0  0  0  0  0
   17.9884   -4.3888  -16.1831 C   0  0  1  0  0  0  0  0  0  0  0  0
   16.7431   -3.9762  -15.4243 C   0  0  0  0  0  0  0  0  0  0  0  0
   16.1282   -2.7462  -16.0119 C   0  0  0  0  0  0  0  0  0  0  0  0
   14.9451   -2.3393  -15.2226 C   0  0  0  0  0  0  0  0  0  0  0  0
   14.6300   -1.1271  -15.1924 O   0  0  0  0  0  0  0  0  0  0  0  0
   18.9707   -3.2742  -16.1609 C   0  0  0  0  0  0  0  0  0  0  0  0
   18.8411   -2.2188  -16.8323 O   0  0  0  0  0  0  0  0  0  0  0  0
   14.1639   -3.2296  -14.5123 O   0  0  0  0  0  0  0  0  0  0  0  0
   20.1261   -3.3515  -15.3631 O   0  0  0  0  0  0  0  0  0  0  0  0
  2  1  1  1
  2  3  1  0
  3  4  1  0
  4  5  1  0
  6  5  1  0
  7  6  1  0
  8  2  1  0
  9  8  2  0
 10  8  1  0
 11 10  1  0
 12 13  1  0
 11 12  1  6
 13 17  1  0
 14 13  2  0
 15 11  1  0
 15 18  1  0
 16 15  2  0
 19 24  1  0
 19 18  1  0
 20 21  1  0
 19 20  1  1
 21 22  1  0
 22 23  2  0
 22 26  1  0
 24 27  1  0
 25 24  2  0
M  END
$$$$
