KDE.pdb
     RDKit          3D

 27 26  0  0  1  0  0  0  0  0999 V2000
   20.8236  -12.7578  -19.9020 N   0  0  0  0  0  0  0  0  0  0  0  0
   20.7766  -12.2022  -18.5895 C   0  0  1  0  0  0  0  0  0  0  0  0
   20.9457  -13.2458  -17.5366 C   0  0  0  0  0  0  0  0  0  0  0  0
   19.7424  -14.0632  -17.2248 C   0  0  0  0  0  0  0  0  0  0  0  0
   19.8433  -14.9632  -16.0460 C   0  0  0  0  0  0  0  0  0  0  0  0
   18.6154  -15.7877  -15.7791 C   0  0  0  0  0  0  0  0  0  0  0  0
   18.9272  -16.7070  -14.6910 N   0  0  0  0  0  0  0  0  0  0  0  0
   21.6196  -11.0101  -18.3760 C   0  0  0  0  0  0  0  0  0  0  0  0
   22.0936  -10.7907  -17.2090 O   0  0  0  0  0  0  0  0  0  0  0  0
   21.9678  -10.0523  -19.3641 N   0  0  0  0  0  0  0  0  0  0  0  0
   22.7670   -8.8692  -19.1093 C   0  0  1  0  0  0  0  0  0  0  0  0
   23.3124   -8.2230  -20.3383 C   0  0  0  0  0  0  0  0  0  0  0  0
   24.2052   -9.1486  -21.0491 C   0  0  0  0  0  0  0  0  0  0  0  0
   24.0912   -9.3197  -22.2850 O   0  0  0  0  0  0  0  0  0  0  0  0
   21.9843   -7.8344  -18.3764 C   0  0  0  0  0  0  0  0  0  0  0  0
   20.7602   -7.6947  -18.6122 O   0  0  0  0  0  0  0  0  0  0  0  0
   25.2101   -9.8745  -20.4001 O   0  0  0  0  0  0  0  0  0  0  0  0
   22.5965   -7.0086  -17.4205 N   0  0  0  0  0  0  0  0  0  0  0  0
   21.8812   -6.0640  -16.5828 C   0  0  1  0  0  0  0  0  0  0  0  0
   22.3527   -6.1113  -15.1433 C   0  0  0  0  0  0  0  0  0  0  0  0
   21.6361   -5.1048  -14.3008 C   0  0  0  0  0  0  0  0  0  0  0  0
   22.0554   -5.2298  -12.8878 C   0  0  0  0  0  0  0  0  0  0  0  0
   22.8346   -4.3712  -12.4132 O   0  0  0  0  0  0  0  0  0  0  0  0
   22.1201   -4.7055  -17.1352 C   0  0  0  0  0  0  0  0  0  0  0  0
   23.1132   -4.4084  -17.8471 O   0  0  0  0  0  0  0  0  0  0  0  0
   21.6314   -6.2489  -12.0577 O   0  0  0  0  0  0  0  0  0  0  0  0
   21.2180   -3.6576  -16.8787 O   0  0  0  0  0  0  0  0  0  0  0  0
  2  1  1  6
  2  3  1  0
  3  4  1  0
  4  5  1  0
  6  5  1  0
  7  6  1  0
  8  2  1  0
  9  8  2  0
 10  8  1  0
 11 10  1  0
 12 13  1  0
 11 12  1  6
 13 17  1  0
 14 13  2  0
 15 11  1  0
 15 18  1  0
 16 15  2  0
 19 24  1  0
 19 18  1  0
 20 21  1  0
 19 20  1  1
 21 22  1  0
 22 23  2  0
 22 26  1  0
 24 27  1  0
 25 24  2  0
M  END
$$$$
