KDE.pdb
     RDKit          3D

 27 26  0  0  1  0  0  0  0  0999 V2000
   19.7114  -12.6981  -15.6248 N   0  0  0  0  0  0  0  0  0  0  0  0
   19.9723  -11.8379  -16.7318 C   0  0  1  0  0  0  0  0  0  0  0  0
   19.3390  -12.3379  -17.9869 C   0  0  0  0  0  0  0  0  0  0  0  0
   18.9162  -13.7643  -17.9845 C   0  0  0  0  0  0  0  0  0  0  0  0
   19.4252  -14.6053  -19.0995 C   0  0  0  0  0  0  0  0  0  0  0  0
   18.9676  -16.0365  -19.0654 C   0  0  0  0  0  0  0  0  0  0  0  0
   19.4737  -16.6920  -20.2656 N   0  0  0  0  0  0  0  0  0  0  0  0
   19.7375  -10.4018  -16.4869 C   0  0  0  0  0  0  0  0  0  0  0  0
   19.9723   -9.5691  -17.4282 O   0  0  0  0  0  0  0  0  0  0  0  0
   19.2641   -9.8332  -15.2754 N   0  0  0  0  0  0  0  0  0  0  0  0
   18.9778   -8.4234  -15.0918 C   0  0  1  0  0  0  0  0  0  0  0  0
   17.9928   -8.1352  -14.0091 C   0  0  0  0  0  0  0  0  0  0  0  0
   16.6435   -8.5426  -14.4241 C   0  0  0  0  0  0  0  0  0  0  0  0
   16.3453   -8.6130  -15.6389 O   0  0  0  0  0  0  0  0  0  0  0  0
   20.2160   -7.6557  -14.7784 C   0  0  0  0  0  0  0  0  0  0  0  0
   21.0633   -8.1341  -13.9868 O   0  0  0  0  0  0  0  0  0  0  0  0
   15.6383   -8.8674  -13.5064 O   0  0  0  0  0  0  0  0  0  0  0  0
   20.4522   -6.3989  -15.3574 N   0  0  0  0  0  0  0  0  0  0  0  0
   21.6941   -5.6607  -15.2219 C   0  0  1  0  0  0  0  0  0  0  0  0
   21.7676   -4.4917  -16.1837 C   0  0  0  0  0  0  0  0  0  0  0  0
   23.0280   -3.7090  -15.9963 C   0  0  0  0  0  0  0  0  0  0  0  0
   23.0835   -2.5907  -16.9629 C   0  0  0  0  0  0  0  0  0  0  0  0
   22.0492   -1.9106  -17.1560 O   0  0  0  0  0  0  0  0  0  0  0  0
   21.7647   -5.1557  -13.8263 C   0  0  0  0  0  0  0  0  0  0  0  0
   22.8364   -4.8178  -13.2618 O   0  0  0  0  0  0  0  0  0  0  0  0
   24.2216   -2.2536  -17.6689 O   0  0  0  0  0  0  0  0  0  0  0  0
   20.5996   -5.0287  -13.0492 O   0  0  0  0  0  0  0  0  0  0  0  0
  2  1  1  1
  2  3  1  0
  3  4  1  0
  4  5  1  0
  6  5  1  0
  7  6  1  0
  8  2  1  0
  9  8  2  0
 10  8  1  0
 11 10  1  0
 12 13  1  0
 11 12  1  1
 13 17  1  0
 14 13  2  0
 15 11  1  0
 15 18  1  0
 16 15  2  0
 19 24  1  0
 19 18  1  0
 20 21  1  0
 19 20  1  6
 21 22  1  0
 22 23  2  0
 22 26  1  0
 24 27  1  0
 25 24  2  0
M  END
$$$$
