KDE.pdb
     RDKit          3D

 27 26  0  0  1  0  0  0  0  0999 V2000
   26.3780  -22.1086  -10.8611 N   0  0  0  0  0  0  0  0  0  0  0  0
   25.5609  -20.9491  -11.0066 C   0  0  1  0  0  0  0  0  0  0  0  0
   25.8764  -19.9131   -9.9803 C   0  0  0  0  0  0  0  0  0  0  0  0
   25.4694  -20.2281   -8.5844 C   0  0  0  0  0  0  0  0  0  0  0  0
   24.1254  -20.8390   -8.4108 C   0  0  0  0  0  0  0  0  0  0  0  0
   23.6624  -20.9419   -6.9847 C   0  0  0  0  0  0  0  0  0  0  0  0
   22.3682  -21.6137   -6.9866 N   0  0  0  0  0  0  0  0  0  0  0  0
   25.4661  -20.4092  -12.3767 C   0  0  0  0  0  0  0  0  0  0  0  0
   24.8250  -19.3196  -12.5673 O   0  0  0  0  0  0  0  0  0  0  0  0
   26.0304  -20.9947  -13.5402 N   0  0  0  0  0  0  0  0  0  0  0  0
   25.9728  -20.4026  -14.8628 C   0  0  1  0  0  0  0  0  0  0  0  0
   27.0125  -20.9085  -15.8054 C   0  0  0  0  0  0  0  0  0  0  0  0
   27.0348  -20.0930  -17.0274 C   0  0  0  0  0  0  0  0  0  0  0  0
   27.7690  -20.4112  -17.9915 O   0  0  0  0  0  0  0  0  0  0  0  0
   24.6467  -20.6337  -15.5023 C   0  0  0  0  0  0  0  0  0  0  0  0
   24.2249  -21.8046  -15.6586 O   0  0  0  0  0  0  0  0  0  0  0  0
   26.2551  -18.9411  -17.1795 O   0  0  0  0  0  0  0  0  0  0  0  0
   23.8565  -19.5572  -15.9350 N   0  0  0  0  0  0  0  0  0  0  0  0
   22.4710  -19.6791  -16.3489 C   0  0  1  0  0  0  0  0  0  0  0  0
   21.6218  -18.5344  -15.8339 C   0  0  0  0  0  0  0  0  0  0  0  0
   20.1905  -18.6920  -16.2375 C   0  0  0  0  0  0  0  0  0  0  0  0
   19.3993  -17.5292  -15.7792 C   0  0  0  0  0  0  0  0  0  0  0  0
   19.9395  -16.3988  -15.7730 O   0  0  0  0  0  0  0  0  0  0  0  0
   22.4462  -19.6815  -17.8345 C   0  0  0  0  0  0  0  0  0  0  0  0
   21.4085  -19.8924  -18.5129 O   0  0  0  0  0  0  0  0  0  0  0  0
   18.0885  -17.6230  -15.3546 O   0  0  0  0  0  0  0  0  0  0  0  0
   23.6188  -19.4405  -18.5723 O   0  0  0  0  0  0  0  0  0  0  0  0
  2  1  1  6
  2  3  1  0
  3  4  1  0
  4  5  1  0
  6  5  1  0
  7  6  1  0
  8  2  1  0
  9  8  2  0
 10  8  1  0
 11 10  1  0
 12 13  1  0
 11 12  1  6
 13 17  1  0
 14 13  2  0
 15 11  1  0
 15 18  1  0
 16 15  2  0
 19 24  1  0
 19 18  1  0
 20 21  1  0
 19 20  1  6
 21 22  1  0
 22 23  2  0
 22 26  1  0
 24 27  1  0
 25 24  2  0
M  END
$$$$
