KDE.pdb
     RDKit          3D

 27 26  0  0  1  0  0  0  0  0999 V2000
   27.6568  -21.5954  -15.0323 N   0  0  0  0  0  0  0  0  0  0  0  0
   26.7464  -20.9708  -15.9348 C   0  0  1  0  0  0  0  0  0  0  0  0
   26.9632  -21.4167  -17.3420 C   0  0  0  0  0  0  0  0  0  0  0  0
   28.2831  -22.0365  -17.6371 C   0  0  0  0  0  0  0  0  0  0  0  0
   28.5897  -23.3058  -16.9268 C   0  0  0  0  0  0  0  0  0  0  0  0
   29.9111  -23.9238  -17.2885 C   0  0  0  0  0  0  0  0  0  0  0  0
   30.0611  -25.1414  -16.5003 N   0  0  0  0  0  0  0  0  0  0  0  0
   25.3297  -20.9944  -15.5225 C   0  0  0  0  0  0  0  0  0  0  0  0
   24.4733  -21.5540  -16.2894 O   0  0  0  0  0  0  0  0  0  0  0  0
   24.8047  -20.4417  -14.3251 N   0  0  0  0  0  0  0  0  0  0  0  0
   23.4216  -20.5643  -13.9064 C   0  0  1  0  0  0  0  0  0  0  0  0
   23.2128  -20.4243  -12.4360 C   0  0  0  0  0  0  0  0  0  0  0  0
   21.8589  -20.8607  -12.0681 C   0  0  0  0  0  0  0  0  0  0  0  0
   21.4444  -20.7271  -10.8934 O   0  0  0  0  0  0  0  0  0  0  0  0
   22.5615  -19.5467  -14.5737 C   0  0  0  0  0  0  0  0  0  0  0  0
   22.8447  -18.3287  -14.4747 O   0  0  0  0  0  0  0  0  0  0  0  0
   20.9765  -21.4373  -12.9884 O   0  0  0  0  0  0  0  0  0  0  0  0
   21.4333  -19.9297  -15.3159 N   0  0  0  0  0  0  0  0  0  0  0  0
   20.6056  -19.0087  -16.0726 C   0  0  1  0  0  0  0  0  0  0  0  0
   19.6994  -19.7311  -17.0493 C   0  0  0  0  0  0  0  0  0  0  0  0
   18.9446  -18.7675  -17.9085 C   0  0  0  0  0  0  0  0  0  0  0  0
   18.0659  -19.4995  -18.8468 C   0  0  0  0  0  0  0  0  0  0  0  0
   18.5714  -20.3779  -19.5833 O   0  0  0  0  0  0  0  0  0  0  0  0
   19.7768  -18.2497  -15.1006 C   0  0  0  0  0  0  0  0  0  0  0  0
   19.3492  -18.7350  -14.0222 O   0  0  0  0  0  0  0  0  0  0  0  0
   16.7092  -19.2651  -18.9555 O   0  0  0  0  0  0  0  0  0  0  0  0
   19.4220  -16.9121  -15.3506 O   0  0  0  0  0  0  0  0  0  0  0  0
  2  1  1  1
  2  3  1  0
  3  4  1  0
  4  5  1  0
  6  5  1  0
  7  6  1  0
  8  2  1  0
  9  8  2  0
 10  8  1  0
 11 10  1  0
 12 13  1  0
 11 12  1  1
 13 17  1  0
 14 13  2  0
 15 11  1  0
 15 18  1  0
 16 15  2  0
 19 24  1  0
 19 18  1  0
 20 21  1  0
 19 20  1  6
 21 22  1  0
 22 23  2  0
 22 26  1  0
 24 27  1  0
 25 24  2  0
M  END
$$$$
