KDE.pdb
     RDKit          3D

 27 26  0  0  1  0  0  0  0  0999 V2000
   25.2373  -21.0904  -11.8167 N   0  0  0  0  0  0  0  0  0  0  0  0
   24.5167  -21.3085  -13.0277 C   0  0  1  0  0  0  0  0  0  0  0  0
   23.2693  -22.0948  -12.7995 C   0  0  0  0  0  0  0  0  0  0  0  0
   22.4687  -21.7210  -11.6026 C   0  0  0  0  0  0  0  0  0  0  0  0
   21.8709  -22.8428  -10.8319 C   0  0  0  0  0  0  0  0  0  0  0  0
   20.4238  -23.1120  -11.1360 C   0  0  0  0  0  0  0  0  0  0  0  0
   19.9696  -24.1627  -10.2327 N   0  0  0  0  0  0  0  0  0  0  0  0
   24.3119  -20.1121  -13.8668 C   0  0  0  0  0  0  0  0  0  0  0  0
   23.9131  -19.0310  -13.3129 O   0  0  0  0  0  0  0  0  0  0  0  0
   24.5180  -20.0372  -15.2693 N   0  0  0  0  0  0  0  0  0  0  0  0
   24.3562  -18.8292  -16.0554 C   0  0  1  0  0  0  0  0  0  0  0  0
   25.0756  -18.8487  -17.3621 C   0  0  0  0  0  0  0  0  0  0  0  0
   26.5287  -18.8215  -17.1460 C   0  0  0  0  0  0  0  0  0  0  0  0
   27.3005  -19.4150  -17.9344 O   0  0  0  0  0  0  0  0  0  0  0  0
   22.9195  -18.5605  -16.3460 C   0  0  0  0  0  0  0  0  0  0  0  0
   22.1254  -19.5183  -16.5053 O   0  0  0  0  0  0  0  0  0  0  0  0
   27.1186  -18.1465  -16.0715 O   0  0  0  0  0  0  0  0  0  0  0  0
   22.4364  -17.2462  -16.4447 N   0  0  0  0  0  0  0  0  0  0  0  0
   21.0304  -16.9010  -16.5437 C   0  0  1  0  0  0  0  0  0  0  0  0
   20.7444  -15.5202  -15.9884 C   0  0  0  0  0  0  0  0  0  0  0  0
   19.2954  -15.1716  -16.1117 C   0  0  0  0  0  0  0  0  0  0  0  0
   19.0482  -13.8163  -15.5732 C   0  0  0  0  0  0  0  0  0  0  0  0
   20.0143  -13.1684  -15.1078 O   0  0  0  0  0  0  0  0  0  0  0  0
   20.6601  -16.9400  -17.9821 C   0  0  0  0  0  0  0  0  0  0  0  0
   19.4792  -17.0732  -18.3934 O   0  0  0  0  0  0  0  0  0  0  0  0
   17.8015  -13.2224  -15.5556 O   0  0  0  0  0  0  0  0  0  0  0  0
   21.6444  -16.8263  -18.9800 O   0  0  0  0  0  0  0  0  0  0  0  0
  2  1  1  1
  2  3  1  0
  3  4  1  0
  4  5  1  0
  6  5  1  0
  7  6  1  0
  8  2  1  0
  9  8  2  0
 10  8  1  0
 11 10  1  0
 12 13  1  0
 11 12  1  6
 13 17  1  0
 14 13  2  0
 15 11  1  0
 15 18  1  0
 16 15  2  0
 19 24  1  0
 19 18  1  0
 20 21  1  0
 19 20  1  6
 21 22  1  0
 22 23  2  0
 22 26  1  0
 24 27  1  0
 25 24  2  0
M  END
$$$$
