KDE.pdb
     RDKit          3D

 27 26  0  0  1  0  0  0  0  0999 V2000
   17.8927  -13.1810  -16.4179 N   0  0  0  0  0  0  0  0  0  0  0  0
   17.6331  -11.7929  -16.6158 C   0  0  1  0  0  0  0  0  0  0  0  0
   16.2629  -11.4126  -16.1640 C   0  0  0  0  0  0  0  0  0  0  0  0
   15.1408  -12.2037  -16.7373 C   0  0  0  0  0  0  0  0  0  0  0  0
   14.0687  -12.6097  -15.7910 C   0  0  0  0  0  0  0  0  0  0  0  0
   12.7120  -12.0404  -16.0981 C   0  0  0  0  0  0  0  0  0  0  0  0
   11.7171  -13.0336  -15.7109 N   0  0  0  0  0  0  0  0  0  0  0  0
   18.6856  -10.8771  -16.1351 C   0  0  0  0  0  0  0  0  0  0  0  0
   18.6280  -10.4484  -14.9320 O   0  0  0  0  0  0  0  0  0  0  0  0
   19.7886  -10.4084  -16.8959 N   0  0  0  0  0  0  0  0  0  0  0  0
   20.8366   -9.5527  -16.3736 C   0  0  1  0  0  0  0  0  0  0  0  0
   22.2175   -9.9876  -16.7332 C   0  0  0  0  0  0  0  0  0  0  0  0
   23.2116   -9.1336  -16.0689 C   0  0  0  0  0  0  0  0  0  0  0  0
   22.8507   -8.2485  -15.2589 O   0  0  0  0  0  0  0  0  0  0  0  0
   20.6774   -8.1495  -16.8494 C   0  0  0  0  0  0  0  0  0  0  0  0
   20.7492   -7.8944  -18.0755 O   0  0  0  0  0  0  0  0  0  0  0  0
   24.5863   -9.2579  -16.2986 O   0  0  0  0  0  0  0  0  0  0  0  0
   20.4467   -7.1019  -15.9440 N   0  0  0  0  0  0  0  0  0  0  0  0
   20.2463   -5.7185  -16.3335 C   0  0  1  0  0  0  0  0  0  0  0  0
   18.9589   -5.1509  -15.7705 C   0  0  0  0  0  0  0  0  0  0  0  0
   17.7761   -5.5685  -16.5847 C   0  0  0  0  0  0  0  0  0  0  0  0
   16.5268   -5.0882  -15.9549 C   0  0  0  0  0  0  0  0  0  0  0  0
   15.8205   -4.2597  -16.5749 O   0  0  0  0  0  0  0  0  0  0  0  0
   21.3981   -4.9361  -15.8149 C   0  0  0  0  0  0  0  0  0  0  0  0
   22.3007   -5.4247  -15.0883 O   0  0  0  0  0  0  0  0  0  0  0  0
   16.0941   -5.5063  -14.7119 O   0  0  0  0  0  0  0  0  0  0  0  0
   21.5352   -3.5708  -16.1227 O   0  0  0  0  0  0  0  0  0  0  0  0
  2  1  1  1
  2  3  1  0
  3  4  1  0
  4  5  1  0
  6  5  1  0
  7  6  1  0
  8  2  1  0
  9  8  2  0
 10  8  1  0
 11 10  1  0
 12 13  1  0
 11 12  1  6
 13 17  1  0
 14 13  2  0
 15 11  1  0
 15 18  1  0
 16 15  2  0
 19 24  1  0
 19 18  1  0
 20 21  1  0
 19 20  1  1
 21 22  1  0
 22 23  2  0
 22 26  1  0
 24 27  1  0
 25 24  2  0
M  END
$$$$
