RYN.pdb
     RDKit          3D

 32 32  0  0  1  0  0  0  0  0999 V2000
    7.0100  -14.2268   13.6386 N   0  0  0  0  0  0  0  0  0  0  0  0
    8.2354  -14.9436   13.6889 C   0  0  0  0  0  0  0  0  0  0  0  0
    9.1639  -14.6311   12.8592 N   0  0  0  0  0  0  0  0  0  0  0  0
    8.4774  -15.9844   14.6182 N   0  0  0  0  0  0  0  0  0  0  0  0
    8.2384  -15.8510   16.0098 C   0  0  0  0  0  0  0  0  0  0  0  0
    8.0555  -14.4673   16.5335 C   0  0  0  0  0  0  0  0  0  0  0  0
    8.8661  -14.2225   17.7559 C   0  0  0  0  0  0  0  0  0  0  0  0
    8.6768  -15.3180   18.7977 C   0  0  2  0  0  0  0  0  0  0  0  0
    7.3559  -15.8948   18.7097 N   0  0  0  0  0  0  0  0  0  0  0  0
    8.9818  -14.8160   20.1609 C   0  0  0  0  0  0  0  0  0  0  0  0
   10.1310  -14.3505   20.3695 O   0  0  0  0  0  0  0  0  0  0  0  0
   10.0741  -15.0999   12.8981 O   0  0  0  0  0  0  0  0  0  0  0  0
    7.5225  -12.4358   28.6702 C   0  0  0  0  0  0  0  0  0  0  0  0
    7.4085  -12.8351   27.3422 C   0  0  0  0  0  0  0  0  0  0  0  0
    6.9273  -14.0730   27.0149 C   0  0  0  0  0  0  0  0  0  0  0  0
    6.8339  -14.4217   25.6727 C   0  0  0  0  0  0  0  0  0  0  0  0
    7.2002  -13.5860   24.6592 C   0  0  0  0  0  0  0  0  0  0  0  0
    7.1209  -13.8895   23.2264 C   0  0  1  0  0  0  0  0  0  0  0  0
    8.3515  -14.4469   22.5945 N   0  0  0  0  0  0  0  0  0  0  0  0
    8.0285  -14.8494   21.2043 C   0  0  0  0  0  0  0  0  0  0  0  0
    8.8059  -15.6673   23.2673 O   0  0  0  0  0  0  0  0  0  0  0  0
    8.2197  -16.7607   22.9989 C   0  0  0  0  0  0  0  0  0  0  0  0
    7.6867  -12.3308   25.0448 C   0  0  0  0  0  0  0  0  0  0  0  0
    7.7965  -11.9428   26.3624 N   0  0  0  0  0  0  0  0  0  0  0  0
   12.9851  -18.9972   25.5582 C   0  0  0  0  0  0  0  0  0  0  0  0
   11.8634  -18.8954   24.7198 O   0  0  0  0  0  0  0  0  0  0  0  0
   11.1696  -19.9394   24.5126 C   0  0  0  0  0  0  0  0  0  0  0  0
   11.4639  -17.6217   24.0729 C   0  0  2  0  0  0  0  0  0  0  0  0
   10.2419  -17.0490   24.7910 N   0  0  0  0  0  0  0  0  0  0  0  0
    9.8647  -15.7796   24.2100 C   0  0  0  0  0  0  0  0  0  0  0  0
   10.4328  -17.0541   26.2302 O   0  0  0  0  0  0  0  0  0  0  0  0
   10.5610  -15.9405   27.0270 O   0  0  0  0  0  0  0  0  0  0  0  0
  1  2  1  0
  2  3  2  0
  4  5  1  0
  4  2  1  0
  6  7  1  0
  6  5  1  0
  8 10  1  0
  8  7  1  0
  8  9  1  1
 10 11  2  0
 12 13  1  0
 13 23  2  0
 13 14  1  0
 14 15  2  0
 15 16  1  0
 16 17  1  0
 18 17  1  6
 19 18  1  0
 19 10  1  0
 20 21  2  0
 20 18  1  0
 22 16  2  0
 23 22  1  0
 24 25  1  0
 25 26  2  0
 25 27  1  0
 28 27  1  6
 28 30  1  0
 28 29  1  0
 29 20  1  0
 30 31  1  0
 32 30  2  0
M  END
$$$$
