RYN.pdb
     RDKit          3D

 32 32  0  0  1  0  0  0  0  0999 V2000
    8.0339  -15.1076   14.8350 N   0  0  0  0  0  0  0  0  0  0  0  0
    8.4212  -14.0571   15.7093 C   0  0  0  0  0  0  0  0  0  0  0  0
    8.6762  -12.9032   15.2075 N   0  0  0  0  0  0  0  0  0  0  0  0
    8.5332  -14.2278   17.1106 N   0  0  0  0  0  0  0  0  0  0  0  0
    8.1931  -15.4347   17.7733 C   0  0  0  0  0  0  0  0  0  0  0  0
    7.2853  -15.3253   18.9508 C   0  0  0  0  0  0  0  0  0  0  0  0
    7.9910  -14.8047   20.1518 C   0  0  0  0  0  0  0  0  0  0  0  0
    8.6233  -15.9210   20.9735 C   0  0  2  0  0  0  0  0  0  0  0  0
    7.6768  -16.9832   21.2205 N   0  0  0  0  0  0  0  0  0  0  0  0
    9.2141  -15.3909   22.2278 C   0  0  0  0  0  0  0  0  0  0  0  0
   10.0454  -14.4524   22.1322 O   0  0  0  0  0  0  0  0  0  0  0  0
    8.9466  -12.1222   15.8129 O   0  0  0  0  0  0  0  0  0  0  0  0
   10.8101  -14.9525   31.0506 C   0  0  0  0  0  0  0  0  0  0  0  0
   10.2758  -15.0389   29.7687 C   0  0  0  0  0  0  0  0  0  0  0  0
   10.0901  -13.9205   29.0033 C   0  0  0  0  0  0  0  0  0  0  0  0
    9.5527  -14.0628   27.7293 C   0  0  0  0  0  0  0  0  0  0  0  0
    9.1994  -15.2693   27.2008 C   0  0  0  0  0  0  0  0  0  0  0  0
    8.6350  -15.4880   25.8649 C   0  0  1  0  0  0  0  0  0  0  0  0
    9.6049  -15.5477   24.7335 N   0  0  0  0  0  0  0  0  0  0  0  0
    8.8685  -15.9074   23.4977 C   0  0  0  0  0  0  0  0  0  0  0  0
   10.6024  -16.6047   24.9248 O   0  0  0  0  0  0  0  0  0  0  0  0
   11.5029  -16.4356   25.8033 C   0  0  0  0  0  0  0  0  0  0  0  0
    9.4083  -16.3837   28.0226 C   0  0  0  0  0  0  0  0  0  0  0  0
    9.9380  -16.2897   29.2913 N   0  0  0  0  0  0  0  0  0  0  0  0
   13.2571  -17.9842   21.2064 C   0  0  0  0  0  0  0  0  0  0  0  0
   12.7026  -18.7566   22.2395 O   0  0  0  0  0  0  0  0  0  0  0  0
   11.9415  -19.7244   21.9259 C   0  0  0  0  0  0  0  0  0  0  0  0
   12.9725  -18.4840   23.6724 C   0  0  2  0  0  0  0  0  0  0  0  0
   11.7246  -18.8066   24.4944 N   0  0  0  0  0  0  0  0  0  0  0  0
   10.6813  -17.8414   24.2272 C   0  0  0  0  0  0  0  0  0  0  0  0
   12.0585  -19.0062   25.8931 O   0  0  0  0  0  0  0  0  0  0  0  0
   11.4365  -18.4028   26.9610 O   0  0  0  0  0  0  0  0  0  0  0  0
  1  2  1  0
  2  3  2  0
  4  5  1  0
  4  2  1  0
  6  7  1  0
  6  5  1  0
  8 10  1  0
  8  7  1  0
  8  9  1  1
 10 11  2  0
 12 13  1  0
 13 23  2  0
 13 14  1  0
 14 15  2  0
 15 16  1  0
 16 17  1  0
 18 17  1  6
 19 18  1  0
 19 10  1  0
 20 21  2  0
 20 18  1  0
 22 16  2  0
 23 22  1  0
 24 25  1  0
 25 26  2  0
 25 27  1  0
 28 27  1  6
 28 30  1  0
 28 29  1  0
 29 20  1  0
 30 31  1  0
 32 30  2  0
M  END
$$$$
