RYN.pdb
     RDKit          3D

 32 32  0  0  1  0  0  0  0  0999 V2000
    9.0698  -15.2937   15.7219 N   0  0  0  0  0  0  0  0  0  0  0  0
    8.1874  -14.2331   16.0602 C   0  0  0  0  0  0  0  0  0  0  0  0
    7.7373  -13.4851   15.1189 N   0  0  0  0  0  0  0  0  0  0  0  0
    7.7800  -13.9693   17.3905 N   0  0  0  0  0  0  0  0  0  0  0  0
    7.9768  -14.8840   18.4564 C   0  0  0  0  0  0  0  0  0  0  0  0
    9.0088  -15.9411   18.2566 C   0  0  0  0  0  0  0  0  0  0  0  0
   10.1772  -15.7564   19.1578 C   0  0  0  0  0  0  0  0  0  0  0  0
   10.0450  -16.5675   20.4407 C   0  0  2  0  0  0  0  0  0  0  0  0
    8.9418  -17.4956   20.3563 N   0  0  0  0  0  0  0  0  0  0  0  0
    9.9433  -15.6789   21.6254 C   0  0  0  0  0  0  0  0  0  0  0  0
   10.9405  -14.9684   21.9113 O   0  0  0  0  0  0  0  0  0  0  0  0
    7.0648  -12.7401   15.3245 O   0  0  0  0  0  0  0  0  0  0  0  0
    5.9373  -11.6939   28.6183 C   0  0  0  0  0  0  0  0  0  0  0  0
    6.2919  -12.2978   27.4159 C   0  0  0  0  0  0  0  0  0  0  0  0
    7.0739  -11.6471   26.5015 C   0  0  0  0  0  0  0  0  0  0  0  0
    7.3990  -12.2960   25.3161 C   0  0  0  0  0  0  0  0  0  0  0  0
    6.9747  -13.5571   25.0173 C   0  0  0  0  0  0  0  0  0  0  0  0
    7.2865  -14.2987   23.7908 C   0  0  1  0  0  0  0  0  0  0  0  0
    8.6874  -14.7897   23.6472 N   0  0  0  0  0  0  0  0  0  0  0  0
    8.7752  -15.6165   22.4194 C   0  0  0  0  0  0  0  0  0  0  0  0
    9.0719  -15.6740   24.7513 O   0  0  0  0  0  0  0  0  0  0  0  0
    9.1783  -15.1783   25.9150 C   0  0  0  0  0  0  0  0  0  0  0  0
    6.1770  -14.1812   25.9843 C   0  0  0  0  0  0  0  0  0  0  0  0
    5.8301  -13.5761   27.1728 N   0  0  0  0  0  0  0  0  0  0  0  0
    6.7041  -18.4085   26.9877 C   0  0  0  0  0  0  0  0  0  0  0  0
    7.4192  -18.8031   25.8456 O   0  0  0  0  0  0  0  0  0  0  0  0
    6.7969  -18.8745   24.7402 C   0  0  0  0  0  0  0  0  0  0  0  0
    8.8640  -19.1367   25.8848 C   0  0  2  0  0  0  0  0  0  0  0  0
    9.6841  -17.8472   25.8443 N   0  0  0  0  0  0  0  0  0  0  0  0
    9.3414  -17.0681   24.6752 C   0  0  0  0  0  0  0  0  0  0  0  0
   11.0977  -18.1221   26.0291 O   0  0  0  0  0  0  0  0  0  0  0  0
   12.1001  -17.8027   25.1434 O   0  0  0  0  0  0  0  0  0  0  0  0
  1  2  1  0
  2  3  2  0
  4  5  1  0
  4  2  1  0
  6  7  1  0
  6  5  1  0
  8 10  1  0
  8  7  1  0
  8  9  1  6
 10 11  2  0
 12 13  1  0
 13 23  2  0
 13 14  1  0
 14 15  2  0
 15 16  1  0
 16 17  1  0
 18 17  1  6
 19 18  1  0
 19 10  1  0
 20 21  2  0
 20 18  1  0
 22 16  2  0
 23 22  1  0
 24 25  1  0
 25 26  2  0
 25 27  1  0
 28 27  1  1
 28 30  1  0
 28 29  1  0
 29 20  1  0
 30 31  1  0
 32 30  2  0
M  END
$$$$
