RYN.pdb
     RDKit          3D

 32 32  0  0  1  0  0  0  0  0999 V2000
    6.7231  -12.9189   18.3787 N   0  0  0  0  0  0  0  0  0  0  0  0
    8.0536  -13.0027   18.8693 C   0  0  0  0  0  0  0  0  0  0  0  0
    8.8283  -11.9902   18.7185 N   0  0  0  0  0  0  0  0  0  0  0  0
    8.5595  -14.1534   19.5214 N   0  0  0  0  0  0  0  0  0  0  0  0
    7.7682  -15.2976   19.7976 C   0  0  0  0  0  0  0  0  0  0  0  0
    7.6231  -15.6881   21.2290 C   0  0  0  0  0  0  0  0  0  0  0  0
    8.9115  -15.5938   21.9656 C   0  0  0  0  0  0  0  0  0  0  0  0
    9.1018  -16.7515   22.9375 C   0  0  2  0  0  0  0  0  0  0  0  0
    7.8666  -17.4740   23.1319 N   0  0  0  0  0  0  0  0  0  0  0  0
    9.6865  -16.2818   24.2185 C   0  0  0  0  0  0  0  0  0  0  0  0
   10.7132  -15.5582   24.1626 O   0  0  0  0  0  0  0  0  0  0  0  0
    9.8111  -12.0416   19.0033 O   0  0  0  0  0  0  0  0  0  0  0  0
    6.1669  -11.1805   25.0497 C   0  0  0  0  0  0  0  0  0  0  0  0
    6.7616  -12.2737   25.6722 C   0  0  0  0  0  0  0  0  0  0  0  0
    6.0649  -13.4315   25.8851 C   0  0  0  0  0  0  0  0  0  0  0  0
    6.7066  -14.4936   26.5113 C   0  0  0  0  0  0  0  0  0  0  0  0
    8.0044  -14.4388   26.9266 C   0  0  0  0  0  0  0  0  0  0  0  0
    8.7403  -15.5229   27.5858 C   0  0  2  0  0  0  0  0  0  0  0  0
    9.7525  -16.2403   26.7581 N   0  0  0  0  0  0  0  0  0  0  0  0
    9.1249  -16.6231   25.4702 C   0  0  0  0  0  0  0  0  0  0  0  0
   10.1776  -17.4963   27.3830 O   0  0  0  0  0  0  0  0  0  0  0  0
   10.8578  -17.4402   28.4533 C   0  0  0  0  0  0  0  0  0  0  0  0
    8.6748  -13.2330   26.6867 C   0  0  0  0  0  0  0  0  0  0  0  0
    8.0787  -12.1548   26.0695 N   0  0  0  0  0  0  0  0  0  0  0  0
   12.3380  -21.5609   24.1588 C   0  0  0  0  0  0  0  0  0  0  0  0
   12.6232  -20.4211   24.9275 O   0  0  0  0  0  0  0  0  0  0  0  0
   13.8111  -20.2605   25.3489 C   0  0  0  0  0  0  0  0  0  0  0  0
   11.5943  -19.4063   25.2617 C   0  0  1  0  0  0  0  0  0  0  0  0
   10.9607  -19.7505   26.6097 N   0  0  0  0  0  0  0  0  0  0  0  0
    9.9044  -18.8143   26.9242 C   0  0  0  0  0  0  0  0  0  0  0  0
   11.9753  -19.9265   27.6331 O   0  0  0  0  0  0  0  0  0  0  0  0
   12.3614  -21.1267   28.1827 O   0  0  0  0  0  0  0  0  0  0  0  0
  1  2  1  0
  2  3  2  0
  4  5  1  0
  4  2  1  0
  6  7  1  0
  6  5  1  0
  8 10  1  0
  8  7  1  0
  8  9  1  1
 10 11  2  0
 12 13  1  0
 13 23  2  0
 13 14  1  0
 14 15  2  0
 15 16  1  0
 16 17  1  0
 18 17  1  6
 19 18  1  0
 19 10  1  0
 20 21  2  0
 20 18  1  0
 22 16  2  0
 23 22  1  0
 24 25  1  0
 25 26  2  0
 25 27  1  0
 28 27  1  6
 28 30  1  0
 28 29  1  0
 29 20  1  0
 30 31  1  0
 32 30  2  0
M  END
$$$$
