RYN.pdb
     RDKit          3D

 32 32  0  0  1  0  0  0  0  0999 V2000
    8.5217  -19.6485   19.6350 N   0  0  0  0  0  0  0  0  0  0  0  0
    9.4802  -19.2831   18.6523 C   0  0  0  0  0  0  0  0  0  0  0  0
    9.7326  -20.1103   17.7034 N   0  0  0  0  0  0  0  0  0  0  0  0
   10.1652  -18.0439   18.6727 N   0  0  0  0  0  0  0  0  0  0  0  0
   10.6564  -17.4501   19.8633 C   0  0  0  0  0  0  0  0  0  0  0  0
    9.7715  -17.5094   21.0617 C   0  0  0  0  0  0  0  0  0  0  0  0
   10.3016  -16.6936   22.1864 C   0  0  0  0  0  0  0  0  0  0  0  0
   11.4751  -17.3714   22.8825 C   0  0  2  0  0  0  0  0  0  0  0  0
   11.0306  -18.4951   23.6731 N   0  0  0  0  0  0  0  0  0  0  0  0
   12.2571  -16.3953   23.6819 C   0  0  0  0  0  0  0  0  0  0  0  0
   12.6866  -15.3693   23.0956 O   0  0  0  0  0  0  0  0  0  0  0  0
   10.4177  -19.8756   16.9788 O   0  0  0  0  0  0  0  0  0  0  0  0
    8.1547  -13.1975   28.4290 C   0  0  0  0  0  0  0  0  0  0  0  0
    9.3421  -13.8652   28.1453 C   0  0  0  0  0  0  0  0  0  0  0  0
    9.3939  -15.2317   28.1112 C   0  0  0  0  0  0  0  0  0  0  0  0
   10.6055  -15.8488   27.8228 C   0  0  0  0  0  0  0  0  0  0  0  0
   11.7525  -15.1556   27.5704 C   0  0  0  0  0  0  0  0  0  0  0  0
   13.0582  -15.7441   27.2542 C   0  0  2  0  0  0  0  0  0  0  0  0
   13.4629  -15.7354   25.8188 N   0  0  0  0  0  0  0  0  0  0  0  0
   12.5216  -16.5911   25.0568 C   0  0  0  0  0  0  0  0  0  0  0  0
   14.7890  -16.3281   25.6218 O   0  0  0  0  0  0  0  0  0  0  0  0
   15.7962  -15.7375   26.1197 C   0  0  0  0  0  0  0  0  0  0  0  0
   11.6486  -13.7599   27.6173 C   0  0  0  0  0  0  0  0  0  0  0  0
   10.4688  -13.1060   27.8990 N   0  0  0  0  0  0  0  0  0  0  0  0
   17.0608  -21.4881   26.1187 C   0  0  0  0  0  0  0  0  0  0  0  0
   16.4674  -20.2291   25.9338 O   0  0  0  0  0  0  0  0  0  0  0  0
   15.9446  -19.6560   26.9400 C   0  0  0  0  0  0  0  0  0  0  0  0
   16.4302  -19.5506   24.6152 C   0  0  2  0  0  0  0  0  0  0  0  0
   16.4435  -18.0361   24.8230 N   0  0  0  0  0  0  0  0  0  0  0  0
   15.0929  -17.5291   24.9236 C   0  0  0  0  0  0  0  0  0  0  0  0
   17.2930  -17.3827   23.8436 O   0  0  0  0  0  0  0  0  0  0  0  0
   18.6680  -17.3628   23.8596 O   0  0  0  0  0  0  0  0  0  0  0  0
  1  2  1  0
  2  3  2  0
  4  5  1  0
  4  2  1  0
  6  7  1  0
  6  5  1  0
  8 10  1  0
  8  7  1  0
  8  9  1  1
 10 11  2  0
 12 13  1  0
 13 23  2  0
 13 14  1  0
 14 15  2  0
 15 16  1  0
 16 17  1  0
 18 17  1  6
 19 18  1  0
 19 10  1  0
 20 21  2  0
 20 18  1  0
 22 16  2  0
 23 22  1  0
 24 25  1  0
 25 26  2  0
 25 27  1  0
 28 27  1  1
 28 30  1  0
 28 29  1  0
 29 20  1  0
 30 31  1  0
 32 30  2  0
M  END
$$$$
