KHQ.pdb
     RDKit          3D

 29 29  0  0  1  0  0  0  0  0999 V2000
   18.2209  -13.0389  -16.5024 N   0  0  0  0  0  0  0  0  0  0  0  0
   17.3865  -11.9478  -16.0371 C   0  0  1  0  0  0  0  0  0  0  0  0
   16.2848  -12.5432  -15.1888 C   0  0  0  0  0  0  0  0  0  0  0  0
   15.4238  -13.3966  -16.0952 C   0  0  0  0  0  0  0  0  0  0  0  0
   14.2526  -13.9554  -15.3417 C   0  0  0  0  0  0  0  0  0  0  0  0
   13.3838  -14.7937  -16.2206 C   0  0  0  0  0  0  0  0  0  0  0  0
   12.3604  -15.4745  -15.4483 N   0  0  0  0  0  0  0  0  0  0  0  0
   18.2114  -10.9828  -15.2418 C   0  0  0  0  0  0  0  0  0  0  0  0
   19.3480  -11.2626  -14.7816 O   0  0  0  0  0  0  0  0  0  0  0  0
   17.7080   -9.6784  -14.9797 N   0  0  0  0  0  0  0  0  0  0  0  0
   18.4336   -8.6409  -14.3289 C   0  0  1  0  0  0  0  0  0  0  0  0
   19.7941   -8.3949  -14.9069 C   0  0  0  0  0  0  0  0  0  0  0  0
   20.5211   -7.3149  -14.1936 C   0  0  0  0  0  0  0  0  0  0  0  0
   21.1694   -7.3717  -12.9778 C   0  0  0  0  0  0  0  0  0  0  0  0
   21.6902   -6.1466  -12.7159 N   0  0  0  0  0  0  0  0  0  0  0  0
   21.3820   -5.3372  -13.7341 C   0  0  0  0  0  0  0  0  0  0  0  0
   20.6777   -6.0435  -14.6231 N   0  0  0  0  0  0  0  0  0  0  0  0
   17.6682   -7.3489  -14.2404 C   0  0  0  0  0  0  0  0  0  0  0  0
   17.2085   -6.9254  -15.3290 O   0  0  0  0  0  0  0  0  0  0  0  0
   15.1456   -4.8853   -8.7908 N   0  0  0  0  0  0  0  0  0  0  0  0
   14.6524   -4.0836   -9.8808 C   0  0  0  0  0  0  0  0  0  0  0  0
   13.7817   -3.2448   -9.5762 O   0  0  0  0  0  0  0  0  0  0  0  0
   15.1855   -4.2867  -11.2556 C   0  0  0  0  0  0  0  0  0  0  0  0
   16.1377   -5.4294  -11.3791 C   0  0  0  0  0  0  0  0  0  0  0  0
   16.6498   -5.5394  -12.8008 C   0  0  2  0  0  0  0  0  0  0  0  0
   17.5090   -6.7043  -12.9964 N   0  0  0  0  0  0  0  0  0  0  0  0
   17.3555   -4.3081  -13.2208 C   0  0  0  0  0  0  0  0  0  0  0  0
   18.7127   -4.1310  -13.1243 O   0  0  0  0  0  0  0  0  0  0  0  0
   16.6653   -3.3694  -13.6946 O   0  0  0  0  0  0  0  0  0  0  0  0
  2  1  1  1
  2  8  1  0
  3  2  1  0
  3  4  1  0
  4  5  1  0
  5  6  1  0
  7  6  1  0
  8  9  2  0
 10  8  1  0
 10 11  1  0
 11 18  1  0
 11 12  1  6
 12 13  1  0
 13 17  1  0
 14 13  2  0
 14 15  1  0
 15 16  1  0
 17 16  2  0
 18 19  2  0
 20 21  1  0
 21 23  1  0
 22 21  2  0
 23 24  1  0
 25 24  1  1
 25 27  1  0
 26 25  1  0
 26 18  1  0
 27 28  1  0
 29 27  2  0
M  END
$$$$
