KHQ.pdb
     RDKit          3D

 29 29  0  0  1  0  0  0  0  0999 V2000
   19.0060  -15.3618  -17.0988 N   0  0  0  0  0  0  0  0  0  0  0  0
   20.0670  -14.6726  -17.8078 C   0  0  1  0  0  0  0  0  0  0  0  0
   19.9818  -15.0750  -19.2634 C   0  0  0  0  0  0  0  0  0  0  0  0
   19.9969  -16.5876  -19.3186 C   0  0  0  0  0  0  0  0  0  0  0  0
   21.3139  -17.0860  -19.8373 C   0  0  0  0  0  0  0  0  0  0  0  0
   21.3587  -18.5781  -19.8777 C   0  0  0  0  0  0  0  0  0  0  0  0
   22.6196  -19.0489  -20.4218 N   0  0  0  0  0  0  0  0  0  0  0  0
   19.9018  -13.1919  -17.6519 C   0  0  0  0  0  0  0  0  0  0  0  0
   20.6747  -12.3521  -18.1802 O   0  0  0  0  0  0  0  0  0  0  0  0
   18.8255  -12.6837  -16.8729 N   0  0  0  0  0  0  0  0  0  0  0  0
   18.5154  -11.3033  -16.7147 C   0  0  1  0  0  0  0  0  0  0  0  0
   17.1240  -11.0449  -16.2220 C   0  0  0  0  0  0  0  0  0  0  0  0
   16.8362   -9.5949  -16.0853 C   0  0  0  0  0  0  0  0  0  0  0  0
   16.9924   -8.7875  -14.9784 C   0  0  0  0  0  0  0  0  0  0  0  0
   16.6013   -7.5312  -15.3098 N   0  0  0  0  0  0  0  0  0  0  0  0
   16.2092   -7.5412  -16.5877 C   0  0  0  0  0  0  0  0  0  0  0  0
   16.3518   -8.7856  -17.0526 N   0  0  0  0  0  0  0  0  0  0  0  0
   19.5112  -10.5670  -15.8607 C   0  0  0  0  0  0  0  0  0  0  0  0
   19.9293  -11.2012  -14.8615 O   0  0  0  0  0  0  0  0  0  0  0  0
   24.8313   -9.1547  -17.7266 N   0  0  0  0  0  0  0  0  0  0  0  0
   24.7943   -8.3690  -16.5202 C   0  0  0  0  0  0  0  0  0  0  0  0
   25.8864   -7.8842  -16.1644 O   0  0  0  0  0  0  0  0  0  0  0  0
   23.5097   -8.1822  -15.7920 C   0  0  0  0  0  0  0  0  0  0  0  0
   22.3481   -8.8855  -16.4116 C   0  0  0  0  0  0  0  0  0  0  0  0
   21.0804   -8.6000  -15.6325 C   0  0  2  0  0  0  0  0  0  0  0  0
   19.9110   -9.2599  -16.2073 N   0  0  0  0  0  0  0  0  0  0  0  0
   20.8359   -7.1457  -15.5070 C   0  0  0  0  0  0  0  0  0  0  0  0
   21.2805   -6.3807  -14.4585 O   0  0  0  0  0  0  0  0  0  0  0  0
   20.1800   -6.5807  -16.4196 O   0  0  0  0  0  0  0  0  0  0  0  0
  2  1  1  1
  2  8  1  0
  3  2  1  0
  3  4  1  0
  4  5  1  0
  5  6  1  0
  7  6  1  0
  8  9  2  0
 10  8  1  0
 10 11  1  0
 11 18  1  0
 11 12  1  1
 12 13  1  0
 13 17  1  0
 14 13  2  0
 14 15  1  0
 15 16  1  0
 17 16  2  0
 18 19  2  0
 20 21  1  0
 21 23  1  0
 22 21  2  0
 23 24  1  0
 25 24  1  6
 25 27  1  0
 26 25  1  0
 26 18  1  0
 27 28  1  0
 29 27  2  0
M  END
$$$$
