KHQ.pdb
     RDKit          3D

 29 29  0  0  1  0  0  0  0  0999 V2000
   21.9395  -15.9580  -19.7585 N   0  0  0  0  0  0  0  0  0  0  0  0
   21.2239  -14.7954  -19.2689 C   0  0  1  0  0  0  0  0  0  0  0  0
   19.8869  -15.2685  -18.7430 C   0  0  0  0  0  0  0  0  0  0  0  0
   19.2333  -16.0887  -19.8345 C   0  0  0  0  0  0  0  0  0  0  0  0
   17.8836  -16.5759  -19.3954 C   0  0  0  0  0  0  0  0  0  0  0  0
   17.2574  -17.4588  -20.4241 C   0  0  0  0  0  0  0  0  0  0  0  0
   16.0182  -18.0350  -19.9344 N   0  0  0  0  0  0  0  0  0  0  0  0
   22.0186  -14.1298  -18.1875 C   0  0  0  0  0  0  0  0  0  0  0  0
   22.9143  -14.7173  -17.5284 O   0  0  0  0  0  0  0  0  0  0  0  0
   21.7680  -12.7660  -17.8701 N   0  0  0  0  0  0  0  0  0  0  0  0
   22.6408  -11.9315  -17.1163 C   0  0  1  0  0  0  0  0  0  0  0  0
   24.0795  -12.0302  -17.5238 C   0  0  0  0  0  0  0  0  0  0  0  0
   24.9535  -11.1380  -16.7213 C   0  0  0  0  0  0  0  0  0  0  0  0
   24.5985  -10.2612  -15.7179 C   0  0  0  0  0  0  0  0  0  0  0  0
   25.7241   -9.6514  -15.2681 N   0  0  0  0  0  0  0  0  0  0  0  0
   26.7613  -10.1267  -15.9645 C   0  0  0  0  0  0  0  0  0  0  0  0
   26.2944  -11.0222  -16.8394 N   0  0  0  0  0  0  0  0  0  0  0  0
   22.2081  -10.4909  -17.0920 C   0  0  0  0  0  0  0  0  0  0  0  0
   22.2001   -9.9173  -18.2085 O   0  0  0  0  0  0  0  0  0  0  0  0
   17.5884   -8.8367  -13.4343 N   0  0  0  0  0  0  0  0  0  0  0  0
   18.8708   -8.8475  -12.7790 C   0  0  0  0  0  0  0  0  0  0  0  0
   18.8349   -8.9302  -11.5355 O   0  0  0  0  0  0  0  0  0  0  0  0
   20.1197   -8.7648  -13.5845 C   0  0  0  0  0  0  0  0  0  0  0  0
   19.8916   -8.6071  -15.0511 C   0  0  0  0  0  0  0  0  0  0  0  0
   21.2136   -8.5673  -15.7903 C   0  0  2  0  0  0  0  0  0  0  0  0
   21.8469   -9.8809  -15.8731 N   0  0  0  0  0  0  0  0  0  0  0  0
   22.1448   -7.5886  -15.1857 C   0  0  0  0  0  0  0  0  0  0  0  0
   21.9683   -6.2289  -15.2370 O   0  0  0  0  0  0  0  0  0  0  0  0
   23.1584   -8.0349  -14.5895 O   0  0  0  0  0  0  0  0  0  0  0  0
  2  1  1  1
  2  8  1  0
  3  2  1  0
  3  4  1  0
  4  5  1  0
  5  6  1  0
  7  6  1  0
  8  9  2  0
 10  8  1  0
 10 11  1  0
 11 18  1  0
 11 12  1  6
 12 13  1  0
 13 17  1  0
 14 13  2  0
 14 15  1  0
 15 16  1  0
 17 16  2  0
 18 19  2  0
 20 21  1  0
 21 23  1  0
 22 21  2  0
 23 24  1  0
 25 24  1  1
 25 27  1  0
 26 25  1  0
 26 18  1  0
 27 28  1  0
 29 27  2  0
M  END
$$$$
