KHQ.pdb
     RDKit          3D

 29 29  0  0  1  0  0  0  0  0999 V2000
   15.0658  -13.1937    3.6780 N   0  0  0  0  0  0  0  0  0  0  0  0
   14.9561  -14.2075    4.7094 C   0  0  1  0  0  0  0  0  0  0  0  0
   13.9779  -15.2530    4.2218 C   0  0  0  0  0  0  0  0  0  0  0  0
   12.5852  -14.6811    4.3791 C   0  0  0  0  0  0  0  0  0  0  0  0
   11.5486  -15.7007    4.0081 C   0  0  0  0  0  0  0  0  0  0  0  0
   10.1761  -15.1121    4.0051 C   0  0  0  0  0  0  0  0  0  0  0  0
    9.1725  -16.1265    3.7387 N   0  0  0  0  0  0  0  0  0  0  0  0
   16.3013  -14.8136    4.9690 C   0  0  0  0  0  0  0  0  0  0  0  0
   17.1065  -15.1235    4.0539 O   0  0  0  0  0  0  0  0  0  0  0  0
   16.7132  -15.0614    6.3078 N   0  0  0  0  0  0  0  0  0  0  0  0
   17.9796  -15.5904    6.6857 C   0  0  1  0  0  0  0  0  0  0  0  0
   18.7472  -14.7158    7.6298 C   0  0  0  0  0  0  0  0  0  0  0  0
   19.2327  -13.4739    6.9771 C   0  0  0  0  0  0  0  0  0  0  0  0
   19.0931  -13.0819    5.6624 C   0  0  0  0  0  0  0  0  0  0  0  0
   19.6963  -11.8759    5.5119 N   0  0  0  0  0  0  0  0  0  0  0  0
   20.2029  -11.5137    6.6947 C   0  0  0  0  0  0  0  0  0  0  0  0
   19.9222  -12.4781    7.5758 N   0  0  0  0  0  0  0  0  0  0  0  0
   17.8980  -16.9908    7.2288 C   0  0  0  0  0  0  0  0  0  0  0  0
   16.7416  -17.4759    7.2822 O   0  0  0  0  0  0  0  0  0  0  0  0
   16.6597  -21.3352    5.4001 N   0  0  0  0  0  0  0  0  0  0  0  0
   17.6191  -22.0374    6.2128 C   0  0  0  0  0  0  0  0  0  0  0  0
   17.3629  -23.2391    6.4242 O   0  0  0  0  0  0  0  0  0  0  0  0
   18.8169  -21.3244    6.7348 C   0  0  0  0  0  0  0  0  0  0  0  0
   18.7972  -19.8494    6.5076 C   0  0  0  0  0  0  0  0  0  0  0  0
   19.1515  -19.1133    7.7836 C   0  0  2  0  0  0  0  0  0  0  0  0
   19.0702  -17.6627    7.6325 N   0  0  0  0  0  0  0  0  0  0  0  0
   20.4909  -19.5007    8.2802 C   0  0  0  0  0  0  0  0  0  0  0  0
   20.7026  -20.4047    9.2903 O   0  0  0  0  0  0  0  0  0  0  0  0
   21.4934  -18.9662    7.7404 O   0  0  0  0  0  0  0  0  0  0  0  0
  2  1  1  6
  2  8  1  0
  3  2  1  0
  3  4  1  0
  4  5  1  0
  5  6  1  0
  7  6  1  0
  8  9  2  0
 10  8  1  0
 10 11  1  0
 11 18  1  0
 11 12  1  1
 12 13  1  0
 13 17  1  0
 14 13  2  0
 14 15  1  0
 15 16  1  0
 17 16  2  0
 18 19  2  0
 20 21  1  0
 21 23  1  0
 22 21  2  0
 23 24  1  0
 25 24  1  6
 25 27  1  0
 26 25  1  0
 26 18  1  0
 27 28  1  0
 29 27  2  0
M  END
$$$$
