KHQ.pdb
     RDKit          3D

 29 29  0  0  1  0  0  0  0  0999 V2000
   36.4075   -7.7403  -13.1711 N   0  0  0  0  0  0  0  0  0  0  0  0
   36.2395   -6.5379  -13.9643 C   0  0  1  0  0  0  0  0  0  0  0  0
   37.6108   -6.1004  -14.4290 C   0  0  0  0  0  0  0  0  0  0  0  0
   38.3426   -5.5444  -13.2263 C   0  0  0  0  0  0  0  0  0  0  0  0
   39.3958   -6.5043  -12.7561 C   0  0  0  0  0  0  0  0  0  0  0  0
   40.0849   -6.0053  -11.5289 C   0  0  0  0  0  0  0  0  0  0  0  0
   41.0014   -7.0003  -11.0024 N   0  0  0  0  0  0  0  0  0  0  0  0
   35.3448   -6.8221  -15.1318 C   0  0  0  0  0  0  0  0  0  0  0  0
   35.1405   -5.9992  -16.0607 O   0  0  0  0  0  0  0  0  0  0  0  0
   34.6811   -8.0773  -15.2186 N   0  0  0  0  0  0  0  0  0  0  0  0
   33.8892   -8.5053  -16.3214 C   0  0  1  0  0  0  0  0  0  0  0  0
   33.5426   -9.9629  -16.2922 C   0  0  0  0  0  0  0  0  0  0  0  0
   32.7405  -10.3738  -17.4718 C   0  0  0  0  0  0  0  0  0  0  0  0
   32.3025   -9.6003  -18.5261 C   0  0  0  0  0  0  0  0  0  0  0  0
   31.6004  -10.3942  -19.3732 N   0  0  0  0  0  0  0  0  0  0  0  0
   31.5931  -11.6334  -18.8720 C   0  0  0  0  0  0  0  0  0  0  0  0
   32.2807  -11.6184  -17.7265 N   0  0  0  0  0  0  0  0  0  0  0  0
   32.6448   -7.6817  -16.5116 C   0  0  0  0  0  0  0  0  0  0  0  0
   31.9252   -7.5586  -15.4906 O   0  0  0  0  0  0  0  0  0  0  0  0
   32.2141   -2.2470  -19.4525 N   0  0  0  0  0  0  0  0  0  0  0  0
   30.8545   -2.5647  -19.0995 C   0  0  0  0  0  0  0  0  0  0  0  0
   30.0377   -1.6311  -19.2243 O   0  0  0  0  0  0  0  0  0  0  0  0
   30.5081   -3.9326  -18.6259 C   0  0  0  0  0  0  0  0  0  0  0  0
   31.6733   -4.8610  -18.5347 C   0  0  0  0  0  0  0  0  0  0  0  0
   31.2337   -6.2104  -18.0041 C   0  0  2  0  0  0  0  0  0  0  0  0
   32.3588   -7.1117  -17.7693 N   0  0  0  0  0  0  0  0  0  0  0  0
   30.2450   -6.8506  -18.9003 C   0  0  0  0  0  0  0  0  0  0  0  0
   28.8992   -6.5848  -18.8725 O   0  0  0  0  0  0  0  0  0  0  0  0
   30.6686   -7.6889  -19.7370 O   0  0  0  0  0  0  0  0  0  0  0  0
  2  1  1  6
  2  8  1  0
  3  2  1  0
  3  4  1  0
  4  5  1  0
  5  6  1  0
  7  6  1  0
  8  9  2  0
 10  8  1  0
 10 11  1  0
 11 18  1  0
 11 12  1  1
 12 13  1  0
 13 17  1  0
 14 13  2  0
 14 15  1  0
 15 16  1  0
 17 16  2  0
 18 19  2  0
 20 21  1  0
 21 23  1  0
 22 21  2  0
 23 24  1  0
 25 24  1  6
 25 27  1  0
 26 25  1  0
 26 18  1  0
 27 28  1  0
 29 27  2  0
M  END
$$$$
