KHQ.pdb
     RDKit          3D

 29 29  0  0  1  0  0  0  0  0999 V2000
   19.7168  -12.5860  -15.2052 N   0  0  0  0  0  0  0  0  0  0  0  0
   19.2377  -11.4914  -16.0272 C   0  0  1  0  0  0  0  0  0  0  0  0
   17.7258  -11.5260  -16.0002 C   0  0  0  0  0  0  0  0  0  0  0  0
   17.2917  -12.8672  -16.5514 C   0  0  0  0  0  0  0  0  0  0  0  0
   15.7966  -12.9929  -16.5237 C   0  0  0  0  0  0  0  0  0  0  0  0
   15.3414  -14.2696  -17.1506 C   0  0  0  0  0  0  0  0  0  0  0  0
   13.8938  -14.3754  -17.1300 N   0  0  0  0  0  0  0  0  0  0  0  0
   19.7525  -10.1913  -15.4897 C   0  0  0  0  0  0  0  0  0  0  0  0
   19.4880   -9.7690  -14.3349 O   0  0  0  0  0  0  0  0  0  0  0  0
   20.5839   -9.3744  -16.3051 N   0  0  0  0  0  0  0  0  0  0  0  0
   21.0536   -8.0786  -15.9489 C   0  0  1  0  0  0  0  0  0  0  0  0
   22.4717   -7.8128  -16.3539 C   0  0  0  0  0  0  0  0  0  0  0  0
   23.4220   -8.7711  -15.7355 C   0  0  0  0  0  0  0  0  0  0  0  0
   23.1659   -9.7601  -14.8092 C   0  0  0  0  0  0  0  0  0  0  0  0
   24.3339  -10.3894  -14.5250 N   0  0  0  0  0  0  0  0  0  0  0  0
   25.3013   -9.8174  -15.2486 C   0  0  0  0  0  0  0  0  0  0  0  0
   24.7493   -8.8427  -15.9771 N   0  0  0  0  0  0  0  0  0  0  0  0
   20.1605   -6.9705  -16.4362 C   0  0  0  0  0  0  0  0  0  0  0  0
   19.5760   -7.1956  -17.5240 O   0  0  0  0  0  0  0  0  0  0  0  0
   15.7541   -5.3319  -17.7788 N   0  0  0  0  0  0  0  0  0  0  0  0
   15.7656   -4.0971  -17.0376 C   0  0  0  0  0  0  0  0  0  0  0  0
   14.8881   -3.2722  -17.3598 O   0  0  0  0  0  0  0  0  0  0  0  0
   16.7792   -3.8788  -15.9697 C   0  0  0  0  0  0  0  0  0  0  0  0
   17.6635   -5.0543  -15.7169 C   0  0  0  0  0  0  0  0  0  0  0  0
   19.1041   -4.7105  -16.0363 C   0  0  2  0  0  0  0  0  0  0  0  0
   20.0267   -5.7862  -15.6826 N   0  0  0  0  0  0  0  0  0  0  0  0
   19.5184   -3.4477  -15.3849 C   0  0  0  0  0  0  0  0  0  0  0  0
   20.0477   -3.3741  -14.1212 O   0  0  0  0  0  0  0  0  0  0  0  0
   19.3747   -2.3792  -16.0328 O   0  0  0  0  0  0  0  0  0  0  0  0
  2  1  1  1
  2  8  1  0
  3  2  1  0
  3  4  1  0
  4  5  1  0
  5  6  1  0
  7  6  1  0
  8  9  2  0
 10  8  1  0
 10 11  1  0
 11 18  1  0
 11 12  1  6
 12 13  1  0
 13 17  1  0
 14 13  2  0
 14 15  1  0
 15 16  1  0
 17 16  2  0
 18 19  2  0
 20 21  1  0
 21 23  1  0
 22 21  2  0
 23 24  1  0
 25 24  1  1
 25 27  1  0
 26 25  1  0
 26 18  1  0
 27 28  1  0
 29 27  2  0
M  END
$$$$
