KHQ.pdb
     RDKit          3D

 29 29  0  0  1  0  0  0  0  0999 V2000
   22.0758  -14.7995  -17.7857 N   0  0  0  0  0  0  0  0  0  0  0  0
   21.3644  -14.3604  -16.6005 C   0  0  1  0  0  0  0  0  0  0  0  0
   21.4107  -15.4887  -15.5942 C   0  0  0  0  0  0  0  0  0  0  0  0
   20.8694  -16.7276  -16.2748 C   0  0  0  0  0  0  0  0  0  0  0  0
   20.9816  -17.9206  -15.3714 C   0  0  0  0  0  0  0  0  0  0  0  0
   20.4672  -19.1582  -16.0300 C   0  0  0  0  0  0  0  0  0  0  0  0
   20.5168  -20.2918  -15.1245 N   0  0  0  0  0  0  0  0  0  0  0  0
   22.0106  -13.1261  -16.0501 C   0  0  0  0  0  0  0  0  0  0  0  0
   21.6436  -12.5731  -14.9817 O   0  0  0  0  0  0  0  0  0  0  0  0
   23.0954  -12.5295  -16.7506 N   0  0  0  0  0  0  0  0  0  0  0  0
   23.7679  -11.3404  -16.3503 C   0  0  1  0  0  0  0  0  0  0  0  0
   25.1902  -11.2598  -16.8152 C   0  0  0  0  0  0  0  0  0  0  0  0
   26.0200  -12.3688  -16.2810 C   0  0  0  0  0  0  0  0  0  0  0  0
   25.6779  -13.3289  -15.3521 C   0  0  0  0  0  0  0  0  0  0  0  0
   26.7502  -14.1384  -15.1625 N   0  0  0  0  0  0  0  0  0  0  0  0
   27.7421  -13.7054  -15.9471 C   0  0  0  0  0  0  0  0  0  0  0  0
   27.2996  -12.6393  -16.6200 N   0  0  0  0  0  0  0  0  0  0  0  0
   23.0285  -10.0861  -16.7286 C   0  0  0  0  0  0  0  0  0  0  0  0
   22.9367   -9.8724  -17.9621 O   0  0  0  0  0  0  0  0  0  0  0  0
   17.5903   -8.7567  -17.2106 N   0  0  0  0  0  0  0  0  0  0  0  0
   18.0686   -7.4084  -17.0452 C   0  0  0  0  0  0  0  0  0  0  0  0
   17.2311   -6.5127  -17.2706 O   0  0  0  0  0  0  0  0  0  0  0  0
   19.4767   -7.1632  -16.6297 C   0  0  0  0  0  0  0  0  0  0  0  0
   20.2529   -8.4044  -16.3389 C   0  0  0  0  0  0  0  0  0  0  0  0
   21.6933   -8.0633  -16.0152 C   0  0  2  0  0  0  0  0  0  0  0  0
   22.4966   -9.2486  -15.7266 N   0  0  0  0  0  0  0  0  0  0  0  0
   21.7848   -7.0995  -14.8957 C   0  0  0  0  0  0  0  0  0  0  0  0
   21.9540   -7.4620  -13.5832 O   0  0  0  0  0  0  0  0  0  0  0  0
   21.7020   -5.8745  -15.1686 O   0  0  0  0  0  0  0  0  0  0  0  0
  2  1  1  6
  2  8  1  0
  3  2  1  0
  3  4  1  0
  4  5  1  0
  5  6  1  0
  7  6  1  0
  8  9  2  0
 10  8  1  0
 10 11  1  0
 11 18  1  0
 11 12  1  6
 12 13  1  0
 13 17  1  0
 14 13  2  0
 14 15  1  0
 15 16  1  0
 17 16  2  0
 18 19  2  0
 20 21  1  0
 21 23  1  0
 22 21  2  0
 23 24  1  0
 25 24  1  1
 25 27  1  0
 26 25  1  0
 26 18  1  0
 27 28  1  0
 29 27  2  0
M  END
$$$$
