TVQ.pdb
     RDKit          3D

 24 23  0  0  1  0  0  0  0  0999 V2000
   20.4842  -19.6028  -16.5240 C   0  0  0  0  0  0  0  0  0  0  0  0
   21.9834  -19.7289  -16.7143 C   0  0  1  0  0  0  0  0  0  0  0  0
   22.4507  -18.9354  -17.7367 O   0  0  0  0  0  0  0  0  0  0  0  0
   22.7196  -19.4937  -15.4167 C   0  0  2  0  0  0  0  0  0  0  0  0
   24.1431  -19.6322  -15.6421 N   0  0  0  0  0  0  0  0  0  0  0  0
   22.2909  -20.3603  -14.3204 C   0  0  0  0  0  0  0  0  0  0  0  0
   22.8225  -21.5003  -14.1952 O   0  0  0  0  0  0  0  0  0  0  0  0
   22.1464  -19.6385  -10.4855 C   0  0  0  0  0  0  0  0  0  0  0  0
   20.8190  -20.1036  -10.9936 C   0  0  1  0  0  0  0  0  0  0  0  0
   19.7568  -19.0710  -11.0794 C   0  0  0  0  0  0  0  0  0  0  0  0
   20.9719  -20.9527  -12.2621 C   0  0  2  0  0  0  0  0  0  0  0  0
   21.3077  -20.0246  -13.3634 N   0  0  0  0  0  0  0  0  0  0  0  0
   19.7137  -21.6316  -12.5651 C   0  0  0  0  0  0  0  0  0  0  0  0
   18.8642  -21.1851  -13.4017 O   0  0  0  0  0  0  0  0  0  0  0  0
   18.4975  -27.6186  -10.9103 N   0  0  0  0  0  0  0  0  0  0  0  0
   17.2519  -27.2158  -11.4564 C   0  0  0  0  0  0  0  0  0  0  0  0
   16.3370  -28.0690  -11.5114 O   0  0  0  0  0  0  0  0  0  0  0  0
   17.0845  -25.8379  -11.9295 C   0  0  0  0  0  0  0  0  0  0  0  0
   18.2914  -24.9769  -11.7957 C   0  0  0  0  0  0  0  0  0  0  0  0
   18.1312  -23.5566  -12.2285 C   0  0  2  0  0  0  0  0  0  0  0  0
   19.3790  -22.8457  -11.9264 N   0  0  0  0  0  0  0  0  0  0  0  0
   17.0461  -22.8613  -11.5202 C   0  0  0  0  0  0  0  0  0  0  0  0
   15.7751  -22.8618  -12.0550 O   0  0  0  0  0  0  0  0  0  0  0  0
   17.2702  -22.2743  -10.4444 O   0  0  0  0  0  0  0  0  0  0  0  0
  2  3  1  0
  2  1  1  1
  4  2  1  0
  4  5  1  6
  6 12  1  0
  6  4  1  0
  7  6  2  0
  9  8  1  6
  9 11  1  0
  9 10  1  0
 11 12  1  6
 13 11  1  0
 14 13  2  0
 16 17  2  0
 16 15  1  0
 18 16  1  0
 19 18  1  0
 20 21  1  0
 20 19  1  1
 21 13  1  0
 22 20  1  0
 23 22  1  0
 24 22  2  0
M  END
$$$$
