TVQ.pdb
     RDKit          3D

 24 23  0  0  1  0  0  0  0  0999 V2000
   24.8497  -13.2889  -15.3428 C   0  0  0  0  0  0  0  0  0  0  0  0
   24.8875  -14.1454  -16.5936 C   0  0  1  0  0  0  0  0  0  0  0  0
   25.6322  -15.2898  -16.4231 O   0  0  0  0  0  0  0  0  0  0  0  0
   23.4940  -14.4323  -17.1005 C   0  0  2  0  0  0  0  0  0  0  0  0
   23.5744  -15.3010  -18.2561 N   0  0  0  0  0  0  0  0  0  0  0  0
   22.7143  -13.2367  -17.4154 C   0  0  0  0  0  0  0  0  0  0  0  0
   23.0513  -12.5273  -18.4059 O   0  0  0  0  0  0  0  0  0  0  0  0
   18.9288  -13.0120  -16.3624 C   0  0  0  0  0  0  0  0  0  0  0  0
   19.3990  -12.0150  -17.3732 C   0  0  1  0  0  0  0  0  0  0  0  0
   18.4732  -10.8909  -17.6580 C   0  0  0  0  0  0  0  0  0  0  0  0
   20.8455  -11.5826  -17.1013 C   0  0  2  0  0  0  0  0  0  0  0  0
   21.5867  -12.7939  -16.6890 N   0  0  0  0  0  0  0  0  0  0  0  0
   20.8797  -10.6001  -16.0199 C   0  0  0  0  0  0  0  0  0  0  0  0
   20.8600  -10.9187  -14.7873 O   0  0  0  0  0  0  0  0  0  0  0  0
   23.5778   -5.0340  -16.6841 N   0  0  0  0  0  0  0  0  0  0  0  0
   23.0630   -4.9201  -15.3673 C   0  0  0  0  0  0  0  0  0  0  0  0
   23.3557   -3.8925  -14.7144 O   0  0  0  0  0  0  0  0  0  0  0  0
   22.2213   -5.9928  -14.8277 C   0  0  0  0  0  0  0  0  0  0  0  0
   21.9696   -7.1240  -15.7620 C   0  0  0  0  0  0  0  0  0  0  0  0
   21.0978   -8.2190  -15.2414 C   0  0  2  0  0  0  0  0  0  0  0  0
   20.9392   -9.2183  -16.3044 N   0  0  0  0  0  0  0  0  0  0  0  0
   19.7529   -7.7531  -14.8714 C   0  0  0  0  0  0  0  0  0  0  0  0
   18.7546   -7.7335  -15.8224 O   0  0  0  0  0  0  0  0  0  0  0  0
   19.5139   -7.3774  -13.7079 O   0  0  0  0  0  0  0  0  0  0  0  0
  2  3  1  0
  2  1  1  1
  4  2  1  0
  4  5  1  6
  6 12  1  0
  6  4  1  0
  7  6  2  0
  9  8  1  1
  9 11  1  0
  9 10  1  0
 11 12  1  1
 13 11  1  0
 14 13  2  0
 16 17  2  0
 16 15  1  0
 18 16  1  0
 19 18  1  0
 20 21  1  0
 20 19  1  6
 21 13  1  0
 22 20  1  0
 23 22  1  0
 24 22  2  0
M  END
$$$$
