TVQ.pdb
     RDKit          3D

 24 23  0  0  1  0  0  0  0  0999 V2000
   20.0988  -14.8695  -17.8449 C   0  0  0  0  0  0  0  0  0  0  0  0
   20.2108  -16.1693  -17.0719 C   0  0  1  0  0  0  0  0  0  0  0  0
   19.7509  -17.2484  -17.7911 O   0  0  0  0  0  0  0  0  0  0  0  0
   21.6138  -16.3759  -16.5524 C   0  0  2  0  0  0  0  0  0  0  0  0
   21.6707  -17.6161  -15.8074 N   0  0  0  0  0  0  0  0  0  0  0  0
   22.1198  -15.2704  -15.7408 C   0  0  0  0  0  0  0  0  0  0  0  0
   21.5479  -15.0007  -14.6462 O   0  0  0  0  0  0  0  0  0  0  0  0
   25.5826  -13.3033  -16.7558 C   0  0  0  0  0  0  0  0  0  0  0  0
   25.0820  -13.0838  -15.3637 C   0  0  1  0  0  0  0  0  0  0  0  0
   25.5902  -11.8729  -14.6727 C   0  0  0  0  0  0  0  0  0  0  0  0
   23.5603  -13.2600  -15.2823 C   0  0  2  0  0  0  0  0  0  0  0  0
   23.2220  -14.4562  -16.0833 N   0  0  0  0  0  0  0  0  0  0  0  0
   22.8897  -12.0909  -15.8474 C   0  0  0  0  0  0  0  0  0  0  0  0
   22.7268  -11.9171  -17.0981 O   0  0  0  0  0  0  0  0  0  0  0  0
   17.4443  -10.6892  -15.4418 N   0  0  0  0  0  0  0  0  0  0  0  0
   17.8649   -9.3665  -15.7347 C   0  0  0  0  0  0  0  0  0  0  0  0
   16.9793   -8.4959  -15.8947 O   0  0  0  0  0  0  0  0  0  0  0  0
   19.2978   -9.0727  -15.8386 C   0  0  0  0  0  0  0  0  0  0  0  0
   20.1984  -10.2004  -15.4735 C   0  0  0  0  0  0  0  0  0  0  0  0
   21.6626   -9.9166  -15.5474 C   0  0  2  0  0  0  0  0  0  0  0  0
   22.3788  -11.0780  -15.0068 N   0  0  0  0  0  0  0  0  0  0  0  0
   22.0596   -8.7454  -14.7516 C   0  0  0  0  0  0  0  0  0  0  0  0
   21.8931   -7.4802  -15.2741 O   0  0  0  0  0  0  0  0  0  0  0  0
   22.5439   -8.8916  -13.6131 O   0  0  0  0  0  0  0  0  0  0  0  0
  2  3  1  0
  2  1  1  6
  4  2  1  0
  4  5  1  1
  6 12  1  0
  6  4  1  0
  7  6  2  0
  9  8  1  6
  9 11  1  0
  9 10  1  0
 11 12  1  6
 13 11  1  0
 14 13  2  0
 16 17  2  0
 16 15  1  0
 18 16  1  0
 19 18  1  0
 20 21  1  0
 20 19  1  1
 21 13  1  0
 22 20  1  0
 23 22  1  0
 24 22  2  0
M  END
$$$$
