TVQ.pdb
     RDKit          3D

 24 23  0  0  1  0  0  0  0  0999 V2000
   17.6457  -11.5313  -19.7686 C   0  0  0  0  0  0  0  0  0  0  0  0
   18.1644  -10.7136  -18.6016 C   0  0  1  0  0  0  0  0  0  0  0  0
   17.2426   -9.7955  -18.1537 O   0  0  0  0  0  0  0  0  0  0  0  0
   18.6769  -11.6054  -17.4956 C   0  0  2  0  0  0  0  0  0  0  0  0
   17.5875  -12.4131  -16.9884 N   0  0  0  0  0  0  0  0  0  0  0  0
   19.3304  -10.8874  -16.4028 C   0  0  0  0  0  0  0  0  0  0  0  0
   18.6628  -10.6076  -15.3665 O   0  0  0  0  0  0  0  0  0  0  0  0
   23.3601  -10.7882  -15.9945 C   0  0  0  0  0  0  0  0  0  0  0  0
   22.5137  -10.3915  -14.8272 C   0  0  1  0  0  0  0  0  0  0  0  0
   23.2196   -9.7136  -13.7119 C   0  0  0  0  0  0  0  0  0  0  0  0
   21.2318   -9.6816  -15.2814 C   0  0  2  0  0  0  0  0  0  0  0  0
   20.6792  -10.4683  -16.4051 N   0  0  0  0  0  0  0  0  0  0  0  0
   21.5439   -8.3300  -15.7414 C   0  0  0  0  0  0  0  0  0  0  0  0
   22.1017   -8.0851  -16.8593 O   0  0  0  0  0  0  0  0  0  0  0  0
   18.3849   -3.4123  -14.6907 N   0  0  0  0  0  0  0  0  0  0  0  0
   19.4115   -2.8385  -15.4837 C   0  0  0  0  0  0  0  0  0  0  0  0
   19.4069   -1.5951  -15.6316 O   0  0  0  0  0  0  0  0  0  0  0  0
   20.4233   -3.7085  -16.0918 C   0  0  0  0  0  0  0  0  0  0  0  0
   20.2988   -5.1517  -15.7489 C   0  0  0  0  0  0  0  0  0  0  0  0
   21.5660   -5.8435  -15.3671 C   0  0  2  0  0  0  0  0  0  0  0  0
   21.2295   -7.2079  -14.9440 N   0  0  0  0  0  0  0  0  0  0  0  0
   22.2577   -5.1927  -14.2444 C   0  0  0  0  0  0  0  0  0  0  0  0
   23.1276   -4.1519  -14.4929 O   0  0  0  0  0  0  0  0  0  0  0  0
   22.0620   -5.5767  -13.0755 O   0  0  0  0  0  0  0  0  0  0  0  0
  2  3  1  0
  2  1  1  6
  4  2  1  0
  4  5  1  1
  6 12  1  0
  6  4  1  0
  7  6  2  0
  9  8  1  6
  9 11  1  0
  9 10  1  0
 11 12  1  6
 13 11  1  0
 14 13  2  0
 16 17  2  0
 16 15  1  0
 18 16  1  0
 19 18  1  0
 20 21  1  0
 20 19  1  1
 21 13  1  0
 22 20  1  0
 23 22  1  0
 24 22  2  0
M  END
$$$$
