TVQ.pdb
     RDKit          3D

 24 23  0  0  1  0  0  0  0  0999 V2000
   28.4418  -18.0635  -15.8733 C   0  0  0  0  0  0  0  0  0  0  0  0
   27.2596  -18.8350  -15.3195 C   0  0  1  0  0  0  0  0  0  0  0  0
   26.2483  -18.9778  -16.2415 O   0  0  0  0  0  0  0  0  0  0  0  0
   27.6971  -20.1558  -14.7318 C   0  0  2  0  0  0  0  0  0  0  0  0
   28.2152  -21.0011  -15.7869 N   0  0  0  0  0  0  0  0  0  0  0  0
   26.6515  -20.8544  -13.9865 C   0  0  0  0  0  0  0  0  0  0  0  0
   26.0618  -21.8329  -14.5274 O   0  0  0  0  0  0  0  0  0  0  0  0
   26.5277  -21.7461  -10.1488 C   0  0  0  0  0  0  0  0  0  0  0  0
   25.2339  -21.1158  -10.5556 C   0  0  1  0  0  0  0  0  0  0  0  0
   24.9326  -19.7968   -9.9463 C   0  0  0  0  0  0  0  0  0  0  0  0
   25.0433  -21.1619  -12.0771 C   0  0  2  0  0  0  0  0  0  0  0  0
   26.2323  -20.5214  -12.6794 N   0  0  0  0  0  0  0  0  0  0  0  0
   23.8452  -20.4151  -12.4546 C   0  0  0  0  0  0  0  0  0  0  0  0
   23.8616  -19.1802  -12.7639 O   0  0  0  0  0  0  0  0  0  0  0  0
   22.3437  -21.0139  -17.4452 N   0  0  0  0  0  0  0  0  0  0  0  0
   21.0844  -20.4584  -17.1022 C   0  0  0  0  0  0  0  0  0  0  0  0
   20.3002  -20.1726  -18.0356 O   0  0  0  0  0  0  0  0  0  0  0  0
   20.7531  -20.2421  -15.6901 C   0  0  0  0  0  0  0  0  0  0  0  0
   21.8176  -20.6372  -14.7275 C   0  0  0  0  0  0  0  0  0  0  0  0
   21.4718  -20.5036  -13.2809 C   0  0  2  0  0  0  0  0  0  0  0  0
   22.5844  -21.0498  -12.4951 N   0  0  0  0  0  0  0  0  0  0  0  0
   20.2618  -21.2526  -12.9100 C   0  0  0  0  0  0  0  0  0  0  0  0
   19.0257  -20.6558  -13.0416 O   0  0  0  0  0  0  0  0  0  0  0  0
   20.3493  -22.4181  -12.4789 O   0  0  0  0  0  0  0  0  0  0  0  0
  2  3  1  0
  2  1  1  6
  4  2  1  0
  4  5  1  6
  6 12  1  0
  6  4  1  0
  7  6  2  0
  9  8  1  6
  9 11  1  0
  9 10  1  0
 11 12  1  6
 13 11  1  0
 14 13  2  0
 16 17  2  0
 16 15  1  0
 18 16  1  0
 19 18  1  0
 20 21  1  0
 20 19  1  6
 21 13  1  0
 22 20  1  0
 23 22  1  0
 24 22  2  0
M  END
$$$$
