TVQ.pdb
     RDKit          3D

 24 23  0  0  1  0  0  0  0  0999 V2000
   21.9183  -11.5324  -19.8049 C   0  0  0  0  0  0  0  0  0  0  0  0
   21.8893  -12.9320  -19.2217 C   0  0  1  0  0  0  0  0  0  0  0  0
   21.6724  -13.8951  -20.1802 O   0  0  0  0  0  0  0  0  0  0  0  0
   23.1247  -13.2048  -18.3968 C   0  0  2  0  0  0  0  0  0  0  0  0
   23.0886  -14.5708  -17.9180 N   0  0  0  0  0  0  0  0  0  0  0  0
   23.3156  -12.2791  -17.2817 C   0  0  0  0  0  0  0  0  0  0  0  0
   22.5050  -12.3106  -16.3122 O   0  0  0  0  0  0  0  0  0  0  0  0
   26.5494  -11.1930  -15.1936 C   0  0  0  0  0  0  0  0  0  0  0  0
   25.8556  -10.0212  -15.8118 C   0  0  1  0  0  0  0  0  0  0  0  0
   26.5664   -9.3627  -16.9356 C   0  0  0  0  0  0  0  0  0  0  0  0
   24.3810  -10.3318  -16.0985 C   0  0  2  0  0  0  0  0  0  0  0  0
   24.3554  -11.3274  -17.1916 N   0  0  0  0  0  0  0  0  0  0  0  0
   23.6882   -9.1192  -16.5292 C   0  0  0  0  0  0  0  0  0  0  0  0
   23.5725   -8.7785  -17.7504 O   0  0  0  0  0  0  0  0  0  0  0  0
   18.5115   -8.3426  -17.4857 N   0  0  0  0  0  0  0  0  0  0  0  0
   18.6927   -6.9566  -17.2444 C   0  0  0  0  0  0  0  0  0  0  0  0
   17.7292   -6.1932  -17.4828 O   0  0  0  0  0  0  0  0  0  0  0  0
   19.9808   -6.4767  -16.7337 C   0  0  0  0  0  0  0  0  0  0  0  0
   20.9688   -7.5446  -16.4185 C   0  0  0  0  0  0  0  0  0  0  0  0
   22.3220   -7.0771  -15.9937 C   0  0  2  0  0  0  0  0  0  0  0  0
   23.1006   -8.2514  -15.5829 N   0  0  0  0  0  0  0  0  0  0  0  0
   22.2760   -6.1568  -14.8475 C   0  0  0  0  0  0  0  0  0  0  0  0
   21.9133   -4.8413  -15.0459 O   0  0  0  0  0  0  0  0  0  0  0  0
   22.5626   -6.5595  -13.7040 O   0  0  0  0  0  0  0  0  0  0  0  0
  2  3  1  0
  2  1  1  6
  4  2  1  0
  4  5  1  1
  6 12  1  0
  6  4  1  0
  7  6  2  0
  9  8  1  6
  9 11  1  0
  9 10  1  0
 11 12  1  6
 13 11  1  0
 14 13  2  0
 16 17  2  0
 16 15  1  0
 18 16  1  0
 19 18  1  0
 20 21  1  0
 20 19  1  1
 21 13  1  0
 22 20  1  0
 23 22  1  0
 24 22  2  0
M  END
$$$$
