TVQ.pdb
     RDKit          3D

 24 23  0  0  1  0  0  0  0  0999 V2000
   23.7782  -11.6086  -20.8625 C   0  0  0  0  0  0  0  0  0  0  0  0
   23.7628  -13.0414  -20.3662 C   0  0  1  0  0  0  0  0  0  0  0  0
   24.1106  -13.9402  -21.3483 O   0  0  0  0  0  0  0  0  0  0  0  0
   24.5997  -13.1955  -19.1185 C   0  0  2  0  0  0  0  0  0  0  0  0
   24.5726  -14.5788  -18.6916 N   0  0  0  0  0  0  0  0  0  0  0  0
   24.2036  -12.3158  -18.0203 C   0  0  0  0  0  0  0  0  0  0  0  0
   23.1522  -12.5805  -17.3705 O   0  0  0  0  0  0  0  0  0  0  0  0
   25.7707  -11.4469  -14.7455 C   0  0  0  0  0  0  0  0  0  0  0  0
   25.5515  -10.1730  -15.4977 C   0  0  1  0  0  0  0  0  0  0  0  0
   26.7686   -9.5193  -16.0392 C   0  0  0  0  0  0  0  0  0  0  0  0
   24.4102  -10.3125  -16.5132 C   0  0  2  0  0  0  0  0  0  0  0  0
   24.9134  -11.1648  -17.6119 N   0  0  0  0  0  0  0  0  0  0  0  0
   24.0481   -8.9996  -17.0433 C   0  0  0  0  0  0  0  0  0  0  0  0
   24.6714   -8.4380  -18.0009 O   0  0  0  0  0  0  0  0  0  0  0  0
   22.5293   -6.6862  -20.8220 N   0  0  0  0  0  0  0  0  0  0  0  0
   21.5691   -5.8109  -20.2528 C   0  0  0  0  0  0  0  0  0  0  0  0
   21.1939   -4.8328  -20.9387 O   0  0  0  0  0  0  0  0  0  0  0  0
   21.0601   -6.0791  -18.9039 C   0  0  0  0  0  0  0  0  0  0  0  0
   21.6495   -7.2716  -18.2358 C   0  0  0  0  0  0  0  0  0  0  0  0
   22.5320   -6.9934  -17.0637 C   0  0  2  0  0  0  0  0  0  0  0  0
   22.9607   -8.2797  -16.5018 N   0  0  0  0  0  0  0  0  0  0  0  0
   21.8467   -6.2527  -15.9940 C   0  0  0  0  0  0  0  0  0  0  0  0
   21.9404   -4.8776  -15.9515 O   0  0  0  0  0  0  0  0  0  0  0  0
   21.1855   -6.8601  -15.1303 O   0  0  0  0  0  0  0  0  0  0  0  0
  2  3  1  0
  2  1  1  6
  4  2  1  0
  4  5  1  1
  6 12  1  0
  6  4  1  0
  7  6  2  0
  9  8  1  6
  9 11  1  0
  9 10  1  0
 11 12  1  6
 13 11  1  0
 14 13  2  0
 16 17  2  0
 16 15  1  0
 18 16  1  0
 19 18  1  0
 20 21  1  0
 20 19  1  6
 21 13  1  0
 22 20  1  0
 23 22  1  0
 24 22  2  0
M  END
$$$$
