TVQ.pdb
     RDKit          3D

 24 23  0  0  1  0  0  0  0  0999 V2000
   12.8755  -12.3816  -11.4551 C   0  0  0  0  0  0  0  0  0  0  0  0
   13.1664  -11.0369  -10.8172 C   0  0  1  0  0  0  0  0  0  0  0  0
   12.8365  -11.0076   -9.4818 O   0  0  0  0  0  0  0  0  0  0  0  0
   14.5931  -10.6104  -11.0701 C   0  0  2  0  0  0  0  0  0  0  0  0
   15.4616  -11.2465  -10.1020 N   0  0  0  0  0  0  0  0  0  0  0  0
   14.7948   -9.1626  -11.0616 C   0  0  0  0  0  0  0  0  0  0  0  0
   14.2765   -8.4652  -11.9797 O   0  0  0  0  0  0  0  0  0  0  0  0
   13.7358   -6.4791   -8.5759 C   0  0  0  0  0  0  0  0  0  0  0  0
   15.2220   -6.4711   -8.7421 C   0  0  1  0  0  0  0  0  0  0  0  0
   16.0050   -7.0547   -7.6249 C   0  0  0  0  0  0  0  0  0  0  0  0
   15.6324   -6.9817  -10.1293 C   0  0  2  0  0  0  0  0  0  0  0  0
   15.5386   -8.4570  -10.0900 N   0  0  0  0  0  0  0  0  0  0  0  0
   17.0100   -6.5898  -10.4199 C   0  0  0  0  0  0  0  0  0  0  0  0
   18.0167   -7.0751   -9.8099 O   0  0  0  0  0  0  0  0  0  0  0  0
   21.8083   -8.4394  -14.5856 N   0  0  0  0  0  0  0  0  0  0  0  0
   20.6204   -8.2703  -13.8291 C   0  0  0  0  0  0  0  0  0  0  0  0
   19.9233   -9.2860  -13.6047 O   0  0  0  0  0  0  0  0  0  0  0  0
   20.2580   -6.9339  -13.3463 C   0  0  0  0  0  0  0  0  0  0  0  0
   18.9703   -6.8624  -12.6029 C   0  0  0  0  0  0  0  0  0  0  0  0
   18.6177   -5.5269  -12.0351 C   0  0  2  0  0  0  0  0  0  0  0  0
   17.2902   -5.6312  -11.4181 N   0  0  0  0  0  0  0  0  0  0  0  0
   18.5464   -4.4713  -13.0566 C   0  0  0  0  0  0  0  0  0  0  0  0
   17.3172   -4.0730  -13.5381 O   0  0  0  0  0  0  0  0  0  0  0  0
   19.5874   -3.9388  -13.4865 O   0  0  0  0  0  0  0  0  0  0  0  0
  2  3  1  0
  2  1  1  1
  4  2  1  0
  4  5  1  1
  6 12  1  0
  6  4  1  0
  7  6  2  0
  9  8  1  1
  9 11  1  0
  9 10  1  0
 11 12  1  1
 13 11  1  0
 14 13  2  0
 16 17  2  0
 16 15  1  0
 18 16  1  0
 19 18  1  0
 20 21  1  0
 20 19  1  6
 21 13  1  0
 22 20  1  0
 23 22  1  0
 24 22  2  0
M  END
$$$$
