TVQ.pdb
     RDKit          3D

 24 23  0  0  1  0  0  0  0  0999 V2000
   25.6945  -12.8472  -15.4521 C   0  0  0  0  0  0  0  0  0  0  0  0
   25.3580  -13.8702  -16.5198 C   0  0  1  0  0  0  0  0  0  0  0  0
   26.0079  -15.0669  -16.3228 O   0  0  0  0  0  0  0  0  0  0  0  0
   23.8639  -14.0399  -16.6611 C   0  0  2  0  0  0  0  0  0  0  0  0
   23.5899  -15.0955  -17.6134 N   0  0  0  0  0  0  0  0  0  0  0  0
   23.1563  -12.8176  -17.0380 C   0  0  0  0  0  0  0  0  0  0  0  0
   23.3750  -12.3071  -18.1735 O   0  0  0  0  0  0  0  0  0  0  0  0
   19.7858  -12.0977  -17.9749 C   0  0  0  0  0  0  0  0  0  0  0  0
   20.0683  -11.2076  -16.8066 C   0  0  1  0  0  0  0  0  0  0  0  0
   19.4235  -11.5902  -15.5261 C   0  0  0  0  0  0  0  0  0  0  0  0
   21.5664  -10.9002  -16.6871 C   0  0  2  0  0  0  0  0  0  0  0  0
   22.2243  -12.1399  -16.2211 N   0  0  0  0  0  0  0  0  0  0  0  0
   21.7831   -9.8373  -15.7078 C   0  0  0  0  0  0  0  0  0  0  0  0
   22.1025  -10.0602  -14.4957 O   0  0  0  0  0  0  0  0  0  0  0  0
   22.5816   -3.7666  -17.3076 N   0  0  0  0  0  0  0  0  0  0  0  0
   22.6000   -3.6935  -15.8911 C   0  0  0  0  0  0  0  0  0  0  0  0
   22.8265   -2.5784  -15.3684 O   0  0  0  0  0  0  0  0  0  0  0  0
   22.3577   -4.9068  -15.1040 C   0  0  0  0  0  0  0  0  0  0  0  0
   22.1306   -6.1406  -15.9054 C   0  0  0  0  0  0  0  0  0  0  0  0
   21.9095   -7.3944  -15.1249 C   0  0  2  0  0  0  0  0  0  0  0  0
   21.6450   -8.4809  -16.0754 N   0  0  0  0  0  0  0  0  0  0  0  0
   20.7528   -7.3094  -14.2209 C   0  0  0  0  0  0  0  0  0  0  0  0
   20.9378   -6.9025  -12.9164 O   0  0  0  0  0  0  0  0  0  0  0  0
   19.6122   -7.6029  -14.6272 O   0  0  0  0  0  0  0  0  0  0  0  0
  2  3  1  0
  2  1  1  1
  4  2  1  0
  4  5  1  6
  6 12  1  0
  6  4  1  0
  7  6  2  0
  9  8  1  6
  9 11  1  0
  9 10  1  0
 11 12  1  1
 13 11  1  0
 14 13  2  0
 16 17  2  0
 16 15  1  0
 18 16  1  0
 19 18  1  0
 20 21  1  0
 20 19  1  6
 21 13  1  0
 22 20  1  0
 23 22  1  0
 24 22  2  0
M  END
$$$$
