GFK.pdb
     RDKit          3D

 25 25  0  0  1  0  0  0  0  0999 V2000
   22.0437  -12.1935  -19.0738 N   0  0  0  0  0  0  0  0  0  0  0  0
   23.2328  -12.0026  -18.2658 C   0  0  0  0  0  0  0  0  0  0  0  0
   23.0602  -10.8718  -17.3215 C   0  0  0  0  0  0  0  0  0  0  0  0
   22.3344  -11.0459  -16.3147 O   0  0  0  0  0  0  0  0  0  0  0  0
   23.6766   -9.6310  -17.5192 N   0  0  0  0  0  0  0  0  0  0  0  0
   23.5971   -8.5118  -16.6050 C   0  0  1  0  0  0  0  0  0  0  0  0
   24.9350   -7.8410  -16.5628 C   0  0  0  0  0  0  0  0  0  0  0  0
   26.0302   -8.7436  -16.2042 C   0  0  0  0  0  0  0  0  0  0  0  0
   27.0935   -8.9366  -17.0507 C   0  0  0  0  0  0  0  0  0  0  0  0
   28.1228   -9.7826  -16.7178 C   0  0  0  0  0  0  0  0  0  0  0  0
   28.0925  -10.4546  -15.5092 C   0  0  0  0  0  0  0  0  0  0  0  0
   27.0114  -10.2615  -14.6430 C   0  0  0  0  0  0  0  0  0  0  0  0
   25.9882   -9.4065  -14.9986 C   0  0  0  0  0  0  0  0  0  0  0  0
   22.5986   -7.5135  -17.1185 C   0  0  0  0  0  0  0  0  0  0  0  0
   22.3907   -7.4325  -18.3554 O   0  0  0  0  0  0  0  0  0  0  0  0
   21.8848   -6.6622  -16.2601 N   0  0  0  0  0  0  0  0  0  0  0  0
   20.6991   -5.9978  -16.7321 C   0  0  1  0  0  0  0  0  0  0  0  0
   19.6384   -7.0181  -17.1619 C   0  0  0  0  0  0  0  0  0  0  0  0
   18.3643   -6.3171  -17.4959 C   0  0  0  0  0  0  0  0  0  0  0  0
   17.2169   -7.1757  -17.8756 C   0  0  0  0  0  0  0  0  0  0  0  0
   15.9517   -6.4886  -18.2397 C   0  0  0  0  0  0  0  0  0  0  0  0
   14.9041   -7.3598  -18.7240 N   0  0  0  0  0  0  0  0  0  0  0  0
   20.1243   -5.1447  -15.6673 C   0  0  0  0  0  0  0  0  0  0  0  0
   20.3113   -5.4527  -14.4544 O   0  0  0  0  0  0  0  0  0  0  0  0
   19.3968   -4.0318  -16.0160 O   0  0  0  0  0  0  0  0  0  0  0  0
  1  2  1  0
  2  3  1  0
  3  4  2  0
  5  3  1  0
  6  5  1  0
  6  7  1  6
  8  7  1  0
  9  8  2  0
 10  9  1  0
 11 12  1  0
 11 10  2  0
 12 13  2  0
 13  8  1  0
 14  6  1  0
 15 14  2  0
 16 14  1  0
 17 16  1  0
 17 23  1  0
 17 18  1  1
 19 20  1  0
 19 18  1  0
 20 21  1  0
 22 21  1  0
 23 24  2  0
 23 25  1  0
M  END
$$$$
