GFK.pdb
     RDKit          3D

 25 25  0  0  1  0  0  0  0  0999 V2000
   27.7639  -21.6411  -17.6626 N   0  0  0  0  0  0  0  0  0  0  0  0
   28.5737  -21.7677  -16.4661 C   0  0  0  0  0  0  0  0  0  0  0  0
   27.7236  -21.9163  -15.2598 C   0  0  0  0  0  0  0  0  0  0  0  0
   27.1116  -22.9976  -15.0955 O   0  0  0  0  0  0  0  0  0  0  0  0
   27.5863  -20.8968  -14.3109 N   0  0  0  0  0  0  0  0  0  0  0  0
   26.9087  -21.0347  -13.0394 C   0  0  1  0  0  0  0  0  0  0  0  0
   27.6348  -20.2062  -12.0254 C   0  0  0  0  0  0  0  0  0  0  0  0
   27.0242  -20.2429  -10.6955 C   0  0  0  0  0  0  0  0  0  0  0  0
   27.4597  -21.1287   -9.7416 C   0  0  0  0  0  0  0  0  0  0  0  0
   26.8894  -21.1661   -8.4929 C   0  0  0  0  0  0  0  0  0  0  0  0
   25.8574  -20.2978   -8.1857 C   0  0  0  0  0  0  0  0  0  0  0  0
   25.4099  -19.3932   -9.1540 C   0  0  0  0  0  0  0  0  0  0  0  0
   25.9980  -19.3736  -10.4023 C   0  0  0  0  0  0  0  0  0  0  0  0
   25.5101  -20.4981  -13.1547 C   0  0  0  0  0  0  0  0  0  0  0  0
   25.3219  -19.3866  -13.7104 O   0  0  0  0  0  0  0  0  0  0  0  0
   24.3984  -21.1989  -12.6604 N   0  0  0  0  0  0  0  0  0  0  0  0
   23.0713  -20.6930  -12.8908 C   0  0  1  0  0  0  0  0  0  0  0  0
   22.3226  -21.5702  -13.9010 C   0  0  0  0  0  0  0  0  0  0  0  0
   22.2800  -20.8927  -15.2296 C   0  0  0  0  0  0  0  0  0  0  0  0
   21.1032  -20.0309  -15.4952 C   0  0  0  0  0  0  0  0  0  0  0  0
   21.0283  -19.3843  -16.8301 C   0  0  0  0  0  0  0  0  0  0  0  0
   19.9111  -18.4835  -17.0075 N   0  0  0  0  0  0  0  0  0  0  0  0
   22.2992  -20.6694  -11.6278 C   0  0  0  0  0  0  0  0  0  0  0  0
   22.4739  -21.5870  -10.7743 O   0  0  0  0  0  0  0  0  0  0  0  0
   21.4050  -19.6495  -11.4047 O   0  0  0  0  0  0  0  0  0  0  0  0
  1  2  1  0
  2  3  1  0
  3  4  2  0
  5  3  1  0
  6  5  1  0
  6  7  1  1
  8  7  1  0
  9  8  2  0
 10  9  1  0
 11 12  1  0
 11 10  2  0
 12 13  2  0
 13  8  1  0
 14  6  1  0
 15 14  2  0
 16 14  1  0
 17 16  1  0
 17 23  1  0
 17 18  1  6
 19 20  1  0
 19 18  1  0
 20 21  1  0
 22 21  1  0
 23 24  2  0
 23 25  1  0
M  END
$$$$
