GFK.pdb
     RDKit          3D

 25 25  0  0  1  0  0  0  0  0999 V2000
   25.8646  -24.8439  -15.2383 N   0  0  0  0  0  0  0  0  0  0  0  0
   25.5761  -23.4290  -15.3724 C   0  0  0  0  0  0  0  0  0  0  0  0
   24.4192  -23.0382  -14.5304 C   0  0  0  0  0  0  0  0  0  0  0  0
   23.8596  -23.9248  -13.8437 O   0  0  0  0  0  0  0  0  0  0  0  0
   23.9399  -21.7243  -14.4805 N   0  0  0  0  0  0  0  0  0  0  0  0
   22.8592  -21.2687  -13.6326 C   0  0  1  0  0  0  0  0  0  0  0  0
   23.3085  -20.0313  -12.9192 C   0  0  0  0  0  0  0  0  0  0  0  0
   24.1237  -20.3035  -11.7343 C   0  0  0  0  0  0  0  0  0  0  0  0
   23.5861  -20.2282  -10.4734 C   0  0  0  0  0  0  0  0  0  0  0  0
   24.3477  -20.4828   -9.3594 C   0  0  0  0  0  0  0  0  0  0  0  0
   25.6808  -20.8216   -9.5048 C   0  0  0  0  0  0  0  0  0  0  0  0
   26.2336  -20.8997  -10.7872 C   0  0  0  0  0  0  0  0  0  0  0  0
   25.4491  -20.6396  -11.8923 C   0  0  0  0  0  0  0  0  0  0  0  0
   21.6738  -20.9050  -14.4810 C   0  0  0  0  0  0  0  0  0  0  0  0
   21.8440  -20.1904  -15.5010 O   0  0  0  0  0  0  0  0  0  0  0  0
   20.3741  -21.3377  -14.1731 N   0  0  0  0  0  0  0  0  0  0  0  0
   19.2773  -20.9826  -15.0339 C   0  0  1  0  0  0  0  0  0  0  0  0
   18.0725  -21.8978  -14.7855 C   0  0  0  0  0  0  0  0  0  0  0  0
   18.3318  -23.2482  -15.3647 C   0  0  0  0  0  0  0  0  0  0  0  0
   19.0440  -24.2151  -14.4953 C   0  0  0  0  0  0  0  0  0  0  0  0
   19.4164  -25.5191  -15.1006 C   0  0  0  0  0  0  0  0  0  0  0  0
   20.2075  -26.3805  -14.2501 N   0  0  0  0  0  0  0  0  0  0  0  0
   18.8603  -19.5829  -14.7911 C   0  0  0  0  0  0  0  0  0  0  0  0
   19.0927  -19.0503  -13.6671 O   0  0  0  0  0  0  0  0  0  0  0  0
   18.2272  -18.8861  -15.7927 O   0  0  0  0  0  0  0  0  0  0  0  0
  1  2  1  0
  2  3  1  0
  3  4  2  0
  5  3  1  0
  6  5  1  0
  6  7  1  6
  8  7  1  0
  9  8  2  0
 10  9  1  0
 11 12  1  0
 11 10  2  0
 12 13  2  0
 13  8  1  0
 14  6  1  0
 15 14  2  0
 16 14  1  0
 17 16  1  0
 17 23  1  0
 17 18  1  1
 19 20  1  0
 19 18  1  0
 20 21  1  0
 22 21  1  0
 23 24  2  0
 23 25  1  0
M  END
$$$$
