GFK.pdb
     RDKit          3D

 25 25  0  0  1  0  0  0  0  0999 V2000
   21.8365  -21.7673   -6.9168 N   0  0  0  0  0  0  0  0  0  0  0  0
   23.2229  -22.1919   -6.8870 C   0  0  0  0  0  0  0  0  0  0  0  0
   24.0913  -21.2295   -7.6080 C   0  0  0  0  0  0  0  0  0  0  0  0
   23.5546  -20.2279   -8.1368 O   0  0  0  0  0  0  0  0  0  0  0  0
   25.4756  -21.4048   -7.7141 N   0  0  0  0  0  0  0  0  0  0  0  0
   26.3739  -20.5044   -8.4048 C   0  0  1  0  0  0  0  0  0  0  0  0
   27.7666  -20.7627   -7.9194 C   0  0  0  0  0  0  0  0  0  0  0  0
   28.0359  -20.2050   -6.5930 C   0  0  0  0  0  0  0  0  0  0  0  0
   28.5569  -20.9848   -5.5905 C   0  0  0  0  0  0  0  0  0  0  0  0
   28.8109  -20.4652   -4.3449 C   0  0  0  0  0  0  0  0  0  0  0  0
   28.5389  -19.1331   -4.0907 C   0  0  0  0  0  0  0  0  0  0  0  0
   28.0080  -18.3342   -5.1087 C   0  0  0  0  0  0  0  0  0  0  0  0
   27.7608  -18.8780   -6.3528 C   0  0  0  0  0  0  0  0  0  0  0  0
   26.3400  -20.7936   -9.8787 C   0  0  0  0  0  0  0  0  0  0  0  0
   26.2949  -21.9871  -10.2701 O   0  0  0  0  0  0  0  0  0  0  0  0
   26.3572  -19.7712  -10.8408 N   0  0  0  0  0  0  0  0  0  0  0  0
   26.2390  -20.0983  -12.2370 C   0  0  1  0  0  0  0  0  0  0  0  0
   26.0900  -18.8280  -13.0825 C   0  0  0  0  0  0  0  0  0  0  0  0
   26.0414  -19.1839  -14.5307 C   0  0  0  0  0  0  0  0  0  0  0  0
   25.8269  -18.0653  -15.4798 C   0  0  0  0  0  0  0  0  0  0  0  0
   25.7971  -18.4037  -16.9255 C   0  0  0  0  0  0  0  0  0  0  0  0
   24.5119  -18.8446  -17.4204 N   0  0  0  0  0  0  0  0  0  0  0  0
   27.4386  -20.8318  -12.7006 C   0  0  0  0  0  0  0  0  0  0  0  0
   28.5734  -20.5299  -12.2295 O   0  0  0  0  0  0  0  0  0  0  0  0
   27.2976  -21.8291  -13.6361 O   0  0  0  0  0  0  0  0  0  0  0  0
  1  2  1  0
  2  3  1  0
  3  4  2  0
  5  3  1  0
  6  5  1  0
  6  7  1  1
  8  7  1  0
  9  8  2  0
 10  9  1  0
 11 12  1  0
 11 10  2  0
 12 13  2  0
 13  8  1  0
 14  6  1  0
 15 14  2  0
 16 14  1  0
 17 16  1  0
 17 23  1  0
 17 18  1  6
 19 20  1  0
 19 18  1  0
 20 21  1  0
 22 21  1  0
 23 24  2  0
 23 25  1  0
M  END
$$$$
