GFK.pdb
     RDKit          3D

 25 25  0  0  1  0  0  0  0  0999 V2000
   27.8130  -22.5098  -16.6748 N   0  0  0  0  0  0  0  0  0  0  0  0
   27.6497  -21.3213  -15.8598 C   0  0  0  0  0  0  0  0  0  0  0  0
   27.0791  -21.6585  -14.5329 C   0  0  0  0  0  0  0  0  0  0  0  0
   26.3194  -22.6519  -14.4495 O   0  0  0  0  0  0  0  0  0  0  0  0
   27.3607  -20.9092  -13.3850 N   0  0  0  0  0  0  0  0  0  0  0  0
   26.7451  -21.1134  -12.0911 C   0  0  1  0  0  0  0  0  0  0  0  0
   27.5014  -20.3126  -11.0769 C   0  0  0  0  0  0  0  0  0  0  0  0
   26.9343  -20.3908   -9.7297 C   0  0  0  0  0  0  0  0  0  0  0  0
   25.7483  -21.0422   -9.4984 C   0  0  0  0  0  0  0  0  0  0  0  0
   25.2132  -21.1176   -8.2358 C   0  0  0  0  0  0  0  0  0  0  0  0
   25.8770  -20.5285   -7.1750 C   0  0  0  0  0  0  0  0  0  0  0  0
   27.0858  -19.8636   -7.4052 C   0  0  0  0  0  0  0  0  0  0  0  0
   27.6046  -19.8005   -8.6824 C   0  0  0  0  0  0  0  0  0  0  0  0
   25.3328  -20.6017  -12.1202 C   0  0  0  0  0  0  0  0  0  0  0  0
   25.1147  -19.4196  -12.4874 O   0  0  0  0  0  0  0  0  0  0  0  0
   24.2407  -21.4024  -11.7494 N   0  0  0  0  0  0  0  0  0  0  0  0
   22.9037  -20.9935  -12.0892 C   0  0  1  0  0  0  0  0  0  0  0  0
   21.9142  -22.1471  -11.8871 C   0  0  0  0  0  0  0  0  0  0  0  0
   20.5432  -21.7177  -12.2900 C   0  0  0  0  0  0  0  0  0  0  0  0
   19.4757  -22.7425  -12.1992 C   0  0  0  0  0  0  0  0  0  0  0  0
   18.1430  -22.3783  -12.7439 C   0  0  0  0  0  0  0  0  0  0  0  0
   17.1383  -23.4125  -12.6350 N   0  0  0  0  0  0  0  0  0  0  0  0
   22.4780  -19.8571  -11.2411 C   0  0  0  0  0  0  0  0  0  0  0  0
   22.6485  -19.9170   -9.9888 O   0  0  0  0  0  0  0  0  0  0  0  0
   21.9043  -18.7556  -11.8303 O   0  0  0  0  0  0  0  0  0  0  0  0
  1  2  1  0
  2  3  1  0
  3  4  2  0
  5  3  1  0
  6  5  1  0
  6  7  1  1
  8  7  1  0
  9  8  2  0
 10  9  1  0
 11 12  1  0
 11 10  2  0
 12 13  2  0
 13  8  1  0
 14  6  1  0
 15 14  2  0
 16 14  1  0
 17 16  1  0
 17 23  1  0
 17 18  1  1
 19 20  1  0
 19 18  1  0
 20 21  1  0
 22 21  1  0
 23 24  2  0
 23 25  1  0
M  END
$$$$
