EAH.pdb
     RDKit          3D

 25 25  0  0  1  0  0  0  0  0999 V2000
   24.8111  -23.4580  -13.4473 N   0  0  0  0  0  0  0  0  0  0  0  0
   25.0294  -22.7012  -14.6552 C   0  0  1  0  0  0  0  0  0  0  0  0
   25.1237  -23.5672  -15.8556 C   0  0  0  0  0  0  0  0  0  0  0  0
   25.7225  -24.9042  -15.7150 C   0  0  0  0  0  0  0  0  0  0  0  0
   26.9285  -25.2321  -16.4442 C   0  0  0  0  0  0  0  0  0  0  0  0
   27.3672  -24.3244  -17.2396 O   0  0  0  0  0  0  0  0  0  0  0  0
   23.8918  -21.7525  -14.8180 C   0  0  0  0  0  0  0  0  0  0  0  0
   23.7795  -21.0512  -15.8849 O   0  0  0  0  0  0  0  0  0  0  0  0
   27.6853  -26.3784  -16.4190 O   0  0  0  0  0  0  0  0  0  0  0  0
   20.8923  -20.5189  -12.8336 C   0  0  0  0  0  0  0  0  0  0  0  0
   21.7974  -20.6146  -14.0154 C   0  0  2  0  0  0  0  0  0  0  0  0
   22.8898  -21.5654  -13.8371 N   0  0  0  0  0  0  0  0  0  0  0  0
   22.3716  -19.2751  -14.3412 C   0  0  0  0  0  0  0  0  0  0  0  0
   23.3933  -18.8298  -13.7576 O   0  0  0  0  0  0  0  0  0  0  0  0
   21.7558  -18.4986  -15.3185 N   0  0  0  0  0  0  0  0  0  0  0  0
   22.3507  -17.2856  -15.9220 C   0  0  1  0  0  0  0  0  0  0  0  0
   23.5563  -17.7650  -16.6468 C   0  0  0  0  0  0  0  0  0  0  0  0
   24.8515  -17.3458  -16.1160 C   0  0  0  0  0  0  0  0  0  0  0  0
   24.9232  -16.4969  -15.0035 C   0  0  0  0  0  0  0  0  0  0  0  0
   26.2194  -16.2794  -14.7327 N   0  0  0  0  0  0  0  0  0  0  0  0
   26.9261  -16.9566  -15.6289 C   0  0  0  0  0  0  0  0  0  0  0  0
   26.0999  -17.5980  -16.4612 N   0  0  0  0  0  0  0  0  0  0  0  0
   21.3304  -16.6666  -16.7807 C   0  0  0  0  0  0  0  0  0  0  0  0
   20.5079  -17.3547  -17.4316 O   0  0  0  0  0  0  0  0  0  0  0  0
   21.2472  -15.2935  -16.8959 O   0  0  0  0  0  0  0  0  0  0  0  0
  2  1  1  1
  2  7  1  0
  3  4  1  0
  3  2  1  0
  4  5  1  0
  5  9  1  0
  6  5  2  0
  7 12  1  0
  7  8  2  0
 11 10  1  1
 11 13  1  0
 12 11  1  0
 13 14  2  0
 15 13  1  0
 15 16  1  0
 16 23  1  0
 16 17  1  6
 17 18  1  0
 18 19  2  0
 18 22  1  0
 19 20  1  0
 20 21  1  0
 22 21  2  0
 23 25  1  0
 24 23  2  0
M  END
$$$$
