EAH.pdb
     RDKit          3D

 25 25  0  0  1  0  0  0  0  0999 V2000
   20.3461  -14.4278  -19.0090 N   0  0  0  0  0  0  0  0  0  0  0  0
   20.0257  -14.0398  -17.6576 C   0  0  1  0  0  0  0  0  0  0  0  0
   20.2619  -15.1337  -16.6844 C   0  0  0  0  0  0  0  0  0  0  0  0
   20.7590  -16.4260  -17.1832 C   0  0  0  0  0  0  0  0  0  0  0  0
   20.9702  -17.5199  -16.2600 C   0  0  0  0  0  0  0  0  0  0  0  0
   20.6790  -17.2817  -15.0322 O   0  0  0  0  0  0  0  0  0  0  0  0
   20.8738  -12.8680  -17.2999 C   0  0  0  0  0  0  0  0  0  0  0  0
   20.8001  -12.3462  -16.1316 O   0  0  0  0  0  0  0  0  0  0  0  0
   21.4413  -18.7888  -16.4954 O   0  0  0  0  0  0  0  0  0  0  0  0
   23.4905  -10.6280  -18.9079 C   0  0  0  0  0  0  0  0  0  0  0  0
   22.4875  -11.0276  -17.8786 C   0  0  2  0  0  0  0  0  0  0  0  0
   21.7890  -12.2687  -18.1968 N   0  0  0  0  0  0  0  0  0  0  0  0
   21.4800   -9.9426  -17.6847 C   0  0  0  0  0  0  0  0  0  0  0  0
   20.5043   -9.7940  -18.4649 O   0  0  0  0  0  0  0  0  0  0  0  0
   21.6278   -9.0714  -16.6094 N   0  0  0  0  0  0  0  0  0  0  0  0
   20.7773   -7.8845  -16.3704 C   0  0  1  0  0  0  0  0  0  0  0  0
   19.3878   -8.4087  -16.3135 C   0  0  0  0  0  0  0  0  0  0  0  0
   18.3497   -7.4726  -15.8878 C   0  0  0  0  0  0  0  0  0  0  0  0
   18.0140   -6.3714  -16.6868 C   0  0  0  0  0  0  0  0  0  0  0  0
   17.0406   -5.6900  -16.0630 N   0  0  0  0  0  0  0  0  0  0  0  0
   16.7783   -6.3297  -14.9302 C   0  0  0  0  0  0  0  0  0  0  0  0
   17.5682   -7.4030  -14.8268 N   0  0  0  0  0  0  0  0  0  0  0  0
   21.2382   -7.2464  -15.1286 C   0  0  0  0  0  0  0  0  0  0  0  0
   20.6946   -6.2102  -14.6764 O   0  0  0  0  0  0  0  0  0  0  0  0
   22.2949   -7.7764  -14.4159 O   0  0  0  0  0  0  0  0  0  0  0  0
  2  1  1  6
  2  7  1  0
  3  4  1  0
  3  2  1  0
  4  5  1  0
  5  9  1  0
  6  5  2  0
  7 12  1  0
  7  8  2  0
 11 10  1  6
 11 13  1  0
 12 11  1  0
 13 14  2  0
 15 13  1  0
 15 16  1  0
 16 23  1  0
 16 17  1  1
 17 18  1  0
 18 19  2  0
 18 22  1  0
 19 20  1  0
 20 21  1  0
 22 21  2  0
 23 25  1  0
 24 23  2  0
M  END
$$$$
