EAH.pdb
     RDKit          3D

 25 25  0  0  1  0  0  0  0  0999 V2000
   18.7333  -15.1818  -15.3316 N   0  0  0  0  0  0  0  0  0  0  0  0
   18.3317  -14.1547  -16.2606 C   0  0  1  0  0  0  0  0  0  0  0  0
   16.8932  -13.8142  -16.1398 C   0  0  0  0  0  0  0  0  0  0  0  0
   15.8949  -14.8435  -16.4711 C   0  0  0  0  0  0  0  0  0  0  0  0
   14.4862  -14.5600  -16.3007 C   0  0  0  0  0  0  0  0  0  0  0  0
   13.8594  -15.3122  -15.4699 O   0  0  0  0  0  0  0  0  0  0  0  0
   19.1517  -12.9403  -15.9897 C   0  0  0  0  0  0  0  0  0  0  0  0
   18.9568  -12.2495  -14.9279 O   0  0  0  0  0  0  0  0  0  0  0  0
   13.7052  -13.6008  -16.8984 O   0  0  0  0  0  0  0  0  0  0  0  0
   22.1898  -11.1672  -17.3918 C   0  0  0  0  0  0  0  0  0  0  0  0
   20.9472  -11.2789  -16.5743 C   0  0  2  0  0  0  0  0  0  0  0  0
   20.1688  -12.4800  -16.8585 N   0  0  0  0  0  0  0  0  0  0  0  0
   20.0793  -10.0812  -16.7800 C   0  0  0  0  0  0  0  0  0  0  0  0
   19.0479  -10.1231  -17.4991 O   0  0  0  0  0  0  0  0  0  0  0  0
   20.4247   -8.8851  -16.1578 N   0  0  0  0  0  0  0  0  0  0  0  0
   19.6856   -7.6134  -16.3192 C   0  0  1  0  0  0  0  0  0  0  0  0
   18.3661   -7.8481  -15.6770 C   0  0  0  0  0  0  0  0  0  0  0  0
   17.5077   -6.6798  -15.4944 C   0  0  0  0  0  0  0  0  0  0  0  0
   16.8356   -6.1135  -16.5859 C   0  0  0  0  0  0  0  0  0  0  0  0
   16.1255   -5.0673  -16.1361 N   0  0  0  0  0  0  0  0  0  0  0  0
   16.3403   -4.9804  -14.8294 C   0  0  0  0  0  0  0  0  0  0  0  0
   17.1733   -5.9526  -14.4452 N   0  0  0  0  0  0  0  0  0  0  0  0
   20.4852   -6.5488  -15.6956 C   0  0  0  0  0  0  0  0  0  0  0  0
   20.0802   -5.3627  -15.6424 O   0  0  0  0  0  0  0  0  0  0  0  0
   21.7192   -6.8279  -15.1436 O   0  0  0  0  0  0  0  0  0  0  0  0
  2  1  1  1
  2  7  1  0
  3  4  1  0
  3  2  1  0
  4  5  1  0
  5  9  1  0
  6  5  2  0
  7 12  1  0
  7  8  2  0
 11 10  1  6
 11 13  1  0
 12 11  1  0
 13 14  2  0
 15 13  1  0
 15 16  1  0
 16 23  1  0
 16 17  1  1
 17 18  1  0
 18 19  2  0
 18 22  1  0
 19 20  1  0
 20 21  1  0
 22 21  2  0
 23 25  1  0
 24 23  2  0
M  END
$$$$
