EAH.pdb
     RDKit          3D

 25 25  0  0  1  0  0  0  0  0999 V2000
   24.7677  -11.8729  -19.4192 N   0  0  0  0  0  0  0  0  0  0  0  0
   23.8295  -10.9041  -19.9298 C   0  0  1  0  0  0  0  0  0  0  0  0
   23.0636  -11.4168  -21.0918 C   0  0  0  0  0  0  0  0  0  0  0  0
   23.0187  -12.8698  -21.3209 C   0  0  0  0  0  0  0  0  0  0  0  0
   22.2568  -13.3994  -22.4312 C   0  0  0  0  0  0  0  0  0  0  0  0
   21.6867  -12.5303  -23.1853 O   0  0  0  0  0  0  0  0  0  0  0  0
   22.8855  -10.5521  -18.8318 C   0  0  0  0  0  0  0  0  0  0  0  0
   22.0136   -9.6273  -18.9974 O   0  0  0  0  0  0  0  0  0  0  0  0
   22.0445  -14.7035  -22.8075 O   0  0  0  0  0  0  0  0  0  0  0  0
   21.9341  -11.7841  -15.3718 C   0  0  0  0  0  0  0  0  0  0  0  0
   21.9570  -10.8199  -16.5098 C   0  0  2  0  0  0  0  0  0  0  0  0
   22.8870  -11.1928  -17.5706 N   0  0  0  0  0  0  0  0  0  0  0  0
   22.3019   -9.4503  -16.0248 C   0  0  0  0  0  0  0  0  0  0  0  0
   23.4792   -9.0085  -16.0623 O   0  0  0  0  0  0  0  0  0  0  0  0
   21.2896   -8.6419  -15.5159 N   0  0  0  0  0  0  0  0  0  0  0  0
   21.4834   -7.2508  -15.0505 C   0  0  1  0  0  0  0  0  0  0  0  0
   22.0393   -6.5242  -16.2217 C   0  0  0  0  0  0  0  0  0  0  0  0
   22.1687   -5.0744  -16.0941 C   0  0  0  0  0  0  0  0  0  0  0  0
   22.8098   -4.5128  -14.9818 C   0  0  0  0  0  0  0  0  0  0  0  0
   22.7884   -3.1784  -15.1228 N   0  0  0  0  0  0  0  0  0  0  0  0
   22.1656   -2.9149  -16.2647 C   0  0  0  0  0  0  0  0  0  0  0  0
   21.7932   -4.0585  -16.8479 N   0  0  0  0  0  0  0  0  0  0  0  0
   20.1821   -6.7493  -14.5849 C   0  0  0  0  0  0  0  0  0  0  0  0
   19.1084   -7.0764  -15.1453 O   0  0  0  0  0  0  0  0  0  0  0  0
   20.1038   -5.8943  -13.5041 O   0  0  0  0  0  0  0  0  0  0  0  0
  2  1  1  1
  2  7  1  0
  3  4  1  0
  3  2  1  0
  4  5  1  0
  5  9  1  0
  6  5  2  0
  7 12  1  0
  7  8  2  0
 11 10  1  1
 11 13  1  0
 12 11  1  0
 13 14  2  0
 15 13  1  0
 15 16  1  0
 16 23  1  0
 16 17  1  6
 17 18  1  0
 18 19  2  0
 18 22  1  0
 19 20  1  0
 20 21  1  0
 22 21  2  0
 23 25  1  0
 24 23  2  0
M  END
$$$$
