EAH.pdb
     RDKit          3D

 25 25  0  0  1  0  0  0  0  0999 V2000
   20.9424  -15.1966  -17.2327 N   0  0  0  0  0  0  0  0  0  0  0  0
   19.8029  -14.3942  -16.8620 C   0  0  1  0  0  0  0  0  0  0  0  0
   18.8551  -15.1278  -15.9885 C   0  0  0  0  0  0  0  0  0  0  0  0
   18.2200  -16.3500  -16.5070 C   0  0  0  0  0  0  0  0  0  0  0  0
   17.2756  -16.2615  -17.5996 C   0  0  0  0  0  0  0  0  0  0  0  0
   16.2448  -15.5245  -17.3915 O   0  0  0  0  0  0  0  0  0  0  0  0
   20.3017  -13.1863  -16.1460 C   0  0  0  0  0  0  0  0  0  0  0  0
   19.4782  -12.3669  -15.6046 O   0  0  0  0  0  0  0  0  0  0  0  0
   17.3097  -16.8520  -18.8395 O   0  0  0  0  0  0  0  0  0  0  0  0
   23.6174  -11.5786  -15.2128 C   0  0  0  0  0  0  0  0  0  0  0  0
   22.1333  -11.6653  -15.3352 C   0  0  2  0  0  0  0  0  0  0  0  0
   21.6746  -12.8697  -16.0195 N   0  0  0  0  0  0  0  0  0  0  0  0
   21.5994  -10.4694  -16.0527 C   0  0  0  0  0  0  0  0  0  0  0  0
   21.3514  -10.4897  -17.2859 O   0  0  0  0  0  0  0  0  0  0  0  0
   21.3716   -9.2996  -15.3338 N   0  0  0  0  0  0  0  0  0  0  0  0
   20.8564   -8.0429  -15.9210 C   0  0  1  0  0  0  0  0  0  0  0  0
   19.5269   -8.3949  -16.4840 C   0  0  0  0  0  0  0  0  0  0  0  0
   18.7153   -7.2906  -16.9910 C   0  0  0  0  0  0  0  0  0  0  0  0
   17.6968   -6.7367  -16.2038 C   0  0  0  0  0  0  0  0  0  0  0  0
   17.1219   -5.7491  -16.9074 N   0  0  0  0  0  0  0  0  0  0  0  0
   17.7467   -5.6856  -18.0765 C   0  0  0  0  0  0  0  0  0  0  0  0
   18.7059   -6.6153  -18.1246 N   0  0  0  0  0  0  0  0  0  0  0  0
   20.8171   -7.0331  -14.8531 C   0  0  0  0  0  0  0  0  0  0  0  0
   20.9712   -7.3402  -13.6466 O   0  0  0  0  0  0  0  0  0  0  0  0
   20.6077   -5.7018  -15.1517 O   0  0  0  0  0  0  0  0  0  0  0  0
  2  1  1  1
  2  7  1  0
  3  4  1  0
  3  2  1  0
  4  5  1  0
  5  9  1  0
  6  5  2  0
  7 12  1  0
  7  8  2  0
 11 10  1  6
 11 13  1  0
 12 11  1  0
 13 14  2  0
 15 13  1  0
 15 16  1  0
 16 23  1  0
 16 17  1  1
 17 18  1  0
 18 19  2  0
 18 22  1  0
 19 20  1  0
 20 21  1  0
 22 21  2  0
 23 25  1  0
 24 23  2  0
M  END
$$$$
