EAH.pdb
     RDKit          3D

 25 25  0  0  1  0  0  0  0  0999 V2000
   16.9843  -10.5461  -17.9008 N   0  0  0  0  0  0  0  0  0  0  0  0
   16.6159   -9.8137  -16.7145 C   0  0  1  0  0  0  0  0  0  0  0  0
   16.7012  -10.6439  -15.4884 C   0  0  0  0  0  0  0  0  0  0  0  0
   15.7749  -11.7777  -15.3390 C   0  0  0  0  0  0  0  0  0  0  0  0
   15.9006  -12.6638  -14.2020 C   0  0  0  0  0  0  0  0  0  0  0  0
   14.9729  -12.5771  -13.3183 O   0  0  0  0  0  0  0  0  0  0  0  0
   17.5352   -8.6479  -16.5872 C   0  0  0  0  0  0  0  0  0  0  0  0
   18.7613   -8.7460  -16.9476 O   0  0  0  0  0  0  0  0  0  0  0  0
   16.8710  -13.5933  -13.9165 O   0  0  0  0  0  0  0  0  0  0  0  0
   17.3233   -4.9442  -15.8279 C   0  0  0  0  0  0  0  0  0  0  0  0
   18.0270   -6.2406  -16.0496 C   0  0  2  0  0  0  0  0  0  0  0  0
   17.1315   -7.3925  -16.0750 N   0  0  0  0  0  0  0  0  0  0  0  0
   19.0629   -6.4575  -14.9961 C   0  0  0  0  0  0  0  0  0  0  0  0
   18.7804   -6.9652  -13.8803 O   0  0  0  0  0  0  0  0  0  0  0  0
   20.3780   -6.0851  -15.2588 N   0  0  0  0  0  0  0  0  0  0  0  0
   21.4935   -6.2160  -14.2956 C   0  0  1  0  0  0  0  0  0  0  0  0
   22.6470   -6.6944  -15.1013 C   0  0  0  0  0  0  0  0  0  0  0  0
   22.6170   -8.0924  -15.5253 C   0  0  0  0  0  0  0  0  0  0  0  0
   21.6243   -8.9590  -15.0486 C   0  0  0  0  0  0  0  0  0  0  0  0
   21.8324  -10.1665  -15.5960 N   0  0  0  0  0  0  0  0  0  0  0  0
   22.9010  -10.0642  -16.3763 C   0  0  0  0  0  0  0  0  0  0  0  0
   23.3719   -8.8140  -16.3320 N   0  0  0  0  0  0  0  0  0  0  0  0
   21.6953   -4.9039  -13.6635 C   0  0  0  0  0  0  0  0  0  0  0  0
   22.5252   -4.7366  -12.7378 O   0  0  0  0  0  0  0  0  0  0  0  0
   20.9686   -3.8054  -14.0763 O   0  0  0  0  0  0  0  0  0  0  0  0
  2  1  1  6
  2  7  1  0
  3  4  1  0
  3  2  1  0
  4  5  1  0
  5  9  1  0
  6  5  2  0
  7 12  1  0
  7  8  2  0
 11 10  1  1
 11 13  1  0
 12 11  1  0
 13 14  2  0
 15 13  1  0
 15 16  1  0
 16 23  1  0
 16 17  1  6
 17 18  1  0
 18 19  2  0
 18 22  1  0
 19 20  1  0
 20 21  1  0
 22 21  2  0
 23 25  1  0
 24 23  2  0
M  END
$$$$
