LES.pdb
     RDKit          3D

 24 23  0  0  1  0  0  0  0  0999 V2000
    8.4415  -13.2299   18.7602 C   0  0  0  0  0  0  0  0  0  0  0  0
    7.3319  -13.6656   19.7044 C   0  0  2  0  0  0  0  0  0  0  0  0
    6.5540  -12.4519   20.1814 C   0  0  0  0  0  0  0  0  0  0  0  0
    7.9738  -14.3745   20.8766 C   0  0  0  0  0  0  0  0  0  0  0  0
    8.6818  -15.6099   20.3142 C   0  0  2  0  0  0  0  0  0  0  0  0
    7.7195  -16.4240   19.6314 N   0  0  0  0  0  0  0  0  0  0  0  0
    9.3987  -16.3483   21.3935 C   0  0  0  0  0  0  0  0  0  0  0  0
    8.8071  -17.2716   21.9778 O   0  0  0  0  0  0  0  0  0  0  0  0
   10.7222  -15.9903   21.7297 N   0  0  0  0  0  0  0  0  0  0  0  0
   11.4915  -16.7549   22.7538 C   0  0  1  0  0  0  0  0  0  0  0  0
   12.9087  -16.2157   22.7208 C   0  0  0  0  0  0  0  0  0  0  0  0
   13.7449  -16.8936   23.7606 C   0  0  0  0  0  0  0  0  0  0  0  0
   15.1729  -16.4617   23.6123 C   0  0  0  0  0  0  0  0  0  0  0  0
   15.6197  -15.5090   24.2765 O   0  0  0  0  0  0  0  0  0  0  0  0
   10.8575  -16.4842   24.0502 C   0  0  0  0  0  0  0  0  0  0  0  0
   10.7976  -15.2707   24.4531 O   0  0  0  0  0  0  0  0  0  0  0  0
   15.9791  -17.1367   22.7300 O   0  0  0  0  0  0  0  0  0  0  0  0
    8.0686  -18.5245   25.6411 O   0  0  0  0  0  0  0  0  0  0  0  0
    8.2927  -17.3007   26.2389 C   0  0  0  0  0  0  0  0  0  0  0  0
    9.8086  -17.0718   26.2633 C   0  0  2  0  0  0  0  0  0  0  0  0
   10.2865  -17.4346   24.9243 N   0  0  0  0  0  0  0  0  0  0  0  0
   10.3897  -17.9271   27.3005 C   0  0  0  0  0  0  0  0  0  0  0  0
   10.0790  -17.7621   28.6344 O   0  0  0  0  0  0  0  0  0  0  0  0
   11.1930  -18.8413   27.0035 O   0  0  0  0  0  0  0  0  0  0  0  0
  2  1  1  6
  2  3  1  0
  4  2  1  0
  4  5  1  0
  5  7  1  0
  5  6  1  1
  7  8  2  0
  9 10  1  0
  9  7  1  0
 10 11  1  1
 11 12  1  0
 12 13  1  0
 13 14  2  0
 13 17  1  0
 15 16  2  0
 15 10  1  0
 18 19  1  0
 20 19  1  6
 20 22  1  0
 20 21  1  0
 21 15  1  0
 22 23  1  0
 24 22  2  0
M  END
$$$$
