LES.pdb
     RDKit          3D

 24 23  0  0  1  0  0  0  0  0999 V2000
    9.5782  -12.3377   19.3199 C   0  0  0  0  0  0  0  0  0  0  0  0
    8.2335  -12.9513   18.9623 C   0  0  2  0  0  0  0  0  0  0  0  0
    7.1300  -12.2747   19.7562 C   0  0  0  0  0  0  0  0  0  0  0  0
    8.2946  -14.4258   19.2954 C   0  0  0  0  0  0  0  0  0  0  0  0
    9.7745  -14.7829   19.4574 C   0  0  2  0  0  0  0  0  0  0  0  0
   10.2970  -15.1796   18.1828 N   0  0  0  0  0  0  0  0  0  0  0  0
    9.9567  -15.8282   20.5053 C   0  0  0  0  0  0  0  0  0  0  0  0
    9.0485  -16.0045   21.3349 O   0  0  0  0  0  0  0  0  0  0  0  0
   11.1439  -16.5913   20.5373 N   0  0  0  0  0  0  0  0  0  0  0  0
   11.3624  -17.6344   21.5810 C   0  0  1  0  0  0  0  0  0  0  0  0
   12.7053  -18.2719   21.2800 C   0  0  0  0  0  0  0  0  0  0  0  0
   12.6345  -19.0501   20.0036 C   0  0  0  0  0  0  0  0  0  0  0  0
   13.9771  -19.6485   19.7086 C   0  0  0  0  0  0  0  0  0  0  0  0
   14.7111  -20.0461   20.6316 O   0  0  0  0  0  0  0  0  0  0  0  0
   11.3893  -16.9409   22.8749 C   0  0  0  0  0  0  0  0  0  0  0  0
   12.4142  -16.2283   23.1585 O   0  0  0  0  0  0  0  0  0  0  0  0
   14.3825  -19.7500   18.4011 O   0  0  0  0  0  0  0  0  0  0  0  0
    8.4952  -15.5629   24.9047 O   0  0  0  0  0  0  0  0  0  0  0  0
    9.2423  -16.2485   25.8414 C   0  0  0  0  0  0  0  0  0  0  0  0
   10.6285  -16.4934   25.2337 C   0  0  2  0  0  0  0  0  0  0  0  0
   10.3847  -16.9669   23.8665 N   0  0  0  0  0  0  0  0  0  0  0  0
   11.3188  -17.4988   26.0445 C   0  0  0  0  0  0  0  0  0  0  0  0
   11.6069  -18.7547   25.5517 O   0  0  0  0  0  0  0  0  0  0  0  0
   11.6708  -17.2450   27.2197 O   0  0  0  0  0  0  0  0  0  0  0  0
  2  1  1  1
  2  3  1  0
  4  2  1  0
  4  5  1  0
  5  7  1  0
  5  6  1  6
  7  8  2  0
  9 10  1  0
  9  7  1  0
 10 11  1  6
 11 12  1  0
 12 13  1  0
 13 14  2  0
 13 17  1  0
 15 16  2  0
 15 10  1  0
 18 19  1  0
 20 19  1  1
 20 22  1  0
 20 21  1  0
 21 15  1  0
 22 23  1  0
 24 22  2  0
M  END
$$$$
