LES.pdb
     RDKit          3D

 24 23  0  0  1  0  0  0  0  0999 V2000
    8.5813  -12.0027   18.4850 C   0  0  0  0  0  0  0  0  0  0  0  0
    7.9250  -13.1908   19.1708 C   0  0  2  0  0  0  0  0  0  0  0  0
    6.9856  -12.7037   20.2598 C   0  0  0  0  0  0  0  0  0  0  0  0
    9.0223  -14.0462   19.7649 C   0  0  0  0  0  0  0  0  0  0  0  0
    9.8409  -14.5944   18.5930 C   0  0  2  0  0  0  0  0  0  0  0  0
    8.9911  -15.4109   17.7768 N   0  0  0  0  0  0  0  0  0  0  0  0
   11.0449  -15.3256   19.0826 C   0  0  0  0  0  0  0  0  0  0  0  0
   10.9029  -16.4780   19.5250 O   0  0  0  0  0  0  0  0  0  0  0  0
   12.3114  -14.7038   19.0359 N   0  0  0  0  0  0  0  0  0  0  0  0
   13.5387  -15.4186   19.4919 C   0  0  1  0  0  0  0  0  0  0  0  0
   14.7155  -14.7085   18.8504 C   0  0  0  0  0  0  0  0  0  0  0  0
   14.8518  -15.1221   17.4186 C   0  0  0  0  0  0  0  0  0  0  0  0
   16.0754  -14.4867   16.8298 C   0  0  0  0  0  0  0  0  0  0  0  0
   16.0074  -13.8448   15.7659 O   0  0  0  0  0  0  0  0  0  0  0  0
   13.5842  -15.2932   20.9540 C   0  0  0  0  0  0  0  0  0  0  0  0
   13.9280  -14.1663   21.4545 O   0  0  0  0  0  0  0  0  0  0  0  0
   17.2731  -14.6260   17.4859 O   0  0  0  0  0  0  0  0  0  0  0  0
   11.8788  -17.8766   23.4085 O   0  0  0  0  0  0  0  0  0  0  0  0
   12.0781  -16.6184   23.9402 C   0  0  0  0  0  0  0  0  0  0  0  0
   13.3776  -16.0671   23.3419 C   0  0  2  0  0  0  0  0  0  0  0  0
   13.2790  -16.2992   21.8964 N   0  0  0  0  0  0  0  0  0  0  0  0
   14.5044  -16.7905   23.9352 C   0  0  0  0  0  0  0  0  0  0  0  0
   14.8210  -16.6686   25.2723 O   0  0  0  0  0  0  0  0  0  0  0  0
   15.2197  -17.5476   23.2392 O   0  0  0  0  0  0  0  0  0  0  0  0
  2  1  1  1
  2  3  1  0
  4  2  1  0
  4  5  1  0
  5  7  1  0
  5  6  1  1
  7  8  2  0
  9 10  1  0
  9  7  1  0
 10 11  1  6
 11 12  1  0
 12 13  1  0
 13 14  2  0
 13 17  1  0
 15 16  2  0
 15 10  1  0
 18 19  1  0
 20 19  1  1
 20 22  1  0
 20 21  1  0
 21 15  1  0
 22 23  1  0
 24 22  2  0
M  END
$$$$
