LES.pdb
     RDKit          3D

 24 23  0  0  1  0  0  0  0  0999 V2000
    9.2785  -13.5701   19.4211 C   0  0  0  0  0  0  0  0  0  0  0  0
    7.8354  -13.3557   19.8504 C   0  0  2  0  0  0  0  0  0  0  0  0
    7.4971  -11.8762   19.8024 C   0  0  0  0  0  0  0  0  0  0  0  0
    7.6887  -13.8846   21.2601 C   0  0  0  0  0  0  0  0  0  0  0  0
    7.9802  -15.3865   21.2029 C   0  0  2  0  0  0  0  0  0  0  0  0
    6.8493  -16.0560   20.6304 N   0  0  0  0  0  0  0  0  0  0  0  0
    8.3366  -15.9099   22.5532 C   0  0  0  0  0  0  0  0  0  0  0  0
    7.4473  -15.9814   23.4180 O   0  0  0  0  0  0  0  0  0  0  0  0
    9.6629  -16.3107   22.8234 N   0  0  0  0  0  0  0  0  0  0  0  0
   10.0422  -16.8771   24.1502 C   0  0  1  0  0  0  0  0  0  0  0  0
   11.2687  -17.7385   23.9174 C   0  0  0  0  0  0  0  0  0  0  0  0
   11.7699  -18.2875   25.2163 C   0  0  0  0  0  0  0  0  0  0  0  0
   12.9327  -19.1980   24.9579 C   0  0  0  0  0  0  0  0  0  0  0  0
   14.0976  -18.8150   25.1697 O   0  0  0  0  0  0  0  0  0  0  0  0
   10.3584  -15.7393   25.0226 C   0  0  0  0  0  0  0  0  0  0  0  0
   11.1877  -14.8621   24.5967 O   0  0  0  0  0  0  0  0  0  0  0  0
   12.6889  -20.4626   24.4831 O   0  0  0  0  0  0  0  0  0  0  0  0
    8.0272  -13.9673   27.2509 O   0  0  0  0  0  0  0  0  0  0  0  0
    9.2450  -13.3273   27.1373 C   0  0  0  0  0  0  0  0  0  0  0  0
   10.3347  -14.4057   27.1591 C   0  0  2  0  0  0  0  0  0  0  0  0
    9.8344  -15.4929   26.3103 N   0  0  0  0  0  0  0  0  0  0  0  0
   10.5292  -14.8400   28.5441 C   0  0  0  0  0  0  0  0  0  0  0  0
   10.9109  -13.9580   29.5338 O   0  0  0  0  0  0  0  0  0  0  0  0
   10.3531  -16.0359   28.8731 O   0  0  0  0  0  0  0  0  0  0  0  0
  2  1  1  1
  2  3  1  0
  4  2  1  0
  4  5  1  0
  5  7  1  0
  5  6  1  1
  7  8  2  0
  9 10  1  0
  9  7  1  0
 10 11  1  6
 11 12  1  0
 12 13  1  0
 13 14  2  0
 13 17  1  0
 15 16  2  0
 15 10  1  0
 18 19  1  0
 20 19  1  1
 20 22  1  0
 20 21  1  0
 21 15  1  0
 22 23  1  0
 24 22  2  0
M  END
$$$$
