LES.pdb
     RDKit          3D

 24 23  0  0  1  0  0  0  0  0999 V2000
    9.1865  -12.8283   18.4513 C   0  0  0  0  0  0  0  0  0  0  0  0
    7.8870  -13.4235   18.9706 C   0  0  2  0  0  0  0  0  0  0  0  0
    6.9959  -12.3211   19.5152 C   0  0  0  0  0  0  0  0  0  0  0  0
    8.2343  -14.4092   20.0644 C   0  0  0  0  0  0  0  0  0  0  0  0
    8.9954  -15.5593   19.3996 C   0  0  2  0  0  0  0  0  0  0  0  0
    8.1346  -16.1929   18.4443 N   0  0  0  0  0  0  0  0  0  0  0  0
    9.5196  -16.5100   20.4221 C   0  0  0  0  0  0  0  0  0  0  0  0
    8.7369  -17.3318   20.9281 O   0  0  0  0  0  0  0  0  0  0  0  0
   10.8805  -16.4613   20.7941 N   0  0  0  0  0  0  0  0  0  0  0  0
   11.4256  -17.3682   21.8455 C   0  0  1  0  0  0  0  0  0  0  0  0
   12.8939  -17.5697   21.5233 C   0  0  0  0  0  0  0  0  0  0  0  0
   13.4053  -16.4275   20.7024 C   0  0  0  0  0  0  0  0  0  0  0  0
   14.8403  -16.6730   20.3447 C   0  0  0  0  0  0  0  0  0  0  0  0
   15.1687  -16.9142   19.1689 O   0  0  0  0  0  0  0  0  0  0  0  0
   11.2607  -16.6762   23.1299 C   0  0  0  0  0  0  0  0  0  0  0  0
   12.1876  -15.8803   23.5120 O   0  0  0  0  0  0  0  0  0  0  0  0
   15.7863  -16.6269   21.3383 O   0  0  0  0  0  0  0  0  0  0  0  0
    7.8195  -16.4645   25.0947 O   0  0  0  0  0  0  0  0  0  0  0  0
    8.7294  -15.4735   25.4037 C   0  0  0  0  0  0  0  0  0  0  0  0
   10.1304  -16.0880   25.3024 C   0  0  2  0  0  0  0  0  0  0  0  0
   10.1649  -16.7875   24.0131 N   0  0  0  0  0  0  0  0  0  0  0  0
   10.3156  -17.0073   26.4273 C   0  0  0  0  0  0  0  0  0  0  0  0
   10.3935  -16.5549   27.7282 O   0  0  0  0  0  0  0  0  0  0  0  0
   10.4095  -18.2422   26.2388 O   0  0  0  0  0  0  0  0  0  0  0  0
  2  1  1  1
  2  3  1  0
  4  2  1  0
  4  5  1  0
  5  7  1  0
  5  6  1  6
  7  8  2  0
  9 10  1  0
  9  7  1  0
 10 11  1  6
 11 12  1  0
 12 13  1  0
 13 14  2  0
 13 17  1  0
 15 16  2  0
 15 10  1  0
 18 19  1  0
 20 19  1  1
 20 22  1  0
 20 21  1  0
 21 15  1  0
 22 23  1  0
 24 22  2  0
M  END
$$$$
