LES.pdb
     RDKit          3D

 24 23  0  0  1  0  0  0  0  0999 V2000
    8.3470  -12.1992   18.8396 C   0  0  0  0  0  0  0  0  0  0  0  0
    7.4584  -13.2302   19.5178 C   0  0  2  0  0  0  0  0  0  0  0  0
    6.5733  -12.5509   20.5478 C   0  0  0  0  0  0  0  0  0  0  0  0
    8.3570  -14.2485   20.1844 C   0  0  0  0  0  0  0  0  0  0  0  0
    9.0915  -14.9916   19.0655 C   0  0  2  0  0  0  0  0  0  0  0  0
    8.1287  -15.6834   18.2596 N   0  0  0  0  0  0  0  0  0  0  0  0
   10.1328  -15.9003   19.6262 C   0  0  0  0  0  0  0  0  0  0  0  0
    9.8184  -17.0718   19.8956 O   0  0  0  0  0  0  0  0  0  0  0  0
   11.4430  -15.4200   19.8392 N   0  0  0  0  0  0  0  0  0  0  0  0
   12.5103  -16.3074   20.3856 C   0  0  1  0  0  0  0  0  0  0  0  0
   13.8188  -15.5569   20.2276 C   0  0  0  0  0  0  0  0  0  0  0  0
   14.2707  -15.5988   18.8015 C   0  0  0  0  0  0  0  0  0  0  0  0
   15.5178  -14.7808   18.6488 C   0  0  0  0  0  0  0  0  0  0  0  0
   15.5724  -13.8567   17.8171 O   0  0  0  0  0  0  0  0  0  0  0  0
   12.1976  -16.5235   21.8038 C   0  0  0  0  0  0  0  0  0  0  0  0
   11.8671  -15.5098   22.5121 O   0  0  0  0  0  0  0  0  0  0  0  0
   16.5990  -15.0696   19.4435 O   0  0  0  0  0  0  0  0  0  0  0  0
    9.6721  -18.6523   24.0671 O   0  0  0  0  0  0  0  0  0  0  0  0
   10.9806  -19.0916   24.0458 C   0  0  0  0  0  0  0  0  0  0  0  0
   11.8784  -17.8554   23.9175 C   0  0  2  0  0  0  0  0  0  0  0  0
   12.2155  -17.7556   22.4930 N   0  0  0  0  0  0  0  0  0  0  0  0
   13.0681  -18.0586   24.7469 C   0  0  0  0  0  0  0  0  0  0  0  0
   12.9893  -18.1326   26.1222 O   0  0  0  0  0  0  0  0  0  0  0  0
   14.2021  -18.1722   24.2267 O   0  0  0  0  0  0  0  0  0  0  0  0
  2  1  1  1
  2  3  1  0
  4  2  1  0
  4  5  1  0
  5  7  1  0
  5  6  1  1
  7  8  2  0
  9 10  1  0
  9  7  1  0
 10 11  1  1
 11 12  1  0
 12 13  1  0
 13 14  2  0
 13 17  1  0
 15 16  2  0
 15 10  1  0
 18 19  1  0
 20 19  1  6
 20 22  1  0
 20 21  1  0
 21 15  1  0
 22 23  1  0
 24 22  2  0
M  END
$$$$
