LWV.pdb
     RDKit          3D

 30 31  0  0  1  0  0  0  0  0999 V2000
    7.6296  -12.1151   19.4615 C   0  0  0  0  0  0  0  0  0  0  0  0
    7.7505  -13.6224   19.5705 C   0  0  1  0  0  0  0  0  0  0  0  0
    7.7555  -14.1855   18.1807 C   0  0  0  0  0  0  0  0  0  0  0  0
    8.9621  -13.9384   20.3700 C   0  0  0  0  0  0  0  0  0  0  0  0
    9.0708  -15.3923   20.7525 C   0  0  2  0  0  0  0  0  0  0  0  0
    7.8313  -16.1027   20.6092 N   0  0  0  0  0  0  0  0  0  0  0  0
    9.4708  -15.5100   22.1918 C   0  0  0  0  0  0  0  0  0  0  0  0
   10.5001  -14.8933   22.6358 O   0  0  0  0  0  0  0  0  0  0  0  0
    8.7461  -16.2957   23.1273 N   0  0  0  0  0  0  0  0  0  0  0  0
    9.0875  -16.2522   24.5745 C   0  0  1  0  0  0  0  0  0  0  0  0
    7.8286  -16.4760   25.3666 C   0  0  0  0  0  0  0  0  0  0  0  0
    7.0434  -15.2747   25.6738 C   0  0  0  0  0  0  0  0  0  0  0  0
    5.6887  -15.0772   25.5147 C   0  0  0  0  0  0  0  0  0  0  0  0
    5.3474  -13.8345   25.8783 N   0  0  0  0  0  0  0  0  0  0  0  0
    6.4637  -13.1830   26.2851 C   0  0  0  0  0  0  0  0  0  0  0  0
    6.6633  -11.8964   26.7538 C   0  0  0  0  0  0  0  0  0  0  0  0
    7.9317  -11.4552   27.1150 C   0  0  0  0  0  0  0  0  0  0  0  0
    8.9737  -12.3349   26.9912 C   0  0  0  0  0  0  0  0  0  0  0  0
    8.7733  -13.6047   26.5279 C   0  0  0  0  0  0  0  0  0  0  0  0
    7.5187  -14.0687   26.1613 C   0  0  0  0  0  0  0  0  0  0  0  0
   10.0549  -17.3273   24.8455 C   0  0  0  0  0  0  0  0  0  0  0  0
    9.9055  -18.4137   24.1856 O   0  0  0  0  0  0  0  0  0  0  0  0
   14.3381  -19.1155   26.1371 C   0  0  0  0  0  0  0  0  0  0  0  0
   13.3765  -17.9985   25.8589 C   0  0  1  0  0  0  0  0  0  0  0  0
   13.5782  -17.4696   24.4757 C   0  0  0  0  0  0  0  0  0  0  0  0
   11.9204  -18.4742   25.9633 C   0  0  2  0  0  0  0  0  0  0  0  0
   11.1240  -17.2857   25.7458 N   0  0  0  0  0  0  0  0  0  0  0  0
   11.6737  -19.1510   27.2385 C   0  0  0  0  0  0  0  0  0  0  0  0
   12.0160  -20.5071   27.4289 O   0  0  0  0  0  0  0  0  0  0  0  0
   11.1550  -18.5915   28.2264 O   0  0  0  0  0  0  0  0  0  0  0  0
  2  1  1  6
  2  3  1  0
  4  2  1  0
  5  6  1  1
  5  4  1  0
  7  5  1  0
  8  7  2  0
  9  7  1  0
 10 21  1  0
 10  9  1  0
 11 12  1  0
 10 11  1  1
 12 20  1  0
 13 12  2  0
 13 14  1  0
 14 15  1  0
 15 16  1  0
 16 17  2  0
 18 17  1  0
 19 18  2  0
 20 15  2  0
 20 19  1  0
 21 27  1  0
 22 21  2  0
 24 23  1  6
 24 25  1  0
 26 24  1  0
 26 28  1  0
 26 27  1  1
 28 30  2  0
 28 29  1  0
M  END
$$$$
