LWV.pdb
     RDKit          3D

 30 31  0  0  1  0  0  0  0  0999 V2000
    7.8721  -13.3241   17.8746 C   0  0  0  0  0  0  0  0  0  0  0  0
    8.4134  -14.5842   18.5208 C   0  0  1  0  0  0  0  0  0  0  0  0
    8.8387  -15.5167   17.4262 C   0  0  0  0  0  0  0  0  0  0  0  0
    9.4972  -14.1996   19.4613 C   0  0  0  0  0  0  0  0  0  0  0  0
    9.9933  -15.3419   20.3104 C   0  0  2  0  0  0  0  0  0  0  0  0
    9.2823  -16.5664   20.0717 N   0  0  0  0  0  0  0  0  0  0  0  0
    9.8101  -15.0131   21.7608 C   0  0  0  0  0  0  0  0  0  0  0  0
   10.3625  -13.9777   22.2703 O   0  0  0  0  0  0  0  0  0  0  0  0
    9.0290  -15.8142   22.6359 N   0  0  0  0  0  0  0  0  0  0  0  0
    8.6150  -15.2950   23.9671 C   0  0  1  0  0  0  0  0  0  0  0  0
    7.2792  -15.8920   24.3156 C   0  0  0  0  0  0  0  0  0  0  0  0
    6.3829  -15.0387   25.1047 C   0  0  0  0  0  0  0  0  0  0  0  0
    5.1605  -15.3623   25.6528 C   0  0  0  0  0  0  0  0  0  0  0  0
    4.6292  -14.3042   26.2783 N   0  0  0  0  0  0  0  0  0  0  0  0
    5.4843  -13.2598   26.1597 C   0  0  0  0  0  0  0  0  0  0  0  0
    5.4183  -11.9554   26.6165 C   0  0  0  0  0  0  0  0  0  0  0  0
    6.4459  -11.0543   26.3596 C   0  0  0  0  0  0  0  0  0  0  0  0
    7.5225  -11.5006   25.6407 C   0  0  0  0  0  0  0  0  0  0  0  0
    7.5846  -12.7894   25.1908 C   0  0  0  0  0  0  0  0  0  0  0  0
    6.5733  -13.7070   25.4337 C   0  0  0  0  0  0  0  0  0  0  0  0
    9.6276  -15.7091   24.9510 C   0  0  0  0  0  0  0  0  0  0  0  0
   10.5298  -16.5187   24.5403 O   0  0  0  0  0  0  0  0  0  0  0  0
   11.5988  -15.5959   29.4766 C   0  0  0  0  0  0  0  0  0  0  0  0
   10.5212  -15.2086   28.5079 C   0  0  1  0  0  0  0  0  0  0  0  0
   10.5297  -13.7312   28.2822 C   0  0  0  0  0  0  0  0  0  0  0  0
   10.7244  -15.8848   27.1444 C   0  0  2  0  0  0  0  0  0  0  0  0
    9.7111  -15.3075   26.2878 N   0  0  0  0  0  0  0  0  0  0  0  0
   10.6674  -17.3435   27.2622 C   0  0  0  0  0  0  0  0  0  0  0  0
    9.4346  -18.0278   27.3273 O   0  0  0  0  0  0  0  0  0  0  0  0
   11.6807  -18.0708   27.3125 O   0  0  0  0  0  0  0  0  0  0  0  0
  2  1  1  6
  2  3  1  0
  4  2  1  0
  5  6  1  6
  5  4  1  0
  7  5  1  0
  8  7  2  0
  9  7  1  0
 10 21  1  0
 10  9  1  0
 11 12  1  0
 10 11  1  1
 12 20  1  0
 13 12  2  0
 13 14  1  0
 14 15  1  0
 15 16  1  0
 16 17  2  0
 18 17  1  0
 19 18  2  0
 20 15  2  0
 20 19  1  0
 21 27  1  0
 22 21  2  0
 24 23  1  1
 24 25  1  0
 26 24  1  0
 26 28  1  0
 26 27  1  6
 28 30  2  0
 28 29  1  0
M  END
$$$$
