LWV.pdb
     RDKit          3D

 30 31  0  0  1  0  0  0  0  0999 V2000
    8.2861  -13.4753   17.1949 C   0  0  0  0  0  0  0  0  0  0  0  0
    8.7992  -14.7089   17.9116 C   0  0  1  0  0  0  0  0  0  0  0  0
    9.7223  -15.4332   16.9778 C   0  0  0  0  0  0  0  0  0  0  0  0
    9.4233  -14.2818   19.1903 C   0  0  0  0  0  0  0  0  0  0  0  0
    9.9081  -15.4296   20.0384 C   0  0  2  0  0  0  0  0  0  0  0  0
    9.1077  -16.6125   19.8894 N   0  0  0  0  0  0  0  0  0  0  0  0
    9.8505  -15.0502   21.4869 C   0  0  0  0  0  0  0  0  0  0  0  0
   10.4295  -13.9896   21.9074 O   0  0  0  0  0  0  0  0  0  0  0  0
    9.1642  -15.8287   22.4568 N   0  0  0  0  0  0  0  0  0  0  0  0
    8.7382  -15.2231   23.7470 C   0  0  1  0  0  0  0  0  0  0  0  0
    7.3162  -15.6318   24.0172 C   0  0  0  0  0  0  0  0  0  0  0  0
    6.6317  -14.8980   25.0883 C   0  0  0  0  0  0  0  0  0  0  0  0
    5.7711  -15.3911   26.0452 C   0  0  0  0  0  0  0  0  0  0  0  0
    5.3244  -14.4036   26.8315 N   0  0  0  0  0  0  0  0  0  0  0  0
    5.8769  -13.2385   26.4154 C   0  0  0  0  0  0  0  0  0  0  0  0
    5.7503  -11.9397   26.8758 C   0  0  0  0  0  0  0  0  0  0  0  0
    6.4358  -10.8945   26.2664 C   0  0  0  0  0  0  0  0  0  0  0  0
    7.2382  -11.1933   25.1978 C   0  0  0  0  0  0  0  0  0  0  0  0
    7.3609  -12.4769   24.7454 C   0  0  0  0  0  0  0  0  0  0  0  0
    6.6881  -13.5365   25.3357 C   0  0  0  0  0  0  0  0  0  0  0  0
    9.6230  -15.7375   24.8043 C   0  0  0  0  0  0  0  0  0  0  0  0
   10.3715  -16.7285   24.4947 O   0  0  0  0  0  0  0  0  0  0  0  0
   11.6819  -15.3631   29.2759 C   0  0  0  0  0  0  0  0  0  0  0  0
   10.5863  -15.0297   28.3073 C   0  0  1  0  0  0  0  0  0  0  0  0
   10.5991  -13.5696   27.9884 C   0  0  0  0  0  0  0  0  0  0  0  0
   10.7563  -15.7921   26.9854 C   0  0  2  0  0  0  0  0  0  0  0  0
    9.7358  -15.2545   26.1117 N   0  0  0  0  0  0  0  0  0  0  0  0
   10.6819  -17.2398   27.1949 C   0  0  0  0  0  0  0  0  0  0  0  0
   11.8386  -18.0045   27.4584 O   0  0  0  0  0  0  0  0  0  0  0  0
    9.6156  -17.8875   27.1565 O   0  0  0  0  0  0  0  0  0  0  0  0
  2  1  1  6
  2  3  1  0
  4  2  1  0
  5  6  1  1
  5  4  1  0
  7  5  1  0
  8  7  2  0
  9  7  1  0
 10 21  1  0
 10  9  1  0
 11 12  1  0
 10 11  1  1
 12 20  1  0
 13 12  2  0
 13 14  1  0
 14 15  1  0
 15 16  1  0
 16 17  2  0
 18 17  1  0
 19 18  2  0
 20 15  2  0
 20 19  1  0
 21 27  1  0
 22 21  2  0
 24 23  1  1
 24 25  1  0
 26 24  1  0
 26 28  1  0
 26 27  1  6
 28 30  2  0
 28 29  1  0
M  END
$$$$
