LWV.pdb
     RDKit          3D

 30 31  0  0  1  0  0  0  0  0999 V2000
    8.0142  -12.3311   19.3448 C   0  0  0  0  0  0  0  0  0  0  0  0
    8.0688  -13.7736   19.8083 C   0  0  1  0  0  0  0  0  0  0  0  0
    7.6712  -14.6435   18.6533 C   0  0  0  0  0  0  0  0  0  0  0  0
    9.4277  -14.0418   20.3452 C   0  0  0  0  0  0  0  0  0  0  0  0
    9.5740  -15.4089   20.9627 C   0  0  2  0  0  0  0  0  0  0  0  0
    8.4507  -16.2642   20.7008 N   0  0  0  0  0  0  0  0  0  0  0  0
    9.6825  -15.2843   22.4520 C   0  0  0  0  0  0  0  0  0  0  0  0
   10.4302  -14.3900   22.9795 O   0  0  0  0  0  0  0  0  0  0  0  0
    8.9766  -16.1329   23.3460 N   0  0  0  0  0  0  0  0  0  0  0  0
    8.9542  -15.8413   24.8046 C   0  0  1  0  0  0  0  0  0  0  0  0
    7.6266  -16.2824   25.3570 C   0  0  0  0  0  0  0  0  0  0  0  0
    6.6312  -15.2220   25.5543 C   0  0  0  0  0  0  0  0  0  0  0  0
    5.2571  -15.3275   25.5354 C   0  0  0  0  0  0  0  0  0  0  0  0
    4.6896  -14.1297   25.7253 N   0  0  0  0  0  0  0  0  0  0  0  0
    5.6707  -13.2070   25.8742 C   0  0  0  0  0  0  0  0  0  0  0  0
    5.6290  -11.8412   26.0919 C   0  0  0  0  0  0  0  0  0  0  0  0
    6.7993  -11.0997   26.2124 C   0  0  0  0  0  0  0  0  0  0  0  0
    7.9914  -11.7655   26.1083 C   0  0  0  0  0  0  0  0  0  0  0  0
    8.0291  -13.1144   25.8931 C   0  0  0  0  0  0  0  0  0  0  0  0
    6.8766  -13.8761   25.7695 C   0  0  0  0  0  0  0  0  0  0  0  0
   10.0441  -16.6017   25.4365 C   0  0  0  0  0  0  0  0  0  0  0  0
   10.5656  -17.5419   24.7423 O   0  0  0  0  0  0  0  0  0  0  0  0
   13.4059  -17.2574   28.9697 C   0  0  0  0  0  0  0  0  0  0  0  0
   12.2416  -16.5113   28.3887 C   0  0  1  0  0  0  0  0  0  0  0  0
   12.6720  -15.1608   27.9149 C   0  0  0  0  0  0  0  0  0  0  0  0
   11.6449  -17.2542   27.1847 C   0  0  2  0  0  0  0  0  0  0  0  0
   10.5737  -16.4023   26.7152 N   0  0  0  0  0  0  0  0  0  0  0  0
   11.2320  -18.6111   27.5502 C   0  0  0  0  0  0  0  0  0  0  0  0
   12.1152  -19.7055   27.4294 O   0  0  0  0  0  0  0  0  0  0  0  0
   10.0962  -18.8921   27.9848 O   0  0  0  0  0  0  0  0  0  0  0  0
  2  1  1  6
  2  3  1  0
  4  2  1  0
  5  6  1  1
  5  4  1  0
  7  5  1  0
  8  7  2  0
  9  7  1  0
 10 21  1  0
 10  9  1  0
 11 12  1  0
 10 11  1  1
 12 20  1  0
 13 12  2  0
 13 14  1  0
 14 15  1  0
 15 16  1  0
 16 17  2  0
 18 17  1  0
 19 18  2  0
 20 15  2  0
 20 19  1  0
 21 27  1  0
 22 21  2  0
 24 23  1  6
 24 25  1  0
 26 24  1  0
 26 28  1  0
 26 27  1  1
 28 30  2  0
 28 29  1  0
M  END
$$$$
