LWV.pdb
     RDKit          3D

 30 31  0  0  1  0  0  0  0  0999 V2000
    8.4071  -13.1128   17.8178 C   0  0  0  0  0  0  0  0  0  0  0  0
    8.7340  -14.4280   18.4973 C   0  0  1  0  0  0  0  0  0  0  0  0
    9.2596  -15.3674   17.4532 C   0  0  0  0  0  0  0  0  0  0  0  0
    9.6747  -14.1566   19.6147 C   0  0  0  0  0  0  0  0  0  0  0  0
    9.9473  -15.3601   20.4802 C   0  0  2  0  0  0  0  0  0  0  0  0
    9.0691  -16.4611   20.2002 N   0  0  0  0  0  0  0  0  0  0  0  0
    9.7461  -15.0046   21.9219 C   0  0  0  0  0  0  0  0  0  0  0  0
   10.2549  -13.9361   22.4079 O   0  0  0  0  0  0  0  0  0  0  0  0
    8.9945  -15.8152   22.8139 N   0  0  0  0  0  0  0  0  0  0  0  0
    8.6884  -15.3401   24.1900 C   0  0  1  0  0  0  0  0  0  0  0  0
    7.3800  -15.9438   24.6211 C   0  0  0  0  0  0  0  0  0  0  0  0
    6.4803  -15.0559   25.3670 C   0  0  0  0  0  0  0  0  0  0  0  0
    5.2088  -15.3214   25.8279 C   0  0  0  0  0  0  0  0  0  0  0  0
    4.6945  -14.2463   26.4384 N   0  0  0  0  0  0  0  0  0  0  0  0
    5.6100  -13.2482   26.3965 C   0  0  0  0  0  0  0  0  0  0  0  0
    5.5835  -11.9497   26.8739 C   0  0  0  0  0  0  0  0  0  0  0  0
    6.6724  -11.1019   26.7023 C   0  0  0  0  0  0  0  0  0  0  0  0
    7.7688  -11.5944   26.0463 C   0  0  0  0  0  0  0  0  0  0  0  0
    7.7918  -12.8771   25.5759 C   0  0  0  0  0  0  0  0  0  0  0  0
    6.7192  -13.7421   25.7342 C   0  0  0  0  0  0  0  0  0  0  0  0
    9.7718  -15.7911   25.0777 C   0  0  0  0  0  0  0  0  0  0  0  0
   10.5693  -16.6746   24.6070 O   0  0  0  0  0  0  0  0  0  0  0  0
   11.1387  -13.6677   28.1624 C   0  0  0  0  0  0  0  0  0  0  0  0
   11.1693  -15.1413   28.4403 C   0  0  1  0  0  0  0  0  0  0  0  0
   10.0014  -15.5367   29.2850 C   0  0  0  0  0  0  0  0  0  0  0  0
   11.0970  -15.9576   27.1419 C   0  0  2  0  0  0  0  0  0  0  0  0
   10.0250  -15.3526   26.3811 N   0  0  0  0  0  0  0  0  0  0  0  0
   10.9192  -17.3842   27.4215 C   0  0  0  0  0  0  0  0  0  0  0  0
   12.0204  -18.2197   27.7073 O   0  0  0  0  0  0  0  0  0  0  0  0
    9.8075  -17.9519   27.4274 O   0  0  0  0  0  0  0  0  0  0  0  0
  2  1  1  6
  2  3  1  0
  4  2  1  0
  5  6  1  6
  5  4  1  0
  7  5  1  0
  8  7  2  0
  9  7  1  0
 10 21  1  0
 10  9  1  0
 11 12  1  0
 10 11  1  1
 12 20  1  0
 13 12  2  0
 13 14  1  0
 14 15  1  0
 15 16  1  0
 16 17  2  0
 18 17  1  0
 19 18  2  0
 20 15  2  0
 20 19  1  0
 21 27  1  0
 22 21  2  0
 24 23  1  6
 24 25  1  0
 26 24  1  0
 26 28  1  0
 26 27  1  6
 28 30  2  0
 28 29  1  0
M  END
$$$$
