LWV.pdb
     RDKit          3D

 30 31  0  0  1  0  0  0  0  0999 V2000
    6.2914  -13.8966   19.9676 C   0  0  0  0  0  0  0  0  0  0  0  0
    7.6315  -13.8149   19.2634 C   0  0  1  0  0  0  0  0  0  0  0  0
    7.6697  -12.5282   18.4942 C   0  0  0  0  0  0  0  0  0  0  0  0
    8.7045  -13.9593   20.2805 C   0  0  0  0  0  0  0  0  0  0  0  0
    8.8338  -15.3579   20.8275 C   0  0  2  0  0  0  0  0  0  0  0  0
    7.5648  -15.9973   21.0342 N   0  0  0  0  0  0  0  0  0  0  0  0
    9.5195  -15.3207   22.1593 C   0  0  0  0  0  0  0  0  0  0  0  0
   10.4926  -14.5173   22.3704 O   0  0  0  0  0  0  0  0  0  0  0  0
    9.1373  -16.1569   23.2422 N   0  0  0  0  0  0  0  0  0  0  0  0
    9.8372  -16.0636   24.5515 C   0  0  1  0  0  0  0  0  0  0  0  0
    8.8565  -16.4038   25.6399 C   0  0  0  0  0  0  0  0  0  0  0  0
    7.7109  -15.4964   25.7760 C   0  0  0  0  0  0  0  0  0  0  0  0
    6.3787  -15.7636   25.5449 C   0  0  0  0  0  0  0  0  0  0  0  0
    5.6359  -14.6683   25.7487 N   0  0  0  0  0  0  0  0  0  0  0  0
    6.4555  -13.6547   26.1182 C   0  0  0  0  0  0  0  0  0  0  0  0
    6.2027  -12.3332   26.4413 C   0  0  0  0  0  0  0  0  0  0  0  0
    7.2362  -11.4728   26.7956 C   0  0  0  0  0  0  0  0  0  0  0  0
    8.5094  -11.9765   26.8137 C   0  0  0  0  0  0  0  0  0  0  0  0
    8.7558  -13.2820   26.4940 C   0  0  0  0  0  0  0  0  0  0  0  0
    7.7429  -14.1599   26.1374 C   0  0  0  0  0  0  0  0  0  0  0  0
   10.9438  -17.0334   24.5450 C   0  0  0  0  0  0  0  0  0  0  0  0
   10.6640  -18.2211   24.1589 O   0  0  0  0  0  0  0  0  0  0  0  0
   15.6756  -18.1262   24.2260 C   0  0  0  0  0  0  0  0  0  0  0  0
   14.5490  -17.1484   24.3824 C   0  0  1  0  0  0  0  0  0  0  0  0
   14.2891  -16.4418   23.0914 C   0  0  0  0  0  0  0  0  0  0  0  0
   13.2483  -17.8537   24.7924 C   0  0  2  0  0  0  0  0  0  0  0  0
   12.2714  -16.7930   24.9123 N   0  0  0  0  0  0  0  0  0  0  0  0
   13.4374  -18.6513   26.0062 C   0  0  0  0  0  0  0  0  0  0  0  0
   13.2749  -18.0862   27.2895 O   0  0  0  0  0  0  0  0  0  0  0  0
   13.7485  -19.8601   25.9949 O   0  0  0  0  0  0  0  0  0  0  0  0
  2  1  1  1
  2  3  1  0
  4  2  1  0
  5  6  1  1
  5  4  1  0
  7  5  1  0
  8  7  2  0
  9  7  1  0
 10 21  1  0
 10  9  1  0
 11 12  1  0
 10 11  1  1
 12 20  1  0
 13 12  2  0
 13 14  1  0
 14 15  1  0
 15 16  1  0
 16 17  2  0
 18 17  1  0
 19 18  2  0
 20 15  2  0
 20 19  1  0
 21 27  1  0
 22 21  2  0
 24 23  1  6
 24 25  1  0
 26 24  1  0
 26 28  1  0
 26 27  1  1
 28 30  2  0
 28 29  1  0
M  END
$$$$
