LWV.pdb
     RDKit          3D

 30 31  0  0  1  0  0  0  0  0999 V2000
    8.3299  -12.1954   18.6268 C   0  0  0  0  0  0  0  0  0  0  0  0
    8.3163  -13.5510   19.3054 C   0  0  1  0  0  0  0  0  0  0  0  0
    7.0432  -14.2448   18.9222 C   0  0  0  0  0  0  0  0  0  0  0  0
    9.5550  -14.2775   18.9251 C   0  0  0  0  0  0  0  0  0  0  0  0
    9.7140  -15.6051   19.6208 C   0  0  2  0  0  0  0  0  0  0  0  0
    8.6519  -16.5241   19.3221 N   0  0  0  0  0  0  0  0  0  0  0  0
    9.7050  -15.4044   21.1058 C   0  0  0  0  0  0  0  0  0  0  0  0
   10.5886  -14.6716   21.6708 O   0  0  0  0  0  0  0  0  0  0  0  0
    8.7357  -16.0025   21.9546 N   0  0  0  0  0  0  0  0  0  0  0  0
    8.6748  -15.6481   23.3981 C   0  0  1  0  0  0  0  0  0  0  0  0
    7.2417  -15.7290   23.8472 C   0  0  0  0  0  0  0  0  0  0  0  0
    6.9602  -15.2013   25.1875 C   0  0  0  0  0  0  0  0  0  0  0  0
    6.4669  -15.8756   26.2836 C   0  0  0  0  0  0  0  0  0  0  0  0
    6.3155  -15.0425   27.3210 N   0  0  0  0  0  0  0  0  0  0  0  0
    6.7039  -13.8023   26.9375 C   0  0  0  0  0  0  0  0  0  0  0  0
    6.7468  -12.5968   27.6154 C   0  0  0  0  0  0  0  0  0  0  0  0
    7.1949  -11.4390   26.9888 C   0  0  0  0  0  0  0  0  0  0  0  0
    7.5910  -11.5322   25.6814 C   0  0  0  0  0  0  0  0  0  0  0  0
    7.5472  -12.7241   25.0146 C   0  0  0  0  0  0  0  0  0  0  0  0
    7.1046  -13.8925   25.6168 C   0  0  0  0  0  0  0  0  0  0  0  0
    9.4940  -16.6202   24.1392 C   0  0  0  0  0  0  0  0  0  0  0  0
    9.4682  -17.8296   23.7213 O   0  0  0  0  0  0  0  0  0  0  0  0
   13.2835  -17.9577   26.7898 C   0  0  0  0  0  0  0  0  0  0  0  0
   12.4585  -16.9986   25.9842 C   0  0  1  0  0  0  0  0  0  0  0  0
   12.9814  -16.9072   24.5871 C   0  0  0  0  0  0  0  0  0  0  0  0
   10.9943  -17.4532   25.8999 C   0  0  2  0  0  0  0  0  0  0  0  0
   10.3021  -16.3609   25.2505 N   0  0  0  0  0  0  0  0  0  0  0  0
   10.4725  -17.8086   27.2215 C   0  0  0  0  0  0  0  0  0  0  0  0
   10.8225  -19.0246   27.8469 O   0  0  0  0  0  0  0  0  0  0  0  0
    9.6987  -17.0796   27.8756 O   0  0  0  0  0  0  0  0  0  0  0  0
  2  1  1  6
  2  3  1  0
  4  2  1  0
  5  6  1  1
  5  4  1  0
  7  5  1  0
  8  7  2  0
  9  7  1  0
 10 21  1  0
 10  9  1  0
 11 12  1  0
 10 11  1  1
 12 20  1  0
 13 12  2  0
 13 14  1  0
 14 15  1  0
 15 16  1  0
 16 17  2  0
 18 17  1  0
 19 18  2  0
 20 15  2  0
 20 19  1  0
 21 27  1  0
 22 21  2  0
 24 23  1  1
 24 25  1  0
 26 24  1  0
 26 28  1  0
 26 27  1  1
 28 30  2  0
 28 29  1  0
M  END
$$$$
