SLE.pdb
     RDKit          3D

 24 23  0  0  1  0  0  0  0  0999 V2000
   18.4330   -9.8488  -17.0340 O   0  0  0  0  0  0  0  0  0  0  0  0
   19.2124  -10.6538  -17.8719 C   0  0  0  0  0  0  0  0  0  0  0  0
   19.8544  -11.7942  -17.0678 C   0  0  2  0  0  0  0  0  0  0  0  0
   18.8672  -12.5193  -16.3323 N   0  0  0  0  0  0  0  0  0  0  0  0
   20.8444  -11.1792  -16.1349 C   0  0  0  0  0  0  0  0  0  0  0  0
   20.7042  -11.0744  -14.9057 O   0  0  0  0  0  0  0  0  0  0  0  0
   26.7470  -11.0642  -15.3769 C   0  0  0  0  0  0  0  0  0  0  0  0
   25.5073  -10.1807  -15.3304 C   0  0  1  0  0  0  0  0  0  0  0  0
   25.9397   -8.9041  -16.1216 C   0  0  0  0  0  0  0  0  0  0  0  0
   24.3796  -10.7708  -16.1165 C   0  0  0  0  0  0  0  0  0  0  0  0
   23.0846  -10.0304  -15.9157 C   0  0  2  0  0  0  0  0  0  0  0  0
   22.0363  -10.6824  -16.7237 N   0  0  0  0  0  0  0  0  0  0  0  0
   23.1939   -8.6771  -16.4681 C   0  0  0  0  0  0  0  0  0  0  0  0
   23.4926   -8.5316  -17.6998 O   0  0  0  0  0  0  0  0  0  0  0  0
   22.9954   -7.4542  -15.7792 N   0  0  0  0  0  0  0  0  0  0  0  0
   23.0560   -6.1633  -16.4517 C   0  0  1  0  0  0  0  0  0  0  0  0
   22.0625   -5.1941  -15.8927 C   0  0  0  0  0  0  0  0  0  0  0  0
   22.3514   -4.7289  -14.4953 C   0  0  0  0  0  0  0  0  0  0  0  0
   21.1419   -4.0150  -13.9950 C   0  0  0  0  0  0  0  0  0  0  0  0
   20.9174   -2.8492  -14.4368 O   0  0  0  0  0  0  0  0  0  0  0  0
   24.3993   -5.6002  -16.5156 C   0  0  0  0  0  0  0  0  0  0  0  0
   24.7496   -4.8891  -17.4793 O   0  0  0  0  0  0  0  0  0  0  0  0
   20.2824   -4.6078  -13.0665 O   0  0  0  0  0  0  0  0  0  0  0  0
   25.3117   -5.8435  -15.5097 O   0  0  0  0  0  0  0  0  0  0  0  0
  2  3  1  0
  2  1  1  0
  3  4  1  1
  5  3  1  0
  5  6  2  0
  8  7  1  6
  8 10  1  0
  8  9  1  0
 11 10  1  6
 11 12  1  0
 11 13  1  0
 12  5  1  0
 13 15  1  0
 14 13  2  0
 15 16  1  0
 16 21  1  0
 17 18  1  0
 16 17  1  1
 19 23  1  0
 19 18  1  0
 20 19  2  0
 21 22  2  0
 21 24  1  0
M  END
$$$$
