SLE.pdb
     RDKit          3D

 24 23  0  0  1  0  0  0  0  0999 V2000
   24.4544  -22.4888  -18.3780 O   0  0  0  0  0  0  0  0  0  0  0  0
   25.7810  -22.0890  -18.1832 C   0  0  0  0  0  0  0  0  0  0  0  0
   26.4902  -23.0505  -17.2179 C   0  0  2  0  0  0  0  0  0  0  0  0
   26.4568  -24.3896  -17.7145 N   0  0  0  0  0  0  0  0  0  0  0  0
   25.7816  -22.9685  -15.9065 C   0  0  0  0  0  0  0  0  0  0  0  0
   25.1023  -23.8756  -15.3992 O   0  0  0  0  0  0  0  0  0  0  0  0
   28.2037  -19.7495  -12.0281 C   0  0  0  0  0  0  0  0  0  0  0  0
   27.4192  -20.9089  -12.6279 C   0  0  1  0  0  0  0  0  0  0  0  0
   27.0963  -21.8088  -11.3915 C   0  0  0  0  0  0  0  0  0  0  0  0
   26.0905  -20.4636  -13.1515 C   0  0  0  0  0  0  0  0  0  0  0  0
   25.3434  -21.5687  -13.8487 C   0  0  2  0  0  0  0  0  0  0  0  0
   25.9108  -21.7450  -15.1992 N   0  0  0  0  0  0  0  0  0  0  0  0
   23.9537  -21.1629  -14.0778 C   0  0  0  0  0  0  0  0  0  0  0  0
   23.7079  -20.2396  -14.9232 O   0  0  0  0  0  0  0  0  0  0  0  0
   22.7951  -21.6931  -13.4567 N   0  0  0  0  0  0  0  0  0  0  0  0
   21.4590  -21.1854  -13.7391 C   0  0  1  0  0  0  0  0  0  0  0  0
   20.4131  -22.2435  -13.5791 C   0  0  0  0  0  0  0  0  0  0  0  0
   19.0127  -21.7985  -13.8850 C   0  0  0  0  0  0  0  0  0  0  0  0
   18.3745  -22.8525  -14.7244 C   0  0  0  0  0  0  0  0  0  0  0  0
   19.0766  -23.8549  -15.0514 O   0  0  0  0  0  0  0  0  0  0  0  0
   21.1292  -19.9691  -13.0060 C   0  0  0  0  0  0  0  0  0  0  0  0
   21.6914  -19.7017  -11.9247 O   0  0  0  0  0  0  0  0  0  0  0  0
   17.0458  -22.7409  -15.1419 O   0  0  0  0  0  0  0  0  0  0  0  0
   20.1866  -19.0880  -13.4948 O   0  0  0  0  0  0  0  0  0  0  0  0
  2  3  1  0
  2  1  1  0
  3  4  1  6
  5  3  1  0
  5  6  2  0
  8  7  1  1
  8 10  1  0
  8  9  1  0
 11 10  1  6
 11 12  1  0
 11 13  1  0
 12  5  1  0
 13 15  1  0
 14 13  2  0
 15 16  1  0
 16 21  1  0
 17 18  1  0
 16 17  1  1
 19 23  1  0
 19 18  1  0
 20 19  2  0
 21 22  2  0
 21 24  1  0
M  END
$$$$
