SLE.pdb
     RDKit          3D

 24 23  0  0  1  0  0  0  0  0999 V2000
   18.7081  -10.7407  -20.1409 O   0  0  0  0  0  0  0  0  0  0  0  0
   19.5205  -10.2569  -19.1096 C   0  0  0  0  0  0  0  0  0  0  0  0
   20.1209  -11.4246  -18.3128 C   0  0  2  0  0  0  0  0  0  0  0  0
   19.0935  -12.2730  -17.7973 N   0  0  0  0  0  0  0  0  0  0  0  0
   20.9158  -10.8382  -17.1934 C   0  0  0  0  0  0  0  0  0  0  0  0
   20.4763  -10.5709  -16.0634 O   0  0  0  0  0  0  0  0  0  0  0  0
   25.4986  -10.5015  -14.4160 C   0  0  0  0  0  0  0  0  0  0  0  0
   25.5975   -9.8802  -15.8029 C   0  0  1  0  0  0  0  0  0  0  0  0
   26.9872  -10.3703  -16.3236 C   0  0  0  0  0  0  0  0  0  0  0  0
   24.5928  -10.4674  -16.7432 C   0  0  0  0  0  0  0  0  0  0  0  0
   23.1864  -10.0287  -16.4350 C   0  0  2  0  0  0  0  0  0  0  0  0
   22.2834  -10.5751  -17.4660 N   0  0  0  0  0  0  0  0  0  0  0  0
   23.0765   -8.5739  -16.5756 C   0  0  0  0  0  0  0  0  0  0  0  0
   23.1019   -8.0593  -17.7427 O   0  0  0  0  0  0  0  0  0  0  0  0
   22.9330   -7.6230  -15.5341 N   0  0  0  0  0  0  0  0  0  0  0  0
   22.6522   -6.2177  -15.7964 C   0  0  1  0  0  0  0  0  0  0  0  0
   21.4218   -6.0390  -16.6290 C   0  0  0  0  0  0  0  0  0  0  0  0
   20.1276   -6.1962  -15.8852 C   0  0  0  0  0  0  0  0  0  0  0  0
   19.0485   -6.4095  -16.8916 C   0  0  0  0  0  0  0  0  0  0  0  0
   19.1632   -5.8337  -18.0140 O   0  0  0  0  0  0  0  0  0  0  0  0
   22.6293   -5.3923  -14.5948 C   0  0  0  0  0  0  0  0  0  0  0  0
   22.7107   -5.9092  -13.4621 O   0  0  0  0  0  0  0  0  0  0  0  0
   17.9427   -7.2156  -16.6090 O   0  0  0  0  0  0  0  0  0  0  0  0
   22.5166   -4.0202  -14.6870 O   0  0  0  0  0  0  0  0  0  0  0  0
  2  3  1  0
  2  1  1  0
  3  4  1  1
  5  3  1  0
  5  6  2  0
  8  7  1  1
  8 10  1  0
  8  9  1  0
 11 10  1  6
 11 12  1  0
 11 13  1  0
 12  5  1  0
 13 15  1  0
 14 13  2  0
 15 16  1  0
 16 21  1  0
 17 18  1  0
 16 17  1  1
 19 23  1  0
 19 18  1  0
 20 19  2  0
 21 22  2  0
 21 24  1  0
M  END
$$$$
