SLE.pdb
     RDKit          3D

 24 23  0  0  1  0  0  0  0  0999 V2000
   17.7181  -11.5497  -18.9306 O   0  0  0  0  0  0  0  0  0  0  0  0
   18.4413  -11.0136  -17.8596 C   0  0  0  0  0  0  0  0  0  0  0  0
   19.4903  -12.0222  -17.3679 C   0  0  2  0  0  0  0  0  0  0  0  0
   18.8652  -13.1999  -16.8546 N   0  0  0  0  0  0  0  0  0  0  0  0
   20.2857  -11.3516  -16.2973 C   0  0  0  0  0  0  0  0  0  0  0  0
   19.9684  -11.2903  -15.0985 O   0  0  0  0  0  0  0  0  0  0  0  0
   26.2122  -10.6436  -15.3225 C   0  0  0  0  0  0  0  0  0  0  0  0
   24.8388  -10.0238  -15.1008 C   0  0  1  0  0  0  0  0  0  0  0  0
   25.0450   -8.5275  -15.5026 C   0  0  0  0  0  0  0  0  0  0  0  0
   23.8299  -10.5581  -16.0676 C   0  0  0  0  0  0  0  0  0  0  0  0
   22.4256  -10.1316  -15.7332 C   0  0  2  0  0  0  0  0  0  0  0  0
   21.5008  -10.7433  -16.7065 N   0  0  0  0  0  0  0  0  0  0  0  0
   22.2817   -8.6875  -15.9382 C   0  0  0  0  0  0  0  0  0  0  0  0
   22.5483   -8.1934  -17.0838 O   0  0  0  0  0  0  0  0  0  0  0  0
   21.8591   -7.7269  -14.9852 N   0  0  0  0  0  0  0  0  0  0  0  0
   21.7337   -6.3121  -15.3091 C   0  0  1  0  0  0  0  0  0  0  0  0
   20.3105   -5.8520  -15.2644 C   0  0  0  0  0  0  0  0  0  0  0  0
   20.1069   -4.3978  -15.5749 C   0  0  0  0  0  0  0  0  0  0  0  0
   18.6413   -4.1265  -15.5384 C   0  0  0  0  0  0  0  0  0  0  0  0
   18.2507   -2.9483  -15.7914 O   0  0  0  0  0  0  0  0  0  0  0  0
   22.6153   -5.4533  -14.5275 C   0  0  0  0  0  0  0  0  0  0  0  0
   23.1090   -4.4212  -15.0255 O   0  0  0  0  0  0  0  0  0  0  0  0
   17.7245   -5.1356  -15.2325 O   0  0  0  0  0  0  0  0  0  0  0  0
   22.9217   -5.7659  -13.2191 O   0  0  0  0  0  0  0  0  0  0  0  0
  2  3  1  0
  2  1  1  0
  3  4  1  1
  5  3  1  0
  5  6  2  0
  8  7  1  6
  8 10  1  0
  8  9  1  0
 11 10  1  6
 11 12  1  0
 11 13  1  0
 12  5  1  0
 13 15  1  0
 14 13  2  0
 15 16  1  0
 16 21  1  0
 17 18  1  0
 16 17  1  1
 19 23  1  0
 19 18  1  0
 20 19  2  0
 21 22  2  0
 21 24  1  0
M  END
$$$$
