SLE.pdb
     RDKit          3D

 24 23  0  0  1  0  0  0  0  0999 V2000
   20.6289  -13.4253  -19.6107 O   0  0  0  0  0  0  0  0  0  0  0  0
   19.6154  -12.7860  -18.8883 C   0  0  0  0  0  0  0  0  0  0  0  0
   19.8940  -11.2779  -18.8015 C   0  0  2  0  0  0  0  0  0  0  0  0
   20.6929  -10.8419  -19.9028 N   0  0  0  0  0  0  0  0  0  0  0  0
   20.6094  -11.0303  -17.5149 C   0  0  0  0  0  0  0  0  0  0  0  0
   20.1954  -11.3516  -16.3894 O   0  0  0  0  0  0  0  0  0  0  0  0
   26.3546  -10.6618  -15.6332 C   0  0  0  0  0  0  0  0  0  0  0  0
   24.9490  -10.1034  -15.4546 C   0  0  1  0  0  0  0  0  0  0  0  0
   25.1643   -8.5558  -15.4907 C   0  0  0  0  0  0  0  0  0  0  0  0
   24.0799  -10.4100  -16.6331 C   0  0  0  0  0  0  0  0  0  0  0  0
   22.6441  -10.0165  -16.4111 C   0  0  2  0  0  0  0  0  0  0  0  0
   21.8642  -10.3744  -17.6114 N   0  0  0  0  0  0  0  0  0  0  0  0
   22.5364   -8.5578  -16.3172 C   0  0  0  0  0  0  0  0  0  0  0  0
   23.0734   -7.8361  -17.2219 O   0  0  0  0  0  0  0  0  0  0  0  0
   21.8769   -7.8127  -15.3076 N   0  0  0  0  0  0  0  0  0  0  0  0
   21.8935   -6.3562  -15.2787 C   0  0  1  0  0  0  0  0  0  0  0  0
   20.5471   -5.7755  -15.5773 C   0  0  0  0  0  0  0  0  0  0  0  0
   20.0028   -6.1087  -16.9357 C   0  0  0  0  0  0  0  0  0  0  0  0
   18.6510   -5.4899  -17.0476 C   0  0  0  0  0  0  0  0  0  0  0  0
   17.6606   -6.1478  -16.6106 O   0  0  0  0  0  0  0  0  0  0  0  0
   22.4750   -5.8025  -14.0618 C   0  0  0  0  0  0  0  0  0  0  0  0
   22.6324   -6.5123  -13.0477 O   0  0  0  0  0  0  0  0  0  0  0  0
   18.4769   -4.2264  -17.6183 O   0  0  0  0  0  0  0  0  0  0  0  0
   22.8632   -4.4796  -14.0075 O   0  0  0  0  0  0  0  0  0  0  0  0
  2  3  1  0
  2  1  1  0
  3  4  1  6
  5  3  1  0
  5  6  2  0
  8  7  1  6
  8 10  1  0
  8  9  1  0
 11 10  1  6
 11 12  1  0
 11 13  1  0
 12  5  1  0
 13 15  1  0
 14 13  2  0
 15 16  1  0
 16 21  1  0
 17 18  1  0
 16 17  1  1
 19 23  1  0
 19 18  1  0
 20 19  2  0
 21 22  2  0
 21 24  1  0
M  END
$$$$
