SLE.pdb
     RDKit          3D

 24 23  0  0  1  0  0  0  0  0999 V2000
   19.5757   -9.4880  -19.6405 O   0  0  0  0  0  0  0  0  0  0  0  0
   20.6438  -10.1793  -20.2226 C   0  0  0  0  0  0  0  0  0  0  0  0
   20.9411  -11.4624  -19.4324 C   0  0  2  0  0  0  0  0  0  0  0  0
   19.7796  -12.2898  -19.3462 N   0  0  0  0  0  0  0  0  0  0  0  0
   21.3850  -11.0523  -18.0674 C   0  0  0  0  0  0  0  0  0  0  0  0
   20.7475  -11.2388  -17.0184 O   0  0  0  0  0  0  0  0  0  0  0  0
   25.1024  -10.2297  -14.2878 C   0  0  0  0  0  0  0  0  0  0  0  0
   25.3337   -9.3992  -15.5433 C   0  0  1  0  0  0  0  0  0  0  0  0
   26.8711   -9.5332  -15.7908 C   0  0  0  0  0  0  0  0  0  0  0  0
   24.6845  -10.0173  -16.7409 C   0  0  0  0  0  0  0  0  0  0  0  0
   23.1831   -9.9184  -16.7008 C   0  0  2  0  0  0  0  0  0  0  0  0
   22.6425  -10.3993  -17.9867 N   0  0  0  0  0  0  0  0  0  0  0  0
   22.7786   -8.5114  -16.6287 C   0  0  0  0  0  0  0  0  0  0  0  0
   23.0104   -7.7470  -17.6235 O   0  0  0  0  0  0  0  0  0  0  0  0
   22.1279   -7.8635  -15.5488 N   0  0  0  0  0  0  0  0  0  0  0  0
   21.8094   -6.4420  -15.5718 C   0  0  1  0  0  0  0  0  0  0  0  0
   20.3375   -6.2004  -15.6907 C   0  0  0  0  0  0  0  0  0  0  0  0
   19.9279   -4.7576  -15.6347 C   0  0  0  0  0  0  0  0  0  0  0  0
   18.4454   -4.7003  -15.7830 C   0  0  0  0  0  0  0  0  0  0  0  0
   17.8127   -3.8543  -15.0838 O   0  0  0  0  0  0  0  0  0  0  0  0
   22.4039   -5.6921  -14.4718 C   0  0  0  0  0  0  0  0  0  0  0  0
   22.7639   -6.2688  -13.4255 O   0  0  0  0  0  0  0  0  0  0  0  0
   17.7711   -5.5523  -16.6613 O   0  0  0  0  0  0  0  0  0  0  0  0
   22.5803   -4.3270  -14.5666 O   0  0  0  0  0  0  0  0  0  0  0  0
  2  3  1  0
  2  1  1  0
  3  4  1  1
  5  3  1  0
  5  6  2  0
  8  7  1  1
  8 10  1  0
  8  9  1  0
 11 10  1  6
 11 12  1  0
 11 13  1  0
 12  5  1  0
 13 15  1  0
 14 13  2  0
 15 16  1  0
 16 21  1  0
 17 18  1  0
 16 17  1  1
 19 23  1  0
 19 18  1  0
 20 19  2  0
 21 22  2  0
 21 24  1  0
M  END
$$$$
