SLE.pdb
     RDKit          3D

 24 23  0  0  1  0  0  0  0  0999 V2000
   18.5573  -10.4787  -20.5177 O   0  0  0  0  0  0  0  0  0  0  0  0
   19.0414  -10.1848  -19.2383 C   0  0  0  0  0  0  0  0  0  0  0  0
   19.9082  -11.3414  -18.7187 C   0  0  2  0  0  0  0  0  0  0  0  0
   19.1255  -12.5217  -18.5306 N   0  0  0  0  0  0  0  0  0  0  0  0
   20.5030  -10.9044  -17.4211 C   0  0  0  0  0  0  0  0  0  0  0  0
   19.9163  -10.9013  -16.3268 O   0  0  0  0  0  0  0  0  0  0  0  0
   24.4369  -10.2974  -13.8596 C   0  0  0  0  0  0  0  0  0  0  0  0
   24.8006   -9.7462  -15.2319 C   0  0  1  0  0  0  0  0  0  0  0  0
   26.2555  -10.2693  -15.4609 C   0  0  0  0  0  0  0  0  0  0  0  0
   23.9795  -10.3735  -16.3136 C   0  0  0  0  0  0  0  0  0  0  0  0
   22.5366   -9.9476  -16.2655 C   0  0  2  0  0  0  0  0  0  0  0  0
   21.8508  -10.4624  -17.4662 N   0  0  0  0  0  0  0  0  0  0  0  0
   22.4439   -8.4893  -16.3792 C   0  0  0  0  0  0  0  0  0  0  0  0
   22.8391   -7.9238  -17.4523 O   0  0  0  0  0  0  0  0  0  0  0  0
   21.9429   -7.5865  -15.4079 N   0  0  0  0  0  0  0  0  0  0  0  0
   21.9317   -6.1449  -15.6176 C   0  0  1  0  0  0  0  0  0  0  0  0
   20.6104   -5.6643  -16.1297 C   0  0  0  0  0  0  0  0  0  0  0  0
   19.5003   -5.6738  -15.1197 C   0  0  0  0  0  0  0  0  0  0  0  0
   18.2620   -5.1994  -15.8013 C   0  0  0  0  0  0  0  0  0  0  0  0
   17.7296   -4.1285  -15.3838 O   0  0  0  0  0  0  0  0  0  0  0  0
   22.3845   -5.3825  -14.4603 C   0  0  0  0  0  0  0  0  0  0  0  0
   22.5553   -5.9374  -13.3558 O   0  0  0  0  0  0  0  0  0  0  0  0
   17.7017   -5.9115  -16.8649 O   0  0  0  0  0  0  0  0  0  0  0  0
   22.6334   -4.0294  -14.5640 O   0  0  0  0  0  0  0  0  0  0  0  0
  2  3  1  0
  2  1  1  0
  3  4  1  1
  5  3  1  0
  5  6  2  0
  8  7  1  1
  8 10  1  0
  8  9  1  0
 11 10  1  6
 11 12  1  0
 11 13  1  0
 12  5  1  0
 13 15  1  0
 14 13  2  0
 15 16  1  0
 16 21  1  0
 17 18  1  0
 16 17  1  1
 19 23  1  0
 19 18  1  0
 20 19  2  0
 21 22  2  0
 21 24  1  0
M  END
$$$$
