SLE.pdb
     RDKit          3D

 24 23  0  0  1  0  0  0  0  0999 V2000
   17.6688  -12.3602  -13.4024 O   0  0  0  0  0  0  0  0  0  0  0  0
   16.8002  -11.2940  -13.1448 C   0  0  0  0  0  0  0  0  0  0  0  0
   16.1280  -11.4742  -11.7755 C   0  0  2  0  0  0  0  0  0  0  0  0
   15.2136  -12.5717  -11.7959 N   0  0  0  0  0  0  0  0  0  0  0  0
   15.4050  -10.2059  -11.4638 C   0  0  0  0  0  0  0  0  0  0  0  0
   14.3720   -9.8106  -12.0280 O   0  0  0  0  0  0  0  0  0  0  0  0
   13.4266   -6.4430   -8.3469 C   0  0  0  0  0  0  0  0  0  0  0  0
   14.9320   -6.5758   -8.1576 C   0  0  1  0  0  0  0  0  0  0  0  0
   15.1069   -6.5587   -6.6046 C   0  0  0  0  0  0  0  0  0  0  0  0
   15.4269   -7.9174   -8.5971 C   0  0  0  0  0  0  0  0  0  0  0  0
   15.3989   -8.0829  -10.0929 C   0  0  2  0  0  0  0  0  0  0  0  0
   15.9612   -9.4038  -10.4336 N   0  0  0  0  0  0  0  0  0  0  0  0
   16.3081   -7.1179  -10.7177 C   0  0  0  0  0  0  0  0  0  0  0  0
   17.5593   -7.2016  -10.4829 O   0  0  0  0  0  0  0  0  0  0  0  0
   15.9600   -6.0593  -11.5940 N   0  0  0  0  0  0  0  0  0  0  0  0
   16.9579   -5.1756  -12.1821 C   0  0  1  0  0  0  0  0  0  0  0  0
   17.4566   -5.6906  -13.4955 C   0  0  0  0  0  0  0  0  0  0  0  0
   16.4220   -5.7598  -14.5807 C   0  0  0  0  0  0  0  0  0  0  0  0
   17.1118   -6.1576  -15.8411 C   0  0  0  0  0  0  0  0  0  0  0  0
   17.1682   -5.3078  -16.7789 O   0  0  0  0  0  0  0  0  0  0  0  0
   16.5314   -3.7838  -12.2618 C   0  0  0  0  0  0  0  0  0  0  0  0
   15.3570   -3.4583  -11.9937 O   0  0  0  0  0  0  0  0  0  0  0  0
   17.6767   -7.4270  -15.9889 O   0  0  0  0  0  0  0  0  0  0  0  0
   17.4200   -2.7970  -12.6364 O   0  0  0  0  0  0  0  0  0  0  0  0
  2  3  1  0
  2  1  1  0
  3  4  1  6
  5  3  1  0
  5  6  2  0
  8  7  1  1
  8 10  1  0
  8  9  1  0
 11 10  1  1
 11 12  1  0
 11 13  1  0
 12  5  1  0
 13 15  1  0
 14 13  2  0
 15 16  1  0
 16 21  1  0
 17 18  1  0
 16 17  1  6
 19 23  1  0
 19 18  1  0
 20 19  2  0
 21 22  2  0
 21 24  1  0
M  END
$$$$
