WMI.pdb
     RDKit          3D

 31 32  0  0  1  0  0  0  0  0999 V2000
   27.0852  -22.5819  -11.9131 N   0  0  0  0  0  0  0  0  0  0  0  0
   26.2335  -21.6177  -11.2586 C   0  0  1  0  0  0  0  0  0  0  0  0
   26.9793  -20.3266  -11.0015 C   0  0  0  0  0  0  0  0  0  0  0  0
   27.9913  -20.5512   -9.9442 C   0  0  0  0  0  0  0  0  0  0  0  0
   29.2452  -21.0662  -10.1590 C   0  0  0  0  0  0  0  0  0  0  0  0
   29.9098  -21.1365   -8.9680 N   0  0  0  0  0  0  0  0  0  0  0  0
   29.0930  -20.6730   -8.0037 C   0  0  0  0  0  0  0  0  0  0  0  0
   29.3051  -20.5449   -6.6520 C   0  0  0  0  0  0  0  0  0  0  0  0
   28.2861  -20.0335   -5.8772 C   0  0  0  0  0  0  0  0  0  0  0  0
   27.0672  -19.6504   -6.4259 C   0  0  0  0  0  0  0  0  0  0  0  0
   26.8853  -19.7920   -7.7899 C   0  0  0  0  0  0  0  0  0  0  0  0
   27.8847  -20.3008   -8.5960 C   0  0  0  0  0  0  0  0  0  0  0  0
   25.0183  -21.4058  -12.0673 C   0  0  0  0  0  0  0  0  0  0  0  0
   25.0034  -21.4527  -13.3217 O   0  0  0  0  0  0  0  0  0  0  0  0
   19.4747  -23.7016   -9.7477 C   0  0  0  0  0  0  0  0  0  0  0  0
   18.8732  -22.9439  -11.2811 S   0  0  0  0  0  0  0  0  0  0  0  0
   20.2308  -22.1456  -12.1881 C   0  0  0  0  0  0  0  0  0  0  0  0
   21.4187  -21.8770  -11.2951 C   0  0  0  0  0  0  0  0  0  0  0  0
   22.5248  -21.3015  -12.1008 C   0  0  2  0  0  0  0  0  0  0  0  0
   23.7734  -21.1314  -11.4578 N   0  0  0  0  0  0  0  0  0  0  0  0
   22.1473  -20.0047  -12.7344 C   0  0  0  0  0  0  0  0  0  0  0  0
   22.0278  -19.0229  -11.9360 O   0  0  0  0  0  0  0  0  0  0  0  0
   23.0186  -18.8457  -18.2341 C   0  0  0  0  0  0  0  0  0  0  0  0
   22.1755  -19.2114  -17.0293 C   0  0  0  0  0  0  0  0  0  0  0  0
   22.4222  -18.2600  -15.8815 C   0  0  2  0  0  0  0  0  0  0  0  0
   23.8892  -18.2074  -15.6271 C   0  0  0  0  0  0  0  0  0  0  0  0
   21.5714  -18.5383  -14.6954 C   0  0  2  0  0  0  0  0  0  0  0  0
   21.9304  -19.8397  -14.1117 N   0  0  0  0  0  0  0  0  0  0  0  0
   20.1255  -18.5161  -14.9135 C   0  0  0  0  0  0  0  0  0  0  0  0
   19.3717  -19.5187  -14.8531 O   0  0  0  0  0  0  0  0  0  0  0  0
   19.5147  -17.3055  -15.2110 O   0  0  0  0  0  0  0  0  0  0  0  0
  2  1  1  6
  2  3  1  0
  4  3  1  0
  5  4  2  0
  6  5  1  0
  7  6  1  0
  7 12  2  0
  8  7  1  0
  9  8  2  0
  9 10  1  0
 10 11  2  0
 11 12  1  0
 12  4  1  0
 13 20  1  0
 13  2  1  0
 14 13  2  0
 16 15  1  0
 17 16  1  0
 18 17  1  0
 19 18  1  1
 19 20  1  0
 21 19  1  0
 22 21  2  0
 23 24  1  0
 24 25  1  0
 25 26  1  1
 27 25  1  0
 27 28  1  6
 28 21  1  0
 29 31  1  0
 29 27  1  0
 30 29  2  0
M  END
$$$$
