WMI.pdb
     RDKit          3D

 31 32  0  0  1  0  0  0  0  0999 V2000
   20.9665  -18.5551  -15.6732 N   0  0  0  0  0  0  0  0  0  0  0  0
   22.0390  -18.6888  -14.7164 C   0  0  1  0  0  0  0  0  0  0  0  0
   22.1147  -20.1038  -14.1860 C   0  0  0  0  0  0  0  0  0  0  0  0
   21.1391  -20.2633  -13.0837 C   0  0  0  0  0  0  0  0  0  0  0  0
   19.8375  -20.6680  -13.2441 C   0  0  0  0  0  0  0  0  0  0  0  0
   19.2271  -20.7055  -12.0231 N   0  0  0  0  0  0  0  0  0  0  0  0
   20.1251  -20.3301  -11.0933 C   0  0  0  0  0  0  0  0  0  0  0  0
   19.9892  -20.2099   -9.7311 C   0  0  0  0  0  0  0  0  0  0  0  0
   21.0833  -19.7993   -9.0000 C   0  0  0  0  0  0  0  0  0  0  0  0
   22.3026  -19.5088   -9.6022 C   0  0  0  0  0  0  0  0  0  0  0  0
   22.4066  -19.6397  -10.9753 C   0  0  0  0  0  0  0  0  0  0  0  0
   21.3307  -20.0486  -11.7387 C   0  0  0  0  0  0  0  0  0  0  0  0
   23.3069  -18.2590  -15.3355 C   0  0  0  0  0  0  0  0  0  0  0  0
   23.6621  -18.5936  -16.4921 O   0  0  0  0  0  0  0  0  0  0  0  0
   24.9762  -12.0087  -16.4899 C   0  0  0  0  0  0  0  0  0  0  0  0
   25.9584  -13.1746  -15.5085 S   0  0  0  0  0  0  0  0  0  0  0  0
   25.3512  -14.8746  -15.7191 C   0  0  0  0  0  0  0  0  0  0  0  0
   26.1116  -15.8517  -14.8543 C   0  0  0  0  0  0  0  0  0  0  0  0
   25.5547  -17.2153  -15.0391 C   0  0  2  0  0  0  0  0  0  0  0  0
   24.2132  -17.4258  -14.6420 N   0  0  0  0  0  0  0  0  0  0  0  0
   26.4000  -18.2631  -14.3966 C   0  0  0  0  0  0  0  0  0  0  0  0
   26.8568  -17.9658  -13.2483 O   0  0  0  0  0  0  0  0  0  0  0  0
   25.6533  -20.5946  -10.7938 C   0  0  0  0  0  0  0  0  0  0  0  0
   26.5847  -20.1329  -11.8963 C   0  0  0  0  0  0  0  0  0  0  0  0
   26.4743  -21.0230  -13.1125 C   0  0  2  0  0  0  0  0  0  0  0  0
   26.6427  -22.4362  -12.6723 C   0  0  0  0  0  0  0  0  0  0  0  0
   27.3430  -20.5897  -14.2375 C   0  0  2  0  0  0  0  0  0  0  0  0
   26.6936  -19.5031  -14.9862 N   0  0  0  0  0  0  0  0  0  0  0  0
   27.7414  -21.6276  -15.1876 C   0  0  0  0  0  0  0  0  0  0  0  0
   28.6872  -22.4361  -15.0177 O   0  0  0  0  0  0  0  0  0  0  0  0
   27.0350  -21.7499  -16.3763 O   0  0  0  0  0  0  0  0  0  0  0  0
  2  1  1  6
  2  3  1  0
  4  3  1  0
  5  4  2  0
  6  5  1  0
  7  6  1  0
  7 12  2  0
  8  7  1  0
  9  8  2  0
  9 10  1  0
 10 11  2  0
 11 12  1  0
 12  4  1  0
 13 20  1  0
 13  2  1  0
 14 13  2  0
 16 15  1  0
 17 16  1  0
 18 17  1  0
 19 18  1  1
 19 20  1  0
 21 19  1  0
 22 21  2  0
 23 24  1  0
 24 25  1  0
 25 26  1  1
 27 25  1  0
 27 28  1  6
 28 21  1  0
 29 31  1  0
 29 27  1  0
 30 29  2  0
M  END
$$$$
