WMI.pdb
     RDKit          3D

 31 32  0  0  1  0  0  0  0  0999 V2000
   25.5776  -20.5618  -15.2626 N   0  0  0  0  0  0  0  0  0  0  0  0
   25.8633  -19.8371  -14.0475 C   0  0  1  0  0  0  0  0  0  0  0  0
   25.2955  -18.4360  -14.1093 C   0  0  0  0  0  0  0  0  0  0  0  0
   25.8520  -17.7368  -15.2898 C   0  0  0  0  0  0  0  0  0  0  0  0
   25.1092  -17.0294  -16.2016 C   0  0  0  0  0  0  0  0  0  0  0  0
   25.9413  -16.5183  -17.1562 N   0  0  0  0  0  0  0  0  0  0  0  0
   27.1997  -16.8931  -16.8602 C   0  0  0  0  0  0  0  0  0  0  0  0
   28.3780  -16.6289  -17.5162 C   0  0  0  0  0  0  0  0  0  0  0  0
   29.5456  -17.1414  -16.9923 C   0  0  0  0  0  0  0  0  0  0  0  0
   29.5561  -17.9081  -15.8322 C   0  0  0  0  0  0  0  0  0  0  0  0
   28.3533  -18.1559  -15.1957 C   0  0  0  0  0  0  0  0  0  0  0  0
   27.1647  -17.6581  -15.6928 C   0  0  0  0  0  0  0  0  0  0  0  0
   25.3493  -20.5944  -12.8907 C   0  0  0  0  0  0  0  0  0  0  0  0
   24.4357  -21.4512  -12.9736 O   0  0  0  0  0  0  0  0  0  0  0  0
   27.4864  -20.8591   -6.4418 C   0  0  0  0  0  0  0  0  0  0  0  0
   26.8379  -19.2829   -7.0601 S   0  0  0  0  0  0  0  0  0  0  0  0
   26.1085  -19.4833   -8.7127 C   0  0  0  0  0  0  0  0  0  0  0  0
   26.2017  -20.9109   -9.1963 C   0  0  0  0  0  0  0  0  0  0  0  0
   25.4069  -21.0660  -10.4404 C   0  0  2  0  0  0  0  0  0  0  0  0
   25.8713  -20.3907  -11.5935 N   0  0  0  0  0  0  0  0  0  0  0  0
   23.9710  -20.7137  -10.2416 C   0  0  0  0  0  0  0  0  0  0  0  0
   23.6873  -19.4830  -10.3852 O   0  0  0  0  0  0  0  0  0  0  0  0
   18.6068  -21.6045  -12.1768 C   0  0  0  0  0  0  0  0  0  0  0  0
   19.3360  -21.2391  -10.8997 C   0  0  0  0  0  0  0  0  0  0  0  0
   20.8126  -21.5413  -11.0089 C   0  0  2  0  0  0  0  0  0  0  0  0
   20.9672  -22.9170  -11.5595 C   0  0  0  0  0  0  0  0  0  0  0  0
   21.5634  -21.2589   -9.7580 C   0  0  2  0  0  0  0  0  0  0  0  0
   22.9731  -21.6468   -9.9178 N   0  0  0  0  0  0  0  0  0  0  0  0
   21.0513  -21.8821   -8.5382 C   0  0  0  0  0  0  0  0  0  0  0  0
   21.7078  -22.6465   -7.7886 O   0  0  0  0  0  0  0  0  0  0  0  0
   19.7416  -21.6241   -8.1571 O   0  0  0  0  0  0  0  0  0  0  0  0
  2  1  1  6
  2  3  1  0
  4  3  1  0
  5  4  2  0
  6  5  1  0
  7  6  1  0
  7 12  2  0
  8  7  1  0
  9  8  2  0
  9 10  1  0
 10 11  2  0
 11 12  1  0
 12  4  1  0
 13 20  1  0
 13  2  1  0
 14 13  2  0
 16 15  1  0
 17 16  1  0
 18 17  1  0
 19 18  1  1
 19 20  1  0
 21 19  1  0
 22 21  2  0
 23 24  1  0
 24 25  1  0
 25 26  1  1
 27 25  1  0
 27 28  1  6
 28 21  1  0
 29 31  1  0
 29 27  1  0
 30 29  2  0
M  END
$$$$
