WMI.pdb
     RDKit          3D

 31 32  0  0  1  0  0  0  0  0999 V2000
   27.0104  -18.2470   -9.0527 N   0  0  0  0  0  0  0  0  0  0  0  0
   26.9385  -19.6853   -9.1499 C   0  0  1  0  0  0  0  0  0  0  0  0
   26.3728  -20.2837   -7.8806 C   0  0  0  0  0  0  0  0  0  0  0  0
   27.1624  -19.8056   -6.7229 C   0  0  0  0  0  0  0  0  0  0  0  0
   26.8538  -18.7014   -5.9686 C   0  0  0  0  0  0  0  0  0  0  0  0
   27.7915  -18.5542   -4.9868 N   0  0  0  0  0  0  0  0  0  0  0  0
   28.6884  -19.5503   -5.1104 C   0  0  0  0  0  0  0  0  0  0  0  0
   29.8080  -19.8291   -4.3639 C   0  0  0  0  0  0  0  0  0  0  0  0
   30.5657  -20.9277   -4.7095 C   0  0  0  0  0  0  0  0  0  0  0  0
   30.2263  -21.7469   -5.7806 C   0  0  0  0  0  0  0  0  0  0  0  0
   29.0933  -21.4390   -6.5120 C   0  0  0  0  0  0  0  0  0  0  0  0
   28.3112  -20.3460   -6.1939 C   0  0  0  0  0  0  0  0  0  0  0  0
   26.1506  -20.0591  -10.3396 C   0  0  0  0  0  0  0  0  0  0  0  0
   25.0402  -19.5477  -10.6245 O   0  0  0  0  0  0  0  0  0  0  0  0
   28.9980  -22.7377  -15.7737 C   0  0  0  0  0  0  0  0  0  0  0  0
   27.2270  -23.0001  -16.0600 S   0  0  0  0  0  0  0  0  0  0  0  0
   26.2303  -22.1092  -14.8288 C   0  0  0  0  0  0  0  0  0  0  0  0
   26.9534  -21.9822  -13.5091 C   0  0  0  0  0  0  0  0  0  0  0  0
   26.1268  -21.1891  -12.5650 C   0  0  2  0  0  0  0  0  0  0  0  0
   26.6156  -21.0383  -11.2459 N   0  0  0  0  0  0  0  0  0  0  0  0
   24.7228  -21.6873  -12.4868 C   0  0  0  0  0  0  0  0  0  0  0  0
   24.5478  -22.7093  -11.7516 O   0  0  0  0  0  0  0  0  0  0  0  0
   19.7088  -20.5117  -10.8204 C   0  0  0  0  0  0  0  0  0  0  0  0
   19.9998  -20.5001  -12.3075 C   0  0  0  0  0  0  0  0  0  0  0  0
   21.4610  -20.2234  -12.5755 C   0  0  2  0  0  0  0  0  0  0  0  0
   21.5508  -19.1421  -13.5963 C   0  0  0  0  0  0  0  0  0  0  0  0
   22.2472  -21.4507  -12.8649 C   0  0  2  0  0  0  0  0  0  0  0  0
   23.6432  -21.0965  -13.1627 N   0  0  0  0  0  0  0  0  0  0  0  0
   21.7491  -22.3017  -13.9448 C   0  0  0  0  0  0  0  0  0  0  0  0
   20.7497  -23.0580  -13.8643 O   0  0  0  0  0  0  0  0  0  0  0  0
   22.4141  -22.2902  -15.1633 O   0  0  0  0  0  0  0  0  0  0  0  0
  2  1  1  1
  2  3  1  0
  4  3  1  0
  5  4  2  0
  6  5  1  0
  7  6  1  0
  7 12  2  0
  8  7  1  0
  9  8  2  0
  9 10  1  0
 10 11  2  0
 11 12  1  0
 12  4  1  0
 13 20  1  0
 13  2  1  0
 14 13  2  0
 16 15  1  0
 17 16  1  0
 18 17  1  0
 19 18  1  6
 19 20  1  0
 21 19  1  0
 22 21  2  0
 23 24  1  0
 24 25  1  0
 25 26  1  6
 27 25  1  0
 27 28  1  6
 28 21  1  0
 29 31  1  0
 29 27  1  0
 30 29  2  0
M  END
$$$$
