KLF.pdb
     RDKit          3D

 29 29  0  0  1  0  0  0  0  0999 V2000
   25.8071  -18.5456  -15.7949 N   0  0  0  0  0  0  0  0  0  0  0  0
   26.5079  -19.4093  -14.8619 C   0  0  1  0  0  0  0  0  0  0  0  0
   27.9584  -19.0665  -14.7773 C   0  0  0  0  0  0  0  0  0  0  0  0
   28.6601  -19.5613  -16.0162 C   0  0  0  0  0  0  0  0  0  0  0  0
   28.7225  -21.0500  -16.1082 C   0  0  0  0  0  0  0  0  0  0  0  0
   29.4897  -21.4428  -17.3793 C   0  0  0  0  0  0  0  0  0  0  0  0
   29.7004  -22.8823  -17.4103 N   0  0  0  0  0  0  0  0  0  0  0  0
   25.8502  -19.3679  -13.5119 C   0  0  0  0  0  0  0  0  0  0  0  0
   25.7741  -18.2426  -12.9632 O   0  0  0  0  0  0  0  0  0  0  0  0
   21.8719  -19.5672  -11.7832 C   0  0  0  0  0  0  0  0  0  0  0  0
   22.2966  -20.9473  -12.3197 C   0  0  2  0  0  0  0  0  0  0  0  0
   21.0746  -21.8172  -12.1615 C   0  0  0  0  0  0  0  0  0  0  0  0
   23.4727  -21.3557  -11.5092 C   0  0  0  0  0  0  0  0  0  0  0  0
   24.6880  -20.5072  -11.6081 C   0  0  2  0  0  0  0  0  0  0  0  0
   25.3375  -20.5283  -12.8777 N   0  0  0  0  0  0  0  0  0  0  0  0
   25.6247  -20.9069  -10.5041 C   0  0  0  0  0  0  0  0  0  0  0  0
   26.2098  -22.0185  -10.4703 O   0  0  0  0  0  0  0  0  0  0  0  0
   25.8818  -20.0088   -9.4350 N   0  0  0  0  0  0  0  0  0  0  0  0
   26.6892  -20.3914   -8.2814 C   0  0  1  0  0  0  0  0  0  0  0  0
   27.4077  -19.2268   -7.6945 C   0  0  0  0  0  0  0  0  0  0  0  0
   28.0881  -19.4913   -6.4151 C   0  0  0  0  0  0  0  0  0  0  0  0
   27.6460  -18.9650   -5.2148 C   0  0  0  0  0  0  0  0  0  0  0  0
   28.2623  -19.2120   -4.0249 C   0  0  0  0  0  0  0  0  0  0  0  0
   29.3779  -20.0124   -3.9528 C   0  0  0  0  0  0  0  0  0  0  0  0
   29.8457  -20.5566   -5.1512 C   0  0  0  0  0  0  0  0  0  0  0  0
   29.2109  -20.2972   -6.3463 C   0  0  0  0  0  0  0  0  0  0  0  0
   25.8041  -21.0073   -7.2803 C   0  0  0  0  0  0  0  0  0  0  0  0
   26.3557  -21.8257   -6.3059 O   0  0  0  0  0  0  0  0  0  0  0  0
   24.5486  -20.8224   -7.2677 O   0  0  0  0  0  0  0  0  0  0  0  0
  2  1  1  6
  2  3  1  0
  3  4  1  0
  5  4  1  0
  5  6  1  0
  7  6  1  0
  8  9  2  0
  8  2  1  0
 11 10  1  1
 11 13  1  0
 12 11  1  0
 14 13  1  6
 14 16  1  0
 14 15  1  0
 15  8  1  0
 16 18  1  0
 17 16  2  0
 18 19  1  0
 19 20  1  1
 20 21  1  0
 21 26  2  0
 21 22  1  0
 22 23  2  0
 23 24  1  0
 25 24  2  0
 26 25  1  0
 27 19  1  0
 28 27  1  0
 29 27  2  0
M  END
$$$$
