KLF.pdb
     RDKit          3D

 29 29  0  0  1  0  0  0  0  0999 V2000
   34.8530  -37.9025  -10.0743 N   0  0  0  0  0  0  0  0  0  0  0  0
   34.7193  -36.6441   -9.3628 C   0  0  1  0  0  0  0  0  0  0  0  0
   34.1758  -35.5684  -10.2438 C   0  0  0  0  0  0  0  0  0  0  0  0
   35.3147  -34.8874  -10.9586 C   0  0  0  0  0  0  0  0  0  0  0  0
   34.8808  -33.7365  -11.8046 C   0  0  0  0  0  0  0  0  0  0  0  0
   36.1051  -33.1538  -12.5259 C   0  0  0  0  0  0  0  0  0  0  0  0
   35.6872  -32.1268  -13.4684 N   0  0  0  0  0  0  0  0  0  0  0  0
   33.8814  -36.8246   -8.1290 C   0  0  0  0  0  0  0  0  0  0  0  0
   33.1921  -37.8709   -8.0715 O   0  0  0  0  0  0  0  0  0  0  0  0
   33.9683  -38.2810   -4.1466 C   0  0  0  0  0  0  0  0  0  0  0  0
   34.7825  -36.9862   -4.3298 C   0  0  2  0  0  0  0  0  0  0  0  0
   35.5427  -36.8206   -3.0377 C   0  0  0  0  0  0  0  0  0  0  0  0
   33.7912  -35.9188   -4.6215 C   0  0  0  0  0  0  0  0  0  0  0  0
   33.0543  -36.0153   -5.9077 C   0  0  2  0  0  0  0  0  0  0  0  0
   33.8591  -35.8739   -7.0767 N   0  0  0  0  0  0  0  0  0  0  0  0
   31.9402  -35.0083   -5.8815 C   0  0  0  0  0  0  0  0  0  0  0  0
   32.1257  -33.7866   -5.6526 O   0  0  0  0  0  0  0  0  0  0  0  0
   30.6047  -35.4248   -6.1230 N   0  0  0  0  0  0  0  0  0  0  0  0
   29.4972  -34.4763   -6.1777 C   0  0  1  0  0  0  0  0  0  0  0  0
   28.6158  -34.7176   -7.3532 C   0  0  0  0  0  0  0  0  0  0  0  0
   27.4801  -33.7886   -7.4850 C   0  0  0  0  0  0  0  0  0  0  0  0
   26.2568  -34.0191   -6.8822 C   0  0  0  0  0  0  0  0  0  0  0  0
   25.2037  -33.1611   -6.9897 C   0  0  0  0  0  0  0  0  0  0  0  0
   25.3030  -31.9987   -7.7172 C   0  0  0  0  0  0  0  0  0  0  0  0
   26.5282  -31.7418   -8.3369 C   0  0  0  0  0  0  0  0  0  0  0  0
   27.5836  -32.6197   -8.2183 C   0  0  0  0  0  0  0  0  0  0  0  0
   28.7293  -34.5883   -4.9276 C   0  0  0  0  0  0  0  0  0  0  0  0
   28.1870  -33.4425   -4.3651 O   0  0  0  0  0  0  0  0  0  0  0  0
   28.5391  -35.6947   -4.3356 O   0  0  0  0  0  0  0  0  0  0  0  0
  2  1  1  6
  2  3  1  0
  3  4  1  0
  5  4  1  0
  5  6  1  0
  7  6  1  0
  8  9  2  0
  8  2  1  0
 11 10  1  1
 11 13  1  0
 12 11  1  0
 14 13  1  1
 14 16  1  0
 14 15  1  0
 15  8  1  0
 16 18  1  0
 17 16  2  0
 18 19  1  0
 19 20  1  6
 20 21  1  0
 21 26  2  0
 21 22  1  0
 22 23  2  0
 23 24  1  0
 25 24  2  0
 26 25  1  0
 27 19  1  0
 28 27  1  0
 29 27  2  0
M  END
$$$$
