KLF.pdb
     RDKit          3D

 29 29  0  0  1  0  0  0  0  0999 V2000
   24.4190  -17.8073  -14.6047 N   0  0  0  0  0  0  0  0  0  0  0  0
   23.4436  -18.6191  -13.8995 C   0  0  1  0  0  0  0  0  0  0  0  0
   22.3989  -19.1513  -14.8236 C   0  0  0  0  0  0  0  0  0  0  0  0
   22.0662  -18.1039  -15.8551 C   0  0  0  0  0  0  0  0  0  0  0  0
   21.3876  -16.9031  -15.2840 C   0  0  0  0  0  0  0  0  0  0  0  0
   20.8388  -16.0429  -16.4319 C   0  0  0  0  0  0  0  0  0  0  0  0
   20.2807  -14.8062  -15.9061 N   0  0  0  0  0  0  0  0  0  0  0  0
   24.1269  -19.7225  -13.1429 C   0  0  0  0  0  0  0  0  0  0  0  0
   23.3808  -20.5230  -12.5299 O   0  0  0  0  0  0  0  0  0  0  0  0
   26.2822  -22.9823  -14.5731 C   0  0  0  0  0  0  0  0  0  0  0  0
   27.2764  -21.8071  -14.5143 C   0  0  2  0  0  0  0  0  0  0  0  0
   28.5322  -22.3289  -15.1666 C   0  0  0  0  0  0  0  0  0  0  0  0
   27.4094  -21.4569  -13.0767 C   0  0  0  0  0  0  0  0  0  0  0  0
   26.2057  -20.9068  -12.4019 C   0  0  2  0  0  0  0  0  0  0  0  0
   25.5376  -19.8664  -13.1127 N   0  0  0  0  0  0  0  0  0  0  0  0
   26.6077  -20.4621  -11.0247 C   0  0  0  0  0  0  0  0  0  0  0  0
   27.5937  -19.7142  -10.8063 O   0  0  0  0  0  0  0  0  0  0  0  0
   25.8587  -20.8894   -9.8969 N   0  0  0  0  0  0  0  0  0  0  0  0
   26.4300  -20.9157   -8.5545 C   0  0  1  0  0  0  0  0  0  0  0  0
   27.0240  -19.6037   -8.1770 C   0  0  0  0  0  0  0  0  0  0  0  0
   27.6168  -19.5497   -6.8295 C   0  0  0  0  0  0  0  0  0  0  0  0
   28.9663  -19.7498   -6.6020 C   0  0  0  0  0  0  0  0  0  0  0  0
   29.5258  -19.6917   -5.3609 C   0  0  0  0  0  0  0  0  0  0  0  0
   28.7640  -19.4264   -4.2475 C   0  0  0  0  0  0  0  0  0  0  0  0
   27.3973  -19.2205   -4.4494 C   0  0  0  0  0  0  0  0  0  0  0  0
   26.8469  -19.2825   -5.7111 C   0  0  0  0  0  0  0  0  0  0  0  0
   25.3690  -21.2916   -7.6069 C   0  0  0  0  0  0  0  0  0  0  0  0
   25.7231  -21.7844   -6.3598 O   0  0  0  0  0  0  0  0  0  0  0  0
   24.1344  -21.1846   -7.8808 O   0  0  0  0  0  0  0  0  0  0  0  0
  2  1  1  6
  2  3  1  0
  3  4  1  0
  5  4  1  0
  5  6  1  0
  7  6  1  0
  8  9  2  0
  8  2  1  0
 11 10  1  1
 11 13  1  0
 12 11  1  0
 14 13  1  6
 14 16  1  0
 14 15  1  0
 15  8  1  0
 16 18  1  0
 17 16  2  0
 18 19  1  0
 19 20  1  1
 20 21  1  0
 21 26  2  0
 21 22  1  0
 22 23  2  0
 23 24  1  0
 25 24  2  0
 26 25  1  0
 27 19  1  0
 28 27  1  0
 29 27  2  0
M  END
$$$$
