KLF.pdb
     RDKit          3D

 29 29  0  0  1  0  0  0  0  0999 V2000
   21.0712  -21.0577  -13.7836 N   0  0  0  0  0  0  0  0  0  0  0  0
   21.9276  -20.0143  -13.2493 C   0  0  1  0  0  0  0  0  0  0  0  0
   21.2288  -19.2102  -12.2035 C   0  0  0  0  0  0  0  0  0  0  0  0
   20.1666  -18.3619  -12.8547 C   0  0  0  0  0  0  0  0  0  0  0  0
   20.6940  -17.4759  -13.9342 C   0  0  0  0  0  0  0  0  0  0  0  0
   19.5407  -16.6362  -14.5028 C   0  0  0  0  0  0  0  0  0  0  0  0
   20.0262  -15.7851  -15.5787 N   0  0  0  0  0  0  0  0  0  0  0  0
   23.2098  -20.6011  -12.7310 C   0  0  0  0  0  0  0  0  0  0  0  0
   23.1004  -21.5090  -11.8725 O   0  0  0  0  0  0  0  0  0  0  0  0
   26.7610  -22.6955  -14.6666 C   0  0  0  0  0  0  0  0  0  0  0  0
   26.7807  -21.1775  -14.9279 C   0  0  2  0  0  0  0  0  0  0  0  0
   27.9665  -20.9556  -15.8332 C   0  0  0  0  0  0  0  0  0  0  0  0
   26.8761  -20.5348  -13.5920 C   0  0  0  0  0  0  0  0  0  0  0  0
   25.7123  -20.6928  -12.6824 C   0  0  2  0  0  0  0  0  0  0  0  0
   24.4833  -20.1643  -13.1770 N   0  0  0  0  0  0  0  0  0  0  0  0
   26.0752  -20.0912  -11.3549 C   0  0  0  0  0  0  0  0  0  0  0  0
   26.0523  -18.8544  -11.1334 O   0  0  0  0  0  0  0  0  0  0  0  0
   26.4662  -20.9328  -10.2804 N   0  0  0  0  0  0  0  0  0  0  0  0
   27.2393  -20.4324   -9.1486 C   0  0  1  0  0  0  0  0  0  0  0  0
   26.3631  -19.9155   -8.0614 C   0  0  0  0  0  0  0  0  0  0  0  0
   27.0701  -19.4496   -6.8560 C   0  0  0  0  0  0  0  0  0  0  0  0
   27.3576  -18.1155   -6.6312 C   0  0  0  0  0  0  0  0  0  0  0  0
   28.0019  -17.6736   -5.5148 C   0  0  0  0  0  0  0  0  0  0  0  0
   28.4085  -18.5470   -4.5340 C   0  0  0  0  0  0  0  0  0  0  0  0
   28.1307  -19.9009   -4.7363 C   0  0  0  0  0  0  0  0  0  0  0  0
   27.4781  -20.3317   -5.8709 C   0  0  0  0  0  0  0  0  0  0  0  0
   28.0888  -21.5248   -8.6487 C   0  0  0  0  0  0  0  0  0  0  0  0
   29.2796  -21.2138   -8.0094 O   0  0  0  0  0  0  0  0  0  0  0  0
   27.7791  -22.7489   -8.7771 O   0  0  0  0  0  0  0  0  0  0  0  0
  2  1  1  1
  2  3  1  0
  3  4  1  0
  5  4  1  0
  5  6  1  0
  7  6  1  0
  8  9  2  0
  8  2  1  0
 11 10  1  1
 11 13  1  0
 12 11  1  0
 14 13  1  6
 14 16  1  0
 14 15  1  0
 15  8  1  0
 16 18  1  0
 17 16  2  0
 18 19  1  0
 19 20  1  1
 20 21  1  0
 21 26  2  0
 21 22  1  0
 22 23  2  0
 23 24  1  0
 25 24  2  0
 26 25  1  0
 27 19  1  0
 28 27  1  0
 29 27  2  0
M  END
$$$$
