KLF.pdb
     RDKit          3D

 29 29  0  0  1  0  0  0  0  0999 V2000
   22.5191  -25.6282  -14.5966 N   0  0  0  0  0  0  0  0  0  0  0  0
   23.6809  -24.7906  -14.8337 C   0  0  1  0  0  0  0  0  0  0  0  0
   24.0485  -24.7555  -16.2802 C   0  0  0  0  0  0  0  0  0  0  0  0
   24.9200  -25.9426  -16.6013 C   0  0  0  0  0  0  0  0  0  0  0  0
   26.2337  -25.9234  -15.8926 C   0  0  0  0  0  0  0  0  0  0  0  0
   27.2568  -26.7263  -16.7095 C   0  0  0  0  0  0  0  0  0  0  0  0
   28.5282  -26.7793  -16.0036 N   0  0  0  0  0  0  0  0  0  0  0  0
   23.4535  -23.4098  -14.2871 C   0  0  0  0  0  0  0  0  0  0  0  0
   22.3130  -22.9198  -14.4676 O   0  0  0  0  0  0  0  0  0  0  0  0
   23.7423  -21.2386  -10.2880 C   0  0  0  0  0  0  0  0  0  0  0  0
   25.1300  -21.5837  -10.8609 C   0  0  2  0  0  0  0  0  0  0  0  0
   26.1075  -21.1445   -9.7994 C   0  0  0  0  0  0  0  0  0  0  0  0
   25.2304  -20.8567  -12.1525 C   0  0  0  0  0  0  0  0  0  0  0  0
   24.3393  -21.3081  -13.2521 C   0  0  2  0  0  0  0  0  0  0  0  0
   24.4620  -22.6854  -13.6018 N   0  0  0  0  0  0  0  0  0  0  0  0
   24.5756  -20.4163  -14.4373 C   0  0  0  0  0  0  0  0  0  0  0  0
   24.2280  -19.2091  -14.4669 O   0  0  0  0  0  0  0  0  0  0  0  0
   25.2193  -20.9318  -15.5929 N   0  0  0  0  0  0  0  0  0  0  0  0
   25.6123  -20.0742  -16.7061 C   0  0  1  0  0  0  0  0  0  0  0  0
   27.0760  -19.8013  -16.7083 C   0  0  0  0  0  0  0  0  0  0  0  0
   27.5982  -19.1782  -15.4798 C   0  0  0  0  0  0  0  0  0  0  0  0
   27.3080  -17.8728  -15.1268 C   0  0  0  0  0  0  0  0  0  0  0  0
   27.7777  -17.2907  -13.9878 C   0  0  0  0  0  0  0  0  0  0  0  0
   28.5807  -17.9831  -13.1125 C   0  0  0  0  0  0  0  0  0  0  0  0
   28.8895  -19.3040  -13.4456 C   0  0  0  0  0  0  0  0  0  0  0  0
   28.4063  -19.8781  -14.6013 C   0  0  0  0  0  0  0  0  0  0  0  0
   25.2096  -20.7296  -17.9604 C   0  0  0  0  0  0  0  0  0  0  0  0
   25.4588  -20.0896  -19.1653 O   0  0  0  0  0  0  0  0  0  0  0  0
   24.6397  -21.8632  -17.9903 O   0  0  0  0  0  0  0  0  0  0  0  0
  2  1  1  6
  2  3  1  0
  3  4  1  0
  5  4  1  0
  5  6  1  0
  7  6  1  0
  8  9  2  0
  8  2  1  0
 11 10  1  1
 11 13  1  0
 12 11  1  0
 14 13  1  1
 14 16  1  0
 14 15  1  0
 15  8  1  0
 16 18  1  0
 17 16  2  0
 18 19  1  0
 19 20  1  6
 20 21  1  0
 21 26  2  0
 21 22  1  0
 22 23  2  0
 23 24  1  0
 25 24  2  0
 26 25  1  0
 27 19  1  0
 28 27  1  0
 29 27  2  0
M  END
$$$$
