KLF.pdb
     RDKit          3D

 29 29  0  0  1  0  0  0  0  0999 V2000
   19.9278  -33.4097  -11.9020 N   0  0  0  0  0  0  0  0  0  0  0  0
   20.9637  -32.5181  -11.4126 C   0  0  1  0  0  0  0  0  0  0  0  0
   20.3901  -31.2451  -10.8843 C   0  0  0  0  0  0  0  0  0  0  0  0
   18.9122  -31.4248  -10.6489 C   0  0  0  0  0  0  0  0  0  0  0  0
   18.5697  -31.7215   -9.2265 C   0  0  0  0  0  0  0  0  0  0  0  0
   17.2040  -31.1002   -8.8987 C   0  0  0  0  0  0  0  0  0  0  0  0
   16.8408  -31.3920   -7.5202 N   0  0  0  0  0  0  0  0  0  0  0  0
   21.8112  -33.2117  -10.3842 C   0  0  0  0  0  0  0  0  0  0  0  0
   21.2338  -34.0664   -9.6706 O   0  0  0  0  0  0  0  0  0  0  0  0
   25.7797  -35.5228  -10.8523 C   0  0  0  0  0  0  0  0  0  0  0  0
   26.0129  -34.0003  -10.8692 C   0  0  2  0  0  0  0  0  0  0  0  0
   27.4986  -33.8382  -11.0725 C   0  0  0  0  0  0  0  0  0  0  0  0
   25.4932  -33.4935   -9.5731 C   0  0  0  0  0  0  0  0  0  0  0  0
   24.0372  -33.6489   -9.3226 C   0  0  2  0  0  0  0  0  0  0  0  0
   23.1906  -32.9279  -10.2157 N   0  0  0  0  0  0  0  0  0  0  0  0
   23.7698  -33.2788   -7.8917 C   0  0  0  0  0  0  0  0  0  0  0  0
   23.9790  -32.1287   -7.4305 O   0  0  0  0  0  0  0  0  0  0  0  0
   23.2566  -34.2514   -6.9938 N   0  0  0  0  0  0  0  0  0  0  0  0
   23.0264  -33.9562   -5.5835 C   0  0  1  0  0  0  0  0  0  0  0  0
   21.7540  -34.5520   -5.0909 C   0  0  0  0  0  0  0  0  0  0  0  0
   21.5322  -34.4418   -3.6388 C   0  0  0  0  0  0  0  0  0  0  0  0
   22.0624  -35.3445   -2.7348 C   0  0  0  0  0  0  0  0  0  0  0  0
   21.8715  -35.2454   -1.3892 C   0  0  0  0  0  0  0  0  0  0  0  0
   21.1275  -34.2236   -0.8484 C   0  0  0  0  0  0  0  0  0  0  0  0
   20.5801  -33.2978   -1.7398 C   0  0  0  0  0  0  0  0  0  0  0  0
   20.7826  -33.4121   -3.0979 C   0  0  0  0  0  0  0  0  0  0  0  0
   24.1680  -34.4701   -4.8104 C   0  0  0  0  0  0  0  0  0  0  0  0
   25.0688  -35.3257   -5.4270 O   0  0  0  0  0  0  0  0  0  0  0  0
   24.3677  -34.1638   -3.5950 O   0  0  0  0  0  0  0  0  0  0  0  0
  2  1  1  1
  2  3  1  0
  3  4  1  0
  5  4  1  0
  5  6  1  0
  7  6  1  0
  8  9  2  0
  8  2  1  0
 11 10  1  1
 11 13  1  0
 12 11  1  0
 14 13  1  6
 14 16  1  0
 14 15  1  0
 15  8  1  0
 16 18  1  0
 17 16  2  0
 18 19  1  0
 19 20  1  1
 20 21  1  0
 21 26  2  0
 21 22  1  0
 22 23  2  0
 23 24  1  0
 25 24  2  0
 26 25  1  0
 27 19  1  0
 28 27  1  0
 29 27  2  0
M  END
$$$$
