KLF.pdb
     RDKit          3D

 29 29  0  0  1  0  0  0  0  0999 V2000
   28.8421  -19.7753  -14.7330 N   0  0  0  0  0  0  0  0  0  0  0  0
   28.5785  -19.3643  -13.3659 C   0  0  1  0  0  0  0  0  0  0  0  0
   27.3047  -18.5932  -13.2585 C   0  0  0  0  0  0  0  0  0  0  0  0
   26.5563  -18.6839  -14.5638 C   0  0  0  0  0  0  0  0  0  0  0  0
   25.2743  -17.9191  -14.5671 C   0  0  0  0  0  0  0  0  0  0  0  0
   24.6182  -18.0448  -15.9500 C   0  0  0  0  0  0  0  0  0  0  0  0
   23.3507  -17.3301  -15.9679 N   0  0  0  0  0  0  0  0  0  0  0  0
   28.5835  -20.5545  -12.4492 C   0  0  0  0  0  0  0  0  0  0  0  0
   27.9360  -21.5573  -12.8343 O   0  0  0  0  0  0  0  0  0  0  0  0
   31.9216  -23.1432  -11.0258 C   0  0  0  0  0  0  0  0  0  0  0  0
   31.8256  -21.7978  -10.2817 C   0  0  2  0  0  0  0  0  0  0  0  0
   33.0652  -21.7399   -9.4244 C   0  0  0  0  0  0  0  0  0  0  0  0
   30.5417  -21.8353   -9.5351 C   0  0  0  0  0  0  0  0  0  0  0  0
   29.2952  -21.6803  -10.3280 C   0  0  2  0  0  0  0  0  0  0  0  0
   29.2772  -20.5612  -11.2121 N   0  0  0  0  0  0  0  0  0  0  0  0
   28.1376  -21.6445   -9.3716 C   0  0  0  0  0  0  0  0  0  0  0  0
   27.9234  -22.5441   -8.5207 O   0  0  0  0  0  0  0  0  0  0  0  0
   27.2257  -20.5569   -9.4054 N   0  0  0  0  0  0  0  0  0  0  0  0
   26.0848  -20.4764   -8.4993 C   0  0  1  0  0  0  0  0  0  0  0  0
   26.1799  -19.3026   -7.5882 C   0  0  0  0  0  0  0  0  0  0  0  0
   27.0953  -19.4693   -6.4462 C   0  0  0  0  0  0  0  0  0  0  0  0
   28.1296  -18.5883   -6.1873 C   0  0  0  0  0  0  0  0  0  0  0  0
   28.9752  -18.7281   -5.1279 C   0  0  0  0  0  0  0  0  0  0  0  0
   28.8429  -19.7724   -4.2435 C   0  0  0  0  0  0  0  0  0  0  0  0
   27.8060  -20.6774   -4.4823 C   0  0  0  0  0  0  0  0  0  0  0  0
   26.9593  -20.5218   -5.5582 C   0  0  0  0  0  0  0  0  0  0  0  0
   24.8567  -20.4028   -9.3063 C   0  0  0  0  0  0  0  0  0  0  0  0
   23.6268  -20.4753   -8.6696 O   0  0  0  0  0  0  0  0  0  0  0  0
   24.8717  -20.2752  -10.5690 O   0  0  0  0  0  0  0  0  0  0  0  0
  2  1  1  6
  2  3  1  0
  3  4  1  0
  5  4  1  0
  5  6  1  0
  7  6  1  0
  8  9  2  0
  8  2  1  0
 11 10  1  1
 11 13  1  0
 12 11  1  0
 14 13  1  1
 14 16  1  0
 14 15  1  0
 15  8  1  0
 16 18  1  0
 17 16  2  0
 18 19  1  0
 19 20  1  6
 20 21  1  0
 21 26  2  0
 21 22  1  0
 22 23  2  0
 23 24  1  0
 25 24  2  0
 26 25  1  0
 27 19  1  0
 28 27  1  0
 29 27  2  0
M  END
$$$$
