KLF.pdb
     RDKit          3D

 29 29  0  0  1  0  0  0  0  0999 V2000
   27.9143  -18.8737  -16.1924 N   0  0  0  0  0  0  0  0  0  0  0  0
   26.8637  -19.8721  -16.1094 C   0  0  1  0  0  0  0  0  0  0  0  0
   27.3416  -21.1204  -15.4444 C   0  0  0  0  0  0  0  0  0  0  0  0
   28.2396  -21.8759  -16.3903 C   0  0  0  0  0  0  0  0  0  0  0  0
   27.6204  -22.1236  -17.7259 C   0  0  0  0  0  0  0  0  0  0  0  0
   28.6000  -22.9293  -18.5919 C   0  0  0  0  0  0  0  0  0  0  0  0
   28.0515  -23.1122  -19.9272 N   0  0  0  0  0  0  0  0  0  0  0  0
   25.6546  -19.3064  -15.4202 C   0  0  0  0  0  0  0  0  0  0  0  0
   25.7338  -19.1731  -14.1755 O   0  0  0  0  0  0  0  0  0  0  0  0
   20.1104  -16.9156  -16.7929 C   0  0  0  0  0  0  0  0  0  0  0  0
   21.0643  -17.3290  -15.6562 C   0  0  2  0  0  0  0  0  0  0  0  0
   21.2379  -16.0831  -14.8238 C   0  0  0  0  0  0  0  0  0  0  0  0
   22.2985  -17.8236  -16.3189 C   0  0  0  0  0  0  0  0  0  0  0  0
   23.2561  -18.5873  -15.4784 C   0  0  2  0  0  0  0  0  0  0  0  0
   24.4791  -18.9376  -16.1230 N   0  0  0  0  0  0  0  0  0  0  0  0
   22.5455  -19.8004  -14.9500 C   0  0  0  0  0  0  0  0  0  0  0  0
   22.3714  -20.8431  -15.6294 O   0  0  0  0  0  0  0  0  0  0  0  0
   22.0355  -19.8001  -13.6250 N   0  0  0  0  0  0  0  0  0  0  0  0
   21.4762  -21.0002  -13.0118 C   0  0  1  0  0  0  0  0  0  0  0  0
   21.9578  -21.1876  -11.6155 C   0  0  0  0  0  0  0  0  0  0  0  0
   23.4215  -21.2519  -11.4617 C   0  0  0  0  0  0  0  0  0  0  0  0
   24.1278  -20.3527  -10.6835 C   0  0  0  0  0  0  0  0  0  0  0  0
   25.4802  -20.4099  -10.5267 C   0  0  0  0  0  0  0  0  0  0  0  0
   26.2288  -21.3828  -11.1458 C   0  0  0  0  0  0  0  0  0  0  0  0
   25.5398  -22.3039  -11.9384 C   0  0  0  0  0  0  0  0  0  0  0  0
   24.1718  -22.2324  -12.0866 C   0  0  0  0  0  0  0  0  0  0  0  0
   20.0089  -20.8938  -13.0397 C   0  0  0  0  0  0  0  0  0  0  0  0
   19.2464  -22.0173  -12.7573 O   0  0  0  0  0  0  0  0  0  0  0  0
   19.4042  -19.8119  -13.3128 O   0  0  0  0  0  0  0  0  0  0  0  0
  2  1  1  1
  2  3  1  0
  3  4  1  0
  5  4  1  0
  5  6  1  0
  7  6  1  0
  8  9  2  0
  8  2  1  0
 11 10  1  6
 11 13  1  0
 12 11  1  0
 14 13  1  6
 14 16  1  0
 14 15  1  0
 15  8  1  0
 16 18  1  0
 17 16  2  0
 18 19  1  0
 19 20  1  1
 20 21  1  0
 21 26  2  0
 21 22  1  0
 22 23  2  0
 23 24  1  0
 25 24  2  0
 26 25  1  0
 27 19  1  0
 28 27  1  0
 29 27  2  0
M  END
$$$$
