KLF.pdb
     RDKit          3D

 29 29  0  0  1  0  0  0  0  0999 V2000
   27.6244  -19.7372  -16.7411 N   0  0  0  0  0  0  0  0  0  0  0  0
   26.7338  -19.5172  -15.6159 C   0  0  1  0  0  0  0  0  0  0  0  0
   25.3104  -19.4101  -16.0529 C   0  0  0  0  0  0  0  0  0  0  0  0
   25.1863  -18.3146  -17.0808 C   0  0  0  0  0  0  0  0  0  0  0  0
   23.7814  -18.0732  -17.5241 C   0  0  0  0  0  0  0  0  0  0  0  0
   23.7664  -16.9221  -18.5406 C   0  0  0  0  0  0  0  0  0  0  0  0
   22.4120  -16.7015  -19.0249 N   0  0  0  0  0  0  0  0  0  0  0  0
   26.9159  -20.5934  -14.5835 C   0  0  0  0  0  0  0  0  0  0  0  0
   26.5575  -21.7491  -14.9139 O   0  0  0  0  0  0  0  0  0  0  0  0
   30.5321  -21.8010  -13.0359 C   0  0  0  0  0  0  0  0  0  0  0  0
   30.0612  -20.6756  -12.0954 C   0  0  2  0  0  0  0  0  0  0  0  0
   31.2257  -20.4331  -11.1680 C   0  0  0  0  0  0  0  0  0  0  0  0
   28.8266  -21.1805  -11.4412 C   0  0  0  0  0  0  0  0  0  0  0  0
   27.6240  -21.3372  -12.2991 C   0  0  2  0  0  0  0  0  0  0  0  0
   27.4618  -20.3345  -13.3003 N   0  0  0  0  0  0  0  0  0  0  0  0
   26.4215  -21.4195  -11.4029 C   0  0  0  0  0  0  0  0  0  0  0  0
   26.2528  -22.3408  -10.5650 O   0  0  0  0  0  0  0  0  0  0  0  0
   25.4112  -20.4252  -11.4820 N   0  0  0  0  0  0  0  0  0  0  0  0
   24.2034  -20.4838  -10.6653 C   0  0  1  0  0  0  0  0  0  0  0  0
   24.2012  -19.4434   -9.6003 C   0  0  0  0  0  0  0  0  0  0  0  0
   25.0733  -19.7262   -8.4473 C   0  0  0  0  0  0  0  0  0  0  0  0
   26.0984  -18.8801   -8.0649 C   0  0  0  0  0  0  0  0  0  0  0  0
   26.9039  -19.1276   -6.9940 C   0  0  0  0  0  0  0  0  0  0  0  0
   26.7375  -20.2532   -6.2223 C   0  0  0  0  0  0  0  0  0  0  0  0
   25.7090  -21.1252   -6.5871 C   0  0  0  0  0  0  0  0  0  0  0  0
   24.9030  -20.8603   -7.6728 C   0  0  0  0  0  0  0  0  0  0  0  0
   23.0385  -20.3180  -11.5487 C   0  0  0  0  0  0  0  0  0  0  0  0
   23.2454  -20.0375  -12.8911 O   0  0  0  0  0  0  0  0  0  0  0  0
   21.8431  -20.4206  -11.1350 O   0  0  0  0  0  0  0  0  0  0  0  0
  2  1  1  6
  2  3  1  0
  3  4  1  0
  5  4  1  0
  5  6  1  0
  7  6  1  0
  8  9  2  0
  8  2  1  0
 11 10  1  6
 11 13  1  0
 12 11  1  0
 14 13  1  1
 14 16  1  0
 14 15  1  0
 15  8  1  0
 16 18  1  0
 17 16  2  0
 18 19  1  0
 19 20  1  1
 20 21  1  0
 21 26  2  0
 21 22  1  0
 22 23  2  0
 23 24  1  0
 25 24  2  0
 26 25  1  0
 27 19  1  0
 28 27  1  0
 29 27  2  0
M  END
$$$$
