KLF.pdb
     RDKit          3D

 29 29  0  0  1  0  0  0  0  0999 V2000
   22.4141  -20.0089  -14.7099 N   0  0  0  0  0  0  0  0  0  0  0  0
   22.5215  -20.3647  -13.3065 C   0  0  1  0  0  0  0  0  0  0  0  0
   21.3810  -21.2218  -12.8669 C   0  0  0  0  0  0  0  0  0  0  0  0
   20.1929  -20.3483  -12.5550 C   0  0  0  0  0  0  0  0  0  0  0  0
   19.6125  -19.6838  -13.7592 C   0  0  0  0  0  0  0  0  0  0  0  0
   18.6476  -18.5780  -13.3065 C   0  0  0  0  0  0  0  0  0  0  0  0
   17.7632  -19.0822  -12.2667 N   0  0  0  0  0  0  0  0  0  0  0  0
   23.8446  -21.0203  -13.0304 C   0  0  0  0  0  0  0  0  0  0  0  0
   23.8290  -22.2653  -12.8787 O   0  0  0  0  0  0  0  0  0  0  0  0
   29.4570  -19.3354  -14.0826 C   0  0  0  0  0  0  0  0  0  0  0  0
   28.3078  -20.3608  -14.0511 C   0  0  2  0  0  0  0  0  0  0  0  0
   27.6003  -20.1906  -15.3722 C   0  0  0  0  0  0  0  0  0  0  0  0
   27.4966  -20.0276  -12.8519 C   0  0  0  0  0  0  0  0  0  0  0  0
   26.3053  -20.8744  -12.5865 C   0  0  2  0  0  0  0  0  0  0  0  0
   25.0555  -20.2869  -12.9428 N   0  0  0  0  0  0  0  0  0  0  0  0
   26.3327  -21.2741  -11.1389 C   0  0  0  0  0  0  0  0  0  0  0  0
   26.3724  -22.4712  -10.7589 O   0  0  0  0  0  0  0  0  0  0  0  0
   26.3139  -20.2761  -10.1293 N   0  0  0  0  0  0  0  0  0  0  0  0
   26.7231  -20.5570   -8.7571 C   0  0  1  0  0  0  0  0  0  0  0  0
   27.4244  -19.3988   -8.1377 C   0  0  0  0  0  0  0  0  0  0  0  0
   27.8335  -19.5918   -6.7358 C   0  0  0  0  0  0  0  0  0  0  0  0
   29.1565  -19.7404   -6.3609 C   0  0  0  0  0  0  0  0  0  0  0  0
   29.5459  -19.9091   -5.0660 C   0  0  0  0  0  0  0  0  0  0  0  0
   28.6268  -19.9417   -4.0440 C   0  0  0  0  0  0  0  0  0  0  0  0
   27.2830  -19.7943   -4.3954 C   0  0  0  0  0  0  0  0  0  0  0  0
   26.9056  -19.6243   -5.7097 C   0  0  0  0  0  0  0  0  0  0  0  0
   25.5247  -20.9086   -7.9792 C   0  0  0  0  0  0  0  0  0  0  0  0
   24.2766  -20.7834   -8.5709 O   0  0  0  0  0  0  0  0  0  0  0  0
   25.5814  -21.3244   -6.7814 O   0  0  0  0  0  0  0  0  0  0  0  0
  2  1  1  6
  2  3  1  0
  3  4  1  0
  5  4  1  0
  5  6  1  0
  7  6  1  0
  8  9  2  0
  8  2  1  0
 11 10  1  6
 11 13  1  0
 12 11  1  0
 14 13  1  1
 14 16  1  0
 14 15  1  0
 15  8  1  0
 16 18  1  0
 17 16  2  0
 18 19  1  0
 19 20  1  1
 20 21  1  0
 21 26  2  0
 21 22  1  0
 22 23  2  0
 23 24  1  0
 25 24  2  0
 26 25  1  0
 27 19  1  0
 28 27  1  0
 29 27  2  0
M  END
$$$$
