WCR.pdb
     RDKit          3D

 32 33  0  0  1  0  0  0  0  0999 V2000
   26.8638  -21.1224  -16.9628 N   0  0  0  0  0  0  0  0  0  0  0  0
   27.0055  -20.2767  -15.7660 C   0  0  1  0  0  0  0  0  0  0  0  0
   25.7600  -19.4240  -15.7307 C   0  0  0  0  0  0  0  0  0  0  0  0
   25.7040  -18.3942  -16.7743 C   0  0  0  0  0  0  0  0  0  0  0  0
   25.0290  -18.4579  -17.9752 C   0  0  0  0  0  0  0  0  0  0  0  0
   25.2280  -17.3151  -18.6471 N   0  0  0  0  0  0  0  0  0  0  0  0
   26.0125  -16.4818  -17.9435 C   0  0  0  0  0  0  0  0  0  0  0  0
   26.4960  -15.2183  -18.1930 C   0  0  0  0  0  0  0  0  0  0  0  0
   27.2936  -14.6317  -17.2387 C   0  0  0  0  0  0  0  0  0  0  0  0
   27.5998  -15.2888  -16.0677 C   0  0  0  0  0  0  0  0  0  0  0  0
   27.1126  -16.5469  -15.8303 C   0  0  0  0  0  0  0  0  0  0  0  0
   26.3178  -17.1519  -16.7627 C   0  0  0  0  0  0  0  0  0  0  0  0
   27.1925  -21.0858  -14.5667 C   0  0  0  0  0  0  0  0  0  0  0  0
   26.6157  -22.1877  -14.4565 O   0  0  0  0  0  0  0  0  0  0  0  0
   28.0252  -20.6341  -13.5189 N   0  0  0  0  0  0  0  0  0  0  0  0
   27.9447  -21.2745  -12.2222 C   0  0  1  0  0  0  0  0  0  0  0  0
   29.3318  -21.2501  -11.6159 C   0  0  0  0  0  0  0  0  0  0  0  0
   30.0384  -19.5724  -11.7082 S   0  0  0  0  0  0  0  0  0  0  0  0
   27.0245  -20.4806  -11.3367 C   0  0  0  0  0  0  0  0  0  0  0  0
   27.0870  -19.2261  -11.3657 O   0  0  0  0  0  0  0  0  0  0  0  0
   21.0078  -19.6078  -13.3829 N   0  0  0  0  0  0  0  0  0  0  0  0
   21.7318  -20.6760  -13.9860 C   0  0  0  0  0  0  0  0  0  0  0  0
   21.7032  -20.8652  -15.2523 N   0  0  0  0  0  0  0  0  0  0  0  0
   22.4983  -21.5441  -13.1530 N   0  0  0  0  0  0  0  0  0  0  0  0
   22.6406  -21.2478  -11.7204 C   0  0  0  0  0  0  0  0  0  0  0  0
   23.8449  -20.3780  -11.5143 C   0  0  0  0  0  0  0  0  0  0  0  0
   24.0870  -19.9343  -10.1216 C   0  0  0  0  0  0  0  0  0  0  0  0
   25.3215  -20.4177   -9.4601 C   0  0  2  0  0  0  0  0  0  0  0  0
   26.1067  -21.1086  -10.4876 N   0  0  0  0  0  0  0  0  0  0  0  0
   25.0717  -21.3117   -8.3065 C   0  0  0  0  0  0  0  0  0  0  0  0
   24.3976  -20.9948   -7.3111 O   0  0  0  0  0  0  0  0  0  0  0  0
   25.6238  -22.5796   -8.3403 O   0  0  0  0  0  0  0  0  0  0  0  0
  2  1  1  6
  3  4  1  0
  3  2  1  0
  4  5  2  0
  5  6  1  0
  7  8  2  0
  7  6  1  0
  9  8  1  0
 10  9  2  0
 11 10  1  0
 11 12  2  0
 12  4  1  0
 12  7  1  0
 13  2  1  0
 13 14  2  0
 15 13  1  0
 16 15  1  0
 16 17  1  1
 18 17  1  0
 19 16  1  0
 20 19  2  0
 22 21  1  0
 22 23  2  0
 24 22  1  0
 25 24  1  0
 26 25  1  0
 28 27  1  6
 27 26  1  0
 28 29  1  0
 29 19  1  0
 30 28  1  0
 30 32  1  0
 31 30  2  0
M  END
$$$$
