WCR.pdb
     RDKit          3D

 32 33  0  0  1  0  0  0  0  0999 V2000
   24.4725  -19.7085  -11.1626 N   0  0  0  0  0  0  0  0  0  0  0  0
   25.9010  -20.0149  -11.3445 C   0  0  1  0  0  0  0  0  0  0  0  0
   26.1686  -21.2088  -10.4600 C   0  0  0  0  0  0  0  0  0  0  0  0
   26.2685  -20.8907   -9.0311 C   0  0  0  0  0  0  0  0  0  0  0  0
   25.2318  -20.7452   -8.1334 C   0  0  0  0  0  0  0  0  0  0  0  0
   25.7388  -20.4553   -6.9268 N   0  0  0  0  0  0  0  0  0  0  0  0
   27.0801  -20.4001   -6.9768 C   0  0  0  0  0  0  0  0  0  0  0  0
   28.0419  -20.1448   -6.0270 C   0  0  0  0  0  0  0  0  0  0  0  0
   29.3595  -20.1665   -6.4196 C   0  0  0  0  0  0  0  0  0  0  0  0
   29.7071  -20.4357   -7.7249 C   0  0  0  0  0  0  0  0  0  0  0  0
   28.7405  -20.6883   -8.6621 C   0  0  0  0  0  0  0  0  0  0  0  0
   27.4237  -20.6727   -8.2975 C   0  0  0  0  0  0  0  0  0  0  0  0
   26.2164  -20.2477  -12.7496 C   0  0  0  0  0  0  0  0  0  0  0  0
   25.5037  -21.0104  -13.4350 O   0  0  0  0  0  0  0  0  0  0  0  0
   27.3280  -19.6161  -13.3499 N   0  0  0  0  0  0  0  0  0  0  0  0
   27.5413  -19.7594  -14.7754 C   0  0  1  0  0  0  0  0  0  0  0  0
   28.0721  -18.4385  -15.2911 C   0  0  0  0  0  0  0  0  0  0  0  0
   26.8914  -17.0955  -14.9378 S   0  0  0  0  0  0  0  0  0  0  0  0
   28.5839  -20.8164  -15.0139 C   0  0  0  0  0  0  0  0  0  0  0  0
   29.0035  -21.4864  -14.0374 O   0  0  0  0  0  0  0  0  0  0  0  0
   28.5528  -28.2983  -15.7870 N   0  0  0  0  0  0  0  0  0  0  0  0
   29.2897  -27.8765  -16.9306 C   0  0  0  0  0  0  0  0  0  0  0  0
   29.5951  -28.6989  -17.8636 N   0  0  0  0  0  0  0  0  0  0  0  0
   29.6892  -26.5103  -17.0261 N   0  0  0  0  0  0  0  0  0  0  0  0
   29.2378  -25.5427  -16.0160 C   0  0  0  0  0  0  0  0  0  0  0  0
   28.1573  -24.6846  -16.6037 C   0  0  0  0  0  0  0  0  0  0  0  0
   28.1947  -23.2530  -16.2234 C   0  0  0  0  0  0  0  0  0  0  0  0
   29.2000  -22.3980  -16.8968 C   0  0  2  0  0  0  0  0  0  0  0  0
   29.0912  -21.0659  -16.2938 N   0  0  0  0  0  0  0  0  0  0  0  0
   29.0319  -22.3201  -18.3658 C   0  0  0  0  0  0  0  0  0  0  0  0
   29.9241  -22.5974  -19.1861 O   0  0  0  0  0  0  0  0  0  0  0  0
   27.8036  -21.9130  -18.8549 O   0  0  0  0  0  0  0  0  0  0  0  0
  2  1  1  6
  3  4  1  0
  3  2  1  0
  4  5  2  0
  5  6  1  0
  7  8  2  0
  7  6  1  0
  9  8  1  0
 10  9  2  0
 11 10  1  0
 11 12  2  0
 12  4  1  0
 12  7  1  0
 13  2  1  0
 13 14  2  0
 15 13  1  0
 16 15  1  0
 16 17  1  1
 18 17  1  0
 19 16  1  0
 20 19  2  0
 22 21  1  0
 22 23  2  0
 24 22  1  0
 25 24  1  0
 26 25  1  0
 28 27  1  1
 27 26  1  0
 28 29  1  0
 29 19  1  0
 30 28  1  0
 30 32  1  0
 31 30  2  0
M  END
$$$$
