WCR.pdb
     RDKit          3D

 32 33  0  0  1  0  0  0  0  0999 V2000
   25.0902  -19.2280   -9.1037 N   0  0  0  0  0  0  0  0  0  0  0  0
   26.1906  -20.0202   -9.6774 C   0  0  1  0  0  0  0  0  0  0  0  0
   26.2684  -21.2671   -8.8296 C   0  0  0  0  0  0  0  0  0  0  0  0
   26.5155  -21.0141   -7.4057 C   0  0  0  0  0  0  0  0  0  0  0  0
   25.6200  -21.1494   -6.3656 C   0  0  0  0  0  0  0  0  0  0  0  0
   26.2325  -20.8222   -5.2190 N   0  0  0  0  0  0  0  0  0  0  0  0
   27.5091  -20.4711   -5.4467 C   0  0  0  0  0  0  0  0  0  0  0  0
   28.5292  -20.0636   -4.6185 C   0  0  0  0  0  0  0  0  0  0  0  0
   29.7469  -19.7738   -5.1878 C   0  0  0  0  0  0  0  0  0  0  0  0
   29.9405  -19.8879   -6.5466 C   0  0  0  0  0  0  0  0  0  0  0  0
   28.9172  -20.2945   -7.3615 C   0  0  0  0  0  0  0  0  0  0  0  0
   27.6973  -20.5885   -6.8205 C   0  0  0  0  0  0  0  0  0  0  0  0
   25.9645  -20.2907  -11.0930 C   0  0  0  0  0  0  0  0  0  0  0  0
   24.8144  -20.2076  -11.5721 O   0  0  0  0  0  0  0  0  0  0  0  0
   27.0398  -20.6490  -11.9358 N   0  0  0  0  0  0  0  0  0  0  0  0
   26.9137  -20.4600  -13.3663 C   0  0  1  0  0  0  0  0  0  0  0  0
   28.3117  -20.4344  -13.9469 C   0  0  0  0  0  0  0  0  0  0  0  0
   29.1241  -18.8437  -13.5830 S   0  0  0  0  0  0  0  0  0  0  0  0
   26.1757  -21.6304  -13.9550 C   0  0  0  0  0  0  0  0  0  0  0  0
   26.3178  -22.7634  -13.4309 O   0  0  0  0  0  0  0  0  0  0  0  0
   18.8344  -22.8216  -13.4857 N   0  0  0  0  0  0  0  0  0  0  0  0
   19.4501  -23.0220  -12.2169 C   0  0  0  0  0  0  0  0  0  0  0  0
   19.0011  -23.8923  -11.3917 N   0  0  0  0  0  0  0  0  0  0  0  0
   20.5865  -22.2320  -11.8713 N   0  0  0  0  0  0  0  0  0  0  0  0
   21.0408  -21.1666  -12.7762 C   0  0  0  0  0  0  0  0  0  0  0  0
   21.7792  -21.7803  -13.9284 C   0  0  0  0  0  0  0  0  0  0  0  0
   23.2210  -21.4506  -14.0172 C   0  0  0  0  0  0  0  0  0  0  0  0
   23.9780  -22.0181  -15.1574 C   0  0  2  0  0  0  0  0  0  0  0  0
   25.3397  -21.4821  -15.0671 N   0  0  0  0  0  0  0  0  0  0  0  0
   23.3852  -21.7144  -16.4798 C   0  0  0  0  0  0  0  0  0  0  0  0
   23.5132  -20.6271  -17.0690 O   0  0  0  0  0  0  0  0  0  0  0  0
   22.6424  -22.7045  -17.0976 O   0  0  0  0  0  0  0  0  0  0  0  0
  2  1  1  1
  3  4  1  0
  3  2  1  0
  4  5  2  0
  5  6  1  0
  7  8  2  0
  7  6  1  0
  9  8  1  0
 10  9  2  0
 11 10  1  0
 11 12  2  0
 12  4  1  0
 12  7  1  0
 13  2  1  0
 13 14  2  0
 15 13  1  0
 16 15  1  0
 16 17  1  6
 18 17  1  0
 19 16  1  0
 20 19  2  0
 22 21  1  0
 22 23  2  0
 24 22  1  0
 25 24  1  0
 26 25  1  0
 28 27  1  1
 27 26  1  0
 28 29  1  0
 29 19  1  0
 30 28  1  0
 30 32  1  0
 31 30  2  0
M  END
$$$$
