WCR.pdb
     RDKit          3D

 32 33  0  0  1  0  0  0  0  0999 V2000
   28.9190  -21.2419  -10.1763 N   0  0  0  0  0  0  0  0  0  0  0  0
   27.5228  -21.0408   -9.7545 C   0  0  1  0  0  0  0  0  0  0  0  0
   27.5627  -19.8882   -8.7802 C   0  0  0  0  0  0  0  0  0  0  0  0
   28.5105  -20.0655   -7.6743 C   0  0  0  0  0  0  0  0  0  0  0  0
   29.8871  -20.0115   -7.7374 C   0  0  0  0  0  0  0  0  0  0  0  0
   30.3873  -20.2252   -6.5122 N   0  0  0  0  0  0  0  0  0  0  0  0
   29.3987  -20.4212   -5.6239 C   0  0  0  0  0  0  0  0  0  0  0  0
   29.3926  -20.6734   -4.2715 C   0  0  0  0  0  0  0  0  0  0  0  0
   28.1765  -20.8262   -3.6483 C   0  0  0  0  0  0  0  0  0  0  0  0
   26.9989  -20.7299   -4.3560 C   0  0  0  0  0  0  0  0  0  0  0  0
   27.0174  -20.4787   -5.7026 C   0  0  0  0  0  0  0  0  0  0  0  0
   28.2129  -20.3228   -6.3455 C   0  0  0  0  0  0  0  0  0  0  0  0
   26.6532  -20.8048  -10.9017 C   0  0  0  0  0  0  0  0  0  0  0  0
   26.6865  -19.7092  -11.4998 O   0  0  0  0  0  0  0  0  0  0  0  0
   25.7658  -21.8090  -11.3483 N   0  0  0  0  0  0  0  0  0  0  0  0
   24.8787  -21.5294  -12.4586 C   0  0  1  0  0  0  0  0  0  0  0  0
   25.2453  -22.4747  -13.5830 C   0  0  0  0  0  0  0  0  0  0  0  0
   24.1244  -22.2431  -15.0016 S   0  0  0  0  0  0  0  0  0  0  0  0
   23.4623  -21.8135  -12.0413 C   0  0  0  0  0  0  0  0  0  0  0  0
   23.2572  -22.3997  -10.9492 O   0  0  0  0  0  0  0  0  0  0  0  0
   17.2742  -17.3309  -12.5530 N   0  0  0  0  0  0  0  0  0  0  0  0
   18.3920  -16.5942  -13.0394 C   0  0  0  0  0  0  0  0  0  0  0  0
   18.2542  -15.7021  -13.9479 N   0  0  0  0  0  0  0  0  0  0  0  0
   19.6832  -16.8648  -12.4965 N   0  0  0  0  0  0  0  0  0  0  0  0
   19.8795  -18.0260  -11.6170 C   0  0  0  0  0  0  0  0  0  0  0  0
   20.2982  -19.2052  -12.4436 C   0  0  0  0  0  0  0  0  0  0  0  0
   20.5571  -20.4567  -11.6940 C   0  0  0  0  0  0  0  0  0  0  0  0
   20.9709  -21.6440  -12.4777 C   0  0  2  0  0  0  0  0  0  0  0  0
   22.3766  -21.4396  -12.8409 N   0  0  0  0  0  0  0  0  0  0  0  0
   20.1493  -21.8791  -13.6869 C   0  0  0  0  0  0  0  0  0  0  0  0
   19.0194  -22.3976  -13.6731 O   0  0  0  0  0  0  0  0  0  0  0  0
   20.6737  -21.4968  -14.9087 O   0  0  0  0  0  0  0  0  0  0  0  0
  2  1  1  6
  3  4  1  0
  3  2  1  0
  4  5  2  0
  5  6  1  0
  7  8  2  0
  7  6  1  0
  9  8  1  0
 10  9  2  0
 11 10  1  0
 11 12  2  0
 12  4  1  0
 12  7  1  0
 13  2  1  0
 13 14  2  0
 15 13  1  0
 16 15  1  0
 16 17  1  6
 18 17  1  0
 19 16  1  0
 20 19  2  0
 22 21  1  0
 22 23  2  0
 24 22  1  0
 25 24  1  0
 26 25  1  0
 28 27  1  6
 27 26  1  0
 28 29  1  0
 29 19  1  0
 30 28  1  0
 30 32  1  0
 31 30  2  0
M  END
$$$$
