WCR.pdb
     RDKit          3D

 32 33  0  0  1  0  0  0  0  0999 V2000
   28.6834  -21.6361  -15.1328 N   0  0  0  0  0  0  0  0  0  0  0  0
   27.5620  -20.7489  -14.7824 C   0  0  1  0  0  0  0  0  0  0  0  0
   26.9578  -20.3301  -16.1011 C   0  0  0  0  0  0  0  0  0  0  0  0
   27.5400  -19.1100  -16.6712 C   0  0  0  0  0  0  0  0  0  0  0  0
   28.8260  -18.9378  -17.1387 C   0  0  0  0  0  0  0  0  0  0  0  0
   28.9641  -17.6787  -17.5778 N   0  0  0  0  0  0  0  0  0  0  0  0
   27.8183  -16.9945  -17.4241 C   0  0  0  0  0  0  0  0  0  0  0  0
   27.4559  -15.6995  -17.7143 C   0  0  0  0  0  0  0  0  0  0  0  0
   26.1701  -15.3081  -17.4245 C   0  0  0  0  0  0  0  0  0  0  0  0
   25.2708  -16.1856  -16.8603 C   0  0  0  0  0  0  0  0  0  0  0  0
   25.6432  -17.4728  -16.5755 C   0  0  0  0  0  0  0  0  0  0  0  0
   26.9152  -17.8867  -16.8539 C   0  0  0  0  0  0  0  0  0  0  0  0
   26.6173  -21.4173  -13.8941 C   0  0  0  0  0  0  0  0  0  0  0  0
   26.2156  -22.5698  -14.1576 O   0  0  0  0  0  0  0  0  0  0  0  0
   26.1468  -20.7711  -12.7296 N   0  0  0  0  0  0  0  0  0  0  0  0
   25.2260  -21.4673  -11.8547 C   0  0  1  0  0  0  0  0  0  0  0  0
   25.2207  -20.7389  -10.5274 C   0  0  0  0  0  0  0  0  0  0  0  0
   26.8550  -20.8571   -9.7289 S   0  0  0  0  0  0  0  0  0  0  0  0
   23.8426  -21.3987  -12.4402 C   0  0  0  0  0  0  0  0  0  0  0  0
   23.4560  -20.3219  -12.9595 O   0  0  0  0  0  0  0  0  0  0  0  0
   16.6509  -26.4754  -13.0756 N   0  0  0  0  0  0  0  0  0  0  0  0
   17.1830  -26.3223  -14.3879 C   0  0  0  0  0  0  0  0  0  0  0  0
   16.4623  -26.5344  -15.4250 N   0  0  0  0  0  0  0  0  0  0  0  0
   18.5453  -25.9254  -14.5359 N   0  0  0  0  0  0  0  0  0  0  0  0
   19.3547  -25.6265  -13.3459 C   0  0  0  0  0  0  0  0  0  0  0  0
   19.7812  -24.1893  -13.3884 C   0  0  0  0  0  0  0  0  0  0  0  0
   21.1877  -23.9243  -13.0052 C   0  0  0  0  0  0  0  0  0  0  0  0
   21.6266  -22.5096  -12.9702 C   0  0  2  0  0  0  0  0  0  0  0  0
   22.9847  -22.5037  -12.4178 N   0  0  0  0  0  0  0  0  0  0  0  0
   20.7388  -21.6269  -12.1797 C   0  0  0  0  0  0  0  0  0  0  0  0
   20.8748  -21.4087  -10.9633 O   0  0  0  0  0  0  0  0  0  0  0  0
   19.6922  -21.0062  -12.8378 O   0  0  0  0  0  0  0  0  0  0  0  0
  2  1  1  6
  3  4  1  0
  3  2  1  0
  4  5  2  0
  5  6  1  0
  7  8  2  0
  7  6  1  0
  9  8  1  0
 10  9  2  0
 11 10  1  0
 11 12  2  0
 12  4  1  0
 12  7  1  0
 13  2  1  0
 13 14  2  0
 15 13  1  0
 16 15  1  0
 16 17  1  1
 18 17  1  0
 19 16  1  0
 20 19  2  0
 22 21  1  0
 22 23  2  0
 24 22  1  0
 25 24  1  0
 26 25  1  0
 28 27  1  1
 27 26  1  0
 28 29  1  0
 29 19  1  0
 30 28  1  0
 30 32  1  0
 31 30  2  0
M  END
$$$$
