WCR.pdb
     RDKit          3D

 32 33  0  0  1  0  0  0  0  0999 V2000
   24.2801  -20.0993   -9.5069 N   0  0  0  0  0  0  0  0  0  0  0  0
   25.6667  -19.9450   -9.9770 C   0  0  1  0  0  0  0  0  0  0  0  0
   26.4682  -20.9570   -9.1941 C   0  0  0  0  0  0  0  0  0  0  0  0
   26.6366  -20.6257   -7.7747 C   0  0  0  0  0  0  0  0  0  0  0  0
   25.6450  -20.4848   -6.8266 C   0  0  0  0  0  0  0  0  0  0  0  0
   26.2091  -20.1787   -5.6496 N   0  0  0  0  0  0  0  0  0  0  0  0
   27.5454  -20.1081   -5.7683 C   0  0  0  0  0  0  0  0  0  0  0  0
   28.5510  -19.8335   -4.8706 C   0  0  0  0  0  0  0  0  0  0  0  0
   29.8471  -19.8430   -5.3296 C   0  0  0  0  0  0  0  0  0  0  0  0
   30.1312  -20.1191   -6.6487 C   0  0  0  0  0  0  0  0  0  0  0  0
   29.1214  -20.3910   -7.5335 C   0  0  0  0  0  0  0  0  0  0  0  0
   27.8248  -20.3878   -7.1025 C   0  0  0  0  0  0  0  0  0  0  0  0
   25.7571  -20.1215  -11.4223 C   0  0  0  0  0  0  0  0  0  0  0  0
   24.8556  -20.7274  -12.0383 O   0  0  0  0  0  0  0  0  0  0  0  0
   26.8616  -19.6115  -12.1399 N   0  0  0  0  0  0  0  0  0  0  0  0
   26.8270  -19.6089  -13.5880 C   0  0  1  0  0  0  0  0  0  0  0  0
   27.9500  -18.7143  -14.0683 C   0  0  0  0  0  0  0  0  0  0  0  0
   27.4196  -16.9704  -14.0695 S   0  0  0  0  0  0  0  0  0  0  0  0
   27.0823  -21.0034  -14.0895 C   0  0  0  0  0  0  0  0  0  0  0  0
   27.9583  -21.7020  -13.5211 O   0  0  0  0  0  0  0  0  0  0  0  0
   22.6971  -27.5820  -15.4467 N   0  0  0  0  0  0  0  0  0  0  0  0
   22.4819  -27.0819  -14.1305 C   0  0  0  0  0  0  0  0  0  0  0  0
   22.1189  -27.8565  -13.1775 N   0  0  0  0  0  0  0  0  0  0  0  0
   22.6774  -25.6906  -13.8827 N   0  0  0  0  0  0  0  0  0  0  0  0
   23.0702  -24.7986  -14.9828 C   0  0  0  0  0  0  0  0  0  0  0  0
   24.5079  -24.4078  -14.8111 C   0  0  0  0  0  0  0  0  0  0  0  0
   25.0122  -23.3812  -15.7529 C   0  0  0  0  0  0  0  0  0  0  0  0
   26.4162  -22.9382  -15.5858 C   0  0  2  0  0  0  0  0  0  0  0  0
   26.3674  -21.5332  -15.1693 N   0  0  0  0  0  0  0  0  0  0  0  0
   27.2414  -23.0916  -16.8055 C   0  0  0  0  0  0  0  0  0  0  0  0
   27.2475  -22.2836  -17.7504 O   0  0  0  0  0  0  0  0  0  0  0  0
   28.0570  -24.2052  -16.8980 O   0  0  0  0  0  0  0  0  0  0  0  0
  2  1  1  1
  3  4  1  0
  3  2  1  0
  4  5  2  0
  5  6  1  0
  7  8  2  0
  7  6  1  0
  9  8  1  0
 10  9  2  0
 11 10  1  0
 11 12  2  0
 12  4  1  0
 12  7  1  0
 13  2  1  0
 13 14  2  0
 15 13  1  0
 16 15  1  0
 16 17  1  6
 18 17  1  0
 19 16  1  0
 20 19  2  0
 22 21  1  0
 22 23  2  0
 24 22  1  0
 25 24  1  0
 26 25  1  0
 28 27  1  6
 27 26  1  0
 28 29  1  0
 29 19  1  0
 30 28  1  0
 30 32  1  0
 31 30  2  0
M  END
$$$$
