WCR.pdb
     RDKit          3D

 32 33  0  0  1  0  0  0  0  0999 V2000
   24.7314  -21.6305  -14.1178 N   0  0  0  0  0  0  0  0  0  0  0  0
   24.8517  -20.6784  -13.0013 C   0  0  1  0  0  0  0  0  0  0  0  0
   24.1157  -19.4397  -13.4524 C   0  0  0  0  0  0  0  0  0  0  0  0
   24.5730  -18.9009  -14.7382 C   0  0  0  0  0  0  0  0  0  0  0  0
   23.7944  -18.3754  -15.7480 C   0  0  0  0  0  0  0  0  0  0  0  0
   24.5903  -17.9927  -16.7564 N   0  0  0  0  0  0  0  0  0  0  0  0
   25.8780  -18.2402  -16.4645 C   0  0  0  0  0  0  0  0  0  0  0  0
   27.0500  -18.0340  -17.1547 C   0  0  0  0  0  0  0  0  0  0  0  0
   28.2283  -18.4103  -16.5540 C   0  0  0  0  0  0  0  0  0  0  0  0
   28.2360  -18.9768  -15.2987 C   0  0  0  0  0  0  0  0  0  0  0  0
   27.0625  -19.1774  -14.6210 C   0  0  0  0  0  0  0  0  0  0  0  0
   25.8780  -18.8122  -15.1959 C   0  0  0  0  0  0  0  0  0  0  0  0
   24.3310  -21.2477  -11.7632 C   0  0  0  0  0  0  0  0  0  0  0  0
   23.7231  -22.3383  -11.7807 O   0  0  0  0  0  0  0  0  0  0  0  0
   24.5070  -20.5746  -10.5340 N   0  0  0  0  0  0  0  0  0  0  0  0
   24.2380  -21.2764   -9.2958 C   0  0  1  0  0  0  0  0  0  0  0  0
   25.4430  -21.0928   -8.3977 C   0  0  0  0  0  0  0  0  0  0  0  0
   25.9778  -19.3502   -8.3968 S   0  0  0  0  0  0  0  0  0  0  0  0
   23.0455  -20.6528   -8.6248 C   0  0  0  0  0  0  0  0  0  0  0  0
   23.2331  -19.8559   -7.6717 O   0  0  0  0  0  0  0  0  0  0  0  0
   17.8710  -26.4348   -9.0609 N   0  0  0  0  0  0  0  0  0  0  0  0
   17.3023  -25.9532   -7.8470 C   0  0  0  0  0  0  0  0  0  0  0  0
   16.9039  -26.7594   -6.9353 N   0  0  0  0  0  0  0  0  0  0  0  0
   17.1796  -24.5447   -7.6561 N   0  0  0  0  0  0  0  0  0  0  0  0
   17.9094  -23.6199   -8.5351 C   0  0  0  0  0  0  0  0  0  0  0  0
   19.3799  -23.7421   -8.2667 C   0  0  0  0  0  0  0  0  0  0  0  0
   20.2460  -22.7727   -8.9775 C   0  0  0  0  0  0  0  0  0  0  0  0
   20.7342  -21.6058   -8.2059 C   0  0  2  0  0  0  0  0  0  0  0  0
   21.7407  -20.9412   -9.0395 N   0  0  0  0  0  0  0  0  0  0  0  0
   21.3019  -21.9573   -6.8843 C   0  0  0  0  0  0  0  0  0  0  0  0
   22.2997  -22.6814   -6.7235 O   0  0  0  0  0  0  0  0  0  0  0  0
   20.6818  -21.4464   -5.7582 O   0  0  0  0  0  0  0  0  0  0  0  0
  2  1  1  6
  3  4  1  0
  3  2  1  0
  4  5  2  0
  5  6  1  0
  7  8  2  0
  7  6  1  0
  9  8  1  0
 10  9  2  0
 11 10  1  0
 11 12  2  0
 12  4  1  0
 12  7  1  0
 13  2  1  0
 13 14  2  0
 15 13  1  0
 16 15  1  0
 16 17  1  1
 18 17  1  0
 19 16  1  0
 20 19  2  0
 22 21  1  0
 22 23  2  0
 24 22  1  0
 25 24  1  0
 26 25  1  0
 28 27  1  6
 27 26  1  0
 28 29  1  0
 29 19  1  0
 30 28  1  0
 30 32  1  0
 31 30  2  0
M  END
$$$$
