WCR.pdb
     RDKit          3D

 32 33  0  0  1  0  0  0  0  0999 V2000
   27.7409  -23.2765  -16.4280 N   0  0  0  0  0  0  0  0  0  0  0  0
   26.7605  -22.2316  -16.0898 C   0  0  1  0  0  0  0  0  0  0  0  0
   25.9336  -22.0414  -17.3387 C   0  0  0  0  0  0  0  0  0  0  0  0
   25.4472  -20.6715  -17.5374 C   0  0  0  0  0  0  0  0  0  0  0  0
   26.1685  -19.5863  -17.9893 C   0  0  0  0  0  0  0  0  0  0  0  0
   25.3630  -18.5156  -18.0310 N   0  0  0  0  0  0  0  0  0  0  0  0
   24.1240  -18.8381  -17.6240 C   0  0  0  0  0  0  0  0  0  0  0  0
   22.9643  -18.1103  -17.4901 C   0  0  0  0  0  0  0  0  0  0  0  0
   21.8416  -18.7616  -17.0360 C   0  0  0  0  0  0  0  0  0  0  0  0
   21.8761  -20.1027  -16.7243 C   0  0  0  0  0  0  0  0  0  0  0  0
   23.0369  -20.8172  -16.8615 C   0  0  0  0  0  0  0  0  0  0  0  0
   24.1664  -20.1933  -17.3108 C   0  0  0  0  0  0  0  0  0  0  0  0
   25.9728  -22.6051  -14.9202 C   0  0  0  0  0  0  0  0  0  0  0  0
   25.5588  -23.7759  -14.7899 O   0  0  0  0  0  0  0  0  0  0  0  0
   25.6693  -21.6503  -13.9245 N   0  0  0  0  0  0  0  0  0  0  0  0
   24.8039  -22.0228  -12.8244 C   0  0  1  0  0  0  0  0  0  0  0  0
   25.5034  -21.6275  -11.5411 C   0  0  0  0  0  0  0  0  0  0  0  0
   25.8548  -19.8389  -11.5316 S   0  0  0  0  0  0  0  0  0  0  0  0
   23.5191  -21.2478  -12.9238 C   0  0  0  0  0  0  0  0  0  0  0  0
   23.5721  -20.0029  -13.0851 O   0  0  0  0  0  0  0  0  0  0  0  0
   16.9640  -26.1479  -11.4695 N   0  0  0  0  0  0  0  0  0  0  0  0
   18.3823  -26.2797  -11.4574 C   0  0  0  0  0  0  0  0  0  0  0  0
   18.9422  -27.4304  -11.5077 N   0  0  0  0  0  0  0  0  0  0  0  0
   19.1822  -25.1006  -11.3871 N   0  0  0  0  0  0  0  0  0  0  0  0
   18.5387  -23.7794  -11.3588 C   0  0  0  0  0  0  0  0  0  0  0  0
   19.5942  -22.7157  -11.4213 C   0  0  0  0  0  0  0  0  0  0  0  0
   19.9365  -22.2283  -12.7779 C   0  0  0  0  0  0  0  0  0  0  0  0
   20.9852  -21.1867  -12.8803 C   0  0  2  0  0  0  0  0  0  0  0  0
   22.2750  -21.8828  -12.8409 N   0  0  0  0  0  0  0  0  0  0  0  0
   20.9148  -20.1597  -11.8160 C   0  0  0  0  0  0  0  0  0  0  0  0
   20.1307  -19.1950  -11.8278 O   0  0  0  0  0  0  0  0  0  0  0  0
   21.7766  -20.2832  -10.7409 O   0  0  0  0  0  0  0  0  0  0  0  0
  2  1  1  6
  3  4  1  0
  3  2  1  0
  4  5  2  0
  5  6  1  0
  7  8  2  0
  7  6  1  0
  9  8  1  0
 10  9  2  0
 11 10  1  0
 11 12  2  0
 12  4  1  0
 12  7  1  0
 13  2  1  0
 13 14  2  0
 15 13  1  0
 16 15  1  0
 16 17  1  1
 18 17  1  0
 19 16  1  0
 20 19  2  0
 22 21  1  0
 22 23  2  0
 24 22  1  0
 25 24  1  0
 26 25  1  0
 28 27  1  1
 27 26  1  0
 28 29  1  0
 29 19  1  0
 30 28  1  0
 30 32  1  0
 31 30  2  0
M  END
$$$$
