TQT.pdb
     RDKit          3D

 24 23  0  0  1  0  0  0  0  0999 V2000
   18.5817  -10.6492  -14.7242 C   0  0  0  0  0  0  0  0  0  0  0  0
   17.1606  -11.0781  -14.9610 C   0  0  1  0  0  0  0  0  0  0  0  0
   17.1642  -12.4746  -15.1186 O   0  0  0  0  0  0  0  0  0  0  0  0
   16.3818  -10.7900  -13.6851 C   0  0  2  0  0  0  0  0  0  0  0  0
   15.1021  -11.3657  -13.7981 N   0  0  0  0  0  0  0  0  0  0  0  0
   16.4138   -9.3714  -13.3240 C   0  0  0  0  0  0  0  0  0  0  0  0
   15.8224   -8.5491  -14.0695 O   0  0  0  0  0  0  0  0  0  0  0  0
   15.6881   -6.3799   -8.2044 N   0  0  0  0  0  0  0  0  0  0  0  0
   14.7039   -6.7864   -9.1297 C   0  0  0  0  0  0  0  0  0  0  0  0
   13.5108   -6.8151   -8.8015 O   0  0  0  0  0  0  0  0  0  0  0  0
   15.1381   -7.1777  -10.5038 C   0  0  0  0  0  0  0  0  0  0  0  0
   16.6373   -7.1635  -10.5329 C   0  0  0  0  0  0  0  0  0  0  0  0
   17.2633   -7.4822  -11.8607 C   0  0  2  0  0  0  0  0  0  0  0  0
   17.0899   -8.9067  -12.1635 N   0  0  0  0  0  0  0  0  0  0  0  0
   18.6997   -7.1275  -11.8614 C   0  0  0  0  0  0  0  0  0  0  0  0
   19.4640   -7.7237  -11.0687 O   0  0  0  0  0  0  0  0  0  0  0  0
   21.1729   -8.2211  -13.8226 C   0  0  0  0  0  0  0  0  0  0  0  0
   21.2354   -6.7313  -14.0285 C   0  0  1  0  0  0  0  0  0  0  0  0
   20.5348   -6.3651  -15.1770 O   0  0  0  0  0  0  0  0  0  0  0  0
   20.6863   -5.9954  -12.8147 C   0  0  2  0  0  0  0  0  0  0  0  0
   19.2567   -6.1473  -12.7130 N   0  0  0  0  0  0  0  0  0  0  0  0
   21.0103   -4.5494  -12.9046 C   0  0  0  0  0  0  0  0  0  0  0  0
   22.1924   -4.1597  -12.8957 O   0  0  0  0  0  0  0  0  0  0  0  0
   19.9497   -3.6603  -12.9981 O   0  0  0  0  0  0  0  0  0  0  0  0
  2  1  1  1
  2  3  1  0
  4  5  1  6
  4  2  1  0
  6  4  1  0
  7  6  2  0
  8  9  1  0
  9 11  1  0
  9 10  2  0
 11 12  1  0
 13 12  1  1
 13 14  1  0
 14  6  1  0
 15 21  1  0
 15 13  1  0
 16 15  2  0
 18 17  1  1
 18 20  1  0
 18 19  1  0
 20 21  1  6
 20 22  1  0
 22 24  1  0
 23 22  2  0
M  END
$$$$
