TQT.pdb
     RDKit          3D

 24 23  0  0  1  0  0  0  0  0999 V2000
   15.5654  -11.8105  -11.1126 C   0  0  0  0  0  0  0  0  0  0  0  0
   14.1047  -11.8409  -10.7592 C   0  0  1  0  0  0  0  0  0  0  0  0
   13.8690  -13.0311  -10.0500 O   0  0  0  0  0  0  0  0  0  0  0  0
   13.8508  -10.7001   -9.7838 C   0  0  2  0  0  0  0  0  0  0  0  0
   12.5182  -10.7773   -9.3365 N   0  0  0  0  0  0  0  0  0  0  0  0
   14.2685   -9.4049  -10.3240 C   0  0  0  0  0  0  0  0  0  0  0  0
   13.4490   -8.7528  -11.0204 O   0  0  0  0  0  0  0  0  0  0  0  0
   15.1857   -4.2188   -8.6546 N   0  0  0  0  0  0  0  0  0  0  0  0
   15.2159   -5.3684   -7.8375 C   0  0  0  0  0  0  0  0  0  0  0  0
   15.0075   -5.2765   -6.6209 O   0  0  0  0  0  0  0  0  0  0  0  0
   15.5038   -6.6873   -8.4759 C   0  0  0  0  0  0  0  0  0  0  0  0
   15.7111   -6.4519   -9.9422 C   0  0  0  0  0  0  0  0  0  0  0  0
   16.0661   -7.6674  -10.7504 C   0  0  2  0  0  0  0  0  0  0  0  0
   15.5642   -8.8729  -10.0828 N   0  0  0  0  0  0  0  0  0  0  0  0
   17.5301   -7.7586  -10.9440 C   0  0  0  0  0  0  0  0  0  0  0  0
   18.2474   -8.0473   -9.9590 O   0  0  0  0  0  0  0  0  0  0  0  0
   19.5290  -10.2024  -12.5549 C   0  0  0  0  0  0  0  0  0  0  0  0
   19.9038   -8.9079  -13.2253 C   0  0  1  0  0  0  0  0  0  0  0  0
   19.2455   -8.7800  -14.4476 O   0  0  0  0  0  0  0  0  0  0  0  0
   19.5864   -7.7224  -12.3250 C   0  0  2  0  0  0  0  0  0  0  0  0
   18.1639   -7.5361  -12.1870 N   0  0  0  0  0  0  0  0  0  0  0  0
   20.1810   -6.4826  -12.8848 C   0  0  0  0  0  0  0  0  0  0  0  0
   19.4565   -5.5684  -13.3190 O   0  0  0  0  0  0  0  0  0  0  0  0
   21.5648   -6.3880  -12.9028 O   0  0  0  0  0  0  0  0  0  0  0  0
  2  1  1  1
  2  3  1  0
  4  5  1  6
  4  2  1  0
  6  4  1  0
  7  6  2  0
  8  9  1  0
  9 11  1  0
  9 10  2  0
 11 12  1  0
 13 12  1  1
 13 14  1  0
 14  6  1  0
 15 21  1  0
 15 13  1  0
 16 15  2  0
 18 17  1  1
 18 20  1  0
 18 19  1  0
 20 21  1  6
 20 22  1  0
 22 24  1  0
 23 22  2  0
M  END
$$$$
