TQT.pdb
     RDKit          3D

 24 23  0  0  1  0  0  0  0  0999 V2000
   26.9042  -17.7699  -15.1727 C   0  0  0  0  0  0  0  0  0  0  0  0
   27.2817  -18.8098  -16.1903 C   0  0  1  0  0  0  0  0  0  0  0  0
   28.4702  -18.3821  -16.8065 O   0  0  0  0  0  0  0  0  0  0  0  0
   27.6241  -20.0838  -15.4306 C   0  0  2  0  0  0  0  0  0  0  0  0
   28.3562  -20.9333  -16.2816 N   0  0  0  0  0  0  0  0  0  0  0  0
   26.4503  -20.6799  -14.7896 C   0  0  0  0  0  0  0  0  0  0  0  0
   25.7773  -21.5232  -15.4359 O   0  0  0  0  0  0  0  0  0  0  0  0
   25.1258  -20.7003   -8.6835 N   0  0  0  0  0  0  0  0  0  0  0  0
   26.3494  -21.0623   -9.2849 C   0  0  0  0  0  0  0  0  0  0  0  0
   27.3511  -21.2706   -8.5883 O   0  0  0  0  0  0  0  0  0  0  0  0
   26.4018  -21.1859  -10.7721 C   0  0  0  0  0  0  0  0  0  0  0  0
   25.0520  -20.8169  -11.3111 C   0  0  0  0  0  0  0  0  0  0  0  0
   24.8960  -20.9279  -12.8010 C   0  0  2  0  0  0  0  0  0  0  0  0
   26.0577  -20.3318  -13.4688 N   0  0  0  0  0  0  0  0  0  0  0  0
   23.6504  -20.2665  -13.2482 C   0  0  0  0  0  0  0  0  0  0  0  0
   23.4507  -19.0767  -12.9128 O   0  0  0  0  0  0  0  0  0  0  0  0
   22.6489  -19.1258  -16.4893 C   0  0  0  0  0  0  0  0  0  0  0  0
   21.5569  -20.0613  -16.0440 C   0  0  1  0  0  0  0  0  0  0  0  0
   21.7212  -21.3185  -16.6238 O   0  0  0  0  0  0  0  0  0  0  0  0
   21.5303  -20.1760  -14.5265 C   0  0  2  0  0  0  0  0  0  0  0  0
   22.6704  -20.9095  -14.0371 N   0  0  0  0  0  0  0  0  0  0  0  0
   20.2911  -20.8661  -14.0883 C   0  0  0  0  0  0  0  0  0  0  0  0
   19.1749  -20.3447  -14.2657 O   0  0  0  0  0  0  0  0  0  0  0  0
   20.4294  -22.1045  -13.4788 O   0  0  0  0  0  0  0  0  0  0  0  0
  2  1  1  1
  2  3  1  0
  4  5  1  6
  4  2  1  0
  6  4  1  0
  7  6  2  0
  8  9  1  0
  9 11  1  0
  9 10  2  0
 11 12  1  0
 13 12  1  1
 13 14  1  0
 14  6  1  0
 15 21  1  0
 15 13  1  0
 16 15  2  0
 18 17  1  1
 18 20  1  0
 18 19  1  0
 20 21  1  6
 20 22  1  0
 22 24  1  0
 23 22  2  0
M  END
$$$$
