TQT.pdb
     RDKit          3D

 24 23  0  0  1  0  0  0  0  0999 V2000
   20.2361  -12.2282  -15.6274 C   0  0  0  0  0  0  0  0  0  0  0  0
   19.0784  -12.7706  -16.4179 C   0  0  1  0  0  0  0  0  0  0  0  0
   18.7814  -14.0455  -15.9066 O   0  0  0  0  0  0  0  0  0  0  0  0
   17.8721  -11.8927  -16.1151 C   0  0  2  0  0  0  0  0  0  0  0  0
   16.7256  -12.4960  -16.6660 N   0  0  0  0  0  0  0  0  0  0  0  0
   18.0972  -10.4939  -16.4847 C   0  0  0  0  0  0  0  0  0  0  0  0
   18.2057  -10.2055  -17.7041 O   0  0  0  0  0  0  0  0  0  0  0  0
   15.1328   -5.9222  -14.5435 N   0  0  0  0  0  0  0  0  0  0  0  0
   16.1291   -5.1050  -15.1177 C   0  0  0  0  0  0  0  0  0  0  0  0
   15.9598   -3.8821  -15.2075 O   0  0  0  0  0  0  0  0  0  0  0  0
   17.3823   -5.7509  -15.6098 C   0  0  0  0  0  0  0  0  0  0  0  0
   17.2627   -7.2263  -15.3704 C   0  0  0  0  0  0  0  0  0  0  0  0
   18.4158   -8.0577  -15.8558 C   0  0  2  0  0  0  0  0  0  0  0  0
   18.1951   -9.4655  -15.5087 N   0  0  0  0  0  0  0  0  0  0  0  0
   19.6889   -7.5782  -15.2742 C   0  0  0  0  0  0  0  0  0  0  0  0
   19.9452   -7.8588  -14.0811 O   0  0  0  0  0  0  0  0  0  0  0  0
   24.0751   -5.3091  -15.6956 C   0  0  0  0  0  0  0  0  0  0  0  0
   22.8762   -5.9127  -16.3768 C   0  0  1  0  0  0  0  0  0  0  0  0
   23.2551   -6.9977  -17.1661 O   0  0  0  0  0  0  0  0  0  0  0  0
   21.8325   -6.3391  -15.3543 C   0  0  2  0  0  0  0  0  0  0  0  0
   20.6346   -6.8172  -15.9973 N   0  0  0  0  0  0  0  0  0  0  0  0
   21.4819   -5.1953  -14.4753 C   0  0  0  0  0  0  0  0  0  0  0  0
   20.5971   -4.3851  -14.8067 O   0  0  0  0  0  0  0  0  0  0  0  0
   22.1760   -5.0697  -13.2808 O   0  0  0  0  0  0  0  0  0  0  0  0
  2  1  1  1
  2  3  1  0
  4  5  1  6
  4  2  1  0
  6  4  1  0
  7  6  2  0
  8  9  1  0
  9 11  1  0
  9 10  2  0
 11 12  1  0
 13 12  1  1
 13 14  1  0
 14  6  1  0
 15 21  1  0
 15 13  1  0
 16 15  2  0
 18 17  1  1
 18 20  1  0
 18 19  1  0
 20 21  1  6
 20 22  1  0
 22 24  1  0
 23 22  2  0
M  END
$$$$
