TQT.pdb
     RDKit          3D

 24 23  0  0  1  0  0  0  0  0999 V2000
   24.9280  -36.7425  -12.6633 C   0  0  0  0  0  0  0  0  0  0  0  0
   25.9781  -35.9633  -13.4047 C   0  0  1  0  0  0  0  0  0  0  0  0
   26.1715  -36.5945  -14.6454 O   0  0  0  0  0  0  0  0  0  0  0  0
   25.3947  -34.5898  -13.7060 C   0  0  2  0  0  0  0  0  0  0  0  0
   26.2657  -33.9116  -14.5796 N   0  0  0  0  0  0  0  0  0  0  0  0
   25.0211  -33.8667  -12.4888 C   0  0  0  0  0  0  0  0  0  0  0  0
   25.8789  -33.1258  -11.9439 O   0  0  0  0  0  0  0  0  0  0  0  0
   19.2502  -32.5602  -11.0323 N   0  0  0  0  0  0  0  0  0  0  0  0
   19.8477  -31.8637   -9.9609 C   0  0  0  0  0  0  0  0  0  0  0  0
   19.1786  -31.0826   -9.2721 O   0  0  0  0  0  0  0  0  0  0  0  0
   21.2970  -32.0930   -9.6836 C   0  0  0  0  0  0  0  0  0  0  0  0
   21.8324  -32.9939  -10.7560 C   0  0  0  0  0  0  0  0  0  0  0  0
   23.3152  -33.2319  -10.7227 C   0  0  2  0  0  0  0  0  0  0  0  0
   23.7260  -33.9809  -11.9148 N   0  0  0  0  0  0  0  0  0  0  0  0
   23.7009  -33.9648   -9.4966 C   0  0  0  0  0  0  0  0  0  0  0  0
   23.5375  -35.2058   -9.4647 O   0  0  0  0  0  0  0  0  0  0  0  0
   26.3484  -32.3280   -6.6791 C   0  0  0  0  0  0  0  0  0  0  0  0
   26.1638  -33.8041   -6.9097 C   0  0  1  0  0  0  0  0  0  0  0  0
   26.5778  -34.5304   -5.7940 O   0  0  0  0  0  0  0  0  0  0  0  0
   24.7124  -34.1210   -7.2407 C   0  0  2  0  0  0  0  0  0  0  0  0
   24.2461  -33.3352   -8.3552 N   0  0  0  0  0  0  0  0  0  0  0  0
   23.8489  -33.8464   -6.0647 C   0  0  0  0  0  0  0  0  0  0  0  0
   22.9482  -32.9892   -6.1221 O   0  0  0  0  0  0  0  0  0  0  0  0
   24.0867  -34.5787   -4.9109 O   0  0  0  0  0  0  0  0  0  0  0  0
  2  1  1  1
  2  3  1  0
  4  5  1  1
  4  2  1  0
  6  4  1  0
  7  6  2  0
  8  9  1  0
  9 11  1  0
  9 10  2  0
 11 12  1  0
 13 12  1  6
 13 14  1  0
 14  6  1  0
 15 21  1  0
 15 13  1  0
 16 15  2  0
 18 17  1  1
 18 20  1  0
 18 19  1  0
 20 21  1  6
 20 22  1  0
 22 24  1  0
 23 22  2  0
M  END
$$$$
