TQT.pdb
     RDKit          3D

 24 23  0  0  1  0  0  0  0  0999 V2000
   25.0619  -22.9339  -16.2396 C   0  0  0  0  0  0  0  0  0  0  0  0
   26.3621  -22.4748  -15.6412 C   0  0  1  0  0  0  0  0  0  0  0  0
   27.3840  -23.2556  -16.2079 O   0  0  0  0  0  0  0  0  0  0  0  0
   26.5987  -21.0468  -16.1127 C   0  0  2  0  0  0  0  0  0  0  0  0
   27.9232  -20.6834  -15.8037 N   0  0  0  0  0  0  0  0  0  0  0  0
   25.5591  -20.1284  -15.6440 C   0  0  0  0  0  0  0  0  0  0  0  0
   25.6910  -19.6016  -14.5096 O   0  0  0  0  0  0  0  0  0  0  0  0
   22.0454  -16.8377  -19.3165 N   0  0  0  0  0  0  0  0  0  0  0  0
   21.4140  -16.4237  -18.1249 C   0  0  0  0  0  0  0  0  0  0  0  0
   20.5651  -15.5233  -18.1471 O   0  0  0  0  0  0  0  0  0  0  0  0
   21.7952  -17.0964  -16.8473 C   0  0  0  0  0  0  0  0  0  0  0  0
   22.8904  -18.0742  -17.1525 C   0  0  0  0  0  0  0  0  0  0  0  0
   23.3706  -18.8941  -15.9891 C   0  0  2  0  0  0  0  0  0  0  0  0
   24.4169  -19.8215  -16.4320 N   0  0  0  0  0  0  0  0  0  0  0  0
   22.2495  -19.6392  -15.3748 C   0  0  0  0  0  0  0  0  0  0  0  0
   21.8307  -20.6705  -15.9482 O   0  0  0  0  0  0  0  0  0  0  0  0
   22.0142  -21.0377  -11.8098 C   0  0  0  0  0  0  0  0  0  0  0  0
   20.7786  -20.2263  -12.0938 C   0  0  1  0  0  0  0  0  0  0  0  0
   20.8531  -18.9832  -11.4671 O   0  0  0  0  0  0  0  0  0  0  0  0
   20.5793  -20.0538  -13.5929 C   0  0  2  0  0  0  0  0  0  0  0  0
   21.6242  -19.2463  -14.1702 N   0  0  0  0  0  0  0  0  0  0  0  0
   19.2696  -19.4091  -13.8629 C   0  0  0  0  0  0  0  0  0  0  0  0
   18.2099  -19.9305  -13.4701 O   0  0  0  0  0  0  0  0  0  0  0  0
   19.2777  -18.2127  -14.5649 O   0  0  0  0  0  0  0  0  0  0  0  0
  2  1  1  6
  2  3  1  0
  4  5  1  1
  4  2  1  0
  6  4  1  0
  7  6  2  0
  8  9  1  0
  9 11  1  0
  9 10  2  0
 11 12  1  0
 13 12  1  6
 13 14  1  0
 14  6  1  0
 15 21  1  0
 15 13  1  0
 16 15  2  0
 18 17  1  6
 18 20  1  0
 18 19  1  0
 20 21  1  1
 20 22  1  0
 22 24  1  0
 23 22  2  0
M  END
$$$$
