TQT.pdb
     RDKit          3D

 24 23  0  0  1  0  0  0  0  0999 V2000
   22.8903  -10.0179  -19.3444 C   0  0  0  0  0  0  0  0  0  0  0  0
   21.7498  -10.6788  -20.0668 C   0  0  1  0  0  0  0  0  0  0  0  0
   22.2719  -11.7940  -20.7444 O   0  0  0  0  0  0  0  0  0  0  0  0
   20.7985  -11.2227  -19.0102 C   0  0  2  0  0  0  0  0  0  0  0  0
   19.8899  -12.1011  -19.6305 N   0  0  0  0  0  0  0  0  0  0  0  0
   20.2044  -10.1588  -18.1983 C   0  0  0  0  0  0  0  0  0  0  0  0
   19.4538   -9.3219  -18.7623 O   0  0  0  0  0  0  0  0  0  0  0  0
   15.6971   -8.5722  -16.3663 N   0  0  0  0  0  0  0  0  0  0  0  0
   16.6324   -8.8501  -15.3474 C   0  0  0  0  0  0  0  0  0  0  0  0
   16.6496   -8.1716  -14.3123 O   0  0  0  0  0  0  0  0  0  0  0  0
   17.5924   -9.9756  -15.5509 C   0  0  0  0  0  0  0  0  0  0  0  0
   18.9171   -9.5566  -14.9868 C   0  0  0  0  0  0  0  0  0  0  0  0
   19.8896   -8.9791  -15.9754 C   0  0  2  0  0  0  0  0  0  0  0  0
   20.4530  -10.0506  -16.8032 N   0  0  0  0  0  0  0  0  0  0  0  0
   20.9695   -8.2446  -15.2802 C   0  0  0  0  0  0  0  0  0  0  0  0
   21.7612   -8.8890  -14.5551 O   0  0  0  0  0  0  0  0  0  0  0  0
   23.9479   -6.5399  -16.4742 C   0  0  0  0  0  0  0  0  0  0  0  0
   23.1901   -5.5184  -15.6691 C   0  0  1  0  0  0  0  0  0  0  0  0
   22.4921   -4.6515  -16.5087 O   0  0  0  0  0  0  0  0  0  0  0  0
   22.2366   -6.1975  -14.6963 C   0  0  2  0  0  0  0  0  0  0  0  0
   21.1551   -6.8483  -15.3920 N   0  0  0  0  0  0  0  0  0  0  0  0
   21.6701   -5.1985  -13.7554 C   0  0  0  0  0  0  0  0  0  0  0  0
   20.4526   -4.9398  -13.7579 O   0  0  0  0  0  0  0  0  0  0  0  0
   22.5474   -4.5723  -12.8823 O   0  0  0  0  0  0  0  0  0  0  0  0
  2  1  1  1
  2  3  1  0
  4  5  1  6
  4  2  1  0
  6  4  1  0
  7  6  2  0
  8  9  1  0
  9 11  1  0
  9 10  2  0
 11 12  1  0
 13 12  1  1
 13 14  1  0
 14  6  1  0
 15 21  1  0
 15 13  1  0
 16 15  2  0
 18 17  1  6
 18 20  1  0
 18 19  1  0
 20 21  1  6
 20 22  1  0
 22 24  1  0
 23 22  2  0
M  END
$$$$
