WIP.pdb
     RDKit          3D

 30 32  0  0  1  0  0  0  0  0999 V2000
    6.6350  -19.3089   26.6568 N   0  0  0  0  0  0  0  0  0  0  0  0
    7.4444  -18.1370   26.7719 C   0  0  1  0  0  0  0  0  0  0  0  0
    8.9112  -18.4706   26.9222 C   0  0  0  0  0  0  0  0  0  0  0  0
    9.4136  -17.8611   28.1782 C   0  0  0  0  0  0  0  0  0  0  0  0
    9.6988  -18.4988   29.3660 C   0  0  0  0  0  0  0  0  0  0  0  0
   10.1337  -17.6008   30.2775 N   0  0  0  0  0  0  0  0  0  0  0  0
   10.1355  -16.3858   29.6990 C   0  0  0  0  0  0  0  0  0  0  0  0
   10.4910  -15.1511   30.2036 C   0  0  0  0  0  0  0  0  0  0  0  0
   10.4144  -14.0190   29.4229 C   0  0  0  0  0  0  0  0  0  0  0  0
    9.9701  -14.1778   28.1267 C   0  0  0  0  0  0  0  0  0  0  0  0
    9.6086  -15.3989   27.5968 C   0  0  0  0  0  0  0  0  0  0  0  0
    9.6908  -16.5149   28.3873 C   0  0  0  0  0  0  0  0  0  0  0  0
    7.2222  -17.2188   25.6092 C   0  0  0  0  0  0  0  0  0  0  0  0
    6.9307  -17.7401   24.5017 O   0  0  0  0  0  0  0  0  0  0  0  0
    6.3804  -11.9545   26.7933 C   0  0  0  0  0  0  0  0  0  0  0  0
    6.2139  -13.2642   26.0815 C   0  0  0  0  0  0  0  0  0  0  0  0
    7.4411  -13.5316   25.2322 C   0  0  2  0  0  0  0  0  0  0  0  0
    7.5845  -12.3660   24.3160 C   0  0  0  0  0  0  0  0  0  0  0  0
    7.3057  -14.8755   24.6282 C   0  0  2  0  0  0  0  0  0  0  0  0
    7.3402  -15.8173   25.7700 N   0  0  0  0  0  0  0  0  0  0  0  0
    8.2498  -15.2684   23.5927 C   0  0  0  0  0  0  0  0  0  0  0  0
    9.3189  -15.8493   24.0480 O   0  0  0  0  0  0  0  0  0  0  0  0
    8.2085  -15.1357   22.2155 N   0  0  0  0  0  0  0  0  0  0  0  0
    7.2815  -14.3931   21.4076 C   0  0  0  0  0  0  0  0  0  0  0  0
    7.0727  -15.1735   20.1189 C   0  0  0  0  0  0  0  0  0  0  0  0
    8.3772  -15.8869   19.9596 C   0  0  0  0  0  0  0  0  0  0  0  0
    9.1007  -15.7802   21.2610 C   0  0  1  0  0  0  0  0  0  0  0  0
   10.3529  -14.9718   21.0849 C   0  0  0  0  0  0  0  0  0  0  0  0
   10.4473  -13.7950   21.4682 O   0  0  0  0  0  0  0  0  0  0  0  0
   11.4221  -15.5730   20.4756 O   0  0  0  0  0  0  0  0  0  0  0  0
  2  1  1  6
  2 13  1  0
  3  4  1  0
  3  2  1  0
  4  5  2  0
  5  6  1  0
  7  6  1  0
  8  7  2  0
  9  8  1  0
 10 11  1  0
 10  9  2  0
 11 12  2  0
 12  4  1  0
 12  7  1  0
 13 20  1  0
 13 14  2  0
 16 17  1  0
 16 15  1  0
 17 18  1  6
 19 17  1  0
 19 21  1  0
 19 20  1  1
 21 22  2  0
 23 27  1  0
 23 21  1  0
 24 23  1  0
 25 24  1  0
 25 26  1  0
 26 27  1  0
 27 28  1  6
 28 29  2  0
 28 30  1  0
M  END
$$$$
