WIP.pdb
     RDKit          3D

 30 32  0  0  1  0  0  0  0  0999 V2000
    6.0363  -17.1793   25.6107 N   0  0  0  0  0  0  0  0  0  0  0  0
    6.9238  -16.2155   25.0403 C   0  0  1  0  0  0  0  0  0  0  0  0
    8.2376  -16.1408   25.7844 C   0  0  0  0  0  0  0  0  0  0  0  0
    8.2025  -14.9738   26.6999 C   0  0  0  0  0  0  0  0  0  0  0  0
    8.8114  -14.8527   27.9302 C   0  0  0  0  0  0  0  0  0  0  0  0
    8.5442  -13.6376   28.4581 N   0  0  0  0  0  0  0  0  0  0  0  0
    7.7689  -12.9652   27.5877 C   0  0  0  0  0  0  0  0  0  0  0  0
    7.2306  -11.6961   27.6586 C   0  0  0  0  0  0  0  0  0  0  0  0
    6.4530  -11.1992   26.6362 C   0  0  0  0  0  0  0  0  0  0  0  0
    6.2410  -12.0227   25.5500 C   0  0  0  0  0  0  0  0  0  0  0  0
    6.7664  -13.2943   25.4529 C   0  0  0  0  0  0  0  0  0  0  0  0
    7.5376  -13.7730   26.4790 C   0  0  0  0  0  0  0  0  0  0  0  0
    7.1491  -16.4931   23.5855 C   0  0  0  0  0  0  0  0  0  0  0  0
    6.8236  -17.6282   23.1510 O   0  0  0  0  0  0  0  0  0  0  0  0
    7.2006  -12.2069   20.5376 C   0  0  0  0  0  0  0  0  0  0  0  0
    6.9922  -13.6178   21.0020 C   0  0  0  0  0  0  0  0  0  0  0  0
    8.2448  -14.4258   20.7251 C   0  0  2  0  0  0  0  0  0  0  0  0
    8.4792  -14.3540   19.2558 C   0  0  0  0  0  0  0  0  0  0  0  0
    8.0809  -15.7634   21.3362 C   0  0  2  0  0  0  0  0  0  0  0  0
    7.7095  -15.5012   22.7451 N   0  0  0  0  0  0  0  0  0  0  0  0
    9.1868  -16.7053   21.2495 C   0  0  0  0  0  0  0  0  0  0  0  0
   10.0744  -16.5628   22.1874 O   0  0  0  0  0  0  0  0  0  0  0  0
    9.4570  -17.7227   20.3507 N   0  0  0  0  0  0  0  0  0  0  0  0
    8.6723  -18.1737   19.2352 C   0  0  0  0  0  0  0  0  0  0  0  0
    8.8574  -19.6794   19.1263 C   0  0  0  0  0  0  0  0  0  0  0  0
   10.2312  -19.8759   19.6828 C   0  0  0  0  0  0  0  0  0  0  0  0
   10.6124  -18.6097   20.3756 C   0  0  1  0  0  0  0  0  0  0  0  0
   11.7771  -17.9740   19.6742 C   0  0  0  0  0  0  0  0  0  0  0  0
   12.9258  -18.4407   19.7300 O   0  0  0  0  0  0  0  0  0  0  0  0
   11.5436  -16.8354   18.9496 O   0  0  0  0  0  0  0  0  0  0  0  0
  2  1  1  1
  2 13  1  0
  3  4  1  0
  3  2  1  0
  4  5  2  0
  5  6  1  0
  7  6  1  0
  8  7  2  0
  9  8  1  0
 10 11  1  0
 10  9  2  0
 11 12  2  0
 12  4  1  0
 12  7  1  0
 13 20  1  0
 13 14  2  0
 16 17  1  0
 16 15  1  0
 17 18  1  6
 19 17  1  0
 19 21  1  0
 19 20  1  1
 21 22  2  0
 23 27  1  0
 23 21  1  0
 24 23  1  0
 25 24  1  0
 25 26  1  0
 26 27  1  0
 27 28  1  6
 28 29  2  0
 28 30  1  0
M  END
$$$$
