WIP.pdb
     RDKit          3D

 30 32  0  0  1  0  0  0  0  0999 V2000
    5.5746  -17.5553   24.4892 N   0  0  0  0  0  0  0  0  0  0  0  0
    6.4358  -16.4379   24.2626 C   0  0  1  0  0  0  0  0  0  0  0  0
    7.2713  -16.1072   25.4784 C   0  0  0  0  0  0  0  0  0  0  0  0
    6.6694  -14.9399   26.1686 C   0  0  0  0  0  0  0  0  0  0  0  0
    5.4216  -14.8579   26.7477 C   0  0  0  0  0  0  0  0  0  0  0  0
    5.2393  -13.6271   27.2754 N   0  0  0  0  0  0  0  0  0  0  0  0
    6.3522  -12.9058   27.0476 C   0  0  0  0  0  0  0  0  0  0  0  0
    6.6634  -11.6037   27.3839 C   0  0  0  0  0  0  0  0  0  0  0  0
    7.8818  -11.0575   27.0460 C   0  0  0  0  0  0  0  0  0  0  0  0
    8.7659  -11.8664   26.3628 C   0  0  0  0  0  0  0  0  0  0  0  0
    8.4813  -13.1703   26.0142 C   0  0  0  0  0  0  0  0  0  0  0  0
    7.2646  -13.6978   26.3581 C   0  0  0  0  0  0  0  0  0  0  0  0
    7.3049  -16.6684   23.0643 C   0  0  0  0  0  0  0  0  0  0  0  0
    7.6236  -17.8554   22.7946 O   0  0  0  0  0  0  0  0  0  0  0  0
    7.3637  -12.4491   19.8194 C   0  0  0  0  0  0  0  0  0  0  0  0
    7.3007  -13.8849   20.2487 C   0  0  0  0  0  0  0  0  0  0  0  0
    8.7073  -14.3984   20.4860 C   0  0  2  0  0  0  0  0  0  0  0  0
    9.4316  -14.2637   19.1914 C   0  0  0  0  0  0  0  0  0  0  0  0
    8.6155  -15.7451   21.0920 C   0  0  2  0  0  0  0  0  0  0  0  0
    7.7421  -15.5772   22.2756 N   0  0  0  0  0  0  0  0  0  0  0  0
    9.8490  -16.4337   21.4410 C   0  0  0  0  0  0  0  0  0  0  0  0
   10.3702  -16.0428   22.5649 O   0  0  0  0  0  0  0  0  0  0  0  0
   10.5596  -17.4286   20.7919 N   0  0  0  0  0  0  0  0  0  0  0  0
   10.1919  -18.1890   19.6300 C   0  0  0  0  0  0  0  0  0  0  0  0
   10.7535  -19.5914   19.8062 C   0  0  0  0  0  0  0  0  0  0  0  0
   11.9632  -19.3500   20.6512 C   0  0  0  0  0  0  0  0  0  0  0  0
   11.8548  -17.9626   21.1915 C   0  0  1  0  0  0  0  0  0  0  0  0
   12.9642  -17.1128   20.6442 C   0  0  0  0  0  0  0  0  0  0  0  0
   12.7767  -16.2523   19.7695 O   0  0  0  0  0  0  0  0  0  0  0  0
   14.2252  -17.3088   21.1415 O   0  0  0  0  0  0  0  0  0  0  0  0
  2  1  1  1
  2 13  1  0
  3  4  1  0
  3  2  1  0
  4  5  2  0
  5  6  1  0
  7  6  1  0
  8  7  2  0
  9  8  1  0
 10 11  1  0
 10  9  2  0
 11 12  2  0
 12  4  1  0
 12  7  1  0
 13 20  1  0
 13 14  2  0
 16 17  1  0
 16 15  1  0
 17 18  1  6
 19 17  1  0
 19 21  1  0
 19 20  1  1
 21 22  2  0
 23 27  1  0
 23 21  1  0
 24 23  1  0
 25 24  1  0
 25 26  1  0
 26 27  1  0
 27 28  1  6
 28 29  2  0
 28 30  1  0
M  END
$$$$
