WIP.pdb
     RDKit          3D

 30 32  0  0  1  0  0  0  0  0999 V2000
   10.2675  -14.6451   21.3201 N   0  0  0  0  0  0  0  0  0  0  0  0
    9.0638  -14.7307   22.0852 C   0  0  1  0  0  0  0  0  0  0  0  0
    8.2889  -15.9942   21.7879 C   0  0  0  0  0  0  0  0  0  0  0  0
    7.7180  -15.8945   20.4221 C   0  0  0  0  0  0  0  0  0  0  0  0
    7.0697  -16.8791   19.7086 C   0  0  0  0  0  0  0  0  0  0  0  0
    6.6970  -16.4020   18.5003 N   0  0  0  0  0  0  0  0  0  0  0  0
    7.0941  -15.1190   18.4171 C   0  0  0  0  0  0  0  0  0  0  0  0
    6.9543  -14.1995   17.3970 C   0  0  0  0  0  0  0  0  0  0  0  0
    7.4446  -12.9190   17.5265 C   0  0  0  0  0  0  0  0  0  0  0  0
    8.0752  -12.6039   18.7122 C   0  0  0  0  0  0  0  0  0  0  0  0
    8.2289  -13.5023   19.7475 C   0  0  0  0  0  0  0  0  0  0  0  0
    7.7352  -14.7720   19.6020 C   0  0  0  0  0  0  0  0  0  0  0  0
    9.3537  -14.6145   23.5504 C   0  0  0  0  0  0  0  0  0  0  0  0
   10.5380  -14.8094   23.9280 O   0  0  0  0  0  0  0  0  0  0  0  0
    5.7120  -11.7450   26.3357 C   0  0  0  0  0  0  0  0  0  0  0  0
    7.0003  -12.2995   25.8043 C   0  0  0  0  0  0  0  0  0  0  0  0
    7.2803  -13.6353   26.4647 C   0  0  2  0  0  0  0  0  0  0  0  0
    7.1934  -13.4079   27.9342 C   0  0  0  0  0  0  0  0  0  0  0  0
    8.5487  -14.1677   25.9195 C   0  0  2  0  0  0  0  0  0  0  0  0
    8.3190  -14.2959   24.4626 N   0  0  0  0  0  0  0  0  0  0  0  0
    9.0802  -15.4011   26.4795 C   0  0  0  0  0  0  0  0  0  0  0  0
    8.6221  -16.4768   25.9131 O   0  0  0  0  0  0  0  0  0  0  0  0
    9.9853  -15.6293   27.5016 N   0  0  0  0  0  0  0  0  0  0  0  0
   10.5547  -14.6918   28.4292 C   0  0  0  0  0  0  0  0  0  0  0  0
   11.9816  -15.1371   28.7097 C   0  0  0  0  0  0  0  0  0  0  0  0
   11.8998  -16.6181   28.5210 C   0  0  0  0  0  0  0  0  0  0  0  0
   10.6060  -16.9049   27.8337 C   0  0  1  0  0  0  0  0  0  0  0  0
    9.7129  -17.7032   28.7379 C   0  0  0  0  0  0  0  0  0  0  0  0
    9.9972  -18.8518   29.1128 O   0  0  0  0  0  0  0  0  0  0  0  0
    8.5433  -17.1252   29.1551 O   0  0  0  0  0  0  0  0  0  0  0  0
  2  1  1  6
  2 13  1  0
  3  4  1  0
  3  2  1  0
  4  5  2  0
  5  6  1  0
  7  6  1  0
  8  7  2  0
  9  8  1  0
 10 11  1  0
 10  9  2  0
 11 12  2  0
 12  4  1  0
 12  7  1  0
 13 20  1  0
 13 14  2  0
 16 17  1  0
 16 15  1  0
 17 18  1  1
 19 17  1  0
 19 21  1  0
 19 20  1  6
 21 22  2  0
 23 27  1  0
 23 21  1  0
 24 23  1  0
 25 24  1  0
 25 26  1  0
 26 27  1  0
 27 28  1  1
 28 29  2  0
 28 30  1  0
M  END
$$$$
