WIP.pdb
     RDKit          3D

 30 32  0  0  1  0  0  0  0  0999 V2000
    7.0063  -19.6929   26.6636 N   0  0  0  0  0  0  0  0  0  0  0  0
    7.6804  -18.4483   26.8592 C   0  0  1  0  0  0  0  0  0  0  0  0
    9.1770  -18.6243   26.9805 C   0  0  0  0  0  0  0  0  0  0  0  0
    9.6398  -17.9419   28.2140 C   0  0  0  0  0  0  0  0  0  0  0  0
    9.8305  -18.4977   29.4605 C   0  0  0  0  0  0  0  0  0  0  0  0
   10.2582  -17.5516   30.3255 N   0  0  0  0  0  0  0  0  0  0  0  0
   10.3487  -16.3862   29.6589 C   0  0  0  0  0  0  0  0  0  0  0  0
   10.7350  -15.1327   30.0892 C   0  0  0  0  0  0  0  0  0  0  0  0
   10.7542  -14.0621   29.2230 C   0  0  0  0  0  0  0  0  0  0  0  0
   10.3729  -14.3012   27.9191 C   0  0  0  0  0  0  0  0  0  0  0  0
    9.9825  -15.5427   27.4623 C   0  0  0  0  0  0  0  0  0  0  0  0
    9.9691  -16.5968   28.3373 C   0  0  0  0  0  0  0  0  0  0  0  0
    7.3434  -17.4815   25.7656 C   0  0  0  0  0  0  0  0  0  0  0  0
    7.0202  -17.9565   24.6461 O   0  0  0  0  0  0  0  0  0  0  0  0
    5.8824  -11.7637   26.0927 C   0  0  0  0  0  0  0  0  0  0  0  0
    6.0036  -12.9658   25.2038 C   0  0  0  0  0  0  0  0  0  0  0  0
    7.2172  -13.7744   25.6186 C   0  0  2  0  0  0  0  0  0  0  0  0
    8.4059  -12.9118   25.3709 C   0  0  0  0  0  0  0  0  0  0  0  0
    7.1583  -15.0860   24.9362 C   0  0  2  0  0  0  0  0  0  0  0  0
    7.3924  -16.0866   26.0020 N   0  0  0  0  0  0  0  0  0  0  0  0
    8.0348  -15.3148   23.7973 C   0  0  0  0  0  0  0  0  0  0  0  0
    9.1423  -15.9229   24.0992 O   0  0  0  0  0  0  0  0  0  0  0  0
    7.8961  -15.0031   22.4558 N   0  0  0  0  0  0  0  0  0  0  0  0
    6.9434  -14.1324   21.8252 C   0  0  0  0  0  0  0  0  0  0  0  0
    6.6058  -14.7317   20.4687 C   0  0  0  0  0  0  0  0  0  0  0  0
    7.8633  -15.4600   20.1166 C   0  0  0  0  0  0  0  0  0  0  0  0
    8.6862  -15.5467   21.3591 C   0  0  1  0  0  0  0  0  0  0  0  0
    9.9547  -14.7631   21.1877 C   0  0  0  0  0  0  0  0  0  0  0  0
   10.1650  -13.6945   21.7832 O   0  0  0  0  0  0  0  0  0  0  0  0
   10.9052  -15.2624   20.3373 O   0  0  0  0  0  0  0  0  0  0  0  0
  2  1  1  6
  2 13  1  0
  3  4  1  0
  3  2  1  0
  4  5  2  0
  5  6  1  0
  7  6  1  0
  8  7  2  0
  9  8  1  0
 10 11  1  0
 10  9  2  0
 11 12  2  0
 12  4  1  0
 12  7  1  0
 13 20  1  0
 13 14  2  0
 16 17  1  0
 16 15  1  0
 17 18  1  6
 19 17  1  0
 19 21  1  0
 19 20  1  1
 21 22  2  0
 23 27  1  0
 23 21  1  0
 24 23  1  0
 25 24  1  0
 25 26  1  0
 26 27  1  0
 27 28  1  6
 28 29  2  0
 28 30  1  0
M  END
$$$$
