WIP.pdb
     RDKit          3D

 30 32  0  0  1  0  0  0  0  0999 V2000
   10.2219  -15.2559   21.1763 N   0  0  0  0  0  0  0  0  0  0  0  0
    9.0873  -14.9335   21.9828 C   0  0  1  0  0  0  0  0  0  0  0  0
    7.9916  -15.9682   21.8637 C   0  0  0  0  0  0  0  0  0  0  0  0
    7.4086  -15.8921   20.5014 C   0  0  0  0  0  0  0  0  0  0  0  0
    6.6759  -16.8578   19.8460 C   0  0  0  0  0  0  0  0  0  0  0  0
    6.3218  -16.4135   18.6198 N   0  0  0  0  0  0  0  0  0  0  0  0
    6.8143  -15.1705   18.4675 C   0  0  0  0  0  0  0  0  0  0  0  0
    6.7289  -14.2943   17.4043 C   0  0  0  0  0  0  0  0  0  0  0  0
    7.3174  -13.0505   17.4634 C   0  0  0  0  0  0  0  0  0  0  0  0
    7.9887  -12.7269   18.6241 C   0  0  0  0  0  0  0  0  0  0  0  0
    8.0897  -13.5825   19.7014 C   0  0  0  0  0  0  0  0  0  0  0  0
    7.4984  -14.8160   19.6258 C   0  0  0  0  0  0  0  0  0  0  0  0
    9.4872  -14.7417   23.4138 C   0  0  0  0  0  0  0  0  0  0  0  0
   10.6453  -15.1017   23.7491 O   0  0  0  0  0  0  0  0  0  0  0  0
    5.5287  -13.1337   27.0428 C   0  0  0  0  0  0  0  0  0  0  0  0
    6.5726  -13.8277   26.2192 C   0  0  0  0  0  0  0  0  0  0  0  0
    7.8573  -13.0235   26.2587 C   0  0  2  0  0  0  0  0  0  0  0  0
    7.5761  -11.7410   25.5552 C   0  0  0  0  0  0  0  0  0  0  0  0
    8.9539  -13.8716   25.7416 C   0  0  2  0  0  0  0  0  0  0  0  0
    8.5807  -14.1739   24.3412 N   0  0  0  0  0  0  0  0  0  0  0  0
    9.2940  -15.0849   26.4697 C   0  0  0  0  0  0  0  0  0  0  0  0
    9.0070  -16.1796   25.8317 O   0  0  0  0  0  0  0  0  0  0  0  0
    9.8690  -15.2774   27.7140 N   0  0  0  0  0  0  0  0  0  0  0  0
   10.0553  -14.3310   28.7784 C   0  0  0  0  0  0  0  0  0  0  0  0
   11.3659  -14.6741   29.4697 C   0  0  0  0  0  0  0  0  0  0  0  0
   11.4684  -16.1498   29.2511 C   0  0  0  0  0  0  0  0  0  0  0  0
   10.4670  -16.5118   28.2048 C   0  0  1  0  0  0  0  0  0  0  0  0
    9.4152  -17.4070   28.7920 C   0  0  0  0  0  0  0  0  0  0  0  0
    9.6695  -18.5437   29.2211 O   0  0  0  0  0  0  0  0  0  0  0  0
    8.1310  -16.9341   28.8479 O   0  0  0  0  0  0  0  0  0  0  0  0
  2  1  1  6
  2 13  1  0
  3  4  1  0
  3  2  1  0
  4  5  2  0
  5  6  1  0
  7  6  1  0
  8  7  2  0
  9  8  1  0
 10 11  1  0
 10  9  2  0
 11 12  2  0
 12  4  1  0
 12  7  1  0
 13 20  1  0
 13 14  2  0
 16 17  1  0
 16 15  1  0
 17 18  1  6
 19 17  1  0
 19 21  1  0
 19 20  1  6
 21 22  2  0
 23 27  1  0
 23 21  1  0
 24 23  1  0
 25 24  1  0
 25 26  1  0
 26 27  1  0
 27 28  1  1
 28 29  2  0
 28 30  1  0
M  END
$$$$
