WIP.pdb
     RDKit          3D

 30 32  0  0  1  0  0  0  0  0999 V2000
    6.8071  -19.3347   26.6840 N   0  0  0  0  0  0  0  0  0  0  0  0
    7.5985  -18.1468   26.7504 C   0  0  1  0  0  0  0  0  0  0  0  0
    9.0774  -18.4513   26.8234 C   0  0  0  0  0  0  0  0  0  0  0  0
    9.6135  -17.9140   28.0983 C   0  0  0  0  0  0  0  0  0  0  0  0
    9.9653  -18.6225   29.2266 C   0  0  0  0  0  0  0  0  0  0  0  0
   10.4116  -17.7760   30.1809 N   0  0  0  0  0  0  0  0  0  0  0  0
   10.3552  -16.5248   29.6890 C   0  0  0  0  0  0  0  0  0  0  0  0
   10.6960  -15.3171   30.2642 C   0  0  0  0  0  0  0  0  0  0  0  0
   10.5554  -14.1371   29.5679 C   0  0  0  0  0  0  0  0  0  0  0  0
   10.0629  -14.2204   28.2822 C   0  0  0  0  0  0  0  0  0  0  0  0
    9.7146  -15.4129   27.6829 C   0  0  0  0  0  0  0  0  0  0  0  0
    9.8608  -16.5773   28.3898 C   0  0  0  0  0  0  0  0  0  0  0  0
    7.2965  -17.2395   25.5972 C   0  0  0  0  0  0  0  0  0  0  0  0
    6.9488  -17.7719   24.5114 O   0  0  0  0  0  0  0  0  0  0  0  0
    6.6277  -12.0149   26.8419 C   0  0  0  0  0  0  0  0  0  0  0  0
    6.4043  -13.3081   26.1156 C   0  0  0  0  0  0  0  0  0  0  0  0
    7.5660  -13.5606   25.1747 C   0  0  2  0  0  0  0  0  0  0  0  0
    7.6196  -12.3974   24.2459 C   0  0  0  0  0  0  0  0  0  0  0  0
    7.4052  -14.9093   24.5877 C   0  0  2  0  0  0  0  0  0  0  0  0
    7.4040  -15.8354   25.7428 N   0  0  0  0  0  0  0  0  0  0  0  0
    8.3514  -15.3392   23.5691 C   0  0  0  0  0  0  0  0  0  0  0  0
    9.4482  -15.8437   24.0487 O   0  0  0  0  0  0  0  0  0  0  0  0
    8.2880  -15.3084   22.1867 N   0  0  0  0  0  0  0  0  0  0  0  0
    7.3216  -14.6639   21.3415 C   0  0  0  0  0  0  0  0  0  0  0  0
    7.1293  -15.5433   20.1155 C   0  0  0  0  0  0  0  0  0  0  0  0
    8.4599  -16.2135   19.9882 C   0  0  0  0  0  0  0  0  0  0  0  0
    9.1942  -15.9840   21.2676 C   0  0  1  0  0  0  0  0  0  0  0  0
   10.4100  -15.1410   21.0150 C   0  0  0  0  0  0  0  0  0  0  0  0
   11.3895  -15.5565   20.3757 O   0  0  0  0  0  0  0  0  0  0  0  0
   10.4205  -13.8668   21.5172 O   0  0  0  0  0  0  0  0  0  0  0  0
  2  1  1  6
  2 13  1  0
  3  4  1  0
  3  2  1  0
  4  5  2  0
  5  6  1  0
  7  6  1  0
  8  7  2  0
  9  8  1  0
 10 11  1  0
 10  9  2  0
 11 12  2  0
 12  4  1  0
 12  7  1  0
 13 20  1  0
 13 14  2  0
 16 17  1  0
 16 15  1  0
 17 18  1  6
 19 17  1  0
 19 21  1  0
 19 20  1  1
 21 22  2  0
 23 27  1  0
 23 21  1  0
 24 23  1  0
 25 24  1  0
 25 26  1  0
 26 27  1  0
 27 28  1  6
 28 29  2  0
 28 30  1  0
M  END
$$$$
