WIP.pdb
     RDKit          3D

 30 32  0  0  1  0  0  0  0  0999 V2000
   68.6768  -96.9465 -115.5990 N   0  0  0  0  0  0  0  0  0  0  0  0
   69.9887  -97.4048 -115.9315 C   0  0  1  0  0  0  0  0  0  0  0  0
   70.0132  -98.8839 -116.2429 C   0  0  0  0  0  0  0  0  0  0  0  0
   70.9667  -99.1226 -117.3543 C   0  0  0  0  0  0  0  0  0  0  0  0
   72.1880  -98.5174 -117.5580 C   0  0  0  0  0  0  0  0  0  0  0  0
   72.7594  -99.0017 -118.6829 N   0  0  0  0  0  0  0  0  0  0  0  0
   71.9262  -99.9147 -119.2151 C   0  0  0  0  0  0  0  0  0  0  0  0
   72.0481 -100.6870 -120.3527 C   0  0  0  0  0  0  0  0  0  0  0  0
   71.0576 -101.5721 -120.7165 C   0  0  0  0  0  0  0  0  0  0  0  0
   69.9502 -101.6481 -119.8974 C   0  0  0  0  0  0  0  0  0  0  0  0
   69.8023 -100.8887 -118.7555 C   0  0  0  0  0  0  0  0  0  0  0  0
   70.7973 -100.0132 -118.4083 C   0  0  0  0  0  0  0  0  0  0  0  0
   70.5594  -96.6109 -117.0665 C   0  0  0  0  0  0  0  0  0  0  0  0
   71.8124  -96.5404 -117.1572 O   0  0  0  0  0  0  0  0  0  0  0  0
   65.7057  -94.0814 -116.5635 C   0  0  0  0  0  0  0  0  0  0  0  0
   66.4276  -94.8187 -117.6522 C   0  0  0  0  0  0  0  0  0  0  0  0
   67.5845  -95.5921 -117.0504 C   0  0  2  0  0  0  0  0  0  0  0  0
   68.3786  -94.6153 -116.2541 C   0  0  0  0  0  0  0  0  0  0  0  0
   68.2728  -96.3218 -118.1380 C   0  0  2  0  0  0  0  0  0  0  0  0
   69.7036  -95.9697 -117.9942 N   0  0  0  0  0  0  0  0  0  0  0  0
   67.8158  -96.1209 -119.5050 C   0  0  0  0  0  0  0  0  0  0  0  0
   66.6665  -95.5216 -119.5931 O   0  0  0  0  0  0  0  0  0  0  0  0
   68.3879  -96.4510 -120.7214 N   0  0  0  0  0  0  0  0  0  0  0  0
   69.4626  -97.3640 -120.9954 C   0  0  0  0  0  0  0  0  0  0  0  0
   70.2628  -96.7918 -122.1553 C   0  0  0  0  0  0  0  0  0  0  0  0
   69.2287  -96.0191 -122.9097 C   0  0  0  0  0  0  0  0  0  0  0  0
   68.0379  -95.8884 -122.0190 C   0  0  1  0  0  0  0  0  0  0  0  0
   66.8722  -96.6241 -122.6125 C   0  0  0  0  0  0  0  0  0  0  0  0
   66.3363  -96.2778 -123.6773 O   0  0  0  0  0  0  0  0  0  0  0  0
   66.3955  -97.7172 -121.9389 O   0  0  0  0  0  0  0  0  0  0  0  0
  2  1  1  6
  2 13  1  0
  3  4  1  0
  3  2  1  0
  4  5  2  0
  5  6  1  0
  7  6  1  0
  8  7  2  0
  9  8  1  0
 10 11  1  0
 10  9  2  0
 11 12  2  0
 12  4  1  0
 12  7  1  0
 13 20  1  0
 13 14  2  0
 16 17  1  0
 16 15  1  0
 17 18  1  6
 19 17  1  0
 19 21  1  0
 19 20  1  6
 21 22  2  0
 23 27  1  0
 23 21  1  0
 24 23  1  0
 25 24  1  0
 25 26  1  0
 26 27  1  0
 27 28  1  6
 28 29  2  0
 28 30  1  0
M  END
$$$$
