WIP.pdb
     RDKit          3D

 30 32  0  0  1  0  0  0  0  0999 V2000
    6.7754  -16.8513   25.8892 N   0  0  0  0  0  0  0  0  0  0  0  0
    7.3333  -15.8483   25.0380 C   0  0  1  0  0  0  0  0  0  0  0  0
    8.6523  -15.3270   25.5611 C   0  0  0  0  0  0  0  0  0  0  0  0
    8.3873  -14.4136   26.7000 C   0  0  0  0  0  0  0  0  0  0  0  0
    8.9064  -14.4873   27.9744 C   0  0  0  0  0  0  0  0  0  0  0  0
    8.4245  -13.4734   28.7267 N   0  0  0  0  0  0  0  0  0  0  0  0
    7.5979  -12.7397   27.9591 C   0  0  0  0  0  0  0  0  0  0  0  0
    6.8632  -11.6093   28.2557 C   0  0  0  0  0  0  0  0  0  0  0  0
    6.0697  -11.0109   27.3022 C   0  0  0  0  0  0  0  0  0  0  0  0
    6.0455  -11.5899   26.0504 C   0  0  0  0  0  0  0  0  0  0  0  0
    6.7692  -12.7187   25.7267 C   0  0  0  0  0  0  0  0  0  0  0  0
    7.5533  -13.3013   26.6872 C   0  0  0  0  0  0  0  0  0  0  0  0
    7.4786  -16.3583   23.6369 C   0  0  0  0  0  0  0  0  0  0  0  0
    7.2982  -17.5882   23.4421 O   0  0  0  0  0  0  0  0  0  0  0  0
    8.7526  -12.5680   19.7085 C   0  0  0  0  0  0  0  0  0  0  0  0
    8.8333  -13.6922   20.6981 C   0  0  0  0  0  0  0  0  0  0  0  0
    7.7962  -14.7416   20.3489 C   0  0  2  0  0  0  0  0  0  0  0  0
    6.4683  -14.0735   20.4452 C   0  0  0  0  0  0  0  0  0  0  0  0
    8.0357  -15.9324   21.1938 C   0  0  2  0  0  0  0  0  0  0  0  0
    7.8076  -15.4727   22.5826 N   0  0  0  0  0  0  0  0  0  0  0  0
    9.3098  -16.6247   21.0707 C   0  0  0  0  0  0  0  0  0  0  0  0
   10.1771  -16.2967   21.9806 O   0  0  0  0  0  0  0  0  0  0  0  0
    9.7572  -17.5681   20.1620 N   0  0  0  0  0  0  0  0  0  0  0  0
    9.0384  -18.2034   19.0927 C   0  0  0  0  0  0  0  0  0  0  0  0
    9.5561  -19.6290   18.9790 C   0  0  0  0  0  0  0  0  0  0  0  0
   10.9659  -19.4989   19.4599 C   0  0  0  0  0  0  0  0  0  0  0  0
   11.0842  -18.1684   20.1265 C   0  0  1  0  0  0  0  0  0  0  0  0
   12.0345  -17.2955   19.3601 C   0  0  0  0  0  0  0  0  0  0  0  0
   11.6521  -16.3376   18.6695 O   0  0  0  0  0  0  0  0  0  0  0  0
   13.3715  -17.5825   19.4382 O   0  0  0  0  0  0  0  0  0  0  0  0
  2  1  1  1
  2 13  1  0
  3  4  1  0
  3  2  1  0
  4  5  2  0
  5  6  1  0
  7  6  1  0
  8  7  2  0
  9  8  1  0
 10 11  1  0
 10  9  2  0
 11 12  2  0
 12  4  1  0
 12  7  1  0
 13 20  1  0
 13 14  2  0
 16 17  1  0
 16 15  1  0
 17 18  1  1
 19 17  1  0
 19 21  1  0
 19 20  1  1
 21 22  2  0
 23 27  1  0
 23 21  1  0
 24 23  1  0
 25 24  1  0
 25 26  1  0
 26 27  1  0
 27 28  1  6
 28 29  2  0
 28 30  1  0
M  END
$$$$
