WIP.pdb
     RDKit          3D

 30 32  0  0  1  0  0  0  0  0999 V2000
   10.7157  -15.6070   21.5983 N   0  0  0  0  0  0  0  0  0  0  0  0
    9.4412  -15.3427   22.1879 C   0  0  1  0  0  0  0  0  0  0  0  0
    8.4399  -16.4365   21.8938 C   0  0  0  0  0  0  0  0  0  0  0  0
    7.5580  -15.9917   20.7867 C   0  0  0  0  0  0  0  0  0  0  0  0
    6.4977  -16.6744   20.2311 C   0  0  0  0  0  0  0  0  0  0  0  0
    5.9433  -15.9380   19.2429 N   0  0  0  0  0  0  0  0  0  0  0  0
    6.6286  -14.7839   19.1471 C   0  0  0  0  0  0  0  0  0  0  0  0
    6.4595  -13.7062   18.3013 C   0  0  0  0  0  0  0  0  0  0  0  0
    7.2896  -12.6098   18.3777 C   0  0  0  0  0  0  0  0  0  0  0  0
    8.2869  -12.6412   19.3301 C   0  0  0  0  0  0  0  0  0  0  0  0
    8.4786  -13.7043   20.1877 C   0  0  0  0  0  0  0  0  0  0  0  0
    7.6438  -14.7869   20.0981 C   0  0  0  0  0  0  0  0  0  0  0  0
    9.5718  -15.1213   23.6638 C   0  0  0  0  0  0  0  0  0  0  0  0
   10.6769  -15.3960   24.1994 O   0  0  0  0  0  0  0  0  0  0  0  0
    5.5752  -12.0655   25.8933 C   0  0  0  0  0  0  0  0  0  0  0  0
    6.9448  -12.5539   25.5251 C   0  0  0  0  0  0  0  0  0  0  0  0
    7.2209  -13.8591   26.2455 C   0  0  2  0  0  0  0  0  0  0  0  0
    6.9537  -13.6107   27.6897 C   0  0  0  0  0  0  0  0  0  0  0  0
    8.5710  -14.3267   25.8610 C   0  0  2  0  0  0  0  0  0  0  0  0
    8.4800  -14.6203   24.4127 N   0  0  0  0  0  0  0  0  0  0  0  0
    9.1508  -15.4450   26.5896 C   0  0  0  0  0  0  0  0  0  0  0  0
    8.8539  -16.6079   26.0924 O   0  0  0  0  0  0  0  0  0  0  0  0
    9.9611  -15.4880   27.7110 N   0  0  0  0  0  0  0  0  0  0  0  0
   10.3657  -14.4133   28.5740 C   0  0  0  0  0  0  0  0  0  0  0  0
   11.7846  -14.7085   29.0355 C   0  0  0  0  0  0  0  0  0  0  0  0
   11.8268  -16.2029   29.0110 C   0  0  0  0  0  0  0  0  0  0  0  0
   10.6330  -16.6659   28.2436 C   0  0  1  0  0  0  0  0  0  0  0  0
    9.7110  -17.4326   29.1461 C   0  0  0  0  0  0  0  0  0  0  0  0
    8.5642  -17.0422   29.4165 O   0  0  0  0  0  0  0  0  0  0  0  0
   10.1705  -18.6061   29.6826 O   0  0  0  0  0  0  0  0  0  0  0  0
  2  1  1  1
  2 13  1  0
  3  4  1  0
  3  2  1  0
  4  5  2  0
  5  6  1  0
  7  6  1  0
  8  7  2  0
  9  8  1  0
 10 11  1  0
 10  9  2  0
 11 12  2  0
 12  4  1  0
 12  7  1  0
 13 20  1  0
 13 14  2  0
 16 17  1  0
 16 15  1  0
 17 18  1  1
 19 17  1  0
 19 21  1  0
 19 20  1  6
 21 22  2  0
 23 27  1  0
 23 21  1  0
 24 23  1  0
 25 24  1  0
 25 26  1  0
 26 27  1  0
 27 28  1  1
 28 29  2  0
 28 30  1  0
M  END
$$$$
