IHW.pdb
     RDKit          3D

 33 35  0  0  1  0  0  0  0  0999 V2000
   21.7948  -23.2567  -19.7300 C   0  0  0  0  0  0  0  0  0  0  0  0
   23.0030  -22.3959  -19.9278 C   0  0  0  0  0  0  0  0  0  0  0  0
   23.9837  -22.4964  -18.7859 C   0  0  2  0  0  0  0  0  0  0  0  0
   23.3144  -22.0763  -17.4946 C   0  0  0  0  0  0  0  0  0  0  0  0
   25.1860  -21.6011  -18.9682 C   0  0  2  0  0  0  0  0  0  0  0  0
   26.0057  -22.0881  -20.0587 N   0  0  0  0  0  0  0  0  0  0  0  0
   25.9890  -21.6918  -17.7227 C   0  0  0  0  0  0  0  0  0  0  0  0
   26.7762  -22.6464  -17.4884 O   0  0  0  0  0  0  0  0  0  0  0  0
   25.8970  -20.6976  -16.7432 N   0  0  0  0  0  0  0  0  0  0  0  0
   26.6777  -20.6115  -15.5284 C   0  0  1  0  0  0  0  0  0  0  0  0
   27.4314  -19.3520  -15.3496 C   0  0  0  0  0  0  0  0  0  0  0  0
   28.4983  -19.1148  -16.3536 C   0  0  0  0  0  0  0  0  0  0  0  0
   28.9808  -19.8699  -17.3803 C   0  0  0  0  0  0  0  0  0  0  0  0
   29.9811  -19.2002  -18.0029 N   0  0  0  0  0  0  0  0  0  0  0  0
   30.1045  -18.0372  -17.3511 C   0  0  0  0  0  0  0  0  0  0  0  0
   29.2249  -17.9589  -16.3540 N   0  0  0  0  0  0  0  0  0  0  0  0
   25.8128  -20.8365  -14.3271 C   0  0  0  0  0  0  0  0  0  0  0  0
   24.5973  -20.5481  -14.2733 O   0  0  0  0  0  0  0  0  0  0  0  0
   26.4217  -21.4124  -13.1918 N   0  0  0  0  0  0  0  0  0  0  0  0
   25.6280  -21.5299  -11.9410 C   0  0  1  0  0  0  0  0  0  0  0  0
   26.5617  -21.9955  -10.8710 C   0  0  0  0  0  0  0  0  0  0  0  0
   26.5478  -21.2817   -9.6013 C   0  0  0  0  0  0  0  0  0  0  0  0
   25.4337  -20.7119   -8.9687 C   0  0  0  0  0  0  0  0  0  0  0  0
   25.8258  -20.1119   -7.8407 N   0  0  0  0  0  0  0  0  0  0  0  0
   27.1550  -20.2753   -7.7224 C   0  0  0  0  0  0  0  0  0  0  0  0
   28.0591  -19.8641   -6.7279 C   0  0  0  0  0  0  0  0  0  0  0  0
   29.3985  -20.1728   -6.8171 C   0  0  0  0  0  0  0  0  0  0  0  0
   29.8520  -20.8971   -7.9020 C   0  0  0  0  0  0  0  0  0  0  0  0
   28.9813  -21.3055   -8.8822 C   0  0  0  0  0  0  0  0  0  0  0  0
   27.6184  -20.9935   -8.7968 C   0  0  0  0  0  0  0  0  0  0  0  0
   24.9801  -20.2453  -11.6750 C   0  0  0  0  0  0  0  0  0  0  0  0
   23.6748  -20.1644  -11.1397 O   0  0  0  0  0  0  0  0  0  0  0  0
   25.5206  -19.1297  -11.8964 O   0  0  0  0  0  0  0  0  0  0  0  0
  1  2  1  0
  2  3  1  0
  3  4  1  1
  5  6  1  6
  5  3  1  0
  7  5  1  0
  8  7  2  0
  9  7  1  0
 10  9  1  0
 11 12  1  0
 10 11  1  1
 12 16  1  0
 13 12  2  0
 13 14  1  0
 14 15  1  0
 16 15  2  0
 17 19  1  0
 17 10  1  0
 18 17  2  0
 20 21  1  1
 20 31  1  0
 20 19  1  0
 22 21  1  0
 22 30  1  0
 23 22  2  0
 24 23  1  0
 24 25  1  0
 25 26  1  0
 25 30  2  0
 26 27  2  0
 27 28  1  0
 29 28  2  0
 30 29  1  0
 31 32  1  0
 33 31  2  0
M  END
$$$$
