IHW.pdb
     RDKit          3D

 33 35  0  0  1  0  0  0  0  0999 V2000
   19.9582  -24.6180    4.9089 C   0  0  0  0  0  0  0  0  0  0  0  0
   18.5344  -24.1597    4.8555 C   0  0  0  0  0  0  0  0  0  0  0  0
   18.4065  -22.6569    4.8249 C   0  0  2  0  0  0  0  0  0  0  0  0
   18.9025  -22.0718    6.1301 C   0  0  0  0  0  0  0  0  0  0  0  0
   16.9790  -22.1958    4.6518 C   0  0  2  0  0  0  0  0  0  0  0  0
   16.4523  -22.6765    3.3910 N   0  0  0  0  0  0  0  0  0  0  0  0
   17.0046  -20.7123    4.5956 C   0  0  0  0  0  0  0  0  0  0  0  0
   17.5008  -20.0764    3.6286 O   0  0  0  0  0  0  0  0  0  0  0  0
   16.4666  -19.9517    5.6388 N   0  0  0  0  0  0  0  0  0  0  0  0
   16.2827  -18.5169    5.6516 C   0  0  1  0  0  0  0  0  0  0  0  0
   14.8787  -18.0606    5.7357 C   0  0  0  0  0  0  0  0  0  0  0  0
   14.0673  -18.3093    4.5182 C   0  0  0  0  0  0  0  0  0  0  0  0
   14.0636  -17.7371    3.2814 C   0  0  0  0  0  0  0  0  0  0  0  0
   13.1091  -18.3202    2.5162 N   0  0  0  0  0  0  0  0  0  0  0  0
   12.5335  -19.2474    3.2920 C   0  0  0  0  0  0  0  0  0  0  0  0
   13.0902  -19.2627    4.5019 N   0  0  0  0  0  0  0  0  0  0  0  0
   17.0652  -17.8935    6.7655 C   0  0  0  0  0  0  0  0  0  0  0  0
   17.4068  -18.4962    7.8064 O   0  0  0  0  0  0  0  0  0  0  0  0
   17.4346  -16.5397    6.6162 N   0  0  0  0  0  0  0  0  0  0  0  0
   18.2414  -15.8998    7.6876 C   0  0  1  0  0  0  0  0  0  0  0  0
   19.4839  -15.3728    7.0457 C   0  0  0  0  0  0  0  0  0  0  0  0
   19.3490  -14.2492    6.1287 C   0  0  0  0  0  0  0  0  0  0  0  0
   19.4815  -12.8884    6.4401 C   0  0  0  0  0  0  0  0  0  0  0  0
   19.2508  -12.1604    5.3435 N   0  0  0  0  0  0  0  0  0  0  0  0
   18.9746  -13.0042    4.3339 C   0  0  0  0  0  0  0  0  0  0  0  0
   18.6788  -12.7711    2.9797 C   0  0  0  0  0  0  0  0  0  0  0  0
   18.4466  -13.8180    2.1152 C   0  0  0  0  0  0  0  0  0  0  0  0
   18.5072  -15.1122    2.5932 C   0  0  0  0  0  0  0  0  0  0  0  0
   18.7942  -15.3563    3.9137 C   0  0  0  0  0  0  0  0  0  0  0  0
   19.0303  -14.2953    4.7972 C   0  0  0  0  0  0  0  0  0  0  0  0
   17.4185  -14.8903    8.3543 C   0  0  0  0  0  0  0  0  0  0  0  0
   17.7881  -14.3278    9.5968 O   0  0  0  0  0  0  0  0  0  0  0  0
   16.3362  -14.4490    7.8858 O   0  0  0  0  0  0  0  0  0  0  0  0
  1  2  1  0
  2  3  1  0
  3  4  1  1
  5  6  1  6
  5  3  1  0
  7  5  1  0
  8  7  2  0
  9  7  1  0
 10  9  1  0
 11 12  1  0
 10 11  1  1
 12 16  1  0
 13 12  2  0
 13 14  1  0
 14 15  1  0
 16 15  2  0
 17 19  1  0
 17 10  1  0
 18 17  2  0
 20 21  1  6
 20 31  1  0
 20 19  1  0
 22 21  1  0
 22 30  1  0
 23 22  2  0
 24 23  1  0
 24 25  1  0
 25 26  1  0
 25 30  2  0
 26 27  2  0
 27 28  1  0
 29 28  2  0
 30 29  1  0
 31 32  1  0
 33 31  2  0
M  END
$$$$
