IHW.pdb
     RDKit          3D

 33 35  0  0  1  0  0  0  0  0999 V2000
   23.7844  -16.5690  -21.2091 C   0  0  0  0  0  0  0  0  0  0  0  0
   24.8653  -17.1460  -20.3494 C   0  0  0  0  0  0  0  0  0  0  0  0
   24.3399  -18.1324  -19.3361 C   0  0  2  0  0  0  0  0  0  0  0  0
   23.4474  -17.4215  -18.3412 C   0  0  0  0  0  0  0  0  0  0  0  0
   25.4400  -18.7959  -18.5425 C   0  0  2  0  0  0  0  0  0  0  0  0
   26.3736  -19.4472  -19.4383 N   0  0  0  0  0  0  0  0  0  0  0  0
   24.8027  -19.8474  -17.7102 C   0  0  0  0  0  0  0  0  0  0  0  0
   24.3107  -20.8979  -18.2000 O   0  0  0  0  0  0  0  0  0  0  0  0
   24.7244  -19.7045  -16.3210 N   0  0  0  0  0  0  0  0  0  0  0  0
   24.1588  -20.6550  -15.3886 C   0  0  1  0  0  0  0  0  0  0  0  0
   25.1271  -21.2928  -14.4711 C   0  0  0  0  0  0  0  0  0  0  0  0
   26.2558  -21.9875  -15.1388 C   0  0  0  0  0  0  0  0  0  0  0  0
   26.4929  -23.2997  -15.4195 C   0  0  0  0  0  0  0  0  0  0  0  0
   27.6919  -23.4202  -16.0393 N   0  0  0  0  0  0  0  0  0  0  0  0
   28.1820  -22.1777  -16.1337 C   0  0  0  0  0  0  0  0  0  0  0  0
   27.3388  -21.2957  -15.5999 N   0  0  0  0  0  0  0  0  0  0  0  0
   23.0688  -20.0199  -14.5822 C   0  0  0  0  0  0  0  0  0  0  0  0
   23.2021  -18.9589  -13.9343 O   0  0  0  0  0  0  0  0  0  0  0  0
   21.8169  -20.6709  -14.5629 N   0  0  0  0  0  0  0  0  0  0  0  0
   20.7185  -20.0774  -13.7570 C   0  0  1  0  0  0  0  0  0  0  0  0
   20.2558  -18.8538  -14.4798 C   0  0  0  0  0  0  0  0  0  0  0  0
   19.5120  -19.0388  -15.7184 C   0  0  0  0  0  0  0  0  0  0  0  0
   18.3119  -19.7454  -15.8817 C   0  0  0  0  0  0  0  0  0  0  0  0
   17.9584  -19.7229  -17.1703 N   0  0  0  0  0  0  0  0  0  0  0  0
   18.8886  -19.0252  -17.8452 C   0  0  0  0  0  0  0  0  0  0  0  0
   18.9943  -18.6871  -19.2054 C   0  0  0  0  0  0  0  0  0  0  0  0
   20.0493  -17.9315  -19.6673 C   0  0  0  0  0  0  0  0  0  0  0  0
   21.0128  -17.5036  -18.7752 C   0  0  0  0  0  0  0  0  0  0  0  0
   20.9240  -17.8263  -17.4435 C   0  0  0  0  0  0  0  0  0  0  0  0
   19.8537  -18.5951  -16.9686 C   0  0  0  0  0  0  0  0  0  0  0  0
   19.6877  -21.0947  -13.5487 C   0  0  0  0  0  0  0  0  0  0  0  0
   18.6172  -20.8989  -12.6473 O   0  0  0  0  0  0  0  0  0  0  0  0
   19.6700  -22.2048  -14.1427 O   0  0  0  0  0  0  0  0  0  0  0  0
  1  2  1  0
  2  3  1  0
  3  4  1  1
  5  6  1  6
  5  3  1  0
  7  5  1  0
  8  7  2  0
  9  7  1  0
 10  9  1  0
 11 12  1  0
 10 11  1  1
 12 16  1  0
 13 12  2  0
 13 14  1  0
 14 15  1  0
 16 15  2  0
 17 19  1  0
 17 10  1  0
 18 17  2  0
 20 21  1  6
 20 31  1  0
 20 19  1  0
 22 21  1  0
 22 30  1  0
 23 22  2  0
 24 23  1  0
 24 25  1  0
 25 26  1  0
 25 30  2  0
 26 27  2  0
 27 28  1  0
 29 28  2  0
 30 29  1  0
 31 32  1  0
 33 31  2  0
M  END
$$$$
