IHW.pdb
     RDKit          3D

 33 35  0  0  1  0  0  0  0  0999 V2000
   32.5553  -25.8569  -16.6412 C   0  0  0  0  0  0  0  0  0  0  0  0
   31.4203  -26.2530  -17.5326 C   0  0  0  0  0  0  0  0  0  0  0  0
   30.4090  -25.1484  -17.7144 C   0  0  2  0  0  0  0  0  0  0  0  0
   29.8014  -24.7821  -16.3771 C   0  0  0  0  0  0  0  0  0  0  0  0
   29.2682  -25.5446  -18.6209 C   0  0  2  0  0  0  0  0  0  0  0  0
   29.7332  -25.6418  -19.9893 N   0  0  0  0  0  0  0  0  0  0  0  0
   28.2646  -24.4521  -18.5604 C   0  0  0  0  0  0  0  0  0  0  0  0
   28.4106  -23.3593  -19.1688 O   0  0  0  0  0  0  0  0  0  0  0  0
   27.0951  -24.6016  -17.8079 N   0  0  0  0  0  0  0  0  0  0  0  0
   26.0370  -23.6263  -17.6589 C   0  0  1  0  0  0  0  0  0  0  0  0
   24.8417  -23.8577  -18.4979 C   0  0  0  0  0  0  0  0  0  0  0  0
   25.0715  -23.7373  -19.9592 C   0  0  0  0  0  0  0  0  0  0  0  0
   25.1662  -24.6620  -20.9557 C   0  0  0  0  0  0  0  0  0  0  0  0
   25.3978  -24.0346  -22.1343 N   0  0  0  0  0  0  0  0  0  0  0  0
   25.4438  -22.7269  -21.8504 C   0  0  0  0  0  0  0  0  0  0  0  0
   25.2507  -22.5191  -20.5490 N   0  0  0  0  0  0  0  0  0  0  0  0
   25.6140  -23.5199  -16.2266 C   0  0  0  0  0  0  0  0  0  0  0  0
   25.4780  -24.4985  -15.4603 O   0  0  0  0  0  0  0  0  0  0  0  0
   25.3573  -22.2266  -15.7236 N   0  0  0  0  0  0  0  0  0  0  0  0
   24.9350  -22.0853  -14.3059 C   0  0  1  0  0  0  0  0  0  0  0  0
   25.8468  -21.0837  -13.6743 C   0  0  0  0  0  0  0  0  0  0  0  0
   25.8139  -19.7201  -14.1852 C   0  0  0  0  0  0  0  0  0  0  0  0
   24.7909  -18.7782  -14.0042 C   0  0  0  0  0  0  0  0  0  0  0  0
   25.1065  -17.6538  -14.6539 N   0  0  0  0  0  0  0  0  0  0  0  0
   26.2988  -17.8365  -15.2478 C   0  0  0  0  0  0  0  0  0  0  0  0
   27.0897  -16.9794  -16.0323 C   0  0  0  0  0  0  0  0  0  0  0  0
   28.3086  -17.3923  -16.5232 C   0  0  0  0  0  0  0  0  0  0  0  0
   28.7532  -18.6680  -16.2363 C   0  0  0  0  0  0  0  0  0  0  0  0
   27.9917  -19.5174  -15.4719 C   0  0  0  0  0  0  0  0  0  0  0  0
   26.7511  -19.1028  -14.9709 C   0  0  0  0  0  0  0  0  0  0  0  0
   23.5157  -21.7312  -14.2729 C   0  0  0  0  0  0  0  0  0  0  0  0
   22.7601  -21.7871  -13.0801 O   0  0  0  0  0  0  0  0  0  0  0  0
   22.8645  -21.3555  -15.2830 O   0  0  0  0  0  0  0  0  0  0  0  0
  1  2  1  0
  2  3  1  0
  3  4  1  1
  5  6  1  6
  5  3  1  0
  7  5  1  0
  8  7  2  0
  9  7  1  0
 10  9  1  0
 11 12  1  0
 10 11  1  6
 12 16  1  0
 13 12  2  0
 13 14  1  0
 14 15  1  0
 16 15  2  0
 17 19  1  0
 17 10  1  0
 18 17  2  0
 20 21  1  6
 20 31  1  0
 20 19  1  0
 22 21  1  0
 22 30  1  0
 23 22  2  0
 24 23  1  0
 24 25  1  0
 25 26  1  0
 25 30  2  0
 26 27  2  0
 27 28  1  0
 29 28  2  0
 30 29  1  0
 31 32  1  0
 33 31  2  0
M  END
$$$$
