IHW.pdb
     RDKit          3D

 33 35  0  0  1  0  0  0  0  0999 V2000
   31.1808  -21.2416  -19.7295 C   0  0  0  0  0  0  0  0  0  0  0  0
   29.8884  -20.6480  -20.1957 C   0  0  0  0  0  0  0  0  0  0  0  0
   29.1274  -19.9643  -19.0870 C   0  0  2  0  0  0  0  0  0  0  0  0
   29.8072  -18.6612  -18.7241 C   0  0  0  0  0  0  0  0  0  0  0  0
   29.0641  -20.7921  -17.8256 C   0  0  2  0  0  0  0  0  0  0  0  0
   28.4987  -22.0939  -18.1151 N   0  0  0  0  0  0  0  0  0  0  0  0
   28.1421  -20.0952  -16.8935 C   0  0  0  0  0  0  0  0  0  0  0  0
   28.3379  -18.9161  -16.4972 O   0  0  0  0  0  0  0  0  0  0  0  0
   26.9976  -20.7388  -16.4116 N   0  0  0  0  0  0  0  0  0  0  0  0
   26.0102  -20.1807  -15.5135 C   0  0  1  0  0  0  0  0  0  0  0  0
   24.7693  -19.7007  -16.1584 C   0  0  0  0  0  0  0  0  0  0  0  0
   24.9711  -18.6904  -17.2267 C   0  0  0  0  0  0  0  0  0  0  0  0
   24.9562  -18.7730  -18.5868 C   0  0  0  0  0  0  0  0  0  0  0  0
   25.2128  -17.5524  -19.1167 N   0  0  0  0  0  0  0  0  0  0  0  0
   25.3838  -16.7291  -18.0747 C   0  0  0  0  0  0  0  0  0  0  0  0
   25.2440  -17.3871  -16.9251 N   0  0  0  0  0  0  0  0  0  0  0  0
   25.6538  -21.1645  -14.4425 C   0  0  0  0  0  0  0  0  0  0  0  0
   25.5684  -22.3987  -14.6232 O   0  0  0  0  0  0  0  0  0  0  0  0
   25.4025  -20.6512  -13.1522 N   0  0  0  0  0  0  0  0  0  0  0  0
   24.9473  -21.5862  -12.0907 C   0  0  1  0  0  0  0  0  0  0  0  0
   26.1139  -21.8266  -11.1880 C   0  0  0  0  0  0  0  0  0  0  0  0
   26.1856  -21.0571   -9.9533 C   0  0  0  0  0  0  0  0  0  0  0  0
   25.1202  -20.4357   -9.2861 C   0  0  0  0  0  0  0  0  0  0  0  0
   25.5869  -19.7951   -8.2102 N   0  0  0  0  0  0  0  0  0  0  0  0
   26.9174  -19.9818   -8.1588 C   0  0  0  0  0  0  0  0  0  0  0  0
   27.8841  -19.5465   -7.2360 C   0  0  0  0  0  0  0  0  0  0  0  0
   29.2101  -19.8879   -7.3855 C   0  0  0  0  0  0  0  0  0  0  0  0
   29.5875  -20.6692   -8.4599 C   0  0  0  0  0  0  0  0  0  0  0  0
   28.6550  -21.1017   -9.3705 C   0  0  0  0  0  0  0  0  0  0  0  0
   27.3054  -20.7567   -9.2236 C   0  0  0  0  0  0  0  0  0  0  0  0
   23.7709  -21.0141  -11.4354 C   0  0  0  0  0  0  0  0  0  0  0  0
   22.8632  -21.8114  -10.7024 O   0  0  0  0  0  0  0  0  0  0  0  0
   23.4765  -19.7903  -11.4699 O   0  0  0  0  0  0  0  0  0  0  0  0
  1  2  1  0
  2  3  1  0
  3  4  1  1
  5  6  1  6
  5  3  1  0
  7  5  1  0
  8  7  2  0
  9  7  1  0
 10  9  1  0
 11 12  1  0
 10 11  1  6
 12 16  1  0
 13 12  2  0
 13 14  1  0
 14 15  1  0
 16 15  2  0
 17 19  1  0
 17 10  1  0
 18 17  2  0
 20 21  1  1
 20 31  1  0
 20 19  1  0
 22 21  1  0
 22 30  1  0
 23 22  2  0
 24 23  1  0
 24 25  1  0
 25 26  1  0
 25 30  2  0
 26 27  2  0
 27 28  1  0
 29 28  2  0
 30 29  1  0
 31 32  1  0
 33 31  2  0
M  END
$$$$
