IHW.pdb
     RDKit          3D

 33 35  0  0  1  0  0  0  0  0999 V2000
   21.2865  -25.1382    3.1181 C   0  0  0  0  0  0  0  0  0  0  0  0
   19.8728  -25.1998    3.6056 C   0  0  0  0  0  0  0  0  0  0  0  0
   19.3570  -23.8599    4.0686 C   0  0  2  0  0  0  0  0  0  0  0  0
   20.2120  -23.3451    5.2070 C   0  0  0  0  0  0  0  0  0  0  0  0
   17.9380  -23.9258    4.5808 C   0  0  2  0  0  0  0  0  0  0  0  0
   17.0560  -24.4056    3.5368 N   0  0  0  0  0  0  0  0  0  0  0  0
   17.5309  -22.5375    4.9147 C   0  0  0  0  0  0  0  0  0  0  0  0
   17.1935  -21.6979    4.0390 O   0  0  0  0  0  0  0  0  0  0  0  0
   17.5079  -22.1034    6.2441 N   0  0  0  0  0  0  0  0  0  0  0  0
   16.9815  -20.8465    6.7300 C   0  0  1  0  0  0  0  0  0  0  0  0
   16.0241  -20.9540    7.8517 C   0  0  0  0  0  0  0  0  0  0  0  0
   14.6903  -21.4915    7.4849 C   0  0  0  0  0  0  0  0  0  0  0  0
   14.0692  -21.6745    6.2858 C   0  0  0  0  0  0  0  0  0  0  0  0
   12.8342  -22.1934    6.4908 N   0  0  0  0  0  0  0  0  0  0  0  0
   12.7073  -22.3244    7.8172 C   0  0  0  0  0  0  0  0  0  0  0  0
   13.8091  -21.9097    8.4403 N   0  0  0  0  0  0  0  0  0  0  0  0
   18.0935  -19.9250    7.1250 C   0  0  0  0  0  0  0  0  0  0  0  0
   19.1881  -20.3063    7.5938 O   0  0  0  0  0  0  0  0  0  0  0  0
   17.8782  -18.5414    6.9500 N   0  0  0  0  0  0  0  0  0  0  0  0
   18.9709  -17.6002    7.3088 C   0  0  1  0  0  0  0  0  0  0  0  0
   18.9040  -16.4617    6.3430 C   0  0  0  0  0  0  0  0  0  0  0  0
   19.8279  -15.3525    6.5374 C   0  0  0  0  0  0  0  0  0  0  0  0
   20.9477  -15.3283    7.3811 C   0  0  0  0  0  0  0  0  0  0  0  0
   21.5229  -14.1238    7.3162 N   0  0  0  0  0  0  0  0  0  0  0  0
   20.8137  -13.3691    6.4589 C   0  0  0  0  0  0  0  0  0  0  0  0
   20.9893  -12.0463    6.0174 C   0  0  0  0  0  0  0  0  0  0  0  0
   20.1273  -11.4852    5.1013 C   0  0  0  0  0  0  0  0  0  0  0  0
   19.0779  -12.2393    4.6142 C   0  0  0  0  0  0  0  0  0  0  0  0
   18.8925  -13.5328    5.0363 C   0  0  0  0  0  0  0  0  0  0  0  0
   19.7657  -14.1080    5.9684 C   0  0  0  0  0  0  0  0  0  0  0  0
   18.8216  -17.2231    8.7146 C   0  0  0  0  0  0  0  0  0  0  0  0
   19.9251  -17.1764    9.5960 O   0  0  0  0  0  0  0  0  0  0  0  0
   17.7211  -16.9157    9.2436 O   0  0  0  0  0  0  0  0  0  0  0  0
  1  2  1  0
  2  3  1  0
  3  4  1  1
  5  6  1  6
  5  3  1  0
  7  5  1  0
  8  7  2  0
  9  7  1  0
 10  9  1  0
 11 12  1  0
 10 11  1  1
 12 16  1  0
 13 12  2  0
 13 14  1  0
 14 15  1  0
 16 15  2  0
 17 19  1  0
 17 10  1  0
 18 17  2  0
 20 21  1  6
 20 31  1  0
 20 19  1  0
 22 21  1  0
 22 30  1  0
 23 22  2  0
 24 23  1  0
 24 25  1  0
 25 26  1  0
 25 30  2  0
 26 27  2  0
 27 28  1  0
 29 28  2  0
 30 29  1  0
 31 32  1  0
 33 31  2  0
M  END
$$$$
