IHW.pdb
     RDKit          3D

 33 35  0  0  1  0  0  0  0  0999 V2000
   26.3783  -16.4675  -17.9115 C   0  0  0  0  0  0  0  0  0  0  0  0
   26.9511  -16.6220  -16.5375 C   0  0  0  0  0  0  0  0  0  0  0  0
   26.1997  -17.6292  -15.7027 C   0  0  2  0  0  0  0  0  0  0  0  0
   24.7443  -17.2263  -15.5970 C   0  0  0  0  0  0  0  0  0  0  0  0
   26.7303  -17.7308  -14.2926 C   0  0  2  0  0  0  0  0  0  0  0  0
   28.1681  -17.9049  -14.3154 N   0  0  0  0  0  0  0  0  0  0  0  0
   26.1360  -18.9511  -13.6908 C   0  0  0  0  0  0  0  0  0  0  0  0
   24.8938  -19.1533  -13.6483 O   0  0  0  0  0  0  0  0  0  0  0  0
   26.9537  -19.9415  -13.1369 N   0  0  0  0  0  0  0  0  0  0  0  0
   26.5136  -21.1379  -12.4531 C   0  0  1  0  0  0  0  0  0  0  0  0
   26.9476  -22.4117  -13.0658 C   0  0  0  0  0  0  0  0  0  0  0  0
   26.3496  -22.7022  -14.3926 C   0  0  0  0  0  0  0  0  0  0  0  0
   25.3285  -23.5152  -14.7844 C   0  0  0  0  0  0  0  0  0  0  0  0
   25.1774  -23.4356  -16.1287 N   0  0  0  0  0  0  0  0  0  0  0  0
   26.1096  -22.5726  -16.5518 C   0  0  0  0  0  0  0  0  0  0  0  0
   26.8293  -22.1157  -15.5284 N   0  0  0  0  0  0  0  0  0  0  0  0
   26.9432  -21.1155  -11.0190 C   0  0  0  0  0  0  0  0  0  0  0  0
   28.1224  -21.2800  -10.6368 O   0  0  0  0  0  0  0  0  0  0  0  0
   25.9431  -20.8924  -10.0488 N   0  0  0  0  0  0  0  0  0  0  0  0
   26.3357  -20.8630   -8.6158 C   0  0  1  0  0  0  0  0  0  0  0  0
   27.3700  -19.7947   -8.4661 C   0  0  0  0  0  0  0  0  0  0  0  0
   27.6727  -19.3280   -7.1199 C   0  0  0  0  0  0  0  0  0  0  0  0
   27.0577  -18.2676   -6.4389 C   0  0  0  0  0  0  0  0  0  0  0  0
   27.6321  -18.1202   -5.2414 N   0  0  0  0  0  0  0  0  0  0  0  0
   28.5967  -19.0495   -5.1248 C   0  0  0  0  0  0  0  0  0  0  0  0
   29.4838  -19.3447   -4.0752 C   0  0  0  0  0  0  0  0  0  0  0  0
   30.3884  -20.3779   -4.1820 C   0  0  0  0  0  0  0  0  0  0  0  0
   30.4182  -21.1300   -5.3399 C   0  0  0  0  0  0  0  0  0  0  0  0
   29.5586  -20.8535   -6.3745 C   0  0  0  0  0  0  0  0  0  0  0  0
   28.6373  -19.8035   -6.2714 C   0  0  0  0  0  0  0  0  0  0  0  0
   25.1331  -20.6721   -7.8045 C   0  0  0  0  0  0  0  0  0  0  0  0
   23.9310  -20.1758   -8.3571 O   0  0  0  0  0  0  0  0  0  0  0  0
   25.0716  -20.9287   -6.5732 O   0  0  0  0  0  0  0  0  0  0  0  0
  1  2  1  0
  2  3  1  0
  3  4  1  1
  5  6  1  6
  5  3  1  0
  7  5  1  0
  8  7  2  0
  9  7  1  0
 10  9  1  0
 11 12  1  0
 10 11  1  6
 12 16  1  0
 13 12  2  0
 13 14  1  0
 14 15  1  0
 16 15  2  0
 17 19  1  0
 17 10  1  0
 18 17  2  0
 20 21  1  6
 20 31  1  0
 20 19  1  0
 22 21  1  0
 22 30  1  0
 23 22  2  0
 24 23  1  0
 24 25  1  0
 25 26  1  0
 25 30  2  0
 26 27  2  0
 27 28  1  0
 29 28  2  0
 30 29  1  0
 31 32  1  0
 33 31  2  0
M  END
$$$$
