MSL.pdb
     RDKit          3D

 23 22  0  0  1  0  0  0  0  0999 V2000
   19.0813  -14.7544  -16.7459 C   0  0  0  0  0  0  0  0  0  0  0  0
   19.9266  -14.6068  -18.3355 S   0  0  0  0  0  0  0  0  0  0  0  0
   21.5020  -13.7151  -18.1719 C   0  0  0  0  0  0  0  0  0  0  0  0
   21.3486  -12.4944  -17.3004 C   0  0  0  0  0  0  0  0  0  0  0  0
   22.6743  -11.7862  -17.1198 C   0  0  2  0  0  0  0  0  0  0  0  0
   23.5886  -12.6210  -16.3681 N   0  0  0  0  0  0  0  0  0  0  0  0
   22.5369  -10.4975  -16.4270 C   0  0  0  0  0  0  0  0  0  0  0  0
   22.0487  -10.4458  -15.2870 O   0  0  0  0  0  0  0  0  0  0  0  0
   24.3627   -7.0954  -17.8505 O   0  0  0  0  0  0  0  0  0  0  0  0
   23.8734   -7.0108  -16.5731 C   0  0  0  0  0  0  0  0  0  0  0  0
   22.7074   -7.9655  -16.4271 C   0  0  2  0  0  0  0  0  0  0  0  0
   22.9441   -9.2484  -17.0007 N   0  0  0  0  0  0  0  0  0  0  0  0
   21.5154   -7.2756  -16.9617 C   0  0  0  0  0  0  0  0  0  0  0  0
   21.2336   -7.4501  -18.1719 O   0  0  0  0  0  0  0  0  0  0  0  0
   16.7046   -3.8975  -15.0126 C   0  0  0  0  0  0  0  0  0  0  0  0
   17.5209   -4.3227  -16.2489 C   0  0  2  0  0  0  0  0  0  0  0  0
   16.6064   -5.1918  -17.1018 C   0  0  0  0  0  0  0  0  0  0  0  0
   18.6725   -5.1267  -15.7063 C   0  0  0  0  0  0  0  0  0  0  0  0
   19.6020   -5.6187  -16.7610 C   0  0  2  0  0  0  0  0  0  0  0  0
   20.6735   -6.4359  -16.2055 N   0  0  0  0  0  0  0  0  0  0  0  0
   20.1668   -4.5728  -17.6249 C   0  0  0  0  0  0  0  0  0  0  0  0
   21.1311   -3.8645  -17.1653 O   0  0  0  0  0  0  0  0  0  0  0  0
   19.7416   -4.2898  -18.8999 O   0  0  0  0  0  0  0  0  0  0  0  0
  2  1  1  0
  3  2  1  0
  3  4  1  0
  5  4  1  0
  5  6  1  1
  7  5  1  0
  8  7  2  0
  9 10  1  0
 11 10  1  6
 11 13  1  0
 11 12  1  0
 12  7  1  0
 13 20  1  0
 14 13  2  0
 16 15  1  1
 16 17  1  0
 18 16  1  0
 19 18  1  1
 19 21  1  0
 20 19  1  0
 21 22  2  0
 21 23  1  0
M  END
$$$$
