MSL.pdb
     RDKit          3D

 23 22  0  0  1  0  0  0  0  0999 V2000
   27.3719  -18.5037   -6.1318 C   0  0  0  0  0  0  0  0  0  0  0  0
   28.4059  -19.9849   -6.1423 S   0  0  0  0  0  0  0  0  0  0  0  0
   28.0449  -21.0389   -7.5785 C   0  0  0  0  0  0  0  0  0  0  0  0
   27.1732  -20.3196   -8.5763 C   0  0  0  0  0  0  0  0  0  0  0  0
   26.7877  -21.2343   -9.7193 C   0  0  2  0  0  0  0  0  0  0  0  0
   27.9728  -21.8111  -10.3196 N   0  0  0  0  0  0  0  0  0  0  0  0
   26.0216  -20.5410  -10.7643 C   0  0  0  0  0  0  0  0  0  0  0  0
   25.9008  -19.3060  -10.7401 O   0  0  0  0  0  0  0  0  0  0  0  0
   24.7430  -22.6903  -14.0542 O   0  0  0  0  0  0  0  0  0  0  0  0
   25.0418  -21.3726  -14.2835 C   0  0  0  0  0  0  0  0  0  0  0  0
   24.8312  -20.5892  -13.0051 C   0  0  2  0  0  0  0  0  0  0  0  0
   25.3797  -21.2207  -11.8512 N   0  0  0  0  0  0  0  0  0  0  0  0
   23.3850  -20.3038  -12.9072 C   0  0  0  0  0  0  0  0  0  0  0  0
   22.6937  -21.0401  -12.1626 O   0  0  0  0  0  0  0  0  0  0  0  0
   19.3016  -16.0370  -14.7968 C   0  0  0  0  0  0  0  0  0  0  0  0
   19.4980  -17.3020  -13.9383 C   0  0  2  0  0  0  0  0  0  0  0  0
   19.1722  -16.9136  -12.5023 C   0  0  0  0  0  0  0  0  0  0  0  0
   20.9546  -17.6558  -14.0812 C   0  0  0  0  0  0  0  0  0  0  0  0
   21.2994  -18.9902  -13.5164 C   0  0  2  0  0  0  0  0  0  0  0  0
   22.7295  -19.2614  -13.5922 N   0  0  0  0  0  0  0  0  0  0  0  0
   20.5457  -20.1162  -14.0850 C   0  0  0  0  0  0  0  0  0  0  0  0
   20.9525  -20.6185  -15.1918 O   0  0  0  0  0  0  0  0  0  0  0  0
   19.4287  -20.6817  -13.5200 O   0  0  0  0  0  0  0  0  0  0  0  0
  2  1  1  0
  3  2  1  0
  3  4  1  0
  5  4  1  0
  5  6  1  6
  7  5  1  0
  8  7  2  0
  9 10  1  0
 11 10  1  6
 11 13  1  0
 11 12  1  0
 12  7  1  0
 13 20  1  0
 14 13  2  0
 16 15  1  6
 16 17  1  0
 18 16  1  0
 19 18  1  6
 19 21  1  0
 20 19  1  0
 21 22  2  0
 21 23  1  0
M  END
$$$$
