MSL.pdb
     RDKit          3D

 23 22  0  0  1  0  0  0  0  0999 V2000
   32.1193  -22.4665  -10.7360 C   0  0  0  0  0  0  0  0  0  0  0  0
   32.9586  -22.9739  -12.2530 S   0  0  0  0  0  0  0  0  0  0  0  0
   31.8357  -22.9316  -13.6816 C   0  0  0  0  0  0  0  0  0  0  0  0
   30.7948  -21.8523  -13.5241 C   0  0  0  0  0  0  0  0  0  0  0  0
   29.7614  -21.9294  -14.6277 C   0  0  2  0  0  0  0  0  0  0  0  0
   30.3871  -21.7074  -15.9148 N   0  0  0  0  0  0  0  0  0  0  0  0
   28.6780  -20.9513  -14.4568 C   0  0  0  0  0  0  0  0  0  0  0  0
   28.8818  -19.7450  -14.6658 O   0  0  0  0  0  0  0  0  0  0  0  0
   24.7906  -21.2279  -14.9869 O   0  0  0  0  0  0  0  0  0  0  0  0
   25.2524  -20.0763  -14.4049 C   0  0  0  0  0  0  0  0  0  0  0  0
   26.3987  -20.4178  -13.4767 C   0  0  2  0  0  0  0  0  0  0  0  0
   27.3511  -21.3101  -14.0493 N   0  0  0  0  0  0  0  0  0  0  0  0
   25.8024  -20.9003  -12.2140 C   0  0  0  0  0  0  0  0  0  0  0  0
   25.4410  -22.1007  -12.1603 O   0  0  0  0  0  0  0  0  0  0  0  0
   26.8589  -19.4129   -6.9406 C   0  0  0  0  0  0  0  0  0  0  0  0
   26.2281  -20.4875   -7.8479 C   0  0  2  0  0  0  0  0  0  0  0  0
   27.3484  -21.0403   -8.7187 C   0  0  0  0  0  0  0  0  0  0  0  0
   25.2114  -19.7546   -8.6824 C   0  0  0  0  0  0  0  0  0  0  0  0
   24.8105  -20.4924   -9.9126 C   0  0  2  0  0  0  0  0  0  0  0  0
   25.6125  -20.1050  -11.0664 N   0  0  0  0  0  0  0  0  0  0  0  0
   23.3817  -20.4097  -10.2457 C   0  0  0  0  0  0  0  0  0  0  0  0
   23.0328  -19.6685  -11.2315 O   0  0  0  0  0  0  0  0  0  0  0  0
   22.3783  -21.0703   -9.5801 O   0  0  0  0  0  0  0  0  0  0  0  0
  2  1  1  0
  3  2  1  0
  3  4  1  0
  5  4  1  0
  5  6  1  6
  7  5  1  0
  8  7  2  0
  9 10  1  0
 11 10  1  6
 11 13  1  0
 11 12  1  0
 12  7  1  0
 13 20  1  0
 14 13  2  0
 16 15  1  1
 16 17  1  0
 18 16  1  0
 19 18  1  1
 19 21  1  0
 20 19  1  0
 21 22  2  0
 21 23  1  0
M  END
$$$$
