MSL.pdb
     RDKit          3D

 23 22  0  0  1  0  0  0  0  0999 V2000
   30.3670  -15.5203  -17.8114 C   0  0  0  0  0  0  0  0  0  0  0  0
   30.2616  -17.3138  -18.0003 S   0  0  0  0  0  0  0  0  0  0  0  0
   28.6044  -17.8305  -18.5390 C   0  0  0  0  0  0  0  0  0  0  0  0
   27.5577  -17.4471  -17.5238 C   0  0  0  0  0  0  0  0  0  0  0  0
   26.1708  -17.8099  -18.0103 C   0  0  2  0  0  0  0  0  0  0  0  0
   25.8053  -16.9823  -19.1412 N   0  0  0  0  0  0  0  0  0  0  0  0
   25.1479  -17.6576  -16.9663 C   0  0  0  0  0  0  0  0  0  0  0  0
   25.0860  -16.6159  -16.2944 O   0  0  0  0  0  0  0  0  0  0  0  0
   21.7357  -17.0601  -16.5782 O   0  0  0  0  0  0  0  0  0  0  0  0
   21.8108  -18.3364  -16.0846 C   0  0  0  0  0  0  0  0  0  0  0  0
   23.2231  -18.5980  -15.6058 C   0  0  2  0  0  0  0  0  0  0  0  0
   24.1796  -18.6695  -16.6598 N   0  0  0  0  0  0  0  0  0  0  0  0
   23.1732  -19.8034  -14.7530 C   0  0  0  0  0  0  0  0  0  0  0  0
   23.0955  -20.9187  -15.3226 O   0  0  0  0  0  0  0  0  0  0  0  0
   25.8318  -21.8390  -12.1591 C   0  0  0  0  0  0  0  0  0  0  0  0
   25.2808  -20.5785  -11.4639 C   0  0  2  0  0  0  0  0  0  0  0  0
   26.0211  -20.4478  -10.1396 C   0  0  0  0  0  0  0  0  0  0  0  0
   23.8189  -20.8582  -11.2364 C   0  0  0  0  0  0  0  0  0  0  0  0
   23.0306  -20.9581  -12.4962 C   0  0  2  0  0  0  0  0  0  0  0  0
   23.2074  -19.7860  -13.3444 N   0  0  0  0  0  0  0  0  0  0  0  0
   21.5986  -21.2298  -12.3101 C   0  0  0  0  0  0  0  0  0  0  0  0
   20.7896  -20.2356  -12.3108 O   0  0  0  0  0  0  0  0  0  0  0  0
   21.0497  -22.4766  -12.1348 O   0  0  0  0  0  0  0  0  0  0  0  0
  2  1  1  0
  3  2  1  0
  3  4  1  0
  5  4  1  0
  5  6  1  6
  7  5  1  0
  8  7  2  0
  9 10  1  0
 11 10  1  6
 11 13  1  0
 11 12  1  0
 12  7  1  0
 13 20  1  0
 14 13  2  0
 16 15  1  6
 16 17  1  0
 18 16  1  0
 19 18  1  1
 19 21  1  0
 20 19  1  0
 21 22  2  0
 21 23  1  0
M  END
$$$$
