MSL.pdb
     RDKit          3D

 23 22  0  0  1  0  0  0  0  0999 V2000
   14.9664  -11.7338  -17.2643 C   0  0  0  0  0  0  0  0  0  0  0  0
   14.9450  -12.9407  -18.6082 S   0  0  0  0  0  0  0  0  0  0  0  0
   16.5866  -13.1215  -19.3672 C   0  0  0  0  0  0  0  0  0  0  0  0
   17.6171  -12.2967  -18.6385 C   0  0  0  0  0  0  0  0  0  0  0  0
   18.9909  -12.4835  -19.2465 C   0  0  2  0  0  0  0  0  0  0  0  0
   19.3806  -13.8769  -19.1826 N   0  0  0  0  0  0  0  0  0  0  0  0
   20.0200  -11.6765  -18.5762 C   0  0  0  0  0  0  0  0  0  0  0  0
   20.6400  -12.1317  -17.6021 O   0  0  0  0  0  0  0  0  0  0  0  0
   20.5191   -7.4932  -19.2593 O   0  0  0  0  0  0  0  0  0  0  0  0
   21.6501   -8.2503  -19.0985 C   0  0  0  0  0  0  0  0  0  0  0  0
   21.3004   -9.5005  -18.3193 C   0  0  2  0  0  0  0  0  0  0  0  0
   20.3696  -10.3482  -18.9871 N   0  0  0  0  0  0  0  0  0  0  0  0
   20.8645   -9.0643  -16.9768 C   0  0  0  0  0  0  0  0  0  0  0  0
   19.6335   -9.0651  -16.7338 O   0  0  0  0  0  0  0  0  0  0  0  0
   22.2618   -7.5280  -11.8222 C   0  0  0  0  0  0  0  0  0  0  0  0
   21.4897   -8.8167  -12.1668 C   0  0  2  0  0  0  0  0  0  0  0  0
   21.9504   -9.8821  -11.1811 C   0  0  0  0  0  0  0  0  0  0  0  0
   21.9087   -9.1666  -13.5701 C   0  0  0  0  0  0  0  0  0  0  0  0
   21.3161   -8.2755  -14.6061 C   0  0  2  0  0  0  0  0  0  0  0  0
   21.7364   -8.6483  -15.9510 N   0  0  0  0  0  0  0  0  0  0  0  0
   21.5432   -6.8398  -14.3906 C   0  0  0  0  0  0  0  0  0  0  0  0
   22.5883   -6.3087  -14.9088 O   0  0  0  0  0  0  0  0  0  0  0  0
   20.7167   -6.0108  -13.6722 O   0  0  0  0  0  0  0  0  0  0  0  0
  2  1  1  0
  3  2  1  0
  3  4  1  0
  5  4  1  0
  5  6  1  1
  7  5  1  0
  8  7  2  0
  9 10  1  0
 11 10  1  6
 11 13  1  0
 11 12  1  0
 12  7  1  0
 13 20  1  0
 14 13  2  0
 16 15  1  1
 16 17  1  0
 18 16  1  0
 19 18  1  1
 19 21  1  0
 20 19  1  0
 21 22  2  0
 21 23  1  0
M  END
$$$$
