MSL.pdb
     RDKit          3D

 23 22  0  0  1  0  0  0  0  0999 V2000
   17.3979  -19.6689  -17.2743 C   0  0  0  0  0  0  0  0  0  0  0  0
   18.8367  -20.4606  -18.0268 S   0  0  0  0  0  0  0  0  0  0  0  0
   20.3406  -20.1804  -17.0452 C   0  0  0  0  0  0  0  0  0  0  0  0
   20.3122  -18.8278  -16.3798 C   0  0  0  0  0  0  0  0  0  0  0  0
   21.5775  -18.5873  -15.5844 C   0  0  2  0  0  0  0  0  0  0  0  0
   21.6137  -19.4577  -14.4274 N   0  0  0  0  0  0  0  0  0  0  0  0
   21.7032  -17.1955  -15.1295 C   0  0  0  0  0  0  0  0  0  0  0  0
   20.8627  -16.7087  -14.3568 O   0  0  0  0  0  0  0  0  0  0  0  0
   24.7135  -14.7644  -16.6617 O   0  0  0  0  0  0  0  0  0  0  0  0
   24.2529  -14.3672  -15.4336 C   0  0  0  0  0  0  0  0  0  0  0  0
   22.8699  -14.9435  -15.2151 C   0  0  2  0  0  0  0  0  0  0  0  0
   22.7717  -16.3292  -15.5334 N   0  0  0  0  0  0  0  0  0  0  0  0
   21.9229  -14.0852  -15.9561 C   0  0  0  0  0  0  0  0  0  0  0  0
   21.6347  -14.4137  -17.1323 O   0  0  0  0  0  0  0  0  0  0  0  0
   17.5434   -9.9036  -14.9822 C   0  0  0  0  0  0  0  0  0  0  0  0
   18.4262  -10.5520  -16.0665 C   0  0  2  0  0  0  0  0  0  0  0  0
   17.4989  -11.3647  -16.9603 C   0  0  0  0  0  0  0  0  0  0  0  0
   19.3755  -11.4509  -15.3196 C   0  0  0  0  0  0  0  0  0  0  0  0
   20.4402  -12.0363  -16.1811 C   0  0  2  0  0  0  0  0  0  0  0  0
   21.3211  -12.9238  -15.4321 N   0  0  0  0  0  0  0  0  0  0  0  0
   21.2375  -11.0563  -16.9315 C   0  0  0  0  0  0  0  0  0  0  0  0
   22.3135  -10.6137  -16.3938 O   0  0  0  0  0  0  0  0  0  0  0  0
   20.9208  -10.5713  -18.1769 O   0  0  0  0  0  0  0  0  0  0  0  0
  2  1  1  0
  3  2  1  0
  3  4  1  0
  5  4  1  0
  5  6  1  1
  7  5  1  0
  8  7  2  0
  9 10  1  0
 11 10  1  6
 11 13  1  0
 11 12  1  0
 12  7  1  0
 13 20  1  0
 14 13  2  0
 16 15  1  1
 16 17  1  0
 18 16  1  0
 19 18  1  1
 19 21  1  0
 20 19  1  0
 21 22  2  0
 21 23  1  0
M  END
$$$$
