MSL.pdb
     RDKit          3D

 23 22  0  0  1  0  0  0  0  0999 V2000
   25.7087  -16.1350  -16.6151 C   0  0  0  0  0  0  0  0  0  0  0  0
   27.2291  -15.7664  -15.7119 S   0  0  0  0  0  0  0  0  0  0  0  0
   28.0599  -17.2854  -15.1585 C   0  0  0  0  0  0  0  0  0  0  0  0
   27.0595  -18.3222  -14.7144 C   0  0  0  0  0  0  0  0  0  0  0  0
   27.7562  -19.5697  -14.2144 C   0  0  2  0  0  0  0  0  0  0  0  0
   28.4648  -20.2156  -15.2999 N   0  0  0  0  0  0  0  0  0  0  0  0
   26.8240  -20.5378  -13.6199 C   0  0  0  0  0  0  0  0  0  0  0  0
   26.2705  -21.3937  -14.3281 O   0  0  0  0  0  0  0  0  0  0  0  0
   25.5094  -19.9062   -9.7320 O   0  0  0  0  0  0  0  0  0  0  0  0
   25.3675  -21.2078  -10.1367 C   0  0  0  0  0  0  0  0  0  0  0  0
   25.3971  -21.2603  -11.6495 C   0  0  2  0  0  0  0  0  0  0  0  0
   26.4982  -20.5613  -12.2239 N   0  0  0  0  0  0  0  0  0  0  0  0
   24.0758  -20.7991  -12.1231 C   0  0  0  0  0  0  0  0  0  0  0  0
   23.8870  -19.5619  -12.2126 O   0  0  0  0  0  0  0  0  0  0  0  0
   20.0287  -22.3306  -16.2554 C   0  0  0  0  0  0  0  0  0  0  0  0
   20.1973  -21.4300  -15.0160 C   0  0  2  0  0  0  0  0  0  0  0  0
   20.3340  -20.0016  -15.5259 C   0  0  0  0  0  0  0  0  0  0  0  0
   21.4728  -21.8908  -14.3618 C   0  0  0  0  0  0  0  0  0  0  0  0
   21.7550  -21.2106  -13.0671 C   0  0  2  0  0  0  0  0  0  0  0  0
   23.0142  -21.6535  -12.4816 N   0  0  0  0  0  0  0  0  0  0  0  0
   20.6791  -21.3054  -12.0709 C   0  0  0  0  0  0  0  0  0  0  0  0
   20.5973  -22.3751  -11.3695 O   0  0  0  0  0  0  0  0  0  0  0  0
   19.7439  -20.3297  -11.8262 O   0  0  0  0  0  0  0  0  0  0  0  0
  2  1  1  0
  3  2  1  0
  3  4  1  0
  5  4  1  0
  5  6  1  6
  7  5  1  0
  8  7  2  0
  9 10  1  0
 11 10  1  1
 11 13  1  0
 11 12  1  0
 12  7  1  0
 13 20  1  0
 14 13  2  0
 16 15  1  6
 16 17  1  0
 18 16  1  0
 19 18  1  6
 19 21  1  0
 20 19  1  0
 21 22  2  0
 21 23  1  0
M  END
$$$$
