MSL.pdb
     RDKit          3D

 23 22  0  0  1  0  0  0  0  0999 V2000
   13.9667  -12.5080  -18.5767 C   0  0  0  0  0  0  0  0  0  0  0  0
   14.9129  -13.8783  -19.2768 S   0  0  0  0  0  0  0  0  0  0  0  0
   16.6833  -13.7300  -18.8929 C   0  0  0  0  0  0  0  0  0  0  0  0
   16.9211  -12.7145  -17.8042 C   0  0  0  0  0  0  0  0  0  0  0  0
   18.3930  -12.6179  -17.4638 C   0  0  2  0  0  0  0  0  0  0  0  0
   18.8728  -13.8863  -16.9554 N   0  0  0  0  0  0  0  0  0  0  0  0
   18.6755  -11.5751  -16.4676 C   0  0  0  0  0  0  0  0  0  0  0  0
   18.6908  -11.8499  -15.2573 O   0  0  0  0  0  0  0  0  0  0  0  0
   19.3667   -7.6244  -17.6484 O   0  0  0  0  0  0  0  0  0  0  0  0
   19.9704   -7.9988  -16.4764 C   0  0  0  0  0  0  0  0  0  0  0  0
   19.2104   -9.1649  -15.8804 C   0  0  2  0  0  0  0  0  0  0  0  0
   18.9448  -10.2098  -16.8124 N   0  0  0  0  0  0  0  0  0  0  0  0
   18.0026   -8.6087  -15.2365 C   0  0  0  0  0  0  0  0  0  0  0  0
   16.9329   -8.6218  -15.8921 O   0  0  0  0  0  0  0  0  0  0  0  0
   14.6948   -8.9617  -12.1280 C   0  0  0  0  0  0  0  0  0  0  0  0
   16.1456   -8.9676  -11.6074 C   0  0  2  0  0  0  0  0  0  0  0  0
   16.0722   -9.1977  -10.1039 C   0  0  0  0  0  0  0  0  0  0  0  0
   16.6825   -7.5948  -11.9148 C   0  0  0  0  0  0  0  0  0  0  0  0
   16.8434   -7.3331  -13.3722 C   0  0  2  0  0  0  0  0  0  0  0  0
   17.9701   -8.0655  -13.9367 N   0  0  0  0  0  0  0  0  0  0  0  0
   16.9349   -5.9132  -13.7394 C   0  0  0  0  0  0  0  0  0  0  0  0
   18.0608   -5.4694  -14.1615 O   0  0  0  0  0  0  0  0  0  0  0  0
   15.9002   -5.0128  -13.6677 O   0  0  0  0  0  0  0  0  0  0  0  0
  2  1  1  0
  3  2  1  0
  3  4  1  0
  5  4  1  0
  5  6  1  1
  7  5  1  0
  8  7  2  0
  9 10  1  0
 11 10  1  6
 11 13  1  0
 11 12  1  0
 12  7  1  0
 13 20  1  0
 14 13  2  0
 16 15  1  1
 16 17  1  0
 18 16  1  0
 19 18  1  1
 19 21  1  0
 20 19  1  0
 21 22  2  0
 21 23  1  0
M  END
$$$$
