ENW.pdb
     RDKit          3D

 32 33  0  0  1  0  0  0  0  0999 V2000
   11.0318  -17.5845   18.6252 N   0  0  0  0  0  0  0  0  0  0  0  0
   10.9661  -16.6530   19.7356 C   0  0  1  0  0  0  0  0  0  0  0  0
    9.8618  -15.6407   19.4744 C   0  0  0  0  0  0  0  0  0  0  0  0
    9.0050  -16.2030   18.3328 C   0  0  0  0  0  0  0  0  0  0  0  0
    8.0206  -15.2173   17.8793 C   0  0  0  0  0  0  0  0  0  0  0  0
    7.1253  -14.8213   18.6391 O   0  0  0  0  0  0  0  0  0  0  0  0
   10.6463  -17.4314   20.9802 C   0  0  0  0  0  0  0  0  0  0  0  0
    9.9525  -18.4803   20.9143 O   0  0  0  0  0  0  0  0  0  0  0  0
    8.0687  -14.6918   16.5777 O   0  0  0  0  0  0  0  0  0  0  0  0
   13.4878  -19.9164   25.1564 N   0  0  0  0  0  0  0  0  0  0  0  0
   12.2164  -19.8244   24.4760 C   0  0  0  0  0  0  0  0  0  0  0  0
   11.3377  -20.6072   24.8867 O   0  0  0  0  0  0  0  0  0  0  0  0
   12.0209  -18.8791   23.4038 C   0  0  0  0  0  0  0  0  0  0  0  0
   10.8734  -17.9221   23.4391 C   0  0  2  0  0  0  0  0  0  0  0  0
   11.0899  -17.0410   22.2577 N   0  0  0  0  0  0  0  0  0  0  0  0
   10.7454  -17.0939   24.6354 C   0  0  0  0  0  0  0  0  0  0  0  0
   11.5719  -16.1368   24.8760 O   0  0  0  0  0  0  0  0  0  0  0  0
    9.7395  -17.2509   25.5939 N   0  0  0  0  0  0  0  0  0  0  0  0
    9.6895  -16.5590   26.8893 C   0  0  1  0  0  0  0  0  0  0  0  0
    8.2889  -16.3082   27.2978 C   0  0  0  0  0  0  0  0  0  0  0  0
    7.5583  -15.4745   26.3376 C   0  0  0  0  0  0  0  0  0  0  0  0
    6.8244  -15.9444   25.2379 C   0  0  0  0  0  0  0  0  0  0  0  0
    6.3227  -14.9066   24.5524 N   0  0  0  0  0  0  0  0  0  0  0  0
    6.6770  -13.7541   25.1262 C   0  0  0  0  0  0  0  0  0  0  0  0
    6.4004  -12.4343   24.8095 C   0  0  0  0  0  0  0  0  0  0  0  0
    6.8944  -11.4301   25.6113 C   0  0  0  0  0  0  0  0  0  0  0  0
    7.6538  -11.7594   26.7103 C   0  0  0  0  0  0  0  0  0  0  0  0
    7.9317  -13.0781   27.0279 C   0  0  0  0  0  0  0  0  0  0  0  0
    7.4389  -14.0870   26.2273 C   0  0  0  0  0  0  0  0  0  0  0  0
   10.5414  -17.1769   27.8639 C   0  0  0  0  0  0  0  0  0  0  0  0
   11.3056  -18.3030   27.6690 O   0  0  0  0  0  0  0  0  0  0  0  0
   10.6210  -16.6674   29.0385 O   0  0  0  0  0  0  0  0  0  0  0  0
  2  1  1  6
  2  3  1  0
  3  4  1  0
  4  5  1  0
  5  9  1  0
  6  5  2  0
  7  2  1  0
  8  7  2  0
 10 11  1  0
 11 12  2  0
 13 11  1  0
 14 13  1  1
 14 15  1  0
 15  7  1  0
 16 18  1  0
 16 14  1  0
 17 16  2  0
 19 18  1  0
 19 20  1  1
 20 21  1  0
 21 29  1  0
 21 22  2  0
 22 23  1  0
 24 23  1  0
 24 25  2  0
 26 25  1  0
 27 26  2  0
 28 29  2  0
 28 27  1  0
 29 24  1  0
 30 31  1  0
 30 19  1  0
 32 30  2  0
M  END
$$$$
