ENW.pdb
     RDKit          3D

 32 33  0  0  1  0  0  0  0  0999 V2000
    7.8777  -16.4729   21.1271 N   0  0  0  0  0  0  0  0  0  0  0  0
    8.3618  -17.8021   21.4498 C   0  0  1  0  0  0  0  0  0  0  0  0
    8.4057  -18.6398   20.1815 C   0  0  0  0  0  0  0  0  0  0  0  0
    7.8537  -17.7625   19.0506 C   0  0  0  0  0  0  0  0  0  0  0  0
    7.8481  -18.4874   17.7775 C   0  0  0  0  0  0  0  0  0  0  0  0
    8.3338  -19.6244   17.6945 O   0  0  0  0  0  0  0  0  0  0  0  0
    9.7497  -17.6706   22.0100 C   0  0  0  0  0  0  0  0  0  0  0  0
   10.7483  -18.0134   21.3238 O   0  0  0  0  0  0  0  0  0  0  0  0
    7.2883  -17.9176   16.6221 O   0  0  0  0  0  0  0  0  0  0  0  0
   13.0711  -17.5069   21.4234 N   0  0  0  0  0  0  0  0  0  0  0  0
   12.6157  -16.1390   21.5218 C   0  0  0  0  0  0  0  0  0  0  0  0
   13.0433  -15.3732   20.6362 O   0  0  0  0  0  0  0  0  0  0  0  0
   11.7291  -15.7320   22.5846 C   0  0  0  0  0  0  0  0  0  0  0  0
   11.3645  -16.6887   23.6734 C   0  0  2  0  0  0  0  0  0  0  0  0
   10.0056  -17.1723   23.3014 N   0  0  0  0  0  0  0  0  0  0  0  0
   11.3256  -16.1538   25.0320 C   0  0  0  0  0  0  0  0  0  0  0  0
   12.3240  -15.5065   25.5232 O   0  0  0  0  0  0  0  0  0  0  0  0
   10.2318  -16.2809   25.8939 N   0  0  0  0  0  0  0  0  0  0  0  0
   10.3023  -16.2477   27.3612 C   0  0  1  0  0  0  0  0  0  0  0  0
    9.1855  -15.4550   27.9234 C   0  0  0  0  0  0  0  0  0  0  0  0
    8.1089  -15.2248   26.9546 C   0  0  0  0  0  0  0  0  0  0  0  0
    7.2526  -16.2068   26.4339 C   0  0  0  0  0  0  0  0  0  0  0  0
    6.4164  -15.6519   25.5442 N   0  0  0  0  0  0  0  0  0  0  0  0
    6.6584  -14.3437   25.4302 C   0  0  0  0  0  0  0  0  0  0  0  0
    6.0650  -13.3516   24.6673 C   0  0  0  0  0  0  0  0  0  0  0  0
    6.5208  -12.0566   24.7714 C   0  0  0  0  0  0  0  0  0  0  0  0
    7.5576  -11.7760   25.6312 C   0  0  0  0  0  0  0  0  0  0  0  0
    8.1522  -12.7666   26.3941 C   0  0  0  0  0  0  0  0  0  0  0  0
    7.6988  -14.0650   26.2926 C   0  0  0  0  0  0  0  0  0  0  0  0
   10.5087  -17.5522   27.9208 C   0  0  0  0  0  0  0  0  0  0  0  0
   10.9830  -17.8228   29.1824 O   0  0  0  0  0  0  0  0  0  0  0  0
   10.2448  -18.5871   27.2101 O   0  0  0  0  0  0  0  0  0  0  0  0
  2  1  1  6
  2  3  1  0
  3  4  1  0
  4  5  1  0
  5  9  1  0
  6  5  2  0
  7  2  1  0
  8  7  2  0
 10 11  1  0
 11 12  2  0
 13 11  1  0
 14 13  1  6
 14 15  1  0
 15  7  1  0
 16 18  1  0
 16 14  1  0
 17 16  2  0
 19 18  1  0
 19 20  1  1
 20 21  1  0
 21 29  1  0
 21 22  2  0
 22 23  1  0
 24 23  1  0
 24 25  2  0
 26 25  1  0
 27 26  2  0
 28 29  2  0
 28 27  1  0
 29 24  1  0
 30 31  1  0
 30 19  1  0
 32 30  2  0
M  END
$$$$
