ENW.pdb
     RDKit          3D

 32 33  0  0  1  0  0  0  0  0999 V2000
    9.0800  -17.5813   18.7136 N   0  0  0  0  0  0  0  0  0  0  0  0
    8.5632  -17.0594   19.9648 C   0  0  1  0  0  0  0  0  0  0  0  0
    7.1738  -17.6277   20.2077 C   0  0  0  0  0  0  0  0  0  0  0  0
    6.6395  -18.0915   18.8465 C   0  0  0  0  0  0  0  0  0  0  0  0
    5.3190  -18.7111   18.9831 C   0  0  0  0  0  0  0  0  0  0  0  0
    4.7857  -18.8256   20.0958 O   0  0  0  0  0  0  0  0  0  0  0  0
    9.4824  -17.4981   21.0693 C   0  0  0  0  0  0  0  0  0  0  0  0
    9.3225  -18.6172   21.6240 O   0  0  0  0  0  0  0  0  0  0  0  0
    4.6217  -19.1850   17.8597 O   0  0  0  0  0  0  0  0  0  0  0  0
   13.3127  -19.1835   20.8159 N   0  0  0  0  0  0  0  0  0  0  0  0
   13.1754  -17.7452   20.8397 C   0  0  0  0  0  0  0  0  0  0  0  0
   13.3866  -17.1747   19.7518 O   0  0  0  0  0  0  0  0  0  0  0  0
   12.8171  -17.0590   22.0571 C   0  0  0  0  0  0  0  0  0  0  0  0
   11.4400  -17.1914   22.6226 C   0  0  2  0  0  0  0  0  0  0  0  0
   10.5453  -16.7023   21.5366 N   0  0  0  0  0  0  0  0  0  0  0  0
   11.1578  -16.4452   23.8461 C   0  0  0  0  0  0  0  0  0  0  0  0
   11.5506  -15.2279   23.9909 O   0  0  0  0  0  0  0  0  0  0  0  0
   10.4481  -16.9625   24.9342 N   0  0  0  0  0  0  0  0  0  0  0  0
   10.6640  -16.5907   26.3393 C   0  0  1  0  0  0  0  0  0  0  0  0
   10.3241  -15.1675   26.5647 C   0  0  0  0  0  0  0  0  0  0  0  0
    8.8882  -14.8994   26.4340 C   0  0  0  0  0  0  0  0  0  0  0  0
    7.9135  -15.8314   26.0465 C   0  0  0  0  0  0  0  0  0  0  0  0
    6.7135  -15.2348   25.9928 N   0  0  0  0  0  0  0  0  0  0  0  0
    6.8192  -13.9451   26.3222 C   0  0  0  0  0  0  0  0  0  0  0  0
    5.8799  -12.9326   26.4273 C   0  0  0  0  0  0  0  0  0  0  0  0
    6.2837  -11.6750   26.8158 C   0  0  0  0  0  0  0  0  0  0  0  0
    7.6130  -11.4508   27.0906 C   0  0  0  0  0  0  0  0  0  0  0  0
    8.5533  -12.4617   26.9856 C   0  0  0  0  0  0  0  0  0  0  0  0
    8.1530  -13.7227   26.5965 C   0  0  0  0  0  0  0  0  0  0  0  0
   10.0829  -17.5402   27.2438 C   0  0  0  0  0  0  0  0  0  0  0  0
   10.1572  -17.4970   28.6159 O   0  0  0  0  0  0  0  0  0  0  0  0
    9.4317  -18.5387   26.7698 O   0  0  0  0  0  0  0  0  0  0  0  0
  2  1  1  6
  2  3  1  0
  3  4  1  0
  4  5  1  0
  5  9  1  0
  6  5  2  0
  7  2  1  0
  8  7  2  0
 10 11  1  0
 11 12  2  0
 13 11  1  0
 14 13  1  6
 14 15  1  0
 15  7  1  0
 16 18  1  0
 16 14  1  0
 17 16  2  0
 19 18  1  0
 19 20  1  6
 20 21  1  0
 21 29  1  0
 21 22  2  0
 22 23  1  0
 24 23  1  0
 24 25  2  0
 26 25  1  0
 27 26  2  0
 28 29  2  0
 28 27  1  0
 29 24  1  0
 30 31  1  0
 30 19  1  0
 32 30  2  0
M  END
$$$$
