ENW.pdb
     RDKit          3D

 32 33  0  0  1  0  0  0  0  0999 V2000
   11.3586  -19.3701   20.0037 N   0  0  0  0  0  0  0  0  0  0  0  0
   11.9763  -18.1045   19.6549 C   0  0  1  0  0  0  0  0  0  0  0  0
   12.0456  -17.9823   18.1408 C   0  0  0  0  0  0  0  0  0  0  0  0
   13.2458  -18.8205   17.6821 C   0  0  0  0  0  0  0  0  0  0  0  0
   13.4364  -18.7174   16.2332 C   0  0  0  0  0  0  0  0  0  0  0  0
   13.5290  -17.6103   15.6842 O   0  0  0  0  0  0  0  0  0  0  0  0
   11.1209  -16.9994   20.2067 C   0  0  0  0  0  0  0  0  0  0  0  0
   11.4520  -15.7956   20.0424 O   0  0  0  0  0  0  0  0  0  0  0  0
   13.5251  -19.8668   15.4308 O   0  0  0  0  0  0  0  0  0  0  0  0
    6.0975  -14.6517   21.2410 N   0  0  0  0  0  0  0  0  0  0  0  0
    6.6934  -15.7278   21.9993 C   0  0  0  0  0  0  0  0  0  0  0  0
    6.2365  -15.8825   23.1486 O   0  0  0  0  0  0  0  0  0  0  0  0
    7.7392  -16.5411   21.4280 C   0  0  0  0  0  0  0  0  0  0  0  0
    9.1681  -16.1143   21.5265 C   0  0  2  0  0  0  0  0  0  0  0  0
    9.9332  -17.2408   20.9226 N   0  0  0  0  0  0  0  0  0  0  0  0
    9.6841  -15.8515   22.8675 C   0  0  0  0  0  0  0  0  0  0  0  0
   10.4579  -14.8494   23.1002 O   0  0  0  0  0  0  0  0  0  0  0  0
    9.3866  -16.6316   23.9891 N   0  0  0  0  0  0  0  0  0  0  0  0
   10.0510  -16.5238   25.2953 C   0  0  1  0  0  0  0  0  0  0  0  0
    9.8090  -15.1945   25.9002 C   0  0  0  0  0  0  0  0  0  0  0  0
    8.3845  -14.8527   25.9682 C   0  0  0  0  0  0  0  0  0  0  0  0
    7.3187  -15.7450   25.7767 C   0  0  0  0  0  0  0  0  0  0  0  0
    6.1546  -15.0854   25.8692 N   0  0  0  0  0  0  0  0  0  0  0  0
    6.3709  -13.7905   26.1125 C   0  0  0  0  0  0  0  0  0  0  0  0
    5.5082  -12.7234   26.3021 C   0  0  0  0  0  0  0  0  0  0  0  0
    6.0262  -11.4746   26.5616 C   0  0  0  0  0  0  0  0  0  0  0  0
    7.3909  -11.3130   26.6263 C   0  0  0  0  0  0  0  0  0  0  0  0
    8.2547  -12.3783   26.4365 C   0  0  0  0  0  0  0  0  0  0  0  0
    7.7399  -13.6309   26.1761 C   0  0  0  0  0  0  0  0  0  0  0  0
    9.7935  -17.6637   26.1270 C   0  0  0  0  0  0  0  0  0  0  0  0
    8.9426  -18.7022   25.8312 O   0  0  0  0  0  0  0  0  0  0  0  0
   10.3863  -17.7580   27.2608 O   0  0  0  0  0  0  0  0  0  0  0  0
  2  1  1  6
  2  3  1  0
  3  4  1  0
  4  5  1  0
  5  9  1  0
  6  5  2  0
  7  2  1  0
  8  7  2  0
 10 11  1  0
 11 12  2  0
 13 11  1  0
 14 13  1  1
 14 15  1  0
 15  7  1  0
 16 18  1  0
 16 14  1  0
 17 16  2  0
 19 18  1  0
 19 20  1  1
 20 21  1  0
 21 29  1  0
 21 22  2  0
 22 23  1  0
 24 23  1  0
 24 25  2  0
 26 25  1  0
 27 26  2  0
 28 29  2  0
 28 27  1  0
 29 24  1  0
 30 31  1  0
 30 19  1  0
 32 30  2  0
M  END
$$$$
