ENW.pdb
     RDKit          3D

 32 33  0  0  1  0  0  0  0  0999 V2000
    7.9647  -19.0273   21.5284 N   0  0  0  0  0  0  0  0  0  0  0  0
    9.0736  -18.0925   21.5656 C   0  0  1  0  0  0  0  0  0  0  0  0
    8.6684  -16.8078   20.8601 C   0  0  0  0  0  0  0  0  0  0  0  0
    8.2962  -17.1895   19.4216 C   0  0  0  0  0  0  0  0  0  0  0  0
    7.9090  -16.0077   18.6472 C   0  0  0  0  0  0  0  0  0  0  0  0
    7.4129  -16.1258   17.5178 O   0  0  0  0  0  0  0  0  0  0  0  0
    9.3859  -17.7950   23.0047 C   0  0  0  0  0  0  0  0  0  0  0  0
    8.5452  -17.1993   23.7286 O   0  0  0  0  0  0  0  0  0  0  0  0
    8.0836  -14.7137   19.1647 O   0  0  0  0  0  0  0  0  0  0  0  0
   13.7171  -16.9544   21.4371 N   0  0  0  0  0  0  0  0  0  0  0  0
   12.8769  -15.9219   21.9994 C   0  0  0  0  0  0  0  0  0  0  0  0
   13.3023  -14.7586   21.8607 O   0  0  0  0  0  0  0  0  0  0  0  0
   11.6415  -16.2578   22.6645 C   0  0  0  0  0  0  0  0  0  0  0  0
   11.6494  -17.1261   23.8810 C   0  0  2  0  0  0  0  0  0  0  0  0
   10.6056  -18.1535   23.6092 N   0  0  0  0  0  0  0  0  0  0  0  0
   11.3574  -16.4743   25.1551 C   0  0  0  0  0  0  0  0  0  0  0  0
   12.2181  -15.7039   25.7233 O   0  0  0  0  0  0  0  0  0  0  0  0
   10.1510  -16.6126   25.8484 N   0  0  0  0  0  0  0  0  0  0  0  0
    9.9520  -16.3022   27.2708 C   0  0  1  0  0  0  0  0  0  0  0  0
    8.5125  -16.1441   27.5781 C   0  0  0  0  0  0  0  0  0  0  0  0
    7.7916  -15.3903   26.5472 C   0  0  0  0  0  0  0  0  0  0  0  0
    7.1543  -15.9416   25.4253 C   0  0  0  0  0  0  0  0  0  0  0  0
    6.6328  -14.9606   24.6740 N   0  0  0  0  0  0  0  0  0  0  0  0
    6.8820  -13.7698   25.2241 C   0  0  0  0  0  0  0  0  0  0  0  0
    6.5457  -12.4811   24.8433 C   0  0  0  0  0  0  0  0  0  0  0  0
    6.9296  -11.4217   25.6343 C   0  0  0  0  0  0  0  0  0  0  0  0
    7.6404  -11.6660   26.7866 C   0  0  0  0  0  0  0  0  0  0  0  0
    7.9779  -12.9534   27.1685 C   0  0  0  0  0  0  0  0  0  0  0  0
    7.5955  -14.0174   26.3788 C   0  0  0  0  0  0  0  0  0  0  0  0
   10.6975  -17.1817   28.1241 C   0  0  0  0  0  0  0  0  0  0  0  0
   11.3332  -18.3366   27.7341 O   0  0  0  0  0  0  0  0  0  0  0  0
   10.7993  -16.9049   29.3726 O   0  0  0  0  0  0  0  0  0  0  0  0
  2  1  1  1
  2  3  1  0
  3  4  1  0
  4  5  1  0
  5  9  1  0
  6  5  2  0
  7  2  1  0
  8  7  2  0
 10 11  1  0
 11 12  2  0
 13 11  1  0
 14 13  1  6
 14 15  1  0
 15  7  1  0
 16 18  1  0
 16 14  1  0
 17 16  2  0
 19 18  1  0
 19 20  1  1
 20 21  1  0
 21 29  1  0
 21 22  2  0
 22 23  1  0
 24 23  1  0
 24 25  2  0
 26 25  1  0
 27 26  2  0
 28 29  2  0
 28 27  1  0
 29 24  1  0
 30 31  1  0
 30 19  1  0
 32 30  2  0
M  END
$$$$
