ENW.pdb
     RDKit          3D

 32 33  0  0  1  0  0  0  0  0999 V2000
    9.4021  -13.8094   18.7209 N   0  0  0  0  0  0  0  0  0  0  0  0
    8.1884  -14.5521   19.0046 C   0  0  1  0  0  0  0  0  0  0  0  0
    7.5678  -15.0148   17.6958 C   0  0  0  0  0  0  0  0  0  0  0  0
    8.6457  -14.8623   16.6149 C   0  0  0  0  0  0  0  0  0  0  0  0
    8.1420  -15.2868   15.3063 C   0  0  0  0  0  0  0  0  0  0  0  0
    8.8484  -15.9633   14.5454 O   0  0  0  0  0  0  0  0  0  0  0  0
    8.5566  -15.7497   19.8338 C   0  0  0  0  0  0  0  0  0  0  0  0
    7.6768  -16.5847   20.1721 O   0  0  0  0  0  0  0  0  0  0  0  0
    6.8473  -14.9447   14.8828 O   0  0  0  0  0  0  0  0  0  0  0  0
   11.2482  -20.3614   21.1126 N   0  0  0  0  0  0  0  0  0  0  0  0
   11.8460  -19.0460   21.1320 C   0  0  0  0  0  0  0  0  0  0  0  0
   12.9288  -18.9650   21.7439 O   0  0  0  0  0  0  0  0  0  0  0  0
   11.2019  -17.9340   20.4762 C   0  0  0  0  0  0  0  0  0  0  0  0
   10.1641  -17.1316   21.1922 C   0  0  2  0  0  0  0  0  0  0  0  0
    9.8714  -15.9984   20.2707 N   0  0  0  0  0  0  0  0  0  0  0  0
   10.5330  -16.5993   22.5015 C   0  0  0  0  0  0  0  0  0  0  0  0
   11.5128  -15.7752   22.6348 O   0  0  0  0  0  0  0  0  0  0  0  0
    9.8709  -16.9160   23.6917 N   0  0  0  0  0  0  0  0  0  0  0  0
   10.2083  -16.3779   25.0168 C   0  0  1  0  0  0  0  0  0  0  0  0
    9.8729  -14.9385   25.1007 C   0  0  0  0  0  0  0  0  0  0  0  0
    8.4483  -14.7018   25.3563 C   0  0  0  0  0  0  0  0  0  0  0  0
    7.4327  -15.6673   25.2862 C   0  0  0  0  0  0  0  0  0  0  0  0
    6.2464  -15.0949   25.5386 N   0  0  0  0  0  0  0  0  0  0  0  0
    6.3998  -13.7899   25.7758 C   0  0  0  0  0  0  0  0  0  0  0  0
    5.4952  -12.7901   26.0934 C   0  0  0  0  0  0  0  0  0  0  0  0
    5.9525  -11.5093   26.3075 C   0  0  0  0  0  0  0  0  0  0  0  0
    7.2993  -11.2496   26.2002 C   0  0  0  0  0  0  0  0  0  0  0  0
    8.2048  -12.2476   25.8823 C   0  0  0  0  0  0  0  0  0  0  0  0
    7.7509  -13.5319   25.6670 C   0  0  0  0  0  0  0  0  0  0  0  0
    9.7231  -17.2128   26.0774 C   0  0  0  0  0  0  0  0  0  0  0  0
   10.0407  -17.0909   27.4094 O   0  0  0  0  0  0  0  0  0  0  0  0
    8.9228  -18.1761   25.7994 O   0  0  0  0  0  0  0  0  0  0  0  0
  2  1  1  6
  2  3  1  0
  3  4  1  0
  4  5  1  0
  5  9  1  0
  6  5  2  0
  7  2  1  0
  8  7  2  0
 10 11  1  0
 11 12  2  0
 13 11  1  0
 14 13  1  6
 14 15  1  0
 15  7  1  0
 16 18  1  0
 16 14  1  0
 17 16  2  0
 19 18  1  0
 19 20  1  1
 20 21  1  0
 21 29  1  0
 21 22  2  0
 22 23  1  0
 24 23  1  0
 24 25  2  0
 26 25  1  0
 27 26  2  0
 28 29  2  0
 28 27  1  0
 29 24  1  0
 30 31  1  0
 30 19  1  0
 32 30  2  0
M  END
$$$$
