NIM.pdb
     RDKit          3D

 25 24  0  0  1  0  0  0  0  0999 V2000
   20.5189  -22.2708  -15.6966 N   0  0  0  0  0  0  0  0  0  0  0  0
   20.7274  -22.3201  -14.3082 C   0  0  0  0  0  0  0  0  0  0  0  0
   19.7581  -22.3601  -13.5341 O   0  0  0  0  0  0  0  0  0  0  0  0
   22.1006  -22.3236  -13.7864 C   0  0  0  0  0  0  0  0  0  0  0  0
   23.1856  -22.2254  -14.7945 C   0  0  2  0  0  0  0  0  0  0  0  0
   23.2223  -23.2615  -15.7613 N   0  0  0  0  0  0  0  0  0  0  0  0
   24.4749  -22.0989  -14.0610 C   0  0  0  0  0  0  0  0  0  0  0  0
   25.2118  -23.1056  -13.9237 O   0  0  0  0  0  0  0  0  0  0  0  0
   27.8638  -18.4655  -15.3201 C   0  0  0  0  0  0  0  0  0  0  0  0
   27.1958  -19.6927  -14.7822 C   0  0  0  0  0  0  0  0  0  0  0  0
   26.9074  -19.6318  -13.3232 C   0  0  2  0  0  0  0  0  0  0  0  0
   28.2120  -19.3225  -12.6204 C   0  0  0  0  0  0  0  0  0  0  0  0
   26.1839  -20.7859  -12.7236 C   0  0  2  0  0  0  0  0  0  0  0  0
   24.9189  -20.8727  -13.4994 N   0  0  0  0  0  0  0  0  0  0  0  0
   25.8741  -20.6991  -11.2982 C   0  0  0  0  0  0  0  0  0  0  0  0
   24.9202  -19.9363  -10.9146 O   0  0  0  0  0  0  0  0  0  0  0  0
   29.2963  -20.2061   -5.3315 C   0  0  0  0  0  0  0  0  0  0  0  0
   28.0582  -19.0032   -5.9427 S   0  0  0  0  0  0  0  0  0  0  0  0
   26.7257  -19.8808   -6.8029 C   0  0  0  0  0  0  0  0  0  0  0  0
   27.1541  -20.1932   -8.2151 C   0  0  0  0  0  0  0  0  0  0  0  0
   26.2108  -21.1896   -8.8671 C   0  0  2  0  0  0  0  0  0  0  0  0
   26.5344  -21.3913  -10.2653 N   0  0  0  0  0  0  0  0  0  0  0  0
   24.8266  -20.7165   -8.7518 C   0  0  0  0  0  0  0  0  0  0  0  0
   24.3233  -19.8527   -9.5320 O   0  0  0  0  0  0  0  0  0  0  0  0
   24.0095  -21.2162   -7.7577 O   0  0  0  0  0  0  0  0  0  0  0  0
  2  1  1  0
  3  2  2  0
  4  2  1  0
  5  6  1  1
  5  4  1  0
  7  5  1  0
  8  7  2  0
  9 10  1  0
 11 10  1  0
 11 13  1  0
 11 12  1  1
 13 14  1  6
 14  7  1  0
 15 13  1  0
 15 16  2  0
 18 17  1  0
 19 18  1  0
 20 19  1  0
 21 20  1  6
 22 21  1  0
 22 15  1  0
 23 21  1  0
 24 23  2  0
 25 23  1  0
M  END
$$$$
