NIM.pdb
     RDKit          3D

 25 24  0  0  1  0  0  0  0  0999 V2000
   14.9451  -13.8224  -10.9985 N   0  0  0  0  0  0  0  0  0  0  0  0
   15.7590  -13.2145  -11.9689 C   0  0  0  0  0  0  0  0  0  0  0  0
   16.4618  -13.9118  -12.7174 O   0  0  0  0  0  0  0  0  0  0  0  0
   15.7678  -11.7503  -12.0860 C   0  0  0  0  0  0  0  0  0  0  0  0
   14.8789  -11.0124  -11.1541 C   0  0  2  0  0  0  0  0  0  0  0  0
   13.4889  -11.2276  -11.3302 N   0  0  0  0  0  0  0  0  0  0  0  0
   15.2362   -9.5693  -11.2351 C   0  0  0  0  0  0  0  0  0  0  0  0
   14.8127   -8.8783  -12.1933 O   0  0  0  0  0  0  0  0  0  0  0  0
   13.9596   -6.4864   -7.4588 C   0  0  0  0  0  0  0  0  0  0  0  0
   14.3735   -6.8560   -8.8494 C   0  0  0  0  0  0  0  0  0  0  0  0
   15.8479   -6.9285   -9.0405 C   0  0  2  0  0  0  0  0  0  0  0  0
   16.4097   -5.5596   -8.7207 C   0  0  0  0  0  0  0  0  0  0  0  0
   16.3406   -7.4704  -10.3359 C   0  0  2  0  0  0  0  0  0  0  0  0
   16.0472   -8.9259  -10.2633 N   0  0  0  0  0  0  0  0  0  0  0  0
   17.7578   -7.2752  -10.6341 C   0  0  0  0  0  0  0  0  0  0  0  0
   18.6312   -7.9057   -9.9421 O   0  0  0  0  0  0  0  0  0  0  0  0
   23.6009   -9.9327  -13.6826 C   0  0  0  0  0  0  0  0  0  0  0  0
   21.7866   -9.6977  -13.5995 S   0  0  0  0  0  0  0  0  0  0  0  0
   21.4127   -7.9989  -13.0895 C   0  0  0  0  0  0  0  0  0  0  0  0
   19.9782   -7.9120  -12.6310 C   0  0  0  0  0  0  0  0  0  0  0  0
   19.6609   -6.5324  -12.0797 C   0  0  2  0  0  0  0  0  0  0  0  0
   18.2837   -6.4404  -11.6382 N   0  0  0  0  0  0  0  0  0  0  0  0
   19.9115   -5.5143  -13.1063 C   0  0  0  0  0  0  0  0  0  0  0  0
   18.9932   -5.0151  -13.8244 O   0  0  0  0  0  0  0  0  0  0  0  0
   21.1962   -5.0586  -13.3239 O   0  0  0  0  0  0  0  0  0  0  0  0
  2  1  1  0
  3  2  2  0
  4  2  1  0
  5  6  1  6
  5  4  1  0
  7  5  1  0
  8  7  2  0
  9 10  1  0
 11 10  1  0
 11 13  1  0
 11 12  1  6
 13 14  1  1
 14  7  1  0
 15 13  1  0
 15 16  2  0
 18 17  1  0
 19 18  1  0
 20 19  1  0
 21 20  1  6
 22 21  1  0
 22 15  1  0
 23 21  1  0
 24 23  2  0
 25 23  1  0
M  END
$$$$
