NIM.pdb
     RDKit          3D

 25 24  0  0  1  0  0  0  0  0999 V2000
   28.5215  -20.2193  -17.2734 N   0  0  0  0  0  0  0  0  0  0  0  0
   27.8799  -19.1438  -16.6366 C   0  0  0  0  0  0  0  0  0  0  0  0
   27.7500  -18.0592  -17.2260 O   0  0  0  0  0  0  0  0  0  0  0  0
   27.3672  -19.3180  -15.2711 C   0  0  0  0  0  0  0  0  0  0  0  0
   27.7100  -20.5967  -14.6000 C   0  0  2  0  0  0  0  0  0  0  0  0
   28.1624  -21.6360  -15.4513 N   0  0  0  0  0  0  0  0  0  0  0  0
   26.5330  -21.0114  -13.7880 C   0  0  0  0  0  0  0  0  0  0  0  0
   25.8061  -21.9541  -14.1856 O   0  0  0  0  0  0  0  0  0  0  0  0
   27.0819  -20.6968   -8.5118 C   0  0  0  0  0  0  0  0  0  0  0  0
   26.6425  -21.1911   -9.8551 C   0  0  0  0  0  0  0  0  0  0  0  0
   25.3972  -20.5482  -10.3564 C   0  0  2  0  0  0  0  0  0  0  0  0
   24.2960  -20.8728   -9.3697 C   0  0  0  0  0  0  0  0  0  0  0  0
   25.0113  -20.8202  -11.7677 C   0  0  2  0  0  0  0  0  0  0  0  0
   26.1872  -20.3805  -12.5637 N   0  0  0  0  0  0  0  0  0  0  0  0
   23.8116  -20.1485  -12.2626 C   0  0  0  0  0  0  0  0  0  0  0  0
   23.9393  -19.0905  -12.9722 O   0  0  0  0  0  0  0  0  0  0  0  0
   22.7460  -21.0161  -17.2212 C   0  0  0  0  0  0  0  0  0  0  0  0
   20.9438  -21.1704  -16.9355 S   0  0  0  0  0  0  0  0  0  0  0  0
   20.5325  -20.5586  -15.2795 C   0  0  0  0  0  0  0  0  0  0  0  0
   21.6822  -20.8267  -14.3405 C   0  0  0  0  0  0  0  0  0  0  0  0
   21.4106  -20.2501  -12.9615 C   0  0  2  0  0  0  0  0  0  0  0  0
   22.4834  -20.5565  -12.0366 N   0  0  0  0  0  0  0  0  0  0  0  0
   20.1486  -20.7838  -12.4365 C   0  0  0  0  0  0  0  0  0  0  0  0
   20.0718  -21.8772  -11.7987 O   0  0  0  0  0  0  0  0  0  0  0  0
   18.9733  -20.0861  -12.6299 O   0  0  0  0  0  0  0  0  0  0  0  0
  2  1  1  0
  3  2  2  0
  4  2  1  0
  5  6  1  6
  5  4  1  0
  7  5  1  0
  8  7  2  0
  9 10  1  0
 11 10  1  0
 11 13  1  0
 11 12  1  1
 13 14  1  6
 14  7  1  0
 15 13  1  0
 15 16  2  0
 18 17  1  0
 19 18  1  0
 20 19  1  0
 21 20  1  6
 22 21  1  0
 22 15  1  0
 23 21  1  0
 24 23  2  0
 25 23  1  0
M  END
$$$$
