NIM.pdb
     RDKit          3D

 25 24  0  0  1  0  0  0  0  0999 V2000
   26.7522  -26.5196  -17.0602 N   0  0  0  0  0  0  0  0  0  0  0  0
   26.6198  -25.1277  -17.1974 C   0  0  0  0  0  0  0  0  0  0  0  0
   25.9203  -24.6557  -18.1076 O   0  0  0  0  0  0  0  0  0  0  0  0
   27.3162  -24.2422  -16.2547 C   0  0  0  0  0  0  0  0  0  0  0  0
   28.0881  -23.1245  -16.8529 C   0  0  2  0  0  0  0  0  0  0  0  0
   29.3428  -23.4738  -17.4124 N   0  0  0  0  0  0  0  0  0  0  0  0
   28.2130  -22.0578  -15.8217 C   0  0  0  0  0  0  0  0  0  0  0  0
   29.3136  -21.8774  -15.2461 O   0  0  0  0  0  0  0  0  0  0  0  0
   26.7284  -16.4204  -14.9635 C   0  0  0  0  0  0  0  0  0  0  0  0
   26.9342  -17.6897  -14.1967 C   0  0  0  0  0  0  0  0  0  0  0  0
   26.9496  -18.9118  -15.0464 C   0  0  2  0  0  0  0  0  0  0  0  0
   25.6428  -18.9439  -15.8099 C   0  0  0  0  0  0  0  0  0  0  0  0
   27.2627  -20.2030  -14.3761 C   0  0  2  0  0  0  0  0  0  0  0  0
   27.1278  -21.2202  -15.4516 N   0  0  0  0  0  0  0  0  0  0  0  0
   26.4177  -20.5783  -13.2444 C   0  0  0  0  0  0  0  0  0  0  0  0
   25.3745  -21.2896  -13.4564 O   0  0  0  0  0  0  0  0  0  0  0  0
   27.6333  -19.3334   -6.9998 C   0  0  0  0  0  0  0  0  0  0  0  0
   25.9926  -20.1131   -6.7680 S   0  0  0  0  0  0  0  0  0  0  0  0
   25.3552  -20.6836   -8.3662 C   0  0  0  0  0  0  0  0  0  0  0  0
   26.2636  -20.2081   -9.4726 C   0  0  0  0  0  0  0  0  0  0  0  0
   25.8034  -20.7300  -10.8230 C   0  0  2  0  0  0  0  0  0  0  0  0
   26.6376  -20.2311  -11.8980 N   0  0  0  0  0  0  0  0  0  0  0  0
   24.4113  -20.3338  -11.0639 C   0  0  0  0  0  0  0  0  0  0  0  0
   24.0886  -19.2304  -11.5993 O   0  0  0  0  0  0  0  0  0  0  0  0
   23.3827  -21.1802  -10.7016 O   0  0  0  0  0  0  0  0  0  0  0  0
  2  1  1  0
  3  2  2  0
  4  2  1  0
  5  6  1  1
  5  4  1  0
  7  5  1  0
  8  7  2  0
  9 10  1  0
 11 10  1  0
 11 13  1  0
 11 12  1  1
 13 14  1  6
 14  7  1  0
 15 13  1  0
 15 16  2  0
 18 17  1  0
 19 18  1  0
 20 19  1  0
 21 20  1  1
 22 21  1  0
 22 15  1  0
 23 21  1  0
 24 23  2  0
 25 23  1  0
M  END
$$$$
