NIM.pdb
     RDKit          3D

 25 24  0  0  1  0  0  0  0  0999 V2000
   16.2718  -13.1302  -15.0513 N   0  0  0  0  0  0  0  0  0  0  0  0
   16.0478  -12.5893  -13.7743 C   0  0  0  0  0  0  0  0  0  0  0  0
   15.8492  -13.3402  -12.8062 O   0  0  0  0  0  0  0  0  0  0  0  0
   16.0516  -11.1307  -13.5997 C   0  0  0  0  0  0  0  0  0  0  0  0
   14.9872  -10.5715  -12.7296 C   0  0  2  0  0  0  0  0  0  0  0  0
   13.6636  -10.6910  -13.2230 N   0  0  0  0  0  0  0  0  0  0  0  0
   15.3458   -9.1586  -12.4268 C   0  0  0  0  0  0  0  0  0  0  0  0
   15.1401   -8.2684  -13.2872 O   0  0  0  0  0  0  0  0  0  0  0  0
   14.1081   -7.0979   -7.7759 C   0  0  0  0  0  0  0  0  0  0  0  0
   14.4367   -7.1326   -9.2362 C   0  0  0  0  0  0  0  0  0  0  0  0
   15.8962   -7.1018   -9.5268 C   0  0  2  0  0  0  0  0  0  0  0  0
   16.4367   -5.8009   -8.9726 C   0  0  0  0  0  0  0  0  0  0  0  0
   16.3159   -7.3535  -10.9322 C   0  0  2  0  0  0  0  0  0  0  0  0
   15.9194   -8.7628  -11.1897 N   0  0  0  0  0  0  0  0  0  0  0  0
   17.7356   -7.1857  -11.2346 C   0  0  0  0  0  0  0  0  0  0  0  0
   18.6001   -7.8128  -10.5285 O   0  0  0  0  0  0  0  0  0  0  0  0
   22.5599  -10.2568  -13.5739 C   0  0  0  0  0  0  0  0  0  0  0  0
   21.9273   -9.0331  -14.7805 S   0  0  0  0  0  0  0  0  0  0  0  0
   21.4778   -7.5021  -13.9203 C   0  0  0  0  0  0  0  0  0  0  0  0
   20.0582   -7.6005  -13.4198 C   0  0  0  0  0  0  0  0  0  0  0  0
   19.6848   -6.3868  -12.5861 C   0  0  2  0  0  0  0  0  0  0  0  0
   18.2733   -6.3815  -12.2574 N   0  0  0  0  0  0  0  0  0  0  0  0
   20.0189   -5.1578  -13.3150 C   0  0  0  0  0  0  0  0  0  0  0  0
   19.1468   -4.4254  -13.8728 O   0  0  0  0  0  0  0  0  0  0  0  0
   21.3351   -4.7541  -13.4157 O   0  0  0  0  0  0  0  0  0  0  0  0
  2  1  1  0
  3  2  2  0
  4  2  1  0
  5  6  1  6
  5  4  1  0
  7  5  1  0
  8  7  2  0
  9 10  1  0
 11 10  1  0
 11 13  1  0
 11 12  1  6
 13 14  1  1
 14  7  1  0
 15 13  1  0
 15 16  2  0
 18 17  1  0
 19 18  1  0
 20 19  1  0
 21 20  1  6
 22 21  1  0
 22 15  1  0
 23 21  1  0
 24 23  2  0
 25 23  1  0
M  END
$$$$
