NIM.pdb
     RDKit          3D

 25 24  0  0  1  0  0  0  0  0999 V2000
   19.0822  -22.8467  -16.3191 N   0  0  0  0  0  0  0  0  0  0  0  0
   18.7853  -23.9923  -15.5620 C   0  0  0  0  0  0  0  0  0  0  0  0
   18.1587  -24.9326  -16.0755 O   0  0  0  0  0  0  0  0  0  0  0  0
   19.2235  -24.0630  -14.1618 C   0  0  0  0  0  0  0  0  0  0  0  0
   19.9971  -22.9012  -13.6571 C   0  0  2  0  0  0  0  0  0  0  0  0
   21.2041  -22.6204  -14.3454 N   0  0  0  0  0  0  0  0  0  0  0  0
   20.2189  -23.1040  -12.1990 C   0  0  0  0  0  0  0  0  0  0  0  0
   21.3615  -23.4143  -11.7826 O   0  0  0  0  0  0  0  0  0  0  0  0
   20.8360  -19.3164   -9.6894 C   0  0  0  0  0  0  0  0  0  0  0  0
   20.6955  -20.7353  -10.1462 C   0  0  0  0  0  0  0  0  0  0  0  0
   19.6071  -21.4845   -9.4609 C   0  0  2  0  0  0  0  0  0  0  0  0
   19.7449  -21.2188   -7.9769 C   0  0  0  0  0  0  0  0  0  0  0  0
   19.4699  -22.9311   -9.7818 C   0  0  2  0  0  0  0  0  0  0  0  0
   19.1817  -22.9607  -11.2398 N   0  0  0  0  0  0  0  0  0  0  0  0
   18.4301  -23.6677   -9.0665 C   0  0  0  0  0  0  0  0  0  0  0  0
   17.2211  -23.2504   -9.1241 O   0  0  0  0  0  0  0  0  0  0  0  0
   19.7384  -26.4193   -3.5721 C   0  0  0  0  0  0  0  0  0  0  0  0
   17.9713  -26.8989   -3.6012 S   0  0  0  0  0  0  0  0  0  0  0  0
   17.1804  -26.2298   -5.0887 C   0  0  0  0  0  0  0  0  0  0  0  0
   18.2379  -25.7745   -6.0634 C   0  0  0  0  0  0  0  0  0  0  0  0
   17.6179  -25.3238   -7.3749 C   0  0  2  0  0  0  0  0  0  0  0  0
   18.6223  -24.8298   -8.2955 N   0  0  0  0  0  0  0  0  0  0  0  0
   16.6282  -24.2700   -7.1237 C   0  0  0  0  0  0  0  0  0  0  0  0
   16.9458  -23.0834   -6.8082 O   0  0  0  0  0  0  0  0  0  0  0  0
   15.2810  -24.5526   -7.2279 O   0  0  0  0  0  0  0  0  0  0  0  0
  2  1  1  0
  3  2  2  0
  4  2  1  0
  5  6  1  6
  5  4  1  0
  7  5  1  0
  8  7  2  0
  9 10  1  0
 11 10  1  0
 11 13  1  0
 11 12  1  1
 13 14  1  6
 14  7  1  0
 15 13  1  0
 15 16  2  0
 18 17  1  0
 19 18  1  0
 20 19  1  0
 21 20  1  1
 22 21  1  0
 22 15  1  0
 23 21  1  0
 24 23  2  0
 25 23  1  0
M  END
$$$$
