NIM.pdb
     RDKit          3D

 25 24  0  0  1  0  0  0  0  0999 V2000
   18.5748  -28.1599  -11.8905 N   0  0  0  0  0  0  0  0  0  0  0  0
   19.0643  -28.6561  -10.6708 C   0  0  0  0  0  0  0  0  0  0  0  0
   19.4761  -29.8244  -10.5943 O   0  0  0  0  0  0  0  0  0  0  0  0
   19.0827  -27.7790   -9.4925 C   0  0  0  0  0  0  0  0  0  0  0  0
   18.5129  -26.4209   -9.6769 C   0  0  2  0  0  0  0  0  0  0  0  0
   19.1801  -25.5966  -10.6175 N   0  0  0  0  0  0  0  0  0  0  0  0
   18.4250  -25.7810   -8.3355 C   0  0  0  0  0  0  0  0  0  0  0  0
   19.3653  -25.0542   -7.9322 O   0  0  0  0  0  0  0  0  0  0  0  0
   14.6547  -22.5657   -7.3694 C   0  0  0  0  0  0  0  0  0  0  0  0
   15.9475  -23.3179   -7.3034 C   0  0  0  0  0  0  0  0  0  0  0  0
   15.9475  -24.4314   -6.3157 C   0  0  2  0  0  0  0  0  0  0  0  0
   15.4693  -23.8618   -4.9972 C   0  0  0  0  0  0  0  0  0  0  0  0
   17.1991  -25.2259   -6.1855 C   0  0  2  0  0  0  0  0  0  0  0  0
   17.3090  -25.9566   -7.4753 N   0  0  0  0  0  0  0  0  0  0  0  0
   17.2605  -26.1800   -5.0804 C   0  0  0  0  0  0  0  0  0  0  0  0
   16.4576  -27.1772   -5.0746 O   0  0  0  0  0  0  0  0  0  0  0  0
   20.6754  -25.8146    0.8158 C   0  0  0  0  0  0  0  0  0  0  0  0
   20.5470  -27.5819    0.3536 S   0  0  0  0  0  0  0  0  0  0  0  0
   19.1320  -27.8233   -0.7534 C   0  0  0  0  0  0  0  0  0  0  0  0
   19.2453  -26.8880   -1.9315 C   0  0  0  0  0  0  0  0  0  0  0  0
   18.0714  -27.0563   -2.8808 C   0  0  2  0  0  0  0  0  0  0  0  0
   18.1411  -26.1188   -3.9838 N   0  0  0  0  0  0  0  0  0  0  0  0
   16.8106  -26.8613   -2.1559 C   0  0  0  0  0  0  0  0  0  0  0  0
   16.2828  -25.7217   -1.9798 O   0  0  0  0  0  0  0  0  0  0  0  0
   16.1445  -27.9496   -1.6292 O   0  0  0  0  0  0  0  0  0  0  0  0
  2  1  1  0
  3  2  2  0
  4  2  1  0
  5  6  1  6
  5  4  1  0
  7  5  1  0
  8  7  2  0
  9 10  1  0
 11 10  1  0
 11 13  1  0
 11 12  1  1
 13 14  1  6
 14  7  1  0
 15 13  1  0
 15 16  2  0
 18 17  1  0
 19 18  1  0
 20 19  1  0
 21 20  1  1
 22 21  1  0
 22 15  1  0
 23 21  1  0
 24 23  2  0
 25 23  1  0
M  END
$$$$
