NIM.pdb
     RDKit          3D

 25 24  0  0  1  0  0  0  0  0999 V2000
   15.6647  -10.5673  -16.8786 N   0  0  0  0  0  0  0  0  0  0  0  0
   14.8370  -10.2224  -15.7971 C   0  0  0  0  0  0  0  0  0  0  0  0
   13.6067  -10.1619  -15.9494 O   0  0  0  0  0  0  0  0  0  0  0  0
   15.4430   -9.9357  -14.4900 C   0  0  0  0  0  0  0  0  0  0  0  0
   16.9182  -10.0755  -14.4062 C   0  0  2  0  0  0  0  0  0  0  0  0
   17.4158  -11.4006  -14.4832 N   0  0  0  0  0  0  0  0  0  0  0  0
   17.3692   -9.3797  -13.1696 C   0  0  0  0  0  0  0  0  0  0  0  0
   17.3894  -10.0021  -12.0800 O   0  0  0  0  0  0  0  0  0  0  0  0
   21.9832   -7.1238  -13.2589 C   0  0  0  0  0  0  0  0  0  0  0  0
   20.7034   -7.7768  -12.8379 C   0  0  0  0  0  0  0  0  0  0  0  0
   19.6531   -6.8177  -12.3990 C   0  0  2  0  0  0  0  0  0  0  0  0
   20.2841   -5.8989  -11.3747 C   0  0  0  0  0  0  0  0  0  0  0  0
   18.3559   -7.3892  -11.9457 C   0  0  2  0  0  0  0  0  0  0  0  0
   17.7850   -8.0220  -13.1636 N   0  0  0  0  0  0  0  0  0  0  0  0
   17.3848   -6.4525  -11.3847 C   0  0  0  0  0  0  0  0  0  0  0  0
   16.8127   -5.6106  -12.1614 O   0  0  0  0  0  0  0  0  0  0  0  0
   12.0750   -4.7211   -5.7669 C   0  0  0  0  0  0  0  0  0  0  0  0
   13.4778   -5.7752   -6.2909 S   0  0  0  0  0  0  0  0  0  0  0  0
   14.2196   -5.1000   -7.8007 C   0  0  0  0  0  0  0  0  0  0  0  0
   15.2901   -6.0372   -8.3019 C   0  0  0  0  0  0  0  0  0  0  0  0
   15.9146   -5.5202   -9.5866 C   0  0  2  0  0  0  0  0  0  0  0  0
   16.9953   -6.3759  -10.0341 N   0  0  0  0  0  0  0  0  0  0  0  0
   16.4246   -4.1596   -9.3821 C   0  0  0  0  0  0  0  0  0  0  0  0
   17.6171   -3.9136   -9.0277 O   0  0  0  0  0  0  0  0  0  0  0  0
   15.5914   -3.0763   -9.5767 O   0  0  0  0  0  0  0  0  0  0  0  0
  2  1  1  0
  3  2  2  0
  4  2  1  0
  5  6  1  1
  5  4  1  0
  7  5  1  0
  8  7  2  0
  9 10  1  0
 11 10  1  0
 11 13  1  0
 11 12  1  1
 13 14  1  6
 14  7  1  0
 15 13  1  0
 15 16  2  0
 18 17  1  0
 19 18  1  0
 20 19  1  0
 21 20  1  1
 22 21  1  0
 22 15  1  0
 23 21  1  0
 24 23  2  0
 25 23  1  0
M  END
$$$$
