LPN.pdb
     RDKit          3D

 24 24  0  0  1  0  0  0  0  0999 V2000
    9.0059  -13.0189   20.8803 C   0  0  0  0  0  0  0  0  0  0  0  0
    7.9358  -13.5743   19.9428 C   0  0  2  0  0  0  0  0  0  0  0  0
    7.3919  -12.4014   19.1579 C   0  0  0  0  0  0  0  0  0  0  0  0
    6.8290  -14.1446   20.7673 C   0  0  0  0  0  0  0  0  0  0  0  0
    7.3088  -15.2446   21.6967 C   0  0  2  0  0  0  0  0  0  0  0  0
    6.0982  -15.8374   22.2852 N   0  0  0  0  0  0  0  0  0  0  0  0
    8.1373  -14.6289   22.7654 C   0  0  0  0  0  0  0  0  0  0  0  0
    9.3603  -14.3867   22.4748 O   0  0  0  0  0  0  0  0  0  0  0  0
    7.6846  -14.2937   24.0559 N   0  0  0  0  0  0  0  0  0  0  0  0
    6.3186  -14.1400   24.4477 C   0  0  0  0  0  0  0  0  0  0  0  0
    6.3672  -13.0515   25.4929 C   0  0  0  0  0  0  0  0  0  0  0  0
    7.8030  -12.8940   25.8757 C   0  0  0  0  0  0  0  0  0  0  0  0
    8.5080  -14.0756   25.2029 C   0  0  1  0  0  0  0  0  0  0  0  0
    8.6541  -15.2342   26.0970 C   0  0  0  0  0  0  0  0  0  0  0  0
    7.6540  -16.0220   26.1755 O   0  0  0  0  0  0  0  0  0  0  0  0
   10.9372  -19.5822   27.3043 N   0  0  0  0  0  0  0  0  0  0  0  0
    9.6722  -19.2639   26.6819 C   0  0  0  0  0  0  0  0  0  0  0  0
    8.9873  -20.2490   26.2800 O   0  0  0  0  0  0  0  0  0  0  0  0
    9.2448  -17.8550   26.5444 C   0  0  0  0  0  0  0  0  0  0  0  0
   10.2674  -16.8889   27.0819 C   0  0  2  0  0  0  0  0  0  0  0  0
    9.7879  -15.5320   26.8567 N   0  0  0  0  0  0  0  0  0  0  0  0
   11.5269  -17.1235   26.3079 C   0  0  0  0  0  0  0  0  0  0  0  0
   12.6151  -17.3088   26.9222 O   0  0  0  0  0  0  0  0  0  0  0  0
   11.5769  -17.1509   24.9231 O   0  0  0  0  0  0  0  0  0  0  0  0
  2  1  1  1
  3  2  1  0
  4  5  1  0
  4  2  1  0
  5  7  1  0
  5  6  1  1
  7  9  1  0
  7  8  2  0
  9 10  1  0
 10 11  1  0
 12 11  1  0
 13  9  1  0
 13 12  1  0
 14 15  2  0
 13 14  1  1
 16 17  1  0
 17 18  2  0
 17 19  1  0
 20 19  1  6
 20 21  1  0
 20 22  1  0
 21 14  1  0
 22 24  1  0
 23 22  2  0
M  END
$$$$
