LPN.pdb
     RDKit          3D

 24 24  0  0  1  0  0  0  0  0999 V2000
    7.9904  -12.8267   26.9007 C   0  0  0  0  0  0  0  0  0  0  0  0
    7.0883  -13.5944   25.9367 C   0  0  2  0  0  0  0  0  0  0  0  0
    5.8271  -12.7756   25.7734 C   0  0  0  0  0  0  0  0  0  0  0  0
    6.7252  -14.9011   26.5616 C   0  0  0  0  0  0  0  0  0  0  0  0
    6.1754  -15.8916   25.5513 C   0  0  2  0  0  0  0  0  0  0  0  0
    5.8423  -17.1060   26.3112 N   0  0  0  0  0  0  0  0  0  0  0  0
    7.2417  -16.1946   24.5619 C   0  0  0  0  0  0  0  0  0  0  0  0
    7.9665  -17.2232   24.7971 O   0  0  0  0  0  0  0  0  0  0  0  0
    7.5100  -15.4475   23.3990 N   0  0  0  0  0  0  0  0  0  0  0  0
    6.9863  -14.1517   23.0998 C   0  0  0  0  0  0  0  0  0  0  0  0
    6.8290  -14.1681   21.5981 C   0  0  0  0  0  0  0  0  0  0  0  0
    7.5957  -15.3514   21.1037 C   0  0  0  0  0  0  0  0  0  0  0  0
    8.3720  -15.8413   22.3298 C   0  0  1  0  0  0  0  0  0  0  0  0
    9.7365  -15.2961   22.3937 C   0  0  0  0  0  0  0  0  0  0  0  0
    9.8522  -14.1013   22.8252 O   0  0  0  0  0  0  0  0  0  0  0  0
   13.9854  -16.7883   24.8041 N   0  0  0  0  0  0  0  0  0  0  0  0
   12.6808  -17.3810   24.9921 C   0  0  0  0  0  0  0  0  0  0  0  0
   12.5575  -18.1474   25.9914 O   0  0  0  0  0  0  0  0  0  0  0  0
   11.5842  -17.0806   24.0466 C   0  0  0  0  0  0  0  0  0  0  0  0
   12.0264  -16.1856   22.9190 C   0  0  2  0  0  0  0  0  0  0  0  0
   10.8980  -15.9771   22.0217 N   0  0  0  0  0  0  0  0  0  0  0  0
   13.1246  -16.9086   22.2036 C   0  0  0  0  0  0  0  0  0  0  0  0
   12.8515  -17.9128   21.4873 O   0  0  0  0  0  0  0  0  0  0  0  0
   14.4576  -16.5370   22.2791 O   0  0  0  0  0  0  0  0  0  0  0  0
  2  1  1  1
  3  2  1  0
  4  5  1  0
  4  2  1  0
  5  7  1  0
  5  6  1  1
  7  9  1  0
  7  8  2  0
  9 10  1  0
 10 11  1  0
 12 11  1  0
 13  9  1  0
 13 12  1  0
 14 15  2  0
 13 14  1  1
 16 17  1  0
 17 18  2  0
 17 19  1  0
 20 19  1  1
 20 21  1  0
 20 22  1  0
 21 14  1  0
 22 24  1  0
 23 22  2  0
M  END
$$$$
