LPN.pdb
     RDKit          3D

 24 24  0  0  1  0  0  0  0  0999 V2000
    6.3814  -12.6241   27.5358 C   0  0  0  0  0  0  0  0  0  0  0  0
    7.1007  -13.6106   26.6184 C   0  0  2  0  0  0  0  0  0  0  0  0
    8.4229  -12.9768   26.2471 C   0  0  0  0  0  0  0  0  0  0  0  0
    6.2929  -13.7809   25.3741 C   0  0  0  0  0  0  0  0  0  0  0  0
    5.9649  -15.2360   25.0929 C   0  0  2  0  0  0  0  0  0  0  0  0
    5.8955  -15.8987   26.4042 N   0  0  0  0  0  0  0  0  0  0  0  0
    7.0714  -15.8211   24.2923 C   0  0  0  0  0  0  0  0  0  0  0  0
    7.5076  -16.9648   24.6668 O   0  0  0  0  0  0  0  0  0  0  0  0
    7.6671  -15.2218   23.1658 N   0  0  0  0  0  0  0  0  0  0  0  0
    7.4907  -13.8656   22.7505 C   0  0  0  0  0  0  0  0  0  0  0  0
    7.5588  -13.9418   21.2440 C   0  0  0  0  0  0  0  0  0  0  0  0
    8.1122  -15.2893   20.9115 C   0  0  0  0  0  0  0  0  0  0  0  0
    8.5709  -15.8553   22.2587 C   0  0  1  0  0  0  0  0  0  0  0  0
    9.9966  -15.6092   22.5228 C   0  0  0  0  0  0  0  0  0  0  0  0
   10.2852  -14.5174   23.1159 O   0  0  0  0  0  0  0  0  0  0  0  0
   10.9197  -18.8108   25.8314 N   0  0  0  0  0  0  0  0  0  0  0  0
   11.7565  -17.8436   25.1581 C   0  0  0  0  0  0  0  0  0  0  0  0
   12.1842  -16.8884   25.8693 O   0  0  0  0  0  0  0  0  0  0  0  0
   12.0678  -18.0019   23.7212 C   0  0  0  0  0  0  0  0  0  0  0  0
   12.2153  -16.6795   23.0159 C   0  0  2  0  0  0  0  0  0  0  0  0
   11.0434  -16.4672   22.1771 N   0  0  0  0  0  0  0  0  0  0  0  0
   13.4433  -16.7817   22.1661 C   0  0  0  0  0  0  0  0  0  0  0  0
   13.4166  -17.4677   21.1056 O   0  0  0  0  0  0  0  0  0  0  0  0
   14.6399  -16.1554   22.4769 O   0  0  0  0  0  0  0  0  0  0  0  0
  2  1  1  1
  3  2  1  0
  4  5  1  0
  4  2  1  0
  5  7  1  0
  5  6  1  1
  7  9  1  0
  7  8  2  0
  9 10  1  0
 10 11  1  0
 12 11  1  0
 13  9  1  0
 13 12  1  0
 14 15  2  0
 13 14  1  1
 16 17  1  0
 17 18  2  0
 17 19  1  0
 20 19  1  6
 20 21  1  0
 20 22  1  0
 21 14  1  0
 22 24  1  0
 23 22  2  0
M  END
$$$$
