LPN.pdb
     RDKit          3D

 24 24  0  0  1  0  0  0  0  0999 V2000
    5.6433  -12.4406   26.0227 C   0  0  0  0  0  0  0  0  0  0  0  0
    6.6380  -13.1893   26.9071 C   0  0  2  0  0  0  0  0  0  0  0  0
    7.5244  -12.1448   27.5481 C   0  0  0  0  0  0  0  0  0  0  0  0
    7.4860  -14.0601   26.0396 C   0  0  0  0  0  0  0  0  0  0  0  0
    6.7018  -15.2089   25.4318 C   0  0  2  0  0  0  0  0  0  0  0  0
    6.4382  -16.1491   26.5316 N   0  0  0  0  0  0  0  0  0  0  0  0
    7.5497  -15.8644   24.4026 C   0  0  0  0  0  0  0  0  0  0  0  0
    7.9891  -17.0338   24.6819 O   0  0  0  0  0  0  0  0  0  0  0  0
    7.8996  -15.3051   23.1587 N   0  0  0  0  0  0  0  0  0  0  0  0
    7.5168  -14.0110   22.6877 C   0  0  0  0  0  0  0  0  0  0  0  0
    7.3640  -14.2040   21.1980 C   0  0  0  0  0  0  0  0  0  0  0  0
    8.0032  -15.5146   20.8717 C   0  0  0  0  0  0  0  0  0  0  0  0
    8.7189  -15.9210   22.1634 C   0  0  1  0  0  0  0  0  0  0  0  0
   10.1332  -15.5175   22.1805 C   0  0  0  0  0  0  0  0  0  0  0  0
   10.3951  -14.3839   22.7033 O   0  0  0  0  0  0  0  0  0  0  0  0
   13.6052  -17.1739   25.4979 N   0  0  0  0  0  0  0  0  0  0  0  0
   13.1335  -17.9639   24.3834 C   0  0  0  0  0  0  0  0  0  0  0  0
   13.7655  -19.0362   24.1554 O   0  0  0  0  0  0  0  0  0  0  0  0
   11.9764  -17.5062   23.5844 C   0  0  0  0  0  0  0  0  0  0  0  0
   12.3824  -16.6036   22.4494 C   0  0  2  0  0  0  0  0  0  0  0  0
   11.1954  -16.2700   21.6738 N   0  0  0  0  0  0  0  0  0  0  0  0
   13.3446  -17.3812   21.6067 C   0  0  0  0  0  0  0  0  0  0  0  0
   14.5155  -16.9428   21.4253 O   0  0  0  0  0  0  0  0  0  0  0  0
   13.0244  -18.5834   20.9960 O   0  0  0  0  0  0  0  0  0  0  0  0
  2  1  1  6
  3  2  1  0
  4  5  1  0
  4  2  1  0
  5  7  1  0
  5  6  1  1
  7  9  1  0
  7  8  2  0
  9 10  1  0
 10 11  1  0
 12 11  1  0
 13  9  1  0
 13 12  1  0
 14 15  2  0
 13 14  1  6
 16 17  1  0
 17 18  2  0
 17 19  1  0
 20 19  1  1
 20 21  1  0
 20 22  1  0
 21 14  1  0
 22 24  1  0
 23 22  2  0
M  END
$$$$
