LPN.pdb
     RDKit          3D

 24 24  0  0  1  0  0  0  0  0999 V2000
    8.0664  -12.6297   26.8492 C   0  0  0  0  0  0  0  0  0  0  0  0
    7.1389  -13.3929   25.9060 C   0  0  2  0  0  0  0  0  0  0  0  0
    5.8063  -12.6780   25.9314 C   0  0  0  0  0  0  0  0  0  0  0  0
    6.9445  -14.7731   26.4418 C   0  0  0  0  0  0  0  0  0  0  0  0
    6.4134  -15.7312   25.3911 C   0  0  2  0  0  0  0  0  0  0  0  0
    5.9551  -16.9229   26.1210 N   0  0  0  0  0  0  0  0  0  0  0  0
    7.5298  -16.0974   24.4816 C   0  0  0  0  0  0  0  0  0  0  0  0
    8.1989  -17.1449   24.7880 O   0  0  0  0  0  0  0  0  0  0  0  0
    7.9012  -15.3904   23.3219 N   0  0  0  0  0  0  0  0  0  0  0  0
    7.6605  -14.0029   23.0770 C   0  0  0  0  0  0  0  0  0  0  0  0
    7.4341  -13.9376   21.5856 C   0  0  0  0  0  0  0  0  0  0  0  0
    7.8995  -15.2433   21.0277 C   0  0  0  0  0  0  0  0  0  0  0  0
    8.6056  -15.9286   22.2015 C   0  0  1  0  0  0  0  0  0  0  0  0
   10.0578  -15.6957   22.2054 C   0  0  0  0  0  0  0  0  0  0  0  0
   10.6811  -15.9708   21.1271 O   0  0  0  0  0  0  0  0  0  0  0  0
   12.2753  -18.2041   26.4968 N   0  0  0  0  0  0  0  0  0  0  0  0
   12.1612  -18.1994   25.0560 C   0  0  0  0  0  0  0  0  0  0  0  0
   12.9292  -18.9906   24.4353 O   0  0  0  0  0  0  0  0  0  0  0  0
   11.1897  -17.3054   24.3899 C   0  0  0  0  0  0  0  0  0  0  0  0
   11.8006  -15.9879   23.9909 C   0  0  2  0  0  0  0  0  0  0  0  0
   10.7955  -15.2046   23.2852 N   0  0  0  0  0  0  0  0  0  0  0  0
   12.9413  -16.3045   23.0749 C   0  0  0  0  0  0  0  0  0  0  0  0
   14.1236  -16.0364   23.4299 O   0  0  0  0  0  0  0  0  0  0  0  0
   12.7788  -16.8882   21.8284 O   0  0  0  0  0  0  0  0  0  0  0  0
  2  1  1  1
  3  2  1  0
  4  5  1  0
  4  2  1  0
  5  7  1  0
  5  6  1  1
  7  9  1  0
  7  8  2  0
  9 10  1  0
 10 11  1  0
 12 11  1  0
 13  9  1  0
 13 12  1  0
 14 15  2  0
 13 14  1  1
 16 17  1  0
 17 18  2  0
 17 19  1  0
 20 19  1  6
 20 21  1  0
 20 22  1  0
 21 14  1  0
 22 24  1  0
 23 22  2  0
M  END
$$$$
