LPN.pdb
     RDKit          3D

 24 24  0  0  1  0  0  0  0  0999 V2000
    8.8148  -13.3587   27.3323 C   0  0  0  0  0  0  0  0  0  0  0  0
    7.7704  -13.7654   26.2949 C   0  0  2  0  0  0  0  0  0  0  0  0
    6.7306  -12.6673   26.2687 C   0  0  0  0  0  0  0  0  0  0  0  0
    7.1132  -15.0270   26.7490 C   0  0  0  0  0  0  0  0  0  0  0  0
    6.1815  -15.6035   25.6985 C   0  0  2  0  0  0  0  0  0  0  0  0
    5.4343  -16.6815   26.3642 N   0  0  0  0  0  0  0  0  0  0  0  0
    7.0053  -16.1683   24.5985 C   0  0  0  0  0  0  0  0  0  0  0  0
    7.1965  -17.4339   24.6170 O   0  0  0  0  0  0  0  0  0  0  0  0
    7.5819  -15.4269   23.5494 N   0  0  0  0  0  0  0  0  0  0  0  0
    7.7355  -14.0062   23.5173 C   0  0  0  0  0  0  0  0  0  0  0  0
    7.5693  -13.6620   22.0565 C   0  0  0  0  0  0  0  0  0  0  0  0
    7.6721  -14.9480   21.3027 C   0  0  0  0  0  0  0  0  0  0  0  0
    8.1371  -15.9659   22.3484 C   0  0  1  0  0  0  0  0  0  0  0  0
    9.5972  -16.1428   22.3592 C   0  0  0  0  0  0  0  0  0  0  0  0
   10.1978  -15.9837   21.2453 O   0  0  0  0  0  0  0  0  0  0  0  0
   14.4849  -16.5744   22.0186 N   0  0  0  0  0  0  0  0  0  0  0  0
   13.9245  -15.5264   22.8411 C   0  0  0  0  0  0  0  0  0  0  0  0
   14.7568  -14.7616   23.4100 O   0  0  0  0  0  0  0  0  0  0  0  0
   12.4583  -15.3939   22.9802 C   0  0  0  0  0  0  0  0  0  0  0  0
   11.8057  -16.6737   23.4322 C   0  0  2  0  0  0  0  0  0  0  0  0
   10.3644  -16.4685   23.4802 N   0  0  0  0  0  0  0  0  0  0  0  0
   12.3296  -16.9602   24.8048 C   0  0  0  0  0  0  0  0  0  0  0  0
   13.5076  -17.3935   24.9486 O   0  0  0  0  0  0  0  0  0  0  0  0
   11.5849  -16.7758   25.9590 O   0  0  0  0  0  0  0  0  0  0  0  0
  2  1  1  1
  3  2  1  0
  4  5  1  0
  4  2  1  0
  5  7  1  0
  5  6  1  1
  7  9  1  0
  7  8  2  0
  9 10  1  0
 10 11  1  0
 12 11  1  0
 13  9  1  0
 13 12  1  0
 14 15  2  0
 13 14  1  1
 16 17  1  0
 17 18  2  0
 17 19  1  0
 20 19  1  1
 20 21  1  0
 20 22  1  0
 21 14  1  0
 22 24  1  0
 23 22  2  0
M  END
$$$$
