LPN.pdb
     RDKit          3D

 24 24  0  0  1  0  0  0  0  0999 V2000
    8.6551  -12.8051   27.0730 C   0  0  0  0  0  0  0  0  0  0  0  0
    7.6576  -13.4985   26.1475 C   0  0  2  0  0  0  0  0  0  0  0  0
    6.3854  -12.6813   26.1863 C   0  0  0  0  0  0  0  0  0  0  0  0
    7.3633  -14.8562   26.6950 C   0  0  0  0  0  0  0  0  0  0  0  0
    6.6747  -15.7513   25.6807 C   0  0  2  0  0  0  0  0  0  0  0  0
    6.2945  -16.9725   26.4068 N   0  0  0  0  0  0  0  0  0  0  0  0
    7.6495  -16.0859   24.6105 C   0  0  0  0  0  0  0  0  0  0  0  0
    8.3629  -17.1333   24.7919 O   0  0  0  0  0  0  0  0  0  0  0  0
    7.8438  -15.3495   23.4262 N   0  0  0  0  0  0  0  0  0  0  0  0
    7.2358  -14.0941   23.1145 C   0  0  0  0  0  0  0  0  0  0  0  0
    7.0429  -14.1524   21.6181 C   0  0  0  0  0  0  0  0  0  0  0  0
    7.8670  -15.2984   21.1280 C   0  0  0  0  0  0  0  0  0  0  0  0
    8.7012  -15.7144   22.3432 C   0  0  1  0  0  0  0  0  0  0  0  0
   10.0316  -15.0876   22.3607 C   0  0  0  0  0  0  0  0  0  0  0  0
   10.0753  -13.8541   22.6829 O   0  0  0  0  0  0  0  0  0  0  0  0
   14.3444  -15.9949   24.9166 N   0  0  0  0  0  0  0  0  0  0  0  0
   13.0716  -16.6254   25.1837 C   0  0  0  0  0  0  0  0  0  0  0  0
   12.9866  -17.2664   26.2714 O   0  0  0  0  0  0  0  0  0  0  0  0
   11.9623  -16.5017   24.2138 C   0  0  0  0  0  0  0  0  0  0  0  0
   12.3726  -15.7737   22.9609 C   0  0  2  0  0  0  0  0  0  0  0  0
   11.2332  -15.7308   22.0544 N   0  0  0  0  0  0  0  0  0  0  0  0
   13.4855  -16.5663   22.3497 C   0  0  0  0  0  0  0  0  0  0  0  0
   14.6496  -16.0782   22.3008 O   0  0  0  0  0  0  0  0  0  0  0  0
   13.3158  -17.8356   21.8195 O   0  0  0  0  0  0  0  0  0  0  0  0
  2  1  1  1
  3  2  1  0
  4  5  1  0
  4  2  1  0
  5  7  1  0
  5  6  1  1
  7  9  1  0
  7  8  2  0
  9 10  1  0
 10 11  1  0
 12 11  1  0
 13  9  1  0
 13 12  1  0
 14 15  2  0
 13 14  1  1
 16 17  1  0
 17 18  2  0
 17 19  1  0
 20 19  1  1
 20 21  1  0
 20 22  1  0
 21 14  1  0
 22 24  1  0
 23 22  2  0
M  END
$$$$
