LPN.pdb
     RDKit          3D

 24 24  0  0  1  0  0  0  0  0999 V2000
    4.8319  -15.7352   21.3770 C   0  0  0  0  0  0  0  0  0  0  0  0
    6.1717  -16.4680   21.3631 C   0  0  2  0  0  0  0  0  0  0  0  0
    5.8642  -17.9424   21.5014 C   0  0  0  0  0  0  0  0  0  0  0  0
    6.9632  -16.0372   22.5538 C   0  0  0  0  0  0  0  0  0  0  0  0
    7.3184  -14.5621   22.5084 C   0  0  2  0  0  0  0  0  0  0  0  0
    7.9835  -14.3429   21.2151 N   0  0  0  0  0  0  0  0  0  0  0  0
    8.2655  -14.2723   23.6160 C   0  0  0  0  0  0  0  0  0  0  0  0
    9.5106  -14.2655   23.3186 O   0  0  0  0  0  0  0  0  0  0  0  0
    7.9019  -14.0055   24.9499 N   0  0  0  0  0  0  0  0  0  0  0  0
    6.5745  -14.0485   25.4780 C   0  0  0  0  0  0  0  0  0  0  0  0
    6.5729  -12.9644   26.5290 C   0  0  0  0  0  0  0  0  0  0  0  0
    8.0029  -12.6036   26.7691 C   0  0  0  0  0  0  0  0  0  0  0  0
    8.7972  -13.6722   26.0122 C   0  0  1  0  0  0  0  0  0  0  0  0
    9.1957  -14.7983   26.8703 C   0  0  0  0  0  0  0  0  0  0  0  0
    8.2591  -15.5621   27.2781 O   0  0  0  0  0  0  0  0  0  0  0  0
   13.2419  -15.5623   25.2281 N   0  0  0  0  0  0  0  0  0  0  0  0
   12.3941  -16.5745   25.8159 C   0  0  0  0  0  0  0  0  0  0  0  0
   11.7705  -17.3174   25.0032 O   0  0  0  0  0  0  0  0  0  0  0  0
   12.2924  -16.6976   27.2860 C   0  0  0  0  0  0  0  0  0  0  0  0
   10.9099  -16.3851   27.7948 C   0  0  2  0  0  0  0  0  0  0  0  0
   10.5028  -15.0895   27.2679 N   0  0  0  0  0  0  0  0  0  0  0  0
   11.0060  -16.3252   29.2874 C   0  0  0  0  0  0  0  0  0  0  0  0
   10.8833  -15.2161   29.8796 O   0  0  0  0  0  0  0  0  0  0  0  0
   11.2273  -17.4386   30.0825 O   0  0  0  0  0  0  0  0  0  0  0  0
  2  1  1  1
  3  2  1  0
  4  5  1  0
  4  2  1  0
  5  7  1  0
  5  6  1  6
  7  9  1  0
  7  8  2  0
  9 10  1  0
 10 11  1  0
 12 11  1  0
 13  9  1  0
 13 12  1  0
 14 15  2  0
 13 14  1  1
 16 17  1  0
 17 18  2  0
 17 19  1  0
 20 19  1  6
 20 21  1  0
 20 22  1  0
 21 14  1  0
 22 24  1  0
 23 22  2  0
M  END
$$$$
