LPN.pdb
     RDKit          3D

 24 24  0  0  1  0  0  0  0  0999 V2000
    8.5432  -12.8493   26.7488 C   0  0  0  0  0  0  0  0  0  0  0  0
    7.5253  -13.6159   25.9070 C   0  0  2  0  0  0  0  0  0  0  0  0
    6.2134  -12.8727   26.0248 C   0  0  0  0  0  0  0  0  0  0  0  0
    7.3506  -14.9780   26.4936 C   0  0  0  0  0  0  0  0  0  0  0  0
    6.5716  -15.9054   25.5786 C   0  0  2  0  0  0  0  0  0  0  0  0
    6.3102  -17.1236   26.3601 N   0  0  0  0  0  0  0  0  0  0  0  0
    7.4235  -16.2337   24.4063 C   0  0  0  0  0  0  0  0  0  0  0  0
    8.0376  -17.3564   24.4402 O   0  0  0  0  0  0  0  0  0  0  0  0
    7.6020  -15.4153   23.2744 N   0  0  0  0  0  0  0  0  0  0  0  0
    7.1612  -14.0619   23.1448 C   0  0  0  0  0  0  0  0  0  0  0  0
    6.8067  -13.9402   21.6821 C   0  0  0  0  0  0  0  0  0  0  0  0
    7.3930  -15.1347   21.0023 C   0  0  0  0  0  0  0  0  0  0  0  0
    8.2770  -15.7849   22.0707 C   0  0  1  0  0  0  0  0  0  0  0  0
    9.6812  -15.3561   21.9845 C   0  0  0  0  0  0  0  0  0  0  0  0
    9.9114  -14.1178   22.1868 O   0  0  0  0  0  0  0  0  0  0  0  0
   13.1021  -17.2622   25.8256 N   0  0  0  0  0  0  0  0  0  0  0  0
   13.0068  -16.3797   24.6850 C   0  0  0  0  0  0  0  0  0  0  0  0
   14.0321  -15.6814   24.4356 O   0  0  0  0  0  0  0  0  0  0  0  0
   11.7639  -16.3295   23.8854 C   0  0  0  0  0  0  0  0  0  0  0  0
   12.0324  -16.1278   22.4173 C   0  0  2  0  0  0  0  0  0  0  0  0
   10.7658  -16.1895   21.7006 N   0  0  0  0  0  0  0  0  0  0  0  0
   12.9217  -17.2519   21.9860 C   0  0  0  0  0  0  0  0  0  0  0  0
   12.5495  -18.4470   22.1571 O   0  0  0  0  0  0  0  0  0  0  0  0
   14.1609  -17.0603   21.3955 O   0  0  0  0  0  0  0  0  0  0  0  0
  2  1  1  1
  3  2  1  0
  4  5  1  0
  4  2  1  0
  5  7  1  0
  5  6  1  1
  7  9  1  0
  7  8  2  0
  9 10  1  0
 10 11  1  0
 12 11  1  0
 13  9  1  0
 13 12  1  0
 14 15  2  0
 13 14  1  1
 16 17  1  0
 17 18  2  0
 17 19  1  0
 20 19  1  1
 20 21  1  0
 20 22  1  0
 21 14  1  0
 22 24  1  0
 23 22  2  0
M  END
$$$$
