LPN.pdb
     RDKit          3D

 24 24  0  0  1  0  0  0  0  0999 V2000
    5.6047  -12.3113   26.3499 C   0  0  0  0  0  0  0  0  0  0  0  0
    6.6675  -13.2047   26.9860 C   0  0  2  0  0  0  0  0  0  0  0  0
    7.6554  -12.2873   27.6715 C   0  0  0  0  0  0  0  0  0  0  0  0
    7.3819  -13.9420   25.9017 C   0  0  0  0  0  0  0  0  0  0  0  0
    6.6862  -15.2389   25.5297 C   0  0  2  0  0  0  0  0  0  0  0  0
    6.6769  -16.0605   26.7495 N   0  0  0  0  0  0  0  0  0  0  0  0
    7.4847  -15.9148   24.4746 C   0  0  0  0  0  0  0  0  0  0  0  0
    7.9174  -17.0885   24.7467 O   0  0  0  0  0  0  0  0  0  0  0  0
    7.7951  -15.3705   23.2137 N   0  0  0  0  0  0  0  0  0  0  0  0
    7.3909  -14.0852   22.7367 C   0  0  0  0  0  0  0  0  0  0  0  0
    7.1963  -14.2993   21.2547 C   0  0  0  0  0  0  0  0  0  0  0  0
    7.8340  -15.6104   20.9277 C   0  0  0  0  0  0  0  0  0  0  0  0
    8.5892  -15.9951   22.2034 C   0  0  1  0  0  0  0  0  0  0  0  0
   10.0008  -15.5832   22.1742 C   0  0  0  0  0  0  0  0  0  0  0  0
   10.2852  -14.4849   22.7573 O   0  0  0  0  0  0  0  0  0  0  0  0
   14.6981  -17.1798   23.4963 N   0  0  0  0  0  0  0  0  0  0  0  0
   13.4529  -17.6087   24.0915 C   0  0  0  0  0  0  0  0  0  0  0  0
   13.5506  -18.3015   25.1459 O   0  0  0  0  0  0  0  0  0  0  0  0
   12.1641  -17.2358   23.4696 C   0  0  0  0  0  0  0  0  0  0  0  0
   12.3455  -16.4849   22.1768 C   0  0  2  0  0  0  0  0  0  0  0  0
   11.0381  -16.2924   21.5641 N   0  0  0  0  0  0  0  0  0  0  0  0
   13.2024  -17.3432   21.2995 C   0  0  0  0  0  0  0  0  0  0  0  0
   14.3182  -16.9098   20.8955 O   0  0  0  0  0  0  0  0  0  0  0  0
   12.8401  -18.6170   20.8908 O   0  0  0  0  0  0  0  0  0  0  0  0
  2  1  1  6
  3  2  1  0
  4  5  1  0
  4  2  1  0
  5  7  1  0
  5  6  1  1
  7  9  1  0
  7  8  2  0
  9 10  1  0
 10 11  1  0
 12 11  1  0
 13  9  1  0
 13 12  1  0
 14 15  2  0
 13 14  1  6
 16 17  1  0
 17 18  2  0
 17 19  1  0
 20 19  1  1
 20 21  1  0
 20 22  1  0
 21 14  1  0
 22 24  1  0
 23 22  2  0
M  END
$$$$
