FMT.pdb
     RDKit          3D

 27 27  0  0  1  0  0  0  0  0999 V2000
   28.7529  -21.5739  -15.7623 N   0  0  0  0  0  0  0  0  0  0  0  0
   27.8797  -20.5648  -15.2238 C   0  0  1  0  0  0  0  0  0  0  0  0
   27.1376  -19.8362  -16.3160 C   0  0  0  0  0  0  0  0  0  0  0  0
   27.5817  -18.4255  -16.3268 C   0  0  0  0  0  0  0  0  0  0  0  0
   27.2260  -17.5818  -15.3003 C   0  0  0  0  0  0  0  0  0  0  0  0
   27.6255  -16.2445  -15.2753 C   0  0  0  0  0  0  0  0  0  0  0  0
   28.3973  -15.7739  -16.3164 C   0  0  0  0  0  0  0  0  0  0  0  0
   28.7676  -16.5924  -17.3544 C   0  0  0  0  0  0  0  0  0  0  0  0
   28.3503  -17.9043  -17.3367 C   0  0  0  0  0  0  0  0  0  0  0  0
   26.9302  -21.1431  -14.2172 C   0  0  0  0  0  0  0  0  0  0  0  0
   26.3212  -22.2291  -14.4269 O   0  0  0  0  0  0  0  0  0  0  0  0
   27.5815  -21.1116   -7.9015 C   0  0  0  0  0  0  0  0  0  0  0  0
   25.9460  -20.3386   -8.0049 S   0  0  0  0  0  0  0  0  0  0  0  0
   25.0927  -20.8894   -9.5498 C   0  0  0  0  0  0  0  0  0  0  0  0
   26.0277  -20.5990  -10.6482 C   0  0  0  0  0  0  0  0  0  0  0  0
   25.6389  -20.9927  -12.0380 C   0  0  2  0  0  0  0  0  0  0  0  0
   26.6760  -20.4899  -12.9818 N   0  0  0  0  0  0  0  0  0  0  0  0
   24.3142  -20.5689  -12.4880 C   0  0  0  0  0  0  0  0  0  0  0  0
   24.0937  -19.3268  -12.6972 O   0  0  0  0  0  0  0  0  0  0  0  0
   22.3932  -21.4858  -15.5783 C   0  0  0  0  0  0  0  0  0  0  0  0
   21.5258  -21.7873  -14.3940 C   0  0  1  0  0  0  0  0  0  0  0  0
   21.6334  -23.1558  -14.1424 O   0  0  0  0  0  0  0  0  0  0  0  0
   21.9206  -20.9777  -13.1585 C   0  0  2  0  0  0  0  0  0  0  0  0
   23.2248  -21.4322  -12.7237 N   0  0  0  0  0  0  0  0  0  0  0  0
   20.9330  -21.2654  -12.1103 C   0  0  0  0  0  0  0  0  0  0  0  0
   21.2600  -21.9143  -11.1002 O   0  0  0  0  0  0  0  0  0  0  0  0
   19.6363  -20.8182  -12.2380 O   0  0  0  0  0  0  0  0  0  0  0  0
  2  1  1  6
  2 10  1  0
  2  3  1  0
  3  4  1  0
  4  5  2  0
  5  6  1  0
  7  6  2  0
  8  7  1  0
  9  8  2  0
  9  4  1  0
 10 17  1  0
 11 10  2  0
 13 12  1  0
 14 13  1  0
 16 15  1  1
 15 14  1  0
 17 16  1  0
 18 19  2  0
 18 16  1  0
 21 20  1  6
 21 23  1  0
 22 21  1  0
 23 24  1  1
 23 25  1  0
 24 18  1  0
 25 27  1  0
 26 25  2  0
M  END
$$$$
