FMT.pdb
     RDKit          3D

 27 27  0  0  1  0  0  0  0  0999 V2000
   18.5257  -11.5125  -17.4184 N   0  0  0  0  0  0  0  0  0  0  0  0
   19.5229  -10.6167  -17.9420 C   0  0  1  0  0  0  0  0  0  0  0  0
   18.9009   -9.5216  -18.7716 C   0  0  0  0  0  0  0  0  0  0  0  0
   18.4020  -10.1118  -20.0326 C   0  0  0  0  0  0  0  0  0  0  0  0
   17.0501  -10.2609  -20.2378 C   0  0  0  0  0  0  0  0  0  0  0  0
   16.5411  -10.8135  -21.4144 C   0  0  0  0  0  0  0  0  0  0  0  0
   17.4328  -11.2154  -22.3862 C   0  0  0  0  0  0  0  0  0  0  0  0
   18.7873  -11.0791  -22.2095 C   0  0  0  0  0  0  0  0  0  0  0  0
   19.2435  -10.5286  -21.0329 C   0  0  0  0  0  0  0  0  0  0  0  0
   20.3765  -10.0482  -16.8477 C   0  0  0  0  0  0  0  0  0  0  0  0
   19.9367   -9.8969  -15.6738 O   0  0  0  0  0  0  0  0  0  0  0  0
   26.2795  -11.6353  -14.6412 C   0  0  0  0  0  0  0  0  0  0  0  0
   26.4495  -10.0015  -15.4062 S   0  0  0  0  0  0  0  0  0  0  0  0
   24.9108   -9.0168  -15.1218 C   0  0  0  0  0  0  0  0  0  0  0  0
   23.9072   -9.5675  -16.0463 C   0  0  0  0  0  0  0  0  0  0  0  0
   22.5309   -8.9815  -16.0356 C   0  0  2  0  0  0  0  0  0  0  0  0
   21.7198   -9.6548  -17.0883 N   0  0  0  0  0  0  0  0  0  0  0  0
   22.4397   -7.5312  -16.1936 C   0  0  0  0  0  0  0  0  0  0  0  0
   22.8875   -6.9902  -17.2623 O   0  0  0  0  0  0  0  0  0  0  0  0
   19.6619   -5.3047  -16.7243 C   0  0  0  0  0  0  0  0  0  0  0  0
   20.3457   -4.8074  -15.4870 C   0  0  1  0  0  0  0  0  0  0  0  0
   19.6488   -5.3256  -14.3946 O   0  0  0  0  0  0  0  0  0  0  0  0
   21.8190   -5.2123  -15.4299 C   0  0  2  0  0  0  0  0  0  0  0  0
   21.8819   -6.6472  -15.2475 N   0  0  0  0  0  0  0  0  0  0  0  0
   22.4123   -4.5489  -14.2617 C   0  0  0  0  0  0  0  0  0  0  0  0
   22.8096   -5.2204  -13.2925 O   0  0  0  0  0  0  0  0  0  0  0  0
   22.5336   -3.1769  -14.2309 O   0  0  0  0  0  0  0  0  0  0  0  0
  2  1  1  1
  2 10  1  0
  2  3  1  0
  3  4  1  0
  4  5  2  0
  5  6  1  0
  7  6  2  0
  8  7  1  0
  9  8  2  0
  9  4  1  0
 10 17  1  0
 11 10  2  0
 13 12  1  0
 14 13  1  0
 16 15  1  6
 15 14  1  0
 17 16  1  0
 18 19  2  0
 18 16  1  0
 21 20  1  6
 21 23  1  0
 22 21  1  0
 23 24  1  1
 23 25  1  0
 24 18  1  0
 25 27  1  0
 26 25  2  0
M  END
$$$$
