FMT.pdb
     RDKit          3D

 27 27  0  0  1  0  0  0  0  0999 V2000
   18.1229  -23.1936  -12.7173 N   0  0  0  0  0  0  0  0  0  0  0  0
   19.0872  -22.1291  -12.8060 C   0  0  1  0  0  0  0  0  0  0  0  0
   18.9624  -21.1725  -11.6468 C   0  0  0  0  0  0  0  0  0  0  0  0
   17.6661  -20.4686  -11.7547 C   0  0  0  0  0  0  0  0  0  0  0  0
   17.4935  -19.4799  -12.6952 C   0  0  0  0  0  0  0  0  0  0  0  0
   16.2853  -18.7931  -12.8273 C   0  0  0  0  0  0  0  0  0  0  0  0
   15.2478  -19.1284  -11.9834 C   0  0  0  0  0  0  0  0  0  0  0  0
   15.3908  -20.1107  -11.0352 C   0  0  0  0  0  0  0  0  0  0  0  0
   16.6005  -20.7612  -10.9413 C   0  0  0  0  0  0  0  0  0  0  0  0
   20.4838  -22.6639  -12.9183 C   0  0  0  0  0  0  0  0  0  0  0  0
   20.8578  -23.6835  -12.2742 O   0  0  0  0  0  0  0  0  0  0  0  0
   22.7547  -25.9359  -14.4766 C   0  0  0  0  0  0  0  0  0  0  0  0
   24.4223  -25.4220  -14.9648 S   0  0  0  0  0  0  0  0  0  0  0  0
   24.3906  -23.6636  -15.5351 C   0  0  0  0  0  0  0  0  0  0  0  0
   23.0527  -23.1561  -15.1922 C   0  0  0  0  0  0  0  0  0  0  0  0
   22.8451  -22.5500  -13.8405 C   0  0  2  0  0  0  0  0  0  0  0  0
   21.4470  -22.0425  -13.7571 N   0  0  0  0  0  0  0  0  0  0  0  0
   23.7780  -21.4945  -13.4502 C   0  0  0  0  0  0  0  0  0  0  0  0
   23.6190  -20.3157  -13.9198 O   0  0  0  0  0  0  0  0  0  0  0  0
   25.5530  -21.0322   -9.7493 C   0  0  0  0  0  0  0  0  0  0  0  0
   26.4880  -20.9923  -10.9198 C   0  0  1  0  0  0  0  0  0  0  0  0
   27.0588  -22.2606  -11.0345 O   0  0  0  0  0  0  0  0  0  0  0  0
   25.7835  -20.5970  -12.2180 C   0  0  2  0  0  0  0  0  0  0  0  0
   24.8687  -21.6618  -12.5727 N   0  0  0  0  0  0  0  0  0  0  0  0
   26.8134  -20.4765  -13.2579 C   0  0  0  0  0  0  0  0  0  0  0  0
   26.8569  -21.2924  -14.1964 O   0  0  0  0  0  0  0  0  0  0  0  0
   27.7394  -19.4581  -13.2020 O   0  0  0  0  0  0  0  0  0  0  0  0
  2  1  1  1
  2 10  1  0
  2  3  1  0
  3  4  1  0
  4  5  2  0
  5  6  1  0
  7  6  2  0
  8  7  1  0
  9  8  2  0
  9  4  1  0
 10 17  1  0
 11 10  2  0
 13 12  1  0
 14 13  1  0
 16 15  1  6
 15 14  1  0
 17 16  1  0
 18 19  2  0
 18 16  1  0
 21 20  1  1
 21 23  1  0
 22 21  1  0
 23 24  1  6
 23 25  1  0
 24 18  1  0
 25 27  1  0
 26 25  2  0
M  END
$$$$
