FMT.pdb
     RDKit          3D

 27 27  0  0  1  0  0  0  0  0999 V2000
   27.6313  -22.4338  -10.9515 N   0  0  0  0  0  0  0  0  0  0  0  0
   26.6399  -21.3987  -10.8231 C   0  0  1  0  0  0  0  0  0  0  0  0
   27.2750  -20.0524  -10.5813 C   0  0  0  0  0  0  0  0  0  0  0  0
   27.5039  -19.8938   -9.1287 C   0  0  0  0  0  0  0  0  0  0  0  0
   28.7054  -20.2691   -8.5741 C   0  0  0  0  0  0  0  0  0  0  0  0
   28.9588  -20.1351   -7.2079 C   0  0  0  0  0  0  0  0  0  0  0  0
   27.9660  -19.6103   -6.4079 C   0  0  0  0  0  0  0  0  0  0  0  0
   26.7569  -19.2272   -6.9332 C   0  0  0  0  0  0  0  0  0  0  0  0
   26.5518  -19.3779   -8.2863 C   0  0  0  0  0  0  0  0  0  0  0  0
   25.7299  -21.3616  -12.0146 C   0  0  0  0  0  0  0  0  0  0  0  0
   26.1169  -21.7350  -13.1570 O   0  0  0  0  0  0  0  0  0  0  0  0
   19.8611  -22.3906  -11.1059 C   0  0  0  0  0  0  0  0  0  0  0  0
   19.4419  -21.4757  -12.6128 S   0  0  0  0  0  0  0  0  0  0  0  0
   20.9802  -21.1211  -13.5750 C   0  0  0  0  0  0  0  0  0  0  0  0
   22.0711  -21.0906  -12.5880 C   0  0  0  0  0  0  0  0  0  0  0  0
   23.4719  -20.9068  -13.0794 C   0  0  2  0  0  0  0  0  0  0  0  0
   24.3901  -20.9028  -11.9063 N   0  0  0  0  0  0  0  0  0  0  0  0
   23.7221  -19.7280  -13.9067 C   0  0  0  0  0  0  0  0  0  0  0  0
   23.5853  -18.5647  -13.3937 O   0  0  0  0  0  0  0  0  0  0  0  0
   26.7688  -18.3489  -15.3946 C   0  0  0  0  0  0  0  0  0  0  0  0
   25.8061  -18.5888  -16.5178 C   0  0  1  0  0  0  0  0  0  0  0  0
   26.1286  -19.8248  -17.0798 O   0  0  0  0  0  0  0  0  0  0  0  0
   24.3494  -18.5692  -16.0538 C   0  0  2  0  0  0  0  0  0  0  0  0
   24.1167  -19.7575  -15.2599 N   0  0  0  0  0  0  0  0  0  0  0  0
   23.5050  -18.6157  -17.2545 C   0  0  0  0  0  0  0  0  0  0  0  0
   22.7401  -19.5780  -17.4476 O   0  0  0  0  0  0  0  0  0  0  0  0
   23.5535  -17.5930  -18.1762 O   0  0  0  0  0  0  0  0  0  0  0  0
  2  1  1  6
  2 10  1  0
  2  3  1  0
  3  4  1  0
  4  5  2  0
  5  6  1  0
  7  6  2  0
  8  7  1  0
  9  8  2  0
  9  4  1  0
 10 17  1  0
 11 10  2  0
 13 12  1  0
 14 13  1  0
 16 15  1  1
 15 14  1  0
 17 16  1  0
 18 19  2  0
 18 16  1  0
 21 20  1  1
 21 23  1  0
 22 21  1  0
 23 24  1  1
 23 25  1  0
 24 18  1  0
 25 27  1  0
 26 25  2  0
M  END
$$$$
