FMT.pdb
     RDKit          3D

 27 27  0  0  1  0  0  0  0  0999 V2000
   28.6314  -20.9867  -15.5951 N   0  0  0  0  0  0  0  0  0  0  0  0
   27.8363  -20.1076  -14.7791 C   0  0  1  0  0  0  0  0  0  0  0  0
   26.9417  -19.2318  -15.6200 C   0  0  0  0  0  0  0  0  0  0  0  0
   27.7837  -18.2521  -16.3401 C   0  0  0  0  0  0  0  0  0  0  0  0
   28.2568  -18.5415  -17.5988 C   0  0  0  0  0  0  0  0  0  0  0  0
   29.0541  -17.6428  -18.3096 C   0  0  0  0  0  0  0  0  0  0  0  0
   29.3659  -16.4370  -17.7181 C   0  0  0  0  0  0  0  0  0  0  0  0
   28.9083  -16.1206  -16.4631 C   0  0  0  0  0  0  0  0  0  0  0  0
   28.1249  -17.0380  -15.7996 C   0  0  0  0  0  0  0  0  0  0  0  0
   27.0432  -20.8729  -13.7620 C   0  0  0  0  0  0  0  0  0  0  0  0
   26.6032  -22.0324  -13.9992 O   0  0  0  0  0  0  0  0  0  0  0  0
   27.0193  -19.1372   -7.7527 C   0  0  0  0  0  0  0  0  0  0  0  0
   26.0465  -20.6471   -7.5135 S   0  0  0  0  0  0  0  0  0  0  0  0
   25.2157  -21.1110   -9.0987 C   0  0  0  0  0  0  0  0  0  0  0  0
   26.1156  -20.6552  -10.1700 C   0  0  0  0  0  0  0  0  0  0  0  0
   25.7349  -20.9375  -11.5888 C   0  0  2  0  0  0  0  0  0  0  0  0
   26.7534  -20.3224  -12.4852 N   0  0  0  0  0  0  0  0  0  0  0  0
   24.3966  -20.5168  -11.9996 C   0  0  0  0  0  0  0  0  0  0  0  0
   24.1780  -19.2807  -12.2434 O   0  0  0  0  0  0  0  0  0  0  0  0
   22.4549  -21.2466  -15.0108 C   0  0  0  0  0  0  0  0  0  0  0  0
   21.5977  -21.6540  -13.8510 C   0  0  1  0  0  0  0  0  0  0  0  0
   21.7396  -23.0339  -13.6985 O   0  0  0  0  0  0  0  0  0  0  0  0
   21.9750  -20.9257  -12.5606 C   0  0  2  0  0  0  0  0  0  0  0  0
   23.2913  -21.3771  -12.1606 N   0  0  0  0  0  0  0  0  0  0  0  0
   20.9977  -21.3133  -11.5352 C   0  0  0  0  0  0  0  0  0  0  0  0
   21.3500  -21.9999  -10.5592 O   0  0  0  0  0  0  0  0  0  0  0  0
   19.6825  -20.9187  -11.6467 O   0  0  0  0  0  0  0  0  0  0  0  0
  2  1  1  6
  2 10  1  0
  2  3  1  0
  3  4  1  0
  4  5  2  0
  5  6  1  0
  7  6  2  0
  8  7  1  0
  9  8  2  0
  9  4  1  0
 10 17  1  0
 11 10  2  0
 13 12  1  0
 14 13  1  0
 16 15  1  1
 15 14  1  0
 17 16  1  0
 18 19  2  0
 18 16  1  0
 21 20  1  6
 21 23  1  0
 22 21  1  0
 23 24  1  1
 23 25  1  0
 24 18  1  0
 25 27  1  0
 26 25  2  0
M  END
$$$$
