FMT.pdb
     RDKit          3D

 27 27  0  0  1  0  0  0  0  0999 V2000
   32.2227  -17.4604   10.0195 N   0  0  0  0  0  0  0  0  0  0  0  0
   31.0828  -18.2948   10.2939 C   0  0  1  0  0  0  0  0  0  0  0  0
   30.5896  -18.9840    9.0464 C   0  0  0  0  0  0  0  0  0  0  0  0
   30.0642  -17.9590    8.1186 C   0  0  0  0  0  0  0  0  0  0  0  0
   28.8286  -17.3964    8.3391 C   0  0  0  0  0  0  0  0  0  0  0  0
   28.2990  -16.4266    7.4861 C   0  0  0  0  0  0  0  0  0  0  0  0
   29.0491  -16.0343    6.3977 C   0  0  0  0  0  0  0  0  0  0  0  0
   30.2854  -16.5781    6.1521 C   0  0  0  0  0  0  0  0  0  0  0  0
   30.7673  -17.5315    7.0206 C   0  0  0  0  0  0  0  0  0  0  0  0
   31.3792  -19.2868   11.3789 C   0  0  0  0  0  0  0  0  0  0  0  0
   32.5630  -19.5612   11.7218 O   0  0  0  0  0  0  0  0  0  0  0  0
   30.0336  -18.2843   16.6415 C   0  0  0  0  0  0  0  0  0  0  0  0
   29.7566  -20.0242   17.0652 S   0  0  0  0  0  0  0  0  0  0  0  0
   30.3657  -21.1042   15.6938 C   0  0  0  0  0  0  0  0  0  0  0  0
   30.2236  -20.3080   14.4646 C   0  0  0  0  0  0  0  0  0  0  0  0
   30.6284  -20.9264   13.1641 C   0  0  2  0  0  0  0  0  0  0  0  0
   30.3361  -19.9611   12.0678 N   0  0  0  0  0  0  0  0  0  0  0  0
   30.0370  -22.2256   12.8492 C   0  0  0  0  0  0  0  0  0  0  0  0
   28.8389  -22.2751   12.4049 O   0  0  0  0  0  0  0  0  0  0  0  0
   31.6018  -25.1456   10.6583 C   0  0  0  0  0  0  0  0  0  0  0  0
   31.1794  -25.6155   12.0172 C   0  0  1  0  0  0  0  0  0  0  0  0
   32.3185  -25.6214   12.8235 O   0  0  0  0  0  0  0  0  0  0  0  0
   30.0891  -24.7344   12.6280 C   0  0  2  0  0  0  0  0  0  0  0  0
   30.6888  -23.4676   12.9912 N   0  0  0  0  0  0  0  0  0  0  0  0
   29.6079  -25.4081   13.8410 C   0  0  0  0  0  0  0  0  0  0  0  0
   28.9865  -26.4829   13.7581 O   0  0  0  0  0  0  0  0  0  0  0  0
   29.8415  -24.8543   15.0806 O   0  0  0  0  0  0  0  0  0  0  0  0
  2  1  1  6
  2 10  1  0
  2  3  1  0
  3  4  1  0
  4  5  2  0
  5  6  1  0
  7  6  2  0
  8  7  1  0
  9  8  2  0
  9  4  1  0
 10 17  1  0
 11 10  2  0
 13 12  1  0
 14 13  1  0
 16 15  1  1
 15 14  1  0
 17 16  1  0
 18 19  2  0
 18 16  1  0
 21 20  1  6
 21 23  1  0
 22 21  1  0
 23 24  1  1
 23 25  1  0
 24 18  1  0
 25 27  1  0
 26 25  2  0
M  END
$$$$
