FMT.pdb
     RDKit          3D

 27 27  0  0  1  0  0  0  0  0999 V2000
   26.9018  -18.2018   -7.8326 N   0  0  0  0  0  0  0  0  0  0  0  0
   27.1469  -19.5485   -8.2766 C   0  0  1  0  0  0  0  0  0  0  0  0
   26.9419  -20.5437   -7.1621 C   0  0  0  0  0  0  0  0  0  0  0  0
   27.9177  -20.2560   -6.0886 C   0  0  0  0  0  0  0  0  0  0  0  0
   27.4864  -19.7764   -4.8738 C   0  0  0  0  0  0  0  0  0  0  0  0
   28.3767  -19.4931   -3.8366 C   0  0  0  0  0  0  0  0  0  0  0  0
   29.7215  -19.7058   -4.0538 C   0  0  0  0  0  0  0  0  0  0  0  0
   30.1814  -20.1836   -5.2558 C   0  0  0  0  0  0  0  0  0  0  0  0
   29.2665  -20.4490   -6.2499 C   0  0  0  0  0  0  0  0  0  0  0  0
   26.3071  -19.8926   -9.4706 C   0  0  0  0  0  0  0  0  0  0  0  0
   25.1355  -19.4428   -9.6095 O   0  0  0  0  0  0  0  0  0  0  0  0
   29.9173  -21.9543  -13.8144 C   0  0  0  0  0  0  0  0  0  0  0  0
   28.6483  -21.6688  -15.0760 S   0  0  0  0  0  0  0  0  0  0  0  0
   27.0842  -21.1018  -14.2696 C   0  0  0  0  0  0  0  0  0  0  0  0
   27.3922  -20.9887  -12.8351 C   0  0  0  0  0  0  0  0  0  0  0  0
   26.2814  -20.6497  -11.8923 C   0  0  2  0  0  0  0  0  0  0  0  0
   26.7973  -20.7421  -10.4978 N   0  0  0  0  0  0  0  0  0  0  0  0
   25.0566  -21.4375  -12.0193 C   0  0  0  0  0  0  0  0  0  0  0  0
   25.0649  -22.6660  -11.6645 O   0  0  0  0  0  0  0  0  0  0  0  0
   21.2340  -20.6144  -10.9210 C   0  0  0  0  0  0  0  0  0  0  0  0
   21.4229  -20.8891  -12.3821 C   0  0  1  0  0  0  0  0  0  0  0  0
   21.5493  -19.6545  -13.0204 O   0  0  0  0  0  0  0  0  0  0  0  0
   22.6427  -21.7684  -12.6591 C   0  0  2  0  0  0  0  0  0  0  0  0
   23.8276  -20.9500  -12.5087 N   0  0  0  0  0  0  0  0  0  0  0  0
   22.5456  -22.2293  -14.0501 C   0  0  0  0  0  0  0  0  0  0  0  0
   23.3523  -21.8209  -14.9049 O   0  0  0  0  0  0  0  0  0  0  0  0
   21.5599  -23.1183  -14.4187 O   0  0  0  0  0  0  0  0  0  0  0  0
  2  1  1  1
  2 10  1  0
  2  3  1  0
  3  4  1  0
  4  5  2  0
  5  6  1  0
  7  6  2  0
  8  7  1  0
  9  8  2  0
  9  4  1  0
 10 17  1  0
 11 10  2  0
 13 12  1  0
 14 13  1  0
 16 15  1  6
 15 14  1  0
 17 16  1  0
 18 19  2  0
 18 16  1  0
 21 20  1  1
 21 23  1  0
 22 21  1  0
 23 24  1  6
 23 25  1  0
 24 18  1  0
 25 27  1  0
 26 25  2  0
M  END
$$$$
