FMT.pdb
     RDKit          3D

 27 27  0  0  1  0  0  0  0  0999 V2000
   26.1474  -22.1333  -15.8611 N   0  0  0  0  0  0  0  0  0  0  0  0
   24.8806  -21.4577  -15.7633 C   0  0  1  0  0  0  0  0  0  0  0  0
   24.0288  -21.7014  -16.9837 C   0  0  0  0  0  0  0  0  0  0  0  0
   24.4462  -20.7596  -18.0449 C   0  0  0  0  0  0  0  0  0  0  0  0
   24.1320  -19.4241  -17.9455 C   0  0  0  0  0  0  0  0  0  0  0  0
   24.5082  -18.5049  -18.9265 C   0  0  0  0  0  0  0  0  0  0  0  0
   25.2134  -18.9663  -20.0178 C   0  0  0  0  0  0  0  0  0  0  0  0
   25.5410  -20.2934  -20.1442 C   0  0  0  0  0  0  0  0  0  0  0  0
   25.1490  -21.1635  -19.1519 C   0  0  0  0  0  0  0  0  0  0  0  0
   24.1518  -21.8401  -14.5095 C   0  0  0  0  0  0  0  0  0  0  0  0
   23.9547  -23.0480  -14.1988 O   0  0  0  0  0  0  0  0  0  0  0  0
   23.2795  -21.4195   -8.2651 C   0  0  0  0  0  0  0  0  0  0  0  0
   24.4954  -21.6348   -9.5912 S   0  0  0  0  0  0  0  0  0  0  0  0
   24.3983  -20.2085  -10.7636 C   0  0  0  0  0  0  0  0  0  0  0  0
   23.0477  -20.2606  -11.3454 C   0  0  0  0  0  0  0  0  0  0  0  0
   22.7886  -21.2241  -12.4599 C   0  0  2  0  0  0  0  0  0  0  0  0
   23.6513  -20.8552  -13.6170 N   0  0  0  0  0  0  0  0  0  0  0  0
   21.4004  -21.3525  -12.8998 C   0  0  0  0  0  0  0  0  0  0  0  0
   20.8167  -20.3442  -13.4270 O   0  0  0  0  0  0  0  0  0  0  0  0
   19.8740  -23.8180  -15.3710 C   0  0  0  0  0  0  0  0  0  0  0  0
   19.1145  -23.8933  -14.0813 C   0  0  1  0  0  0  0  0  0  0  0  0
   19.6020  -24.9970  -13.3800 O   0  0  0  0  0  0  0  0  0  0  0  0
   19.2509  -22.6192  -13.2470 C   0  0  2  0  0  0  0  0  0  0  0  0
   20.6235  -22.5244  -12.7962 N   0  0  0  0  0  0  0  0  0  0  0  0
   18.3671  -22.7597  -12.0825 C   0  0  0  0  0  0  0  0  0  0  0  0
   18.8465  -22.8644  -10.9391 O   0  0  0  0  0  0  0  0  0  0  0  0
   16.9995  -22.7761  -12.2480 O   0  0  0  0  0  0  0  0  0  0  0  0
  2  1  1  6
  2 10  1  0
  2  3  1  0
  3  4  1  0
  4  5  2  0
  5  6  1  0
  7  6  2  0
  8  7  1  0
  9  8  2  0
  9  4  1  0
 10 17  1  0
 11 10  2  0
 13 12  1  0
 14 13  1  0
 16 15  1  1
 15 14  1  0
 17 16  1  0
 18 19  2  0
 18 16  1  0
 21 20  1  6
 21 23  1  0
 22 21  1  0
 23 24  1  1
 23 25  1  0
 24 18  1  0
 25 27  1  0
 26 25  2  0
M  END
$$$$
