FMT.pdb
     RDKit          3D

 27 27  0  0  1  0  0  0  0  0999 V2000
   25.5864  -17.0748  -14.7775 N   0  0  0  0  0  0  0  0  0  0  0  0
   26.0912  -18.3308  -15.2660 C   0  0  1  0  0  0  0  0  0  0  0  0
   27.5990  -18.3472  -15.2936 C   0  0  0  0  0  0  0  0  0  0  0  0
   28.0624  -17.3601  -16.2928 C   0  0  0  0  0  0  0  0  0  0  0  0
   28.6354  -16.1790  -15.8822 C   0  0  0  0  0  0  0  0  0  0  0  0
   29.0847  -15.2230  -16.7950 C   0  0  0  0  0  0  0  0  0  0  0  0
   28.9419  -15.4871  -18.1407 C   0  0  0  0  0  0  0  0  0  0  0  0
   28.3739  -16.6570  -18.5800 C   0  0  0  0  0  0  0  0  0  0  0  0
   27.9453  -17.5707  -17.6435 C   0  0  0  0  0  0  0  0  0  0  0  0
   25.5519  -19.4833  -14.4722 C   0  0  0  0  0  0  0  0  0  0  0  0
   25.8194  -20.6798  -14.7741 O   0  0  0  0  0  0  0  0  0  0  0  0
   24.8011  -21.2103   -8.2823 C   0  0  0  0  0  0  0  0  0  0  0  0
   26.1715  -20.3428   -9.0905 S   0  0  0  0  0  0  0  0  0  0  0  0
   25.9961  -20.4741  -10.9263 C   0  0  0  0  0  0  0  0  0  0  0  0
   24.5523  -20.3896  -11.1971 C   0  0  0  0  0  0  0  0  0  0  0  0
   24.0911  -20.4179  -12.6198 C   0  0  2  0  0  0  0  0  0  0  0  0
   24.7146  -19.2751  -13.3440 N   0  0  0  0  0  0  0  0  0  0  0  0
   22.6454  -20.4100  -12.8357 C   0  0  0  0  0  0  0  0  0  0  0  0
   21.9759  -19.3609  -12.5417 O   0  0  0  0  0  0  0  0  0  0  0  0
   20.4666  -21.2468  -15.9994 C   0  0  0  0  0  0  0  0  0  0  0  0
   20.1010  -22.1141  -14.8333 C   0  0  1  0  0  0  0  0  0  0  0  0
   20.7738  -23.3261  -14.9943 O   0  0  0  0  0  0  0  0  0  0  0  0
   20.4574  -21.4719  -13.4922 C   0  0  2  0  0  0  0  0  0  0  0  0
   21.8990  -21.4857  -13.3586 N   0  0  0  0  0  0  0  0  0  0  0  0
   19.8649  -22.3024  -12.4358 C   0  0  0  0  0  0  0  0  0  0  0  0
   20.5938  -22.9528  -11.6651 O   0  0  0  0  0  0  0  0  0  0  0  0
   18.4965  -22.3671  -12.2903 O   0  0  0  0  0  0  0  0  0  0  0  0
  2  1  1  1
  2 10  1  0
  2  3  1  0
  3  4  1  0
  4  5  2  0
  5  6  1  0
  7  6  2  0
  8  7  1  0
  9  8  2  0
  9  4  1  0
 10 17  1  0
 11 10  2  0
 13 12  1  0
 14 13  1  0
 16 15  1  1
 15 14  1  0
 17 16  1  0
 18 19  2  0
 18 16  1  0
 21 20  1  6
 21 23  1  0
 22 21  1  0
 23 24  1  1
 23 25  1  0
 24 18  1  0
 25 27  1  0
 26 25  2  0
M  END
$$$$
