DVI.pdb
     RDKit          3D

 24 23  0  0  1  0  0  0  0  0999 V2000
   13.8633  -10.9441  -12.1341 N   0  0  0  0  0  0  0  0  0  0  0  0
   15.1855  -10.6971  -11.4997 C   0  0  1  0  0  0  0  0  0  0  0  0
   16.2658  -11.2674  -12.3482 C   0  0  0  0  0  0  0  0  0  0  0  0
   16.2835  -12.7021  -12.5635 C   0  0  0  0  0  0  0  0  0  0  0  0
   15.6499  -13.5138  -11.8651 O   0  0  0  0  0  0  0  0  0  0  0  0
   15.2965   -9.2571  -11.1973 C   0  0  0  0  0  0  0  0  0  0  0  0
   15.1456   -8.4028  -12.0622 O   0  0  0  0  0  0  0  0  0  0  0  0
   17.0443  -13.2210  -13.6031 O   0  0  0  0  0  0  0  0  0  0  0  0
   13.6208   -7.3414   -8.0757 C   0  0  0  0  0  0  0  0  0  0  0  0
   15.0340   -6.9126   -8.2855 C   0  0  2  0  0  0  0  0  0  0  0  0
   15.2397   -5.4325   -8.0817 C   0  0  0  0  0  0  0  0  0  0  0  0
   15.6857   -7.3734   -9.5349 C   0  0  2  0  0  0  0  0  0  0  0  0
   15.5886   -8.7488   -9.8705 N   0  0  0  0  0  0  0  0  0  0  0  0
   16.9612   -6.6945   -9.8682 C   0  0  0  0  0  0  0  0  0  0  0  0
   17.9006   -6.6034   -8.9973 O   0  0  0  0  0  0  0  0  0  0  0  0
   21.6233   -6.4415  -13.3714 C   0  0  0  0  0  0  0  0  0  0  0  0
   20.7584   -5.4817  -12.5555 C   0  0  0  0  0  0  0  0  0  0  0  0
   19.5010   -6.2397  -12.1921 C   0  0  2  0  0  0  0  0  0  0  0  0
   18.8267   -6.5896  -13.5004 C   0  0  0  0  0  0  0  0  0  0  0  0
   18.5518   -5.4452  -11.3707 C   0  0  2  0  0  0  0  0  0  0  0  0
   17.2794   -6.0965  -11.1132 N   0  0  0  0  0  0  0  0  0  0  0  0
   18.3570   -4.1151  -11.9960 C   0  0  0  0  0  0  0  0  0  0  0  0
   19.2770   -3.2740  -11.9387 O   0  0  0  0  0  0  0  0  0  0  0  0
   17.1850   -3.7530  -12.6517 O   0  0  0  0  0  0  0  0  0  0  0  0
  2  3  1  0
  2  1  1  6
  3  4  1  0
  4  5  2  0
  4  8  1  0
  6  7  2  0
  6  2  1  0
 10  9  1  6
 10 12  1  0
 11 10  1  0
 12 14  1  0
 12 13  1  1
 13  6  1  0
 14 21  1  0
 15 14  2  0
 16 17  1  0
 18 20  1  0
 18 17  1  0
 18 19  1  6
 20 22  1  0
 20 21  1  6
 22 23  2  0
 22 24  1  0
M  END
$$$$
