DVI.pdb
     RDKit          3D

 24 23  0  0  1  0  0  0  0  0999 V2000
   27.4029  -20.4019  -17.7556 N   0  0  0  0  0  0  0  0  0  0  0  0
   26.9642  -19.4707  -16.6822 C   0  0  1  0  0  0  0  0  0  0  0  0
   26.3533  -18.2569  -17.2870 C   0  0  0  0  0  0  0  0  0  0  0  0
   27.2135  -17.3515  -18.0254 C   0  0  0  0  0  0  0  0  0  0  0  0
   28.0848  -17.7277  -18.8299 O   0  0  0  0  0  0  0  0  0  0  0  0
   26.1129  -20.2169  -15.7359 C   0  0  0  0  0  0  0  0  0  0  0  0
   25.0643  -20.7431  -16.0883 O   0  0  0  0  0  0  0  0  0  0  0  0
   27.0735  -15.9824  -17.8391 O   0  0  0  0  0  0  0  0  0  0  0  0
   25.2685  -22.1033  -11.1362 C   0  0  0  0  0  0  0  0  0  0  0  0
   26.1627  -21.3418  -12.0559 C   0  0  2  0  0  0  0  0  0  0  0  0
   26.8555  -20.1835  -11.3829 C   0  0  0  0  0  0  0  0  0  0  0  0
   25.5786  -20.9307  -13.3550 C   0  0  2  0  0  0  0  0  0  0  0  0
   26.4475  -20.3830  -14.3342 N   0  0  0  0  0  0  0  0  0  0  0  0
   24.2137  -20.3562  -13.2790 C   0  0  0  0  0  0  0  0  0  0  0  0
   24.0336  -19.1487  -12.8806 O   0  0  0  0  0  0  0  0  0  0  0  0
   20.9008  -19.1032  -17.0112 C   0  0  0  0  0  0  0  0  0  0  0  0
   21.7090  -19.1716  -15.7162 C   0  0  0  0  0  0  0  0  0  0  0  0
   21.0303  -20.2006  -14.8398 C   0  0  2  0  0  0  0  0  0  0  0  0
   19.6334  -19.6797  -14.5827 C   0  0  0  0  0  0  0  0  0  0  0  0
   21.7073  -20.3985  -13.5324 C   0  0  2  0  0  0  0  0  0  0  0  0
   23.0126  -21.0300  -13.6142 N   0  0  0  0  0  0  0  0  0  0  0  0
   20.8062  -21.1450  -12.6220 C   0  0  0  0  0  0  0  0  0  0  0  0
   19.8480  -20.5490  -12.0891 O   0  0  0  0  0  0  0  0  0  0  0  0
   20.9773  -22.4937  -12.3282 O   0  0  0  0  0  0  0  0  0  0  0  0
  2  3  1  0
  2  1  1  6
  3  4  1  0
  4  5  2  0
  4  8  1  0
  6  7  2  0
  6  2  1  0
 10  9  1  1
 10 12  1  0
 11 10  1  0
 12 14  1  0
 12 13  1  1
 13  6  1  0
 14 21  1  0
 15 14  2  0
 16 17  1  0
 18 20  1  0
 18 17  1  0
 18 19  1  1
 20 22  1  0
 20 21  1  6
 22 23  2  0
 22 24  1  0
M  END
$$$$
