DVI.pdb
     RDKit          3D

 24 23  0  0  1  0  0  0  0  0999 V2000
   15.8191  -11.2905  -16.6061 N   0  0  0  0  0  0  0  0  0  0  0  0
   16.6626  -10.9101  -15.4418 C   0  0  1  0  0  0  0  0  0  0  0  0
   17.8343  -11.8215  -15.3495 C   0  0  0  0  0  0  0  0  0  0  0  0
   17.5907  -13.2268  -15.0833 C   0  0  0  0  0  0  0  0  0  0  0  0
   16.4833  -13.6854  -14.7495 O   0  0  0  0  0  0  0  0  0  0  0  0
   16.9724   -9.4708  -15.5402 C   0  0  0  0  0  0  0  0  0  0  0  0
   17.2686   -8.9460  -16.6067 O   0  0  0  0  0  0  0  0  0  0  0  0
   18.6394  -14.1296  -15.2019 O   0  0  0  0  0  0  0  0  0  0  0  0
   15.0165   -6.2592  -15.1265 C   0  0  0  0  0  0  0  0  0  0  0  0
   16.1752   -6.2229  -14.1877 C   0  0  2  0  0  0  0  0  0  0  0  0
   16.7263   -4.8343  -13.9815 C   0  0  0  0  0  0  0  0  0  0  0  0
   17.2645   -7.1951  -14.4450 C   0  0  2  0  0  0  0  0  0  0  0  0
   16.9502   -8.5782  -14.3970 N   0  0  0  0  0  0  0  0  0  0  0  0
   18.5986   -6.7968  -13.9347 C   0  0  0  0  0  0  0  0  0  0  0  0
   18.8877   -6.9248  -12.6900 O   0  0  0  0  0  0  0  0  0  0  0  0
   24.3176   -7.6162  -15.4108 C   0  0  0  0  0  0  0  0  0  0  0  0
   23.4350   -6.7480  -14.5153 C   0  0  0  0  0  0  0  0  0  0  0  0
   22.0237   -6.8828  -15.0423 C   0  0  2  0  0  0  0  0  0  0  0  0
   22.0337   -6.2847  -16.4318 C   0  0  0  0  0  0  0  0  0  0  0  0
   21.0183   -6.1570  -14.2242 C   0  0  2  0  0  0  0  0  0  0  0  0
   19.6537   -6.2558  -14.7114 N   0  0  0  0  0  0  0  0  0  0  0  0
   21.4349   -4.7416  -14.0782 C   0  0  0  0  0  0  0  0  0  0  0  0
   22.4158   -4.4661  -13.3578 O   0  0  0  0  0  0  0  0  0  0  0  0
   20.7786   -3.6918  -14.7120 O   0  0  0  0  0  0  0  0  0  0  0  0
  2  3  1  0
  2  1  1  6
  3  4  1  0
  4  5  2  0
  4  8  1  0
  6  7  2  0
  6  2  1  0
 10  9  1  6
 10 12  1  0
 11 10  1  0
 12 14  1  0
 12 13  1  1
 13  6  1  0
 14 21  1  0
 15 14  2  0
 16 17  1  0
 18 20  1  0
 18 17  1  0
 18 19  1  6
 20 22  1  0
 20 21  1  6
 22 23  2  0
 22 24  1  0
M  END
$$$$
