DVI.pdb
     RDKit          3D

 24 23  0  0  1  0  0  0  0  0999 V2000
   23.0843  -12.4877  -18.3559 N   0  0  0  0  0  0  0  0  0  0  0  0
   23.1931  -12.0389  -16.9422 C   0  0  1  0  0  0  0  0  0  0  0  0
   24.6195  -12.0426  -16.5208 C   0  0  0  0  0  0  0  0  0  0  0  0
   25.3339  -13.3054  -16.5297 C   0  0  0  0  0  0  0  0  0  0  0  0
   24.8081  -14.3950  -16.8201 O   0  0  0  0  0  0  0  0  0  0  0  0
   22.4844  -10.7519  -16.8051 C   0  0  0  0  0  0  0  0  0  0  0  0
   22.5677   -9.8756  -17.6570 O   0  0  0  0  0  0  0  0  0  0  0  0
   26.6825  -13.3222  -16.1984 O   0  0  0  0  0  0  0  0  0  0  0  0
   18.6067  -10.3418  -16.1061 C   0  0  0  0  0  0  0  0  0  0  0  0
   19.4031   -9.4511  -15.2131 C   0  0  2  0  0  0  0  0  0  0  0  0
   18.7372   -8.1225  -14.9561 C   0  0  0  0  0  0  0  0  0  0  0  0
   20.8323   -9.2711  -15.5636 C   0  0  2  0  0  0  0  0  0  0  0  0
   21.6455  -10.4296  -15.6665 N   0  0  0  0  0  0  0  0  0  0  0  0
   21.4709   -8.0562  -15.0026 C   0  0  0  0  0  0  0  0  0  0  0  0
   21.8795   -8.0349  -13.7853 O   0  0  0  0  0  0  0  0  0  0  0  0
   22.4378   -2.8990  -17.0296 C   0  0  0  0  0  0  0  0  0  0  0  0
   22.4999   -4.4094  -17.2527 C   0  0  0  0  0  0  0  0  0  0  0  0
   23.2788   -4.9839  -16.0905 C   0  0  2  0  0  0  0  0  0  0  0  0
   24.2826   -5.9443  -16.6894 C   0  0  0  0  0  0  0  0  0  0  0  0
   22.4309   -5.7299  -15.1254 C   0  0  2  0  0  0  0  0  0  0  0  0
   21.6927   -6.8416  -15.6987 N   0  0  0  0  0  0  0  0  0  0  0  0
   21.5233   -4.7819  -14.4356 C   0  0  0  0  0  0  0  0  0  0  0  0
   20.3025   -4.8107  -14.6923 O   0  0  0  0  0  0  0  0  0  0  0  0
   21.9701   -3.8500  -13.5048 O   0  0  0  0  0  0  0  0  0  0  0  0
  2  3  1  0
  2  1  1  6
  3  4  1  0
  4  5  2  0
  4  8  1  0
  6  7  2  0
  6  2  1  0
 10  9  1  6
 10 12  1  0
 11 10  1  0
 12 14  1  0
 12 13  1  1
 13  6  1  0
 14 21  1  0
 15 14  2  0
 16 17  1  0
 18 20  1  0
 18 17  1  0
 18 19  1  6
 20 22  1  0
 20 21  1  6
 22 23  2  0
 22 24  1  0
M  END
$$$$
