DVI.pdb
     RDKit          3D

 24 23  0  0  1  0  0  0  0  0999 V2000
   22.4206  -18.6826  -17.6661 N   0  0  0  0  0  0  0  0  0  0  0  0
   22.8475  -18.1866  -16.3306 C   0  0  1  0  0  0  0  0  0  0  0  0
   21.6721  -18.1101  -15.4224 C   0  0  0  0  0  0  0  0  0  0  0  0
   20.6484  -17.1222  -15.7074 C   0  0  0  0  0  0  0  0  0  0  0  0
   20.2947  -16.8052  -16.8573 O   0  0  0  0  0  0  0  0  0  0  0  0
   23.9713  -19.0193  -15.8607 C   0  0  0  0  0  0  0  0  0  0  0  0
   23.8247  -20.2031  -15.5820 O   0  0  0  0  0  0  0  0  0  0  0  0
   20.0138  -16.4814  -14.6513 O   0  0  0  0  0  0  0  0  0  0  0  0
   27.7195  -19.0210  -17.3788 C   0  0  0  0  0  0  0  0  0  0  0  0
   27.7319  -19.0805  -15.8884 C   0  0  2  0  0  0  0  0  0  0  0  0
   28.7573  -20.0429  -15.3433 C   0  0  0  0  0  0  0  0  0  0  0  0
   26.4200  -19.2676  -15.2237 C   0  0  2  0  0  0  0  0  0  0  0  0
   25.3184  -18.5072  -15.6949 N   0  0  0  0  0  0  0  0  0  0  0  0
   26.4829  -19.5153  -13.7631 C   0  0  0  0  0  0  0  0  0  0  0  0
   27.0591  -18.6749  -12.9814 O   0  0  0  0  0  0  0  0  0  0  0  0
   25.9518  -19.3752   -8.7086 C   0  0  0  0  0  0  0  0  0  0  0  0
   25.4106  -20.6708   -9.3115 C   0  0  0  0  0  0  0  0  0  0  0  0
   25.1340  -20.3832  -10.7704 C   0  0  2  0  0  0  0  0  0  0  0  0
   23.8290  -21.0756  -11.0965 C   0  0  0  0  0  0  0  0  0  0  0  0
   26.1845  -20.9043  -11.6823 C   0  0  2  0  0  0  0  0  0  0  0  0
   25.9491  -20.6436  -13.0915 N   0  0  0  0  0  0  0  0  0  0  0  0
   26.3786  -22.3523  -11.4296 C   0  0  0  0  0  0  0  0  0  0  0  0
   26.0319  -23.1750  -12.3015 O   0  0  0  0  0  0  0  0  0  0  0  0
   26.9346  -22.8462  -10.2543 O   0  0  0  0  0  0  0  0  0  0  0  0
  2  3  1  0
  2  1  1  6
  3  4  1  0
  4  5  2  0
  4  8  1  0
  6  7  2  0
  6  2  1  0
 10  9  1  6
 10 12  1  0
 11 10  1  0
 12 14  1  0
 12 13  1  1
 13  6  1  0
 14 21  1  0
 15 14  2  0
 16 17  1  0
 18 20  1  0
 18 17  1  0
 18 19  1  6
 20 22  1  0
 20 21  1  6
 22 23  2  0
 22 24  1  0
M  END
$$$$
