DVI.pdb
     RDKit          3D

 24 23  0  0  1  0  0  0  0  0999 V2000
   18.1758  -13.9430  -17.8037 N   0  0  0  0  0  0  0  0  0  0  0  0
   19.3292  -13.1545  -18.3134 C   0  0  1  0  0  0  0  0  0  0  0  0
   19.0621  -12.7162  -19.7094 C   0  0  0  0  0  0  0  0  0  0  0  0
   18.9275  -13.7344  -20.7340 C   0  0  0  0  0  0  0  0  0  0  0  0
   17.9128  -13.8747  -21.4402 O   0  0  0  0  0  0  0  0  0  0  0  0
   19.6239  -12.0799  -17.3461 C   0  0  0  0  0  0  0  0  0  0  0  0
   18.7325  -11.4614  -16.7775 O   0  0  0  0  0  0  0  0  0  0  0  0
   19.9793  -14.6138  -20.9564 O   0  0  0  0  0  0  0  0  0  0  0  0
   22.6998   -9.7675  -14.1721 C   0  0  0  0  0  0  0  0  0  0  0  0
   22.3980  -10.8774  -15.1220 C   0  0  2  0  0  0  0  0  0  0  0  0
   23.6252  -11.4107  -15.8179 C   0  0  0  0  0  0  0  0  0  0  0  0
   21.2992  -10.6394  -16.0884 C   0  0  2  0  0  0  0  0  0  0  0  0
   20.9738  -11.6786  -16.9985 N   0  0  0  0  0  0  0  0  0  0  0  0
   21.1979   -9.2508  -16.5986 C   0  0  0  0  0  0  0  0  0  0  0  0
   21.9835   -8.8357  -17.5258 O   0  0  0  0  0  0  0  0  0  0  0  0
   16.9675   -6.2905  -18.2908 C   0  0  0  0  0  0  0  0  0  0  0  0
   18.3057   -7.0005  -18.0913 C   0  0  0  0  0  0  0  0  0  0  0  0
   18.9914   -6.3081  -16.9346 C   0  0  2  0  0  0  0  0  0  0  0  0
   19.1919   -4.8710  -17.3625 C   0  0  0  0  0  0  0  0  0  0  0  0
   20.3172   -6.8902  -16.6028 C   0  0  2  0  0  0  0  0  0  0  0  0
   20.2785   -8.2697  -16.1501 N   0  0  0  0  0  0  0  0  0  0  0  0
   21.0010   -6.0205  -15.6157 C   0  0  0  0  0  0  0  0  0  0  0  0
   21.5651   -4.9791  -16.0085 O   0  0  0  0  0  0  0  0  0  0  0  0
   21.0460   -6.3110  -14.2562 O   0  0  0  0  0  0  0  0  0  0  0  0
  2  3  1  0
  2  1  1  1
  3  4  1  0
  4  5  2  0
  4  8  1  0
  6  7  2  0
  6  2  1  0
 10  9  1  6
 10 12  1  0
 11 10  1  0
 12 14  1  0
 12 13  1  6
 13  6  1  0
 14 21  1  0
 15 14  2  0
 16 17  1  0
 18 20  1  0
 18 17  1  0
 18 19  1  6
 20 22  1  0
 20 21  1  1
 22 23  2  0
 22 24  1  0
M  END
$$$$
