QNG.pdb
     RDKit          3D

 22 21  0  0  1  0  0  0  0  0999 V2000
   16.5037   -8.3013  -19.8859 N   0  0  0  0  0  0  0  0  0  0  0  0
   17.3876   -8.3752  -20.9961 C   0  0  0  0  0  0  0  0  0  0  0  0
   16.9175   -8.6356  -22.1161 O   0  0  0  0  0  0  0  0  0  0  0  0
   18.8315   -8.1467  -20.8263 C   0  0  0  0  0  0  0  0  0  0  0  0
   19.1601   -7.7313  -19.4323 C   0  0  0  0  0  0  0  0  0  0  0  0
   19.6135   -8.8589  -18.5411 C   0  0  2  0  0  0  0  0  0  0  0  0
   18.7024   -9.9578  -18.7163 N   0  0  0  0  0  0  0  0  0  0  0  0
   19.6210   -8.3388  -17.1502 C   0  0  0  0  0  0  0  0  0  0  0  0
   18.5973   -8.2547  -16.4327 O   0  0  0  0  0  0  0  0  0  0  0  0
   21.4570   -6.8462  -12.5459 N   0  0  0  0  0  0  0  0  0  0  0  0
   22.1726   -7.9625  -13.1296 C   0  0  0  0  0  0  0  0  0  0  0  0
   22.9636   -8.5408  -12.3837 O   0  0  0  0  0  0  0  0  0  0  0  0
   21.9189   -8.3114  -14.5021 C   0  0  0  0  0  0  0  0  0  0  0  0
   20.9456   -7.4038  -15.2070 C   0  0  2  0  0  0  0  0  0  0  0  0
   20.8590   -7.9191  -16.6199 N   0  0  0  0  0  0  0  0  0  0  0  0
   21.4244   -6.0230  -15.4129 C   0  0  0  0  0  0  0  0  0  0  0  0
   22.3879   -5.7857  -16.2426 O   0  0  0  0  0  0  0  0  0  0  0  0
   20.9260   -4.8703  -14.7834 N   0  0  0  0  0  0  0  0  0  0  0  0
   21.5725   -3.5667  -14.9731 C   0  0  0  0  0  0  0  0  0  0  0  0
   20.8184   -2.7817  -15.9664 C   0  0  0  0  0  0  0  0  0  0  0  0
   21.2329   -1.5017  -16.2921 O   0  0  0  0  0  0  0  0  0  0  0  0
   19.7979   -3.3041  -16.5045 O   0  0  0  0  0  0  0  0  0  0  0  0
  2  1  1  0
  2  3  2  0
  4  2  1  0
  5  4  1  0
  6  7  1  1
  6  5  1  0
  8  6  1  0
  9  8  2  0
 10 11  1  0
 11 13  1  0
 11 12  2  0
 14 13  1  1
 14 15  1  0
 14 16  1  0
 15  8  1  0
 16 17  2  0
 16 18  1  0
 18 19  1  0
 19 20  1  0
 20 21  1  0
 22 20  2  0
M  END
$$$$
