QNG.pdb
     RDKit          3D

 22 21  0  0  1  0  0  0  0  0999 V2000
   26.4420  -17.2480  -16.6952 N   0  0  0  0  0  0  0  0  0  0  0  0
   26.9847  -17.7383  -17.9136 C   0  0  0  0  0  0  0  0  0  0  0  0
   27.3957  -16.9215  -18.7545 O   0  0  0  0  0  0  0  0  0  0  0  0
   27.0615  -19.1843  -18.1765 C   0  0  0  0  0  0  0  0  0  0  0  0
   26.5151  -19.9777  -17.0383 C   0  0  0  0  0  0  0  0  0  0  0  0
   27.5203  -20.2829  -15.9577 C   0  0  2  0  0  0  0  0  0  0  0  0
   28.5359  -21.1306  -16.5219 N   0  0  0  0  0  0  0  0  0  0  0  0
   26.7816  -20.9370  -14.8478 C   0  0  0  0  0  0  0  0  0  0  0  0
   26.5884  -22.1728  -14.7729 O   0  0  0  0  0  0  0  0  0  0  0  0
   24.8262  -21.5372  -10.0905 N   0  0  0  0  0  0  0  0  0  0  0  0
   25.8609  -20.5246  -10.1437 C   0  0  0  0  0  0  0  0  0  0  0  0
   26.2920  -20.1414   -9.0557 O   0  0  0  0  0  0  0  0  0  0  0  0
   26.3034  -20.0478  -11.4270 C   0  0  0  0  0  0  0  0  0  0  0  0
   25.6353  -20.7100  -12.6030 C   0  0  2  0  0  0  0  0  0  0  0  0
   26.2742  -20.1066  -13.8265 N   0  0  0  0  0  0  0  0  0  0  0  0
   24.2157  -20.3527  -12.7904 C   0  0  0  0  0  0  0  0  0  0  0  0
   23.8945  -19.1993  -13.2797 O   0  0  0  0  0  0  0  0  0  0  0  0
   23.1097  -21.1647  -12.4888 N   0  0  0  0  0  0  0  0  0  0  0  0
   21.7399  -20.6573  -12.6277 C   0  0  0  0  0  0  0  0  0  0  0  0
   21.1579  -21.1464  -13.8900 C   0  0  0  0  0  0  0  0  0  0  0  0
   20.1291  -22.0722  -13.8617 O   0  0  0  0  0  0  0  0  0  0  0  0
   21.6184  -20.7018  -14.9827 O   0  0  0  0  0  0  0  0  0  0  0  0
  2  1  1  0
  2  3  2  0
  4  2  1  0
  5  4  1  0
  6  7  1  6
  6  5  1  0
  8  6  1  0
  9  8  2  0
 10 11  1  0
 11 13  1  0
 11 12  2  0
 14 13  1  1
 14 15  1  0
 14 16  1  0
 15  8  1  0
 16 17  2  0
 16 18  1  0
 18 19  1  0
 19 20  1  0
 20 21  1  0
 22 20  2  0
M  END
$$$$
