QNG.pdb
     RDKit          3D

 22 21  0  0  1  0  0  0  0  0999 V2000
   17.2255  -18.6881    2.3543 N   0  0  0  0  0  0  0  0  0  0  0  0
   16.5744  -19.5081    3.3151 C   0  0  0  0  0  0  0  0  0  0  0  0
   16.5429  -20.7358    3.1275 O   0  0  0  0  0  0  0  0  0  0  0  0
   15.9503  -18.9184    4.5103 C   0  0  0  0  0  0  0  0  0  0  0  0
   16.1631  -17.4436    4.5680 C   0  0  0  0  0  0  0  0  0  0  0  0
   15.6306  -16.7899    5.8172 C   0  0  2  0  0  0  0  0  0  0  0  0
   14.3618  -16.1917    5.4995 N   0  0  0  0  0  0  0  0  0  0  0  0
   16.6406  -15.7914    6.2509 C   0  0  0  0  0  0  0  0  0  0  0  0
   16.5532  -14.5642    6.0137 O   0  0  0  0  0  0  0  0  0  0  0  0
   19.0087  -13.3733   10.6119 N   0  0  0  0  0  0  0  0  0  0  0  0
   18.7479  -13.4503    9.1889 C   0  0  0  0  0  0  0  0  0  0  0  0
   19.1545  -12.5012    8.5176 O   0  0  0  0  0  0  0  0  0  0  0  0
   18.0515  -14.5970    8.6694 C   0  0  0  0  0  0  0  0  0  0  0  0
   18.7609  -15.3001    7.5422 C   0  0  2  0  0  0  0  0  0  0  0  0
   17.7572  -16.2668    6.9702 N   0  0  0  0  0  0  0  0  0  0  0  0
   19.8501  -16.2024    7.9636 C   0  0  0  0  0  0  0  0  0  0  0  0
   19.5859  -17.2606    8.6587 O   0  0  0  0  0  0  0  0  0  0  0  0
   21.2163  -16.0423    7.6782 N   0  0  0  0  0  0  0  0  0  0  0  0
   22.2130  -16.9826    8.2034 C   0  0  0  0  0  0  0  0  0  0  0  0
   22.5333  -16.6339    9.5989 C   0  0  0  0  0  0  0  0  0  0  0  0
   23.4530  -17.3904   10.3047 O   0  0  0  0  0  0  0  0  0  0  0  0
   21.9528  -15.6384   10.1240 O   0  0  0  0  0  0  0  0  0  0  0  0
  2  1  1  0
  2  3  2  0
  4  2  1  0
  5  4  1  0
  6  7  1  6
  6  5  1  0
  8  6  1  0
  9  8  2  0
 10 11  1  0
 11 13  1  0
 11 12  2  0
 14 13  1  1
 14 15  1  0
 14 16  1  0
 15  8  1  0
 16 17  2  0
 16 18  1  0
 18 19  1  0
 19 20  1  0
 20 21  1  0
 22 20  2  0
M  END
$$$$
