QNG.pdb
     RDKit          3D

 22 21  0  0  1  0  0  0  0  0999 V2000
   17.7410  -14.1117  -17.1541 N   0  0  0  0  0  0  0  0  0  0  0  0
   18.2756  -14.8854  -18.2195 C   0  0  0  0  0  0  0  0  0  0  0  0
   17.5060  -15.6040  -18.8788 O   0  0  0  0  0  0  0  0  0  0  0  0
   19.7113  -14.8374  -18.5393 C   0  0  0  0  0  0  0  0  0  0  0  0
   20.4529  -13.9508  -17.5971 C   0  0  0  0  0  0  0  0  0  0  0  0
   21.9376  -13.8857  -17.8475 C   0  0  2  0  0  0  0  0  0  0  0  0
   22.4512  -15.2289  -17.8262 N   0  0  0  0  0  0  0  0  0  0  0  0
   22.5222  -13.0333  -16.7812 C   0  0  0  0  0  0  0  0  0  0  0  0
   22.8395  -13.4579  -15.6458 O   0  0  0  0  0  0  0  0  0  0  0  0
   26.7083   -9.9647  -15.2626 N   0  0  0  0  0  0  0  0  0  0  0  0
   25.5267   -9.4823  -15.9481 C   0  0  0  0  0  0  0  0  0  0  0  0
   25.2848   -8.2818  -15.8186 O   0  0  0  0  0  0  0  0  0  0  0  0
   24.7372  -10.4107  -16.7126 C   0  0  0  0  0  0  0  0  0  0  0  0
   23.4157  -10.7699  -16.0859 C   0  0  2  0  0  0  0  0  0  0  0  0
   22.7261  -11.6694  -17.0782 N   0  0  0  0  0  0  0  0  0  0  0  0
   22.4606   -9.6507  -15.9710 C   0  0  0  0  0  0  0  0  0  0  0  0
   21.8880   -9.1732  -17.0279 O   0  0  0  0  0  0  0  0  0  0  0  0
   22.0734   -9.0102  -14.7822 N   0  0  0  0  0  0  0  0  0  0  0  0
   21.1203   -7.8946  -14.8011 C   0  0  0  0  0  0  0  0  0  0  0  0
   21.8554   -6.6181  -14.8426 C   0  0  0  0  0  0  0  0  0  0  0  0
   21.1594   -5.4215  -14.8437 O   0  0  0  0  0  0  0  0  0  0  0  0
   23.1211   -6.6477  -14.8760 O   0  0  0  0  0  0  0  0  0  0  0  0
  2  1  1  0
  2  3  2  0
  4  2  1  0
  5  4  1  0
  6  7  1  1
  6  5  1  0
  8  6  1  0
  9  8  2  0
 10 11  1  0
 11 13  1  0
 11 12  2  0
 14 13  1  6
 14 15  1  0
 14 16  1  0
 15  8  1  0
 16 17  2  0
 16 18  1  0
 18 19  1  0
 19 20  1  0
 20 21  1  0
 22 20  2  0
M  END
$$$$
