QNG.pdb
     RDKit          3D

 22 21  0  0  1  0  0  0  0  0999 V2000
   23.6787  -19.4409  -17.1793 N   0  0  0  0  0  0  0  0  0  0  0  0
   24.9283  -20.0913  -17.3657 C   0  0  0  0  0  0  0  0  0  0  0  0
   25.7210  -19.6305  -18.2039 O   0  0  0  0  0  0  0  0  0  0  0  0
   25.2803  -21.2862  -16.5820 C   0  0  0  0  0  0  0  0  0  0  0  0
   24.1965  -21.6528  -15.6257 C   0  0  0  0  0  0  0  0  0  0  0  0
   24.2034  -20.8553  -14.3470 C   0  0  2  0  0  0  0  0  0  0  0  0
   25.3860  -21.2090  -13.6089 N   0  0  0  0  0  0  0  0  0  0  0  0
   22.9535  -21.1897  -13.6182 C   0  0  0  0  0  0  0  0  0  0  0  0
   22.8482  -22.1502  -12.8205 O   0  0  0  0  0  0  0  0  0  0  0  0
   21.1761  -19.5323  -10.6193 N   0  0  0  0  0  0  0  0  0  0  0  0
   20.3506  -18.7237  -11.4932 C   0  0  0  0  0  0  0  0  0  0  0  0
   20.0090  -17.6286  -11.0454 O   0  0  0  0  0  0  0  0  0  0  0  0
   19.9950  -19.2388  -12.7886 C   0  0  0  0  0  0  0  0  0  0  0  0
   20.5482  -20.6068  -13.0896 C   0  0  2  0  0  0  0  0  0  0  0  0
   21.8285  -20.3700  -13.8473 N   0  0  0  0  0  0  0  0  0  0  0  0
   19.7600  -21.3940  -14.0576 C   0  0  0  0  0  0  0  0  0  0  0  0
   19.7553  -21.0693  -15.3095 O   0  0  0  0  0  0  0  0  0  0  0  0
   18.9744  -22.5213  -13.7649 N   0  0  0  0  0  0  0  0  0  0  0  0
   18.1645  -23.1680  -14.8037 C   0  0  0  0  0  0  0  0  0  0  0  0
   16.8486  -22.5099  -14.8848 C   0  0  0  0  0  0  0  0  0  0  0  0
   15.8916  -22.9880  -15.7634 O   0  0  0  0  0  0  0  0  0  0  0  0
   16.6227  -21.5115  -14.1390 O   0  0  0  0  0  0  0  0  0  0  0  0
  2  1  1  0
  2  3  2  0
  4  2  1  0
  5  4  1  0
  6  7  1  1
  6  5  1  0
  8  6  1  0
  9  8  2  0
 10 11  1  0
 11 13  1  0
 11 12  2  0
 14 13  1  6
 14 15  1  0
 14 16  1  0
 15  8  1  0
 16 17  2  0
 16 18  1  0
 18 19  1  0
 19 20  1  0
 20 21  1  0
 22 20  2  0
M  END
$$$$
