QNG.pdb
     RDKit          3D

 22 21  0  0  1  0  0  0  0  0999 V2000
   21.7953  -17.2301  -15.5109 N   0  0  0  0  0  0  0  0  0  0  0  0
   20.5646  -17.7695  -15.0484 C   0  0  0  0  0  0  0  0  0  0  0  0
   20.5524  -18.9284  -14.6010 O   0  0  0  0  0  0  0  0  0  0  0  0
   19.3277  -16.9734  -15.0956 C   0  0  0  0  0  0  0  0  0  0  0  0
   19.5807  -15.5987  -15.6149 C   0  0  0  0  0  0  0  0  0  0  0  0
   18.3867  -14.6816  -15.5459 C   0  0  2  0  0  0  0  0  0  0  0  0
   17.2494  -15.3929  -16.0646 N   0  0  0  0  0  0  0  0  0  0  0  0
   18.7183  -13.4740  -16.3441 C   0  0  0  0  0  0  0  0  0  0  0  0
   18.5380  -13.3856  -17.5808 O   0  0  0  0  0  0  0  0  0  0  0  0
   17.1321   -8.9438  -18.3899 N   0  0  0  0  0  0  0  0  0  0  0  0
   18.2171   -9.3057  -17.5006 C   0  0  0  0  0  0  0  0  0  0  0  0
   19.0994   -8.4584  -17.3594 O   0  0  0  0  0  0  0  0  0  0  0  0
   18.1925  -10.5937  -16.8600 C   0  0  0  0  0  0  0  0  0  0  0  0
   19.5360  -11.0794  -16.3834 C   0  0  2  0  0  0  0  0  0  0  0  0
   19.2670  -12.3711  -15.6566 N   0  0  0  0  0  0  0  0  0  0  0  0
   20.1526  -10.2550  -15.3258 C   0  0  0  0  0  0  0  0  0  0  0  0
   19.6282  -10.2143  -14.1442 O   0  0  0  0  0  0  0  0  0  0  0  0
   21.3101   -9.4697  -15.4561 N   0  0  0  0  0  0  0  0  0  0  0  0
   21.7703   -8.6143  -14.3561 C   0  0  0  0  0  0  0  0  0  0  0  0
   20.9472   -7.3932  -14.3028 C   0  0  0  0  0  0  0  0  0  0  0  0
   21.2011   -6.4322  -13.3393 O   0  0  0  0  0  0  0  0  0  0  0  0
   20.0171   -7.2511  -15.1506 O   0  0  0  0  0  0  0  0  0  0  0  0
  2  1  1  0
  2  3  2  0
  4  2  1  0
  5  4  1  0
  6  7  1  6
  6  5  1  0
  8  6  1  0
  9  8  2  0
 10 11  1  0
 11 13  1  0
 11 12  2  0
 14 13  1  1
 14 15  1  0
 14 16  1  0
 15  8  1  0
 16 17  2  0
 16 18  1  0
 18 19  1  0
 19 20  1  0
 20 21  1  0
 22 20  2  0
M  END
$$$$
