DRF.pdb
     RDKit          3D

 31 31  0  0  1  0  0  0  0  0999 V2000
    9.9669  -18.9612   21.1023 N   0  0  0  0  0  0  0  0  0  0  0  0
   11.2245  -18.3846   21.5035 C   0  0  1  0  0  0  0  0  0  0  0  0
   12.2246  -18.3422   20.3695 C   0  0  0  0  0  0  0  0  0  0  0  0
   11.9671  -19.4541   19.4302 C   0  0  0  0  0  0  0  0  0  0  0  0
   11.7085  -20.6068   19.8367 O   0  0  0  0  0  0  0  0  0  0  0  0
   10.9467  -17.0080   21.9908 C   0  0  0  0  0  0  0  0  0  0  0  0
   11.8549  -16.1699   22.2065 O   0  0  0  0  0  0  0  0  0  0  0  0
   12.0127  -19.2171   18.0716 O   0  0  0  0  0  0  0  0  0  0  0  0
    8.2800  -12.3926   18.3984 N   0  0  0  0  0  0  0  0  0  0  0  0
    7.8587  -13.5627   17.7189 C   0  0  0  0  0  0  0  0  0  0  0  0
    8.2922  -13.8270   16.5439 N   0  0  0  0  0  0  0  0  0  0  0  0
    6.9449  -14.4218   18.3881 N   0  0  0  0  0  0  0  0  0  0  0  0
    6.8238  -14.4067   19.8214 C   0  0  0  0  0  0  0  0  0  0  0  0
    8.1784  -14.6652   20.4519 C   0  0  0  0  0  0  0  0  0  0  0  0
    7.9345  -14.8464   21.9390 C   0  0  0  0  0  0  0  0  0  0  0  0
    9.2440  -15.2651   22.6239 C   0  0  2  0  0  0  0  0  0  0  0  0
    9.6138  -16.6009   22.2287 N   0  0  0  0  0  0  0  0  0  0  0  0
    9.0425  -15.1118   24.0634 C   0  0  0  0  0  0  0  0  0  0  0  0
    8.6540  -14.0324   24.5641 O   0  0  0  0  0  0  0  0  0  0  0  0
    7.9689  -14.6719   16.0396 N   0  0  0  0  0  0  0  0  0  0  0  0
    9.2887  -16.2025   24.9306 C   0  0  1  0  0  0  0  0  0  0  0  0
    9.1721  -16.0718   26.3631 C   0  0  0  0  0  0  0  0  0  0  0  0
    7.7968  -15.5527   26.6518 C   0  0  0  0  0  0  0  0  0  0  0  0
    7.6691  -14.0937   26.5703 C   0  0  0  0  0  0  0  0  0  0  0  0
    8.7098  -13.3117   27.0412 C   0  0  0  0  0  0  0  0  0  0  0  0
    8.6116  -11.9457   26.9720 C   0  0  0  0  0  0  0  0  0  0  0  0
    7.4990  -11.3654   26.4443 C   0  0  0  0  0  0  0  0  0  0  0  0
    6.4602  -12.1577   25.9746 C   0  0  0  0  0  0  0  0  0  0  0  0
    6.5319  -13.5309   26.0314 C   0  0  0  0  0  0  0  0  0  0  0  0
    9.5005  -17.3452   27.0215 O   0  0  0  0  0  0  0  0  0  0  0  0
    9.7750  -18.3482   26.3200 O   0  0  0  0  0  0  0  0  0  0  0  0
  2  1  1  6
  3  2  1  0
  3  4  1  0
  4  5  2  0
  6  7  2  0
  6  2  1  0
  8  4  1  0
 10  9  1  0
 11 10  2  0
 12 13  1  0
 12 10  1  0
 13 14  1  0
 14 15  1  0
 16 15  1  6
 16 18  1  0
 16 17  1  0
 17  6  1  0
 18 20  1  0
 19 18  2  0
 20 21  1  0
 21 29  1  0
 22 23  1  0
 21 22  1  1
 23 24  2  0
 24 25  1  0
 26 25  2  0
 27 26  1  0
 28 27  2  0
 28 23  1  0
 29 30  2  0
 29 31  1  0
M  END
$$$$
