DRF.pdb
     RDKit          3D

 31 31  0  0  1  0  0  0  0  0999 V2000
    9.6137  -18.7823   21.1394 N   0  0  0  0  0  0  0  0  0  0  0  0
   10.9780  -18.6392   21.5792 C   0  0  1  0  0  0  0  0  0  0  0  0
   11.9697  -18.8846   20.4637 C   0  0  0  0  0  0  0  0  0  0  0  0
   11.5231  -18.1973   19.2337 C   0  0  0  0  0  0  0  0  0  0  0  0
   10.4646  -17.5345   19.2026 O   0  0  0  0  0  0  0  0  0  0  0  0
   11.1326  -17.2573   22.1048 C   0  0  0  0  0  0  0  0  0  0  0  0
   12.2519  -16.7498   22.3562 O   0  0  0  0  0  0  0  0  0  0  0  0
   12.2910  -18.2877   18.0908 O   0  0  0  0  0  0  0  0  0  0  0  0
    7.6194  -14.6058   17.6651 N   0  0  0  0  0  0  0  0  0  0  0  0
    7.8841  -13.5799   18.6063 C   0  0  0  0  0  0  0  0  0  0  0  0
    7.8911  -12.3511   18.2478 N   0  0  0  0  0  0  0  0  0  0  0  0
    8.1388  -13.9667   19.9504 N   0  0  0  0  0  0  0  0  0  0  0  0
    7.1503  -14.6727   20.7207 C   0  0  0  0  0  0  0  0  0  0  0  0
    7.6812  -14.9350   22.1167 C   0  0  0  0  0  0  0  0  0  0  0  0
    9.0167  -14.2201   22.2117 C   0  0  0  0  0  0  0  0  0  0  0  0
   10.0378  -15.1357   22.9034 C   0  0  2  0  0  0  0  0  0  0  0  0
    9.9880  -16.4612   22.3397 N   0  0  0  0  0  0  0  0  0  0  0  0
    9.7492  -15.0940   24.3357 C   0  0  0  0  0  0  0  0  0  0  0  0
    9.8533  -14.0379   24.9994 O   0  0  0  0  0  0  0  0  0  0  0  0
    8.1656  -11.6081   18.9151 N   0  0  0  0  0  0  0  0  0  0  0  0
    9.3400  -16.2702   25.0076 C   0  0  2  0  0  0  0  0  0  0  0  0
    9.1968  -16.3108   26.4431 C   0  0  0  0  0  0  0  0  0  0  0  0
    7.7794  -15.9428   26.7591 C   0  0  0  0  0  0  0  0  0  0  0  0
    7.4893  -14.5080   26.6646 C   0  0  0  0  0  0  0  0  0  0  0  0
    6.3914  -14.1028   25.9251 C   0  0  0  0  0  0  0  0  0  0  0  0
    6.1012  -12.7663   25.8261 C   0  0  0  0  0  0  0  0  0  0  0  0
    6.8875  -11.8471   26.4504 C   0  0  0  0  0  0  0  0  0  0  0  0
    7.9867  -12.2628   27.1898 C   0  0  0  0  0  0  0  0  0  0  0  0
    8.3014  -13.5974   27.3063 C   0  0  0  0  0  0  0  0  0  0  0  0
    9.6241  -17.6184   26.9631 O   0  0  0  0  0  0  0  0  0  0  0  0
    9.5767  -17.8355   28.1976 O   0  0  0  0  0  0  0  0  0  0  0  0
  2  1  1  6
  3  2  1  0
  3  4  1  0
  4  5  2  0
  6  7  2  0
  6  2  1  0
  8  4  1  0
 10  9  1  0
 11 10  2  0
 12 13  1  0
 12 10  1  0
 13 14  1  0
 14 15  1  0
 16 15  1  6
 16 18  1  0
 16 17  1  0
 17  6  1  0
 18 20  1  0
 19 18  2  0
 20 21  1  0
 21 29  1  0
 22 23  1  0
 21 22  1  1
 23 24  2  0
 24 25  1  0
 26 25  2  0
 27 26  1  0
 28 27  2  0
 28 23  1  0
 29 30  2  0
 29 31  1  0
M  END
$$$$
