DRF.pdb
     RDKit          3D

 31 31  0  0  1  0  0  0  0  0999 V2000
   10.6725  -18.2426   19.3160 N   0  0  0  0  0  0  0  0  0  0  0  0
   11.7289  -17.3881   19.7944 C   0  0  1  0  0  0  0  0  0  0  0  0
   12.4725  -16.7079   18.6665 C   0  0  0  0  0  0  0  0  0  0  0  0
   13.2383  -17.7084   17.8937 C   0  0  0  0  0  0  0  0  0  0  0  0
   13.3364  -18.8940   18.2752 O   0  0  0  0  0  0  0  0  0  0  0  0
   11.1092  -16.3710   20.6839 C   0  0  0  0  0  0  0  0  0  0  0  0
   11.7302  -15.3609   21.0931 O   0  0  0  0  0  0  0  0  0  0  0  0
   13.8611  -17.3276   16.7227 O   0  0  0  0  0  0  0  0  0  0  0  0
    9.1894  -15.0310   17.3361 N   0  0  0  0  0  0  0  0  0  0  0  0
    8.1258  -14.0959   17.2845 C   0  0  0  0  0  0  0  0  0  0  0  0
    8.0581  -13.2358   16.3390 N   0  0  0  0  0  0  0  0  0  0  0  0
    7.1475  -14.1511   18.3146 N   0  0  0  0  0  0  0  0  0  0  0  0
    7.2453  -15.1105   19.3819 C   0  0  0  0  0  0  0  0  0  0  0  0
    7.5396  -14.3960   20.6866 C   0  0  0  0  0  0  0  0  0  0  0  0
    7.6567  -15.4719   21.7507 C   0  0  0  0  0  0  0  0  0  0  0  0
    9.1378  -15.6912   22.0942 C   0  0  2  0  0  0  0  0  0  0  0  0
    9.7667  -16.5241   21.1003 N   0  0  0  0  0  0  0  0  0  0  0  0
    9.1863  -16.2477   23.4448 C   0  0  0  0  0  0  0  0  0  0  0  0
    8.8251  -17.4211   23.6885 O   0  0  0  0  0  0  0  0  0  0  0  0
    7.3341  -12.4952   16.3497 N   0  0  0  0  0  0  0  0  0  0  0  0
    9.6512  -15.4529   24.5193 C   0  0  2  0  0  0  0  0  0  0  0  0
    8.8853  -15.2978   25.7326 C   0  0  0  0  0  0  0  0  0  0  0  0
    7.5597  -14.7138   25.3501 C   0  0  0  0  0  0  0  0  0  0  0  0
    7.2816  -13.4005   25.9414 C   0  0  0  0  0  0  0  0  0  0  0  0
    6.0566  -13.1969   26.5531 C   0  0  0  0  0  0  0  0  0  0  0  0
    5.7776  -11.9773   27.1143 C   0  0  0  0  0  0  0  0  0  0  0  0
    6.6989  -10.9762   27.0690 C   0  0  0  0  0  0  0  0  0  0  0  0
    7.9248  -11.1895   26.4532 C   0  0  0  0  0  0  0  0  0  0  0  0
    8.2317  -12.4033   25.8820 C   0  0  0  0  0  0  0  0  0  0  0  0
    8.8094  -16.5756   26.4567 O   0  0  0  0  0  0  0  0  0  0  0  0
    9.4424  -16.7132   27.5308 O   0  0  0  0  0  0  0  0  0  0  0  0
  2  1  1  6
  3  2  1  0
  3  4  1  0
  4  5  2  0
  6  7  2  0
  6  2  1  0
  8  4  1  0
 10  9  1  0
 11 10  2  0
 12 13  1  0
 12 10  1  0
 13 14  1  0
 14 15  1  0
 16 15  1  6
 16 18  1  0
 16 17  1  0
 17  6  1  0
 18 20  1  0
 19 18  2  0
 20 21  1  0
 21 29  1  0
 22 23  1  0
 21 22  1  6
 23 24  2  0
 24 25  1  0
 26 25  2  0
 27 26  1  0
 28 27  2  0
 28 23  1  0
 29 30  2  0
 29 31  1  0
M  END
$$$$
