DRF.pdb
     RDKit          3D

 31 31  0  0  1  0  0  0  0  0999 V2000
   13.7900  -18.4040   20.8530 N   0  0  0  0  0  0  0  0  0  0  0  0
   13.8959  -17.0731   21.3939 C   0  0  1  0  0  0  0  0  0  0  0  0
   13.6115  -16.0080   20.3583 C   0  0  0  0  0  0  0  0  0  0  0  0
   14.8147  -15.7764   19.5317 C   0  0  0  0  0  0  0  0  0  0  0  0
   15.9059  -16.3237   19.7975 O   0  0  0  0  0  0  0  0  0  0  0  0
   12.9230  -16.9698   22.5131 C   0  0  0  0  0  0  0  0  0  0  0  0
   12.6818  -15.8893   23.1029 O   0  0  0  0  0  0  0  0  0  0  0  0
   14.7348  -14.9364   18.4399 O   0  0  0  0  0  0  0  0  0  0  0  0
    8.7418  -19.8695   20.5836 N   0  0  0  0  0  0  0  0  0  0  0  0
    8.7293  -21.2588   20.8633 C   0  0  0  0  0  0  0  0  0  0  0  0
    8.9511  -22.1133   19.9364 N   0  0  0  0  0  0  0  0  0  0  0  0
    8.4632  -21.6607   22.2008 N   0  0  0  0  0  0  0  0  0  0  0  0
    9.3377  -21.2826   23.2784 C   0  0  0  0  0  0  0  0  0  0  0  0
    9.8628  -19.8797   23.0430 C   0  0  0  0  0  0  0  0  0  0  0  0
   10.7088  -19.5271   24.2528 C   0  0  0  0  0  0  0  0  0  0  0  0
   11.3124  -18.1273   24.0634 C   0  0  2  0  0  0  0  0  0  0  0  0
   12.2277  -18.1206   22.9501 N   0  0  0  0  0  0  0  0  0  0  0  0
   11.9285  -17.7510   25.3342 C   0  0  0  0  0  0  0  0  0  0  0  0
   13.1084  -18.0618   25.6132 O   0  0  0  0  0  0  0  0  0  0  0  0
    8.9922  -23.1258   20.1506 N   0  0  0  0  0  0  0  0  0  0  0  0
   11.1859  -17.0155   26.2881 C   0  0  2  0  0  0  0  0  0  0  0  0
   11.7359  -16.6782   27.5790 C   0  0  0  0  0  0  0  0  0  0  0  0
   11.8895  -15.1886   27.6215 C   0  0  0  0  0  0  0  0  0  0  0  0
   10.6241  -14.4470   27.5994 C   0  0  0  0  0  0  0  0  0  0  0  0
   10.1377  -13.9339   28.7895 C   0  0  0  0  0  0  0  0  0  0  0  0
    8.9577  -13.2355   28.7904 C   0  0  0  0  0  0  0  0  0  0  0  0
    8.2717  -13.0493   27.6294 C   0  0  0  0  0  0  0  0  0  0  0  0
    8.7672  -13.5677   26.4406 C   0  0  0  0  0  0  0  0  0  0  0  0
    9.9488  -14.2725   26.4103 C   0  0  0  0  0  0  0  0  0  0  0  0
   10.9042  -17.2424   28.6527 O   0  0  0  0  0  0  0  0  0  0  0  0
    9.8014  -17.7670   28.3663 O   0  0  0  0  0  0  0  0  0  0  0  0
  2  1  1  6
  3  2  1  0
  3  4  1  0
  4  5  2  0
  6  7  2  0
  6  2  1  0
  8  4  1  0
 10  9  1  0
 11 10  2  0
 12 13  1  0
 12 10  1  0
 13 14  1  0
 14 15  1  0
 16 15  1  1
 16 18  1  0
 16 17  1  0
 17  6  1  0
 18 20  1  0
 19 18  2  0
 20 21  1  0
 21 29  1  0
 22 23  1  0
 21 22  1  6
 23 24  2  0
 24 25  1  0
 26 25  2  0
 27 26  1  0
 28 27  2  0
 28 23  1  0
 29 30  2  0
 29 31  1  0
M  END
$$$$
