DRF.pdb
     RDKit          3D

 31 31  0  0  1  0  0  0  0  0999 V2000
    6.6985  -16.5570   19.7381 N   0  0  0  0  0  0  0  0  0  0  0  0
    7.5814  -15.7224   20.5119 C   0  0  1  0  0  0  0  0  0  0  0  0
    7.5010  -14.2680   20.1040 C   0  0  0  0  0  0  0  0  0  0  0  0
    8.1639  -14.0750   18.7971 C   0  0  0  0  0  0  0  0  0  0  0  0
    8.7892  -15.0009   18.2380 O   0  0  0  0  0  0  0  0  0  0  0  0
    7.1978  -15.8740   21.9400 C   0  0  0  0  0  0  0  0  0  0  0  0
    6.1949  -15.3065   22.4357 O   0  0  0  0  0  0  0  0  0  0  0  0
    8.0926  -12.8444   18.1769 O   0  0  0  0  0  0  0  0  0  0  0  0
    6.4125  -23.2490   24.4581 N   0  0  0  0  0  0  0  0  0  0  0  0
    7.3861  -22.5910   23.6659 C   0  0  0  0  0  0  0  0  0  0  0  0
    8.3478  -23.2477   23.1348 N   0  0  0  0  0  0  0  0  0  0  0  0
    7.2527  -21.1869   23.4871 N   0  0  0  0  0  0  0  0  0  0  0  0
    6.1731  -20.4590   24.0984 C   0  0  0  0  0  0  0  0  0  0  0  0
    6.2755  -18.9905   23.7342 C   0  0  0  0  0  0  0  0  0  0  0  0
    7.5266  -18.4640   24.4132 C   0  0  0  0  0  0  0  0  0  0  0  0
    7.6403  -16.9512   24.1719 C   0  0  2  0  0  0  0  0  0  0  0  0
    7.9775  -16.6852   22.7962 N   0  0  0  0  0  0  0  0  0  0  0  0
    8.6193  -16.4374   25.1279 C   0  0  0  0  0  0  0  0  0  0  0  0
    9.8460  -16.4349   24.8793 O   0  0  0  0  0  0  0  0  0  0  0  0
    9.0425  -22.7716   22.5318 N   0  0  0  0  0  0  0  0  0  0  0  0
    8.1871  -15.9252   26.3742 C   0  0  1  0  0  0  0  0  0  0  0  0
    9.1225  -15.4214   27.3509 C   0  0  0  0  0  0  0  0  0  0  0  0
    8.4643  -14.2673   28.0430 C   0  0  0  0  0  0  0  0  0  0  0  0
    7.9842  -13.2133   27.1426 C   0  0  0  0  0  0  0  0  0  0  0  0
    6.6185  -13.0419   26.9946 C   0  0  0  0  0  0  0  0  0  0  0  0
    6.1488  -12.0608   26.1597 C   0  0  0  0  0  0  0  0  0  0  0  0
    7.0198  -11.2631   25.4828 C   0  0  0  0  0  0  0  0  0  0  0  0
    8.3879  -11.4425   25.6375 C   0  0  0  0  0  0  0  0  0  0  0  0
    8.8872  -12.4191   26.4687 C   0  0  0  0  0  0  0  0  0  0  0  0
    9.5635  -16.5042   28.2430 O   0  0  0  0  0  0  0  0  0  0  0  0
    9.0043  -17.6250   28.1743 O   0  0  0  0  0  0  0  0  0  0  0  0
  2  1  1  6
  3  2  1  0
  3  4  1  0
  4  5  2  0
  6  7  2  0
  6  2  1  0
  8  4  1  0
 10  9  1  0
 11 10  2  0
 12 13  1  0
 12 10  1  0
 13 14  1  0
 14 15  1  0
 16 15  1  6
 16 18  1  0
 16 17  1  0
 17  6  1  0
 18 20  1  0
 19 18  2  0
 20 21  1  0
 21 29  1  0
 22 23  1  0
 21 22  1  1
 23 24  2  0
 24 25  1  0
 26 25  2  0
 27 26  1  0
 28 27  2  0
 28 23  1  0
 29 30  2  0
 29 31  1  0
M  END
$$$$
