DRF.pdb
     RDKit          3D

 31 31  0  0  1  0  0  0  0  0999 V2000
   12.2744  -18.3844   19.9676 N   0  0  0  0  0  0  0  0  0  0  0  0
   10.9809  -18.4853   20.5935 C   0  0  1  0  0  0  0  0  0  0  0  0
   10.8690  -19.6997   21.4883 C   0  0  0  0  0  0  0  0  0  0  0  0
   10.2032  -20.8006   20.7608 C   0  0  0  0  0  0  0  0  0  0  0  0
    9.7610  -21.8053   21.3574 O   0  0  0  0  0  0  0  0  0  0  0  0
   10.7735  -17.2455   21.3871 C   0  0  0  0  0  0  0  0  0  0  0  0
   11.7241  -16.5772   21.8596 O   0  0  0  0  0  0  0  0  0  0  0  0
   10.0650  -20.7204   19.3902 O   0  0  0  0  0  0  0  0  0  0  0  0
    7.7153  -15.0982   17.7846 N   0  0  0  0  0  0  0  0  0  0  0  0
    7.7087  -13.6841   17.6901 C   0  0  0  0  0  0  0  0  0  0  0  0
    8.1234  -13.0989   16.6299 N   0  0  0  0  0  0  0  0  0  0  0  0
    7.2281  -12.9499   18.8086 N   0  0  0  0  0  0  0  0  0  0  0  0
    6.9827  -13.5943   20.0710 C   0  0  0  0  0  0  0  0  0  0  0  0
    8.2723  -14.1915   20.5998 C   0  0  0  0  0  0  0  0  0  0  0  0
    7.9207  -14.8977   21.8964 C   0  0  0  0  0  0  0  0  0  0  0  0
    9.1636  -15.6201   22.4376 C   0  0  2  0  0  0  0  0  0  0  0  0
    9.4621  -16.7786   21.6338 N   0  0  0  0  0  0  0  0  0  0  0  0
    8.9015  -15.9297   23.8418 C   0  0  0  0  0  0  0  0  0  0  0  0
    8.0187  -16.7486   24.1834 O   0  0  0  0  0  0  0  0  0  0  0  0
    8.1892  -12.0661   16.5884 N   0  0  0  0  0  0  0  0  0  0  0  0
    9.6562  -15.2956   24.8570 C   0  0  2  0  0  0  0  0  0  0  0  0
    9.4201  -15.5642   26.2552 C   0  0  0  0  0  0  0  0  0  0  0  0
    7.9737  -15.2815   26.5242 C   0  0  0  0  0  0  0  0  0  0  0  0
    7.5946  -13.8713   26.3845 C   0  0  0  0  0  0  0  0  0  0  0  0
    8.4239  -12.9067   26.9306 C   0  0  0  0  0  0  0  0  0  0  0  0
    8.0892  -11.5825   26.8091 C   0  0  0  0  0  0  0  0  0  0  0  0
    6.9503  -11.2216   26.1566 C   0  0  0  0  0  0  0  0  0  0  0  0
    6.1246  -12.1960   25.6122 C   0  0  0  0  0  0  0  0  0  0  0  0
    6.4359  -13.5322   25.7191 C   0  0  0  0  0  0  0  0  0  0  0  0
    9.8546  -16.9275   26.5949 O   0  0  0  0  0  0  0  0  0  0  0  0
    9.6764  -17.3584   27.7593 O   0  0  0  0  0  0  0  0  0  0  0  0
  2  1  1  1
  3  2  1  0
  3  4  1  0
  4  5  2  0
  6  7  2  0
  6  2  1  0
  8  4  1  0
 10  9  1  0
 11 10  2  0
 12 13  1  0
 12 10  1  0
 13 14  1  0
 14 15  1  0
 16 15  1  6
 16 18  1  0
 16 17  1  0
 17  6  1  0
 18 20  1  0
 19 18  2  0
 20 21  1  0
 21 29  1  0
 22 23  1  0
 21 22  1  1
 23 24  2  0
 24 25  1  0
 26 25  2  0
 27 26  1  0
 28 27  2  0
 28 23  1  0
 29 30  2  0
 29 31  1  0
M  END
$$$$
