DRF.pdb
     RDKit          3D

 31 31  0  0  1  0  0  0  0  0999 V2000
    7.3868  -19.7417   21.3272 N   0  0  0  0  0  0  0  0  0  0  0  0
    6.9821  -18.8416   22.3765 C   0  0  1  0  0  0  0  0  0  0  0  0
    6.9612  -19.5123   23.7321 C   0  0  0  0  0  0  0  0  0  0  0  0
    5.8528  -20.4882   23.7932 C   0  0  0  0  0  0  0  0  0  0  0  0
    5.2023  -20.8035   22.7743 O   0  0  0  0  0  0  0  0  0  0  0  0
    7.9421  -17.7067   22.3831 C   0  0  0  0  0  0  0  0  0  0  0  0
    9.1851  -17.8715   22.4196 O   0  0  0  0  0  0  0  0  0  0  0  0
    5.5259  -21.0667   25.0026 O   0  0  0  0  0  0  0  0  0  0  0  0
    9.6414  -13.2296   18.2889 N   0  0  0  0  0  0  0  0  0  0  0  0
    8.4879  -13.6474   17.5795 C   0  0  0  0  0  0  0  0  0  0  0  0
    8.4337  -13.5468   16.3046 N   0  0  0  0  0  0  0  0  0  0  0  0
    7.4051  -14.1770   18.3331 N   0  0  0  0  0  0  0  0  0  0  0  0
    7.0516  -13.6265   19.6142 C   0  0  0  0  0  0  0  0  0  0  0  0
    8.2292  -13.7409   20.5627 C   0  0  0  0  0  0  0  0  0  0  0  0
    7.6482  -13.9722   21.9456 C   0  0  0  0  0  0  0  0  0  0  0  0
    8.2919  -15.2205   22.5676 C   0  0  2  0  0  0  0  0  0  0  0  0
    7.4614  -16.3776   22.3471 N   0  0  0  0  0  0  0  0  0  0  0  0
    8.5250  -14.9238   23.9797 C   0  0  0  0  0  0  0  0  0  0  0  0
    8.1053  -13.8710   24.5108 O   0  0  0  0  0  0  0  0  0  0  0  0
    7.5701  -13.7991   15.7914 N   0  0  0  0  0  0  0  0  0  0  0  0
    9.2433  -15.8399   24.7841 C   0  0  1  0  0  0  0  0  0  0  0  0
    9.4826  -15.5909   26.1853 C   0  0  0  0  0  0  0  0  0  0  0  0
    8.1459  -15.4415   26.8450 C   0  0  0  0  0  0  0  0  0  0  0  0
    7.5825  -14.0889   26.7756 C   0  0  0  0  0  0  0  0  0  0  0  0
    6.2867  -13.9353   26.3135 C   0  0  0  0  0  0  0  0  0  0  0  0
    5.7403  -12.6796   26.2431 C   0  0  0  0  0  0  0  0  0  0  0  0
    6.4678  -11.5943   26.6248 C   0  0  0  0  0  0  0  0  0  0  0  0
    7.7668  -11.7579   27.0869 C   0  0  0  0  0  0  0  0  0  0  0  0
    8.3403  -13.0062   27.1682 C   0  0  0  0  0  0  0  0  0  0  0  0
   10.3355  -16.6454   26.7539 O   0  0  0  0  0  0  0  0  0  0  0  0
   10.6974  -16.5653   27.9523 O   0  0  0  0  0  0  0  0  0  0  0  0
  2  1  1  6
  3  2  1  0
  3  4  1  0
  4  5  2  0
  6  7  2  0
  6  2  1  0
  8  4  1  0
 10  9  1  0
 11 10  2  0
 12 13  1  0
 12 10  1  0
 13 14  1  0
 14 15  1  0
 16 15  1  1
 16 18  1  0
 16 17  1  0
 17  6  1  0
 18 20  1  0
 19 18  2  0
 20 21  1  0
 21 29  1  0
 22 23  1  0
 21 22  1  6
 23 24  2  0
 24 25  1  0
 26 25  2  0
 27 26  1  0
 28 27  2  0
 28 23  1  0
 29 30  2  0
 29 31  1  0
M  END
$$$$
