CNE.pdb
     RDKit          3D

 24 23  0  0  1  0  0  0  0  0999 V2000
    7.8239  -13.1496   21.2280 N   0  0  0  0  0  0  0  0  0  0  0  0
    8.1212  -14.5403   21.4139 C   0  0  1  0  0  0  0  0  0  0  0  0
    7.1162  -15.1267   22.3872 C   0  0  0  0  0  0  0  0  0  0  0  0
    7.5175  -16.8835   22.5941 S   0  0  0  0  0  0  0  0  0  0  0  0
    8.0817  -15.2876   20.1112 C   0  0  0  0  0  0  0  0  0  0  0  0
    6.9881  -15.7289   19.7132 O   0  0  0  0  0  0  0  0  0  0  0  0
    8.5427  -13.1446   16.1032 N   0  0  0  0  0  0  0  0  0  0  0  0
    8.0925  -13.3434   17.4203 C   0  0  0  0  0  0  0  0  0  0  0  0
    6.8879  -13.6475   17.6069 O   0  0  0  0  0  0  0  0  0  0  0  0
    9.0735  -13.1828   18.5452 C   0  0  0  0  0  0  0  0  0  0  0  0
    9.8661  -14.4413   18.6112 C   0  0  2  0  0  0  0  0  0  0  0  0
    9.2508  -15.4828   19.3616 N   0  0  0  0  0  0  0  0  0  0  0  0
   11.2642  -14.1184   19.0584 C   0  0  0  0  0  0  0  0  0  0  0  0
   11.9377  -13.1752   18.5367 O   0  0  0  0  0  0  0  0  0  0  0  0
   11.8123  -14.9130   20.0972 N   0  0  0  0  0  0  0  0  0  0  0  0
   13.1342  -14.5915   20.5965 C   0  0  1  0  0  0  0  0  0  0  0  0
   13.3575  -15.0501   21.9961 C   0  0  0  0  0  0  0  0  0  0  0  0
   12.3116  -15.9304   22.5783 C   0  0  0  0  0  0  0  0  0  0  0  0
   12.6585  -16.4907   23.9068 C   0  0  0  0  0  0  0  0  0  0  0  0
   13.5505  -17.3803   24.0242 O   0  0  0  0  0  0  0  0  0  0  0  0
   14.1335  -15.3257   19.7414 C   0  0  0  0  0  0  0  0  0  0  0  0
   15.4982  -15.0930   19.8336 O   0  0  0  0  0  0  0  0  0  0  0  0
   12.0016  -16.0364   25.0291 O   0  0  0  0  0  0  0  0  0  0  0  0
   13.7594  -16.1850   18.9046 O   0  0  0  0  0  0  0  0  0  0  0  0
  2  1  1  6
  3  2  1  0
  4  3  1  0
  5  2  1  0
  6  5  2  0
  7  8  1  0
  8 10  1  0
  9  8  2  0
 11 10  1  1
 11 13  1  0
 11 12  1  0
 12  5  1  0
 13 15  1  0
 14 13  2  0
 15 16  1  0
 16 17  1  1
 16 21  1  0
 18 17  1  0
 19 18  1  0
 20 19  2  0
 21 24  2  0
 21 22  1  0
 23 19  1  0
M  END
$$$$
