CNE.pdb
     RDKit          3D

 24 23  0  0  1  0  0  0  0  0999 V2000
    5.4691  -12.6459   26.8673 N   0  0  0  0  0  0  0  0  0  0  0  0
    6.7721  -12.7969   26.2872 C   0  0  1  0  0  0  0  0  0  0  0  0
    7.7553  -13.1544   27.3857 C   0  0  0  0  0  0  0  0  0  0  0  0
    9.4076  -13.2178   26.6403 S   0  0  0  0  0  0  0  0  0  0  0  0
    6.7771  -13.8538   25.2196 C   0  0  0  0  0  0  0  0  0  0  0  0
    6.0607  -14.8595   25.3768 O   0  0  0  0  0  0  0  0  0  0  0  0
    6.5382  -15.5599   20.1992 N   0  0  0  0  0  0  0  0  0  0  0  0
    7.8133  -15.2622   20.7116 C   0  0  0  0  0  0  0  0  0  0  0  0
    8.7926  -15.9510   20.3309 O   0  0  0  0  0  0  0  0  0  0  0  0
    7.9463  -14.1331   21.6919 C   0  0  0  0  0  0  0  0  0  0  0  0
    7.6039  -14.6815   23.0329 C   0  0  2  0  0  0  0  0  0  0  0  0
    7.5710  -13.7097   24.0725 N   0  0  0  0  0  0  0  0  0  0  0  0
    8.4988  -15.8525   23.3278 C   0  0  0  0  0  0  0  0  0  0  0  0
    8.5600  -16.8640   22.5606 O   0  0  0  0  0  0  0  0  0  0  0  0
    9.2834  -15.7879   24.5073 N   0  0  0  0  0  0  0  0  0  0  0  0
   10.1446  -16.9068   24.8332 C   0  0  1  0  0  0  0  0  0  0  0  0
   11.5901  -16.6108   24.6281 C   0  0  0  0  0  0  0  0  0  0  0  0
   12.0160  -16.3308   23.2324 C   0  0  0  0  0  0  0  0  0  0  0  0
   13.3676  -15.7315   23.1176 C   0  0  0  0  0  0  0  0  0  0  0  0
   14.3785  -16.3076   23.6146 O   0  0  0  0  0  0  0  0  0  0  0  0
    9.9723  -17.2001   26.3006 C   0  0  0  0  0  0  0  0  0  0  0  0
   10.6026  -18.2696   26.9201 O   0  0  0  0  0  0  0  0  0  0  0  0
   13.5258  -14.5312   22.4603 O   0  0  0  0  0  0  0  0  0  0  0  0
    9.2418  -16.4760   27.0223 O   0  0  0  0  0  0  0  0  0  0  0  0
  2  1  1  1
  3  2  1  0
  4  3  1  0
  5  2  1  0
  6  5  2  0
  7  8  1  0
  8 10  1  0
  9  8  2  0
 11 10  1  6
 11 13  1  0
 11 12  1  0
 12  5  1  0
 13 15  1  0
 14 13  2  0
 15 16  1  0
 16 17  1  1
 16 21  1  0
 18 17  1  0
 19 18  1  0
 20 19  2  0
 21 24  2  0
 21 22  1  0
 23 19  1  0
M  END
$$$$
