CNE.pdb
     RDKit          3D

 24 23  0  0  1  0  0  0  0  0999 V2000
    5.4252  -13.7871   26.1922 N   0  0  0  0  0  0  0  0  0  0  0  0
    6.4329  -13.2369   25.3325 C   0  0  1  0  0  0  0  0  0  0  0  0
    7.3145  -12.3097   26.1476 C   0  0  0  0  0  0  0  0  0  0  0  0
    6.3274  -10.8470   26.5674 S   0  0  0  0  0  0  0  0  0  0  0  0
    7.2607  -14.3179   24.6975 C   0  0  0  0  0  0  0  0  0  0  0  0
    7.5459  -15.3222   25.3750 O   0  0  0  0  0  0  0  0  0  0  0  0
    8.4945  -17.1959   20.1465 N   0  0  0  0  0  0  0  0  0  0  0  0
    9.3204  -16.2076   20.7106 C   0  0  0  0  0  0  0  0  0  0  0  0
   10.5622  -16.3974   20.7293 O   0  0  0  0  0  0  0  0  0  0  0  0
    8.6795  -14.9688   21.2655 C   0  0  0  0  0  0  0  0  0  0  0  0
    8.4621  -15.2078   22.7188 C   0  0  2  0  0  0  0  0  0  0  0  0
    7.7014  -14.1970   23.3716 N   0  0  0  0  0  0  0  0  0  0  0  0
    9.7856  -15.4868   23.3742 C   0  0  0  0  0  0  0  0  0  0  0  0
   10.6826  -14.5936   23.4882 O   0  0  0  0  0  0  0  0  0  0  0  0
   10.0008  -16.7986   23.8679 N   0  0  0  0  0  0  0  0  0  0  0  0
   11.0784  -17.0197   24.8111 C   0  0  1  0  0  0  0  0  0  0  0  0
   10.6725  -17.8534   25.9770 C   0  0  0  0  0  0  0  0  0  0  0  0
   11.7521  -18.2378   26.9227 C   0  0  0  0  0  0  0  0  0  0  0  0
   11.2924  -19.0577   28.0698 C   0  0  0  0  0  0  0  0  0  0  0  0
   12.1094  -19.4676   28.9446 O   0  0  0  0  0  0  0  0  0  0  0  0
   12.1596  -17.7851   24.0940 C   0  0  0  0  0  0  0  0  0  0  0  0
   11.9085  -18.5154   22.9413 O   0  0  0  0  0  0  0  0  0  0  0  0
    9.9575  -19.3772   28.1858 O   0  0  0  0  0  0  0  0  0  0  0  0
   13.3410  -17.7877   24.5217 O   0  0  0  0  0  0  0  0  0  0  0  0
  2  1  1  1
  3  2  1  0
  4  3  1  0
  5  2  1  0
  6  5  2  0
  7  8  1  0
  8 10  1  0
  9  8  2  0
 11 10  1  6
 11 13  1  0
 11 12  1  0
 12  5  1  0
 13 15  1  0
 14 13  2  0
 15 16  1  0
 16 17  1  1
 16 21  1  0
 18 17  1  0
 19 18  1  0
 20 19  2  0
 21 24  2  0
 21 22  1  0
 23 19  1  0
M  END
$$$$
