CNE.pdb
     RDKit          3D

 24 23  0  0  1  0  0  0  0  0999 V2000
    8.8661  -12.7168   17.8405 N   0  0  0  0  0  0  0  0  0  0  0  0
    8.9198  -14.0949   18.2342 C   0  0  1  0  0  0  0  0  0  0  0  0
    9.9103  -14.8178   17.3412 C   0  0  0  0  0  0  0  0  0  0  0  0
   11.4617  -13.8786   17.3743 S   0  0  0  0  0  0  0  0  0  0  0  0
    9.3179  -14.2374   19.6758 C   0  0  0  0  0  0  0  0  0  0  0  0
   10.2079  -13.4905   20.1223 O   0  0  0  0  0  0  0  0  0  0  0  0
    6.5573  -13.7362   22.7265 N   0  0  0  0  0  0  0  0  0  0  0  0
    6.6709  -15.0765   22.3173 C   0  0  0  0  0  0  0  0  0  0  0  0
    5.7438  -15.5800   21.6351 O   0  0  0  0  0  0  0  0  0  0  0  0
    7.8969  -15.8461   22.7151 C   0  0  0  0  0  0  0  0  0  0  0  0
    9.0181  -15.3366   21.8786 C   0  0  2  0  0  0  0  0  0  0  0  0
    8.7003  -15.1903   20.4987 N   0  0  0  0  0  0  0  0  0  0  0  0
   10.2401  -16.1739   22.1323 C   0  0  0  0  0  0  0  0  0  0  0  0
   10.2291  -17.4383   22.0045 O   0  0  0  0  0  0  0  0  0  0  0  0
   11.4217  -15.4944   22.5238 N   0  0  0  0  0  0  0  0  0  0  0  0
   12.6528  -16.2496   22.6419 C   0  0  1  0  0  0  0  0  0  0  0  0
   13.8717  -15.4099   22.4733 C   0  0  0  0  0  0  0  0  0  0  0  0
   15.1761  -16.1190   22.5309 C   0  0  0  0  0  0  0  0  0  0  0  0
   16.3570  -15.2324   22.3934 C   0  0  0  0  0  0  0  0  0  0  0  0
   17.2789  -15.2386   23.2598 O   0  0  0  0  0  0  0  0  0  0  0  0
   12.7096  -16.8100   24.0389 C   0  0  0  0  0  0  0  0  0  0  0  0
   11.8661  -16.3680   25.0480 O   0  0  0  0  0  0  0  0  0  0  0  0
   16.4525  -14.3906   21.3071 O   0  0  0  0  0  0  0  0  0  0  0  0
   13.5341  -17.7087   24.3410 O   0  0  0  0  0  0  0  0  0  0  0  0
  2  1  1  6
  3  2  1  0
  4  3  1  0
  5  2  1  0
  6  5  2  0
  7  8  1  0
  8 10  1  0
  9  8  2  0
 11 10  1  1
 11 13  1  0
 11 12  1  0
 12  5  1  0
 13 15  1  0
 14 13  2  0
 15 16  1  0
 16 17  1  1
 16 21  1  0
 18 17  1  0
 19 18  1  0
 20 19  2  0
 21 24  2  0
 21 22  1  0
 23 19  1  0
M  END
$$$$
