CNE.pdb
     RDKit          3D

 24 23  0  0  1  0  0  0  0  0999 V2000
    8.6399  -16.5451   20.3217 N   0  0  0  0  0  0  0  0  0  0  0  0
    7.7249  -16.2863   21.3955 C   0  0  1  0  0  0  0  0  0  0  0  0
    7.3129  -17.6092   22.0131 C   0  0  0  0  0  0  0  0  0  0  0  0
    8.7858  -18.3337   22.7848 S   0  0  0  0  0  0  0  0  0  0  0  0
    8.3404  -15.3948   22.4364 C   0  0  0  0  0  0  0  0  0  0  0  0
    9.5790  -15.2739   22.4569 O   0  0  0  0  0  0  0  0  0  0  0  0
    5.6524  -12.9203   26.9437 N   0  0  0  0  0  0  0  0  0  0  0  0
    6.2132  -13.6167   25.8586 C   0  0  0  0  0  0  0  0  0  0  0  0
    5.9528  -14.8386   25.7263 O   0  0  0  0  0  0  0  0  0  0  0  0
    7.0989  -12.8671   24.9063 C   0  0  0  0  0  0  0  0  0  0  0  0
    8.0738  -13.8494   24.3576 C   0  0  2  0  0  0  0  0  0  0  0  0
    7.5368  -14.7150   23.3632 N   0  0  0  0  0  0  0  0  0  0  0  0
    8.7353  -14.5735   25.4964 C   0  0  0  0  0  0  0  0  0  0  0  0
    9.1424  -13.9657   26.5358 O   0  0  0  0  0  0  0  0  0  0  0  0
    8.8907  -15.9773   25.3691 N   0  0  0  0  0  0  0  0  0  0  0  0
    9.5529  -16.7041   26.4336 C   0  0  1  0  0  0  0  0  0  0  0  0
    8.6207  -17.5467   27.2336 C   0  0  0  0  0  0  0  0  0  0  0  0
    7.7493  -18.4767   26.4697 C   0  0  0  0  0  0  0  0  0  0  0  0
    7.7005  -19.8536   27.0184 C   0  0  0  0  0  0  0  0  0  0  0  0
    8.3178  -20.1518   28.0818 O   0  0  0  0  0  0  0  0  0  0  0  0
   10.5394  -17.6463   25.7946 C   0  0  0  0  0  0  0  0  0  0  0  0
   10.5788  -17.8580   24.4240 O   0  0  0  0  0  0  0  0  0  0  0  0
    6.9727  -20.8218   26.3623 O   0  0  0  0  0  0  0  0  0  0  0  0
   11.3707  -18.2806   26.4913 O   0  0  0  0  0  0  0  0  0  0  0  0
  2  1  1  6
  3  2  1  0
  4  3  1  0
  5  2  1  0
  6  5  2  0
  7  8  1  0
  8 10  1  0
  9  8  2  0
 11 10  1  1
 11 13  1  0
 11 12  1  0
 12  5  1  0
 13 15  1  0
 14 13  2  0
 15 16  1  0
 16 17  1  6
 16 21  1  0
 18 17  1  0
 19 18  1  0
 20 19  2  0
 21 24  2  0
 21 22  1  0
 23 19  1  0
M  END
$$$$
