CNE.pdb
     RDKit          3D

 24 23  0  0  1  0  0  0  0  0999 V2000
    6.0997  -16.0915   22.1752 N   0  0  0  0  0  0  0  0  0  0  0  0
    6.7773  -14.9439   21.6451 C   0  0  1  0  0  0  0  0  0  0  0  0
    6.9151  -13.9089   22.7455 C   0  0  0  0  0  0  0  0  0  0  0  0
    7.9328  -14.6390   24.0575 S   0  0  0  0  0  0  0  0  0  0  0  0
    8.1293  -15.3092   21.1013 C   0  0  0  0  0  0  0  0  0  0  0  0
    8.5682  -16.4530   21.3212 O   0  0  0  0  0  0  0  0  0  0  0  0
    8.6836  -12.7983   17.4454 N   0  0  0  0  0  0  0  0  0  0  0  0
    9.5906  -13.8571   17.6265 C   0  0  0  0  0  0  0  0  0  0  0  0
    9.5259  -14.8461   16.8544 O   0  0  0  0  0  0  0  0  0  0  0  0
   10.5967  -13.7574   18.7362 C   0  0  0  0  0  0  0  0  0  0  0  0
   10.1529  -14.6904   19.8080 C   0  0  2  0  0  0  0  0  0  0  0  0
    8.8789  -14.3819   20.3631 N   0  0  0  0  0  0  0  0  0  0  0  0
   11.2448  -14.8161   20.8331 C   0  0  0  0  0  0  0  0  0  0  0  0
   11.7564  -13.8005   21.4007 O   0  0  0  0  0  0  0  0  0  0  0  0
   11.6896  -16.1249   21.1494 N   0  0  0  0  0  0  0  0  0  0  0  0
   12.6006  -16.3010   22.2625 C   0  0  1  0  0  0  0  0  0  0  0  0
   12.2765  -17.4893   23.1004 C   0  0  0  0  0  0  0  0  0  0  0  0
   12.4605  -17.3344   24.5666 C   0  0  0  0  0  0  0  0  0  0  0  0
   12.1683  -18.5598   25.3491 C   0  0  0  0  0  0  0  0  0  0  0  0
   13.0505  -19.4516   25.5141 O   0  0  0  0  0  0  0  0  0  0  0  0
   13.9736  -16.5420   21.6917 C   0  0  0  0  0  0  0  0  0  0  0  0
   14.1818  -16.7790   20.3406 O   0  0  0  0  0  0  0  0  0  0  0  0
   10.9194  -18.7299   25.9051 O   0  0  0  0  0  0  0  0  0  0  0  0
   14.9900  -16.5363   22.4304 O   0  0  0  0  0  0  0  0  0  0  0  0
  2  1  1  1
  3  2  1  0
  4  3  1  0
  5  2  1  0
  6  5  2  0
  7  8  1  0
  8 10  1  0
  9  8  2  0
 11 10  1  6
 11 13  1  0
 11 12  1  0
 12  5  1  0
 13 15  1  0
 14 13  2  0
 15 16  1  0
 16 17  1  6
 16 21  1  0
 18 17  1  0
 19 18  1  0
 20 19  2  0
 21 24  2  0
 21 22  1  0
 23 19  1  0
M  END
$$$$
