CNE.pdb
     RDKit          3D

 24 23  0  0  1  0  0  0  0  0999 V2000
    7.9897  -16.0071   19.8012 N   0  0  0  0  0  0  0  0  0  0  0  0
    8.5798  -14.9622   20.5869 C   0  0  1  0  0  0  0  0  0  0  0  0
    7.7636  -13.6966   20.4048 C   0  0  0  0  0  0  0  0  0  0  0  0
    7.0050  -13.7682   18.7588 S   0  0  0  0  0  0  0  0  0  0  0  0
    8.6410  -15.3379   22.0401 C   0  0  0  0  0  0  0  0  0  0  0  0
    9.0566  -14.4933   22.8544 O   0  0  0  0  0  0  0  0  0  0  0  0
    7.3860  -19.3695   26.1214 N   0  0  0  0  0  0  0  0  0  0  0  0
    7.2804  -18.0123   25.7695 C   0  0  0  0  0  0  0  0  0  0  0  0
    7.3861  -17.1448   26.6720 O   0  0  0  0  0  0  0  0  0  0  0  0
    7.0457  -17.6614   24.3289 C   0  0  0  0  0  0  0  0  0  0  0  0
    8.2922  -17.0167   23.8319 C   0  0  2  0  0  0  0  0  0  0  0  0
    8.2389  -16.6114   22.4683 N   0  0  0  0  0  0  0  0  0  0  0  0
    9.4646  -17.9001   24.1548 C   0  0  0  0  0  0  0  0  0  0  0  0
    9.4516  -19.1493   23.9211 O   0  0  0  0  0  0  0  0  0  0  0  0
   10.6009  -17.2825   24.7364 N   0  0  0  0  0  0  0  0  0  0  0  0
   11.7596  -18.0988   25.0378 C   0  0  1  0  0  0  0  0  0  0  0  0
   12.9891  -17.6545   24.3237 C   0  0  0  0  0  0  0  0  0  0  0  0
   13.3325  -16.2130   24.4327 C   0  0  0  0  0  0  0  0  0  0  0  0
   14.4628  -15.7902   23.5707 C   0  0  0  0  0  0  0  0  0  0  0  0
   14.2558  -15.2688   22.4367 O   0  0  0  0  0  0  0  0  0  0  0  0
   12.0450  -17.9561   26.5100 C   0  0  0  0  0  0  0  0  0  0  0  0
   13.0166  -18.7107   27.1516 O   0  0  0  0  0  0  0  0  0  0  0  0
   15.7563  -15.9666   24.0104 O   0  0  0  0  0  0  0  0  0  0  0  0
   11.4039  -17.1377   27.2156 O   0  0  0  0  0  0  0  0  0  0  0  0
  2  1  1  6
  3  2  1  0
  4  3  1  0
  5  2  1  0
  6  5  2  0
  7  8  1  0
  8 10  1  0
  9  8  2  0
 11 10  1  6
 11 13  1  0
 11 12  1  0
 12  5  1  0
 13 15  1  0
 14 13  2  0
 15 16  1  0
 16 17  1  6
 16 21  1  0
 18 17  1  0
 19 18  1  0
 20 19  2  0
 21 24  2  0
 21 22  1  0
 23 19  1  0
M  END
$$$$
