CNE.pdb
     RDKit          3D

 24 23  0  0  1  0  0  0  0  0999 V2000
    8.1098  -16.4235   17.3054 N   0  0  0  0  0  0  0  0  0  0  0  0
    8.4592  -17.2445   18.4283 C   0  0  1  0  0  0  0  0  0  0  0  0
    9.0379  -18.5496   17.9154 C   0  0  0  0  0  0  0  0  0  0  0  0
   10.8068  -18.2820   17.6157 S   0  0  0  0  0  0  0  0  0  0  0  0
    9.4466  -16.5538   19.3255 C   0  0  0  0  0  0  0  0  0  0  0  0
    9.7570  -15.3758   19.0705 O   0  0  0  0  0  0  0  0  0  0  0  0
   10.9547  -15.3590   23.8763 N   0  0  0  0  0  0  0  0  0  0  0  0
    9.5900  -15.6822   23.7765 C   0  0  0  0  0  0  0  0  0  0  0  0
    8.8333  -15.4111   24.7421 O   0  0  0  0  0  0  0  0  0  0  0  0
    9.0986  -16.3377   22.5185 C   0  0  0  0  0  0  0  0  0  0  0  0
   10.2907  -16.5697   21.6574 C   0  0  2  0  0  0  0  0  0  0  0  0
   10.0051  -17.2220   20.4247 N   0  0  0  0  0  0  0  0  0  0  0  0
   11.3577  -17.2498   22.4684 C   0  0  0  0  0  0  0  0  0  0  0  0
   11.2632  -18.4673   22.8208 O   0  0  0  0  0  0  0  0  0  0  0  0
   12.4890  -16.4753   22.8309 N   0  0  0  0  0  0  0  0  0  0  0  0
   13.7976  -17.0971   22.8007 C   0  0  1  0  0  0  0  0  0  0  0  0
   14.8881  -16.1465   22.4453 C   0  0  0  0  0  0  0  0  0  0  0  0
   16.2675  -16.6985   22.4303 C   0  0  0  0  0  0  0  0  0  0  0  0
   17.3068  -15.7272   22.0111 C   0  0  0  0  0  0  0  0  0  0  0  0
   17.7842  -14.8912   22.8320 O   0  0  0  0  0  0  0  0  0  0  0  0
   14.0976  -17.5913   24.1916 C   0  0  0  0  0  0  0  0  0  0  0  0
   15.0237  -18.5951   24.4361 O   0  0  0  0  0  0  0  0  0  0  0  0
   17.7597  -15.7350   20.7102 O   0  0  0  0  0  0  0  0  0  0  0  0
   13.5111  -17.1043   25.1904 O   0  0  0  0  0  0  0  0  0  0  0  0
  2  1  1  6
  3  2  1  0
  4  3  1  0
  5  2  1  0
  6  5  2  0
  7  8  1  0
  8 10  1  0
  9  8  2  0
 11 10  1  1
 11 13  1  0
 11 12  1  0
 12  5  1  0
 13 15  1  0
 14 13  2  0
 15 16  1  0
 16 17  1  1
 16 21  1  0
 18 17  1  0
 19 18  1  0
 20 19  2  0
 21 24  2  0
 21 22  1  0
 23 19  1  0
M  END
$$$$
