CNE.pdb
     RDKit          3D

 24 23  0  0  1  0  0  0  0  0999 V2000
    8.9846  -15.2362   19.2401 N   0  0  0  0  0  0  0  0  0  0  0  0
    7.8835  -15.3532   20.1518 C   0  0  1  0  0  0  0  0  0  0  0  0
    7.2961  -16.7464   20.0290 C   0  0  0  0  0  0  0  0  0  0  0  0
    8.5540  -17.9215   20.6007 S   0  0  0  0  0  0  0  0  0  0  0  0
    8.3144  -15.0925   21.5671 C   0  0  0  0  0  0  0  0  0  0  0  0
    9.5203  -15.2110   21.8517 O   0  0  0  0  0  0  0  0  0  0  0  0
    8.6443  -13.6557   26.2154 N   0  0  0  0  0  0  0  0  0  0  0  0
    7.2891  -13.3598   25.9859 C   0  0  0  0  0  0  0  0  0  0  0  0
    6.6548  -12.7185   26.8604 O   0  0  0  0  0  0  0  0  0  0  0  0
    6.6610  -13.8245   24.7041 C   0  0  0  0  0  0  0  0  0  0  0  0
    7.7431  -14.4461   23.8923 C   0  0  2  0  0  0  0  0  0  0  0  0
    7.3786  -14.7240   22.5445 N   0  0  0  0  0  0  0  0  0  0  0  0
    8.2876  -15.6374   24.6294 C   0  0  0  0  0  0  0  0  0  0  0  0
    7.6865  -16.7572   24.6378 O   0  0  0  0  0  0  0  0  0  0  0  0
    9.5122  -15.4659   25.3237 N   0  0  0  0  0  0  0  0  0  0  0  0
   10.2097  -16.6409   25.8063 C   0  0  1  0  0  0  0  0  0  0  0  0
   11.6760  -16.5973   25.5471 C   0  0  0  0  0  0  0  0  0  0  0  0
   12.1591  -17.3418   24.3555 C   0  0  0  0  0  0  0  0  0  0  0  0
   13.6203  -17.2376   24.1244 C   0  0  0  0  0  0  0  0  0  0  0  0
   14.1313  -16.1764   23.6624 O   0  0  0  0  0  0  0  0  0  0  0  0
   10.0411  -16.6864   27.3024 C   0  0  0  0  0  0  0  0  0  0  0  0
   10.5702  -17.7098   28.0755 O   0  0  0  0  0  0  0  0  0  0  0  0
   14.4334  -18.3103   24.4173 O   0  0  0  0  0  0  0  0  0  0  0  0
    9.4068  -15.7869   27.9084 O   0  0  0  0  0  0  0  0  0  0  0  0
  2  1  1  6
  3  2  1  0
  4  3  1  0
  5  2  1  0
  6  5  2  0
  7  8  1  0
  8 10  1  0
  9  8  2  0
 11 10  1  1
 11 13  1  0
 11 12  1  0
 12  5  1  0
 13 15  1  0
 14 13  2  0
 15 16  1  0
 16 17  1  1
 16 21  1  0
 18 17  1  0
 19 18  1  0
 20 19  2  0
 21 24  2  0
 21 22  1  0
 23 19  1  0
M  END
$$$$
