CNE.pdb
     RDKit          3D

 24 23  0  0  1  0  0  0  0  0999 V2000
    5.0907  -21.3591   20.3625 N   0  0  0  0  0  0  0  0  0  0  0  0
    5.0611  -20.1681   21.1613 C   0  0  1  0  0  0  0  0  0  0  0  0
    4.0748  -20.3680   22.2963 C   0  0  0  0  0  0  0  0  0  0  0  0
    2.4497  -20.6889   21.5574 S   0  0  0  0  0  0  0  0  0  0  0  0
    6.4223  -19.8401   21.7058 C   0  0  0  0  0  0  0  0  0  0  0  0
    7.1732  -20.7780   22.0310 O   0  0  0  0  0  0  0  0  0  0  0  0
   10.1396  -16.7913   20.1418 N   0  0  0  0  0  0  0  0  0  0  0  0
    8.8080  -16.7699   20.5925 C   0  0  0  0  0  0  0  0  0  0  0  0
    7.8834  -16.7458   19.7423 O   0  0  0  0  0  0  0  0  0  0  0  0
    8.5516  -16.7769   22.0716 C   0  0  0  0  0  0  0  0  0  0  0  0
    8.0856  -18.1464   22.4236 C   0  0  2  0  0  0  0  0  0  0  0  0
    6.8365  -18.5074   21.8440 N   0  0  0  0  0  0  0  0  0  0  0  0
    8.1296  -18.3116   23.9168 C   0  0  0  0  0  0  0  0  0  0  0  0
    7.3212  -17.7034   24.6862 O   0  0  0  0  0  0  0  0  0  0  0  0
    9.1174  -19.1819   24.4439 N   0  0  0  0  0  0  0  0  0  0  0  0
    9.1773  -19.3802   25.8782 C   0  0  1  0  0  0  0  0  0  0  0  0
    8.7026  -20.7270   26.3020 C   0  0  0  0  0  0  0  0  0  0  0  0
    8.8018  -21.0369   27.7518 C   0  0  0  0  0  0  0  0  0  0  0  0
    8.3861  -22.4149   28.1091 C   0  0  0  0  0  0  0  0  0  0  0  0
    7.1629  -22.7362   28.1452 O   0  0  0  0  0  0  0  0  0  0  0  0
   10.6235  -19.2876   26.2893 C   0  0  0  0  0  0  0  0  0  0  0  0
   11.0082  -19.1537   27.6156 O   0  0  0  0  0  0  0  0  0  0  0  0
    9.3445  -23.3591   28.4052 O   0  0  0  0  0  0  0  0  0  0  0  0
   11.5421  -19.3290   25.4330 O   0  0  0  0  0  0  0  0  0  0  0  0
  2  1  1  1
  3  2  1  0
  4  3  1  0
  5  2  1  0
  6  5  2  0
  7  8  1  0
  8 10  1  0
  9  8  2  0
 11 10  1  1
 11 13  1  0
 11 12  1  0
 12  5  1  0
 13 15  1  0
 14 13  2  0
 15 16  1  0
 16 17  1  6
 16 21  1  0
 18 17  1  0
 19 18  1  0
 20 19  2  0
 21 24  2  0
 21 22  1  0
 23 19  1  0
M  END
$$$$
