IPQ.pdb
     RDKit          3D

 25 25  0  0  1  0  0  0  0  0999 V2000
    6.5962  -11.3868   27.2669 C   0  0  0  0  0  0  0  0  0  0  0  0
    5.8976  -12.5137   26.5831 C   0  0  0  0  0  0  0  0  0  0  0  0
    6.8996  -13.4094   25.8856 C   0  0  2  0  0  0  0  0  0  0  0  0
    7.6609  -12.5559   24.8979 C   0  0  0  0  0  0  0  0  0  0  0  0
    6.2092  -14.5750   25.2157 C   0  0  2  0  0  0  0  0  0  0  0  0
    5.3784  -15.2474   26.1531 N   0  0  0  0  0  0  0  0  0  0  0  0
    7.1317  -15.4189   24.4453 C   0  0  0  0  0  0  0  0  0  0  0  0
    7.5590  -16.4976   24.9582 O   0  0  0  0  0  0  0  0  0  0  0  0
    7.6111  -15.1330   23.1302 N   0  0  0  0  0  0  0  0  0  0  0  0
    7.3811  -13.9436   22.3407 C   0  0  0  0  0  0  0  0  0  0  0  0
    7.6434  -14.2564   20.8980 C   0  0  0  0  0  0  0  0  0  0  0  0
    8.0798  -15.7052   20.9169 C   0  0  0  0  0  0  0  0  0  0  0  0
    8.4489  -16.0054   22.3246 C   0  0  1  0  0  0  0  0  0  0  0  0
    9.8787  -15.8571   22.6403 C   0  0  0  0  0  0  0  0  0  0  0  0
   10.2441  -14.8605   23.3146 O   0  0  0  0  0  0  0  0  0  0  0  0
   10.3296  -19.5723   26.3684 N   0  0  0  0  0  0  0  0  0  0  0  0
   10.8598  -18.2675   26.5772 C   0  0  0  0  0  0  0  0  0  0  0  0
   10.8210  -17.8458   27.7475 O   0  0  0  0  0  0  0  0  0  0  0  0
   11.4176  -17.4526   25.4968 C   0  0  0  0  0  0  0  0  0  0  0  0
   11.4958  -18.0132   24.1374 C   0  0  0  0  0  0  0  0  0  0  0  0
   12.0333  -17.1247   23.0516 C   0  0  2  0  0  0  0  0  0  0  0  0
   10.8799  -16.7731   22.2300 N   0  0  0  0  0  0  0  0  0  0  0  0
   13.1895  -17.6112   22.3332 C   0  0  0  0  0  0  0  0  0  0  0  0
   13.0501  -18.1344   21.0594 O   0  0  0  0  0  0  0  0  0  0  0  0
   14.3323  -17.5787   22.8371 O   0  0  0  0  0  0  0  0  0  0  0  0
  2  1  1  0
  2  3  1  0
  3  5  1  0
  3  4  1  6
  5  6  1  1
  7  5  1  0
  7  8  2  0
  9  7  1  0
 10  9  1  0
 10 11  1  0
 12 13  1  0
 12 11  1  0
 13  9  1  0
 13 14  1  6
 15 14  2  0
 16 17  1  0
 17 18  2  0
 19 17  1  0
 19 20  1  0
 21 20  1  1
 21 22  1  0
 22 14  1  0
 23 21  1  0
 23 24  1  0
 25 23  2  0
M  END
$$$$
