IPQ.pdb
     RDKit          3D

 25 25  0  0  1  0  0  0  0  0999 V2000
    6.5445  -11.4204   27.3362 C   0  0  0  0  0  0  0  0  0  0  0  0
    5.8638  -12.4906   26.5509 C   0  0  0  0  0  0  0  0  0  0  0  0
    6.8840  -13.4419   25.9617 C   0  0  2  0  0  0  0  0  0  0  0  0
    7.8019  -12.6315   25.0762 C   0  0  0  0  0  0  0  0  0  0  0  0
    6.2067  -14.5612   25.2051 C   0  0  2  0  0  0  0  0  0  0  0  0
    5.2884  -15.2332   26.0574 N   0  0  0  0  0  0  0  0  0  0  0  0
    7.1549  -15.4123   24.4750 C   0  0  0  0  0  0  0  0  0  0  0  0
    7.5093  -16.5202   24.9811 O   0  0  0  0  0  0  0  0  0  0  0  0
    7.7371  -15.1029   23.2075 N   0  0  0  0  0  0  0  0  0  0  0  0
    7.6339  -13.8688   22.4609 C   0  0  0  0  0  0  0  0  0  0  0  0
    7.9712  -14.1368   21.0248 C   0  0  0  0  0  0  0  0  0  0  0  0
    8.3147  -15.6104   21.0042 C   0  0  0  0  0  0  0  0  0  0  0  0
    8.5706  -15.9930   22.4171 C   0  0  1  0  0  0  0  0  0  0  0  0
    9.9828  -15.9511   22.8292 C   0  0  0  0  0  0  0  0  0  0  0  0
   10.5163  -14.8303   23.0301 O   0  0  0  0  0  0  0  0  0  0  0  0
   11.8972  -19.9687   26.9322 N   0  0  0  0  0  0  0  0  0  0  0  0
   11.0748  -18.8085   26.8650 C   0  0  0  0  0  0  0  0  0  0  0  0
   10.2785  -18.6512   27.8084 O   0  0  0  0  0  0  0  0  0  0  0  0
   11.1416  -17.8482   25.7623 C   0  0  0  0  0  0  0  0  0  0  0  0
   12.1454  -18.0368   24.7016 C   0  0  0  0  0  0  0  0  0  0  0  0
   12.1408  -17.0581   23.5616 C   0  0  2  0  0  0  0  0  0  0  0  0
   10.7882  -17.1028   23.0161 N   0  0  0  0  0  0  0  0  0  0  0  0
   13.2099  -17.1860   22.5972 C   0  0  0  0  0  0  0  0  0  0  0  0
   12.9335  -17.5665   21.2955 O   0  0  0  0  0  0  0  0  0  0  0  0
   14.3995  -16.9646   22.9084 O   0  0  0  0  0  0  0  0  0  0  0  0
  2  1  1  0
  2  3  1  0
  3  5  1  0
  3  4  1  6
  5  6  1  1
  7  5  1  0
  7  8  2  0
  9  7  1  0
 10  9  1  0
 10 11  1  0
 12 13  1  0
 12 11  1  0
 13  9  1  0
 13 14  1  1
 15 14  2  0
 16 17  1  0
 17 18  2  0
 19 17  1  0
 19 20  1  0
 21 20  1  1
 21 22  1  0
 22 14  1  0
 23 21  1  0
 23 24  1  0
 25 23  2  0
M  END
$$$$
