IPQ.pdb
     RDKit          3D

 25 25  0  0  1  0  0  0  0  0999 V2000
    8.5558  -12.6058   27.7467 C   0  0  0  0  0  0  0  0  0  0  0  0
    7.7043  -13.7868   27.4220 C   0  0  0  0  0  0  0  0  0  0  0  0
    7.0285  -13.5965   26.0803 C   0  0  2  0  0  0  0  0  0  0  0  0
    6.0091  -12.4924   26.2382 C   0  0  0  0  0  0  0  0  0  0  0  0
    6.4008  -14.8857   25.6028 C   0  0  2  0  0  0  0  0  0  0  0  0
    5.8976  -15.6176   26.7129 N   0  0  0  0  0  0  0  0  0  0  0  0
    7.2603  -15.6290   24.6726 C   0  0  0  0  0  0  0  0  0  0  0  0
    7.6675  -16.7862   24.9958 O   0  0  0  0  0  0  0  0  0  0  0  0
    7.6977  -15.1593   23.3962 N   0  0  0  0  0  0  0  0  0  0  0  0
    7.3294  -13.9306   22.7286 C   0  0  0  0  0  0  0  0  0  0  0  0
    7.6189  -14.0645   21.2637 C   0  0  0  0  0  0  0  0  0  0  0  0
    8.2184  -15.4485   21.1399 C   0  0  0  0  0  0  0  0  0  0  0  0
    8.6261  -15.8446   22.5128 C   0  0  1  0  0  0  0  0  0  0  0  0
   10.0309  -15.5663   22.8516 C   0  0  0  0  0  0  0  0  0  0  0  0
   10.3797  -14.3714   23.0304 O   0  0  0  0  0  0  0  0  0  0  0  0
   11.3279  -14.6902   27.7045 N   0  0  0  0  0  0  0  0  0  0  0  0
   11.2220  -16.0777   27.4035 C   0  0  0  0  0  0  0  0  0  0  0  0
   10.9021  -16.8169   28.3522 O   0  0  0  0  0  0  0  0  0  0  0  0
   11.4730  -16.6242   26.0690 C   0  0  0  0  0  0  0  0  0  0  0  0
   11.9333  -15.7259   24.9967 C   0  0  0  0  0  0  0  0  0  0  0  0
   12.2941  -16.3492   23.6782 C   0  0  2  0  0  0  0  0  0  0  0  0
   11.0257  -16.5668   22.9908 N   0  0  0  0  0  0  0  0  0  0  0  0
   13.1848  -17.4868   23.7247 C   0  0  0  0  0  0  0  0  0  0  0  0
   12.6947  -18.7654   23.5233 O   0  0  0  0  0  0  0  0  0  0  0  0
   14.4061  -17.3507   23.9504 O   0  0  0  0  0  0  0  0  0  0  0  0
  2  1  1  0
  2  3  1  0
  3  5  1  0
  3  4  1  1
  5  6  1  1
  7  5  1  0
  7  8  2  0
  9  7  1  0
 10  9  1  0
 10 11  1  0
 12 13  1  0
 12 11  1  0
 13  9  1  0
 13 14  1  1
 15 14  2  0
 16 17  1  0
 17 18  2  0
 19 17  1  0
 19 20  1  0
 21 20  1  1
 21 22  1  0
 22 14  1  0
 23 21  1  0
 23 24  1  0
 25 23  2  0
M  END
$$$$
