IPQ.pdb
     RDKit          3D

 25 25  0  0  1  0  0  0  0  0999 V2000
    6.7028  -16.3844   20.2632 C   0  0  0  0  0  0  0  0  0  0  0  0
    7.7381  -15.3817   20.6482 C   0  0  0  0  0  0  0  0  0  0  0  0
    7.1064  -14.0190   20.8402 C   0  0  2  0  0  0  0  0  0  0  0  0
    6.5314  -13.5937   19.5090 C   0  0  0  0  0  0  0  0  0  0  0  0
    8.1148  -13.0244   21.3676 C   0  0  2  0  0  0  0  0  0  0  0  0
    9.1033  -12.7689   20.3784 N   0  0  0  0  0  0  0  0  0  0  0  0
    8.6113  -13.3699   22.7057 C   0  0  0  0  0  0  0  0  0  0  0  0
    9.8387  -13.6525   22.8570 O   0  0  0  0  0  0  0  0  0  0  0  0
    7.8193  -13.4209   23.8937 N   0  0  0  0  0  0  0  0  0  0  0  0
    6.3911  -13.2308   24.0172 C   0  0  0  0  0  0  0  0  0  0  0  0
    6.0642  -12.8948   25.4413 C   0  0  0  0  0  0  0  0  0  0  0  0
    7.4056  -12.9429   26.1401 C   0  0  0  0  0  0  0  0  0  0  0  0
    8.3155  -13.6895   25.2330 C   0  0  1  0  0  0  0  0  0  0  0  0
    8.4288  -15.1304   25.5100 C   0  0  0  0  0  0  0  0  0  0  0  0
    7.9416  -15.9409   24.6812 O   0  0  0  0  0  0  0  0  0  0  0  0
   10.7232  -13.8294   28.4141 N   0  0  0  0  0  0  0  0  0  0  0  0
   10.5081  -14.8715   29.3600 C   0  0  0  0  0  0  0  0  0  0  0  0
   10.2669  -14.5067   30.5252 O   0  0  0  0  0  0  0  0  0  0  0  0
   10.5658  -16.2910   29.0076 C   0  0  0  0  0  0  0  0  0  0  0  0
   10.9486  -16.6794   27.6397 C   0  0  0  0  0  0  0  0  0  0  0  0
    9.8426  -16.8988   26.6468 C   0  0  2  0  0  0  0  0  0  0  0  0
    9.0576  -15.6690   26.6609 N   0  0  0  0  0  0  0  0  0  0  0  0
    9.0889  -18.1250   26.7813 C   0  0  0  0  0  0  0  0  0  0  0  0
    9.7201  -19.3498   26.6509 O   0  0  0  0  0  0  0  0  0  0  0  0
    7.8609  -18.1143   27.0110 O   0  0  0  0  0  0  0  0  0  0  0  0
  2  1  1  0
  2  3  1  0
  3  5  1  0
  3  4  1  6
  5  6  1  6
  7  5  1  0
  7  8  2  0
  9  7  1  0
 10  9  1  0
 10 11  1  0
 12 13  1  0
 12 11  1  0
 13  9  1  0
 13 14  1  1
 15 14  2  0
 16 17  1  0
 17 18  2  0
 19 17  1  0
 19 20  1  0
 21 20  1  1
 21 22  1  0
 22 14  1  0
 23 21  1  0
 23 24  1  0
 25 23  2  0
M  END
$$$$
