IPQ.pdb
     RDKit          3D

 25 25  0  0  1  0  0  0  0  0999 V2000
    8.2754  -12.6164   27.3536 C   0  0  0  0  0  0  0  0  0  0  0  0
    7.6285  -13.8928   26.9322 C   0  0  0  0  0  0  0  0  0  0  0  0
    6.6066  -13.6322   25.8456 C   0  0  2  0  0  0  0  0  0  0  0  0
    5.4907  -12.8178   26.4579 C   0  0  0  0  0  0  0  0  0  0  0  0
    6.1047  -14.9285   25.2524 C   0  0  2  0  0  0  0  0  0  0  0  0
    5.5570  -15.7478   26.2769 N   0  0  0  0  0  0  0  0  0  0  0  0
    7.0853  -15.5681   24.3660 C   0  0  0  0  0  0  0  0  0  0  0  0
    7.5474  -16.7086   24.6742 O   0  0  0  0  0  0  0  0  0  0  0  0
    7.5869  -15.0116   23.1495 N   0  0  0  0  0  0  0  0  0  0  0  0
    7.2775  -13.7240   22.5686 C   0  0  0  0  0  0  0  0  0  0  0  0
    7.6241  -13.7498   21.1101 C   0  0  0  0  0  0  0  0  0  0  0  0
    8.1931  -15.1362   20.8995 C   0  0  0  0  0  0  0  0  0  0  0  0
    8.5335  -15.6509   22.2512 C   0  0  1  0  0  0  0  0  0  0  0  0
    9.9297  -15.4403   22.6661 C   0  0  0  0  0  0  0  0  0  0  0  0
   10.2117  -14.4031   23.3188 O   0  0  0  0  0  0  0  0  0  0  0  0
    9.8219  -18.7004   26.9520 N   0  0  0  0  0  0  0  0  0  0  0  0
   11.0947  -18.0623   26.9478 C   0  0  0  0  0  0  0  0  0  0  0  0
   11.5522  -17.7547   28.0636 O   0  0  0  0  0  0  0  0  0  0  0  0
   11.8359  -17.7725   25.7194 C   0  0  0  0  0  0  0  0  0  0  0  0
   11.1261  -17.1854   24.5704 C   0  0  0  0  0  0  0  0  0  0  0  0
   11.9469  -16.8006   23.3723 C   0  0  2  0  0  0  0  0  0  0  0  0
   10.9870  -16.3389   22.3752 N   0  0  0  0  0  0  0  0  0  0  0  0
   12.9105  -17.7742   22.9108 C   0  0  0  0  0  0  0  0  0  0  0  0
   14.2370  -17.6789   23.2941 O   0  0  0  0  0  0  0  0  0  0  0  0
   12.5789  -18.7146   22.1581 O   0  0  0  0  0  0  0  0  0  0  0  0
  2  1  1  0
  2  3  1  0
  3  5  1  0
  3  4  1  1
  5  6  1  1
  7  5  1  0
  7  8  2  0
  9  7  1  0
 10  9  1  0
 10 11  1  0
 12 13  1  0
 12 11  1  0
 13  9  1  0
 13 14  1  1
 15 14  2  0
 16 17  1  0
 17 18  2  0
 19 17  1  0
 19 20  1  0
 21 20  1  1
 21 22  1  0
 22 14  1  0
 23 21  1  0
 23 24  1  0
 25 23  2  0
M  END
$$$$
