IPQ.pdb
     RDKit          3D

 25 25  0  0  1  0  0  0  0  0999 V2000
    6.8978  -11.9828   27.4862 C   0  0  0  0  0  0  0  0  0  0  0  0
    6.1747  -13.0448   26.7282 C   0  0  0  0  0  0  0  0  0  0  0  0
    7.1488  -13.8606   25.9045 C   0  0  2  0  0  0  0  0  0  0  0  0
    7.8262  -12.9176   24.9374 C   0  0  0  0  0  0  0  0  0  0  0  0
    6.4420  -14.9920   25.1941 C   0  0  2  0  0  0  0  0  0  0  0  0
    5.7068  -15.7665   26.1325 N   0  0  0  0  0  0  0  0  0  0  0  0
    7.3254  -15.7381   24.2889 C   0  0  0  0  0  0  0  0  0  0  0  0
    7.8107  -16.8461   24.6711 O   0  0  0  0  0  0  0  0  0  0  0  0
    7.7046  -15.3229   22.9755 N   0  0  0  0  0  0  0  0  0  0  0  0
    7.2828  -14.1374   22.2630 C   0  0  0  0  0  0  0  0  0  0  0  0
    7.5219  -14.3376   20.7965 C   0  0  0  0  0  0  0  0  0  0  0  0
    8.1494  -15.7124   20.7180 C   0  0  0  0  0  0  0  0  0  0  0  0
    8.6162  -16.0306   22.0924 C   0  0  1  0  0  0  0  0  0  0  0  0
   10.0254  -15.7048   22.3641 C   0  0  0  0  0  0  0  0  0  0  0  0
   10.2826  -14.7035   23.0800 O   0  0  0  0  0  0  0  0  0  0  0  0
   10.7234  -17.7097   26.5810 N   0  0  0  0  0  0  0  0  0  0  0  0
   11.8594  -18.4375   26.1264 C   0  0  0  0  0  0  0  0  0  0  0  0
   12.6062  -18.8895   27.0135 O   0  0  0  0  0  0  0  0  0  0  0  0
   12.1532  -18.6505   24.7084 C   0  0  0  0  0  0  0  0  0  0  0  0
   11.3746  -17.9213   23.6932 C   0  0  0  0  0  0  0  0  0  0  0  0
   12.1345  -17.0619   22.7230 C   0  0  2  0  0  0  0  0  0  0  0  0
   11.1219  -16.4533   21.8667 N   0  0  0  0  0  0  0  0  0  0  0  0
   13.2416  -17.6883   22.0364 C   0  0  0  0  0  0  0  0  0  0  0  0
   13.0080  -18.6392   21.0584 O   0  0  0  0  0  0  0  0  0  0  0  0
   14.4261  -17.3967   22.3065 O   0  0  0  0  0  0  0  0  0  0  0  0
  2  1  1  0
  2  3  1  0
  3  5  1  0
  3  4  1  6
  5  6  1  1
  7  5  1  0
  7  8  2  0
  9  7  1  0
 10  9  1  0
 10 11  1  0
 12 13  1  0
 12 11  1  0
 13  9  1  0
 13 14  1  6
 15 14  2  0
 16 17  1  0
 17 18  2  0
 19 17  1  0
 19 20  1  0
 21 20  1  6
 21 22  1  0
 22 14  1  0
 23 21  1  0
 23 24  1  0
 25 23  2  0
M  END
$$$$
