IPQ.pdb
     RDKit          3D

 25 25  0  0  1  0  0  0  0  0999 V2000
    6.2081  -11.7012   27.3183 C   0  0  0  0  0  0  0  0  0  0  0  0
    5.6407  -12.8592   26.5683 C   0  0  0  0  0  0  0  0  0  0  0  0
    6.7492  -13.6617   25.9202 C   0  0  2  0  0  0  0  0  0  0  0  0
    7.4905  -12.7371   24.9828 C   0  0  0  0  0  0  0  0  0  0  0  0
    6.1942  -14.8714   25.2043 C   0  0  2  0  0  0  0  0  0  0  0  0
    5.4562  -15.6751   26.1156 N   0  0  0  0  0  0  0  0  0  0  0  0
    7.2023  -15.5684   24.3953 C   0  0  0  0  0  0  0  0  0  0  0  0
    7.7141  -16.6428   24.8345 O   0  0  0  0  0  0  0  0  0  0  0  0
    7.6791  -15.1391   23.1188 N   0  0  0  0  0  0  0  0  0  0  0  0
    7.3870  -13.8999   22.4330 C   0  0  0  0  0  0  0  0  0  0  0  0
    7.6848  -14.0673   20.9731 C   0  0  0  0  0  0  0  0  0  0  0  0
    8.2076  -15.4838   20.8721 C   0  0  0  0  0  0  0  0  0  0  0  0
    8.5775  -15.8854   22.2541 C   0  0  1  0  0  0  0  0  0  0  0  0
    9.9919  -15.6814   22.6059 C   0  0  0  0  0  0  0  0  0  0  0  0
   10.3230  -14.6016   23.1587 O   0  0  0  0  0  0  0  0  0  0  0  0
   12.5566  -18.4101   26.9451 N   0  0  0  0  0  0  0  0  0  0  0  0
   11.2773  -18.4909   26.3254 C   0  0  0  0  0  0  0  0  0  0  0  0
   10.4136  -19.1393   26.9439 O   0  0  0  0  0  0  0  0  0  0  0  0
   10.9747  -17.8618   25.0389 C   0  0  0  0  0  0  0  0  0  0  0  0
   11.7887  -16.7218   24.5845 C   0  0  0  0  0  0  0  0  0  0  0  0
   12.2378  -16.7194   23.1508 C   0  0  2  0  0  0  0  0  0  0  0  0
   11.0146  -16.6320   22.3601 N   0  0  0  0  0  0  0  0  0  0  0  0
   13.1619  -17.7610   22.7624 C   0  0  0  0  0  0  0  0  0  0  0  0
   12.7702  -18.7441   21.8704 O   0  0  0  0  0  0  0  0  0  0  0  0
   14.3239  -17.8062   23.2191 O   0  0  0  0  0  0  0  0  0  0  0  0
  2  1  1  0
  2  3  1  0
  3  5  1  0
  3  4  1  6
  5  6  1  1
  7  5  1  0
  7  8  2  0
  9  7  1  0
 10  9  1  0
 10 11  1  0
 12 13  1  0
 12 11  1  0
 13  9  1  0
 13 14  1  1
 15 14  2  0
 16 17  1  0
 17 18  2  0
 19 17  1  0
 19 20  1  0
 21 20  1  1
 21 22  1  0
 22 14  1  0
 23 21  1  0
 23 24  1  0
 25 23  2  0
M  END
$$$$
