PWN.pdb
     RDKit          3D

 30 32  0  0  1  0  0  0  0  0999 V2000
    7.1617  -15.0854   20.8167 N   0  0  0  0  0  0  0  0  0  0  0  0
    6.4251  -14.6871   19.6074 C   0  0  0  0  0  0  0  0  0  0  0  0
    6.9176  -13.2764   19.3682 C   0  0  0  0  0  0  0  0  0  0  0  0
    8.1534  -13.1042   20.2628 C   0  0  0  0  0  0  0  0  0  0  0  0
    8.4773  -14.5582   20.5307 C   0  0  1  0  0  0  0  0  0  0  0  0
    9.3450  -14.7654   21.7000 C   0  0  0  0  0  0  0  0  0  0  0  0
   10.5575  -14.3379   21.7158 O   0  0  0  0  0  0  0  0  0  0  0  0
    8.8156  -15.4544   22.8263 N   0  0  0  0  0  0  0  0  0  0  0  0
    9.5428  -15.5503   24.0542 C   0  0  1  0  0  0  0  0  0  0  0  0
    8.6999  -16.0275   25.2094 C   0  0  0  0  0  0  0  0  0  0  0  0
    7.5541  -15.1557   25.4932 C   0  0  0  0  0  0  0  0  0  0  0  0
    6.2275  -15.4506   25.3060 C   0  0  0  0  0  0  0  0  0  0  0  0
    5.5294  -14.3735   25.6945 N   0  0  0  0  0  0  0  0  0  0  0  0
    6.3520  -13.4044   26.1213 C   0  0  0  0  0  0  0  0  0  0  0  0
    6.1633  -12.1304   26.6148 C   0  0  0  0  0  0  0  0  0  0  0  0
    7.2178  -11.3336   26.9859 C   0  0  0  0  0  0  0  0  0  0  0  0
    8.5121  -11.7933   26.8732 C   0  0  0  0  0  0  0  0  0  0  0  0
    8.7015  -13.0622   26.3817 C   0  0  0  0  0  0  0  0  0  0  0  0
    7.6338  -13.8762   26.0032 C   0  0  0  0  0  0  0  0  0  0  0  0
   10.6601  -16.5500   23.9054 C   0  0  0  0  0  0  0  0  0  0  0  0
   10.5441  -17.5839   23.2027 O   0  0  0  0  0  0  0  0  0  0  0  0
   15.6260  -17.4945   22.1857 N   0  0  0  0  0  0  0  0  0  0  0  0
   15.3942  -17.0336   23.5365 C   0  0  0  0  0  0  0  0  0  0  0  0
   16.2454  -17.1962   24.4259 O   0  0  0  0  0  0  0  0  0  0  0  0
   14.1211  -16.3743   23.7986 C   0  0  0  0  0  0  0  0  0  0  0  0
   13.0020  -17.2691   24.2695 C   0  0  2  0  0  0  0  0  0  0  0  0
   11.8901  -16.3316   24.5735 N   0  0  0  0  0  0  0  0  0  0  0  0
   13.3116  -18.0670   25.4598 C   0  0  0  0  0  0  0  0  0  0  0  0
   12.9752  -17.7888   26.6257 O   0  0  0  0  0  0  0  0  0  0  0  0
   14.0500  -19.2575   25.3216 O   0  0  0  0  0  0  0  0  0  0  0  0
  1  2  1  0
  2  3  1  0
  4  3  1  0
  5  1  1  0
  5  4  1  0
  5  6  1  1
  7  6  2  0
  8  6  1  0
  9  8  1  0
 10 11  1  0
  9 10  1  1
 11 12  2  0
 13 12  1  0
 14 13  1  0
 15 14  2  0
 16 15  1  0
 17 16  2  0
 17 18  1  0
 18 19  2  0
 19 14  1  0
 19 11  1  0
 20  9  1  0
 20 27  1  0
 21 20  2  0
 22 23  1  0
 23 24  2  0
 23 25  1  0
 26 25  1  1
 26 27  1  0
 26 28  1  0
 28 30  1  0
 29 28  2  0
M  END
$$$$
