PWN.pdb
     RDKit          3D

 30 32  0  0  1  0  0  0  0  0999 V2000
    7.2528  -15.2893   20.8249 N   0  0  0  0  0  0  0  0  0  0  0  0
    6.6270  -14.8254   19.5772 C   0  0  0  0  0  0  0  0  0  0  0  0
    7.1451  -13.4091   19.4525 C   0  0  0  0  0  0  0  0  0  0  0  0
    8.2984  -13.2923   20.4592 C   0  0  0  0  0  0  0  0  0  0  0  0
    8.5908  -14.7605   20.6816 C   0  0  1  0  0  0  0  0  0  0  0  0
    9.3516  -15.0328   21.9105 C   0  0  0  0  0  0  0  0  0  0  0  0
   10.5406  -14.5722   22.0755 O   0  0  0  0  0  0  0  0  0  0  0  0
    8.7443  -15.8230   22.9254 N   0  0  0  0  0  0  0  0  0  0  0  0
    9.3582  -15.9975   24.2055 C   0  0  1  0  0  0  0  0  0  0  0  0
    8.3639  -16.2086   25.3187 C   0  0  0  0  0  0  0  0  0  0  0  0
    7.3641  -15.1390   25.4169 C   0  0  0  0  0  0  0  0  0  0  0  0
    6.0602  -15.1879   24.9931 C   0  0  0  0  0  0  0  0  0  0  0  0
    5.5123  -13.9974   25.2776 N   0  0  0  0  0  0  0  0  0  0  0  0
    6.4089  -13.1911   25.8639 C   0  0  0  0  0  0  0  0  0  0  0  0
    6.3710  -11.8992   26.3455 C   0  0  0  0  0  0  0  0  0  0  0  0
    7.4704  -11.3053   26.9140 C   0  0  0  0  0  0  0  0  0  0  0  0
    8.6587  -11.9953   27.0196 C   0  0  0  0  0  0  0  0  0  0  0  0
    8.6978  -13.2822   26.5403 C   0  0  0  0  0  0  0  0  0  0  0  0
    7.5838  -13.8908   25.9618 C   0  0  0  0  0  0  0  0  0  0  0  0
   10.2354  -17.2223   24.1847 C   0  0  0  0  0  0  0  0  0  0  0  0
    9.9338  -18.2506   23.5307 O   0  0  0  0  0  0  0  0  0  0  0  0
   15.7888  -18.8288   25.2472 N   0  0  0  0  0  0  0  0  0  0  0  0
   14.6742  -18.9878   24.3399 C   0  0  0  0  0  0  0  0  0  0  0  0
   14.6215  -19.9427   23.5478 O   0  0  0  0  0  0  0  0  0  0  0  0
   13.6247  -17.9784   24.4019 C   0  0  0  0  0  0  0  0  0  0  0  0
   12.2706  -18.4647   24.8545 C   0  0  2  0  0  0  0  0  0  0  0  0
   11.4450  -17.2311   24.9220 N   0  0  0  0  0  0  0  0  0  0  0  0
   12.2616  -19.1341   26.1588 C   0  0  0  0  0  0  0  0  0  0  0  0
   11.7842  -18.6668   27.2094 O   0  0  0  0  0  0  0  0  0  0  0  0
   12.8300  -20.4160   26.2822 O   0  0  0  0  0  0  0  0  0  0  0  0
  1  2  1  0
  2  3  1  0
  4  3  1  0
  5  1  1  0
  5  4  1  0
  5  6  1  1
  7  6  2  0
  8  6  1  0
  9  8  1  0
 10 11  1  0
  9 10  1  1
 11 12  2  0
 13 12  1  0
 14 13  1  0
 15 14  2  0
 16 15  1  0
 17 16  2  0
 17 18  1  0
 18 19  2  0
 19 14  1  0
 19 11  1  0
 20  9  1  0
 20 27  1  0
 21 20  2  0
 22 23  1  0
 23 24  2  0
 23 25  1  0
 26 25  1  1
 26 27  1  0
 26 28  1  0
 28 30  1  0
 29 28  2  0
M  END
$$$$
