PWN.pdb
     RDKit          3D

 30 32  0  0  1  0  0  0  0  0999 V2000
    7.1011  -15.4488   20.9626 N   0  0  0  0  0  0  0  0  0  0  0  0
    6.3531  -15.1128   19.7415 C   0  0  0  0  0  0  0  0  0  0  0  0
    6.7739  -13.6834   19.4771 C   0  0  0  0  0  0  0  0  0  0  0  0
    7.9932  -13.4304   20.3751 C   0  0  0  0  0  0  0  0  0  0  0  0
    8.3897  -14.8602   20.6737 C   0  0  1  0  0  0  0  0  0  0  0  0
    9.2591  -14.9994   21.8518 C   0  0  0  0  0  0  0  0  0  0  0  0
   10.3938  -14.3986   21.9189 O   0  0  0  0  0  0  0  0  0  0  0  0
    8.8197  -15.8190   22.9282 N   0  0  0  0  0  0  0  0  0  0  0  0
    9.5429  -15.8868   24.1604 C   0  0  1  0  0  0  0  0  0  0  0  0
    8.6677  -16.1969   25.3480 C   0  0  0  0  0  0  0  0  0  0  0  0
    7.5239  -15.2874   25.4815 C   0  0  0  0  0  0  0  0  0  0  0  0
    6.2140  -15.5601   25.1785 C   0  0  0  0  0  0  0  0  0  0  0  0
    5.5111  -14.4511   25.4510 N   0  0  0  0  0  0  0  0  0  0  0  0
    6.3145  -13.4828   25.9144 C   0  0  0  0  0  0  0  0  0  0  0  0
    6.1136  -12.1839   26.3326 C   0  0  0  0  0  0  0  0  0  0  0  0
    7.1485  -11.3954   26.7706 C   0  0  0  0  0  0  0  0  0  0  0  0
    8.4348  -11.8890   26.8042 C   0  0  0  0  0  0  0  0  0  0  0  0
    8.6363  -13.1827   26.3879 C   0  0  0  0  0  0  0  0  0  0  0  0
    7.5885  -13.9884   25.9419 C   0  0  0  0  0  0  0  0  0  0  0  0
   10.5646  -16.9917   24.0887 C   0  0  0  0  0  0  0  0  0  0  0  0
   10.3409  -18.0726   23.4907 O   0  0  0  0  0  0  0  0  0  0  0  0
   15.9916  -18.0676   23.0493 N   0  0  0  0  0  0  0  0  0  0  0  0
   15.3336  -18.0072   24.3355 C   0  0  0  0  0  0  0  0  0  0  0  0
   15.7671  -18.6436   25.3096 O   0  0  0  0  0  0  0  0  0  0  0  0
   14.1454  -17.1684   24.4291 C   0  0  0  0  0  0  0  0  0  0  0  0
   12.8292  -17.9001   24.5143 C   0  0  2  0  0  0  0  0  0  0  0  0
   11.8259  -16.8220   24.7113 N   0  0  0  0  0  0  0  0  0  0  0  0
   12.7329  -18.8677   25.6115 C   0  0  0  0  0  0  0  0  0  0  0  0
   13.2630  -19.9940   25.6322 O   0  0  0  0  0  0  0  0  0  0  0  0
   11.9884  -18.5392   26.7600 O   0  0  0  0  0  0  0  0  0  0  0  0
  1  2  1  0
  2  3  1  0
  4  3  1  0
  5  1  1  0
  5  4  1  0
  5  6  1  1
  7  6  2  0
  8  6  1  0
  9  8  1  0
 10 11  1  0
  9 10  1  1
 11 12  2  0
 13 12  1  0
 14 13  1  0
 15 14  2  0
 16 15  1  0
 17 16  2  0
 17 18  1  0
 18 19  2  0
 19 14  1  0
 19 11  1  0
 20  9  1  0
 20 27  1  0
 21 20  2  0
 22 23  1  0
 23 24  2  0
 23 25  1  0
 26 25  1  1
 26 27  1  0
 26 28  1  0
 28 30  1  0
 29 28  2  0
M  END
$$$$
