PWN.pdb
     RDKit          3D

 30 32  0  0  1  0  0  0  0  0999 V2000
    7.3176  -15.3935   18.7731 N   0  0  0  0  0  0  0  0  0  0  0  0
    7.0074  -15.0803   17.3698 C   0  0  0  0  0  0  0  0  0  0  0  0
    7.7079  -13.7550   17.1627 C   0  0  0  0  0  0  0  0  0  0  0  0
    8.6489  -13.5837   18.3637 C   0  0  0  0  0  0  0  0  0  0  0  0
    8.7120  -15.0179   18.8432 C   0  0  1  0  0  0  0  0  0  0  0  0
    9.1805  -15.1580   20.2303 C   0  0  0  0  0  0  0  0  0  0  0  0
   10.4229  -15.3515   20.4991 O   0  0  0  0  0  0  0  0  0  0  0  0
    8.2264  -15.0753   21.2820 N   0  0  0  0  0  0  0  0  0  0  0  0
    8.6269  -14.8892   22.6425 C   0  0  1  0  0  0  0  0  0  0  0  0
    7.8361  -13.8217   23.3551 C   0  0  0  0  0  0  0  0  0  0  0  0
    8.3162  -13.5519   24.7153 C   0  0  0  0  0  0  0  0  0  0  0  0
    9.5843  -13.7552   25.1974 C   0  0  0  0  0  0  0  0  0  0  0  0
    9.5787  -13.3752   26.4834 N   0  0  0  0  0  0  0  0  0  0  0  0
    8.3631  -12.9385   26.8432 C   0  0  0  0  0  0  0  0  0  0  0  0
    7.8248  -12.4473   28.0143 C   0  0  0  0  0  0  0  0  0  0  0  0
    6.5098  -12.0633   28.1022 C   0  0  0  0  0  0  0  0  0  0  0  0
    5.6807  -12.1603   27.0056 C   0  0  0  0  0  0  0  0  0  0  0  0
    6.2155  -12.6494   25.8385 C   0  0  0  0  0  0  0  0  0  0  0  0
    7.5511  -13.0410   25.7434 C   0  0  0  0  0  0  0  0  0  0  0  0
    8.4072  -16.1639   23.4149 C   0  0  0  0  0  0  0  0  0  0  0  0
    7.2751  -16.6961   23.5203 O   0  0  0  0  0  0  0  0  0  0  0  0
    9.2592  -18.6526   22.1640 N   0  0  0  0  0  0  0  0  0  0  0  0
   10.2853  -19.2714   22.9734 C   0  0  0  0  0  0  0  0  0  0  0  0
   11.1615  -19.9879   22.4627 O   0  0  0  0  0  0  0  0  0  0  0  0
   10.2386  -19.0136   24.4071 C   0  0  0  0  0  0  0  0  0  0  0  0
    9.2112  -18.0069   24.8610 C   0  0  2  0  0  0  0  0  0  0  0  0
    9.5041  -16.7972   24.0497 N   0  0  0  0  0  0  0  0  0  0  0  0
    9.2690  -17.6688   26.2864 C   0  0  0  0  0  0  0  0  0  0  0  0
    9.7199  -16.6102   26.7618 O   0  0  0  0  0  0  0  0  0  0  0  0
    8.7850  -18.5886   27.2357 O   0  0  0  0  0  0  0  0  0  0  0  0
  1  2  1  0
  2  3  1  0
  4  3  1  0
  5  1  1  0
  5  4  1  0
  5  6  1  1
  7  6  2  0
  8  6  1  0
  9  8  1  0
 10 11  1  0
  9 10  1  1
 11 12  2  0
 13 12  1  0
 14 13  1  0
 15 14  2  0
 16 15  1  0
 17 16  2  0
 17 18  1  0
 18 19  2  0
 19 14  1  0
 19 11  1  0
 20  9  1  0
 20 27  1  0
 21 20  2  0
 22 23  1  0
 23 24  2  0
 23 25  1  0
 26 25  1  1
 26 27  1  0
 26 28  1  0
 28 30  1  0
 29 28  2  0
M  END
$$$$
