PWN.pdb
     RDKit          3D

 30 32  0  0  1  0  0  0  0  0999 V2000
    7.2243  -15.0854   20.7440 N   0  0  0  0  0  0  0  0  0  0  0  0
    6.4686  -14.7314   19.5328 C   0  0  0  0  0  0  0  0  0  0  0  0
    6.9294  -13.3169   19.2555 C   0  0  0  0  0  0  0  0  0  0  0  0
    8.1694  -13.0980   20.1340 C   0  0  0  0  0  0  0  0  0  0  0  0
    8.5259  -14.5382   20.4331 C   0  0  1  0  0  0  0  0  0  0  0  0
    9.4084  -14.6994   21.5987 C   0  0  0  0  0  0  0  0  0  0  0  0
   10.5872  -14.1866   21.6196 O   0  0  0  0  0  0  0  0  0  0  0  0
    8.9316  -15.4405   22.7153 N   0  0  0  0  0  0  0  0  0  0  0  0
    9.6337  -15.4505   23.9615 C   0  0  1  0  0  0  0  0  0  0  0  0
    8.7947  -15.9421   25.1134 C   0  0  0  0  0  0  0  0  0  0  0  0
    7.5815  -15.1458   25.3315 C   0  0  0  0  0  0  0  0  0  0  0  0
    6.2835  -15.5612   25.1748 C   0  0  0  0  0  0  0  0  0  0  0  0
    5.4998  -14.5163   25.4786 N   0  0  0  0  0  0  0  0  0  0  0  0
    6.2403  -13.4526   25.8222 C   0  0  0  0  0  0  0  0  0  0  0  0
    5.9481  -12.1623   26.2124 C   0  0  0  0  0  0  0  0  0  0  0  0
    6.9339  -11.2555   26.5133 C   0  0  0  0  0  0  0  0  0  0  0  0
    8.2614  -11.6166   26.4319 C   0  0  0  0  0  0  0  0  0  0  0  0
    8.5538  -12.9015   26.0433 C   0  0  0  0  0  0  0  0  0  0  0  0
    7.5563  -13.8271   25.7364 C   0  0  0  0  0  0  0  0  0  0  0  0
   10.8143  -16.3821   23.8711 C   0  0  0  0  0  0  0  0  0  0  0  0
   10.7260  -17.5274   23.3646 O   0  0  0  0  0  0  0  0  0  0  0  0
   16.0681  -17.0822   22.6315 N   0  0  0  0  0  0  0  0  0  0  0  0
   15.7088  -16.6689   23.9698 C   0  0  0  0  0  0  0  0  0  0  0  0
   16.4654  -16.8784   24.9319 O   0  0  0  0  0  0  0  0  0  0  0  0
   14.4241  -15.9998   24.1304 C   0  0  0  0  0  0  0  0  0  0  0  0
   13.2157  -16.9008   24.1847 C   0  0  2  0  0  0  0  0  0  0  0  0
   12.0742  -15.9677   24.3691 N   0  0  0  0  0  0  0  0  0  0  0  0
   13.2288  -17.8827   25.2733 C   0  0  0  0  0  0  0  0  0  0  0  0
   13.7485  -19.0130   25.2228 O   0  0  0  0  0  0  0  0  0  0  0  0
   12.6138  -17.5649   26.4989 O   0  0  0  0  0  0  0  0  0  0  0  0
  1  2  1  0
  2  3  1  0
  4  3  1  0
  5  1  1  0
  5  4  1  0
  5  6  1  1
  7  6  2  0
  8  6  1  0
  9  8  1  0
 10 11  1  0
  9 10  1  1
 11 12  2  0
 13 12  1  0
 14 13  1  0
 15 14  2  0
 16 15  1  0
 17 16  2  0
 17 18  1  0
 18 19  2  0
 19 14  1  0
 19 11  1  0
 20  9  1  0
 20 27  1  0
 21 20  2  0
 22 23  1  0
 23 24  2  0
 23 25  1  0
 26 25  1  1
 26 27  1  0
 26 28  1  0
 28 30  1  0
 29 28  2  0
M  END
$$$$
