PTH.pdb
     RDKit          3D

 25 26  0  0  1  0  0  0  0  0999 V2000
   27.4530  -16.7370  -18.4139 N   0  0  0  0  0  0  0  0  0  0  0  0
   26.9095  -15.5892  -19.1030 C   0  0  0  0  0  0  0  0  0  0  0  0
   25.9298  -14.9263  -18.1954 C   0  0  0  0  0  0  0  0  0  0  0  0
   25.6412  -15.9373  -17.1109 C   0  0  0  0  0  0  0  0  0  0  0  0
   26.8928  -16.7790  -17.1054 C   0  0  1  0  0  0  0  0  0  0  0  0
   26.6503  -18.1574  -16.6320 C   0  0  0  0  0  0  0  0  0  0  0  0
   26.2088  -18.9981  -17.4595 O   0  0  0  0  0  0  0  0  0  0  0  0
   28.8456  -19.7533  -13.4916 C   0  0  0  0  0  0  0  0  0  0  0  0
   28.1385  -20.5134  -14.5907 C   0  0  1  0  0  0  0  0  0  0  0  0
   28.0448  -21.8316  -14.2262 O   0  0  0  0  0  0  0  0  0  0  0  0
   26.7900  -19.8577  -14.8085 C   0  0  2  0  0  0  0  0  0  0  0  0
   26.9151  -18.5005  -15.2775 N   0  0  0  0  0  0  0  0  0  0  0  0
   26.1692  -19.7891  -13.4382 C   0  0  0  0  0  0  0  0  0  0  0  0
   26.5312  -18.8821  -12.6450 O   0  0  0  0  0  0  0  0  0  0  0  0
   25.1853  -20.7160  -13.0078 N   0  0  0  0  0  0  0  0  0  0  0  0
   24.6241  -20.5731  -11.6815 C   0  0  1  0  0  0  0  0  0  0  0  0
   23.3214  -21.3368  -11.5412 C   0  0  0  0  0  0  0  0  0  0  0  0
   22.7961  -21.2116  -10.1563 C   0  0  0  0  0  0  0  0  0  0  0  0
   23.3050  -20.5393   -9.0736 C   0  0  0  0  0  0  0  0  0  0  0  0
   22.4695  -20.7234   -8.0416 N   0  0  0  0  0  0  0  0  0  0  0  0
   21.4447  -21.5005   -8.4599 C   0  0  0  0  0  0  0  0  0  0  0  0
   21.6353  -21.8050   -9.7538 N   0  0  0  0  0  0  0  0  0  0  0  0
   25.5929  -21.0558  -10.6653 C   0  0  0  0  0  0  0  0  0  0  0  0
   25.8470  -20.2818   -9.5544 O   0  0  0  0  0  0  0  0  0  0  0  0
   26.1859  -22.1688  -10.8096 O   0  0  0  0  0  0  0  0  0  0  0  0
  1  5  1  0
  1  2  1  0
  2  3  1  0
  4  3  1  0
  5  6  1  6
  5  4  1  0
  6  7  2  0
  9  8  1  1
  9 10  1  0
 11  9  1  0
 12  6  1  0
 11 12  1  1
 13 14  2  0
 13 11  1  0
 15 13  1  0
 16 17  1  6
 16 15  1  0
 17 18  1  0
 18 22  1  0
 18 19  2  0
 19 20  1  0
 21 20  1  0
 22 21  2  0
 23 24  1  0
 23 16  1  0
 25 23  2  0
M  END
$$$$
