PTH.pdb
     RDKit          3D

 25 26  0  0  1  0  0  0  0  0999 V2000
   27.1847  -20.8836  -15.7477 N   0  0  0  0  0  0  0  0  0  0  0  0
   28.3123  -21.1176  -16.6201 C   0  0  0  0  0  0  0  0  0  0  0  0
   28.9795  -19.8088  -16.8746 C   0  0  0  0  0  0  0  0  0  0  0  0
   27.9853  -18.7605  -16.4340 C   0  0  0  0  0  0  0  0  0  0  0  0
   27.1599  -19.5002  -15.4110 C   0  0  1  0  0  0  0  0  0  0  0  0
   25.7876  -18.9659  -15.2919 C   0  0  0  0  0  0  0  0  0  0  0  0
   25.6493  -17.7602  -14.9548 O   0  0  0  0  0  0  0  0  0  0  0  0
   21.1707  -18.9004  -16.5337 C   0  0  0  0  0  0  0  0  0  0  0  0
   22.5668  -19.4349  -16.7591 C   0  0  1  0  0  0  0  0  0  0  0  0
   23.1493  -18.7317  -17.7816 O   0  0  0  0  0  0  0  0  0  0  0  0
   23.3205  -19.3178  -15.4498 C   0  0  2  0  0  0  0  0  0  0  0  0
   24.6719  -19.8076  -15.5551 N   0  0  0  0  0  0  0  0  0  0  0  0
   22.5960  -20.2394  -14.5045 C   0  0  0  0  0  0  0  0  0  0  0  0
   22.5463  -21.4695  -14.7639 O   0  0  0  0  0  0  0  0  0  0  0  0
   21.9641  -19.7670  -13.3254 N   0  0  0  0  0  0  0  0  0  0  0  0
   21.3313  -20.7225  -12.4417 C   0  0  1  0  0  0  0  0  0  0  0  0
   21.7357  -20.4999  -10.9971 C   0  0  0  0  0  0  0  0  0  0  0  0
   23.1904  -20.7521  -10.8235 C   0  0  0  0  0  0  0  0  0  0  0  0
   24.1127  -21.2581  -11.7046 C   0  0  0  0  0  0  0  0  0  0  0  0
   25.3003  -21.2969  -11.0843 N   0  0  0  0  0  0  0  0  0  0  0  0
   25.1375  -20.8232   -9.8281 C   0  0  0  0  0  0  0  0  0  0  0  0
   23.8486  -20.4867   -9.6582 N   0  0  0  0  0  0  0  0  0  0  0  0
   19.8547  -20.6260  -12.5628 C   0  0  0  0  0  0  0  0  0  0  0  0
   19.3027  -19.5808  -13.2703 O   0  0  0  0  0  0  0  0  0  0  0  0
   19.1002  -21.4928  -12.0236 O   0  0  0  0  0  0  0  0  0  0  0  0
  1  5  1  0
  1  2  1  0
  2  3  1  0
  4  3  1  0
  5  6  1  6
  5  4  1  0
  6  7  2  0
  9  8  1  1
  9 10  1  0
 11  9  1  0
 12  6  1  0
 11 12  1  6
 13 14  2  0
 13 11  1  0
 15 13  1  0
 16 17  1  1
 16 15  1  0
 17 18  1  0
 18 22  1  0
 18 19  2  0
 19 20  1  0
 21 20  1  0
 22 21  2  0
 23 24  1  0
 23 16  1  0
 25 23  2  0
M  END
$$$$
