PTH.pdb
     RDKit          3D

 25 26  0  0  1  0  0  0  0  0999 V2000
   28.8001  -32.7332  -16.2538 N   0  0  0  0  0  0  0  0  0  0  0  0
   28.1944  -33.6350  -15.3012 C   0  0  0  0  0  0  0  0  0  0  0  0
   26.8434  -33.1060  -14.9581 C   0  0  0  0  0  0  0  0  0  0  0  0
   26.8372  -31.6769  -15.4471 C   0  0  0  0  0  0  0  0  0  0  0  0
   27.8627  -31.7038  -16.5528 C   0  0  1  0  0  0  0  0  0  0  0  0
   28.5054  -30.3905  -16.7658 C   0  0  0  0  0  0  0  0  0  0  0  0
   29.6536  -30.2081  -16.2813 O   0  0  0  0  0  0  0  0  0  0  0  0
   30.0341  -28.7896  -19.3736 C   0  0  0  0  0  0  0  0  0  0  0  0
   28.8682  -27.8605  -19.1224 C   0  0  1  0  0  0  0  0  0  0  0  0
   27.8899  -28.1194  -20.0472 O   0  0  0  0  0  0  0  0  0  0  0  0
   28.4099  -28.0743  -17.6940 C   0  0  2  0  0  0  0  0  0  0  0  0
   27.8275  -29.3783  -17.4996 N   0  0  0  0  0  0  0  0  0  0  0  0
   27.3066  -27.0701  -17.4891 C   0  0  0  0  0  0  0  0  0  0  0  0
   26.1210  -27.4754  -17.3745 O   0  0  0  0  0  0  0  0  0  0  0  0
   27.5580  -25.6755  -17.4205 N   0  0  0  0  0  0  0  0  0  0  0  0
   26.4488  -24.7769  -17.1827 C   0  0  1  0  0  0  0  0  0  0  0  0
   26.2952  -24.4576  -15.7081 C   0  0  0  0  0  0  0  0  0  0  0  0
   25.1918  -23.4829  -15.5031 C   0  0  0  0  0  0  0  0  0  0  0  0
   24.3733  -22.8671  -16.4163 C   0  0  0  0  0  0  0  0  0  0  0  0
   23.5297  -22.0702  -15.7452 N   0  0  0  0  0  0  0  0  0  0  0  0
   23.8061  -22.1766  -14.4256 C   0  0  0  0  0  0  0  0  0  0  0  0
   24.8227  -23.0395  -14.2667 N   0  0  0  0  0  0  0  0  0  0  0  0
   26.6432  -23.5174  -17.9443 C   0  0  0  0  0  0  0  0  0  0  0  0
   25.6079  -22.6123  -18.0266 O   0  0  0  0  0  0  0  0  0  0  0  0
   27.7482  -23.2680  -18.5171 O   0  0  0  0  0  0  0  0  0  0  0  0
  1  5  1  0
  1  2  1  0
  2  3  1  0
  4  3  1  0
  5  6  1  1
  5  4  1  0
  6  7  2  0
  9  8  1  6
  9 10  1  0
 11  9  1  0
 12  6  1  0
 11 12  1  6
 13 14  2  0
 13 11  1  0
 15 13  1  0
 16 17  1  1
 16 15  1  0
 17 18  1  0
 18 22  1  0
 18 19  2  0
 19 20  1  0
 21 20  1  0
 22 21  2  0
 23 24  1  0
 23 16  1  0
 25 23  2  0
M  END
$$$$
