PTH.pdb
     RDKit          3D

 25 26  0  0  1  0  0  0  0  0999 V2000
   17.5384  -23.6758    3.7708 N   0  0  0  0  0  0  0  0  0  0  0  0
   17.1399  -24.9750    3.2803 C   0  0  0  0  0  0  0  0  0  0  0  0
   15.9128  -25.3912    4.0177 C   0  0  0  0  0  0  0  0  0  0  0  0
   15.8313  -24.4694    5.2115 C   0  0  0  0  0  0  0  0  0  0  0  0
   16.5827  -23.2507    4.7370 C   0  0  1  0  0  0  0  0  0  0  0  0
   17.1924  -22.4894    5.8468 C   0  0  0  0  0  0  0  0  0  0  0  0
   16.4336  -22.0554    6.7537 O   0  0  0  0  0  0  0  0  0  0  0  0
   21.2834  -20.7314    7.9803 C   0  0  0  0  0  0  0  0  0  0  0  0
   20.7345  -21.6010    6.8721 C   0  0  1  0  0  0  0  0  0  0  0  0
   21.2148  -22.8751    7.0315 O   0  0  0  0  0  0  0  0  0  0  0  0
   19.2226  -21.5219    6.9322 C   0  0  2  0  0  0  0  0  0  0  0  0
   18.5968  -22.2662    5.8683 N   0  0  0  0  0  0  0  0  0  0  0  0
   18.9029  -20.0697    6.6938 C   0  0  0  0  0  0  0  0  0  0  0  0
   18.8367  -19.6416    5.5126 O   0  0  0  0  0  0  0  0  0  0  0  0
   18.6726  -19.1624    7.7598 N   0  0  0  0  0  0  0  0  0  0  0  0
   18.0250  -17.9001    7.4747 C   0  0  1  0  0  0  0  0  0  0  0  0
   16.6520  -18.1025    6.8633 C   0  0  0  0  0  0  0  0  0  0  0  0
   16.7426  -18.1034    5.3795 C   0  0  0  0  0  0  0  0  0  0  0  0
   17.8413  -18.0475    4.5594 C   0  0  0  0  0  0  0  0  0  0  0  0
   17.4124  -18.0755    3.2897 N   0  0  0  0  0  0  0  0  0  0  0  0
   16.0620  -18.1482    3.3005 C   0  0  0  0  0  0  0  0  0  0  0  0
   15.6417  -18.1658    4.5758 N   0  0  0  0  0  0  0  0  0  0  0  0
   17.8996  -17.1008    8.7195 C   0  0  0  0  0  0  0  0  0  0  0  0
   17.8315  -17.7488    9.9332 O   0  0  0  0  0  0  0  0  0  0  0  0
   17.8547  -15.8329    8.6762 O   0  0  0  0  0  0  0  0  0  0  0  0
  1  5  1  0
  1  2  1  0
  2  3  1  0
  4  3  1  0
  5  6  1  1
  5  4  1  0
  6  7  2  0
  9  8  1  1
  9 10  1  0
 11  9  1  0
 12  6  1  0
 11 12  1  6
 13 14  2  0
 13 11  1  0
 15 13  1  0
 16 17  1  1
 16 15  1  0
 17 18  1  0
 18 22  1  0
 18 19  2  0
 19 20  1  0
 21 20  1  0
 22 21  2  0
 23 24  1  0
 23 16  1  0
 25 23  2  0
M  END
$$$$
