PTH.pdb
     RDKit          3D

 25 26  0  0  1  0  0  0  0  0999 V2000
   26.6123  -13.1306  -16.6574 N   0  0  0  0  0  0  0  0  0  0  0  0
   27.5770  -14.1749  -16.9146 C   0  0  0  0  0  0  0  0  0  0  0  0
   28.9187  -13.6788  -16.4943 C   0  0  0  0  0  0  0  0  0  0  0  0
   28.7627  -12.1843  -16.3409 C   0  0  0  0  0  0  0  0  0  0  0  0
   27.2904  -12.0362  -16.0489 C   0  0  1  0  0  0  0  0  0  0  0  0
   26.7546  -10.7258  -16.4720 C   0  0  0  0  0  0  0  0  0  0  0  0
   27.3092   -9.6874  -16.0242 O   0  0  0  0  0  0  0  0  0  0  0  0
   24.2594   -8.0242  -19.6276 C   0  0  0  0  0  0  0  0  0  0  0  0
   24.7857   -9.3972  -19.2763 C   0  0  1  0  0  0  0  0  0  0  0  0
   25.8780   -9.6653  -20.0601 O   0  0  0  0  0  0  0  0  0  0  0  0
   25.0996   -9.4034  -17.7940 C   0  0  2  0  0  0  0  0  0  0  0  0
   25.6449  -10.6648  -17.3593 N   0  0  0  0  0  0  0  0  0  0  0  0
   23.7634   -9.2503  -17.1166 C   0  0  0  0  0  0  0  0  0  0  0  0
   23.0513  -10.2699  -16.9261 O   0  0  0  0  0  0  0  0  0  0  0  0
   23.2764   -7.9903  -16.6832 N   0  0  0  0  0  0  0  0  0  0  0  0
   22.0775   -7.9458  -15.8739 C   0  0  1  0  0  0  0  0  0  0  0  0
   22.2442   -8.7287  -14.5858 C   0  0  0  0  0  0  0  0  0  0  0  0
   20.9834   -8.7022  -13.7988 C   0  0  0  0  0  0  0  0  0  0  0  0
   19.7611   -8.1574  -14.1026 C   0  0  0  0  0  0  0  0  0  0  0  0
   18.9359   -8.3908  -13.0724 N   0  0  0  0  0  0  0  0  0  0  0  0
   19.6212   -9.0733  -12.1272 C   0  0  0  0  0  0  0  0  0  0  0  0
   20.8764   -9.2692  -12.5623 N   0  0  0  0  0  0  0  0  0  0  0  0
   21.7311   -6.5375  -15.5560 C   0  0  0  0  0  0  0  0  0  0  0  0
   20.5374   -6.2623  -14.9259 O   0  0  0  0  0  0  0  0  0  0  0  0
   22.5201   -5.5900  -15.8578 O   0  0  0  0  0  0  0  0  0  0  0  0
  1  5  1  0
  1  2  1  0
  2  3  1  0
  4  3  1  0
  5  6  1  6
  5  4  1  0
  6  7  2  0
  9  8  1  6
  9 10  1  0
 11  9  1  0
 12  6  1  0
 11 12  1  1
 13 14  2  0
 13 11  1  0
 15 13  1  0
 16 17  1  1
 16 15  1  0
 17 18  1  0
 18 22  1  0
 18 19  2  0
 19 20  1  0
 21 20  1  0
 22 21  2  0
 23 24  1  0
 23 16  1  0
 25 23  2  0
M  END
$$$$
