PTH.pdb
     RDKit          3D

 25 26  0  0  1  0  0  0  0  0999 V2000
   45.2346  -13.1280   -8.8229 N   0  0  0  0  0  0  0  0  0  0  0  0
   46.4713  -13.8680   -8.9256 C   0  0  0  0  0  0  0  0  0  0  0  0
   46.6633  -14.6260   -7.6562 C   0  0  0  0  0  0  0  0  0  0  0  0
   45.6991  -14.0081   -6.6713 C   0  0  0  0  0  0  0  0  0  0  0  0
   44.6310  -13.4382   -7.5711 C   0  0  1  0  0  0  0  0  0  0  0  0
   43.9369  -12.2810   -6.9693 C   0  0  0  0  0  0  0  0  0  0  0  0
   43.3785  -12.4417   -5.8518 O   0  0  0  0  0  0  0  0  0  0  0  0
   45.2720   -9.0815   -5.9791 C   0  0  0  0  0  0  0  0  0  0  0  0
   44.1804   -8.6965   -6.9515 C   0  0  1  0  0  0  0  0  0  0  0  0
   44.7573   -8.3219   -8.1374 O   0  0  0  0  0  0  0  0  0  0  0  0
   43.2491   -9.8836   -7.0903 C   0  0  2  0  0  0  0  0  0  0  0  0
   43.9138  -11.0331   -7.6509 N   0  0  0  0  0  0  0  0  0  0  0  0
   42.2149   -9.4466   -8.0939 C   0  0  0  0  0  0  0  0  0  0  0  0
   42.2715   -9.8943   -9.2684 O   0  0  0  0  0  0  0  0  0  0  0  0
   41.1734   -8.5430   -7.7602 N   0  0  0  0  0  0  0  0  0  0  0  0
   40.2272   -8.1586   -8.7856 C   0  0  1  0  0  0  0  0  0  0  0  0
   39.4212   -9.3464   -9.2749 C   0  0  0  0  0  0  0  0  0  0  0  0
   38.7078   -9.9890   -8.1401 C   0  0  0  0  0  0  0  0  0  0  0  0
   38.6911   -9.6644   -6.8069 C   0  0  0  0  0  0  0  0  0  0  0  0
   37.8982  -10.5425   -6.1767 N   0  0  0  0  0  0  0  0  0  0  0  0
   37.4174  -11.4127   -7.0936 C   0  0  0  0  0  0  0  0  0  0  0  0
   37.9073  -11.0824   -8.2995 N   0  0  0  0  0  0  0  0  0  0  0  0
   39.3070   -7.1173   -8.2631 C   0  0  0  0  0  0  0  0  0  0  0  0
   38.3589   -6.5729   -9.1012 O   0  0  0  0  0  0  0  0  0  0  0  0
   39.3851   -6.7261   -7.0580 O   0  0  0  0  0  0  0  0  0  0  0  0
  1  5  1  0
  1  2  1  0
  2  3  1  0
  4  3  1  0
  5  6  1  1
  5  4  1  0
  6  7  2  0
  9  8  1  1
  9 10  1  0
 11  9  1  0
 12  6  1  0
 11 12  1  6
 13 14  2  0
 13 11  1  0
 15 13  1  0
 16 17  1  1
 16 15  1  0
 17 18  1  0
 18 22  1  0
 18 19  2  0
 19 20  1  0
 21 20  1  0
 22 21  2  0
 23 24  1  0
 23 16  1  0
 25 23  2  0
M  END
$$$$
