TQC.pdb
     RDKit          3D

 23 22  0  0  1  0  0  0  0  0999 V2000
   19.2778  -17.6685  -15.7342 C   0  0  0  0  0  0  0  0  0  0  0  0
   20.4212  -18.5062  -15.2236 C   0  0  1  0  0  0  0  0  0  0  0  0
   19.9874  -18.9984  -13.9613 O   0  0  0  0  0  0  0  0  0  0  0  0
   20.6385  -19.7536  -16.0575 C   0  0  2  0  0  0  0  0  0  0  0  0
   19.4391  -20.5799  -15.7763 N   0  0  0  0  0  0  0  0  0  0  0  0
   21.7983  -20.5604  -15.6498 C   0  0  0  0  0  0  0  0  0  0  0  0
   21.6098  -21.5309  -14.8515 O   0  0  0  0  0  0  0  0  0  0  0  0
   25.3879  -23.8595  -17.4821 N   0  0  0  0  0  0  0  0  0  0  0  0
   26.4561  -23.4196  -16.6752 C   0  0  0  0  0  0  0  0  0  0  0  0
   27.3463  -24.2407  -16.3505 O   0  0  0  0  0  0  0  0  0  0  0  0
   26.5057  -22.0046  -16.2296 C   0  0  0  0  0  0  0  0  0  0  0  0
   25.2288  -21.3482  -16.6241 C   0  0  0  0  0  0  0  0  0  0  0  0
   24.2274  -21.1890  -15.4961 C   0  0  2  0  0  0  0  0  0  0  0  0
   23.1462  -20.3663  -16.0688 N   0  0  0  0  0  0  0  0  0  0  0  0
   24.8050  -20.5062  -14.3374 C   0  0  0  0  0  0  0  0  0  0  0  0
   24.9717  -19.2397  -14.3537 O   0  0  0  0  0  0  0  0  0  0  0  0
   25.2149  -21.1504  -13.1424 N   0  0  0  0  0  0  0  0  0  0  0  0
   25.9086  -20.4611  -12.0769 C   0  0  1  0  0  0  0  0  0  0  0  0
   25.7759  -21.2020  -10.7598 C   0  0  0  0  0  0  0  0  0  0  0  0
   26.7104  -20.3984   -9.4390 S   0  0  0  0  0  0  0  0  0  0  0  0
   27.3492  -20.2936  -12.3807 C   0  0  0  0  0  0  0  0  0  0  0  0
   28.0551  -19.1562  -12.0405 O   0  0  0  0  0  0  0  0  0  0  0  0
   27.9526  -21.2204  -12.9699 O   0  0  0  0  0  0  0  0  0  0  0  0
  2  1  1  6
  2  4  1  0
  2  3  1  0
  4  5  1  1
  6  7  2  0
  6  4  1  0
  8  9  1  0
  9 11  1  0
  9 10  2  0
 11 12  1  0
 13 12  1  6
 13 15  1  0
 13 14  1  0
 14  6  1  0
 15 17  1  0
 16 15  2  0
 17 18  1  0
 18 21  1  0
 19 20  1  0
 18 19  1  1
 21 23  2  0
 21 22  1  0
M  END
$$$$
