TQC.pdb
     RDKit          3D

 23 22  0  0  1  0  0  0  0  0999 V2000
   28.6513  -20.1794  -17.4517 C   0  0  0  0  0  0  0  0  0  0  0  0
   27.4678  -20.3152  -16.5296 C   0  0  1  0  0  0  0  0  0  0  0  0
   26.3408  -20.4490  -17.3875 O   0  0  0  0  0  0  0  0  0  0  0  0
   27.4960  -21.6112  -15.7433 C   0  0  2  0  0  0  0  0  0  0  0  0
   27.2753  -22.6548  -16.7742 N   0  0  0  0  0  0  0  0  0  0  0  0
   26.4012  -21.7546  -14.7722 C   0  0  0  0  0  0  0  0  0  0  0  0
   25.4086  -22.4847  -15.0827 O   0  0  0  0  0  0  0  0  0  0  0  0
   26.4059  -20.0658   -8.8752 N   0  0  0  0  0  0  0  0  0  0  0  0
   25.1203  -20.6418   -8.9033 C   0  0  0  0  0  0  0  0  0  0  0  0
   24.4863  -20.7578   -7.8278 O   0  0  0  0  0  0  0  0  0  0  0  0
   24.5470  -21.0960  -10.1950 C   0  0  0  0  0  0  0  0  0  0  0  0
   25.5823  -20.9196  -11.2505 C   0  0  0  0  0  0  0  0  0  0  0  0
   25.1362  -21.3201  -12.6437 C   0  0  2  0  0  0  0  0  0  0  0  0
   26.3352  -21.1484  -13.4844 N   0  0  0  0  0  0  0  0  0  0  0  0
   24.0572  -20.4670  -13.1444 C   0  0  0  0  0  0  0  0  0  0  0  0
   24.3199  -19.3139  -13.6275 O   0  0  0  0  0  0  0  0  0  0  0  0
   22.6835  -20.8190  -13.1436 N   0  0  0  0  0  0  0  0  0  0  0  0
   21.6623  -19.9985  -13.7566 C   0  0  1  0  0  0  0  0  0  0  0  0
   21.7722  -20.0162  -15.2695 C   0  0  0  0  0  0  0  0  0  0  0  0
   21.8904  -21.6991  -15.9156 S   0  0  0  0  0  0  0  0  0  0  0  0
   20.3013  -20.4449  -13.3773 C   0  0  0  0  0  0  0  0  0  0  0  0
   19.1589  -19.7927  -13.7985 O   0  0  0  0  0  0  0  0  0  0  0  0
   20.1803  -21.4545  -12.6451 O   0  0  0  0  0  0  0  0  0  0  0  0
  2  1  1  6
  2  4  1  0
  2  3  1  0
  4  5  1  6
  6  7  2  0
  6  4  1  0
  8  9  1  0
  9 11  1  0
  9 10  2  0
 11 12  1  0
 13 12  1  1
 13 15  1  0
 13 14  1  0
 14  6  1  0
 15 17  1  0
 16 15  2  0
 17 18  1  0
 18 21  1  0
 19 20  1  0
 18 19  1  6
 21 23  2  0
 21 22  1  0
M  END
$$$$
