TQC.pdb
     RDKit          3D

 23 22  0  0  1  0  0  0  0  0999 V2000
   19.3510  -11.9798  -14.2696 C   0  0  0  0  0  0  0  0  0  0  0  0
   19.0072  -12.5155  -15.6350 C   0  0  1  0  0  0  0  0  0  0  0  0
   18.5665  -13.8495  -15.4114 O   0  0  0  0  0  0  0  0  0  0  0  0
   17.8038  -11.8198  -16.2403 C   0  0  2  0  0  0  0  0  0  0  0  0
   17.6376  -12.4828  -17.5568 N   0  0  0  0  0  0  0  0  0  0  0  0
   18.0083  -10.3912  -16.5224 C   0  0  0  0  0  0  0  0  0  0  0  0
   18.7990  -10.0671  -17.4628 O   0  0  0  0  0  0  0  0  0  0  0  0
   14.6489   -6.2230  -17.9243 N   0  0  0  0  0  0  0  0  0  0  0  0
   15.4627   -5.2619  -17.2922 C   0  0  0  0  0  0  0  0  0  0  0  0
   15.2728   -4.0486  -17.5451 O   0  0  0  0  0  0  0  0  0  0  0  0
   16.5197   -5.7014  -16.3472 C   0  0  0  0  0  0  0  0  0  0  0  0
   16.4091   -7.1769  -16.1800 C   0  0  0  0  0  0  0  0  0  0  0  0
   17.7347   -7.9137  -16.1955 C   0  0  2  0  0  0  0  0  0  0  0  0
   17.3949   -9.3029  -15.8371 N   0  0  0  0  0  0  0  0  0  0  0  0
   18.6799   -7.3702  -15.2189 C   0  0  0  0  0  0  0  0  0  0  0  0
   18.5152   -7.5915  -13.9715 O   0  0  0  0  0  0  0  0  0  0  0  0
   19.8149   -6.5849  -15.5447 N   0  0  0  0  0  0  0  0  0  0  0  0
   20.7111   -6.0474  -14.5448 C   0  0  1  0  0  0  0  0  0  0  0  0
   22.1534   -6.4135  -14.8399 C   0  0  0  0  0  0  0  0  0  0  0  0
   23.3044   -5.5403  -13.7554 S   0  0  0  0  0  0  0  0  0  0  0  0
   20.6081   -4.5720  -14.4544 C   0  0  0  0  0  0  0  0  0  0  0  0
   20.8743   -3.8764  -13.2912 O   0  0  0  0  0  0  0  0  0  0  0  0
   20.2659   -3.9281  -15.4734 O   0  0  0  0  0  0  0  0  0  0  0  0
  2  1  1  1
  2  4  1  0
  2  3  1  0
  4  5  1  6
  6  7  2  0
  6  4  1  0
  8  9  1  0
  9 11  1  0
  9 10  2  0
 11 12  1  0
 13 12  1  1
 13 15  1  0
 13 14  1  0
 14  6  1  0
 15 17  1  0
 16 15  2  0
 17 18  1  0
 18 21  1  0
 19 20  1  0
 18 19  1  6
 21 23  2  0
 21 22  1  0
M  END
$$$$
