TQC.pdb
     RDKit          3D

 23 22  0  0  1  0  0  0  0  0999 V2000
   28.9015  -18.6177  -17.6465 C   0  0  0  0  0  0  0  0  0  0  0  0
   27.7331  -19.0450  -16.7970 C   0  0  1  0  0  0  0  0  0  0  0  0
   26.6673  -19.2651  -17.7133 O   0  0  0  0  0  0  0  0  0  0  0  0
   27.9559  -20.3977  -16.1496 C   0  0  2  0  0  0  0  0  0  0  0  0
   28.0387  -21.3306  -17.2999 N   0  0  0  0  0  0  0  0  0  0  0  0
   26.8343  -20.8650  -15.3212 C   0  0  0  0  0  0  0  0  0  0  0  0
   26.0223  -21.7053  -15.8204 O   0  0  0  0  0  0  0  0  0  0  0  0
   26.1639  -20.3514   -9.2676 N   0  0  0  0  0  0  0  0  0  0  0  0
   24.9524  -21.0212   -9.5305 C   0  0  0  0  0  0  0  0  0  0  0  0
   24.2609  -21.4213   -8.5642 O   0  0  0  0  0  0  0  0  0  0  0  0
   24.5227  -21.2380  -10.9347 C   0  0  0  0  0  0  0  0  0  0  0  0
   25.5934  -20.7244  -11.8329 C   0  0  0  0  0  0  0  0  0  0  0  0
   25.3246  -20.9245  -13.3121 C   0  0  2  0  0  0  0  0  0  0  0  0
   26.5563  -20.4676  -13.9815 N   0  0  0  0  0  0  0  0  0  0  0  0
   24.1868  -20.1307  -13.7788 C   0  0  0  0  0  0  0  0  0  0  0  0
   24.3775  -18.9926  -14.3269 O   0  0  0  0  0  0  0  0  0  0  0  0
   22.8291  -20.5269  -13.6746 N   0  0  0  0  0  0  0  0  0  0  0  0
   21.7696  -19.9084  -14.4404 C   0  0  1  0  0  0  0  0  0  0  0  0
   22.0310  -20.0120  -15.9312 C   0  0  0  0  0  0  0  0  0  0  0  0
   20.6742  -19.3188  -16.9018 S   0  0  0  0  0  0  0  0  0  0  0  0
   20.4533  -20.5229  -14.1487 C   0  0  0  0  0  0  0  0  0  0  0  0
   19.3021  -19.7770  -13.9877 O   0  0  0  0  0  0  0  0  0  0  0  0
   20.3801  -21.7694  -14.0434 O   0  0  0  0  0  0  0  0  0  0  0  0
  2  1  1  6
  2  4  1  0
  2  3  1  0
  4  5  1  6
  6  7  2  0
  6  4  1  0
  8  9  1  0
  9 11  1  0
  9 10  2  0
 11 12  1  0
 13 12  1  1
 13 15  1  0
 13 14  1  0
 14  6  1  0
 15 17  1  0
 16 15  2  0
 17 18  1  0
 18 21  1  0
 19 20  1  0
 18 19  1  6
 21 23  2  0
 21 22  1  0
M  END
$$$$
