TQC.pdb
     RDKit          3D

 23 22  0  0  1  0  0  0  0  0999 V2000
   24.9720  -12.0517  -15.3276 C   0  0  0  0  0  0  0  0  0  0  0  0
   24.7870  -12.6722  -16.6879 C   0  0  1  0  0  0  0  0  0  0  0  0
   25.3797  -13.9620  -16.5924 O   0  0  0  0  0  0  0  0  0  0  0  0
   23.3299  -12.9516  -17.0000 C   0  0  2  0  0  0  0  0  0  0  0  0
   23.3651  -13.5243  -18.3679 N   0  0  0  0  0  0  0  0  0  0  0  0
   22.4861  -11.7499  -17.0790 C   0  0  0  0  0  0  0  0  0  0  0  0
   22.7792  -10.8600  -17.9373 O   0  0  0  0  0  0  0  0  0  0  0  0
   16.6663  -11.2091  -15.5958 N   0  0  0  0  0  0  0  0  0  0  0  0
   16.8949   -9.8311  -15.7812 C   0  0  0  0  0  0  0  0  0  0  0  0
   15.9298   -9.0382  -15.6719 O   0  0  0  0  0  0  0  0  0  0  0  0
   18.2625   -9.3497  -16.0997 C   0  0  0  0  0  0  0  0  0  0  0  0
   19.1789  -10.5233  -16.1041 C   0  0  0  0  0  0  0  0  0  0  0  0
   20.6240  -10.1929  -16.4251 C   0  0  2  0  0  0  0  0  0  0  0  0
   21.3422  -11.4719  -16.2763 N   0  0  0  0  0  0  0  0  0  0  0  0
   21.1825   -9.2040  -15.5018 C   0  0  0  0  0  0  0  0  0  0  0  0
   21.6037   -9.5639  -14.3506 O   0  0  0  0  0  0  0  0  0  0  0  0
   21.3057   -7.8189  -15.7802 N   0  0  0  0  0  0  0  0  0  0  0  0
   21.8546   -6.8734  -14.8333 C   0  0  1  0  0  0  0  0  0  0  0  0
   22.9514   -6.0344  -15.4613 C   0  0  0  0  0  0  0  0  0  0  0  0
   23.5195   -4.7288  -14.3494 S   0  0  0  0  0  0  0  0  0  0  0  0
   20.8122   -5.9649  -14.3008 C   0  0  0  0  0  0  0  0  0  0  0  0
   19.5409   -5.8948  -14.8360 O   0  0  0  0  0  0  0  0  0  0  0  0
   21.0940   -5.2300  -13.3258 O   0  0  0  0  0  0  0  0  0  0  0  0
  2  1  1  1
  2  4  1  0
  2  3  1  0
  4  5  1  6
  6  7  2  0
  6  4  1  0
  8  9  1  0
  9 11  1  0
  9 10  2  0
 11 12  1  0
 13 12  1  1
 13 15  1  0
 13 14  1  0
 14  6  1  0
 15 17  1  0
 16 15  2  0
 17 18  1  0
 18 21  1  0
 19 20  1  0
 18 19  1  6
 21 23  2  0
 21 22  1  0
M  END
$$$$
