TQC.pdb
     RDKit          3D

 23 22  0  0  1  0  0  0  0  0999 V2000
   18.8251  -13.0660  -18.2411 C   0  0  0  0  0  0  0  0  0  0  0  0
   18.8957  -12.0270  -17.1524 C   0  0  1  0  0  0  0  0  0  0  0  0
   20.2637  -11.9872  -16.7639 O   0  0  0  0  0  0  0  0  0  0  0  0
   18.6125  -10.6304  -17.6700 C   0  0  2  0  0  0  0  0  0  0  0  0
   19.7381  -10.3627  -18.5984 N   0  0  0  0  0  0  0  0  0  0  0  0
   18.6689   -9.5804  -16.6421 C   0  0  0  0  0  0  0  0  0  0  0  0
   17.7768   -9.5708  -15.7372 O   0  0  0  0  0  0  0  0  0  0  0  0
   23.4318   -6.2624  -14.8672 N   0  0  0  0  0  0  0  0  0  0  0  0
   22.4581   -5.5304  -14.1590 C   0  0  0  0  0  0  0  0  0  0  0  0
   22.8328   -4.6224  -13.3797 O   0  0  0  0  0  0  0  0  0  0  0  0
   21.0201   -5.8464  -14.3480 C   0  0  0  0  0  0  0  0  0  0  0  0
   20.9155   -6.9769  -15.3114 C   0  0  0  0  0  0  0  0  0  0  0  0
   19.5033   -7.4801  -15.5412 C   0  0  2  0  0  0  0  0  0  0  0  0
   19.6456   -8.5472  -16.5486 N   0  0  0  0  0  0  0  0  0  0  0  0
   18.6205   -6.4318  -16.0553 C   0  0  0  0  0  0  0  0  0  0  0  0
   18.4536   -6.2909  -17.3140 O   0  0  0  0  0  0  0  0  0  0  0  0
   17.8991   -5.5161  -15.2477 N   0  0  0  0  0  0  0  0  0  0  0  0
   16.9896   -4.5338  -15.7951 C   0  0  1  0  0  0  0  0  0  0  0  0
   15.6459   -5.1514  -16.1334 C   0  0  0  0  0  0  0  0  0  0  0  0
   14.4198   -3.8979  -16.5679 S   0  0  0  0  0  0  0  0  0  0  0  0
   16.7687   -3.4095  -14.8556 C   0  0  0  0  0  0  0  0  0  0  0  0
   16.6789   -2.0961  -15.2735 O   0  0  0  0  0  0  0  0  0  0  0  0
   16.6588   -3.6587  -13.6325 O   0  0  0  0  0  0  0  0  0  0  0  0
  2  1  1  6
  2  4  1  0
  2  3  1  0
  4  5  1  6
  6  7  2  0
  6  4  1  0
  8  9  1  0
  9 11  1  0
  9 10  2  0
 11 12  1  0
 13 12  1  6
 13 15  1  0
 13 14  1  0
 14  6  1  0
 15 17  1  0
 16 15  2  0
 17 18  1  0
 18 21  1  0
 19 20  1  0
 18 19  1  1
 21 23  2  0
 21 22  1  0
M  END
$$$$
