TQC.pdb
     RDKit          3D

 23 22  0  0  1  0  0  0  0  0999 V2000
   16.4668  -13.9010  -11.8475 C   0  0  0  0  0  0  0  0  0  0  0  0
   16.7318  -12.4205  -11.9336 C   0  0  1  0  0  0  0  0  0  0  0  0
   16.8613  -12.1457  -13.3234 O   0  0  0  0  0  0  0  0  0  0  0  0
   15.5368  -11.5953  -11.4983 C   0  0  2  0  0  0  0  0  0  0  0  0
   14.5165  -11.8752  -12.5380 N   0  0  0  0  0  0  0  0  0  0  0  0
   15.7621  -10.1424  -11.5240 C   0  0  0  0  0  0  0  0  0  0  0  0
   15.3301   -9.4805  -12.5190 O   0  0  0  0  0  0  0  0  0  0  0  0
   14.9089   -6.2532   -7.3105 N   0  0  0  0  0  0  0  0  0  0  0  0
   15.5649   -5.3331   -8.1522 C   0  0  0  0  0  0  0  0  0  0  0  0
   15.5772   -4.1214   -7.8298 O   0  0  0  0  0  0  0  0  0  0  0  0
   16.2229   -5.8126   -9.3933 C   0  0  0  0  0  0  0  0  0  0  0  0
   16.0745   -7.2929   -9.4558 C   0  0  0  0  0  0  0  0  0  0  0  0
   16.6369   -7.9299  -10.7121 C   0  0  2  0  0  0  0  0  0  0  0  0
   16.4281   -9.3772  -10.5234 N   0  0  0  0  0  0  0  0  0  0  0  0
   18.0651   -7.6558  -10.8781 C   0  0  0  0  0  0  0  0  0  0  0  0
   18.9326   -8.3694  -10.2696 O   0  0  0  0  0  0  0  0  0  0  0  0
   18.5999   -6.6239  -11.6907 N   0  0  0  0  0  0  0  0  0  0  0  0
   20.0029   -6.5402  -12.0315 C   0  0  1  0  0  0  0  0  0  0  0  0
   20.4878   -7.8143  -12.6970 C   0  0  0  0  0  0  0  0  0  0  0  0
   22.2115   -7.6849  -13.2221 S   0  0  0  0  0  0  0  0  0  0  0  0
   20.2788   -5.4005  -12.9373 C   0  0  0  0  0  0  0  0  0  0  0  0
   21.5114   -4.7806  -13.0008 O   0  0  0  0  0  0  0  0  0  0  0  0
   19.3577   -4.9812  -13.6762 O   0  0  0  0  0  0  0  0  0  0  0  0
  2  1  1  6
  2  4  1  0
  2  3  1  0
  4  5  1  6
  6  7  2  0
  6  4  1  0
  8  9  1  0
  9 11  1  0
  9 10  2  0
 11 12  1  0
 13 12  1  1
 13 15  1  0
 13 14  1  0
 14  6  1  0
 15 17  1  0
 16 15  2  0
 17 18  1  0
 18 21  1  0
 19 20  1  0
 18 19  1  6
 21 23  2  0
 21 22  1  0
M  END
$$$$
