PHC.pdb
     RDKit          3D

 24 25  0  0  1  0  0  0  0  0999 V2000
   26.4112  -22.6566  -17.5068 N   0  0  0  0  0  0  0  0  0  0  0  0
   26.6325  -22.8916  -18.9069 C   0  0  0  0  0  0  0  0  0  0  0  0
   27.7942  -22.0315  -19.3317 C   0  0  0  0  0  0  0  0  0  0  0  0
   27.7904  -20.9668  -18.2260 C   0  0  0  0  0  0  0  0  0  0  0  0
   27.4317  -21.7751  -17.0282 C   0  0  1  0  0  0  0  0  0  0  0  0
   27.0028  -20.9703  -15.8636 C   0  0  0  0  0  0  0  0  0  0  0  0
   27.8081  -20.0962  -15.4481 O   0  0  0  0  0  0  0  0  0  0  0  0
   25.7745  -21.1176  -15.2034 N   0  0  0  0  0  0  0  0  0  0  0  0
   25.3052  -20.2424  -14.1511 C   0  0  1  0  0  0  0  0  0  0  0  0
   23.9241  -19.7286  -14.3970 C   0  0  0  0  0  0  0  0  0  0  0  0
   23.8354  -18.7415  -15.4729 C   0  0  0  0  0  0  0  0  0  0  0  0
   24.7975  -17.8026  -15.7667 C   0  0  0  0  0  0  0  0  0  0  0  0
   24.3488  -17.0810  -16.8206 N   0  0  0  0  0  0  0  0  0  0  0  0
   23.1523  -17.5385  -17.1848 C   0  0  0  0  0  0  0  0  0  0  0  0
   22.8512  -18.5470  -16.3588 N   0  0  0  0  0  0  0  0  0  0  0  0
   25.2707  -20.9733  -12.8334 C   0  0  0  0  0  0  0  0  0  0  0  0
   24.7655  -22.1265  -12.7342 O   0  0  0  0  0  0  0  0  0  0  0  0
   25.8061  -20.3893  -11.6558 N   0  0  0  0  0  0  0  0  0  0  0  0
   25.5009  -20.9021  -10.3176 C   0  0  1  0  0  0  0  0  0  0  0  0
   26.2316  -20.0260   -9.3300 C   0  0  0  0  0  0  0  0  0  0  0  0
   25.9977  -20.5424   -7.6324 S   0  0  0  0  0  0  0  0  0  0  0  0
   24.0412  -20.7696  -10.0382 C   0  0  0  0  0  0  0  0  0  0  0  0
   23.3070  -19.7331  -10.5768 O   0  0  0  0  0  0  0  0  0  0  0  0
   23.4417  -21.5907   -9.3104 O   0  0  0  0  0  0  0  0  0  0  0  0
  1  5  1  0
  1  2  1  0
  2  3  1  0
  4  3  1  0
  5  4  1  0
  5  6  1  1
  6  8  1  0
  7  6  2  0
  9  8  1  0
  9 10  1  6
 10 11  1  0
 11 15  1  0
 11 12  2  0
 12 13  1  0
 14 13  1  0
 15 14  2  0
 16  9  1  0
 17 16  2  0
 18 16  1  0
 19 22  1  0
 19 18  1  0
 19 20  1  1
 21 20  1  0
 22 23  1  0
 24 22  2  0
M  END
$$$$
