PHC.pdb
     RDKit          3D

 24 25  0  0  1  0  0  0  0  0999 V2000
   18.6039  -12.4627  -16.0511 N   0  0  0  0  0  0  0  0  0  0  0  0
   18.2151  -13.8057  -16.3824 C   0  0  0  0  0  0  0  0  0  0  0  0
   19.1833  -14.3142  -17.4186 C   0  0  0  0  0  0  0  0  0  0  0  0
   19.7319  -12.9949  -17.9796 C   0  0  0  0  0  0  0  0  0  0  0  0
   19.8117  -12.1541  -16.7535 C   0  0  1  0  0  0  0  0  0  0  0  0
   19.9723  -10.7084  -17.0226 C   0  0  0  0  0  0  0  0  0  0  0  0
   21.0249  -10.3532  -17.6152 O   0  0  0  0  0  0  0  0  0  0  0  0
   19.0402   -9.7240  -16.6646 N   0  0  0  0  0  0  0  0  0  0  0  0
   19.1577   -8.3250  -17.0149 C   0  0  1  0  0  0  0  0  0  0  0  0
   17.8867   -7.7533  -17.5531 C   0  0  0  0  0  0  0  0  0  0  0  0
   17.5190   -8.2535  -18.8776 C   0  0  0  0  0  0  0  0  0  0  0  0
   17.7083   -7.5758  -20.0601 C   0  0  0  0  0  0  0  0  0  0  0  0
   17.2418   -8.3645  -21.0565 N   0  0  0  0  0  0  0  0  0  0  0  0
   16.7746   -9.4970  -20.5341 C   0  0  0  0  0  0  0  0  0  0  0  0
   16.9485   -9.4177  -19.2100 N   0  0  0  0  0  0  0  0  0  0  0  0
   19.5257   -7.5072  -15.8036 C   0  0  0  0  0  0  0  0  0  0  0  0
   18.7943   -7.4913  -14.7741 O   0  0  0  0  0  0  0  0  0  0  0  0
   20.7096   -6.7248  -15.7780 N   0  0  0  0  0  0  0  0  0  0  0  0
   21.1270   -5.9725  -14.5920 C   0  0  1  0  0  0  0  0  0  0  0  0
   22.5795   -6.3004  -14.3478 C   0  0  0  0  0  0  0  0  0  0  0  0
   22.8402   -8.0081  -13.8795 S   0  0  0  0  0  0  0  0  0  0  0  0
   21.0379   -4.5068  -14.8568 C   0  0  0  0  0  0  0  0  0  0  0  0
   21.1180   -3.5934  -13.8259 O   0  0  0  0  0  0  0  0  0  0  0  0
   20.8886   -4.0639  -16.0165 O   0  0  0  0  0  0  0  0  0  0  0  0
  1  5  1  0
  1  2  1  0
  2  3  1  0
  4  3  1  0
  5  4  1  0
  5  6  1  6
  6  8  1  0
  7  6  2  0
  9  8  1  0
  9 10  1  1
 10 11  1  0
 11 15  1  0
 11 12  2  0
 12 13  1  0
 14 13  1  0
 15 14  2  0
 16  9  1  0
 17 16  2  0
 18 16  1  0
 19 22  1  0
 19 18  1  0
 19 20  1  6
 21 20  1  0
 22 23  1  0
 24 22  2  0
M  END
$$$$
