PHC.pdb
     RDKit          3D

 24 25  0  0  1  0  0  0  0  0999 V2000
   21.2204  -22.3506  -12.6948 N   0  0  0  0  0  0  0  0  0  0  0  0
   21.7505  -21.8271  -13.9235 C   0  0  0  0  0  0  0  0  0  0  0  0
   21.2199  -20.4262  -14.0842 C   0  0  0  0  0  0  0  0  0  0  0  0
   19.9862  -20.4736  -13.1723 C   0  0  0  0  0  0  0  0  0  0  0  0
   20.4738  -21.3166  -12.0461 C   0  0  1  0  0  0  0  0  0  0  0  0
   19.3993  -21.8381  -11.1734 C   0  0  0  0  0  0  0  0  0  0  0  0
   18.6379  -20.9896  -10.6391 O   0  0  0  0  0  0  0  0  0  0  0  0
   19.1790  -23.1972  -10.9081 N   0  0  0  0  0  0  0  0  0  0  0  0
   18.0782  -23.7049  -10.1180 C   0  0  1  0  0  0  0  0  0  0  0  0
   17.1639  -24.5911  -10.8993 C   0  0  0  0  0  0  0  0  0  0  0  0
   16.3589  -23.8887  -11.8986 C   0  0  0  0  0  0  0  0  0  0  0  0
   15.1460  -23.2859  -11.6563 C   0  0  0  0  0  0  0  0  0  0  0  0
   14.7217  -22.7486  -12.8241 N   0  0  0  0  0  0  0  0  0  0  0  0
   15.6239  -22.9970  -13.7718 C   0  0  0  0  0  0  0  0  0  0  0  0
   16.6136  -23.6901  -13.1974 N   0  0  0  0  0  0  0  0  0  0  0  0
   18.5925  -24.5208   -8.9599 C   0  0  0  0  0  0  0  0  0  0  0  0
   19.7060  -25.1141   -9.0167 O   0  0  0  0  0  0  0  0  0  0  0  0
   17.8416  -24.6510   -7.7626 N   0  0  0  0  0  0  0  0  0  0  0  0
   18.2961  -25.4715   -6.6369 C   0  0  1  0  0  0  0  0  0  0  0  0
   17.7735  -24.8247   -5.3777 C   0  0  0  0  0  0  0  0  0  0  0  0
   18.0511  -25.8191   -3.9156 S   0  0  0  0  0  0  0  0  0  0  0  0
   17.6964  -26.8351   -6.7213 C   0  0  0  0  0  0  0  0  0  0  0  0
   18.4013  -27.9470   -6.3085 O   0  0  0  0  0  0  0  0  0  0  0  0
   16.5415  -27.0107   -7.1668 O   0  0  0  0  0  0  0  0  0  0  0  0
  1  5  1  0
  1  2  1  0
  2  3  1  0
  4  3  1  0
  5  4  1  0
  5  6  1  6
  6  8  1  0
  7  6  2  0
  9  8  1  0
  9 10  1  6
 10 11  1  0
 11 15  1  0
 11 12  2  0
 12 13  1  0
 14 13  1  0
 15 14  2  0
 16  9  1  0
 17 16  2  0
 18 16  1  0
 19 22  1  0
 19 18  1  0
 19 20  1  1
 21 20  1  0
 22 23  1  0
 24 22  2  0
M  END
$$$$
