PHC.pdb
     RDKit          3D

 24 25  0  0  1  0  0  0  0  0999 V2000
   45.8474  -10.5828   -6.0745 N   0  0  0  0  0  0  0  0  0  0  0  0
   46.2721  -11.9185   -5.7585 C   0  0  0  0  0  0  0  0  0  0  0  0
   45.7571  -12.8258   -6.8454 C   0  0  0  0  0  0  0  0  0  0  0  0
   44.6121  -11.9781   -7.4168 C   0  0  0  0  0  0  0  0  0  0  0  0
   45.1847  -10.6058   -7.3425 C   0  0  1  0  0  0  0  0  0  0  0  0
   44.1851   -9.5259   -7.4936 C   0  0  0  0  0  0  0  0  0  0  0  0
   43.9146   -9.1609   -8.6679 O   0  0  0  0  0  0  0  0  0  0  0  0
   43.5301   -8.8930   -6.4275 N   0  0  0  0  0  0  0  0  0  0  0  0
   42.4889   -7.9007   -6.5850 C   0  0  1  0  0  0  0  0  0  0  0  0
   41.3583   -8.0895   -5.6268 C   0  0  0  0  0  0  0  0  0  0  0  0
   40.4339   -9.1616   -5.9955 C   0  0  0  0  0  0  0  0  0  0  0  0
   40.4998   -9.8994   -7.1551 C   0  0  0  0  0  0  0  0  0  0  0  0
   39.4774  -10.7863   -7.1278 N   0  0  0  0  0  0  0  0  0  0  0  0
   38.7879  -10.6228   -6.0002 C   0  0  0  0  0  0  0  0  0  0  0  0
   39.3785   -9.6331   -5.3208 N   0  0  0  0  0  0  0  0  0  0  0  0
   43.0378   -6.5177   -6.3453 C   0  0  0  0  0  0  0  0  0  0  0  0
   43.9143   -6.3022   -5.4620 O   0  0  0  0  0  0  0  0  0  0  0  0
   42.5875   -5.4071   -7.1058 N   0  0  0  0  0  0  0  0  0  0  0  0
   43.0810   -4.0469   -6.8753 C   0  0  1  0  0  0  0  0  0  0  0  0
   42.9478   -3.3002   -8.1798 C   0  0  0  0  0  0  0  0  0  0  0  0
   43.4010   -1.5740   -8.0452 S   0  0  0  0  0  0  0  0  0  0  0  0
   42.2212   -3.3525   -5.8728 C   0  0  0  0  0  0  0  0  0  0  0  0
   40.8575   -3.5595   -5.8430 O   0  0  0  0  0  0  0  0  0  0  0  0
   42.7088   -2.5651   -5.0329 O   0  0  0  0  0  0  0  0  0  0  0  0
  1  5  1  0
  1  2  1  0
  2  3  1  0
  4  3  1  0
  5  4  1  0
  5  6  1  1
  6  8  1  0
  7  6  2  0
  9  8  1  0
  9 10  1  1
 10 11  1  0
 11 15  1  0
 11 12  2  0
 12 13  1  0
 14 13  1  0
 15 14  2  0
 16  9  1  0
 17 16  2  0
 18 16  1  0
 19 22  1  0
 19 18  1  0
 19 20  1  6
 21 20  1  0
 22 23  1  0
 24 22  2  0
M  END
$$$$
