PHC.pdb
     RDKit          3D

 24 25  0  0  1  0  0  0  0  0999 V2000
   28.7684  -35.9115   -4.6696 N   0  0  0  0  0  0  0  0  0  0  0  0
   29.1983  -36.1968   -6.0106 C   0  0  0  0  0  0  0  0  0  0  0  0
   29.8679  -34.9572   -6.5442 C   0  0  0  0  0  0  0  0  0  0  0  0
   29.2757  -33.8836   -5.6208 C   0  0  0  0  0  0  0  0  0  0  0  0
   29.2220  -34.6010   -4.3172 C   0  0  1  0  0  0  0  0  0  0  0  0
   28.3681  -33.9456   -3.3026 C   0  0  0  0  0  0  0  0  0  0  0  0
   28.6740  -32.7689   -2.9754 O   0  0  0  0  0  0  0  0  0  0  0  0
   27.2566  -34.5435   -2.6916 N   0  0  0  0  0  0  0  0  0  0  0  0
   26.3752  -33.8677   -1.7642 C   0  0  1  0  0  0  0  0  0  0  0  0
   24.9484  -34.2853   -1.9114 C   0  0  0  0  0  0  0  0  0  0  0  0
   24.2735  -33.7108   -3.0752 C   0  0  0  0  0  0  0  0  0  0  0  0
   24.8646  -32.8883   -4.0066 C   0  0  0  0  0  0  0  0  0  0  0  0
   23.9191  -32.5697   -4.9215 N   0  0  0  0  0  0  0  0  0  0  0  0
   22.7736  -33.1625   -4.5897 C   0  0  0  0  0  0  0  0  0  0  0  0
   23.0016  -33.8527   -3.4665 N   0  0  0  0  0  0  0  0  0  0  0  0
   26.7739  -34.1696   -0.3425 C   0  0  0  0  0  0  0  0  0  0  0  0
   27.2308  -35.3002   -0.0137 O   0  0  0  0  0  0  0  0  0  0  0  0
   26.6494  -33.1915    0.6784 N   0  0  0  0  0  0  0  0  0  0  0  0
   27.0248  -33.4576    2.0695 C   0  0  1  0  0  0  0  0  0  0  0  0
   28.1247  -32.4878    2.4250 C   0  0  0  0  0  0  0  0  0  0  0  0
   29.5228  -33.2774    3.2158 S   0  0  0  0  0  0  0  0  0  0  0  0
   25.8719  -33.1774    2.9743 C   0  0  0  0  0  0  0  0  0  0  0  0
   25.8284  -33.6995    4.2506 O   0  0  0  0  0  0  0  0  0  0  0  0
   24.9142  -32.4638    2.6046 O   0  0  0  0  0  0  0  0  0  0  0  0
  1  5  1  0
  1  2  1  0
  2  3  1  0
  4  3  1  0
  5  4  1  0
  5  6  1  1
  6  8  1  0
  7  6  2  0
  9  8  1  0
  9 10  1  1
 10 11  1  0
 11 15  1  0
 11 12  2  0
 12 13  1  0
 14 13  1  0
 15 14  2  0
 16  9  1  0
 17 16  2  0
 18 16  1  0
 19 22  1  0
 19 18  1  0
 19 20  1  1
 21 20  1  0
 22 23  1  0
 24 22  2  0
M  END
$$$$
