PHC.pdb
     RDKit          3D

 24 25  0  0  1  0  0  0  0  0999 V2000
   24.1973  -12.3425  -15.6680 N   0  0  0  0  0  0  0  0  0  0  0  0
   24.5909  -13.7239  -15.7012 C   0  0  0  0  0  0  0  0  0  0  0  0
   24.0171  -14.3275  -16.9566 C   0  0  0  0  0  0  0  0  0  0  0  0
   22.8817  -13.3413  -17.2636 C   0  0  0  0  0  0  0  0  0  0  0  0
   23.4971  -12.0413  -16.8789 C   0  0  1  0  0  0  0  0  0  0  0  0
   22.5263  -10.9356  -16.7273 C   0  0  0  0  0  0  0  0  0  0  0  0
   21.9512  -10.5355  -17.7735 O   0  0  0  0  0  0  0  0  0  0  0  0
   22.2112  -10.3146  -15.5103 N   0  0  0  0  0  0  0  0  0  0  0  0
   21.2473   -9.2449  -15.3671 C   0  0  1  0  0  0  0  0  0  0  0  0
   20.1870   -9.5508  -14.3601 C   0  0  0  0  0  0  0  0  0  0  0  0
   19.2062  -10.5405  -14.8055 C   0  0  0  0  0  0  0  0  0  0  0  0
   18.2581  -10.3318  -15.7808 C   0  0  0  0  0  0  0  0  0  0  0  0
   17.5469  -11.4770  -15.9039 N   0  0  0  0  0  0  0  0  0  0  0  0
   18.0193  -12.3785  -15.0450 C   0  0  0  0  0  0  0  0  0  0  0  0
   19.0269  -11.7979  -14.3836 N   0  0  0  0  0  0  0  0  0  0  0  0
   21.9279   -7.9790  -14.9134 C   0  0  0  0  0  0  0  0  0  0  0  0
   22.8023   -7.9928  -14.0022 O   0  0  0  0  0  0  0  0  0  0  0  0
   21.6088   -6.7247  -15.4959 N   0  0  0  0  0  0  0  0  0  0  0  0
   22.2520   -5.4776  -15.0738 C   0  0  1  0  0  0  0  0  0  0  0  0
   22.0604   -4.4804  -16.1898 C   0  0  0  0  0  0  0  0  0  0  0  0
   22.6347   -2.8392  -15.7655 S   0  0  0  0  0  0  0  0  0  0  0  0
   21.5689   -4.9321  -13.8646 C   0  0  0  0  0  0  0  0  0  0  0  0
   22.2858   -4.3019  -12.8684 O   0  0  0  0  0  0  0  0  0  0  0  0
   20.3310   -5.0294  -13.7182 O   0  0  0  0  0  0  0  0  0  0  0  0
  1  5  1  0
  1  2  1  0
  2  3  1  0
  4  3  1  0
  5  4  1  0
  5  6  1  1
  6  8  1  0
  7  6  2  0
  9  8  1  0
  9 10  1  1
 10 11  1  0
 11 15  1  0
 11 12  2  0
 12 13  1  0
 14 13  1  0
 15 14  2  0
 16  9  1  0
 17 16  2  0
 18 16  1  0
 19 22  1  0
 19 18  1  0
 19 20  1  6
 21 20  1  0
 22 23  1  0
 24 22  2  0
M  END
$$$$
