NVQ.pdb
     RDKit          3D

 25 24  0  0  1  0  0  0  0  0999 V2000
   12.4163  -12.7135  -13.0881 N   0  0  0  0  0  0  0  0  0  0  0  0
   12.4869  -12.3021  -11.7348 C   0  0  0  0  0  0  0  0  0  0  0  0
   11.4874  -12.4539  -10.9932 O   0  0  0  0  0  0  0  0  0  0  0  0
   13.7317  -11.7094  -11.2424 C   0  0  0  0  0  0  0  0  0  0  0  0
   14.7628  -11.5188  -12.3388 C   0  0  2  0  0  0  0  0  0  0  0  0
   15.4464  -12.7633  -12.6291 N   0  0  0  0  0  0  0  0  0  0  0  0
   15.7118  -10.4858  -11.8433 C   0  0  0  0  0  0  0  0  0  0  0  0
   16.3870  -10.7593  -10.8188 O   0  0  0  0  0  0  0  0  0  0  0  0
   18.6060   -9.0985  -13.6185 C   0  0  0  0  0  0  0  0  0  0  0  0
   17.7042   -7.9725  -13.2783 C   0  0  1  0  0  0  0  0  0  0  0  0
   16.8162   -7.5643  -14.4332 C   0  0  0  0  0  0  0  0  0  0  0  0
   16.8962   -8.2478  -12.0283 C   0  0  2  0  0  0  0  0  0  0  0  0
   15.8938   -9.2320  -12.4519 N   0  0  0  0  0  0  0  0  0  0  0  0
   16.2292   -7.0467  -11.4829 C   0  0  0  0  0  0  0  0  0  0  0  0
   15.1434   -6.5973  -11.9901 O   0  0  0  0  0  0  0  0  0  0  0  0
   14.3641   -5.5733   -6.4266 N   0  0  0  0  0  0  0  0  0  0  0  0
   14.5880   -4.1927   -6.7711 C   0  0  0  0  0  0  0  0  0  0  0  0
   13.9066   -3.3005   -6.2100 O   0  0  0  0  0  0  0  0  0  0  0  0
   15.6066   -3.8049   -7.7744 C   0  0  0  0  0  0  0  0  0  0  0  0
   16.2573   -5.0369   -8.3405 C   0  0  0  0  0  0  0  0  0  0  0  0
   15.9997   -5.1665   -9.8361 C   0  0  2  0  0  0  0  0  0  0  0  0
   16.7201   -6.3144  -10.3809 N   0  0  0  0  0  0  0  0  0  0  0  0
   16.4153   -3.9171  -10.5251 C   0  0  0  0  0  0  0  0  0  0  0  0
   17.5693   -3.7213  -10.9741 O   0  0  0  0  0  0  0  0  0  0  0  0
   15.4889   -2.8865  -10.6960 O   0  0  0  0  0  0  0  0  0  0  0  0
  2  4  1  0
  2  1  1  0
  3  2  2  0
  5  6  1  1
  5  7  1  0
  5  4  1  0
  7  8  2  0
 10  9  1  6
 10 12  1  0
 11 10  1  0
 12 14  1  0
 12 13  1  6
 13  7  1  0
 14 22  1  0
 14 15  2  0
 16 17  1  0
 17 18  2  0
 19 17  1  0
 19 20  1  0
 21 20  1  1
 21 23  1  0
 22 21  1  0
 23 24  2  0
 23 25  1  0
M  END
$$$$
