NVQ.pdb
     RDKit          3D

 25 24  0  0  1  0  0  0  0  0999 V2000
   29.0765  -20.0946  -17.0587 N   0  0  0  0  0  0  0  0  0  0  0  0
   27.7479  -19.6188  -17.1779 C   0  0  0  0  0  0  0  0  0  0  0  0
   27.4891  -18.7213  -18.0142 O   0  0  0  0  0  0  0  0  0  0  0  0
   26.7136  -20.1934  -16.3158 C   0  0  0  0  0  0  0  0  0  0  0  0
   27.2611  -21.2379  -15.3615 C   0  0  2  0  0  0  0  0  0  0  0  0
   27.6561  -22.4356  -16.0753 N   0  0  0  0  0  0  0  0  0  0  0  0
   26.1727  -21.5248  -14.3886 C   0  0  0  0  0  0  0  0  0  0  0  0
   25.2292  -22.2619  -14.7717 O   0  0  0  0  0  0  0  0  0  0  0  0
   24.5490  -20.8344   -9.7351 C   0  0  0  0  0  0  0  0  0  0  0  0
   25.5727  -20.7697  -10.8051 C   0  0  1  0  0  0  0  0  0  0  0  0
   26.8446  -21.5047  -10.4434 C   0  0  0  0  0  0  0  0  0  0  0  0
   25.0291  -21.2270  -12.1416 C   0  0  2  0  0  0  0  0  0  0  0  0
   26.1412  -21.0220  -13.0766 N   0  0  0  0  0  0  0  0  0  0  0  0
   23.8443  -20.4635  -12.5870 C   0  0  0  0  0  0  0  0  0  0  0  0
   23.8965  -19.1985  -12.7739 O   0  0  0  0  0  0  0  0  0  0  0  0
   20.9429  -20.6519  -17.5428 N   0  0  0  0  0  0  0  0  0  0  0  0
   20.0338  -19.7988  -16.8213 C   0  0  0  0  0  0  0  0  0  0  0  0
   19.0995  -19.2332  -17.4396 O   0  0  0  0  0  0  0  0  0  0  0  0
   20.1797  -19.5758  -15.3641 C   0  0  0  0  0  0  0  0  0  0  0  0
   21.3365  -20.3812  -14.8399 C   0  0  0  0  0  0  0  0  0  0  0  0
   21.4534  -20.2690  -13.3254 C   0  0  2  0  0  0  0  0  0  0  0  0
   22.5872  -21.0523  -12.8412 N   0  0  0  0  0  0  0  0  0  0  0  0
   20.1922  -20.7331  -12.6909 C   0  0  0  0  0  0  0  0  0  0  0  0
   20.0045  -21.9071  -12.2934 O   0  0  0  0  0  0  0  0  0  0  0  0
   19.1402  -19.8320  -12.5150 O   0  0  0  0  0  0  0  0  0  0  0  0
  2  4  1  0
  2  1  1  0
  3  2  2  0
  5  6  1  6
  5  7  1  0
  5  4  1  0
  7  8  2  0
 10  9  1  1
 10 12  1  0
 11 10  1  0
 12 14  1  0
 12 13  1  6
 13  7  1  0
 14 22  1  0
 14 15  2  0
 16 17  1  0
 17 18  2  0
 19 17  1  0
 19 20  1  0
 21 20  1  6
 21 23  1  0
 22 21  1  0
 23 24  2  0
 23 25  1  0
M  END
$$$$
