NVQ.pdb
     RDKit          3D

 25 24  0  0  1  0  0  0  0  0999 V2000
   21.2931  -28.0511  -16.8860 N   0  0  0  0  0  0  0  0  0  0  0  0
   21.3583  -28.6336  -15.5967 C   0  0  0  0  0  0  0  0  0  0  0  0
   21.5601  -29.8663  -15.4886 O   0  0  0  0  0  0  0  0  0  0  0  0
   21.1870  -27.7729  -14.4250 C   0  0  0  0  0  0  0  0  0  0  0  0
   21.0520  -26.3068  -14.7907 C   0  0  2  0  0  0  0  0  0  0  0  0
   22.3107  -25.7751  -15.2736 N   0  0  0  0  0  0  0  0  0  0  0  0
   20.6110  -25.6076  -13.5538 C   0  0  0  0  0  0  0  0  0  0  0  0
   21.4777  -25.3845  -12.6710 O   0  0  0  0  0  0  0  0  0  0  0  0
   17.2947  -22.4943  -11.7706 C   0  0  0  0  0  0  0  0  0  0  0  0
   18.0683  -23.2448  -12.7881 C   0  0  1  0  0  0  0  0  0  0  0  0
   18.9298  -22.3465  -13.6482 C   0  0  0  0  0  0  0  0  0  0  0  0
   18.8776  -24.3671  -12.1746 C   0  0  2  0  0  0  0  0  0  0  0  0
   19.2908  -25.1864  -13.3196 N   0  0  0  0  0  0  0  0  0  0  0  0
   18.1109  -25.1879  -11.2137 C   0  0  0  0  0  0  0  0  0  0  0  0
   17.1231  -25.9092  -11.5905 O   0  0  0  0  0  0  0  0  0  0  0  0
   18.7535  -25.4138   -4.8503 N   0  0  0  0  0  0  0  0  0  0  0  0
   17.6806  -26.3368   -5.1180 C   0  0  0  0  0  0  0  0  0  0  0  0
   17.1009  -26.9011   -4.1586 O   0  0  0  0  0  0  0  0  0  0  0  0
   17.2479  -26.6334   -6.5034 C   0  0  0  0  0  0  0  0  0  0  0  0
   18.0526  -25.8136   -7.4738 C   0  0  0  0  0  0  0  0  0  0  0  0
   17.5732  -26.0145   -8.9056 C   0  0  2  0  0  0  0  0  0  0  0  0
   18.3994  -25.2464   -9.8335 N   0  0  0  0  0  0  0  0  0  0  0  0
   16.1487  -25.6062   -9.0177 C   0  0  0  0  0  0  0  0  0  0  0  0
   15.7716  -24.4138   -9.1046 O   0  0  0  0  0  0  0  0  0  0  0  0
   15.1529  -26.5849   -9.0294 O   0  0  0  0  0  0  0  0  0  0  0  0
  2  4  1  0
  2  1  1  0
  3  2  2  0
  5  6  1  1
  5  7  1  0
  5  4  1  0
  7  8  2  0
 10  9  1  1
 10 12  1  0
 11 10  1  0
 12 14  1  0
 12 13  1  6
 13  7  1  0
 14 22  1  0
 14 15  2  0
 16 17  1  0
 17 18  2  0
 19 17  1  0
 19 20  1  0
 21 20  1  1
 21 23  1  0
 22 21  1  0
 23 24  2  0
 23 25  1  0
M  END
$$$$
