NVQ.pdb
     RDKit          3D

 25 24  0  0  1  0  0  0  0  0999 V2000
   25.7747  -24.0138  -13.9883 N   0  0  0  0  0  0  0  0  0  0  0  0
   24.4758  -23.7425  -13.4933 C   0  0  0  0  0  0  0  0  0  0  0  0
   23.5447  -24.5457  -13.7378 O   0  0  0  0  0  0  0  0  0  0  0  0
   24.2609  -22.5261  -12.7077 C   0  0  0  0  0  0  0  0  0  0  0  0
   25.5430  -21.7523  -12.4647 C   0  0  2  0  0  0  0  0  0  0  0  0
   25.8304  -21.6578  -11.0474 N   0  0  0  0  0  0  0  0  0  0  0  0
   25.3371  -20.4061  -13.0635 C   0  0  0  0  0  0  0  0  0  0  0  0
   24.4156  -19.6936  -12.5908 O   0  0  0  0  0  0  0  0  0  0  0  0
   27.6907  -19.2306  -16.3095 C   0  0  0  0  0  0  0  0  0  0  0  0
   27.3024  -18.2303  -15.2870 C   0  0  1  0  0  0  0  0  0  0  0  0
   27.3609  -16.8102  -15.8057 C   0  0  0  0  0  0  0  0  0  0  0  0
   25.9554  -18.5400  -14.6701 C   0  0  2  0  0  0  0  0  0  0  0  0
   26.1091  -19.8912  -14.1192 N   0  0  0  0  0  0  0  0  0  0  0  0
   24.8427  -18.5121  -15.6428 C   0  0  0  0  0  0  0  0  0  0  0  0
   24.6351  -19.4849  -16.4482 O   0  0  0  0  0  0  0  0  0  0  0  0
   19.0995  -17.0554  -14.5582 N   0  0  0  0  0  0  0  0  0  0  0  0
   19.0515  -17.2470  -15.9850 C   0  0  0  0  0  0  0  0  0  0  0  0
   17.9401  -17.2506  -16.5680 O   0  0  0  0  0  0  0  0  0  0  0  0
   20.2879  -17.4398  -16.7780 C   0  0  0  0  0  0  0  0  0  0  0  0
   21.4872  -17.3765  -15.8730 C   0  0  0  0  0  0  0  0  0  0  0  0
   22.7863  -17.4937  -16.6596 C   0  0  2  0  0  0  0  0  0  0  0  0
   23.9353  -17.4376  -15.7595 N   0  0  0  0  0  0  0  0  0  0  0  0
   22.8611  -16.4035  -17.6666 C   0  0  0  0  0  0  0  0  0  0  0  0
   22.4708  -16.5233  -18.8519 O   0  0  0  0  0  0  0  0  0  0  0  0
   23.3915  -15.1650  -17.2996 O   0  0  0  0  0  0  0  0  0  0  0  0
  2  4  1  0
  2  1  1  0
  3  2  2  0
  5  6  1  1
  5  7  1  0
  5  4  1  0
  7  8  2  0
 10  9  1  6
 10 12  1  0
 11 10  1  0
 12 14  1  0
 12 13  1  6
 13  7  1  0
 14 22  1  0
 14 15  2  0
 16 17  1  0
 17 18  2  0
 19 17  1  0
 19 20  1  0
 21 20  1  1
 21 23  1  0
 22 21  1  0
 23 24  2  0
 23 25  1  0
M  END
$$$$
