NVQ.pdb
     RDKit          3D

 25 24  0  0  1  0  0  0  0  0999 V2000
   15.3709  -12.7184  -17.3342 N   0  0  0  0  0  0  0  0  0  0  0  0
   14.8925  -11.7740  -16.3934 C   0  0  0  0  0  0  0  0  0  0  0  0
   13.6623  -11.5415  -16.3271 O   0  0  0  0  0  0  0  0  0  0  0  0
   15.8553  -11.0958  -15.5238 C   0  0  0  0  0  0  0  0  0  0  0  0
   17.2704  -11.6123  -15.7028 C   0  0  2  0  0  0  0  0  0  0  0  0
   17.3945  -12.9673  -15.2041 N   0  0  0  0  0  0  0  0  0  0  0  0
   18.1527  -10.6790  -14.9517 C   0  0  0  0  0  0  0  0  0  0  0  0
   18.2783  -10.8654  -13.7149 O   0  0  0  0  0  0  0  0  0  0  0  0
   21.9083   -7.5759  -15.3470 C   0  0  0  0  0  0  0  0  0  0  0  0
   21.0266   -8.7248  -15.6625 C   0  0  1  0  0  0  0  0  0  0  0  0
   21.7460  -10.0534  -15.5839 C   0  0  0  0  0  0  0  0  0  0  0  0
   19.7685   -8.7251  -14.8210 C   0  0  2  0  0  0  0  0  0  0  0  0
   18.8474   -9.6100  -15.5432 N   0  0  0  0  0  0  0  0  0  0  0  0
   19.1658   -7.3845  -14.6639 C   0  0  0  0  0  0  0  0  0  0  0  0
   18.7818   -6.7020  -15.6762 O   0  0  0  0  0  0  0  0  0  0  0  0
   17.4908   -4.7737   -9.2213 N   0  0  0  0  0  0  0  0  0  0  0  0
   16.4324   -4.7626  -10.1982 C   0  0  0  0  0  0  0  0  0  0  0  0
   15.2441   -4.6322   -9.8161 O   0  0  0  0  0  0  0  0  0  0  0  0
   16.7185   -4.9021  -11.6450 C   0  0  0  0  0  0  0  0  0  0  0  0
   18.2017   -5.0252  -11.8602 C   0  0  0  0  0  0  0  0  0  0  0  0
   18.5285   -5.3714  -13.3071 C   0  0  2  0  0  0  0  0  0  0  0  0
   18.9645   -6.7614  -13.4138 N   0  0  0  0  0  0  0  0  0  0  0  0
   19.5831   -4.4554  -13.8144 C   0  0  0  0  0  0  0  0  0  0  0  0
   20.8109   -4.6529  -13.6562 O   0  0  0  0  0  0  0  0  0  0  0  0
   19.2143   -3.3023  -14.5101 O   0  0  0  0  0  0  0  0  0  0  0  0
  2  4  1  0
  2  1  1  0
  3  2  2  0
  5  6  1  1
  5  7  1  0
  5  4  1  0
  7  8  2  0
 10  9  1  1
 10 12  1  0
 11 10  1  0
 12 14  1  0
 12 13  1  6
 13  7  1  0
 14 22  1  0
 14 15  2  0
 16 17  1  0
 17 18  2  0
 19 17  1  0
 19 20  1  0
 21 20  1  1
 21 23  1  0
 22 21  1  0
 23 24  2  0
 23 25  1  0
M  END
$$$$
