NVQ.pdb
     RDKit          3D

 25 24  0  0  1  0  0  0  0  0999 V2000
   29.5321  -23.9137  -19.3019 N   0  0  0  0  0  0  0  0  0  0  0  0
   28.1334  -24.0529  -19.1286 C   0  0  0  0  0  0  0  0  0  0  0  0
   27.4881  -24.7932  -19.9081 O   0  0  0  0  0  0  0  0  0  0  0  0
   27.4822  -23.3240  -18.0388 C   0  0  0  0  0  0  0  0  0  0  0  0
   28.4536  -22.4760  -17.2396 C   0  0  2  0  0  0  0  0  0  0  0  0
   29.3554  -23.3085  -16.4689 N   0  0  0  0  0  0  0  0  0  0  0  0
   27.6243  -21.6159  -16.3531 C   0  0  0  0  0  0  0  0  0  0  0  0
   27.3586  -22.0503  -15.2038 O   0  0  0  0  0  0  0  0  0  0  0  0
   26.1608  -16.9710  -15.6022 C   0  0  0  0  0  0  0  0  0  0  0  0
   26.9490  -18.0618  -16.2231 C   0  0  1  0  0  0  0  0  0  0  0  0
   28.4365  -17.9161  -15.9880 C   0  0  0  0  0  0  0  0  0  0  0  0
   26.4537  -19.4303  -15.8072 C   0  0  2  0  0  0  0  0  0  0  0  0
   27.1260  -20.3558  -16.7260 N   0  0  0  0  0  0  0  0  0  0  0  0
   24.9874  -19.5830  -15.9159 C   0  0  0  0  0  0  0  0  0  0  0  0
   24.3985  -19.5851  -17.0521 O   0  0  0  0  0  0  0  0  0  0  0  0
   20.7654  -20.7327  -11.2500 N   0  0  0  0  0  0  0  0  0  0  0  0
   19.9386  -20.5028  -12.4069 C   0  0  0  0  0  0  0  0  0  0  0  0
   18.6905  -20.5720  -12.2944 O   0  0  0  0  0  0  0  0  0  0  0  0
   20.5320  -20.1862  -13.7268 C   0  0  0  0  0  0  0  0  0  0  0  0
   22.0321  -20.1791  -13.6211 C   0  0  0  0  0  0  0  0  0  0  0  0
   22.6829  -19.8073  -14.9471 C   0  0  2  0  0  0  0  0  0  0  0  0
   24.1348  -19.7394  -14.8022 N   0  0  0  0  0  0  0  0  0  0  0  0
   22.1462  -18.5045  -15.4194 C   0  0  0  0  0  0  0  0  0  0  0  0
   22.6072  -17.3933  -15.0670 O   0  0  0  0  0  0  0  0  0  0  0  0
   21.0678  -18.4871  -16.3063 O   0  0  0  0  0  0  0  0  0  0  0  0
  2  4  1  0
  2  1  1  0
  3  2  2  0
  5  6  1  1
  5  7  1  0
  5  4  1  0
  7  8  2  0
 10  9  1  1
 10 12  1  0
 11 10  1  0
 12 14  1  0
 12 13  1  6
 13  7  1  0
 14 22  1  0
 14 15  2  0
 16 17  1  0
 17 18  2  0
 19 17  1  0
 19 20  1  0
 21 20  1  1
 21 23  1  0
 22 21  1  0
 23 24  2  0
 23 25  1  0
M  END
$$$$
