EFF.pdb
     RDKit          3D

 32 33  0  0  1  0  0  0  0  0999 V2000
   12.9151   -9.7487  -15.1606 N   0  0  0  0  0  0  0  0  0  0  0  0
   14.1834  -10.1253  -14.6717 C   0  0  1  0  0  0  0  0  0  0  0  0
   15.2554  -10.0257  -15.6994 C   0  0  0  0  0  0  0  0  0  0  0  0
   14.9362   -9.1164  -16.8250 C   0  0  0  0  0  0  0  0  0  0  0  0
   16.0805   -8.4820  -17.4722 C   0  0  0  0  0  0  0  0  0  0  0  0
   16.3405   -7.2600  -17.4614 O   0  0  0  0  0  0  0  0  0  0  0  0
   14.5790   -9.2517  -13.5037 C   0  0  0  0  0  0  0  0  0  0  0  0
   14.0996   -8.1104  -13.4750 O   0  0  0  0  0  0  0  0  0  0  0  0
   16.9994   -9.2957  -18.1866 O   0  0  0  0  0  0  0  0  0  0  0  0
   15.4430   -9.7527  -12.5343 N   0  0  0  0  0  0  0  0  0  0  0  0
   15.8894   -8.9743  -11.3624 C   0  0  1  0  0  0  0  0  0  0  0  0
   15.5346   -9.8059  -10.1744 C   0  0  0  0  0  0  0  0  0  0  0  0
   14.1165   -9.8398   -9.7864 C   0  0  0  0  0  0  0  0  0  0  0  0
   13.5188   -8.8914   -8.9922 C   0  0  0  0  0  0  0  0  0  0  0  0
   12.1803   -8.9551   -8.6402 C   0  0  0  0  0  0  0  0  0  0  0  0
   11.3797   -9.9824   -9.0747 C   0  0  0  0  0  0  0  0  0  0  0  0
   11.9656  -10.9427   -9.8732 C   0  0  0  0  0  0  0  0  0  0  0  0
   13.2961  -10.8832  -10.2257 C   0  0  0  0  0  0  0  0  0  0  0  0
   17.3226   -8.7200  -11.5117 C   0  0  0  0  0  0  0  0  0  0  0  0
   17.9224   -9.2963  -12.4969 O   0  0  0  0  0  0  0  0  0  0  0  0
   18.1245   -7.8842  -10.6716 N   0  0  0  0  0  0  0  0  0  0  0  0
   19.2947   -7.2774  -11.2188 C   0  0  1  0  0  0  0  0  0  0  0  0
   19.0012   -6.5444  -12.5196 C   0  0  0  0  0  0  0  0  0  0  0  0
   20.1553   -5.9410  -13.1592 C   0  0  0  0  0  0  0  0  0  0  0  0
   21.4110   -6.0322  -12.6034 C   0  0  0  0  0  0  0  0  0  0  0  0
   22.5176   -5.4422  -13.2310 C   0  0  0  0  0  0  0  0  0  0  0  0
   22.3508   -4.7619  -14.4185 C   0  0  0  0  0  0  0  0  0  0  0  0
   21.1122   -4.6669  -14.9754 C   0  0  0  0  0  0  0  0  0  0  0  0
   20.0381   -5.2542  -14.3417 C   0  0  0  0  0  0  0  0  0  0  0  0
   20.0286   -6.4292  -10.2711 C   0  0  0  0  0  0  0  0  0  0  0  0
   19.3557   -5.5995   -9.5791 O   0  0  0  0  0  0  0  0  0  0  0  0
   21.3779   -6.4731  -10.0849 O   0  0  0  0  0  0  0  0  0  0  0  0
  2  3  1  0
  2  1  1  6
  3  4  1  0
  5  4  1  0
  6  5  2  0
  7  2  1  0
  7  8  2  0
  9  5  1  0
 10  7  1  0
 11 19  1  0
 11 10  1  0
 11 12  1  1
 13 12  1  0
 13 14  2  0
 15 14  1  0
 16 15  2  0
 17 18  2  0
 17 16  1  0
 18 13  1  0
 19 21  1  0
 20 19  2  0
 21 22  1  0
 22 30  1  0
 22 23  1  6
 24 23  1  0
 24 29  1  0
 25 24  2  0
 26 25  1  0
 26 27  2  0
 27 28  1  0
 28 29  2  0
 30 31  2  0
 30 32  1  0
M  END
$$$$
