EFF.pdb
     RDKit          3D

 32 33  0  0  1  0  0  0  0  0999 V2000
   25.0977   -6.1773  -21.7324 N   0  0  0  0  0  0  0  0  0  0  0  0
   24.7561   -7.1820  -20.8032 C   0  0  1  0  0  0  0  0  0  0  0  0
   25.8262   -7.4339  -19.7998 C   0  0  0  0  0  0  0  0  0  0  0  0
   26.9815   -8.2006  -20.3223 C   0  0  0  0  0  0  0  0  0  0  0  0
   27.7250   -8.9786  -19.3360 C   0  0  0  0  0  0  0  0  0  0  0  0
   28.1981  -10.1213  -19.5134 O   0  0  0  0  0  0  0  0  0  0  0  0
   23.4993   -6.8026  -20.0546 C   0  0  0  0  0  0  0  0  0  0  0  0
   23.3487   -5.6018  -19.7927 O   0  0  0  0  0  0  0  0  0  0  0  0
   27.9482   -8.4179  -18.0505 O   0  0  0  0  0  0  0  0  0  0  0  0
   22.5873   -7.7923  -19.6996 N   0  0  0  0  0  0  0  0  0  0  0  0
   21.3408   -7.5210  -18.9573 C   0  0  1  0  0  0  0  0  0  0  0  0
   20.2644   -8.2212  -19.7188 C   0  0  0  0  0  0  0  0  0  0  0  0
   18.9023   -8.1414  -19.1701 C   0  0  0  0  0  0  0  0  0  0  0  0
   18.1608   -6.9855  -19.1310 C   0  0  0  0  0  0  0  0  0  0  0  0
   16.8811   -6.9427  -18.6020 C   0  0  0  0  0  0  0  0  0  0  0  0
   16.2877   -8.0682  -18.0860 C   0  0  0  0  0  0  0  0  0  0  0  0
   17.0198   -9.2369  -18.1182 C   0  0  0  0  0  0  0  0  0  0  0  0
   18.2926   -9.2840  -18.6433 C   0  0  0  0  0  0  0  0  0  0  0  0
   21.5195   -8.0038  -17.5877 C   0  0  0  0  0  0  0  0  0  0  0  0
   21.7497   -9.2631  -17.4337 O   0  0  0  0  0  0  0  0  0  0  0  0
   21.4713   -7.2094  -16.3986 N   0  0  0  0  0  0  0  0  0  0  0  0
   21.5294   -7.8624  -15.1309 C   0  0  1  0  0  0  0  0  0  0  0  0
   22.8658   -7.6421  -14.4372 C   0  0  0  0  0  0  0  0  0  0  0  0
   24.0109   -8.2278  -15.1085 C   0  0  0  0  0  0  0  0  0  0  0  0
   24.6783   -7.5536  -16.1055 C   0  0  0  0  0  0  0  0  0  0  0  0
   25.7824   -8.1324  -16.7478 C   0  0  0  0  0  0  0  0  0  0  0  0
   26.2080   -9.3911  -16.3799 C   0  0  0  0  0  0  0  0  0  0  0  0
   25.5537  -10.0651  -15.3945 C   0  0  0  0  0  0  0  0  0  0  0  0
   24.4707   -9.4775  -14.7762 C   0  0  0  0  0  0  0  0  0  0  0  0
   20.4001   -7.5525  -14.2451 C   0  0  0  0  0  0  0  0  0  0  0  0
   20.2499   -8.2736  -13.2070 O   0  0  0  0  0  0  0  0  0  0  0  0
   19.5064   -6.5466  -14.4611 O   0  0  0  0  0  0  0  0  0  0  0  0
  2  3  1  0
  2  1  1  6
  3  4  1  0
  5  4  1  0
  6  5  2  0
  7  2  1  0
  7  8  2  0
  9  5  1  0
 10  7  1  0
 11 19  1  0
 11 10  1  0
 11 12  1  6
 13 12  1  0
 13 14  2  0
 15 14  1  0
 16 15  2  0
 17 18  2  0
 17 16  1  0
 18 13  1  0
 19 21  1  0
 20 19  2  0
 21 22  1  0
 22 30  1  0
 22 23  1  1
 24 23  1  0
 24 29  1  0
 25 24  2  0
 26 25  1  0
 26 27  2  0
 27 28  1  0
 28 29  2  0
 30 31  2  0
 30 32  1  0
M  END
$$$$
