EFF.pdb
     RDKit          3D

 32 33  0  0  1  0  0  0  0  0999 V2000
   22.5410  -13.2311  -19.2691 N   0  0  0  0  0  0  0  0  0  0  0  0
   21.5750  -12.7920  -18.3397 C   0  0  1  0  0  0  0  0  0  0  0  0
   21.8741  -13.2184  -16.9454 C   0  0  0  0  0  0  0  0  0  0  0  0
   21.6761  -14.6656  -16.6963 C   0  0  0  0  0  0  0  0  0  0  0  0
   20.3117  -15.0734  -16.3756 C   0  0  0  0  0  0  0  0  0  0  0  0
   19.3768  -15.2025  -17.1943 O   0  0  0  0  0  0  0  0  0  0  0  0
   21.4785  -11.2840  -18.3523 C   0  0  0  0  0  0  0  0  0  0  0  0
   22.5366  -10.6599  -18.5079 O   0  0  0  0  0  0  0  0  0  0  0  0
   19.9827  -15.3555  -15.0233 O   0  0  0  0  0  0  0  0  0  0  0  0
   20.2373  -10.6748  -18.1924 N   0  0  0  0  0  0  0  0  0  0  0  0
   20.0466   -9.2114  -18.1689 C   0  0  1  0  0  0  0  0  0  0  0  0
   18.7699   -8.9652  -18.9025 C   0  0  0  0  0  0  0  0  0  0  0  0
   18.2645   -7.5842  -18.9122 C   0  0  0  0  0  0  0  0  0  0  0  0
   17.2847   -7.1231  -18.0667 C   0  0  0  0  0  0  0  0  0  0  0  0
   16.8266   -5.8162  -18.1049 C   0  0  0  0  0  0  0  0  0  0  0  0
   17.3376   -4.9103  -19.0012 C   0  0  0  0  0  0  0  0  0  0  0  0
   18.3223   -5.3583  -19.8570 C   0  0  0  0  0  0  0  0  0  0  0  0
   18.7809   -6.6570  -19.8224 C   0  0  0  0  0  0  0  0  0  0  0  0
   20.0281   -8.7833  -16.7699 C   0  0  0  0  0  0  0  0  0  0  0  0
   19.3801   -9.5242  -15.9369 O   0  0  0  0  0  0  0  0  0  0  0  0
   20.6685   -7.6218  -16.2330 N   0  0  0  0  0  0  0  0  0  0  0  0
   20.5266   -7.3380  -14.8415 C   0  0  1  0  0  0  0  0  0  0  0  0
   21.8705   -7.2930  -14.1292 C   0  0  0  0  0  0  0  0  0  0  0  0
   22.6734   -8.4948  -14.2547 C   0  0  0  0  0  0  0  0  0  0  0  0
   22.5208   -9.5517  -13.3866 C   0  0  0  0  0  0  0  0  0  0  0  0
   23.3052  -10.7067  -13.5178 C   0  0  0  0  0  0  0  0  0  0  0  0
   24.2415  -10.7892  -14.5264 C   0  0  0  0  0  0  0  0  0  0  0  0
   24.3990   -9.7484  -15.3898 C   0  0  0  0  0  0  0  0  0  0  0  0
   23.6175   -8.6224  -15.2427 C   0  0  0  0  0  0  0  0  0  0  0  0
   19.7186   -6.1464  -14.5525 C   0  0  0  0  0  0  0  0  0  0  0  0
   19.5332   -5.3160  -15.4993 O   0  0  0  0  0  0  0  0  0  0  0  0
   19.1562   -5.8734  -13.3416 O   0  0  0  0  0  0  0  0  0  0  0  0
  2  3  1  0
  2  1  1  6
  3  4  1  0
  5  4  1  0
  6  5  2  0
  7  2  1  0
  7  8  2  0
  9  5  1  0
 10  7  1  0
 11 19  1  0
 11 10  1  0
 11 12  1  1
 13 12  1  0
 13 14  2  0
 15 14  1  0
 16 15  2  0
 17 18  2  0
 17 16  1  0
 18 13  1  0
 19 21  1  0
 20 19  2  0
 21 22  1  0
 22 30  1  0
 22 23  1  6
 24 23  1  0
 24 29  1  0
 25 24  2  0
 26 25  1  0
 26 27  2  0
 27 28  1  0
 28 29  2  0
 30 31  2  0
 30 32  1  0
M  END
$$$$
