EFF.pdb
     RDKit          3D

 32 33  0  0  1  0  0  0  0  0999 V2000
   27.0118  -22.0894  -13.7162 N   0  0  0  0  0  0  0  0  0  0  0  0
   26.9120  -20.9184  -12.9361 C   0  0  1  0  0  0  0  0  0  0  0  0
   25.7770  -20.0450  -13.3416 C   0  0  0  0  0  0  0  0  0  0  0  0
   25.8697  -19.5323  -14.7288 C   0  0  0  0  0  0  0  0  0  0  0  0
   27.0274  -18.6916  -15.0184 C   0  0  0  0  0  0  0  0  0  0  0  0
   27.2584  -17.5699  -14.5189 O   0  0  0  0  0  0  0  0  0  0  0  0
   26.7276  -21.2703  -11.4781 C   0  0  0  0  0  0  0  0  0  0  0  0
   26.0638  -22.2858  -11.2303 O   0  0  0  0  0  0  0  0  0  0  0  0
   27.9963  -19.1586  -15.9456 O   0  0  0  0  0  0  0  0  0  0  0  0
   27.2962  -20.4597  -10.4998 N   0  0  0  0  0  0  0  0  0  0  0  0
   27.1247  -20.6903   -9.0521 C   0  0  1  0  0  0  0  0  0  0  0  0
   28.2948  -20.0283   -8.4029 C   0  0  0  0  0  0  0  0  0  0  0  0
   28.2521  -19.8890   -6.9395 C   0  0  0  0  0  0  0  0  0  0  0  0
   28.6329  -20.8789   -6.0663 C   0  0  0  0  0  0  0  0  0  0  0  0
   28.5757  -20.7177   -4.6915 C   0  0  0  0  0  0  0  0  0  0  0  0
   28.1302  -19.5460   -4.1316 C   0  0  0  0  0  0  0  0  0  0  0  0
   27.7442  -18.5422   -4.9956 C   0  0  0  0  0  0  0  0  0  0  0  0
   27.7995  -18.6983   -6.3633 C   0  0  0  0  0  0  0  0  0  0  0  0
   25.8278  -20.1380   -8.6599 C   0  0  0  0  0  0  0  0  0  0  0  0
   25.5547  -18.9414   -9.0550 O   0  0  0  0  0  0  0  0  0  0  0  0
   24.8259  -20.8027   -7.8841 N   0  0  0  0  0  0  0  0  0  0  0  0
   23.4657  -20.7335   -8.3105 C   0  0  1  0  0  0  0  0  0  0  0  0
   23.3177  -21.0350   -9.7947 C   0  0  0  0  0  0  0  0  0  0  0  0
   21.9602  -20.9714  -10.3026 C   0  0  0  0  0  0  0  0  0  0  0  0
   21.1715  -22.0964  -10.3804 C   0  0  0  0  0  0  0  0  0  0  0  0
   19.8616  -22.0212  -10.8757 C   0  0  0  0  0  0  0  0  0  0  0  0
   19.3537  -20.8086  -11.2908 C   0  0  0  0  0  0  0  0  0  0  0  0
   20.1270  -19.6906  -11.2172 C   0  0  0  0  0  0  0  0  0  0  0  0
   21.4119  -19.7870  -10.7271 C   0  0  0  0  0  0  0  0  0  0  0  0
   22.5418  -21.5357   -7.4986 C   0  0  0  0  0  0  0  0  0  0  0  0
   21.4142  -21.0218   -7.2077 O   0  0  0  0  0  0  0  0  0  0  0  0
   22.8121  -22.7898   -7.0389 O   0  0  0  0  0  0  0  0  0  0  0  0
  2  3  1  0
  2  1  1  6
  3  4  1  0
  5  4  1  0
  6  5  2  0
  7  2  1  0
  7  8  2  0
  9  5  1  0
 10  7  1  0
 11 19  1  0
 11 10  1  0
 11 12  1  1
 13 12  1  0
 13 14  2  0
 15 14  1  0
 16 15  2  0
 17 18  2  0
 17 16  1  0
 18 13  1  0
 19 21  1  0
 20 19  2  0
 21 22  1  0
 22 30  1  0
 22 23  1  6
 24 23  1  0
 24 29  1  0
 25 24  2  0
 26 25  1  0
 26 27  2  0
 27 28  1  0
 28 29  2  0
 30 31  2  0
 30 32  1  0
M  END
$$$$
