EFF.pdb
     RDKit          3D

 32 33  0  0  1  0  0  0  0  0999 V2000
   28.7950  -21.2765  -14.0223 N   0  0  0  0  0  0  0  0  0  0  0  0
   28.2333  -20.2032  -13.2995 C   0  0  1  0  0  0  0  0  0  0  0  0
   27.5400  -19.2155  -14.1708 C   0  0  0  0  0  0  0  0  0  0  0  0
   28.4303  -18.5202  -15.1298 C   0  0  0  0  0  0  0  0  0  0  0  0
   28.4812  -19.0873  -16.4740 C   0  0  0  0  0  0  0  0  0  0  0  0
   27.5375  -19.1111  -17.2925 O   0  0  0  0  0  0  0  0  0  0  0  0
   27.2312  -20.7143  -12.2904 C   0  0  0  0  0  0  0  0  0  0  0  0
   26.8460  -21.8827  -12.4312 O   0  0  0  0  0  0  0  0  0  0  0  0
   29.6946  -19.6724  -16.9234 O   0  0  0  0  0  0  0  0  0  0  0  0
   26.7939  -19.8729  -11.2714 N   0  0  0  0  0  0  0  0  0  0  0  0
   25.7868  -20.2673  -10.2671 C   0  0  1  0  0  0  0  0  0  0  0  0
   25.9980  -19.3476   -9.1102 C   0  0  0  0  0  0  0  0  0  0  0  0
   27.0093  -19.7467   -8.1199 C   0  0  0  0  0  0  0  0  0  0  0  0
   27.2924  -19.0269   -6.9844 C   0  0  0  0  0  0  0  0  0  0  0  0
   28.2558  -19.4277   -6.0730 C   0  0  0  0  0  0  0  0  0  0  0  0
   28.9809  -20.5776   -6.2653 C   0  0  0  0  0  0  0  0  0  0  0  0
   28.7080  -21.3114   -7.4011 C   0  0  0  0  0  0  0  0  0  0  0  0
   27.7509  -20.9165   -8.3100 C   0  0  0  0  0  0  0  0  0  0  0  0
   24.4666  -20.1584  -10.8883 C   0  0  0  0  0  0  0  0  0  0  0  0
   24.2685  -19.1576  -11.6767 O   0  0  0  0  0  0  0  0  0  0  0  0
   23.3721  -21.0629  -10.7110 N   0  0  0  0  0  0  0  0  0  0  0  0
   22.1709  -20.8442  -11.4500 C   0  0  1  0  0  0  0  0  0  0  0  0
   22.4187  -20.8385  -12.9514 C   0  0  0  0  0  0  0  0  0  0  0  0
   22.7624  -22.1271  -13.5228 C   0  0  0  0  0  0  0  0  0  0  0  0
   21.8262  -23.1282  -13.6461 C   0  0  0  0  0  0  0  0  0  0  0  0
   22.1726  -24.3700  -14.1981 C   0  0  0  0  0  0  0  0  0  0  0  0
   23.4645  -24.5953  -14.6235 C   0  0  0  0  0  0  0  0  0  0  0  0
   24.3969  -23.6105  -14.5054 C   0  0  0  0  0  0  0  0  0  0  0  0
   24.0350  -22.3973  -13.9599 C   0  0  0  0  0  0  0  0  0  0  0  0
   21.0703  -21.7451  -11.0847 C   0  0  0  0  0  0  0  0  0  0  0  0
   21.3086  -22.6452  -10.2168 O   0  0  0  0  0  0  0  0  0  0  0  0
   19.8154  -21.6796  -11.6120 O   0  0  0  0  0  0  0  0  0  0  0  0
  2  3  1  0
  2  1  1  6
  3  4  1  0
  5  4  1  0
  6  5  2  0
  7  2  1  0
  7  8  2  0
  9  5  1  0
 10  7  1  0
 11 19  1  0
 11 10  1  0
 11 12  1  1
 13 12  1  0
 13 14  2  0
 15 14  1  0
 16 15  2  0
 17 18  2  0
 17 16  1  0
 18 13  1  0
 19 21  1  0
 20 19  2  0
 21 22  1  0
 22 30  1  0
 22 23  1  6
 24 23  1  0
 24 29  1  0
 25 24  2  0
 26 25  1  0
 26 27  2  0
 27 28  1  0
 28 29  2  0
 30 31  2  0
 30 32  1  0
M  END
$$$$
