EFF.pdb
     RDKit          3D

 32 33  0  0  1  0  0  0  0  0999 V2000
   27.7933  -22.4228  -17.2603 N   0  0  0  0  0  0  0  0  0  0  0  0
   27.3447  -21.2845  -16.5583 C   0  0  1  0  0  0  0  0  0  0  0  0
   26.1574  -20.6443  -17.1873 C   0  0  0  0  0  0  0  0  0  0  0  0
   26.4323  -20.0071  -18.4966 C   0  0  0  0  0  0  0  0  0  0  0  0
   27.7788  -19.4709  -18.6709 C   0  0  0  0  0  0  0  0  0  0  0  0
   28.2575  -18.4886  -18.0652 O   0  0  0  0  0  0  0  0  0  0  0  0
   26.9756  -21.6517  -15.1396 C   0  0  0  0  0  0  0  0  0  0  0  0
   26.3760  -22.7233  -14.9800 O   0  0  0  0  0  0  0  0  0  0  0  0
   28.6479  -20.0962  -19.6038 O   0  0  0  0  0  0  0  0  0  0  0  0
   27.3157  -20.7928  -14.0983 N   0  0  0  0  0  0  0  0  0  0  0  0
   27.0155  -21.0745  -12.6809 C   0  0  1  0  0  0  0  0  0  0  0  0
   28.0257  -20.3013  -11.8996 C   0  0  0  0  0  0  0  0  0  0  0  0
   27.8796  -20.3056  -10.4363 C   0  0  0  0  0  0  0  0  0  0  0  0
   27.0316  -19.4699   -9.7507 C   0  0  0  0  0  0  0  0  0  0  0  0
   26.9209  -19.4955   -8.3699 C   0  0  0  0  0  0  0  0  0  0  0  0
   27.6633  -20.3685   -7.6138 C   0  0  0  0  0  0  0  0  0  0  0  0
   28.5195  -21.2143   -8.2880 C   0  0  0  0  0  0  0  0  0  0  0  0
   28.6326  -21.1923   -9.6609 C   0  0  0  0  0  0  0  0  0  0  0  0
   25.6296  -20.6795  -12.4283 C   0  0  0  0  0  0  0  0  0  0  0  0
   25.2754  -19.5000  -12.8105 O   0  0  0  0  0  0  0  0  0  0  0  0
   24.6230  -21.4813  -11.8028 N   0  0  0  0  0  0  0  0  0  0  0  0
   23.3701  -20.8819  -11.4745 C   0  0  1  0  0  0  0  0  0  0  0  0
   22.2552  -21.3490  -12.3989 C   0  0  0  0  0  0  0  0  0  0  0  0
   22.2587  -20.7474  -13.7191 C   0  0  0  0  0  0  0  0  0  0  0  0
   22.9690  -21.3044  -14.7579 C   0  0  0  0  0  0  0  0  0  0  0  0
   22.9655  -20.7111  -16.0286 C   0  0  0  0  0  0  0  0  0  0  0  0
   22.2439  -19.5565  -16.2446 C   0  0  0  0  0  0  0  0  0  0  0  0
   21.5382  -18.9987  -15.2228 C   0  0  0  0  0  0  0  0  0  0  0  0
   21.5554  -19.5984  -13.9816 C   0  0  0  0  0  0  0  0  0  0  0  0
   22.9947  -21.0142  -10.0610 C   0  0  0  0  0  0  0  0  0  0  0  0
   21.9045  -20.4736   -9.6874 O   0  0  0  0  0  0  0  0  0  0  0  0
   23.7346  -21.6760   -9.1273 O   0  0  0  0  0  0  0  0  0  0  0  0
  2  3  1  0
  2  1  1  6
  3  4  1  0
  5  4  1  0
  6  5  2  0
  7  2  1  0
  7  8  2  0
  9  5  1  0
 10  7  1  0
 11 19  1  0
 11 10  1  0
 11 12  1  1
 13 12  1  0
 13 14  2  0
 15 14  1  0
 16 15  2  0
 17 18  2  0
 17 16  1  0
 18 13  1  0
 19 21  1  0
 20 19  2  0
 21 22  1  0
 22 30  1  0
 22 23  1  6
 24 23  1  0
 24 29  1  0
 25 24  2  0
 26 25  1  0
 26 27  2  0
 27 28  1  0
 28 29  2  0
 30 31  2  0
 30 32  1  0
M  END
$$$$
