EFF.pdb
     RDKit          3D

 32 33  0  0  1  0  0  0  0  0999 V2000
   24.5209  -20.2831  -12.9701 N   0  0  0  0  0  0  0  0  0  0  0  0
   23.9880  -20.6058  -11.7046 C   0  0  1  0  0  0  0  0  0  0  0  0
   22.8519  -21.5645  -11.7797 C   0  0  0  0  0  0  0  0  0  0  0  0
   21.9711  -21.3727  -12.9557 C   0  0  0  0  0  0  0  0  0  0  0  0
   21.0467  -20.2456  -12.8790 C   0  0  0  0  0  0  0  0  0  0  0  0
   21.2810  -19.0814  -13.2672 O   0  0  0  0  0  0  0  0  0  0  0  0
   25.0532  -21.2180  -10.8246 C   0  0  0  0  0  0  0  0  0  0  0  0
   24.6726  -22.0386   -9.9790 O   0  0  0  0  0  0  0  0  0  0  0  0
   19.7587  -20.4550  -12.3186 O   0  0  0  0  0  0  0  0  0  0  0  0
   26.3829  -20.8440  -10.9962 N   0  0  0  0  0  0  0  0  0  0  0  0
   27.4693  -21.2643  -10.0898 C   0  0  1  0  0  0  0  0  0  0  0  0
   28.6547  -21.4907  -10.9686 C   0  0  0  0  0  0  0  0  0  0  0  0
   29.9391  -21.7463  -10.2995 C   0  0  0  0  0  0  0  0  0  0  0  0
   30.6199  -20.8041   -9.5671 C   0  0  0  0  0  0  0  0  0  0  0  0
   31.8317  -21.0756   -8.9528 C   0  0  0  0  0  0  0  0  0  0  0  0
   32.4151  -22.3147   -9.0492 C   0  0  0  0  0  0  0  0  0  0  0  0
   31.7434  -23.2716   -9.7814 C   0  0  0  0  0  0  0  0  0  0  0  0
   30.5382  -23.0060  -10.3937 C   0  0  0  0  0  0  0  0  0  0  0  0
   27.6538  -20.2109   -9.0913 C   0  0  0  0  0  0  0  0  0  0  0  0
   26.8330  -19.2171   -9.1266 O   0  0  0  0  0  0  0  0  0  0  0  0
   28.6559  -20.1804   -8.0703 N   0  0  0  0  0  0  0  0  0  0  0  0
   28.3012  -19.7096   -6.7706 C   0  0  1  0  0  0  0  0  0  0  0  0
   27.0769  -20.4259   -6.2195 C   0  0  0  0  0  0  0  0  0  0  0  0
   26.7031  -20.0535   -4.8680 C   0  0  0  0  0  0  0  0  0  0  0  0
   25.5831  -20.5781   -4.2646 C   0  0  0  0  0  0  0  0  0  0  0  0
   25.2320  -20.2077   -2.9584 C   0  0  0  0  0  0  0  0  0  0  0  0
   26.0147  -19.3079   -2.2667 C   0  0  0  0  0  0  0  0  0  0  0  0
   27.1246  -18.7841   -2.8559 C   0  0  0  0  0  0  0  0  0  0  0  0
   27.4513  -19.1619   -4.1407 C   0  0  0  0  0  0  0  0  0  0  0  0
   29.4108  -19.7127   -5.8088 C   0  0  0  0  0  0  0  0  0  0  0  0
   29.8749  -18.5861   -5.4406 O   0  0  0  0  0  0  0  0  0  0  0  0
   29.9732  -20.8389   -5.2867 O   0  0  0  0  0  0  0  0  0  0  0  0
  2  3  1  0
  2  1  1  6
  3  4  1  0
  5  4  1  0
  6  5  2  0
  7  2  1  0
  7  8  2  0
  9  5  1  0
 10  7  1  0
 11 19  1  0
 11 10  1  0
 11 12  1  6
 13 12  1  0
 13 14  2  0
 15 14  1  0
 16 15  2  0
 17 18  2  0
 17 16  1  0
 18 13  1  0
 19 21  1  0
 20 19  2  0
 21 22  1  0
 22 30  1  0
 22 23  1  1
 24 23  1  0
 24 29  1  0
 25 24  2  0
 26 25  1  0
 26 27  2  0
 27 28  1  0
 28 29  2  0
 30 31  2  0
 30 32  1  0
M  END
$$$$
