EFF.pdb
     RDKit          3D

 32 33  0  0  1  0  0  0  0  0999 V2000
   28.7534  -21.6766  -17.8655 N   0  0  0  0  0  0  0  0  0  0  0  0
   28.0898  -20.6198  -17.2078 C   0  0  1  0  0  0  0  0  0  0  0  0
   27.1519  -19.8803  -18.0960 C   0  0  0  0  0  0  0  0  0  0  0  0
   27.7543  -19.4224  -19.3700 C   0  0  0  0  0  0  0  0  0  0  0  0
   28.5634  -20.4085  -20.0798 C   0  0  0  0  0  0  0  0  0  0  0  0
   28.1278  -21.3005  -20.8384 O   0  0  0  0  0  0  0  0  0  0  0  0
   27.2980  -21.1446  -16.0325 C   0  0  0  0  0  0  0  0  0  0  0  0
   26.8882  -22.3103  -16.1136 O   0  0  0  0  0  0  0  0  0  0  0  0
   29.9738  -20.3808  -19.9162 O   0  0  0  0  0  0  0  0  0  0  0  0
   27.0680  -20.3181  -14.9366 N   0  0  0  0  0  0  0  0  0  0  0  0
   26.3525  -20.7573  -13.7227 C   0  0  1  0  0  0  0  0  0  0  0  0
   27.1229  -20.1861  -12.5787 C   0  0  0  0  0  0  0  0  0  0  0  0
   26.5548  -20.3732  -11.2352 C   0  0  0  0  0  0  0  0  0  0  0  0
   25.9781  -19.3644  -10.5022 C   0  0  0  0  0  0  0  0  0  0  0  0
   25.4562  -19.5726   -9.2358 C   0  0  0  0  0  0  0  0  0  0  0  0
   25.4919  -20.8128   -8.6479 C   0  0  0  0  0  0  0  0  0  0  0  0
   26.0679  -21.8363   -9.3717 C   0  0  0  0  0  0  0  0  0  0  0  0
   26.5879  -21.6337  -10.6312 C   0  0  0  0  0  0  0  0  0  0  0  0
   24.9729  -20.2790  -13.8168 C   0  0  0  0  0  0  0  0  0  0  0  0
   24.8009  -19.0233  -14.0540 O   0  0  0  0  0  0  0  0  0  0  0  0
   23.7915  -21.0743  -13.6783 N   0  0  0  0  0  0  0  0  0  0  0  0
   22.5406  -20.4195  -13.4699 C   0  0  1  0  0  0  0  0  0  0  0  0
   21.6227  -20.5467  -14.6770 C   0  0  0  0  0  0  0  0  0  0  0  0
   22.0825  -19.8667  -15.8733 C   0  0  0  0  0  0  0  0  0  0  0  0
   21.6195  -18.6146  -16.2078 C   0  0  0  0  0  0  0  0  0  0  0  0
   22.0705  -17.9696  -17.3684 C   0  0  0  0  0  0  0  0  0  0  0  0
   22.9881  -18.5929  -18.1872 C   0  0  0  0  0  0  0  0  0  0  0  0
   23.4515  -19.8315  -17.8638 C   0  0  0  0  0  0  0  0  0  0  0  0
   22.9949  -20.4474  -16.7182 C   0  0  0  0  0  0  0  0  0  0  0  0
   21.8609  -20.8076  -12.2275 C   0  0  0  0  0  0  0  0  0  0  0  0
   22.2780  -21.8503  -11.6283 O   0  0  0  0  0  0  0  0  0  0  0  0
   20.8172  -20.1263  -11.6765 O   0  0  0  0  0  0  0  0  0  0  0  0
  2  3  1  0
  2  1  1  6
  3  4  1  0
  5  4  1  0
  6  5  2  0
  7  2  1  0
  7  8  2  0
  9  5  1  0
 10  7  1  0
 11 19  1  0
 11 10  1  0
 11 12  1  1
 13 12  1  0
 13 14  2  0
 15 14  1  0
 16 15  2  0
 17 18  2  0
 17 16  1  0
 18 13  1  0
 19 21  1  0
 20 19  2  0
 21 22  1  0
 22 30  1  0
 22 23  1  6
 24 23  1  0
 24 29  1  0
 25 24  2  0
 26 25  1  0
 26 27  2  0
 27 28  1  0
 28 29  2  0
 30 31  2  0
 30 32  1  0
M  END
$$$$
