EFF.pdb
     RDKit          3D

 32 33  0  0  1  0  0  0  0  0999 V2000
   17.7164   -9.1084  -16.0241 N   0  0  0  0  0  0  0  0  0  0  0  0
   17.7069  -10.1806  -15.1076 C   0  0  1  0  0  0  0  0  0  0  0  0
   18.7012  -11.2374  -15.4392 C   0  0  0  0  0  0  0  0  0  0  0  0
   18.4632  -11.9105  -16.7376 C   0  0  0  0  0  0  0  0  0  0  0  0
   19.3022  -11.4654  -17.8462 C   0  0  0  0  0  0  0  0  0  0  0  0
   20.2029  -10.6020  -17.7793 O   0  0  0  0  0  0  0  0  0  0  0  0
   18.0066   -9.6842  -13.7121 C   0  0  0  0  0  0  0  0  0  0  0  0
   17.9662  -10.5231  -12.8023 O   0  0  0  0  0  0  0  0  0  0  0  0
   19.1040  -12.0432  -19.1282 O   0  0  0  0  0  0  0  0  0  0  0  0
   18.3074   -8.3400  -13.5123 N   0  0  0  0  0  0  0  0  0  0  0  0
   18.7994   -7.7986  -12.2304 C   0  0  1  0  0  0  0  0  0  0  0  0
   20.1289   -7.1936  -12.5386 C   0  0  0  0  0  0  0  0  0  0  0  0
   21.2555   -8.1213  -12.7195 C   0  0  0  0  0  0  0  0  0  0  0  0
   21.8716   -8.3491  -13.9262 C   0  0  0  0  0  0  0  0  0  0  0  0
   22.9282   -9.2345  -14.0642 C   0  0  0  0  0  0  0  0  0  0  0  0
   23.4144   -9.9336  -12.9873 C   0  0  0  0  0  0  0  0  0  0  0  0
   22.8061   -9.7156  -11.7685 C   0  0  0  0  0  0  0  0  0  0  0  0
   21.7552   -8.8361  -11.6268 C   0  0  0  0  0  0  0  0  0  0  0  0
   17.8059   -6.8458  -11.7345 C   0  0  0  0  0  0  0  0  0  0  0  0
   17.1554   -6.1633  -12.6142 O   0  0  0  0  0  0  0  0  0  0  0  0
   17.4792   -6.6026  -10.3628 N   0  0  0  0  0  0  0  0  0  0  0  0
   16.4590   -5.6531  -10.0553 C   0  0  1  0  0  0  0  0  0  0  0  0
   15.0943   -6.1000  -10.5587 C   0  0  0  0  0  0  0  0  0  0  0  0
   14.4565   -7.1361   -9.7684 C   0  0  0  0  0  0  0  0  0  0  0  0
   14.6569   -8.4700  -10.0411 C   0  0  0  0  0  0  0  0  0  0  0  0
   14.0323   -9.4613   -9.2706 C   0  0  0  0  0  0  0  0  0  0  0  0
   13.2069   -9.1005   -8.2268 C   0  0  0  0  0  0  0  0  0  0  0  0
   13.0031   -7.7832   -7.9500 C   0  0  0  0  0  0  0  0  0  0  0  0
   13.6270   -6.8251   -8.7201 C   0  0  0  0  0  0  0  0  0  0  0  0
   16.4140   -5.2589   -8.6415 C   0  0  0  0  0  0  0  0  0  0  0  0
   17.2204   -5.8350   -7.8428 O   0  0  0  0  0  0  0  0  0  0  0  0
   15.5686   -4.3195   -8.1314 O   0  0  0  0  0  0  0  0  0  0  0  0
  2  3  1  0
  2  1  1  6
  3  4  1  0
  5  4  1  0
  6  5  2  0
  7  2  1  0
  7  8  2  0
  9  5  1  0
 10  7  1  0
 11 19  1  0
 11 10  1  0
 11 12  1  6
 13 12  1  0
 13 14  2  0
 15 14  1  0
 16 15  2  0
 17 18  2  0
 17 16  1  0
 18 13  1  0
 19 21  1  0
 20 19  2  0
 21 22  1  0
 22 30  1  0
 22 23  1  1
 24 23  1  0
 24 29  1  0
 25 24  2  0
 26 25  1  0
 26 27  2  0
 27 28  1  0
 28 29  2  0
 30 31  2  0
 30 32  1  0
M  END
$$$$
