YNL.pdb
     RDKit          3D

 29 29  0  0  1  0  0  0  0  0999 V2000
   24.6533  -21.2789   -6.9629 O   0  0  0  0  0  0  0  0  0  0  0  0
   24.6572  -20.9570   -8.3059 C   0  0  0  0  0  0  0  0  0  0  0  0
   23.5111  -20.5966   -8.9654 C   0  0  0  0  0  0  0  0  0  0  0  0
   23.5262  -20.2756  -10.3134 C   0  0  0  0  0  0  0  0  0  0  0  0
   24.6926  -20.3064  -11.0412 C   0  0  0  0  0  0  0  0  0  0  0  0
   24.7470  -19.9723  -12.4746 C   0  0  0  0  0  0  0  0  0  0  0  0
   23.8742  -20.7643  -13.3723 C   0  0  2  0  0  0  0  0  0  0  0  0
   24.4860  -22.1175  -13.4442 N   0  0  0  0  0  0  0  0  0  0  0  0
   23.7045  -20.3271  -14.7402 C   0  0  0  0  0  0  0  0  0  0  0  0
   24.5167  -20.6591  -15.6524 O   0  0  0  0  0  0  0  0  0  0  0  0
   25.8405  -20.6710  -10.3652 C   0  0  0  0  0  0  0  0  0  0  0  0
   25.8428  -20.9940   -9.0218 C   0  0  0  0  0  0  0  0  0  0  0  0
   20.6714  -18.7725  -19.4229 N   0  0  0  0  0  0  0  0  0  0  0  0
   21.0715  -18.0519  -18.2900 C   0  0  0  0  0  0  0  0  0  0  0  0
   21.4102  -16.8367  -18.4800 O   0  0  0  0  0  0  0  0  0  0  0  0
   21.1393  -18.5605  -16.8988 C   0  0  0  0  0  0  0  0  0  0  0  0
   22.5333  -18.9974  -16.5262 C   0  0  2  0  0  0  0  0  0  0  0  0
   22.6350  -19.5050  -15.1947 N   0  0  0  0  0  0  0  0  0  0  0  0
   23.5297  -17.9651  -16.8839 C   0  0  0  0  0  0  0  0  0  0  0  0
   23.7265  -16.9201  -16.1878 O   0  0  0  0  0  0  0  0  0  0  0  0
   28.0646  -15.8944  -18.3870 C   0  0  0  0  0  0  0  0  0  0  0  0
   27.7967  -17.1714  -17.5796 C   0  0  2  0  0  0  0  0  0  0  0  0
   29.0251  -17.9177  -17.2318 C   0  0  0  0  0  0  0  0  0  0  0  0
   26.6454  -17.9368  -18.1055 C   0  0  0  0  0  0  0  0  0  0  0  0
   25.3955  -17.2115  -18.4306 C   0  0  2  0  0  0  0  0  0  0  0  0
   24.2994  -18.1363  -18.0425 N   0  0  0  0  0  0  0  0  0  0  0  0
   25.2113  -16.7540  -19.8014 C   0  0  0  0  0  0  0  0  0  0  0  0
   24.6983  -17.6514  -20.7601 O   0  0  0  0  0  0  0  0  0  0  0  0
   25.4679  -15.6121  -20.2343 O   0  0  0  0  0  0  0  0  0  0  0  0
  2  1  1  0
  3  2  2  0
  4  3  1  0
  5 11  1  0
  5  4  2  0
  6  5  1  0
  7  8  1  6
  7  6  1  0
  9  7  1  0
 10  9  2  0
 11 12  2  0
 12  2  1  0
 13 14  1  0
 14 15  2  0
 16 14  1  0
 17 16  1  1
 17 18  1  0
 18  9  1  0
 19 26  1  0
 19 17  1  0
 20 19  2  0
 22 21  1  6
 22 23  1  0
 24 22  1  0
 25 24  1  6
 25 26  1  0
 27 25  1  0
 28 27  1  0
 29 27  2  0
M  END
$$$$
