YNL.pdb
     RDKit          3D

 29 29  0  0  1  0  0  0  0  0999 V2000
   22.7802  -17.4044  -18.1744 O   0  0  0  0  0  0  0  0  0  0  0  0
   23.6399  -18.4733  -18.0143 C   0  0  0  0  0  0  0  0  0  0  0  0
   23.1808  -19.7610  -17.9175 C   0  0  0  0  0  0  0  0  0  0  0  0
   24.0523  -20.8265  -17.7569 C   0  0  0  0  0  0  0  0  0  0  0  0
   25.4119  -20.6320  -17.6886 C   0  0  0  0  0  0  0  0  0  0  0  0
   26.3681  -21.7393  -17.5180 C   0  0  0  0  0  0  0  0  0  0  0  0
   27.0812  -21.8040  -16.2210 C   0  0  2  0  0  0  0  0  0  0  0  0
   27.9070  -23.0393  -16.2724 N   0  0  0  0  0  0  0  0  0  0  0  0
   26.3046  -21.8904  -15.0043 C   0  0  0  0  0  0  0  0  0  0  0  0
   25.4988  -22.8434  -14.7933 O   0  0  0  0  0  0  0  0  0  0  0  0
   25.8619  -19.3300  -17.7875 C   0  0  0  0  0  0  0  0  0  0  0  0
   25.0067  -18.2567  -17.9478 C   0  0  0  0  0  0  0  0  0  0  0  0
   24.2388  -21.4791  -10.2447 N   0  0  0  0  0  0  0  0  0  0  0  0
   25.3926  -20.6895  -10.3332 C   0  0  0  0  0  0  0  0  0  0  0  0
   25.8410  -20.2140   -9.2377 O   0  0  0  0  0  0  0  0  0  0  0  0
   26.1401  -20.3542  -11.5692 C   0  0  0  0  0  0  0  0  0  0  0  0
   25.5225  -20.9875  -12.7901 C   0  0  2  0  0  0  0  0  0  0  0  0
   26.3649  -20.9437  -13.9430 N   0  0  0  0  0  0  0  0  0  0  0  0
   24.1412  -20.5040  -13.0013 C   0  0  0  0  0  0  0  0  0  0  0  0
   23.8695  -19.3157  -13.3611 O   0  0  0  0  0  0  0  0  0  0  0  0
   20.8793  -19.5670  -15.4202 C   0  0  0  0  0  0  0  0  0  0  0  0
   21.2958  -21.0435  -15.4476 C   0  0  2  0  0  0  0  0  0  0  0  0
   20.8032  -21.7732  -16.6357 C   0  0  0  0  0  0  0  0  0  0  0  0
   21.1515  -21.6920  -14.1260 C   0  0  0  0  0  0  0  0  0  0  0  0
   21.6499  -20.9823  -12.9252 C   0  0  2  0  0  0  0  0  0  0  0  0
   23.0734  -21.3886  -12.7986 N   0  0  0  0  0  0  0  0  0  0  0  0
   20.9475  -21.1975  -11.6672 C   0  0  0  0  0  0  0  0  0  0  0  0
   19.6269  -20.7235  -11.5300 O   0  0  0  0  0  0  0  0  0  0  0  0
   21.4052  -21.7772  -10.6614 O   0  0  0  0  0  0  0  0  0  0  0  0
  2  1  1  0
  3  2  2  0
  4  3  1  0
  5 11  1  0
  5  4  2  0
  6  5  1  0
  7  8  1  6
  7  6  1  0
  9  7  1  0
 10  9  2  0
 11 12  2  0
 12  2  1  0
 13 14  1  0
 14 15  2  0
 16 14  1  0
 17 16  1  1
 17 18  1  0
 18  9  1  0
 19 26  1  0
 19 17  1  0
 20 19  2  0
 22 21  1  1
 22 23  1  0
 24 22  1  0
 25 24  1  6
 25 26  1  0
 27 25  1  0
 28 27  1  0
 29 27  2  0
M  END
$$$$
