YNL.pdb
     RDKit          3D

 29 29  0  0  1  0  0  0  0  0999 V2000
   17.0364  -16.7194  -20.1879 O   0  0  0  0  0  0  0  0  0  0  0  0
   17.6602  -15.5687  -19.7475 C   0  0  0  0  0  0  0  0  0  0  0  0
   18.1070  -14.6105  -20.6195 C   0  0  0  0  0  0  0  0  0  0  0  0
   18.7319  -13.4593  -20.1669 C   0  0  0  0  0  0  0  0  0  0  0  0
   18.9276  -13.2346  -18.8244 C   0  0  0  0  0  0  0  0  0  0  0  0
   19.5878  -12.0240  -18.3067 C   0  0  0  0  0  0  0  0  0  0  0  0
   20.9228  -11.7078  -18.8658 C   0  0  2  0  0  0  0  0  0  0  0  0
   21.8503  -12.7249  -18.3037 N   0  0  0  0  0  0  0  0  0  0  0  0
   21.5124  -10.4205  -18.5718 C   0  0  0  0  0  0  0  0  0  0  0  0
   22.1316  -10.2017  -17.4898 O   0  0  0  0  0  0  0  0  0  0  0  0
   18.4730  -14.2076  -17.9560 C   0  0  0  0  0  0  0  0  0  0  0  0
   17.8481  -15.3607  -18.3906 C   0  0  0  0  0  0  0  0  0  0  0  0
   23.1487   -4.8031  -20.8807 N   0  0  0  0  0  0  0  0  0  0  0  0
   22.9221   -5.8860  -20.0212 C   0  0  0  0  0  0  0  0  0  0  0  0
   23.4609   -5.8174  -18.8669 O   0  0  0  0  0  0  0  0  0  0  0  0
   22.1214   -7.0977  -20.3201 C   0  0  0  0  0  0  0  0  0  0  0  0
   22.0411   -8.0262  -19.1350 C   0  0  2  0  0  0  0  0  0  0  0  0
   21.4651   -9.2965  -19.4439 N   0  0  0  0  0  0  0  0  0  0  0  0
   21.4620   -7.3418  -17.9591 C   0  0  0  0  0  0  0  0  0  0  0  0
   20.2264   -7.3927  -17.6655 O   0  0  0  0  0  0  0  0  0  0  0  0
   19.6418   -6.0683  -13.5519 C   0  0  0  0  0  0  0  0  0  0  0  0
   21.0977   -6.5526  -13.5645 C   0  0  2  0  0  0  0  0  0  0  0  0
   22.0041   -5.7176  -12.7474 C   0  0  0  0  0  0  0  0  0  0  0  0
   21.5472   -6.9443  -14.9183 C   0  0  0  0  0  0  0  0  0  0  0  0
   21.8207   -5.8823  -15.9139 C   0  0  2  0  0  0  0  0  0  0  0  0
   22.3055   -6.5996  -17.1214 N   0  0  0  0  0  0  0  0  0  0  0  0
   22.7530   -4.8261  -15.5434 C   0  0  0  0  0  0  0  0  0  0  0  0
   24.1049   -4.9397  -15.9269 O   0  0  0  0  0  0  0  0  0  0  0  0
   22.4740   -3.7940  -14.8997 O   0  0  0  0  0  0  0  0  0  0  0  0
  2  1  1  0
  3  2  2  0
  4  3  1  0
  5 11  1  0
  5  4  2  0
  6  5  1  0
  7  8  1  1
  7  6  1  0
  9  7  1  0
 10  9  2  0
 11 12  2  0
 12  2  1  0
 13 14  1  0
 14 15  2  0
 16 14  1  0
 17 16  1  6
 17 18  1  0
 18  9  1  0
 19 26  1  0
 19 17  1  0
 20 19  2  0
 22 21  1  6
 22 23  1  0
 24 22  1  0
 25 24  1  1
 25 26  1  0
 27 25  1  0
 28 27  1  0
 29 27  2  0
M  END
$$$$
