YNL.pdb
     RDKit          3D

 29 29  0  0  1  0  0  0  0  0999 V2000
   30.9858  -23.0670  -18.1542 O   0  0  0  0  0  0  0  0  0  0  0  0
   29.8489  -22.3888  -17.7610 C   0  0  0  0  0  0  0  0  0  0  0  0
   28.8673  -22.9933  -17.0200 C   0  0  0  0  0  0  0  0  0  0  0  0
   27.7302  -22.3034  -16.6307 C   0  0  0  0  0  0  0  0  0  0  0  0
   27.5435  -20.9848  -16.9734 C   0  0  0  0  0  0  0  0  0  0  0  0
   26.3484  -20.2199  -16.5783 C   0  0  0  0  0  0  0  0  0  0  0  0
   25.1216  -20.4500  -17.3763 C   0  0  2  0  0  0  0  0  0  0  0  0
   25.4060  -19.8980  -18.7273 N   0  0  0  0  0  0  0  0  0  0  0  0
   23.8857  -19.8365  -16.9438 C   0  0  0  0  0  0  0  0  0  0  0  0
   23.5482  -18.6768  -17.3222 O   0  0  0  0  0  0  0  0  0  0  0  0
   28.5398  -20.3869  -17.7202 C   0  0  0  0  0  0  0  0  0  0  0  0
   29.6793  -21.0604  -18.1164 C   0  0  0  0  0  0  0  0  0  0  0  0
   20.9194  -21.8099  -17.6107 N   0  0  0  0  0  0  0  0  0  0  0  0
   20.4702  -20.4851  -17.6880 C   0  0  0  0  0  0  0  0  0  0  0  0
   19.6427  -20.2194  -18.6217 O   0  0  0  0  0  0  0  0  0  0  0  0
   20.8603  -19.3674  -16.7951 C   0  0  0  0  0  0  0  0  0  0  0  0
   21.7262  -19.8349  -15.6529 C   0  0  2  0  0  0  0  0  0  0  0  0
   22.9420  -20.4546  -16.0757 N   0  0  0  0  0  0  0  0  0  0  0  0
   20.9382  -20.6035  -14.6657 C   0  0  0  0  0  0  0  0  0  0  0  0
   20.8627  -21.8722  -14.6747 O   0  0  0  0  0  0  0  0  0  0  0  0
   21.4758  -21.1464  -10.4385 C   0  0  0  0  0  0  0  0  0  0  0  0
   20.9467  -19.7243  -10.6664 C   0  0  2  0  0  0  0  0  0  0  0  0
   21.0814  -18.8483   -9.4827 C   0  0  0  0  0  0  0  0  0  0  0  0
   19.6588  -19.7144  -11.3939 C   0  0  0  0  0  0  0  0  0  0  0  0
   19.4999  -20.5946  -12.5746 C   0  0  2  0  0  0  0  0  0  0  0  0
   20.2380  -19.9115  -13.6683 N   0  0  0  0  0  0  0  0  0  0  0  0
   18.1463  -20.9206  -13.0030 C   0  0  0  0  0  0  0  0  0  0  0  0
   17.4957  -22.0329  -12.4309 O   0  0  0  0  0  0  0  0  0  0  0  0
   17.4761  -20.2992  -13.8527 O   0  0  0  0  0  0  0  0  0  0  0  0
  2  1  1  0
  3  2  2  0
  4  3  1  0
  5 11  1  0
  5  4  2  0
  6  5  1  0
  7  8  1  6
  7  6  1  0
  9  7  1  0
 10  9  2  0
 11 12  2  0
 12  2  1  0
 13 14  1  0
 14 15  2  0
 16 14  1  0
 17 16  1  6
 17 18  1  0
 18  9  1  0
 19 26  1  0
 19 17  1  0
 20 19  2  0
 22 21  1  1
 22 23  1  0
 24 22  1  0
 25 24  1  1
 25 26  1  0
 27 25  1  0
 28 27  1  0
 29 27  2  0
M  END
$$$$
