YNL.pdb
     RDKit          3D

 29 29  0  0  1  0  0  0  0  0999 V2000
   28.8412  -19.4704   -3.3065 O   0  0  0  0  0  0  0  0  0  0  0  0
   28.5280  -19.4987   -4.6512 C   0  0  0  0  0  0  0  0  0  0  0  0
   27.2298  -19.5081   -5.0903 C   0  0  0  0  0  0  0  0  0  0  0  0
   26.9266  -19.5367   -6.4422 C   0  0  0  0  0  0  0  0  0  0  0  0
   27.9177  -19.5568   -7.3953 C   0  0  0  0  0  0  0  0  0  0  0  0
   27.6336  -19.5878   -8.8402 C   0  0  0  0  0  0  0  0  0  0  0  0
   27.2819  -20.9062   -9.4174 C   0  0  2  0  0  0  0  0  0  0  0  0
   28.5288  -21.7149   -9.3732 N   0  0  0  0  0  0  0  0  0  0  0  0
   26.8139  -20.9640  -10.7843 C   0  0  0  0  0  0  0  0  0  0  0  0
   27.6116  -21.0992  -11.7576 O   0  0  0  0  0  0  0  0  0  0  0  0
   29.2216  -19.5470   -6.9401 C   0  0  0  0  0  0  0  0  0  0  0  0
   29.5411  -19.5186   -5.5962 C   0  0  0  0  0  0  0  0  0  0  0  0
   24.5382  -24.1618  -14.7708 N   0  0  0  0  0  0  0  0  0  0  0  0
   24.9857  -22.9234  -14.2922 C   0  0  0  0  0  0  0  0  0  0  0  0
   25.0189  -21.9668  -15.1355 O   0  0  0  0  0  0  0  0  0  0  0  0
   25.4220  -22.6173  -12.9085 C   0  0  0  0  0  0  0  0  0  0  0  0
   24.9610  -21.2532  -12.4615 C   0  0  2  0  0  0  0  0  0  0  0  0
   25.4461  -20.8824  -11.1700 N   0  0  0  0  0  0  0  0  0  0  0  0
   23.5043  -21.0916  -12.6569 C   0  0  0  0  0  0  0  0  0  0  0  0
   22.6388  -21.6148  -11.8871 O   0  0  0  0  0  0  0  0  0  0  0  0
   19.2613  -19.1923  -15.5860 C   0  0  0  0  0  0  0  0  0  0  0  0
   20.3240  -18.1676  -15.1677 C   0  0  2  0  0  0  0  0  0  0  0  0
   20.3507  -16.9626  -16.0244 C   0  0  0  0  0  0  0  0  0  0  0  0
   21.6146  -18.8049  -14.8264 C   0  0  0  0  0  0  0  0  0  0  0  0
   21.6113  -19.9930  -13.9419 C   0  0  2  0  0  0  0  0  0  0  0  0
   23.0445  -20.3273  -13.7379 N   0  0  0  0  0  0  0  0  0  0  0  0
   20.8745  -21.1690  -14.3848 C   0  0  0  0  0  0  0  0  0  0  0  0
   19.6759  -21.5142  -13.7277 O   0  0  0  0  0  0  0  0  0  0  0  0
   21.2016  -21.9315  -15.3169 O   0  0  0  0  0  0  0  0  0  0  0  0
  2  1  1  0
  3  2  2  0
  4  3  1  0
  5 11  1  0
  5  4  2  0
  6  5  1  0
  7  8  1  6
  7  6  1  0
  9  7  1  0
 10  9  2  0
 11 12  2  0
 12  2  1  0
 13 14  1  0
 14 15  2  0
 16 14  1  0
 17 16  1  1
 17 18  1  0
 18  9  1  0
 19 26  1  0
 19 17  1  0
 20 19  2  0
 22 21  1  6
 22 23  1  0
 24 22  1  0
 25 24  1  6
 25 26  1  0
 27 25  1  0
 28 27  1  0
 29 27  2  0
M  END
$$$$
