YNL.pdb
     RDKit          3D

 29 29  0  0  1  0  0  0  0  0999 V2000
   25.1783  -21.4983   -7.5119 O   0  0  0  0  0  0  0  0  0  0  0  0
   25.3039  -20.9949   -8.7917 C   0  0  0  0  0  0  0  0  0  0  0  0
   26.3519  -20.1881   -9.1508 C   0  0  0  0  0  0  0  0  0  0  0  0
   26.4683  -19.6882  -10.4380 C   0  0  0  0  0  0  0  0  0  0  0  0
   25.5359  -19.9830  -11.4049 C   0  0  0  0  0  0  0  0  0  0  0  0
   25.6263  -19.4698  -12.7825 C   0  0  0  0  0  0  0  0  0  0  0  0
   25.6380  -20.4803  -13.8658 C   0  0  2  0  0  0  0  0  0  0  0  0
   26.9427  -21.1840  -13.7512 N   0  0  0  0  0  0  0  0  0  0  0  0
   25.5431  -20.0308  -15.2368 C   0  0  0  0  0  0  0  0  0  0  0  0
   26.4326  -19.2996  -15.7624 O   0  0  0  0  0  0  0  0  0  0  0  0
   24.4848  -20.7970  -11.0306 C   0  0  0  0  0  0  0  0  0  0  0  0
   24.3539  -21.3036   -9.7518 C   0  0  0  0  0  0  0  0  0  0  0  0
   25.1675  -18.2496  -20.2379 N   0  0  0  0  0  0  0  0  0  0  0  0
   24.2823  -19.1822  -19.6815 C   0  0  0  0  0  0  0  0  0  0  0  0
   23.1159  -19.2352  -20.1955 O   0  0  0  0  0  0  0  0  0  0  0  0
   24.5669  -20.1090  -18.5596 C   0  0  0  0  0  0  0  0  0  0  0  0
   24.0951  -19.5560  -17.2387 C   0  0  2  0  0  0  0  0  0  0  0  0
   24.4734  -20.3566  -16.1176 N   0  0  0  0  0  0  0  0  0  0  0  0
   22.6642  -19.1877  -17.2948 C   0  0  0  0  0  0  0  0  0  0  0  0
   21.7276  -19.9974  -17.0071 O   0  0  0  0  0  0  0  0  0  0  0  0
   18.2246  -17.0646  -16.8554 C   0  0  0  0  0  0  0  0  0  0  0  0
   19.2213  -17.1181  -15.6901 C   0  0  2  0  0  0  0  0  0  0  0  0
   19.0858  -15.9882  -14.7458 C   0  0  0  0  0  0  0  0  0  0  0  0
   20.5822  -17.4933  -16.1323 C   0  0  0  0  0  0  0  0  0  0  0  0
   20.9300  -17.3545  -17.5654 C   0  0  2  0  0  0  0  0  0  0  0  0
   22.3119  -17.8876  -17.6815 N   0  0  0  0  0  0  0  0  0  0  0  0
   20.8470  -16.0273  -18.1603 C   0  0  0  0  0  0  0  0  0  0  0  0
   19.5927  -15.5445  -18.5860 O   0  0  0  0  0  0  0  0  0  0  0  0
   21.8009  -15.2431  -18.3403 O   0  0  0  0  0  0  0  0  0  0  0  0
  2  1  1  0
  3  2  2  0
  4  3  1  0
  5 11  1  0
  5  4  2  0
  6  5  1  0
  7  8  1  6
  7  6  1  0
  9  7  1  0
 10  9  2  0
 11 12  2  0
 12  2  1  0
 13 14  1  0
 14 15  2  0
 16 14  1  0
 17 16  1  6
 17 18  1  0
 18  9  1  0
 19 26  1  0
 19 17  1  0
 20 19  2  0
 22 21  1  6
 22 23  1  0
 24 22  1  0
 25 24  1  1
 25 26  1  0
 27 25  1  0
 28 27  1  0
 29 27  2  0
M  END
$$$$
