YNL.pdb
     RDKit          3D

 29 29  0  0  1  0  0  0  0  0999 V2000
   16.0140  -16.3943  -12.0661 O   0  0  0  0  0  0  0  0  0  0  0  0
   16.1933  -15.0325  -11.9233 C   0  0  0  0  0  0  0  0  0  0  0  0
   15.9962  -14.4000  -10.7235 C   0  0  0  0  0  0  0  0  0  0  0  0
   16.1788  -13.0327  -10.5911 C   0  0  0  0  0  0  0  0  0  0  0  0
   16.5651  -12.2578  -11.6595 C   0  0  0  0  0  0  0  0  0  0  0  0
   16.7684  -10.8027  -11.5568 C   0  0  0  0  0  0  0  0  0  0  0  0
   15.5789   -9.9913  -11.2082 C   0  0  2  0  0  0  0  0  0  0  0  0
   14.6153  -10.1822  -12.3244 N   0  0  0  0  0  0  0  0  0  0  0  0
   15.7339   -8.5621  -11.0515 C   0  0  0  0  0  0  0  0  0  0  0  0
   15.6666   -7.7715  -12.0376 O   0  0  0  0  0  0  0  0  0  0  0  0
   16.7605  -12.9069  -12.8629 C   0  0  0  0  0  0  0  0  0  0  0  0
   16.5828  -14.2690  -13.0118 C   0  0  0  0  0  0  0  0  0  0  0  0
   13.6456   -6.4457   -7.0385 N   0  0  0  0  0  0  0  0  0  0  0  0
   14.3144   -6.0586   -8.2072 C   0  0  0  0  0  0  0  0  0  0  0  0
   13.5840   -5.8003   -9.2207 O   0  0  0  0  0  0  0  0  0  0  0  0
   15.7805   -5.9201   -8.3804 C   0  0  0  0  0  0  0  0  0  0  0  0
   16.2525   -6.5161   -9.6823 C   0  0  2  0  0  0  0  0  0  0  0  0
   15.9671   -7.9103   -9.8077 N   0  0  0  0  0  0  0  0  0  0  0  0
   17.6512   -6.1318   -9.9692 C   0  0  0  0  0  0  0  0  0  0  0  0
   18.6338   -6.5052   -9.2548 O   0  0  0  0  0  0  0  0  0  0  0  0
   21.2790   -5.5762  -13.8357 C   0  0  0  0  0  0  0  0  0  0  0  0
   21.1195   -6.5186  -12.6354 C   0  0  2  0  0  0  0  0  0  0  0  0
   21.6725   -7.8701  -12.8691 C   0  0  0  0  0  0  0  0  0  0  0  0
   19.7811   -6.4146  -12.0141 C   0  0  0  0  0  0  0  0  0  0  0  0
   19.2901   -5.0808  -11.5974 C   0  0  2  0  0  0  0  0  0  0  0  0
   17.9182   -5.3182  -11.0786 N   0  0  0  0  0  0  0  0  0  0  0  0
   19.2784   -4.0181  -12.5938 C   0  0  0  0  0  0  0  0  0  0  0  0
   20.3858   -3.1502  -12.6829 O   0  0  0  0  0  0  0  0  0  0  0  0
   18.3606   -3.7847  -13.4065 O   0  0  0  0  0  0  0  0  0  0  0  0
  2  1  1  0
  3  2  2  0
  4  3  1  0
  5 11  1  0
  5  4  2  0
  6  5  1  0
  7  8  1  6
  7  6  1  0
  9  7  1  0
 10  9  2  0
 11 12  2  0
 12  2  1  0
 13 14  1  0
 14 15  2  0
 16 14  1  0
 17 16  1  1
 17 18  1  0
 18  9  1  0
 19 26  1  0
 19 17  1  0
 20 19  2  0
 22 21  1  6
 22 23  1  0
 24 22  1  0
 25 24  1  6
 25 26  1  0
 27 25  1  0
 28 27  1  0
 29 27  2  0
M  END
$$$$
