YNL.pdb
     RDKit          3D

 29 29  0  0  1  0  0  0  0  0999 V2000
   15.2601  -13.5865  -20.6585 O   0  0  0  0  0  0  0  0  0  0  0  0
   15.8037  -12.6952  -19.7545 C   0  0  0  0  0  0  0  0  0  0  0  0
   15.0186  -11.9497  -18.9141 C   0  0  0  0  0  0  0  0  0  0  0  0
   15.5745  -11.0581  -18.0106 C   0  0  0  0  0  0  0  0  0  0  0  0
   16.9362  -10.8872  -17.9228 C   0  0  0  0  0  0  0  0  0  0  0  0
   17.5625   -9.9491  -16.9757 C   0  0  0  0  0  0  0  0  0  0  0  0
   18.1362  -10.5374  -15.7430 C   0  0  2  0  0  0  0  0  0  0  0  0
   16.9755  -10.9747  -14.9231 N   0  0  0  0  0  0  0  0  0  0  0  0
   18.9425   -9.7000  -14.8831 C   0  0  0  0  0  0  0  0  0  0  0  0
   18.4234   -8.9407  -14.0137 O   0  0  0  0  0  0  0  0  0  0  0  0
   17.7164  -11.6442  -18.7748 C   0  0  0  0  0  0  0  0  0  0  0  0
   17.1782  -12.5374  -19.6812 C   0  0  0  0  0  0  0  0  0  0  0  0
   22.9500   -9.6428  -16.2082 N   0  0  0  0  0  0  0  0  0  0  0  0
   23.2708   -9.7925  -14.8526 C   0  0  0  0  0  0  0  0  0  0  0  0
   24.3616  -10.4000  -14.5907 O   0  0  0  0  0  0  0  0  0  0  0  0
   22.4710   -9.3161  -13.6984 C   0  0  0  0  0  0  0  0  0  0  0  0
   21.1446   -8.7441  -14.1302 C   0  0  2  0  0  0  0  0  0  0  0  0
   20.3645   -9.6450  -14.9181 N   0  0  0  0  0  0  0  0  0  0  0  0
   21.3077   -7.3893  -14.6998 C   0  0  0  0  0  0  0  0  0  0  0  0
   21.9134   -6.4503  -14.0941 O   0  0  0  0  0  0  0  0  0  0  0  0
   20.0658   -4.0503  -18.9636 C   0  0  0  0  0  0  0  0  0  0  0  0
   21.3812   -4.8367  -18.8898 C   0  0  2  0  0  0  0  0  0  0  0  0
   22.0173   -5.0471  -20.2081 C   0  0  0  0  0  0  0  0  0  0  0  0
   21.2939   -5.9915  -17.9694 C   0  0  0  0  0  0  0  0  0  0  0  0
   20.8111   -5.7668  -16.5872 C   0  0  2  0  0  0  0  0  0  0  0  0
   20.7738   -7.1162  -15.9664 N   0  0  0  0  0  0  0  0  0  0  0  0
   19.5308   -5.0938  -16.4147 C   0  0  0  0  0  0  0  0  0  0  0  0
   19.5098   -3.7849  -15.8913 O   0  0  0  0  0  0  0  0  0  0  0  0
   18.4098   -5.5680  -16.6901 O   0  0  0  0  0  0  0  0  0  0  0  0
  2  1  1  0
  3  2  2  0
  4  3  1  0
  5 11  1  0
  5  4  2  0
  6  5  1  0
  7  8  1  1
  7  6  1  0
  9  7  1  0
 10  9  2  0
 11 12  2  0
 12  2  1  0
 13 14  1  0
 14 15  2  0
 16 14  1  0
 17 16  1  6
 17 18  1  0
 18  9  1  0
 19 26  1  0
 19 17  1  0
 20 19  2  0
 22 21  1  6
 22 23  1  0
 24 22  1  0
 25 24  1  6
 25 26  1  0
 27 25  1  0
 28 27  1  0
 29 27  2  0
M  END
$$$$
