YNL.pdb
     RDKit          3D

 29 29  0  0  1  0  0  0  0  0999 V2000
   22.7063  -10.3215  -23.9321 O   0  0  0  0  0  0  0  0  0  0  0  0
   22.3041   -9.5777  -22.8403 C   0  0  0  0  0  0  0  0  0  0  0  0
   23.1998   -9.1168  -21.9110 C   0  0  0  0  0  0  0  0  0  0  0  0
   22.7854   -8.3712  -20.8188 C   0  0  0  0  0  0  0  0  0  0  0  0
   21.4587   -8.0652  -20.6258 C   0  0  0  0  0  0  0  0  0  0  0  0
   20.9814   -7.2760  -19.4774 C   0  0  0  0  0  0  0  0  0  0  0  0
   20.9890   -7.9535  -18.1599 C   0  0  2  0  0  0  0  0  0  0  0  0
   19.9311   -8.9957  -18.2326 N   0  0  0  0  0  0  0  0  0  0  0  0
   20.7042   -7.1740  -16.9758 C   0  0  0  0  0  0  0  0  0  0  0  0
   19.5808   -6.6193  -16.7963 O   0  0  0  0  0  0  0  0  0  0  0  0
   20.5662   -8.5354  -21.5692 C   0  0  0  0  0  0  0  0  0  0  0  0
   20.9626   -9.2798  -22.6635 C   0  0  0  0  0  0  0  0  0  0  0  0
   19.7331   -8.4131  -13.9803 N   0  0  0  0  0  0  0  0  0  0  0  0
   20.8168   -7.9872  -13.2011 C   0  0  0  0  0  0  0  0  0  0  0  0
   21.0783   -8.6819  -12.1636 O   0  0  0  0  0  0  0  0  0  0  0  0
   21.6853   -6.8143  -13.4630 C   0  0  0  0  0  0  0  0  0  0  0  0
   21.3493   -6.1459  -14.7720 C   0  0  2  0  0  0  0  0  0  0  0  0
   21.6277   -6.9573  -15.9144 N   0  0  0  0  0  0  0  0  0  0  0  0
   21.8969   -4.7735  -14.8264 C   0  0  0  0  0  0  0  0  0  0  0  0
   23.0614   -4.5078  -15.2610 O   0  0  0  0  0  0  0  0  0  0  0  0
   21.3018    0.2971  -16.1394 C   0  0  0  0  0  0  0  0  0  0  0  0
   22.2921   -0.8250  -16.4776 C   0  0  2  0  0  0  0  0  0  0  0  0
   22.8214   -0.7487  -17.8563 C   0  0  0  0  0  0  0  0  0  0  0  0
   21.8389   -2.1425  -15.9804 C   0  0  0  0  0  0  0  0  0  0  0  0
   21.4935   -2.2833  -14.5470 C   0  0  2  0  0  0  0  0  0  0  0  0
   21.1037   -3.7074  -14.3811 N   0  0  0  0  0  0  0  0  0  0  0  0
   20.4612   -1.4089  -14.0067 C   0  0  0  0  0  0  0  0  0  0  0  0
   20.8449   -0.2443  -13.3111 O   0  0  0  0  0  0  0  0  0  0  0  0
   19.2292   -1.5860  -14.0964 O   0  0  0  0  0  0  0  0  0  0  0  0
  2  1  1  0
  3  2  2  0
  4  3  1  0
  5 11  1  0
  5  4  2  0
  6  5  1  0
  7  8  1  6
  7  6  1  0
  9  7  1  0
 10  9  2  0
 11 12  2  0
 12  2  1  0
 13 14  1  0
 14 15  2  0
 16 14  1  0
 17 16  1  1
 17 18  1  0
 18  9  1  0
 19 26  1  0
 19 17  1  0
 20 19  2  0
 22 21  1  6
 22 23  1  0
 24 22  1  0
 25 24  1  6
 25 26  1  0
 27 25  1  0
 28 27  1  0
 29 27  2  0
M  END
$$$$
