YNL.pdb
     RDKit          3D

 29 29  0  0  1  0  0  0  0  0999 V2000
   21.6317  -29.8903  -18.8134 O   0  0  0  0  0  0  0  0  0  0  0  0
   22.0379  -29.0477  -17.7974 C   0  0  0  0  0  0  0  0  0  0  0  0
   21.1373  -28.3736  -17.0146 C   0  0  0  0  0  0  0  0  0  0  0  0
   21.5558  -27.5304  -15.9977 C   0  0  0  0  0  0  0  0  0  0  0  0
   22.8919  -27.3377  -15.7351 C   0  0  0  0  0  0  0  0  0  0  0  0
   23.3737  -26.4493  -14.6637 C   0  0  0  0  0  0  0  0  0  0  0  0
   23.0610  -25.0084  -14.8079 C   0  0  2  0  0  0  0  0  0  0  0  0
   23.8639  -24.5320  -15.9651 N   0  0  0  0  0  0  0  0  0  0  0  0
   23.3686  -24.1172  -13.7115 C   0  0  0  0  0  0  0  0  0  0  0  0
   22.9444  -24.3314  -12.5384 O   0  0  0  0  0  0  0  0  0  0  0  0
   23.7894  -28.0225  -16.5308 C   0  0  0  0  0  0  0  0  0  0  0  0
   23.3889  -28.8668  -17.5485 C   0  0  0  0  0  0  0  0  0  0  0  0
   25.7602  -20.9648  -10.3587 N   0  0  0  0  0  0  0  0  0  0  0  0
   26.4670  -21.0489  -11.5654 C   0  0  0  0  0  0  0  0  0  0  0  0
   27.6716  -20.6293  -11.5486 O   0  0  0  0  0  0  0  0  0  0  0  0
   25.9548  -21.5753  -12.8535 C   0  0  0  0  0  0  0  0  0  0  0  0
   24.5626  -22.1380  -12.7182 C   0  0  2  0  0  0  0  0  0  0  0  0
   24.1618  -22.9412  -13.8296 N   0  0  0  0  0  0  0  0  0  0  0  0
   23.5995  -21.0891  -12.3200 C   0  0  0  0  0  0  0  0  0  0  0  0
   23.9414  -20.0302  -11.7057 O   0  0  0  0  0  0  0  0  0  0  0  0
   20.5455  -18.6206  -15.4880 C   0  0  0  0  0  0  0  0  0  0  0  0
   21.8426  -19.3589  -15.8438 C   0  0  2  0  0  0  0  0  0  0  0  0
   21.8793  -19.8477  -17.2390 C   0  0  0  0  0  0  0  0  0  0  0  0
   22.2737  -20.2840  -14.7730 C   0  0  0  0  0  0  0  0  0  0  0  0
   21.4923  -20.3331  -13.5157 C   0  0  2  0  0  0  0  0  0  0  0  0
   22.2433  -21.2593  -12.6294 N   0  0  0  0  0  0  0  0  0  0  0  0
   20.0940  -20.7332  -13.5988 C   0  0  0  0  0  0  0  0  0  0  0  0
   19.0941  -19.8096  -13.2315 O   0  0  0  0  0  0  0  0  0  0  0  0
   19.6703  -21.8456  -13.9735 O   0  0  0  0  0  0  0  0  0  0  0  0
  2  1  1  0
  3  2  2  0
  4  3  1  0
  5 11  1  0
  5  4  2  0
  6  5  1  0
  7  8  1  6
  7  6  1  0
  9  7  1  0
 10  9  2  0
 11 12  2  0
 12  2  1  0
 13 14  1  0
 14 15  2  0
 16 14  1  0
 17 16  1  6
 17 18  1  0
 18  9  1  0
 19 26  1  0
 19 17  1  0
 20 19  2  0
 22 21  1  1
 22 23  1  0
 24 22  1  0
 25 24  1  6
 25 26  1  0
 27 25  1  0
 28 27  1  0
 29 27  2  0
M  END
$$$$
