YNL.pdb
     RDKit          3D

 29 29  0  0  1  0  0  0  0  0999 V2000
   20.4110  -23.2640   -7.1184 O   0  0  0  0  0  0  0  0  0  0  0  0
   21.2556  -22.4984   -7.8979 C   0  0  0  0  0  0  0  0  0  0  0  0
   22.3361  -21.8451   -7.3650 C   0  0  0  0  0  0  0  0  0  0  0  0
   23.1773  -21.0793   -8.1564 C   0  0  0  0  0  0  0  0  0  0  0  0
   22.9597  -20.9457   -9.5077 C   0  0  0  0  0  0  0  0  0  0  0  0
   23.8316  -20.1402  -10.3798 C   0  0  0  0  0  0  0  0  0  0  0  0
   24.6313  -20.8815  -11.3827 C   0  0  2  0  0  0  0  0  0  0  0  0
   25.8066  -21.4198  -10.6481 N   0  0  0  0  0  0  0  0  0  0  0  0
   25.1628  -20.1611  -12.5182 C   0  0  0  0  0  0  0  0  0  0  0  0
   26.0903  -19.3090  -12.3931 O   0  0  0  0  0  0  0  0  0  0  0  0
   21.8678  -21.6088  -10.0326 C   0  0  0  0  0  0  0  0  0  0  0  0
   21.0194  -22.3762   -9.2577 C   0  0  0  0  0  0  0  0  0  0  0  0
   27.9195  -18.6952  -15.1936 N   0  0  0  0  0  0  0  0  0  0  0  0
   27.4208  -19.7871  -15.9162 C   0  0  0  0  0  0  0  0  0  0  0  0
   28.2643  -20.4350  -16.6205 O   0  0  0  0  0  0  0  0  0  0  0  0
   26.0160  -20.2610  -15.9421 C   0  0  0  0  0  0  0  0  0  0  0  0
   25.1537  -19.5210  -14.9512 C   0  0  2  0  0  0  0  0  0  0  0  0
   24.7164  -20.3314  -13.8591 N   0  0  0  0  0  0  0  0  0  0  0  0
   24.0873  -18.7593  -15.6361 C   0  0  0  0  0  0  0  0  0  0  0  0
   22.9597  -19.2623  -15.9378 O   0  0  0  0  0  0  0  0  0  0  0  0
   24.0770  -12.9373  -17.7574 C   0  0  0  0  0  0  0  0  0  0  0  0
   23.1987  -14.1639  -17.4778 C   0  0  2  0  0  0  0  0  0  0  0  0
   21.8517  -13.8218  -16.9725 C   0  0  0  0  0  0  0  0  0  0  0  0
   23.9432  -15.2430  -16.7927 C   0  0  0  0  0  0  0  0  0  0  0  0
   23.3564  -16.6026  -16.7567 C   0  0  2  0  0  0  0  0  0  0  0  0
   24.3191  -17.4188  -15.9729 N   0  0  0  0  0  0  0  0  0  0  0  0
   23.0602  -17.2497  -18.0278 C   0  0  0  0  0  0  0  0  0  0  0  0
   21.7145  -17.4503  -18.3974 O   0  0  0  0  0  0  0  0  0  0  0  0
   23.8995  -17.6606  -18.8549 O   0  0  0  0  0  0  0  0  0  0  0  0
  2  1  1  0
  3  2  2  0
  4  3  1  0
  5 11  1  0
  5  4  2  0
  6  5  1  0
  7  8  1  1
  7  6  1  0
  9  7  1  0
 10  9  2  0
 11 12  2  0
 12  2  1  0
 13 14  1  0
 14 15  2  0
 16 14  1  0
 17 16  1  6
 17 18  1  0
 18  9  1  0
 19 26  1  0
 19 17  1  0
 20 19  2  0
 22 21  1  1
 22 23  1  0
 24 22  1  0
 25 24  1  6
 25 26  1  0
 27 25  1  0
 28 27  1  0
 29 27  2  0
M  END
$$$$
