VAQ.pdb
     RDKit          3D

 22 21  0  0  1  0  0  0  0  0999 V2000
    8.1537  -15.3768   20.9428 C   0  0  0  0  0  0  0  0  0  0  0  0
    6.9238  -14.5146   20.8117 C   0  0  2  0  0  0  0  0  0  0  0  0
    6.3986  -14.4776   19.4109 C   0  0  0  0  0  0  0  0  0  0  0  0
    7.3034  -13.1128   21.3063 C   0  0  2  0  0  0  0  0  0  0  0  0
    8.3857  -12.6662   20.4732 N   0  0  0  0  0  0  0  0  0  0  0  0
    7.7977  -13.2602   22.7018 C   0  0  0  0  0  0  0  0  0  0  0  0
    8.9670  -13.6488   22.9728 O   0  0  0  0  0  0  0  0  0  0  0  0
    6.3631  -12.6768   26.1933 C   0  0  0  0  0  0  0  0  0  0  0  0
    7.3699  -13.1854   25.1875 C   0  0  2  0  0  0  0  0  0  0  0  0
    6.9672  -12.9668   23.8277 N   0  0  0  0  0  0  0  0  0  0  0  0
    7.7863  -14.5711   25.4615 C   0  0  0  0  0  0  0  0  0  0  0  0
    7.0523  -15.5242   25.1463 O   0  0  0  0  0  0  0  0  0  0  0  0
   13.1084  -16.8275   23.9130 N   0  0  0  0  0  0  0  0  0  0  0  0
   12.7488  -17.7474   24.9120 C   0  0  0  0  0  0  0  0  0  0  0  0
   13.4448  -18.7729   25.1110 O   0  0  0  0  0  0  0  0  0  0  0  0
   11.5495  -17.5691   25.7764 C   0  0  0  0  0  0  0  0  0  0  0  0
   10.8262  -16.3007   25.4958 C   0  0  0  0  0  0  0  0  0  0  0  0
    9.5654  -16.1582   26.3089 C   0  0  2  0  0  0  0  0  0  0  0  0
    9.0250  -14.8129   26.0846 N   0  0  0  0  0  0  0  0  0  0  0  0
    9.7134  -16.3628   27.7425 C   0  0  0  0  0  0  0  0  0  0  0  0
    9.8106  -15.3453   28.5012 O   0  0  0  0  0  0  0  0  0  0  0  0
    9.7483  -17.6514   28.2943 O   0  0  0  0  0  0  0  0  0  0  0  0
  2  3  1  6
  2  1  1  0
  4  2  1  0
  4  5  1  6
  6 10  1  0
  6  4  1  0
  7  6  2  0
  9 10  1  0
  9  8  1  1
 11  9  1  0
 11 19  1  0
 12 11  2  0
 14 13  1  0
 14 15  2  0
 16 14  1  0
 16 17  1  0
 18 17  1  6
 18 19  1  0
 18 20  1  0
 20 21  2  0
 20 22  1  0
M  END
$$$$
