VAQ.pdb
     RDKit          3D

 22 21  0  0  1  0  0  0  0  0999 V2000
    5.7397  -11.1171   26.5280 C   0  0  0  0  0  0  0  0  0  0  0  0
    6.7353  -12.0831   25.9376 C   0  0  2  0  0  0  0  0  0  0  0  0
    7.5705  -11.4582   24.8645 C   0  0  0  0  0  0  0  0  0  0  0  0
    5.9372  -13.2794   25.4027 C   0  0  2  0  0  0  0  0  0  0  0  0
    5.2879  -13.8758   26.5373 N   0  0  0  0  0  0  0  0  0  0  0  0
    6.9204  -14.2471   24.8455 C   0  0  0  0  0  0  0  0  0  0  0  0
    7.6729  -14.9498   25.5747 O   0  0  0  0  0  0  0  0  0  0  0  0
    7.9964  -15.3422   21.3462 C   0  0  0  0  0  0  0  0  0  0  0  0
    8.0097  -15.3554   22.8573 C   0  0  2  0  0  0  0  0  0  0  0  0
    7.0703  -14.4383   23.4368 N   0  0  0  0  0  0  0  0  0  0  0  0
    9.3696  -15.2297   23.4080 C   0  0  0  0  0  0  0  0  0  0  0  0
    9.9850  -14.1521   23.3288 O   0  0  0  0  0  0  0  0  0  0  0  0
   10.5573  -17.5757   29.2851 N   0  0  0  0  0  0  0  0  0  0  0  0
   11.2105  -16.4604   28.7346 C   0  0  0  0  0  0  0  0  0  0  0  0
   11.3767  -15.4208   29.4181 O   0  0  0  0  0  0  0  0  0  0  0  0
   11.7338  -16.4410   27.3407 C   0  0  0  0  0  0  0  0  0  0  0  0
   10.6581  -16.5848   26.3243 C   0  0  0  0  0  0  0  0  0  0  0  0
   11.1210  -16.2328   24.9340 C   0  0  2  0  0  0  0  0  0  0  0  0
    9.9726  -16.3405   24.0276 N   0  0  0  0  0  0  0  0  0  0  0  0
   12.2044  -17.0486   24.4050 C   0  0  0  0  0  0  0  0  0  0  0  0
   11.9335  -17.9441   23.5419 O   0  0  0  0  0  0  0  0  0  0  0  0
   13.5286  -16.8629   24.8269 O   0  0  0  0  0  0  0  0  0  0  0  0
  2  3  1  6
  2  1  1  0
  4  2  1  0
  4  5  1  1
  6 10  1  0
  6  4  1  0
  7  6  2  0
  9 10  1  0
  9  8  1  6
 11  9  1  0
 11 19  1  0
 12 11  2  0
 14 13  1  0
 14 15  2  0
 16 14  1  0
 16 17  1  0
 18 17  1  1
 18 19  1  0
 18 20  1  0
 20 21  2  0
 20 22  1  0
M  END
$$$$
