VAQ.pdb
     RDKit          3D

 22 21  0  0  1  0  0  0  0  0999 V2000
    6.6036  -13.0027   20.3246 C   0  0  0  0  0  0  0  0  0  0  0  0
    8.0489  -13.2147   20.6979 C   0  0  2  0  0  0  0  0  0  0  0  0
    8.9482  -13.2522   19.5023 C   0  0  0  0  0  0  0  0  0  0  0  0
    8.1194  -14.5240   21.4946 C   0  0  2  0  0  0  0  0  0  0  0  0
    6.7842  -15.0540   21.5260 N   0  0  0  0  0  0  0  0  0  0  0  0
    8.5312  -14.1713   22.8801 C   0  0  0  0  0  0  0  0  0  0  0  0
    9.7277  -13.9210   23.1922 O   0  0  0  0  0  0  0  0  0  0  0  0
    6.8371  -12.9426   25.9878 C   0  0  0  0  0  0  0  0  0  0  0  0
    7.9312  -13.7157   25.2884 C   0  0  2  0  0  0  0  0  0  0  0  0
    7.5846  -14.0949   23.9486 N   0  0  0  0  0  0  0  0  0  0  0  0
    8.4379  -14.8330   26.1028 C   0  0  0  0  0  0  0  0  0  0  0  0
    7.9954  -15.9837   25.9399 O   0  0  0  0  0  0  0  0  0  0  0  0
   10.1173  -17.8109   24.7050 N   0  0  0  0  0  0  0  0  0  0  0  0
   11.3634  -17.2127   24.9559 C   0  0  0  0  0  0  0  0  0  0  0  0
   12.0815  -16.8188   24.0046 O   0  0  0  0  0  0  0  0  0  0  0  0
   11.8981  -17.0129   26.3311 C   0  0  0  0  0  0  0  0  0  0  0  0
   11.5767  -15.6688   26.8798 C   0  0  0  0  0  0  0  0  0  0  0  0
   10.2756  -15.6470   27.6399 C   0  0  2  0  0  0  0  0  0  0  0  0
    9.4303  -14.5914   27.0713 N   0  0  0  0  0  0  0  0  0  0  0  0
   10.3873  -15.4261   29.0744 C   0  0  0  0  0  0  0  0  0  0  0  0
   10.2329  -14.2468   29.5278 O   0  0  0  0  0  0  0  0  0  0  0  0
   10.6580  -16.4832   29.9549 O   0  0  0  0  0  0  0  0  0  0  0  0
  2  3  1  6
  2  1  1  0
  4  2  1  0
  4  5  1  1
  6 10  1  0
  6  4  1  0
  7  6  2  0
  9 10  1  0
  9  8  1  1
 11  9  1  0
 11 19  1  0
 12 11  2  0
 14 13  1  0
 14 15  2  0
 16 14  1  0
 16 17  1  0
 18 17  1  6
 18 19  1  0
 18 20  1  0
 20 21  2  0
 20 22  1  0
M  END
$$$$
