VAQ.pdb
     RDKit          3D

 22 21  0  0  1  0  0  0  0  0999 V2000
    8.1795  -13.7761   15.4570 C   0  0  0  0  0  0  0  0  0  0  0  0
    8.7372  -14.2873   16.7612 C   0  0  2  0  0  0  0  0  0  0  0  0
    9.4110  -15.6152   16.6131 C   0  0  0  0  0  0  0  0  0  0  0  0
    7.5681  -14.3583   17.7522 C   0  0  2  0  0  0  0  0  0  0  0  0
    7.0624  -13.0196   17.8820 N   0  0  0  0  0  0  0  0  0  0  0  0
    8.1293  -14.7911   19.0604 C   0  0  0  0  0  0  0  0  0  0  0  0
    8.8453  -14.0390   19.7769 O   0  0  0  0  0  0  0  0  0  0  0  0
    8.0200  -17.9642   21.1814 C   0  0  0  0  0  0  0  0  0  0  0  0
    8.5716  -16.6322   20.7285 C   0  0  2  0  0  0  0  0  0  0  0  0
    7.8869  -16.0982   19.5860 N   0  0  0  0  0  0  0  0  0  0  0  0
   10.0364  -16.6526   20.5790 C   0  0  0  0  0  0  0  0  0  0  0  0
   10.5571  -17.0535   19.5233 O   0  0  0  0  0  0  0  0  0  0  0  0
   15.6621  -15.6349   19.2568 N   0  0  0  0  0  0  0  0  0  0  0  0
   14.6723  -14.7097   19.6280 C   0  0  0  0  0  0  0  0  0  0  0  0
   14.1667  -13.9433   18.7721 O   0  0  0  0  0  0  0  0  0  0  0  0
   14.1727  -14.5825   21.0249 C   0  0  0  0  0  0  0  0  0  0  0  0
   12.7001  -14.7622   21.1239 C   0  0  0  0  0  0  0  0  0  0  0  0
   12.3120  -16.1501   21.5646 C   0  0  2  0  0  0  0  0  0  0  0  0
   10.8485  -16.2140   21.6418 N   0  0  0  0  0  0  0  0  0  0  0  0
   12.8607  -16.5823   22.8418 C   0  0  0  0  0  0  0  0  0  0  0  0
   14.0949  -16.8864   22.9085 O   0  0  0  0  0  0  0  0  0  0  0  0
   12.0577  -16.6660   23.9883 O   0  0  0  0  0  0  0  0  0  0  0  0
  2  3  1  6
  2  1  1  0
  4  2  1  0
  4  5  1  1
  6 10  1  0
  6  4  1  0
  7  6  2  0
  9 10  1  0
  9  8  1  6
 11  9  1  0
 11 19  1  0
 12 11  2  0
 14 13  1  0
 14 15  2  0
 16 14  1  0
 16 17  1  0
 18 17  1  1
 18 19  1  0
 18 20  1  0
 20 21  2  0
 20 22  1  0
M  END
$$$$
