VAQ.pdb
     RDKit          3D

 22 21  0  0  1  0  0  0  0  0999 V2000
    8.0543  -15.6446   20.5287 C   0  0  0  0  0  0  0  0  0  0  0  0
    6.9378  -14.6321   20.4913 C   0  0  2  0  0  0  0  0  0  0  0  0
    6.3876  -14.4387   19.1131 C   0  0  0  0  0  0  0  0  0  0  0  0
    7.4999  -13.3227   21.0602 C   0  0  2  0  0  0  0  0  0  0  0  0
    8.6068  -12.9559   20.2207 N   0  0  0  0  0  0  0  0  0  0  0  0
    8.0084  -13.6219   22.4260 C   0  0  0  0  0  0  0  0  0  0  0  0
    9.1661  -14.0764   22.6375 O   0  0  0  0  0  0  0  0  0  0  0  0
    6.7351  -13.1337   25.9870 C   0  0  0  0  0  0  0  0  0  0  0  0
    7.6547  -13.6882   24.9237 C   0  0  2  0  0  0  0  0  0  0  0  0
    7.2056  -13.4093   23.5896 N   0  0  0  0  0  0  0  0  0  0  0  0
    7.9831  -15.1059   25.1488 C   0  0  0  0  0  0  0  0  0  0  0  0
    7.1841  -15.9988   24.8164 O   0  0  0  0  0  0  0  0  0  0  0  0
   12.4812  -18.9435   23.2155 N   0  0  0  0  0  0  0  0  0  0  0  0
   12.0665  -17.6051   23.3165 C   0  0  0  0  0  0  0  0  0  0  0  0
   12.7798  -16.6826   22.8519 O   0  0  0  0  0  0  0  0  0  0  0  0
   10.7868  -17.2057   23.9646 C   0  0  0  0  0  0  0  0  0  0  0  0
   10.8899  -17.1499   25.4469 C   0  0  0  0  0  0  0  0  0  0  0  0
    9.5768  -16.8206   26.1091 C   0  0  2  0  0  0  0  0  0  0  0  0
    9.2117  -15.4472   25.7450 N   0  0  0  0  0  0  0  0  0  0  0  0
    9.5568  -16.9339   27.5602 C   0  0  0  0  0  0  0  0  0  0  0  0
    9.6000  -15.8714   28.2598 O   0  0  0  0  0  0  0  0  0  0  0  0
    9.4895  -18.1839   28.1920 O   0  0  0  0  0  0  0  0  0  0  0  0
  2  3  1  6
  2  1  1  0
  4  2  1  0
  4  5  1  6
  6 10  1  0
  6  4  1  0
  7  6  2  0
  9 10  1  0
  9  8  1  1
 11  9  1  0
 11 19  1  0
 12 11  2  0
 14 13  1  0
 14 15  2  0
 16 14  1  0
 16 17  1  0
 18 17  1  1
 18 19  1  0
 18 20  1  0
 20 21  2  0
 20 22  1  0
M  END
$$$$
