VAQ.pdb
     RDKit          3D

 22 21  0  0  1  0  0  0  0  0999 V2000
    6.1597  -11.4598   27.1249 C   0  0  0  0  0  0  0  0  0  0  0  0
    7.0267  -12.4348   26.3694 C   0  0  2  0  0  0  0  0  0  0  0  0
    8.0099  -11.7495   25.4732 C   0  0  0  0  0  0  0  0  0  0  0  0
    6.0858  -13.3499   25.5749 C   0  0  2  0  0  0  0  0  0  0  0  0
    5.3133  -14.0787   26.5427 N   0  0  0  0  0  0  0  0  0  0  0  0
    6.9400  -14.3061   24.8201 C   0  0  0  0  0  0  0  0  0  0  0  0
    7.5304  -15.2746   25.3725 O   0  0  0  0  0  0  0  0  0  0  0  0
    7.9541  -14.7667   21.1648 C   0  0  0  0  0  0  0  0  0  0  0  0
    7.9255  -15.1027   22.6379 C   0  0  2  0  0  0  0  0  0  0  0  0
    7.1428  -14.1810   23.4106 N   0  0  0  0  0  0  0  0  0  0  0  0
    9.2719  -15.3345   23.1873 C   0  0  0  0  0  0  0  0  0  0  0  0
   10.0259  -14.3769   23.4339 O   0  0  0  0  0  0  0  0  0  0  0  0
    9.9447  -19.9401   26.9989 N   0  0  0  0  0  0  0  0  0  0  0  0
   10.1957  -18.5956   27.3194 C   0  0  0  0  0  0  0  0  0  0  0  0
   10.3126  -18.2396   28.5174 O   0  0  0  0  0  0  0  0  0  0  0  0
   10.3356  -17.5341   26.2845 C   0  0  0  0  0  0  0  0  0  0  0  0
   10.8769  -18.0546   25.0012 C   0  0  0  0  0  0  0  0  0  0  0  0
   11.0340  -16.9790   23.9575 C   0  0  2  0  0  0  0  0  0  0  0  0
    9.7036  -16.6516   23.4331 N   0  0  0  0  0  0  0  0  0  0  0  0
   11.9029  -17.3097   22.8373 C   0  0  0  0  0  0  0  0  0  0  0  0
   11.3752  -17.6035   21.7168 O   0  0  0  0  0  0  0  0  0  0  0  0
   13.2985  -17.3076   22.9731 O   0  0  0  0  0  0  0  0  0  0  0  0
  2  3  1  6
  2  1  1  0
  4  2  1  0
  4  5  1  1
  6 10  1  0
  6  4  1  0
  7  6  2  0
  9 10  1  0
  9  8  1  6
 11  9  1  0
 11 19  1  0
 12 11  2  0
 14 13  1  0
 14 15  2  0
 16 14  1  0
 16 17  1  0
 18 17  1  1
 18 19  1  0
 18 20  1  0
 20 21  2  0
 20 22  1  0
M  END
$$$$
