VAQ.pdb
     RDKit          3D

 22 21  0  0  1  0  0  0  0  0999 V2000
    7.6941  -12.8237   20.6459 C   0  0  0  0  0  0  0  0  0  0  0  0
    8.7100  -13.3707   19.6755 C   0  0  2  0  0  0  0  0  0  0  0  0
    8.7108  -12.6337   18.3731 C   0  0  0  0  0  0  0  0  0  0  0  0
    8.3876  -14.8578   19.4788 C   0  0  2  0  0  0  0  0  0  0  0  0
    7.1386  -14.9135   18.7707 N   0  0  0  0  0  0  0  0  0  0  0  0
    8.2020  -15.4478   20.8319 C   0  0  0  0  0  0  0  0  0  0  0  0
    7.0634  -15.6683   21.3286 O   0  0  0  0  0  0  0  0  0  0  0  0
    8.5350  -17.9745   22.5034 C   0  0  0  0  0  0  0  0  0  0  0  0
    9.2104  -16.6565   22.8042 C   0  0  2  0  0  0  0  0  0  0  0  0
    9.3151  -15.8024   21.6558 N   0  0  0  0  0  0  0  0  0  0  0  0
   10.4823  -16.8291   23.5259 C   0  0  0  0  0  0  0  0  0  0  0  0
   11.1371  -17.8796   23.4075 O   0  0  0  0  0  0  0  0  0  0  0  0
   10.5631  -13.6400   29.2755 N   0  0  0  0  0  0  0  0  0  0  0  0
    9.4887  -14.0273   28.4574 C   0  0  0  0  0  0  0  0  0  0  0  0
    8.5108  -13.2588   28.2878 O   0  0  0  0  0  0  0  0  0  0  0  0
    9.4427  -15.3406   27.7574 C   0  0  0  0  0  0  0  0  0  0  0  0
    9.6436  -15.2133   26.2896 C   0  0  0  0  0  0  0  0  0  0  0  0
   10.9229  -15.8564   25.8198 C   0  0  2  0  0  0  0  0  0  0  0  0
   10.9558  -15.7944   24.3545 N   0  0  0  0  0  0  0  0  0  0  0  0
   11.1198  -17.2398   26.2276 C   0  0  0  0  0  0  0  0  0  0  0  0
   12.1105  -17.5249   26.9742 O   0  0  0  0  0  0  0  0  0  0  0  0
   10.2417  -18.2523   25.8154 O   0  0  0  0  0  0  0  0  0  0  0  0
  2  3  1  6
  2  1  1  0
  4  2  1  0
  4  5  1  6
  6 10  1  0
  6  4  1  0
  7  6  2  0
  9 10  1  0
  9  8  1  6
 11  9  1  0
 11 19  1  0
 12 11  2  0
 14 13  1  0
 14 15  2  0
 16 14  1  0
 16 17  1  0
 18 17  1  6
 18 19  1  0
 18 20  1  0
 20 21  2  0
 20 22  1  0
M  END
$$$$
