VAQ.pdb
     RDKit          3D

 22 21  0  0  1  0  0  0  0  0999 V2000
    7.7653  -16.9736   22.4509 C   0  0  0  0  0  0  0  0  0  0  0  0
    6.6704  -16.1202   21.8626 C   0  0  2  0  0  0  0  0  0  0  0  0
    6.1789  -16.6458   20.5505 C   0  0  0  0  0  0  0  0  0  0  0  0
    7.2341  -14.7001   21.7230 C   0  0  2  0  0  0  0  0  0  0  0  0
    8.3480  -14.7911   20.8199 N   0  0  0  0  0  0  0  0  0  0  0  0
    7.7323  -14.2934   23.0645 C   0  0  0  0  0  0  0  0  0  0  0  0
    8.8404  -14.6816   23.5262 O   0  0  0  0  0  0  0  0  0  0  0  0
    6.5076  -11.9796   25.8458 C   0  0  0  0  0  0  0  0  0  0  0  0
    7.4352  -12.9831   25.2006 C   0  0  2  0  0  0  0  0  0  0  0  0
    6.9759  -13.4301   23.9167 N   0  0  0  0  0  0  0  0  0  0  0  0
    7.7941  -14.0829   26.1117 C   0  0  0  0  0  0  0  0  0  0  0  0
    7.0277  -15.0499   26.2657 O   0  0  0  0  0  0  0  0  0  0  0  0
   12.5612  -17.4821   25.8460 N   0  0  0  0  0  0  0  0  0  0  0  0
   12.1191  -17.7906   27.1433 C   0  0  0  0  0  0  0  0  0  0  0  0
   12.6225  -18.7523   27.7737 O   0  0  0  0  0  0  0  0  0  0  0  0
   11.0522  -17.0161   27.8355 C   0  0  0  0  0  0  0  0  0  0  0  0
   10.5271  -15.8993   27.0061 C   0  0  0  0  0  0  0  0  0  0  0  0
    9.4681  -15.0959   27.7161 C   0  0  2  0  0  0  0  0  0  0  0  0
    9.0148  -14.0341   26.8110 N   0  0  0  0  0  0  0  0  0  0  0  0
    9.8761  -14.4870   28.9738 C   0  0  0  0  0  0  0  0  0  0  0  0
   10.0685  -13.2294   29.0131 O   0  0  0  0  0  0  0  0  0  0  0  0
   10.0567  -15.2578   30.1310 O   0  0  0  0  0  0  0  0  0  0  0  0
  2  3  1  6
  2  1  1  0
  4  2  1  0
  4  5  1  6
  6 10  1  0
  6  4  1  0
  7  6  2  0
  9 10  1  0
  9  8  1  1
 11  9  1  0
 11 19  1  0
 12 11  2  0
 14 13  1  0
 14 15  2  0
 16 14  1  0
 16 17  1  0
 18 17  1  6
 18 19  1  0
 18 20  1  0
 20 21  2  0
 20 22  1  0
M  END
$$$$
