VAQ.pdb
     RDKit          3D

 22 21  0  0  1  0  0  0  0  0999 V2000
    7.5679  -12.9682   20.4441 C   0  0  0  0  0  0  0  0  0  0  0  0
    8.6345  -13.4213   19.4796 C   0  0  2  0  0  0  0  0  0  0  0  0
    8.5526  -12.7137   18.1635 C   0  0  0  0  0  0  0  0  0  0  0  0
    8.4739  -14.9380   19.3126 C   0  0  2  0  0  0  0  0  0  0  0  0
    7.1883  -15.1470   18.7059 N   0  0  0  0  0  0  0  0  0  0  0  0
    8.4652  -15.5298   20.6776 C   0  0  0  0  0  0  0  0  0  0  0  0
    7.4403  -15.5307   21.4133 O   0  0  0  0  0  0  0  0  0  0  0  0
   10.5644  -18.0366   22.4921 C   0  0  0  0  0  0  0  0  0  0  0  0
    9.6297  -16.8490   22.4863 C   0  0  2  0  0  0  0  0  0  0  0  0
    9.6304  -16.1380   21.2399 N   0  0  0  0  0  0  0  0  0  0  0  0
    9.8198  -15.9791   23.6591 C   0  0  0  0  0  0  0  0  0  0  0  0
   10.7866  -15.1990   23.7156 O   0  0  0  0  0  0  0  0  0  0  0  0
    5.1961  -13.2327   26.5866 N   0  0  0  0  0  0  0  0  0  0  0  0
    6.3973  -12.5403   26.8132 C   0  0  0  0  0  0  0  0  0  0  0  0
    6.3786  -11.3414   27.1847 O   0  0  0  0  0  0  0  0  0  0  0  0
    7.7350  -13.1685   26.6317 C   0  0  0  0  0  0  0  0  0  0  0  0
    7.6460  -14.5822   26.1797 C   0  0  0  0  0  0  0  0  0  0  0  0
    8.9977  -15.1959   25.9204 C   0  0  2  0  0  0  0  0  0  0  0  0
    8.8976  -16.0349   24.7211 N   0  0  0  0  0  0  0  0  0  0  0  0
    9.5422  -16.0021   27.0033 C   0  0  0  0  0  0  0  0  0  0  0  0
   10.1969  -15.4245   27.9295 O   0  0  0  0  0  0  0  0  0  0  0  0
    9.3562  -17.3914   27.0412 O   0  0  0  0  0  0  0  0  0  0  0  0
  2  3  1  6
  2  1  1  0
  4  2  1  0
  4  5  1  1
  6 10  1  0
  6  4  1  0
  7  6  2  0
  9 10  1  0
  9  8  1  6
 11  9  1  0
 11 19  1  0
 12 11  2  0
 14 13  1  0
 14 15  2  0
 16 14  1  0
 16 17  1  0
 18 17  1  1
 18 19  1  0
 18 20  1  0
 20 21  2  0
 20 22  1  0
M  END
$$$$
