VAQ.pdb
     RDKit          3D

 22 21  0  0  1  0  0  0  0  0999 V2000
    7.5742  -12.8168   20.8134 C   0  0  0  0  0  0  0  0  0  0  0  0
    8.5981  -13.4450   19.9024 C   0  0  2  0  0  0  0  0  0  0  0  0
    8.5943  -12.8386   18.5343 C   0  0  0  0  0  0  0  0  0  0  0  0
    8.2919  -14.9475   19.8513 C   0  0  2  0  0  0  0  0  0  0  0  0
    7.0116  -15.0808   19.2129 N   0  0  0  0  0  0  0  0  0  0  0  0
    8.1812  -15.4194   21.2580 C   0  0  0  0  0  0  0  0  0  0  0  0
    7.1554  -15.2196   21.9648 O   0  0  0  0  0  0  0  0  0  0  0  0
    9.7216  -18.1222   23.2608 C   0  0  0  0  0  0  0  0  0  0  0  0
    9.1239  -16.7358   23.1935 C   0  0  2  0  0  0  0  0  0  0  0  0
    9.2422  -16.1340   21.8962 N   0  0  0  0  0  0  0  0  0  0  0  0
    9.5915  -15.8690   24.2882 C   0  0  0  0  0  0  0  0  0  0  0  0
   10.6904  -15.2922   24.2104 O   0  0  0  0  0  0  0  0  0  0  0  0
    5.7243  -11.1756   25.9546 N   0  0  0  0  0  0  0  0  0  0  0  0
    6.2392  -12.3188   26.5883 C   0  0  0  0  0  0  0  0  0  0  0  0
    5.6960  -12.7680   27.6269 O   0  0  0  0  0  0  0  0  0  0  0  0
    7.4319  -13.0518   26.0810 C   0  0  0  0  0  0  0  0  0  0  0  0
    7.8867  -14.1178   27.0125 C   0  0  0  0  0  0  0  0  0  0  0  0
    9.1410  -14.8067   26.5400 C   0  0  2  0  0  0  0  0  0  0  0  0
    8.7847  -15.6953   25.4285 N   0  0  0  0  0  0  0  0  0  0  0  0
    9.8488  -15.5861   27.5452 C   0  0  0  0  0  0  0  0  0  0  0  0
    9.7338  -16.8538   27.5324 O   0  0  0  0  0  0  0  0  0  0  0  0
   10.6487  -14.9671   28.5163 O   0  0  0  0  0  0  0  0  0  0  0  0
  2  3  1  6
  2  1  1  0
  4  2  1  0
  4  5  1  6
  6 10  1  0
  6  4  1  0
  7  6  2  0
  9 10  1  0
  9  8  1  6
 11  9  1  0
 11 19  1  0
 12 11  2  0
 14 13  1  0
 14 15  2  0
 16 14  1  0
 16 17  1  0
 18 17  1  1
 18 19  1  0
 18 20  1  0
 20 21  2  0
 20 22  1  0
M  END
$$$$
