VAQ.pdb
     RDKit          3D

 22 21  0  0  1  0  0  0  0  0999 V2000
   10.7828  -17.3007   15.1826 C   0  0  0  0  0  0  0  0  0  0  0  0
   10.5748  -16.5580   16.4781 C   0  0  2  0  0  0  0  0  0  0  0  0
   10.3822  -17.4802   17.6409 C   0  0  0  0  0  0  0  0  0  0  0  0
    9.3596  -15.6424   16.2805 C   0  0  2  0  0  0  0  0  0  0  0  0
    9.6132  -14.8807   15.0888 N   0  0  0  0  0  0  0  0  0  0  0  0
    9.3154  -14.7169   17.4445 C   0  0  0  0  0  0  0  0  0  0  0  0
   10.2931  -13.9914   17.7755 O   0  0  0  0  0  0  0  0  0  0  0  0
    6.6905  -13.2096   19.6759 C   0  0  0  0  0  0  0  0  0  0  0  0
    8.0791  -13.7481   19.4196 C   0  0  2  0  0  0  0  0  0  0  0  0
    8.1501  -14.5952   18.2635 N   0  0  0  0  0  0  0  0  0  0  0  0
    8.6809  -14.3454   20.6235 C   0  0  0  0  0  0  0  0  0  0  0  0
    8.7286  -13.7054   21.6886 O   0  0  0  0  0  0  0  0  0  0  0  0
    9.8106  -20.5616   20.6855 N   0  0  0  0  0  0  0  0  0  0  0  0
   10.7620  -19.6830   20.1409 C   0  0  0  0  0  0  0  0  0  0  0  0
   11.6532  -20.1120   19.3681 O   0  0  0  0  0  0  0  0  0  0  0  0
   10.7735  -18.2241   20.4385 C   0  0  0  0  0  0  0  0  0  0  0  0
    9.7360  -17.8347   21.4298 C   0  0  0  0  0  0  0  0  0  0  0  0
    9.7434  -16.3579   21.7296 C   0  0  2  0  0  0  0  0  0  0  0  0
    9.2043  -15.6507   20.5629 N   0  0  0  0  0  0  0  0  0  0  0  0
   11.0424  -15.7873   22.0553 C   0  0  0  0  0  0  0  0  0  0  0  0
   11.6415  -16.1844   23.1058 O   0  0  0  0  0  0  0  0  0  0  0  0
   11.6379  -14.8178   21.2358 O   0  0  0  0  0  0  0  0  0  0  0  0
  2  3  1  1
  2  1  1  0
  4  2  1  0
  4  5  1  6
  6 10  1  0
  6  4  1  0
  7  6  2  0
  9 10  1  0
  9  8  1  1
 11  9  1  0
 11 19  1  0
 12 11  2  0
 14 13  1  0
 14 15  2  0
 16 14  1  0
 16 17  1  0
 18 17  1  6
 18 19  1  0
 18 20  1  0
 20 21  2  0
 20 22  1  0
M  END
$$$$
