LHH.pdb
     RDKit          3D

 29 30  0  0  1  0  0  0  0  0999 V2000
   27.8422  -14.9842  -17.7145 C   0  0  0  0  0  0  0  0  0  0  0  0
   27.6405  -13.7594  -16.8455 C   0  0  1  0  0  0  0  0  0  0  0  0
   28.7209  -12.7418  -17.0327 C   0  0  0  0  0  0  0  0  0  0  0  0
   26.2607  -13.2019  -16.9759 C   0  0  0  0  0  0  0  0  0  0  0  0
   25.9867  -12.0233  -16.1098 C   0  0  2  0  0  0  0  0  0  0  0  0
   26.0873  -12.3110  -14.6973 N   0  0  0  0  0  0  0  0  0  0  0  0
   24.6120  -11.5234  -16.4535 C   0  0  0  0  0  0  0  0  0  0  0  0
   24.3916  -11.2668  -17.6649 O   0  0  0  0  0  0  0  0  0  0  0  0
   23.6032  -11.3439  -15.4796 N   0  0  0  0  0  0  0  0  0  0  0  0
   22.2640  -10.8566  -15.8462 C   0  0  1  0  0  0  0  0  0  0  0  0
   21.2088  -11.6251  -15.1128 C   0  0  0  0  0  0  0  0  0  0  0  0
   20.8958  -12.8802  -15.8011 C   0  0  0  0  0  0  0  0  0  0  0  0
   21.3786  -13.3207  -17.0028 C   0  0  0  0  0  0  0  0  0  0  0  0
   20.8040  -14.4982  -17.2490 N   0  0  0  0  0  0  0  0  0  0  0  0
   19.9850  -14.8074  -16.2521 C   0  0  0  0  0  0  0  0  0  0  0  0
   20.0209  -13.8313  -15.3476 N   0  0  0  0  0  0  0  0  0  0  0  0
   22.1989   -9.4283  -15.5134 C   0  0  0  0  0  0  0  0  0  0  0  0
   22.6849   -8.9223  -14.4718 O   0  0  0  0  0  0  0  0  0  0  0  0
   21.5534   -8.5280  -16.3999 N   0  0  0  0  0  0  0  0  0  0  0  0
   21.4342   -7.0988  -16.0813 C   0  0  1  0  0  0  0  0  0  0  0  0
   21.1892   -6.3766  -17.3637 C   0  0  0  0  0  0  0  0  0  0  0  0
   20.9922   -4.9367  -17.2184 C   0  0  0  0  0  0  0  0  0  0  0  0
   21.9124   -4.0462  -16.7285 C   0  0  0  0  0  0  0  0  0  0  0  0
   21.3444   -2.8306  -16.7601 N   0  0  0  0  0  0  0  0  0  0  0  0
   20.1058   -2.9602  -17.2555 C   0  0  0  0  0  0  0  0  0  0  0  0
   19.8941   -4.2518  -17.5349 N   0  0  0  0  0  0  0  0  0  0  0  0
   20.3628   -6.8780  -15.0772 C   0  0  0  0  0  0  0  0  0  0  0  0
   19.2946   -7.5370  -15.1434 O   0  0  0  0  0  0  0  0  0  0  0  0
   20.4764   -5.9610  -14.0424 O   0  0  0  0  0  0  0  0  0  0  0  0
  2  1  1  6
  2  3  1  0
  4  2  1  0
  5  4  1  0
  5  6  1  1
  7  8  2  0
  7  5  1  0
  9  7  1  0
 10 11  1  1
 10  9  1  0
 11 12  1  0
 12 13  2  0
 12 16  1  0
 13 14  1  0
 14 15  1  0
 16 15  2  0
 17 10  1  0
 18 17  2  0
 19 17  1  0
 20 19  1  0
 21 22  1  0
 20 21  1  6
 22 23  2  0
 23 24  1  0
 25 24  1  0
 26 22  1  0
 26 25  2  0
 27 20  1  0
 27 29  1  0
 28 27  2  0
M  END
$$$$
