LHH.pdb
     RDKit          3D

 29 30  0  0  1  0  0  0  0  0999 V2000
   23.0238  -29.7194   -9.2517 C   0  0  0  0  0  0  0  0  0  0  0  0
   21.7348  -30.3250   -9.7691 C   0  0  1  0  0  0  0  0  0  0  0  0
   21.3620  -31.5796   -9.0447 C   0  0  0  0  0  0  0  0  0  0  0  0
   20.6319  -29.3197   -9.8367 C   0  0  0  0  0  0  0  0  0  0  0  0
   19.3313  -29.8615  -10.3156 C   0  0  2  0  0  0  0  0  0  0  0  0
   19.3476  -30.2521  -11.7067 N   0  0  0  0  0  0  0  0  0  0  0  0
   18.2887  -28.8074  -10.0720 C   0  0  0  0  0  0  0  0  0  0  0  0
   18.1223  -27.9571  -10.9837 O   0  0  0  0  0  0  0  0  0  0  0  0
   17.5227  -28.7562   -8.8850 N   0  0  0  0  0  0  0  0  0  0  0  0
   16.5423  -27.6836   -8.6527 C   0  0  1  0  0  0  0  0  0  0  0  0
   15.1553  -28.1732   -8.9323 C   0  0  0  0  0  0  0  0  0  0  0  0
   14.1705  -27.1047   -8.7443 C   0  0  0  0  0  0  0  0  0  0  0  0
   13.9635  -26.0066   -9.5335 C   0  0  0  0  0  0  0  0  0  0  0  0
   12.9875  -25.2955   -8.9687 N   0  0  0  0  0  0  0  0  0  0  0  0
   12.5800  -25.9046   -7.8627 C   0  0  0  0  0  0  0  0  0  0  0  0
   13.2894  -27.0192   -7.6994 N   0  0  0  0  0  0  0  0  0  0  0  0
   16.6736  -27.2495   -7.2565 C   0  0  0  0  0  0  0  0  0  0  0  0
   17.1441  -27.9625   -6.3359 O   0  0  0  0  0  0  0  0  0  0  0  0
   16.2529  -25.9473   -6.8821 N   0  0  0  0  0  0  0  0  0  0  0  0
   16.3488  -25.4862   -5.4905 C   0  0  1  0  0  0  0  0  0  0  0  0
   17.7823  -25.5824   -5.0883 C   0  0  0  0  0  0  0  0  0  0  0  0
   18.0659  -26.6262   -4.1068 C   0  0  0  0  0  0  0  0  0  0  0  0
   18.1805  -27.9667   -4.3712 C   0  0  0  0  0  0  0  0  0  0  0  0
   18.4435  -28.5801   -3.2068 N   0  0  0  0  0  0  0  0  0  0  0  0
   18.4915  -27.6484   -2.2445 C   0  0  0  0  0  0  0  0  0  0  0  0
   18.2597  -26.4531   -2.8001 N   0  0  0  0  0  0  0  0  0  0  0  0
   15.8004  -24.1125   -5.3594 C   0  0  0  0  0  0  0  0  0  0  0  0
   15.4723  -23.4666   -6.3865 O   0  0  0  0  0  0  0  0  0  0  0  0
   15.6247  -23.4843   -4.1350 O   0  0  0  0  0  0  0  0  0  0  0  0
  2  1  1  1
  2  3  1  0
  4  2  1  0
  5  4  1  0
  5  6  1  6
  7  8  2  0
  7  5  1  0
  9  7  1  0
 10 11  1  1
 10  9  1  0
 11 12  1  0
 12 13  2  0
 12 16  1  0
 13 14  1  0
 14 15  1  0
 16 15  2  0
 17 10  1  0
 18 17  2  0
 19 17  1  0
 20 19  1  0
 21 22  1  0
 20 21  1  6
 22 23  2  0
 23 24  1  0
 25 24  1  0
 26 22  1  0
 26 25  2  0
 27 20  1  0
 27 29  1  0
 28 27  2  0
M  END
$$$$
