LHH.pdb
     RDKit          3D

 29 30  0  0  1  0  0  0  0  0999 V2000
   27.6821  -12.1029  -16.3188 C   0  0  0  0  0  0  0  0  0  0  0  0
   27.5801  -13.6083  -16.4588 C   0  0  1  0  0  0  0  0  0  0  0  0
   27.9725  -14.3264  -15.2066 C   0  0  0  0  0  0  0  0  0  0  0  0
   26.2550  -14.0310  -17.0039 C   0  0  0  0  0  0  0  0  0  0  0  0
   26.0219  -15.5006  -16.9893 C   0  0  2  0  0  0  0  0  0  0  0  0
   26.9701  -16.2419  -17.7891 N   0  0  0  0  0  0  0  0  0  0  0  0
   24.6192  -15.7376  -17.4729 C   0  0  0  0  0  0  0  0  0  0  0  0
   24.1243  -14.8568  -18.2219 O   0  0  0  0  0  0  0  0  0  0  0  0
   23.8761  -16.8858  -17.1156 N   0  0  0  0  0  0  0  0  0  0  0  0
   22.5610  -17.1632  -17.7150 C   0  0  1  0  0  0  0  0  0  0  0  0
   22.4837  -18.5874  -18.1706 C   0  0  0  0  0  0  0  0  0  0  0  0
   23.0459  -18.7427  -19.5148 C   0  0  0  0  0  0  0  0  0  0  0  0
   23.5035  -17.7615  -20.3510 C   0  0  0  0  0  0  0  0  0  0  0  0
   23.8988  -18.3574  -21.4761 N   0  0  0  0  0  0  0  0  0  0  0  0
   23.7061  -19.6661  -21.3744 C   0  0  0  0  0  0  0  0  0  0  0  0
   23.1828  -19.9321  -20.1797 N   0  0  0  0  0  0  0  0  0  0  0  0
   21.5369  -16.8805  -16.7020 C   0  0  0  0  0  0  0  0  0  0  0  0
   21.6764  -17.1042  -15.4741 O   0  0  0  0  0  0  0  0  0  0  0  0
   20.2950  -16.3180  -17.0949 N   0  0  0  0  0  0  0  0  0  0  0  0
   19.2401  -16.0380  -16.1116 C   0  0  1  0  0  0  0  0  0  0  0  0
   18.5403  -14.7961  -16.5522 C   0  0  0  0  0  0  0  0  0  0  0  0
   19.2379  -13.5576  -16.2164 C   0  0  0  0  0  0  0  0  0  0  0  0
   20.3831  -13.4589  -15.4690 C   0  0  0  0  0  0  0  0  0  0  0  0
   20.6970  -12.1562  -15.3937 N   0  0  0  0  0  0  0  0  0  0  0  0
   19.7739  -11.4632  -16.0748 C   0  0  0  0  0  0  0  0  0  0  0  0
   18.8820  -12.3254  -16.5771 N   0  0  0  0  0  0  0  0  0  0  0  0
   18.3283  -17.2027  -15.9818 C   0  0  0  0  0  0  0  0  0  0  0  0
   18.3428  -18.1115  -16.8500 O   0  0  0  0  0  0  0  0  0  0  0  0
   17.4372  -17.3492  -14.9286 O   0  0  0  0  0  0  0  0  0  0  0  0
  2  1  1  1
  2  3  1  0
  4  2  1  0
  5  4  1  0
  5  6  1  6
  7  8  2  0
  7  5  1  0
  9  7  1  0
 10 11  1  1
 10  9  1  0
 11 12  1  0
 12 13  2  0
 12 16  1  0
 13 14  1  0
 14 15  1  0
 16 15  2  0
 17 10  1  0
 18 17  2  0
 19 17  1  0
 20 19  1  0
 21 22  1  0
 20 21  1  6
 22 23  2  0
 23 24  1  0
 25 24  1  0
 26 22  1  0
 26 25  2  0
 27 20  1  0
 27 29  1  0
 28 27  2  0
M  END
$$$$
