LHH.pdb
     RDKit          3D

 29 30  0  0  1  0  0  0  0  0999 V2000
   28.0883  -14.9595  -18.7286 C   0  0  0  0  0  0  0  0  0  0  0  0
   27.7747  -16.3992  -18.3755 C   0  0  1  0  0  0  0  0  0  0  0  0
   28.9996  -17.2570  -18.3334 C   0  0  0  0  0  0  0  0  0  0  0  0
   26.9262  -16.5027  -17.1503 C   0  0  0  0  0  0  0  0  0  0  0  0
   26.5756  -17.8947  -16.7581 C   0  0  2  0  0  0  0  0  0  0  0  0
   26.6158  -18.8304  -17.8585 N   0  0  0  0  0  0  0  0  0  0  0  0
   25.2052  -17.8562  -16.1432 C   0  0  0  0  0  0  0  0  0  0  0  0
   25.0598  -17.1188  -15.1348 O   0  0  0  0  0  0  0  0  0  0  0  0
   24.1206  -18.6034  -16.6569 N   0  0  0  0  0  0  0  0  0  0  0  0
   22.7546  -18.4236  -16.1399 C   0  0  1  0  0  0  0  0  0  0  0  0
   21.7825  -18.2793  -17.2696 C   0  0  0  0  0  0  0  0  0  0  0  0
   21.7688  -16.9066  -17.7819 C   0  0  0  0  0  0  0  0  0  0  0  0
   21.9665  -15.7481  -17.0818 C   0  0  0  0  0  0  0  0  0  0  0  0
   21.8395  -14.7407  -17.9456 N   0  0  0  0  0  0  0  0  0  0  0  0
   21.5711  -15.2240  -19.1517 C   0  0  0  0  0  0  0  0  0  0  0  0
   21.5215  -16.5524  -19.0815 N   0  0  0  0  0  0  0  0  0  0  0  0
   22.4292  -19.5930  -15.3143 C   0  0  0  0  0  0  0  0  0  0  0  0
   22.6231  -20.7828  -15.6662 O   0  0  0  0  0  0  0  0  0  0  0  0
   21.8567  -19.4095  -14.0292 N   0  0  0  0  0  0  0  0  0  0  0  0
   21.4060  -20.5536  -13.2253 C   0  0  1  0  0  0  0  0  0  0  0  0
   21.9893  -20.3955  -11.8612 C   0  0  0  0  0  0  0  0  0  0  0  0
   23.3522  -20.9026  -11.7241 C   0  0  0  0  0  0  0  0  0  0  0  0
   24.1057  -21.4595  -12.7250 C   0  0  0  0  0  0  0  0  0  0  0  0
   25.2908  -21.7937  -12.1909 N   0  0  0  0  0  0  0  0  0  0  0  0
   25.2758  -21.4548  -10.8943 C   0  0  0  0  0  0  0  0  0  0  0  0
   24.0866  -20.9093  -10.6125 N   0  0  0  0  0  0  0  0  0  0  0  0
   19.9231  -20.6306  -13.2168 C   0  0  0  0  0  0  0  0  0  0  0  0
   19.2398  -19.6117  -13.4899 O   0  0  0  0  0  0  0  0  0  0  0  0
   19.2301  -21.7943  -12.9163 O   0  0  0  0  0  0  0  0  0  0  0  0
  2  1  1  1
  2  3  1  0
  4  2  1  0
  5  4  1  0
  5  6  1  6
  7  8  2  0
  7  5  1  0
  9  7  1  0
 10 11  1  6
 10  9  1  0
 11 12  1  0
 12 13  2  0
 12 16  1  0
 13 14  1  0
 14 15  1  0
 16 15  2  0
 17 10  1  0
 18 17  2  0
 19 17  1  0
 20 19  1  0
 21 22  1  0
 20 21  1  1
 22 23  2  0
 23 24  1  0
 25 24  1  0
 26 22  1  0
 26 25  2  0
 27 20  1  0
 27 29  1  0
 28 27  2  0
M  END
$$$$
