LHH.pdb
     RDKit          3D

 29 30  0  0  1  0  0  0  0  0999 V2000
   19.2129  -10.5191    6.8980 C   0  0  0  0  0  0  0  0  0  0  0  0
   20.1695  -11.6880    7.0185 C   0  0  1  0  0  0  0  0  0  0  0  0
   21.1296  -11.5257    8.1542 C   0  0  0  0  0  0  0  0  0  0  0  0
   19.4536  -12.9991    7.0195 C   0  0  0  0  0  0  0  0  0  0  0  0
   19.0889  -13.5043    5.6682 C   0  0  2  0  0  0  0  0  0  0  0  0
   18.2111  -12.6175    4.9395 N   0  0  0  0  0  0  0  0  0  0  0  0
   18.4506  -14.8524    5.8500 C   0  0  0  0  0  0  0  0  0  0  0  0
   18.4163  -15.3068    7.0222 O   0  0  0  0  0  0  0  0  0  0  0  0
   17.9100  -15.5888    4.7712 N   0  0  0  0  0  0  0  0  0  0  0  0
   17.2620  -16.8928    4.9836 C   0  0  1  0  0  0  0  0  0  0  0  0
   16.7936  -17.4627    3.6806 C   0  0  0  0  0  0  0  0  0  0  0  0
   16.1163  -18.7467    3.8792 C   0  0  0  0  0  0  0  0  0  0  0  0
   15.8767  -19.3948    5.0599 C   0  0  0  0  0  0  0  0  0  0  0  0
   15.2588  -20.5379    4.7620 N   0  0  0  0  0  0  0  0  0  0  0  0
   15.1048  -20.6274    3.4473 C   0  0  0  0  0  0  0  0  0  0  0  0
   15.6224  -19.5408    2.8787 N   0  0  0  0  0  0  0  0  0  0  0  0
   18.2398  -17.7816    5.6232 C   0  0  0  0  0  0  0  0  0  0  0  0
   19.4164  -17.9472    5.2167 O   0  0  0  0  0  0  0  0  0  0  0  0
   17.8706  -18.5190    6.7777 N   0  0  0  0  0  0  0  0  0  0  0  0
   18.8148  -19.4357    7.4306 C   0  0  1  0  0  0  0  0  0  0  0  0
   18.8123  -19.1130    8.8873 C   0  0  0  0  0  0  0  0  0  0  0  0
   19.6740  -19.9696    9.6977 C   0  0  0  0  0  0  0  0  0  0  0  0
   20.2892  -21.1195    9.2744 C   0  0  0  0  0  0  0  0  0  0  0  0
   20.9851  -21.6037   10.3149 N   0  0  0  0  0  0  0  0  0  0  0  0
   20.8084  -20.7791   11.3566 C   0  0  0  0  0  0  0  0  0  0  0  0
   20.0048  -19.7796   10.9743 N   0  0  0  0  0  0  0  0  0  0  0  0
   18.4485  -20.8468    7.1484 C   0  0  0  0  0  0  0  0  0  0  0  0
   17.2511  -21.2163    7.2464 O   0  0  0  0  0  0  0  0  0  0  0  0
   19.3773  -21.8064    6.7728 O   0  0  0  0  0  0  0  0  0  0  0  0
  2  1  1  1
  2  3  1  0
  4  2  1  0
  5  4  1  0
  5  6  1  1
  7  8  2  0
  7  5  1  0
  9  7  1  0
 10 11  1  6
 10  9  1  0
 11 12  1  0
 12 13  2  0
 12 16  1  0
 13 14  1  0
 14 15  1  0
 16 15  2  0
 17 10  1  0
 18 17  2  0
 19 17  1  0
 20 19  1  0
 21 22  1  0
 20 21  1  1
 22 23  2  0
 23 24  1  0
 25 24  1  0
 26 22  1  0
 26 25  2  0
 27 20  1  0
 27 29  1  0
 28 27  2  0
M  END
$$$$
