LHH.pdb
     RDKit          3D

 29 30  0  0  1  0  0  0  0  0999 V2000
   26.9153  -10.1902  -15.5929 C   0  0  0  0  0  0  0  0  0  0  0  0
   25.4856  -10.5024  -15.9861 C   0  0  1  0  0  0  0  0  0  0  0  0
   25.1220  -11.9309  -15.7310 C   0  0  0  0  0  0  0  0  0  0  0  0
   24.5188   -9.5232  -15.4048 C   0  0  0  0  0  0  0  0  0  0  0  0
   23.0974   -9.7672  -15.7713 C   0  0  2  0  0  0  0  0  0  0  0  0
   22.9251  -10.2392  -17.1262 N   0  0  0  0  0  0  0  0  0  0  0  0
   22.3515   -8.4804  -15.5582 C   0  0  0  0  0  0  0  0  0  0  0  0
   22.3904   -7.9910  -14.4002 O   0  0  0  0  0  0  0  0  0  0  0  0
   21.6361   -7.8363  -16.5934 N   0  0  0  0  0  0  0  0  0  0  0  0
   20.9029   -6.5834  -16.3520 C   0  0  1  0  0  0  0  0  0  0  0  0
   21.3383   -5.5276  -17.3202 C   0  0  0  0  0  0  0  0  0  0  0  0
   22.6199   -4.9408  -16.9200 C   0  0  0  0  0  0  0  0  0  0  0  0
   23.2173   -4.9900  -15.6903 C   0  0  0  0  0  0  0  0  0  0  0  0
   24.3550   -4.3007  -15.7786 N   0  0  0  0  0  0  0  0  0  0  0  0
   24.4893   -3.8255  -17.0100 C   0  0  0  0  0  0  0  0  0  0  0  0
   23.4378   -4.2030  -17.7337 N   0  0  0  0  0  0  0  0  0  0  0  0
   19.4697   -6.8670  -16.4950 C   0  0  0  0  0  0  0  0  0  0  0  0
   19.0002   -7.8058  -17.1845 O   0  0  0  0  0  0  0  0  0  0  0  0
   18.5208   -6.0504  -15.8272 N   0  0  0  0  0  0  0  0  0  0  0  0
   17.0775   -6.2534  -16.0108 C   0  0  1  0  0  0  0  0  0  0  0  0
   16.7663   -7.6474  -15.5796 C   0  0  0  0  0  0  0  0  0  0  0  0
   15.3418   -7.9691  -15.5562 C   0  0  0  0  0  0  0  0  0  0  0  0
   14.5188   -8.0479  -16.6500 C   0  0  0  0  0  0  0  0  0  0  0  0
   13.2939   -8.3660  -16.2031 N   0  0  0  0  0  0  0  0  0  0  0  0
   13.3522   -8.4820  -14.8691 C   0  0  0  0  0  0  0  0  0  0  0  0
   14.6083   -8.2382  -14.4770 N   0  0  0  0  0  0  0  0  0  0  0  0
   16.3090   -5.2286  -15.2597 C   0  0  0  0  0  0  0  0  0  0  0  0
   15.1734   -4.8733  -15.6647 O   0  0  0  0  0  0  0  0  0  0  0  0
   16.7856   -4.6245  -14.1053 O   0  0  0  0  0  0  0  0  0  0  0  0
  2  1  1  1
  2  3  1  0
  4  2  1  0
  5  4  1  0
  5  6  1  6
  7  8  2  0
  7  5  1  0
  9  7  1  0
 10 11  1  6
 10  9  1  0
 11 12  1  0
 12 13  2  0
 12 16  1  0
 13 14  1  0
 14 15  1  0
 16 15  2  0
 17 10  1  0
 18 17  2  0
 19 17  1  0
 20 19  1  0
 21 22  1  0
 20 21  1  1
 22 23  2  0
 23 24  1  0
 25 24  1  0
 26 22  1  0
 26 25  2  0
 27 20  1  0
 27 29  1  0
 28 27  2  0
M  END
$$$$
