IEG.pdb
     RDKit          3D

 22 21  0  0  1  0  0  0  0  0999 V2000
   28.7473  -19.9282   -5.0196 C   0  0  0  0  0  0  0  0  0  0  0  0
   27.2888  -20.1077   -5.3795 C   0  0  0  0  0  0  0  0  0  0  0  0
   27.1296  -19.9037   -6.8754 C   0  0  2  0  0  0  0  0  0  0  0  0
   27.4836  -18.4529   -7.1739 C   0  0  0  0  0  0  0  0  0  0  0  0
   25.7123  -20.1164   -7.3179 C   0  0  2  0  0  0  0  0  0  0  0  0
   25.1286  -21.3391   -6.8427 N   0  0  0  0  0  0  0  0  0  0  0  0
   25.6137  -19.9628   -8.7776 C   0  0  0  0  0  0  0  0  0  0  0  0
   25.8265  -18.8246   -9.2710 O   0  0  0  0  0  0  0  0  0  0  0  0
   25.2925  -21.0223   -9.6639 N   0  0  0  0  0  0  0  0  0  0  0  0
   25.1747  -20.7661  -11.0722 C   0  0  1  0  0  0  0  0  0  0  0  0
   25.8743  -21.8244  -11.8951 C   0  0  0  0  0  0  0  0  0  0  0  0
   27.3276  -21.5029  -12.1391 C   0  0  0  0  0  0  0  0  0  0  0  0
   27.5356  -21.3431  -13.5886 C   0  0  0  0  0  0  0  0  0  0  0  0
   26.6132  -21.6118  -14.3826 O   0  0  0  0  0  0  0  0  0  0  0  0
   23.7225  -20.6857  -11.4177 C   0  0  0  0  0  0  0  0  0  0  0  0
   22.8640  -21.3018  -10.7367 O   0  0  0  0  0  0  0  0  0  0  0  0
   28.7442  -20.8984  -14.0711 O   0  0  0  0  0  0  0  0  0  0  0  0
   23.2317  -19.9202  -12.5185 N   0  0  0  0  0  0  0  0  0  0  0  0
   21.8439  -19.7716  -12.8223 C   0  0  0  0  0  0  0  0  0  0  0  0
   21.1664  -21.0396  -13.1632 C   0  0  0  0  0  0  0  0  0  0  0  0
   19.9246  -21.2796  -12.5940 O   0  0  0  0  0  0  0  0  0  0  0  0
   21.6312  -21.9196  -13.9314 O   0  0  0  0  0  0  0  0  0  0  0  0
  2  1  1  0
  3  5  1  0
  3  2  1  0
  3  4  1  1
  5  7  1  0
  5  6  1  6
  7  8  2  0
  9  7  1  0
  9 10  1  0
 10 15  1  0
 10 11  1  6
 11 12  1  0
 12 13  1  0
 13 14  2  0
 13 17  1  0
 15 16  2  0
 18 19  1  0
 18 15  1  0
 20 19  1  0
 21 20  1  0
 22 20  2  0
M  END
$$$$
