IEG.pdb
     RDKit          3D

 22 21  0  0  1  0  0  0  0  0999 V2000
   17.4228  -13.0482  -14.9076 C   0  0  0  0  0  0  0  0  0  0  0  0
   18.0946  -12.6986  -16.2174 C   0  0  0  0  0  0  0  0  0  0  0  0
   19.3233  -11.8570  -15.9228 C   0  0  2  0  0  0  0  0  0  0  0  0
   18.8351  -10.4889  -15.4660 C   0  0  0  0  0  0  0  0  0  0  0  0
   20.1591  -11.6447  -17.1501 C   0  0  2  0  0  0  0  0  0  0  0  0
   20.7020  -12.8528  -17.7042 N   0  0  0  0  0  0  0  0  0  0  0  0
   21.1839  -10.6221  -16.8889 C   0  0  0  0  0  0  0  0  0  0  0  0
   22.3356  -11.0065  -16.5569 O   0  0  0  0  0  0  0  0  0  0  0  0
   20.9516   -9.2267  -16.9889 N   0  0  0  0  0  0  0  0  0  0  0  0
   22.0382   -8.3056  -16.8052 C   0  0  1  0  0  0  0  0  0  0  0  0
   22.4482   -7.6553  -18.1073 C   0  0  0  0  0  0  0  0  0  0  0  0
   23.5813   -6.6748  -17.9344 C   0  0  0  0  0  0  0  0  0  0  0  0
   23.8547   -6.0399  -19.2353 C   0  0  0  0  0  0  0  0  0  0  0  0
   23.1032   -5.1402  -19.6583 O   0  0  0  0  0  0  0  0  0  0  0  0
   21.6244   -7.2822  -15.7972 C   0  0  0  0  0  0  0  0  0  0  0  0
   20.5236   -6.6842  -15.9019 O   0  0  0  0  0  0  0  0  0  0  0  0
   24.9366   -6.4355  -19.9864 O   0  0  0  0  0  0  0  0  0  0  0  0
   22.4364   -6.9287  -14.6772 N   0  0  0  0  0  0  0  0  0  0  0  0
   22.0899   -5.9082  -13.7397 C   0  0  0  0  0  0  0  0  0  0  0  0
   22.0145   -4.5551  -14.3283 C   0  0  0  0  0  0  0  0  0  0  0  0
   21.6751   -3.5051  -13.4880 O   0  0  0  0  0  0  0  0  0  0  0  0
   22.2348   -4.2825  -15.5357 O   0  0  0  0  0  0  0  0  0  0  0  0
  2  1  1  0
  3  5  1  0
  3  2  1  0
  3  4  1  6
  5  7  1  0
  5  6  1  1
  7  8  2  0
  9  7  1  0
  9 10  1  0
 10 15  1  0
 10 11  1  6
 11 12  1  0
 12 13  1  0
 13 14  2  0
 13 17  1  0
 15 16  2  0
 18 19  1  0
 18 15  1  0
 20 19  1  0
 21 20  1  0
 22 20  2  0
M  END
$$$$
