IEG.pdb
     RDKit          3D

 22 21  0  0  1  0  0  0  0  0999 V2000
   11.4848   -8.4769   -8.8354 C   0  0  0  0  0  0  0  0  0  0  0  0
   11.7355   -9.7126   -9.6717 C   0  0  0  0  0  0  0  0  0  0  0  0
   13.1820   -9.7012  -10.1324 C   0  0  2  0  0  0  0  0  0  0  0  0
   13.3798   -8.4446  -10.9694 C   0  0  0  0  0  0  0  0  0  0  0  0
   13.4948  -10.8756  -11.0114 C   0  0  2  0  0  0  0  0  0  0  0  0
   13.3511  -12.1476  -10.3611 N   0  0  0  0  0  0  0  0  0  0  0  0
   14.8140  -10.6970  -11.6373 C   0  0  0  0  0  0  0  0  0  0  0  0
   15.8304  -11.0787  -11.0003 O   0  0  0  0  0  0  0  0  0  0  0  0
   15.0098  -10.1194  -12.9177 N   0  0  0  0  0  0  0  0  0  0  0  0
   16.3209  -10.1066  -13.5038 C   0  0  1  0  0  0  0  0  0  0  0  0
   16.4596  -11.1493  -14.5902 C   0  0  0  0  0  0  0  0  0  0  0  0
   17.8375  -11.1682  -15.2035 C   0  0  0  0  0  0  0  0  0  0  0  0
   18.1940  -12.5636  -15.5130 C   0  0  0  0  0  0  0  0  0  0  0  0
   17.3432  -13.3275  -16.0087 O   0  0  0  0  0  0  0  0  0  0  0  0
   16.5874   -8.7348  -14.0346 C   0  0  0  0  0  0  0  0  0  0  0  0
   15.6650   -8.0541  -14.5505 O   0  0  0  0  0  0  0  0  0  0  0  0
   19.4628  -13.0284  -15.2573 O   0  0  0  0  0  0  0  0  0  0  0  0
   17.8782   -8.1262  -13.9890 N   0  0  0  0  0  0  0  0  0  0  0  0
   18.1418   -6.7958  -14.4375 C   0  0  0  0  0  0  0  0  0  0  0  0
   19.5797   -6.4677  -14.5263 C   0  0  0  0  0  0  0  0  0  0  0  0
   19.9262   -5.2208  -15.0252 O   0  0  0  0  0  0  0  0  0  0  0  0
   20.5150   -7.2346  -14.1834 O   0  0  0  0  0  0  0  0  0  0  0  0
  2  1  1  0
  3  5  1  0
  3  2  1  0
  3  4  1  6
  5  7  1  0
  5  6  1  1
  7  8  2  0
  9  7  1  0
  9 10  1  0
 10 15  1  0
 10 11  1  6
 11 12  1  0
 12 13  1  0
 13 14  2  0
 13 17  1  0
 15 16  2  0
 18 19  1  0
 18 15  1  0
 20 19  1  0
 21 20  1  0
 22 20  2  0
M  END
$$$$
