IEG.pdb
     RDKit          3D

 22 21  0  0  1  0  0  0  0  0999 V2000
   23.7401  -15.4288  -16.9244 C   0  0  0  0  0  0  0  0  0  0  0  0
   23.1123  -14.5752  -15.8445 C   0  0  0  0  0  0  0  0  0  0  0  0
   23.3758  -13.1150  -16.1659 C   0  0  2  0  0  0  0  0  0  0  0  0
   24.8757  -12.8870  -16.0349 C   0  0  0  0  0  0  0  0  0  0  0  0
   22.6991  -12.1998  -15.1891 C   0  0  2  0  0  0  0  0  0  0  0  0
   21.3688  -12.6055  -14.8327 N   0  0  0  0  0  0  0  0  0  0  0  0
   22.7656  -10.8120  -15.6725 C   0  0  0  0  0  0  0  0  0  0  0  0
   23.8712  -10.3817  -16.0931 O   0  0  0  0  0  0  0  0  0  0  0  0
   21.6567   -9.9282  -15.6930 N   0  0  0  0  0  0  0  0  0  0  0  0
   21.8299   -8.5732  -16.1368 C   0  0  1  0  0  0  0  0  0  0  0  0
   20.7174   -8.1407  -17.0652 C   0  0  0  0  0  0  0  0  0  0  0  0
   20.6318   -8.9950  -18.3053 C   0  0  0  0  0  0  0  0  0  0  0  0
   19.5306   -8.4934  -19.1453 C   0  0  0  0  0  0  0  0  0  0  0  0
   19.7825   -7.8318  -20.1711 O   0  0  0  0  0  0  0  0  0  0  0  0
   21.9045   -7.6884  -14.9342 C   0  0  0  0  0  0  0  0  0  0  0  0
   21.2074   -7.9269  -13.9156 O   0  0  0  0  0  0  0  0  0  0  0  0
   18.2240   -8.7516  -18.8030 O   0  0  0  0  0  0  0  0  0  0  0  0
   22.7542   -6.5427  -14.8698 N   0  0  0  0  0  0  0  0  0  0  0  0
   22.8028   -5.6560  -13.7509 C   0  0  0  0  0  0  0  0  0  0  0  0
   21.7218   -4.6489  -13.7375 C   0  0  0  0  0  0  0  0  0  0  0  0
   21.7246   -3.7146  -12.7124 O   0  0  0  0  0  0  0  0  0  0  0  0
   20.7975   -4.5744  -14.5864 O   0  0  0  0  0  0  0  0  0  0  0  0
  2  1  1  0
  3  5  1  0
  3  2  1  0
  3  4  1  1
  5  7  1  0
  5  6  1  6
  7  8  2  0
  9  7  1  0
  9 10  1  0
 10 15  1  0
 10 11  1  6
 11 12  1  0
 12 13  1  0
 13 14  2  0
 13 17  1  0
 15 16  2  0
 18 19  1  0
 18 15  1  0
 20 19  1  0
 21 20  1  0
 22 20  2  0
M  END
$$$$
