IEG.pdb
     RDKit          3D

 22 21  0  0  1  0  0  0  0  0999 V2000
   16.3566  -12.0911  -16.8758 C   0  0  0  0  0  0  0  0  0  0  0  0
   17.8413  -12.0349  -17.1614 C   0  0  0  0  0  0  0  0  0  0  0  0
   18.4650  -10.9685  -16.2792 C   0  0  2  0  0  0  0  0  0  0  0  0
   17.9373   -9.6220  -16.7560 C   0  0  0  0  0  0  0  0  0  0  0  0
   19.9582  -10.9359  -16.4174 C   0  0  2  0  0  0  0  0  0  0  0  0
   20.5973  -12.1949  -16.1566 N   0  0  0  0  0  0  0  0  0  0  0  0
   20.5127   -9.8340  -15.6158 C   0  0  0  0  0  0  0  0  0  0  0  0
   20.6347  -10.0051  -14.3747 O   0  0  0  0  0  0  0  0  0  0  0  0
   20.9188   -8.5883  -16.1585 N   0  0  0  0  0  0  0  0  0  0  0  0
   21.4883   -7.5862  -15.3016 C   0  0  1  0  0  0  0  0  0  0  0  0
   22.8622   -7.1627  -15.7703 C   0  0  0  0  0  0  0  0  0  0  0  0
   23.5146   -6.1744  -14.8361 C   0  0  0  0  0  0  0  0  0  0  0  0
   24.7956   -5.7474  -15.4251 C   0  0  0  0  0  0  0  0  0  0  0  0
   25.0299   -4.5347  -15.5916 O   0  0  0  0  0  0  0  0  0  0  0  0
   20.5525   -6.4217  -15.2500 C   0  0  0  0  0  0  0  0  0  0  0  0
   20.7810   -5.4457  -14.4914 O   0  0  0  0  0  0  0  0  0  0  0  0
   25.7355   -6.6814  -15.7928 O   0  0  0  0  0  0  0  0  0  0  0  0
   19.3670   -6.3478  -16.0424 N   0  0  0  0  0  0  0  0  0  0  0  0
   18.4932   -5.2179  -16.0550 C   0  0  0  0  0  0  0  0  0  0  0  0
   17.5280   -5.1949  -14.9364 C   0  0  0  0  0  0  0  0  0  0  0  0
   16.6221   -4.1457  -14.8889 O   0  0  0  0  0  0  0  0  0  0  0  0
   17.4655   -6.0558  -14.0224 O   0  0  0  0  0  0  0  0  0  0  0  0
  2  1  1  0
  3  5  1  0
  3  2  1  0
  3  4  1  6
  5  7  1  0
  5  6  1  1
  7  8  2  0
  9  7  1  0
  9 10  1  0
 10 15  1  0
 10 11  1  6
 11 12  1  0
 12 13  1  0
 13 14  2  0
 13 17  1  0
 15 16  2  0
 18 19  1  0
 18 15  1  0
 20 19  1  0
 21 20  1  0
 22 20  2  0
M  END
$$$$
