IEG.pdb
     RDKit          3D

 22 21  0  0  1  0  0  0  0  0999 V2000
   24.6708  -13.8888  -17.8473 C   0  0  0  0  0  0  0  0  0  0  0  0
   23.5836  -13.2667  -16.9988 C   0  0  0  0  0  0  0  0  0  0  0  0
   23.9914  -11.8459  -16.6530 C   0  0  2  0  0  0  0  0  0  0  0  0
   25.1794  -11.9348  -15.7045 C   0  0  0  0  0  0  0  0  0  0  0  0
   22.8991  -11.1139  -15.9313 C   0  0  2  0  0  0  0  0  0  0  0  0
   21.5840  -11.3679  -16.4487 N   0  0  0  0  0  0  0  0  0  0  0  0
   23.2194   -9.6800  -15.8573 C   0  0  0  0  0  0  0  0  0  0  0  0
   24.3089   -9.3414  -15.3255 O   0  0  0  0  0  0  0  0  0  0  0  0
   22.3728   -8.6545  -16.3499 N   0  0  0  0  0  0  0  0  0  0  0  0
   22.7138   -7.2771  -16.1280 C   0  0  1  0  0  0  0  0  0  0  0  0
   22.7734   -6.4986  -17.4230 C   0  0  0  0  0  0  0  0  0  0  0  0
   23.1152   -5.0449  -17.2107 C   0  0  0  0  0  0  0  0  0  0  0  0
   23.1046   -4.3649  -18.5174 C   0  0  0  0  0  0  0  0  0  0  0  0
   22.1014   -3.7164  -18.8728 O   0  0  0  0  0  0  0  0  0  0  0  0
   21.7109   -6.6877  -15.1892 C   0  0  0  0  0  0  0  0  0  0  0  0
   20.4841   -6.9261  -15.3255 O   0  0  0  0  0  0  0  0  0  0  0  0
   24.1977   -4.4420  -19.3483 O   0  0  0  0  0  0  0  0  0  0  0  0
   22.0768   -5.8363  -14.1029 N   0  0  0  0  0  0  0  0  0  0  0  0
   21.1512   -5.3601  -13.1246 C   0  0  0  0  0  0  0  0  0  0  0  0
   20.2786   -4.2696  -13.6068 C   0  0  0  0  0  0  0  0  0  0  0  0
   19.3866   -3.7113  -12.7033 O   0  0  0  0  0  0  0  0  0  0  0  0
   20.2831   -3.8085  -14.7764 O   0  0  0  0  0  0  0  0  0  0  0  0
  2  1  1  0
  3  5  1  0
  3  2  1  0
  3  4  1  1
  5  7  1  0
  5  6  1  6
  7  8  2  0
  9  7  1  0
  9 10  1  0
 10 15  1  0
 10 11  1  6
 11 12  1  0
 12 13  1  0
 13 14  2  0
 13 17  1  0
 15 16  2  0
 18 19  1  0
 18 15  1  0
 20 19  1  0
 21 20  1  0
 22 20  2  0
M  END
$$$$
