IEG.pdb
     RDKit          3D

 22 21  0  0  1  0  0  0  0  0999 V2000
   25.9904  -20.2093   -9.4220 C   0  0  0  0  0  0  0  0  0  0  0  0
   25.9683  -20.0611  -10.9275 C   0  0  0  0  0  0  0  0  0  0  0  0
   24.9379  -21.0211  -11.4944 C   0  0  2  0  0  0  0  0  0  0  0  0
   25.4268  -22.4333  -11.2018 C   0  0  0  0  0  0  0  0  0  0  0  0
   24.8170  -20.8913  -12.9838 C   0  0  2  0  0  0  0  0  0  0  0  0
   25.3744  -19.6781  -13.5121 N   0  0  0  0  0  0  0  0  0  0  0  0
   23.4214  -21.1082  -13.3951 C   0  0  0  0  0  0  0  0  0  0  0  0
   23.1035  -22.2405  -13.8439 O   0  0  0  0  0  0  0  0  0  0  0  0
   22.4108  -20.1164  -13.3161 N   0  0  0  0  0  0  0  0  0  0  0  0
   21.0732  -20.4227  -13.7400 C   0  0  1  0  0  0  0  0  0  0  0  0
   20.0626  -20.1478  -12.6493 C   0  0  0  0  0  0  0  0  0  0  0  0
   18.6532  -20.4880  -13.0652 C   0  0  0  0  0  0  0  0  0  0  0  0
   18.3061  -21.8078  -12.5105 C   0  0  0  0  0  0  0  0  0  0  0  0
   18.0258  -21.9199  -11.3013 O   0  0  0  0  0  0  0  0  0  0  0  0
   20.7728  -19.6252  -14.9682 C   0  0  0  0  0  0  0  0  0  0  0  0
   19.6137  -19.6045  -15.4544 O   0  0  0  0  0  0  0  0  0  0  0  0
   18.2898  -22.9185  -13.3212 O   0  0  0  0  0  0  0  0  0  0  0  0
   21.7626  -18.8543  -15.6499 N   0  0  0  0  0  0  0  0  0  0  0  0
   21.4959  -18.0841  -16.8229 C   0  0  0  0  0  0  0  0  0  0  0  0
   21.3842  -18.8903  -18.0560 C   0  0  0  0  0  0  0  0  0  0  0  0
   21.2537  -18.2126  -19.2591 O   0  0  0  0  0  0  0  0  0  0  0  0
   21.3983  -20.1468  -18.0977 O   0  0  0  0  0  0  0  0  0  0  0  0
  2  1  1  0
  3  5  1  0
  3  2  1  0
  3  4  1  6
  5  7  1  0
  5  6  1  1
  7  8  2  0
  9  7  1  0
  9 10  1  0
 10 15  1  0
 10 11  1  1
 11 12  1  0
 12 13  1  0
 13 14  2  0
 13 17  1  0
 15 16  2  0
 18 19  1  0
 18 15  1  0
 20 19  1  0
 21 20  1  0
 22 20  2  0
M  END
$$$$
