IEG.pdb
     RDKit          3D

 22 21  0  0  1  0  0  0  0  0999 V2000
   20.8148  -12.1969  -20.8222 C   0  0  0  0  0  0  0  0  0  0  0  0
   19.8820  -11.5679  -19.8107 C   0  0  0  0  0  0  0  0  0  0  0  0
   20.7153  -10.8807  -18.7439 C   0  0  2  0  0  0  0  0  0  0  0  0
   21.4932  -11.9648  -18.0100 C   0  0  0  0  0  0  0  0  0  0  0  0
   19.8565  -10.1849  -17.7300 C   0  0  2  0  0  0  0  0  0  0  0  0
   18.7496   -9.4664  -18.2955 N   0  0  0  0  0  0  0  0  0  0  0  0
   20.6920   -9.3524  -16.8509 C   0  0  0  0  0  0  0  0  0  0  0  0
   21.6675   -9.8954  -16.2695 O   0  0  0  0  0  0  0  0  0  0  0  0
   20.4639   -7.9720  -16.6187 N   0  0  0  0  0  0  0  0  0  0  0  0
   21.2890   -7.2578  -15.6849 C   0  0  1  0  0  0  0  0  0  0  0  0
   21.7638   -5.9385  -16.2512 C   0  0  0  0  0  0  0  0  0  0  0  0
   22.5792   -5.1428  -15.2627 C   0  0  0  0  0  0  0  0  0  0  0  0
   22.9957   -3.8837  -15.9040 C   0  0  0  0  0  0  0  0  0  0  0  0
   24.0143   -3.8587  -16.6217 O   0  0  0  0  0  0  0  0  0  0  0  0
   20.5101   -7.0558  -14.4251 C   0  0  0  0  0  0  0  0  0  0  0  0
   19.5040   -6.3024  -14.4044 O   0  0  0  0  0  0  0  0  0  0  0  0
   22.2652   -2.7341  -15.7145 O   0  0  0  0  0  0  0  0  0  0  0  0
   20.8536   -7.6926  -13.1941 N   0  0  0  0  0  0  0  0  0  0  0  0
   20.1859   -7.4360  -11.9576 C   0  0  0  0  0  0  0  0  0  0  0  0
   18.9096   -8.1644  -11.8039 C   0  0  0  0  0  0  0  0  0  0  0  0
   18.2488   -8.0566  -10.5893 O   0  0  0  0  0  0  0  0  0  0  0  0
   18.3760   -8.8761  -12.6924 O   0  0  0  0  0  0  0  0  0  0  0  0
  2  1  1  0
  3  5  1  0
  3  2  1  0
  3  4  1  1
  5  7  1  0
  5  6  1  6
  7  8  2  0
  9  7  1  0
  9 10  1  0
 10 15  1  0
 10 11  1  6
 11 12  1  0
 12 13  1  0
 13 14  2  0
 13 17  1  0
 15 16  2  0
 18 19  1  0
 18 15  1  0
 20 19  1  0
 21 20  1  0
 22 20  2  0
M  END
$$$$
