DMM.pdb
     RDKit          3D

 25 24  0  0  1  0  0  0  0  0999 V2000
   16.5933  -12.0364  -10.8794 N   0  0  0  0  0  0  0  0  0  0  0  0
   15.9631  -10.7909  -11.1884 C   0  0  1  0  0  0  0  0  0  0  0  0
   14.5567  -10.7531  -10.6621 C   0  0  0  0  0  0  0  0  0  0  0  0
   13.7112  -11.8237  -11.2479 C   0  0  0  0  0  0  0  0  0  0  0  0
   14.0080  -12.3120  -12.3607 O   0  0  0  0  0  0  0  0  0  0  0  0
   16.7127   -9.6185  -10.6702 C   0  0  0  0  0  0  0  0  0  0  0  0
   17.1663   -9.6392   -9.4939 O   0  0  0  0  0  0  0  0  0  0  0  0
   12.6046  -12.2736  -10.5632 O   0  0  0  0  0  0  0  0  0  0  0  0
   22.5456   -9.0635  -12.5920 C   0  0  0  0  0  0  0  0  0  0  0  0
   21.3300   -7.7419  -12.6846 S   0  0  0  0  0  0  0  0  0  0  0  0
   19.8715   -8.0879  -11.6433 C   0  0  0  0  0  0  0  0  0  0  0  0
   18.8773   -6.9638  -11.7152 C   0  0  0  0  0  0  0  0  0  0  0  0
   17.6819   -7.2935  -10.8624 C   0  0  2  0  0  0  0  0  0  0  0  0
   16.9622   -8.4418  -11.4266 N   0  0  0  0  0  0  0  0  0  0  0  0
   16.7281   -6.1523  -10.6905 C   0  0  0  0  0  0  0  0  0  0  0  0
   15.9187   -5.8110  -11.5905 O   0  0  0  0  0  0  0  0  0  0  0  0
   12.0876   -3.6653   -6.2920 C   0  0  0  0  0  0  0  0  0  0  0  0
   13.0973   -5.1832   -6.3701 S   0  0  0  0  0  0  0  0  0  0  0  0
   13.9679   -5.2454   -7.9373 C   0  0  0  0  0  0  0  0  0  0  0  0
   15.0659   -4.2639   -8.1142 C   0  0  0  0  0  0  0  0  0  0  0  0
   15.7837   -4.2029   -9.4158 C   0  0  2  0  0  0  0  0  0  0  0  0
   16.6847   -5.3932   -9.5029 N   0  0  0  0  0  0  0  0  0  0  0  0
   16.5596   -2.9966   -9.6346 C   0  0  0  0  0  0  0  0  0  0  0  0
   17.7961   -2.9228   -9.6016 O   0  0  0  0  0  0  0  0  0  0  0  0
   15.9144   -1.7568   -9.9158 O   0  0  0  0  0  0  0  0  0  0  0  0
  2  1  1  1
  3  2  1  0
  3  4  1  0
  4  8  1  0
  5  4  2  0
  6  7  2  0
  6  2  1  0
  9 10  1  0
 10 11  1  0
 11 12  1  0
 13 12  1  6
 13 14  1  0
 14  6  1  0
 15 13  1  0
 16 15  2  0
 18 17  1  0
 19 18  1  0
 21 20  1  1
 20 19  1  0
 21 22  1  0
 22 15  1  0
 23 25  1  0
 23 21  1  0
 24 23  2  0
M  END
$$$$
