DMM.pdb
     RDKit          3D

 25 24  0  0  1  0  0  0  0  0999 V2000
   28.7340  -21.4489  -15.3871 N   0  0  0  0  0  0  0  0  0  0  0  0
   28.6798  -20.0366  -15.1714 C   0  0  1  0  0  0  0  0  0  0  0  0
   28.5523  -19.2969  -16.4726 C   0  0  0  0  0  0  0  0  0  0  0  0
   27.5665  -19.9325  -17.3830 C   0  0  0  0  0  0  0  0  0  0  0  0
   26.9625  -19.2369  -18.2293 O   0  0  0  0  0  0  0  0  0  0  0  0
   27.5747  -19.6312  -14.2662 C   0  0  0  0  0  0  0  0  0  0  0  0
   27.3829  -18.4084  -14.0256 O   0  0  0  0  0  0  0  0  0  0  0  0
   27.3222  -21.2844  -17.2910 O   0  0  0  0  0  0  0  0  0  0  0  0
   21.1900  -20.5435  -13.7811 C   0  0  0  0  0  0  0  0  0  0  0  0
   22.2821  -19.9471  -15.0790 S   0  0  0  0  0  0  0  0  0  0  0  0
   23.9605  -19.6049  -14.4487 C   0  0  0  0  0  0  0  0  0  0  0  0
   24.2848  -20.4810  -13.2721 C   0  0  0  0  0  0  0  0  0  0  0  0
   25.6334  -20.1045  -12.7204 C   0  0  2  0  0  0  0  0  0  0  0  0
   26.6931  -20.5488  -13.6338 N   0  0  0  0  0  0  0  0  0  0  0  0
   25.9021  -20.6520  -11.3531 C   0  0  0  0  0  0  0  0  0  0  0  0
   26.9987  -21.1856  -11.0460 O   0  0  0  0  0  0  0  0  0  0  0  0
   28.8173  -18.7471   -7.6437 C   0  0  0  0  0  0  0  0  0  0  0  0
   28.0628  -19.7591   -6.3261 S   0  0  0  0  0  0  0  0  0  0  0  0
   26.8322  -20.8525   -7.0387 C   0  0  0  0  0  0  0  0  0  0  0  0
   26.4355  -20.5653   -8.4389 C   0  0  0  0  0  0  0  0  0  0  0  0
   25.2250  -21.2226   -9.0009 C   0  0  2  0  0  0  0  0  0  0  0  0
   24.9346  -20.5988  -10.3285 N   0  0  0  0  0  0  0  0  0  0  0  0
   24.0408  -21.1479   -8.1660 C   0  0  0  0  0  0  0  0  0  0  0  0
   23.9577  -21.5587   -6.9999 O   0  0  0  0  0  0  0  0  0  0  0  0
   22.8365  -20.5672   -8.6609 O   0  0  0  0  0  0  0  0  0  0  0  0
  2  1  1  6
  3  2  1  0
  3  4  1  0
  4  8  1  0
  5  4  2  0
  6  7  2  0
  6  2  1  0
  9 10  1  0
 10 11  1  0
 11 12  1  0
 13 12  1  6
 13 14  1  0
 14  6  1  0
 15 13  1  0
 16 15  2  0
 18 17  1  0
 19 18  1  0
 21 20  1  1
 20 19  1  0
 21 22  1  0
 22 15  1  0
 23 25  1  0
 23 21  1  0
 24 23  2  0
M  END
$$$$
