DMM.pdb
     RDKit          3D

 25 24  0  0  1  0  0  0  0  0999 V2000
   28.2678  -21.1180  -15.1285 N   0  0  0  0  0  0  0  0  0  0  0  0
   27.8624  -19.7548  -15.2749 C   0  0  1  0  0  0  0  0  0  0  0  0
   27.0975  -19.5540  -16.5520 C   0  0  0  0  0  0  0  0  0  0  0  0
   27.8038  -20.1310  -17.7236 C   0  0  0  0  0  0  0  0  0  0  0  0
   27.3224  -19.9935  -18.8700 O   0  0  0  0  0  0  0  0  0  0  0  0
   27.0477  -19.2673  -14.1332 C   0  0  0  0  0  0  0  0  0  0  0  0
   26.4241  -18.1761  -14.2336 O   0  0  0  0  0  0  0  0  0  0  0  0
   28.9850  -20.8147  -17.5422 O   0  0  0  0  0  0  0  0  0  0  0  0
   22.4385  -21.6017  -15.0339 C   0  0  0  0  0  0  0  0  0  0  0  0
   21.9780  -21.4879  -13.2996 S   0  0  0  0  0  0  0  0  0  0  0  0
   23.2779  -20.6808  -12.3045 C   0  0  0  0  0  0  0  0  0  0  0  0
   24.5821  -20.6412  -13.0493 C   0  0  0  0  0  0  0  0  0  0  0  0
   25.6423  -20.0262  -12.1759 C   0  0  2  0  0  0  0  0  0  0  0  0
   26.9172  -19.9623  -12.9007 N   0  0  0  0  0  0  0  0  0  0  0  0
   25.8500  -20.7452  -10.8792 C   0  0  0  0  0  0  0  0  0  0  0  0
   25.5824  -21.9657  -10.7368 O   0  0  0  0  0  0  0  0  0  0  0  0
   29.5461  -18.8686   -5.5605 C   0  0  0  0  0  0  0  0  0  0  0  0
   27.8879  -19.1975   -4.8740 S   0  0  0  0  0  0  0  0  0  0  0  0
   26.9813  -20.2762   -5.9841 C   0  0  0  0  0  0  0  0  0  0  0  0
   26.9664  -19.8792   -7.4133 C   0  0  0  0  0  0  0  0  0  0  0  0
   26.2988  -20.7632   -8.4063 C   0  0  2  0  0  0  0  0  0  0  0  0
   26.3603  -20.0894   -9.7399 N   0  0  0  0  0  0  0  0  0  0  0  0
   24.9208  -21.1000   -8.1018 C   0  0  0  0  0  0  0  0  0  0  0  0
   24.5551  -22.0036   -7.3368 O   0  0  0  0  0  0  0  0  0  0  0  0
   23.8459  -20.3747   -8.6943 O   0  0  0  0  0  0  0  0  0  0  0  0
  2  1  1  1
  3  2  1  0
  3  4  1  0
  4  8  1  0
  5  4  2  0
  6  7  2  0
  6  2  1  0
  9 10  1  0
 10 11  1  0
 11 12  1  0
 13 12  1  6
 13 14  1  0
 14  6  1  0
 15 13  1  0
 16 15  2  0
 18 17  1  0
 19 18  1  0
 21 20  1  1
 20 19  1  0
 21 22  1  0
 22 15  1  0
 23 25  1  0
 23 21  1  0
 24 23  2  0
M  END
$$$$
