DMM.pdb
     RDKit          3D

 25 24  0  0  1  0  0  0  0  0999 V2000
   23.9870  -20.7183  -14.3616 N   0  0  0  0  0  0  0  0  0  0  0  0
   23.2638  -20.0989  -13.2951 C   0  0  1  0  0  0  0  0  0  0  0  0
   21.8034  -19.9860  -13.6283 C   0  0  0  0  0  0  0  0  0  0  0  0
   21.5750  -19.2607  -14.9035 C   0  0  0  0  0  0  0  0  0  0  0  0
   22.1639  -18.1780  -15.1175 O   0  0  0  0  0  0  0  0  0  0  0  0
   23.4183  -20.8104  -12.0010 C   0  0  0  0  0  0  0  0  0  0  0  0
   23.5308  -22.0662  -11.9898 O   0  0  0  0  0  0  0  0  0  0  0  0
   20.7160  -19.7835  -15.8439 O   0  0  0  0  0  0  0  0  0  0  0  0
   26.7508  -18.9402   -6.9257 C   0  0  0  0  0  0  0  0  0  0  0  0
   25.9826  -20.4057   -6.2221 S   0  0  0  0  0  0  0  0  0  0  0  0
   24.6771  -21.0747   -7.3081 C   0  0  0  0  0  0  0  0  0  0  0  0
   24.5896  -20.2965   -8.5903 C   0  0  0  0  0  0  0  0  0  0  0  0
   23.5404  -20.9076   -9.4796 C   0  0  2  0  0  0  0  0  0  0  0  0
   23.4491  -20.1587  -10.7387 N   0  0  0  0  0  0  0  0  0  0  0  0
   22.1831  -20.9806   -8.8520 C   0  0  0  0  0  0  0  0  0  0  0  0
   21.2990  -20.1104   -9.0588 O   0  0  0  0  0  0  0  0  0  0  0  0
   17.7241  -20.1593   -9.4820 C   0  0  0  0  0  0  0  0  0  0  0  0
   17.0184  -21.6802   -8.7619 S   0  0  0  0  0  0  0  0  0  0  0  0
   18.2329  -22.9983   -8.8338 C   0  0  0  0  0  0  0  0  0  0  0  0
   19.6529  -22.5752   -8.9057 C   0  0  0  0  0  0  0  0  0  0  0  0
   20.3796  -22.2519   -7.6485 C   0  0  2  0  0  0  0  0  0  0  0  0
   21.8194  -22.0354   -7.9896 N   0  0  0  0  0  0  0  0  0  0  0  0
   20.2791  -23.2544   -6.6046 C   0  0  0  0  0  0  0  0  0  0  0  0
   19.4212  -23.2761   -5.7106 O   0  0  0  0  0  0  0  0  0  0  0  0
   21.2091  -24.3329   -6.5387 O   0  0  0  0  0  0  0  0  0  0  0  0
  2  1  1  6
  3  2  1  0
  3  4  1  0
  4  8  1  0
  5  4  2  0
  6  7  2  0
  6  2  1  0
  9 10  1  0
 10 11  1  0
 11 12  1  0
 13 12  1  1
 13 14  1  0
 14  6  1  0
 15 13  1  0
 16 15  2  0
 18 17  1  0
 19 18  1  0
 21 20  1  6
 20 19  1  0
 21 22  1  0
 22 15  1  0
 23 25  1  0
 23 21  1  0
 24 23  2  0
M  END
$$$$
