DMM.pdb
     RDKit          3D

 25 24  0  0  1  0  0  0  0  0999 V2000
   15.5581  -12.6754  -17.3610 N   0  0  0  0  0  0  0  0  0  0  0  0
   15.8073  -11.2821  -17.1597 C   0  0  1  0  0  0  0  0  0  0  0  0
   14.5261  -10.5336  -16.9252 C   0  0  0  0  0  0  0  0  0  0  0  0
   13.6833  -10.4710  -18.1459 C   0  0  0  0  0  0  0  0  0  0  0  0
   14.1646  -10.0279  -19.2122 O   0  0  0  0  0  0  0  0  0  0  0  0
   16.7427  -11.0175  -16.0372 C   0  0  0  0  0  0  0  0  0  0  0  0
   16.5568  -11.5816  -14.9250 O   0  0  0  0  0  0  0  0  0  0  0  0
   12.3762  -10.9011  -18.0980 O   0  0  0  0  0  0  0  0  0  0  0  0
   23.9227   -9.5018  -13.3159 C   0  0  0  0  0  0  0  0  0  0  0  0
   22.8321   -9.6368  -14.7390 S   0  0  0  0  0  0  0  0  0  0  0  0
   21.0739   -9.6233  -14.2495 C   0  0  0  0  0  0  0  0  0  0  0  0
   20.1819   -9.8749  -15.4320 C   0  0  0  0  0  0  0  0  0  0  0  0
   18.7452   -9.8939  -14.9840 C   0  0  2  0  0  0  0  0  0  0  0  0
   17.8638  -10.1494  -16.1297 N   0  0  0  0  0  0  0  0  0  0  0  0
   18.3083   -8.6362  -14.2992 C   0  0  0  0  0  0  0  0  0  0  0  0
   17.9430   -7.6155  -14.9366 O   0  0  0  0  0  0  0  0  0  0  0  0
   15.2147   -5.8997   -7.5253 C   0  0  0  0  0  0  0  0  0  0  0  0
   15.8642   -7.3062   -8.4895 S   0  0  0  0  0  0  0  0  0  0  0  0
   16.5863   -6.7046  -10.0173 C   0  0  0  0  0  0  0  0  0  0  0  0
   17.0515   -7.7400  -10.9722 C   0  0  0  0  0  0  0  0  0  0  0  0
   17.6763   -7.3180  -12.2547 C   0  0  2  0  0  0  0  0  0  0  0  0
   18.2821   -8.5267  -12.8935 N   0  0  0  0  0  0  0  0  0  0  0  0
   18.6845   -6.2815  -12.1361 C   0  0  0  0  0  0  0  0  0  0  0  0
   19.9097   -6.4670  -12.1506 O   0  0  0  0  0  0  0  0  0  0  0  0
   18.3093   -4.9141  -11.9877 O   0  0  0  0  0  0  0  0  0  0  0  0
  2  1  1  1
  3  2  1  0
  3  4  1  0
  4  8  1  0
  5  4  2  0
  6  7  2  0
  6  2  1  0
  9 10  1  0
 10 11  1  0
 11 12  1  0
 13 12  1  6
 13 14  1  0
 14  6  1  0
 15 13  1  0
 16 15  2  0
 18 17  1  0
 19 18  1  0
 21 20  1  1
 20 19  1  0
 21 22  1  0
 22 15  1  0
 23 25  1  0
 23 21  1  0
 24 23  2  0
M  END
$$$$
