DMM.pdb
     RDKit          3D

 25 24  0  0  1  0  0  0  0  0999 V2000
   27.6417  -20.4374  -17.4443 N   0  0  0  0  0  0  0  0  0  0  0  0
   28.3238  -19.6519  -16.4635 C   0  0  1  0  0  0  0  0  0  0  0  0
   28.8290  -18.3679  -17.0573 C   0  0  0  0  0  0  0  0  0  0  0  0
   29.6205  -18.5961  -18.2926 C   0  0  0  0  0  0  0  0  0  0  0  0
   29.4179  -17.8850  -19.3015 O   0  0  0  0  0  0  0  0  0  0  0  0
   27.4825  -19.3471  -15.2786 C   0  0  0  0  0  0  0  0  0  0  0  0
   27.5130  -18.1924  -14.7731 O   0  0  0  0  0  0  0  0  0  0  0  0
   30.5734  -19.5895  -18.3211 O   0  0  0  0  0  0  0  0  0  0  0  0
   21.5606  -18.4154  -16.7391 C   0  0  0  0  0  0  0  0  0  0  0  0
   22.0919  -19.4932  -15.4016 S   0  0  0  0  0  0  0  0  0  0  0  0
   23.8514  -19.2422  -14.9867 C   0  0  0  0  0  0  0  0  0  0  0  0
   24.2990  -20.2061  -13.9247 C   0  0  0  0  0  0  0  0  0  0  0  0
   25.7283  -19.9172  -13.5524 C   0  0  2  0  0  0  0  0  0  0  0  0
   26.6214  -20.2904  -14.6560 N   0  0  0  0  0  0  0  0  0  0  0  0
   26.1788  -20.6059  -12.3017 C   0  0  0  0  0  0  0  0  0  0  0  0
   26.5841  -21.7964  -12.2983 O   0  0  0  0  0  0  0  0  0  0  0  0
   29.1634  -18.8563   -6.8647 C   0  0  0  0  0  0  0  0  0  0  0  0
   27.6408  -19.5165   -6.1063 S   0  0  0  0  0  0  0  0  0  0  0  0
   26.7307  -20.4728   -7.3208 C   0  0  0  0  0  0  0  0  0  0  0  0
   26.7917  -19.9808   -8.7189 C   0  0  0  0  0  0  0  0  0  0  0  0
   26.1210  -20.7605   -9.7938 C   0  0  2  0  0  0  0  0  0  0  0  0
   26.1734  -19.9534  -11.0516 N   0  0  0  0  0  0  0  0  0  0  0  0
   24.7456  -21.1311   -9.5182 C   0  0  0  0  0  0  0  0  0  0  0  0
   23.7437  -20.5541   -9.9642 O   0  0  0  0  0  0  0  0  0  0  0  0
   24.4454  -22.2395   -8.6734 O   0  0  0  0  0  0  0  0  0  0  0  0
  2  1  1  6
  3  2  1  0
  3  4  1  0
  4  8  1  0
  5  4  2  0
  6  7  2  0
  6  2  1  0
  9 10  1  0
 10 11  1  0
 11 12  1  0
 13 12  1  6
 13 14  1  0
 14  6  1  0
 15 13  1  0
 16 15  2  0
 18 17  1  0
 19 18  1  0
 21 20  1  1
 20 19  1  0
 21 22  1  0
 22 15  1  0
 23 25  1  0
 23 21  1  0
 24 23  2  0
M  END
$$$$
