DMM.pdb
     RDKit          3D

 25 24  0  0  1  0  0  0  0  0999 V2000
   15.5677  -10.3076   -9.9949 N   0  0  0  0  0  0  0  0  0  0  0  0
   15.6535   -9.1096  -10.7705 C   0  0  1  0  0  0  0  0  0  0  0  0
   14.3226   -8.4166  -10.8412 C   0  0  0  0  0  0  0  0  0  0  0  0
   13.3171   -9.2116  -11.5904 C   0  0  0  0  0  0  0  0  0  0  0  0
   13.6164  -10.3478  -12.0194 O   0  0  0  0  0  0  0  0  0  0  0  0
   16.6744   -8.1606  -10.2587 C   0  0  0  0  0  0  0  0  0  0  0  0
   16.8023   -7.9935   -9.0155 O   0  0  0  0  0  0  0  0  0  0  0  0
   12.0602   -8.6938  -11.8091 O   0  0  0  0  0  0  0  0  0  0  0  0
   22.8238   -9.1544  -12.3696 C   0  0  0  0  0  0  0  0  0  0  0  0
   21.9443   -7.5863  -12.3914 S   0  0  0  0  0  0  0  0  0  0  0  0
   20.4170   -7.6517  -11.3941 C   0  0  0  0  0  0  0  0  0  0  0  0
   19.7043   -6.3292  -11.4102 C   0  0  0  0  0  0  0  0  0  0  0  0
   18.4729   -6.4103  -10.5487 C   0  0  2  0  0  0  0  0  0  0  0  0
   17.5419   -7.4058  -11.0936 N   0  0  0  0  0  0  0  0  0  0  0  0
   17.7581   -5.1043  -10.3905 C   0  0  0  0  0  0  0  0  0  0  0  0
   16.6751   -4.8548  -10.9792 O   0  0  0  0  0  0  0  0  0  0  0  0
   12.5298   -1.2784   -7.4542 C   0  0  0  0  0  0  0  0  0  0  0  0
   13.5523   -2.7174   -7.9159 S   0  0  0  0  0  0  0  0  0  0  0  0
   15.1667   -2.1569   -8.4614 C   0  0  0  0  0  0  0  0  0  0  0  0
   16.1080   -3.2124   -8.9088 C   0  0  0  0  0  0  0  0  0  0  0  0
   17.4678   -2.8252   -9.3715 C   0  0  2  0  0  0  0  0  0  0  0  0
   18.2630   -4.0764   -9.5677 N   0  0  0  0  0  0  0  0  0  0  0  0
   18.1887   -1.9325   -8.4837 C   0  0  0  0  0  0  0  0  0  0  0  0
   19.1230   -2.2612   -7.7389 O   0  0  0  0  0  0  0  0  0  0  0  0
   17.8498   -0.5497   -8.4089 O   0  0  0  0  0  0  0  0  0  0  0  0
  2  1  1  1
  3  2  1  0
  3  4  1  0
  4  8  1  0
  5  4  2  0
  6  7  2  0
  6  2  1  0
  9 10  1  0
 10 11  1  0
 11 12  1  0
 13 12  1  6
 13 14  1  0
 14  6  1  0
 15 13  1  0
 16 15  2  0
 18 17  1  0
 19 18  1  0
 21 20  1  1
 20 19  1  0
 21 22  1  0
 22 15  1  0
 23 25  1  0
 23 21  1  0
 24 23  2  0
M  END
$$$$
