DMM.pdb
     RDKit          3D

 25 24  0  0  1  0  0  0  0  0999 V2000
   18.4875  -15.6831  -18.3652 N   0  0  0  0  0  0  0  0  0  0  0  0
   19.6316  -15.3355  -17.5816 C   0  0  1  0  0  0  0  0  0  0  0  0
   20.6025  -16.4793  -17.5081 C   0  0  0  0  0  0  0  0  0  0  0  0
   20.0069  -17.6783  -16.8661 C   0  0  0  0  0  0  0  0  0  0  0  0
   18.8294  -17.6388  -16.4459 O   0  0  0  0  0  0  0  0  0  0  0  0
   20.3333  -14.1278  -18.0856 C   0  0  0  0  0  0  0  0  0  0  0  0
   20.6245  -14.0415  -19.3094 O   0  0  0  0  0  0  0  0  0  0  0  0
   20.7539  -18.8276  -16.7366 O   0  0  0  0  0  0  0  0  0  0  0  0
   19.5208  -10.5671  -22.9425 C   0  0  0  0  0  0  0  0  0  0  0  0
   19.0585  -10.4928  -21.2065 S   0  0  0  0  0  0  0  0  0  0  0  0
   20.3537  -11.1952  -20.1293 C   0  0  0  0  0  0  0  0  0  0  0  0
   19.9024  -11.2346  -18.6969 C   0  0  0  0  0  0  0  0  0  0  0  0
   21.0322  -11.7141  -17.8259 C   0  0  2  0  0  0  0  0  0  0  0  0
   20.7107  -13.0316  -17.2641 N   0  0  0  0  0  0  0  0  0  0  0  0
   21.3771  -10.7758  -16.7114 C   0  0  0  0  0  0  0  0  0  0  0  0
   20.6283  -10.6118  -15.7144 O   0  0  0  0  0  0  0  0  0  0  0  0
   27.6241  -12.0286  -14.9324 C   0  0  0  0  0  0  0  0  0  0  0  0
   26.9240  -10.3623  -15.1828 S   0  0  0  0  0  0  0  0  0  0  0  0
   25.1331  -10.4613  -15.2113 C   0  0  0  0  0  0  0  0  0  0  0  0
   24.4110   -9.1803  -15.4064 C   0  0  0  0  0  0  0  0  0  0  0  0
   22.9282   -9.1927  -15.5262 C   0  0  2  0  0  0  0  0  0  0  0  0
   22.5678  -10.0202  -16.7184 N   0  0  0  0  0  0  0  0  0  0  0  0
   22.3096   -7.8857  -15.6442 C   0  0  0  0  0  0  0  0  0  0  0  0
   22.0248   -7.3200  -16.7094 O   0  0  0  0  0  0  0  0  0  0  0  0
   21.9733   -7.1315  -14.4821 O   0  0  0  0  0  0  0  0  0  0  0  0
  2  1  1  6
  3  2  1  0
  3  4  1  0
  4  8  1  0
  5  4  2  0
  6  7  2  0
  6  2  1  0
  9 10  1  0
 10 11  1  0
 11 12  1  0
 13 12  1  1
 13 14  1  0
 14  6  1  0
 15 13  1  0
 16 15  2  0
 18 17  1  0
 19 18  1  0
 21 20  1  6
 20 19  1  0
 21 22  1  0
 22 15  1  0
 23 25  1  0
 23 21  1  0
 24 23  2  0
M  END
$$$$
