DMM.pdb
     RDKit          3D

 25 24  0  0  1  0  0  0  0  0999 V2000
   27.6190  -18.4768  -16.7867 N   0  0  0  0  0  0  0  0  0  0  0  0
   26.6441  -19.4937  -17.0310 C   0  0  1  0  0  0  0  0  0  0  0  0
   26.8374  -20.1113  -18.3867 C   0  0  0  0  0  0  0  0  0  0  0  0
   26.8448  -19.0946  -19.4686 C   0  0  0  0  0  0  0  0  0  0  0  0
   25.7635  -18.6347  -19.8977 O   0  0  0  0  0  0  0  0  0  0  0  0
   26.6508  -20.5619  -15.9997 C   0  0  0  0  0  0  0  0  0  0  0  0
   27.3050  -21.6204  -16.2030 O   0  0  0  0  0  0  0  0  0  0  0  0
   28.0421  -18.6632  -19.9942 O   0  0  0  0  0  0  0  0  0  0  0  0
   30.5242  -19.4904  -12.4267 C   0  0  0  0  0  0  0  0  0  0  0  0
   30.0561  -21.0413  -11.6467 S   0  0  0  0  0  0  0  0  0  0  0  0
   28.3460  -21.5220  -12.0659 C   0  0  0  0  0  0  0  0  0  0  0  0
   27.8507  -20.7652  -13.2655 C   0  0  0  0  0  0  0  0  0  0  0  0
   26.4263  -21.1559  -13.5545 C   0  0  2  0  0  0  0  0  0  0  0  0
   25.9528  -20.4740  -14.7651 N   0  0  0  0  0  0  0  0  0  0  0  0
   25.4807  -20.8716  -12.4291 C   0  0  0  0  0  0  0  0  0  0  0  0
   25.1749  -19.7006  -12.0873 O   0  0  0  0  0  0  0  0  0  0  0  0
   26.6439  -18.4135   -7.8095 C   0  0  0  0  0  0  0  0  0  0  0  0
   25.9821  -19.9295   -7.0391 S   0  0  0  0  0  0  0  0  0  0  0  0
   24.7185  -20.6383   -8.0968 C   0  0  0  0  0  0  0  0  0  0  0  0
   25.1727  -21.1211   -9.4238 C   0  0  0  0  0  0  0  0  0  0  0  0
   24.1632  -21.5878  -10.4120 C   0  0  2  0  0  0  0  0  0  0  0  0
   24.8774  -21.9075  -11.6863 N   0  0  0  0  0  0  0  0  0  0  0  0
   23.0905  -20.6500  -10.6852 C   0  0  0  0  0  0  0  0  0  0  0  0
   23.0906  -19.8031  -11.5899 O   0  0  0  0  0  0  0  0  0  0  0  0
   21.9081  -20.6439   -9.8888 O   0  0  0  0  0  0  0  0  0  0  0  0
  2  1  1  1
  3  2  1  0
  3  4  1  0
  4  8  1  0
  5  4  2  0
  6  7  2  0
  6  2  1  0
  9 10  1  0
 10 11  1  0
 11 12  1  0
 13 12  1  1
 13 14  1  0
 14  6  1  0
 15 13  1  0
 16 15  2  0
 18 17  1  0
 19 18  1  0
 21 20  1  1
 20 19  1  0
 21 22  1  0
 22 15  1  0
 23 25  1  0
 23 21  1  0
 24 23  2  0
M  END
$$$$
