DMM.pdb
     RDKit          3D

 25 24  0  0  1  0  0  0  0  0999 V2000
   18.8466  -11.5622  -17.9101 N   0  0  0  0  0  0  0  0  0  0  0  0
   19.3007  -10.2572  -18.2774 C   0  0  1  0  0  0  0  0  0  0  0  0
   18.4960   -9.7084  -19.4210 C   0  0  0  0  0  0  0  0  0  0  0  0
   18.7383  -10.4521  -20.6831 C   0  0  0  0  0  0  0  0  0  0  0  0
   18.2866  -10.0097  -21.7624 O   0  0  0  0  0  0  0  0  0  0  0  0
   19.2685   -9.2938  -17.1479 C   0  0  0  0  0  0  0  0  0  0  0  0
   18.1703   -9.0231  -16.5908 O   0  0  0  0  0  0  0  0  0  0  0  0
   19.4589  -11.6250  -20.6587 O   0  0  0  0  0  0  0  0  0  0  0  0
   23.3140  -10.8718  -12.1931 C   0  0  0  0  0  0  0  0  0  0  0  0
   23.1596   -9.2453  -12.9438 S   0  0  0  0  0  0  0  0  0  0  0  0
   21.6591   -9.1139  -13.9746 C   0  0  0  0  0  0  0  0  0  0  0  0
   21.6041   -7.7899  -14.6824 C   0  0  0  0  0  0  0  0  0  0  0  0
   20.3438   -7.7084  -15.5010 C   0  0  2  0  0  0  0  0  0  0  0  0
   20.4195   -8.6365  -16.6358 N   0  0  0  0  0  0  0  0  0  0  0  0
   20.0411   -6.3335  -16.0105 C   0  0  0  0  0  0  0  0  0  0  0  0
   20.3791   -5.9530  -17.1605 O   0  0  0  0  0  0  0  0  0  0  0  0
   16.0860   -2.0638  -20.0669 C   0  0  0  0  0  0  0  0  0  0  0  0
   16.7099   -3.5925  -19.2901 S   0  0  0  0  0  0  0  0  0  0  0  0
   17.6432   -3.1791  -17.8151 C   0  0  0  0  0  0  0  0  0  0  0  0
   18.2563   -4.3182  -17.0892 C   0  0  0  0  0  0  0  0  0  0  0  0
   18.9811   -4.0630  -15.8153 C   0  0  2  0  0  0  0  0  0  0  0  0
   19.3560   -5.3843  -15.2241 N   0  0  0  0  0  0  0  0  0  0  0  0
   18.2453   -3.2890  -14.8332 C   0  0  0  0  0  0  0  0  0  0  0  0
   17.5412   -3.7604  -13.9290 O   0  0  0  0  0  0  0  0  0  0  0  0
   18.2887   -1.8641  -14.8479 O   0  0  0  0  0  0  0  0  0  0  0  0
  2  1  1  1
  3  2  1  0
  3  4  1  0
  4  8  1  0
  5  4  2  0
  6  7  2  0
  6  2  1  0
  9 10  1  0
 10 11  1  0
 11 12  1  0
 13 12  1  6
 13 14  1  0
 14  6  1  0
 15 13  1  0
 16 15  2  0
 18 17  1  0
 19 18  1  0
 21 20  1  6
 20 19  1  0
 21 22  1  0
 22 15  1  0
 23 25  1  0
 23 21  1  0
 24 23  2  0
M  END
$$$$
