DMM.pdb
     RDKit          3D

 25 24  0  0  1  0  0  0  0  0999 V2000
   20.0609  -12.2909  -18.6605 N   0  0  0  0  0  0  0  0  0  0  0  0
   19.4283  -11.8224  -17.4670 C   0  0  1  0  0  0  0  0  0  0  0  0
   18.7624  -12.9502  -16.7314 C   0  0  0  0  0  0  0  0  0  0  0  0
   17.8099  -13.6950  -17.5932 C   0  0  0  0  0  0  0  0  0  0  0  0
   16.9733  -13.0693  -18.2811 O   0  0  0  0  0  0  0  0  0  0  0  0
   20.3654  -11.1244  -16.5507 C   0  0  0  0  0  0  0  0  0  0  0  0
   19.9445  -10.6818  -15.4477 O   0  0  0  0  0  0  0  0  0  0  0  0
   17.8526  -15.0707  -17.6306 O   0  0  0  0  0  0  0  0  0  0  0  0
   27.3245  -10.0869  -16.8995 C   0  0  0  0  0  0  0  0  0  0  0  0
   26.6654  -10.4953  -15.2773 S   0  0  0  0  0  0  0  0  0  0  0  0
   24.9304   -9.9583  -15.0956 C   0  0  0  0  0  0  0  0  0  0  0  0
   24.0256  -10.7368  -16.0080 C   0  0  0  0  0  0  0  0  0  0  0  0
   22.6253  -10.1935  -15.9120 C   0  0  2  0  0  0  0  0  0  0  0  0
   21.7413  -10.9138  -16.8364 N   0  0  0  0  0  0  0  0  0  0  0  0
   22.5265   -8.7243  -16.1824 C   0  0  0  0  0  0  0  0  0  0  0  0
   22.9091   -8.2127  -17.2657 O   0  0  0  0  0  0  0  0  0  0  0  0
   17.4177   -5.7636  -16.0325 C   0  0  0  0  0  0  0  0  0  0  0  0
   18.4183   -4.3107  -16.4987 S   0  0  0  0  0  0  0  0  0  0  0  0
   20.1418   -4.6178  -16.1075 C   0  0  0  0  0  0  0  0  0  0  0  0
   20.5194   -6.0355  -15.8882 C   0  0  0  0  0  0  0  0  0  0  0  0
   21.9284   -6.3677  -15.5454 C   0  0  2  0  0  0  0  0  0  0  0  0
   21.9957   -7.8283  -15.2316 N   0  0  0  0  0  0  0  0  0  0  0  0
   22.4869   -5.6129  -14.4393 C   0  0  0  0  0  0  0  0  0  0  0  0
   22.5946   -6.0206  -13.2741 O   0  0  0  0  0  0  0  0  0  0  0  0
   22.9716   -4.2865  -14.6341 O   0  0  0  0  0  0  0  0  0  0  0  0
  2  1  1  6
  3  2  1  0
  3  4  1  0
  4  8  1  0
  5  4  2  0
  6  7  2  0
  6  2  1  0
  9 10  1  0
 10 11  1  0
 11 12  1  0
 13 12  1  6
 13 14  1  0
 14  6  1  0
 15 13  1  0
 16 15  2  0
 18 17  1  0
 19 18  1  0
 21 20  1  1
 20 19  1  0
 21 22  1  0
 22 15  1  0
 23 25  1  0
 23 21  1  0
 24 23  2  0
M  END
$$$$
