DMM.pdb
     RDKit          3D

 25 24  0  0  1  0  0  0  0  0999 V2000
   25.9560  -21.1250  -13.9502 N   0  0  0  0  0  0  0  0  0  0  0  0
   24.9543  -20.4418  -13.1928 C   0  0  1  0  0  0  0  0  0  0  0  0
   23.6223  -20.4993  -13.8848 C   0  0  0  0  0  0  0  0  0  0  0  0
   23.6537  -19.8390  -15.2142 C   0  0  0  0  0  0  0  0  0  0  0  0
   22.5927  -19.6894  -15.8598 O   0  0  0  0  0  0  0  0  0  0  0  0
   24.8130  -20.9687  -11.8117 C   0  0  0  0  0  0  0  0  0  0  0  0
   24.5117  -22.1802  -11.6347 O   0  0  0  0  0  0  0  0  0  0  0  0
   24.8506  -19.3946  -15.7296 O   0  0  0  0  0  0  0  0  0  0  0  0
   28.2480  -19.2688   -6.5920 C   0  0  0  0  0  0  0  0  0  0  0  0
   26.7547  -19.8490   -5.7756 S   0  0  0  0  0  0  0  0  0  0  0  0
   25.5875  -20.6073   -6.9563 C   0  0  0  0  0  0  0  0  0  0  0  0
   25.7778  -20.0491   -8.3381 C   0  0  0  0  0  0  0  0  0  0  0  0
   24.8499  -20.7473   -9.2955 C   0  0  2  0  0  0  0  0  0  0  0  0
   24.9981  -20.1829  -10.6424 N   0  0  0  0  0  0  0  0  0  0  0  0
   23.4089  -20.6871   -8.8937 C   0  0  0  0  0  0  0  0  0  0  0  0
   22.7126  -19.6502   -9.0405 O   0  0  0  0  0  0  0  0  0  0  0  0
   18.7152  -22.9007  -12.4768 C   0  0  0  0  0  0  0  0  0  0  0  0
   19.0880  -23.4834  -10.7883 S   0  0  0  0  0  0  0  0  0  0  0  0
   20.0250  -22.2289   -9.9132 C   0  0  0  0  0  0  0  0  0  0  0  0
   20.4800  -22.5872   -8.5475 C   0  0  0  0  0  0  0  0  0  0  0  0
   21.3568  -21.6440   -7.8026 C   0  0  2  0  0  0  0  0  0  0  0  0
   22.7494  -21.7966   -8.3255 N   0  0  0  0  0  0  0  0  0  0  0  0
   21.3632  -21.8172   -6.3621 C   0  0  0  0  0  0  0  0  0  0  0  0
   20.4992  -21.3888   -5.5839 O   0  0  0  0  0  0  0  0  0  0  0  0
   22.4185  -22.5278   -5.7188 O   0  0  0  0  0  0  0  0  0  0  0  0
  2  1  1  6
  3  2  1  0
  3  4  1  0
  4  8  1  0
  5  4  2  0
  6  7  2  0
  6  2  1  0
  9 10  1  0
 10 11  1  0
 11 12  1  0
 13 12  1  1
 13 14  1  0
 14  6  1  0
 15 13  1  0
 16 15  2  0
 18 17  1  0
 19 18  1  0
 21 20  1  6
 20 19  1  0
 21 22  1  0
 22 15  1  0
 23 25  1  0
 23 21  1  0
 24 23  2  0
M  END
$$$$
