KAH.pdb
     RDKit          3D

 25 25  0  0  1  0  0  0  0  0999 V2000
    8.7337  -17.5114   17.8693 N   0  0  0  0  0  0  0  0  0  0  0  0
    7.8403  -16.8699   18.8540 C   0  0  1  0  0  0  0  0  0  0  0  0
    7.4123  -17.9675   19.8259 C   0  0  0  0  0  0  0  0  0  0  0  0
    6.6967  -19.0640   19.1431 C   0  0  0  0  0  0  0  0  0  0  0  0
    6.2598  -20.2153   19.9838 C   0  0  0  0  0  0  0  0  0  0  0  0
    5.5778  -21.3231   19.2767 C   0  0  0  0  0  0  0  0  0  0  0  0
    5.2146  -22.4207   20.1146 N   0  0  0  0  0  0  0  0  0  0  0  0
    8.5692  -15.7744   19.5200 C   0  0  0  0  0  0  0  0  0  0  0  0
    9.8011  -15.9032   19.7288 O   0  0  0  0  0  0  0  0  0  0  0  0
    7.8602  -12.2671   20.5636 C   0  0  0  0  0  0  0  0  0  0  0  0
    8.6611  -13.5613   20.6090 C   0  0  2  0  0  0  0  0  0  0  0  0
    7.8997  -14.5656   19.9337 N   0  0  0  0  0  0  0  0  0  0  0  0
    8.9697  -13.9045   22.0114 C   0  0  0  0  0  0  0  0  0  0  0  0
    9.7217  -13.1311   22.6562 O   0  0  0  0  0  0  0  0  0  0  0  0
    8.4708  -15.0533   22.6785 N   0  0  0  0  0  0  0  0  0  0  0  0
    8.8323  -15.3825   24.0425 C   0  0  1  0  0  0  0  0  0  0  0  0
    7.5459  -15.5700   24.8273 C   0  0  0  0  0  0  0  0  0  0  0  0
    7.0296  -14.2608   25.3475 C   0  0  0  0  0  0  0  0  0  0  0  0
    7.6831  -13.0518   25.2950 C   0  0  0  0  0  0  0  0  0  0  0  0
    6.9102  -12.1115   25.8583 N   0  0  0  0  0  0  0  0  0  0  0  0
    5.7923  -12.7448   26.2514 C   0  0  0  0  0  0  0  0  0  0  0  0
    5.8567  -14.0453   25.9460 N   0  0  0  0  0  0  0  0  0  0  0  0
    9.6137  -16.6301   24.0256 C   0  0  0  0  0  0  0  0  0  0  0  0
    9.9574  -17.2954   22.8455 O   0  0  0  0  0  0  0  0  0  0  0  0
   10.0194  -17.1706   25.0953 O   0  0  0  0  0  0  0  0  0  0  0  0
  2  8  1  0
  2  1  1  6
  3  2  1  0
  4  3  1  0
  5  4  1  0
  5  6  1  0
  6  7  1  0
  8  9  2  0
 11 10  1  1
 12 11  1  0
 12  8  1  0
 13 14  2  0
 13 11  1  0
 15 13  1  0
 16 15  1  0
 16 23  1  0
 16 17  1  1
 18 19  2  0
 18 17  1  0
 20 19  1  0
 21 22  2  0
 21 20  1  0
 22 18  1  0
 23 24  1  0
 25 23  2  0
M  END
$$$$
