KAH.pdb
     RDKit          3D

 25 25  0  0  1  0  0  0  0  0999 V2000
    7.0242  -19.5613   21.1845 N   0  0  0  0  0  0  0  0  0  0  0  0
    6.2059  -19.0204   22.2878 C   0  0  1  0  0  0  0  0  0  0  0  0
    5.4657  -20.2091   22.8973 C   0  0  0  0  0  0  0  0  0  0  0  0
    4.3281  -20.6415   22.0609 C   0  0  0  0  0  0  0  0  0  0  0  0
    3.4999  -21.7703   22.5738 C   0  0  0  0  0  0  0  0  0  0  0  0
    2.4403  -22.2712   21.6690 C   0  0  0  0  0  0  0  0  0  0  0  0
    1.7288  -23.4046   22.1670 N   0  0  0  0  0  0  0  0  0  0  0  0
    7.0915  -18.3464   23.2554 C   0  0  0  0  0  0  0  0  0  0  0  0
    8.2050  -18.8627   23.5220 O   0  0  0  0  0  0  0  0  0  0  0  0
    7.0679  -15.1551   25.2076 C   0  0  0  0  0  0  0  0  0  0  0  0
    7.5924  -16.5426   24.8641 C   0  0  2  0  0  0  0  0  0  0  0  0
    6.7067  -17.1135   23.8978 N   0  0  0  0  0  0  0  0  0  0  0  0
    7.7115  -17.3468   26.0966 C   0  0  0  0  0  0  0  0  0  0  0  0
    6.7481  -18.0900   26.4114 O   0  0  0  0  0  0  0  0  0  0  0  0
    8.8457  -17.3342   26.9494 N   0  0  0  0  0  0  0  0  0  0  0  0
    9.1625  -18.4297   27.8433 C   0  0  1  0  0  0  0  0  0  0  0  0
    9.4352  -19.6559   26.9902 C   0  0  0  0  0  0  0  0  0  0  0  0
    8.1823  -20.4484   26.7593 C   0  0  0  0  0  0  0  0  0  0  0  0
    7.0671  -20.4567   27.5641 C   0  0  0  0  0  0  0  0  0  0  0  0
    6.1523  -21.2833   27.0361 N   0  0  0  0  0  0  0  0  0  0  0  0
    6.7079  -21.7754   25.9162 C   0  0  0  0  0  0  0  0  0  0  0  0
    7.9359  -21.2753   25.7416 N   0  0  0  0  0  0  0  0  0  0  0  0
   10.3591  -18.0628   28.6184 C   0  0  0  0  0  0  0  0  0  0  0  0
   11.4264  -17.3435   28.0734 O   0  0  0  0  0  0  0  0  0  0  0  0
   10.4831  -18.3857   29.8355 O   0  0  0  0  0  0  0  0  0  0  0  0
  2  8  1  0
  2  1  1  6
  3  2  1  0
  4  3  1  0
  5  4  1  0
  5  6  1  0
  6  7  1  0
  8  9  2  0
 11 10  1  1
 12 11  1  0
 12  8  1  0
 13 14  2  0
 13 11  1  0
 15 13  1  0
 16 15  1  0
 16 23  1  0
 16 17  1  6
 18 19  2  0
 18 17  1  0
 20 19  1  0
 21 22  2  0
 21 20  1  0
 22 18  1  0
 23 24  1  0
 25 23  2  0
M  END
$$$$
