KAH.pdb
     RDKit          3D

 25 25  0  0  1  0  0  0  0  0999 V2000
   11.2620  -18.5968   13.4068 N   0  0  0  0  0  0  0  0  0  0  0  0
    9.9223  -18.8356   13.9790 C   0  0  1  0  0  0  0  0  0  0  0  0
    9.6746  -20.3395   13.8815 C   0  0  0  0  0  0  0  0  0  0  0  0
   10.3424  -20.9361   12.7073 C   0  0  0  0  0  0  0  0  0  0  0  0
   10.9068  -22.3063   12.8719 C   0  0  0  0  0  0  0  0  0  0  0  0
    9.9569  -23.3617   13.2914 C   0  0  0  0  0  0  0  0  0  0  0  0
   10.5371  -24.6606   13.4136 N   0  0  0  0  0  0  0  0  0  0  0  0
    9.9009  -18.3457   15.3698 C   0  0  0  0  0  0  0  0  0  0  0  0
   10.6810  -17.4181   15.6992 O   0  0  0  0  0  0  0  0  0  0  0  0
    7.6833  -18.6602   18.3197 C   0  0  0  0  0  0  0  0  0  0  0  0
    9.0370  -18.3794   17.6817 C   0  0  2  0  0  0  0  0  0  0  0  0
    9.0076  -18.9073   16.3533 N   0  0  0  0  0  0  0  0  0  0  0  0
   10.1084  -18.9566   18.5176 C   0  0  0  0  0  0  0  0  0  0  0  0
   10.2311  -18.5334   19.6947 O   0  0  0  0  0  0  0  0  0  0  0  0
   11.0097  -19.9601   18.0763 N   0  0  0  0  0  0  0  0  0  0  0  0
   12.0429  -20.5113   18.9296 C   0  0  1  0  0  0  0  0  0  0  0  0
   11.9139  -22.0238   18.8904 C   0  0  0  0  0  0  0  0  0  0  0  0
   10.6956  -22.4859   19.6345 C   0  0  0  0  0  0  0  0  0  0  0  0
   10.0701  -21.8189   20.6617 C   0  0  0  0  0  0  0  0  0  0  0  0
    9.0175  -22.5400   21.0751 N   0  0  0  0  0  0  0  0  0  0  0  0
    9.0026  -23.6398   20.3037 C   0  0  0  0  0  0  0  0  0  0  0  0
   10.0145  -23.6148   19.4296 N   0  0  0  0  0  0  0  0  0  0  0  0
   13.3514  -20.0905   18.4023 C   0  0  0  0  0  0  0  0  0  0  0  0
   13.7841  -20.3982   17.1094 O   0  0  0  0  0  0  0  0  0  0  0  0
   14.1622  -19.4190   19.1042 O   0  0  0  0  0  0  0  0  0  0  0  0
  2  8  1  0
  2  1  1  1
  3  2  1  0
  4  3  1  0
  5  4  1  0
  5  6  1  0
  6  7  1  0
  8  9  2  0
 11 10  1  1
 12 11  1  0
 12  8  1  0
 13 14  2  0
 13 11  1  0
 15 13  1  0
 16 15  1  0
 16 23  1  0
 16 17  1  6
 18 19  2  0
 18 17  1  0
 20 19  1  0
 21 22  2  0
 21 20  1  0
 22 18  1  0
 23 24  1  0
 25 23  2  0
M  END
$$$$
