KAH.pdb
     RDKit          3D

 25 25  0  0  1  0  0  0  0  0999 V2000
    7.3895  -19.3650   15.3688 N   0  0  0  0  0  0  0  0  0  0  0  0
    8.7030  -19.2718   16.0362 C   0  0  1  0  0  0  0  0  0  0  0  0
    9.4466  -18.1197   15.3638 C   0  0  0  0  0  0  0  0  0  0  0  0
   10.0271  -18.5175   14.0656 C   0  0  0  0  0  0  0  0  0  0  0  0
   10.7396  -17.4624   13.2897 C   0  0  0  0  0  0  0  0  0  0  0  0
   11.2932  -17.8722   11.9789 C   0  0  0  0  0  0  0  0  0  0  0  0
   11.9284  -16.8192   11.2534 N   0  0  0  0  0  0  0  0  0  0  0  0
    8.4928  -19.0470   17.4784 C   0  0  0  0  0  0  0  0  0  0  0  0
    7.6239  -18.2168   17.8436 O   0  0  0  0  0  0  0  0  0  0  0  0
    9.5156  -20.6139   20.6815 C   0  0  0  0  0  0  0  0  0  0  0  0
    9.0742  -19.4183   19.8484 C   0  0  2  0  0  0  0  0  0  0  0  0
    9.2605  -19.7572   18.4718 N   0  0  0  0  0  0  0  0  0  0  0  0
    9.8285  -18.2190   20.2636 C   0  0  0  0  0  0  0  0  0  0  0  0
   10.8690  -17.9253   19.6227 O   0  0  0  0  0  0  0  0  0  0  0  0
    9.4532  -17.3757   21.3414 N   0  0  0  0  0  0  0  0  0  0  0  0
   10.1929  -16.1798   21.6910 C   0  0  1  0  0  0  0  0  0  0  0  0
    9.1849  -15.0736   21.9478 C   0  0  0  0  0  0  0  0  0  0  0  0
    8.6985  -14.4708   20.6627 C   0  0  0  0  0  0  0  0  0  0  0  0
    9.1862  -14.7382   19.4049 C   0  0  0  0  0  0  0  0  0  0  0  0
    8.5036  -14.0122   18.5072 N   0  0  0  0  0  0  0  0  0  0  0  0
    7.6054  -13.3069   19.2149 C   0  0  0  0  0  0  0  0  0  0  0  0
    7.7167  -13.5787   20.5196 N   0  0  0  0  0  0  0  0  0  0  0  0
   10.9750  -16.4585   22.9066 C   0  0  0  0  0  0  0  0  0  0  0  0
   12.0797  -15.6936   23.2915 O   0  0  0  0  0  0  0  0  0  0  0  0
   10.6817  -17.4196   23.6757 O   0  0  0  0  0  0  0  0  0  0  0  0
  2  8  1  0
  2  1  1  6
  3  2  1  0
  4  3  1  0
  5  4  1  0
  5  6  1  0
  6  7  1  0
  8  9  2  0
 11 10  1  1
 12 11  1  0
 12  8  1  0
 13 14  2  0
 13 11  1  0
 15 13  1  0
 16 15  1  0
 16 23  1  0
 16 17  1  1
 18 19  2  0
 18 17  1  0
 20 19  1  0
 21 22  2  0
 21 20  1  0
 22 18  1  0
 23 24  1  0
 25 23  2  0
M  END
$$$$
