KAH.pdb
     RDKit          3D

 25 25  0  0  1  0  0  0  0  0999 V2000
   12.0151  -15.4693   17.3244 N   0  0  0  0  0  0  0  0  0  0  0  0
   11.4914  -14.8502   18.5580 C   0  0  1  0  0  0  0  0  0  0  0  0
   10.2689  -14.0337   18.1442 C   0  0  0  0  0  0  0  0  0  0  0  0
    9.5938  -14.6069   16.9625 C   0  0  0  0  0  0  0  0  0  0  0  0
    8.4325  -13.8509   16.4119 C   0  0  0  0  0  0  0  0  0  0  0  0
    7.7205  -14.4777   15.2751 C   0  0  0  0  0  0  0  0  0  0  0  0
    6.6707  -13.6802   14.7267 N   0  0  0  0  0  0  0  0  0  0  0  0
   11.1629  -15.9135   19.5257 C   0  0  0  0  0  0  0  0  0  0  0  0
   10.0602  -16.5065   19.4256 O   0  0  0  0  0  0  0  0  0  0  0  0
   12.9110  -18.2721   21.5940 C   0  0  0  0  0  0  0  0  0  0  0  0
   11.7084  -17.3480   21.4587 C   0  0  2  0  0  0  0  0  0  0  0  0
   12.0771  -16.2836   20.5782 N   0  0  0  0  0  0  0  0  0  0  0  0
   11.2875  -16.8833   22.7953 C   0  0  0  0  0  0  0  0  0  0  0  0
   12.0329  -16.0716   23.3995 O   0  0  0  0  0  0  0  0  0  0  0  0
   10.0933  -17.2950   23.4422 N   0  0  0  0  0  0  0  0  0  0  0  0
    9.7431  -16.8661   24.7811 C   0  0  1  0  0  0  0  0  0  0  0  0
    8.2713  -16.4927   24.7748 C   0  0  0  0  0  0  0  0  0  0  0  0
    8.0277  -15.2519   23.9671 C   0  0  0  0  0  0  0  0  0  0  0  0
    8.9867  -14.4851   23.3477 C   0  0  0  0  0  0  0  0  0  0  0  0
    8.3906  -13.4591   22.7226 N   0  0  0  0  0  0  0  0  0  0  0  0
    7.0758  -13.6008   22.9603 C   0  0  0  0  0  0  0  0  0  0  0  0
    6.8480  -14.6829   23.7124 N   0  0  0  0  0  0  0  0  0  0  0  0
    9.9879  -17.9863   25.7045 C   0  0  0  0  0  0  0  0  0  0  0  0
    9.9110  -17.8564   27.0940 O   0  0  0  0  0  0  0  0  0  0  0  0
   10.2850  -19.1406   25.2795 O   0  0  0  0  0  0  0  0  0  0  0  0
  2  8  1  0
  2  1  1  6
  3  2  1  0
  4  3  1  0
  5  4  1  0
  5  6  1  0
  6  7  1  0
  8  9  2  0
 11 10  1  1
 12 11  1  0
 12  8  1  0
 13 14  2  0
 13 11  1  0
 15 13  1  0
 16 15  1  0
 16 23  1  0
 16 17  1  6
 18 19  2  0
 18 17  1  0
 20 19  1  0
 21 22  2  0
 21 20  1  0
 22 18  1  0
 23 24  1  0
 25 23  2  0
M  END
$$$$
