KAH.pdb
     RDKit          3D

 25 25  0  0  1  0  0  0  0  0999 V2000
    0.6805  -19.1422   14.1104 N   0  0  0  0  0  0  0  0  0  0  0  0
    1.6036  -20.0864   14.7706 C   0  0  1  0  0  0  0  0  0  0  0  0
    3.0159  -19.6326   14.4073 C   0  0  0  0  0  0  0  0  0  0  0  0
    3.0421  -18.8538   13.1530 C   0  0  0  0  0  0  0  0  0  0  0  0
    4.0838  -19.2181   12.1504 C   0  0  0  0  0  0  0  0  0  0  0  0
    4.1777  -18.3487   10.9556 C   0  0  0  0  0  0  0  0  0  0  0  0
    5.2572  -18.6696   10.0778 N   0  0  0  0  0  0  0  0  0  0  0  0
    1.3557  -20.0617   16.2242 C   0  0  0  0  0  0  0  0  0  0  0  0
    0.9512  -18.9970   16.7535 O   0  0  0  0  0  0  0  0  0  0  0  0
    0.4779  -22.2900   18.8804 C   0  0  0  0  0  0  0  0  0  0  0  0
    1.3533  -21.1193   18.4544 C   0  0  2  0  0  0  0  0  0  0  0  0
    1.5672  -21.2289   17.0449 N   0  0  0  0  0  0  0  0  0  0  0  0
    2.6042  -21.1244   19.2386 C   0  0  0  0  0  0  0  0  0  0  0  0
    2.5146  -21.1201   20.4922 O   0  0  0  0  0  0  0  0  0  0  0  0
    3.9029  -21.1339   18.6666 N   0  0  0  0  0  0  0  0  0  0  0  0
    5.1093  -21.1473   19.4690 C   0  0  1  0  0  0  0  0  0  0  0  0
    5.9283  -22.3550   19.0490 C   0  0  0  0  0  0  0  0  0  0  0  0
    5.4522  -23.6014   19.7354 C   0  0  0  0  0  0  0  0  0  0  0  0
    4.4710  -23.6746   20.6964 C   0  0  0  0  0  0  0  0  0  0  0  0
    4.3217  -24.9531   21.0731 N   0  0  0  0  0  0  0  0  0  0  0  0
    5.2072  -25.6541   20.3453 C   0  0  0  0  0  0  0  0  0  0  0  0
    5.8950  -24.8437   19.5337 N   0  0  0  0  0  0  0  0  0  0  0  0
    5.8520  -19.9033   19.2081 C   0  0  0  0  0  0  0  0  0  0  0  0
    6.7674  -19.3606   20.1142 O   0  0  0  0  0  0  0  0  0  0  0  0
    5.6962  -19.2531   18.1338 O   0  0  0  0  0  0  0  0  0  0  0  0
  2  8  1  0
  2  1  1  6
  3  2  1  0
  4  3  1  0
  5  4  1  0
  5  6  1  0
  6  7  1  0
  8  9  2  0
 11 10  1  1
 12 11  1  0
 12  8  1  0
 13 14  2  0
 13 11  1  0
 15 13  1  0
 16 15  1  0
 16 23  1  0
 16 17  1  6
 18 19  2  0
 18 17  1  0
 20 19  1  0
 21 22  2  0
 21 20  1  0
 22 18  1  0
 23 24  1  0
 25 23  2  0
M  END
$$$$
