KAH.pdb
     RDKit          3D

 25 25  0  0  1  0  0  0  0  0999 V2000
    7.8443  -16.7480   16.9698 N   0  0  0  0  0  0  0  0  0  0  0  0
    9.0898  -16.1426   16.4581 C   0  0  1  0  0  0  0  0  0  0  0  0
    8.8265  -15.7869   14.9964 C   0  0  0  0  0  0  0  0  0  0  0  0
    7.4067  -15.9628   14.6304 C   0  0  0  0  0  0  0  0  0  0  0  0
    7.0971  -16.9798   13.5849 C   0  0  0  0  0  0  0  0  0  0  0  0
    6.7140  -16.4573   12.2536 C   0  0  0  0  0  0  0  0  0  0  0  0
    6.4791  -17.4661   11.2709 N   0  0  0  0  0  0  0  0  0  0  0  0
    9.4214  -14.9629   17.2786 C   0  0  0  0  0  0  0  0  0  0  0  0
   10.4708  -14.3213   17.0239 O   0  0  0  0  0  0  0  0  0  0  0  0
    7.6711  -12.6381   19.4920 C   0  0  0  0  0  0  0  0  0  0  0  0
    8.9473  -13.3739   19.1069 C   0  0  2  0  0  0  0  0  0  0  0  0
    8.5700  -14.5339   18.3610 N   0  0  0  0  0  0  0  0  0  0  0  0
    9.7254  -13.6865   20.3220 C   0  0  0  0  0  0  0  0  0  0  0  0
    9.3342  -13.2023   21.4139 O   0  0  0  0  0  0  0  0  0  0  0  0
   10.8882  -14.4998   20.3359 N   0  0  0  0  0  0  0  0  0  0  0  0
   11.2763  -15.2875   21.4885 C   0  0  1  0  0  0  0  0  0  0  0  0
   10.2005  -16.3353   21.7134 C   0  0  0  0  0  0  0  0  0  0  0  0
    9.2376  -15.9069   22.7813 C   0  0  0  0  0  0  0  0  0  0  0  0
    9.2557  -14.7095   23.4578 C   0  0  0  0  0  0  0  0  0  0  0  0
    8.2414  -14.6870   24.3350 N   0  0  0  0  0  0  0  0  0  0  0  0
    7.6096  -15.8642   24.1932 C   0  0  0  0  0  0  0  0  0  0  0  0
    8.2060  -16.6079   23.2552 N   0  0  0  0  0  0  0  0  0  0  0  0
   12.5690  -15.9285   21.1966 C   0  0  0  0  0  0  0  0  0  0  0  0
   13.4677  -16.3155   22.1946 O   0  0  0  0  0  0  0  0  0  0  0  0
   12.9367  -16.1647   20.0091 O   0  0  0  0  0  0  0  0  0  0  0  0
  2  8  1  0
  2  1  1  1
  3  2  1  0
  4  3  1  0
  5  4  1  0
  5  6  1  0
  6  7  1  0
  8  9  2  0
 11 10  1  1
 12 11  1  0
 12  8  1  0
 13 14  2  0
 13 11  1  0
 15 13  1  0
 16 15  1  0
 16 23  1  0
 16 17  1  6
 18 19  2  0
 18 17  1  0
 20 19  1  0
 21 22  2  0
 21 20  1  0
 22 18  1  0
 23 24  1  0
 25 23  2  0
M  END
$$$$
