KAH.pdb
     RDKit          3D

 25 25  0  0  1  0  0  0  0  0999 V2000
    7.6244  -12.4946   18.7801 N   0  0  0  0  0  0  0  0  0  0  0  0
    7.6079  -13.9680   18.6897 C   0  0  1  0  0  0  0  0  0  0  0  0
    8.7508  -14.3544   17.7532 C   0  0  0  0  0  0  0  0  0  0  0  0
    8.3069  -14.4520   16.3482 C   0  0  0  0  0  0  0  0  0  0  0  0
    9.2987  -14.9601   15.3576 C   0  0  0  0  0  0  0  0  0  0  0  0
    8.8523  -15.0074   13.9467 C   0  0  0  0  0  0  0  0  0  0  0  0
    9.8215  -15.5346   13.0403 N   0  0  0  0  0  0  0  0  0  0  0  0
    7.7669  -14.5329   20.0427 C   0  0  0  0  0  0  0  0  0  0  0  0
    8.3084  -13.8326   20.9337 O   0  0  0  0  0  0  0  0  0  0  0  0
    6.4443  -17.4290   21.9350 C   0  0  0  0  0  0  0  0  0  0  0  0
    7.4825  -16.3405   21.6992 C   0  0  2  0  0  0  0  0  0  0  0  0
    7.3156  -15.8654   20.3610 N   0  0  0  0  0  0  0  0  0  0  0  0
    8.8321  -16.8763   21.9664 C   0  0  0  0  0  0  0  0  0  0  0  0
    9.0218  -17.4836   23.0502 O   0  0  0  0  0  0  0  0  0  0  0  0
    9.9301  -16.7491   21.0764 N   0  0  0  0  0  0  0  0  0  0  0  0
   11.2129  -17.3753   21.3248 C   0  0  1  0  0  0  0  0  0  0  0  0
   12.0231  -17.2892   20.0435 C   0  0  0  0  0  0  0  0  0  0  0  0
   11.4062  -18.1142   18.9525 C   0  0  0  0  0  0  0  0  0  0  0  0
   10.4295  -19.0694   19.1107 C   0  0  0  0  0  0  0  0  0  0  0  0
   10.1313  -19.5932   17.9125 N   0  0  0  0  0  0  0  0  0  0  0  0
   10.9223  -18.9601   17.0301 C   0  0  0  0  0  0  0  0  0  0  0  0
   11.6966  -18.0639   17.6512 N   0  0  0  0  0  0  0  0  0  0  0  0
   11.8834  -16.6411   22.4105 C   0  0  0  0  0  0  0  0  0  0  0  0
   13.1167  -17.0291   22.9415 O   0  0  0  0  0  0  0  0  0  0  0  0
   11.3686  -15.6061   22.9251 O   0  0  0  0  0  0  0  0  0  0  0  0
  2  8  1  0
  2  1  1  1
  3  2  1  0
  4  3  1  0
  5  4  1  0
  5  6  1  0
  6  7  1  0
  8  9  2  0
 11 10  1  6
 12 11  1  0
 12  8  1  0
 13 14  2  0
 13 11  1  0
 15 13  1  0
 16 15  1  0
 16 23  1  0
 16 17  1  6
 18 19  2  0
 18 17  1  0
 20 19  1  0
 21 22  2  0
 21 20  1  0
 22 18  1  0
 23 24  1  0
 25 23  2  0
M  END
$$$$
