KAH.pdb
     RDKit          3D

 25 25  0  0  1  0  0  0  0  0999 V2000
    6.1611  -16.0492   20.7508 N   0  0  0  0  0  0  0  0  0  0  0  0
    7.5282  -15.5676   21.0310 C   0  0  1  0  0  0  0  0  0  0  0  0
    7.4107  -14.0675   21.2928 C   0  0  0  0  0  0  0  0  0  0  0  0
    7.2833  -13.2948   20.0410 C   0  0  0  0  0  0  0  0  0  0  0  0
    8.1790  -13.6794   18.9127 C   0  0  0  0  0  0  0  0  0  0  0  0
    8.1476  -12.8015   17.7208 C   0  0  0  0  0  0  0  0  0  0  0  0
    8.9669  -13.2474   16.6398 N   0  0  0  0  0  0  0  0  0  0  0  0
    8.0685  -16.3053   22.1880 C   0  0  0  0  0  0  0  0  0  0  0  0
    7.3369  -16.4772   23.1943 O   0  0  0  0  0  0  0  0  0  0  0  0
   11.1888  -18.2089   22.9764 C   0  0  0  0  0  0  0  0  0  0  0  0
    9.8637  -17.5509   23.3361 C   0  0  2  0  0  0  0  0  0  0  0  0
    9.4121  -16.8300   22.1869 N   0  0  0  0  0  0  0  0  0  0  0  0
   10.0406  -16.6995   24.5292 C   0  0  0  0  0  0  0  0  0  0  0  0
   10.7655  -15.6783   24.4231 O   0  0  0  0  0  0  0  0  0  0  0  0
    9.4435  -16.9609   25.7898 N   0  0  0  0  0  0  0  0  0  0  0  0
    9.7530  -16.1878   26.9755 C   0  0  1  0  0  0  0  0  0  0  0  0
    8.4520  -15.6037   27.4970 C   0  0  0  0  0  0  0  0  0  0  0  0
    7.9797  -14.4701   26.6349 C   0  0  0  0  0  0  0  0  0  0  0  0
    8.6371  -13.9515   25.5439 C   0  0  0  0  0  0  0  0  0  0  0  0
    7.9089  -12.9494   25.0296 N   0  0  0  0  0  0  0  0  0  0  0  0
    6.8144  -12.8587   25.8035 C   0  0  0  0  0  0  0  0  0  0  0  0
    6.8496  -13.7752   26.7769 N   0  0  0  0  0  0  0  0  0  0  0  0
   10.3507  -17.0904   27.9732 C   0  0  0  0  0  0  0  0  0  0  0  0
   10.5856  -18.4460   27.7272 O   0  0  0  0  0  0  0  0  0  0  0  0
   10.6866  -16.6775   29.1211 O   0  0  0  0  0  0  0  0  0  0  0  0
  2  8  1  0
  2  1  1  1
  3  2  1  0
  4  3  1  0
  5  4  1  0
  5  6  1  0
  6  7  1  0
  8  9  2  0
 11 10  1  6
 12 11  1  0
 12  8  1  0
 13 14  2  0
 13 11  1  0
 15 13  1  0
 16 15  1  0
 16 23  1  0
 16 17  1  1
 18 19  2  0
 18 17  1  0
 20 19  1  0
 21 22  2  0
 21 20  1  0
 22 18  1  0
 23 24  1  0
 25 23  2  0
M  END
$$$$
