KAH.pdb
     RDKit          3D

 25 25  0  0  1  0  0  0  0  0999 V2000
    7.3898  -17.5396   18.7338 N   0  0  0  0  0  0  0  0  0  0  0  0
    8.8276  -17.2997   18.5002 C   0  0  1  0  0  0  0  0  0  0  0  0
    9.0144  -17.2463   16.9854 C   0  0  0  0  0  0  0  0  0  0  0  0
    8.3022  -16.1035   16.3792 C   0  0  0  0  0  0  0  0  0  0  0  0
    8.4945  -15.8830   14.9172 C   0  0  0  0  0  0  0  0  0  0  0  0
    7.7754  -14.7313   14.3267 C   0  0  0  0  0  0  0  0  0  0  0  0
    7.8867  -14.6336   12.9065 N   0  0  0  0  0  0  0  0  0  0  0  0
    9.2178  -16.0425   19.1650 C   0  0  0  0  0  0  0  0  0  0  0  0
   10.4294  -15.7114   19.1754 O   0  0  0  0  0  0  0  0  0  0  0  0
    7.5764  -12.9841   20.4073 C   0  0  0  0  0  0  0  0  0  0  0  0
    8.6975  -14.0126   20.4693 C   0  0  2  0  0  0  0  0  0  0  0  0
    8.2419  -15.1908   19.7997 N   0  0  0  0  0  0  0  0  0  0  0  0
    9.0768  -14.2484   21.8765 C   0  0  0  0  0  0  0  0  0  0  0  0
    9.5564  -13.2862   22.5275 O   0  0  0  0  0  0  0  0  0  0  0  0
    8.9343  -15.4937   22.5418 N   0  0  0  0  0  0  0  0  0  0  0  0
    9.4027  -15.7138   23.8952 C   0  0  1  0  0  0  0  0  0  0  0  0
    8.1967  -16.0650   24.7484 C   0  0  0  0  0  0  0  0  0  0  0  0
    7.4324  -14.8358   25.1433 C   0  0  0  0  0  0  0  0  0  0  0  0
    7.9535  -13.5737   25.3079 C   0  0  0  0  0  0  0  0  0  0  0  0
    6.9681  -12.7360   25.6628 N   0  0  0  0  0  0  0  0  0  0  0  0
    5.8533  -13.4842   25.7140 C   0  0  0  0  0  0  0  0  0  0  0  0
    6.1257  -14.7556   25.4011 N   0  0  0  0  0  0  0  0  0  0  0  0
   10.3644  -16.8283   23.8763 C   0  0  0  0  0  0  0  0  0  0  0  0
   10.7418  -17.4864   22.7024 O   0  0  0  0  0  0  0  0  0  0  0  0
   10.9057  -17.2527   24.9384 O   0  0  0  0  0  0  0  0  0  0  0  0
  2  8  1  0
  2  1  1  6
  3  2  1  0
  4  3  1  0
  5  4  1  0
  5  6  1  0
  6  7  1  0
  8  9  2  0
 11 10  1  1
 12 11  1  0
 12  8  1  0
 13 14  2  0
 13 11  1  0
 15 13  1  0
 16 15  1  0
 16 23  1  0
 16 17  1  1
 18 19  2  0
 18 17  1  0
 20 19  1  0
 21 22  2  0
 21 20  1  0
 22 18  1  0
 23 24  1  0
 25 23  2  0
M  END
$$$$
