KAH.pdb
     RDKit          3D

 25 25  0  0  1  0  0  0  0  0999 V2000
    8.3724  -15.4158   15.0849 N   0  0  0  0  0  0  0  0  0  0  0  0
    7.4388  -15.4676   16.2274 C   0  0  1  0  0  0  0  0  0  0  0  0
    6.9985  -16.9242   16.3576 C   0  0  0  0  0  0  0  0  0  0  0  0
    6.7810  -17.5571   15.0413 C   0  0  0  0  0  0  0  0  0  0  0  0
    7.3701  -18.9111   14.8344 C   0  0  0  0  0  0  0  0  0  0  0  0
    7.0214  -19.5921   13.5667 C   0  0  0  0  0  0  0  0  0  0  0  0
    7.6407  -20.8670   13.3941 N   0  0  0  0  0  0  0  0  0  0  0  0
    8.1292  -14.9733   17.4332 C   0  0  0  0  0  0  0  0  0  0  0  0
    9.3072  -15.3482   17.6555 O   0  0  0  0  0  0  0  0  0  0  0  0
    7.3536  -12.6146   20.2372 C   0  0  0  0  0  0  0  0  0  0  0  0
    8.2049  -13.6505   19.5157 C   0  0  2  0  0  0  0  0  0  0  0  0
    7.4826  -14.0734   18.3565 N   0  0  0  0  0  0  0  0  0  0  0  0
    8.5293  -14.7559   20.4391 C   0  0  0  0  0  0  0  0  0  0  0  0
    7.6809  -15.6717   20.5841 O   0  0  0  0  0  0  0  0  0  0  0  0
    9.7395  -14.8505   21.1743 N   0  0  0  0  0  0  0  0  0  0  0  0
    9.9704  -15.8786   22.1688 C   0  0  1  0  0  0  0  0  0  0  0  0
   11.4719  -16.0602   22.3032 C   0  0  0  0  0  0  0  0  0  0  0  0
   12.0312  -16.8421   21.1511 C   0  0  0  0  0  0  0  0  0  0  0  0
   11.3557  -17.7741   20.3985 C   0  0  0  0  0  0  0  0  0  0  0  0
   12.1814  -18.2609   19.4603 N   0  0  0  0  0  0  0  0  0  0  0  0
   13.3530  -17.6286   19.6411 C   0  0  0  0  0  0  0  0  0  0  0  0
   13.2704  -16.7685   20.6620 N   0  0  0  0  0  0  0  0  0  0  0  0
    9.3883  -15.4278   23.4437 C   0  0  0  0  0  0  0  0  0  0  0  0
    9.3616  -16.2256   24.5910 O   0  0  0  0  0  0  0  0  0  0  0  0
    8.8751  -14.2777   23.5662 O   0  0  0  0  0  0  0  0  0  0  0  0
  2  8  1  0
  2  1  1  6
  3  2  1  0
  4  3  1  0
  5  4  1  0
  5  6  1  0
  6  7  1  0
  8  9  2  0
 11 10  1  1
 12 11  1  0
 12  8  1  0
 13 14  2  0
 13 11  1  0
 15 13  1  0
 16 15  1  0
 16 23  1  0
 16 17  1  1
 18 19  2  0
 18 17  1  0
 20 19  1  0
 21 22  2  0
 21 20  1  0
 22 18  1  0
 23 24  1  0
 25 23  2  0
M  END
$$$$
