KAH.pdb
     RDKit          3D

 25 25  0  0  1  0  0  0  0  0999 V2000
    7.6200  -18.4708   21.1208 N   0  0  0  0  0  0  0  0  0  0  0  0
    8.9609  -18.0649   20.6555 C   0  0  1  0  0  0  0  0  0  0  0  0
    8.9925  -18.3282   19.1514 C   0  0  0  0  0  0  0  0  0  0  0  0
    8.1926  -19.5124   18.7793 C   0  0  0  0  0  0  0  0  0  0  0  0
    6.9111  -19.2656   18.0583 C   0  0  0  0  0  0  0  0  0  0  0  0
    6.2348  -20.4563   17.4950 C   0  0  0  0  0  0  0  0  0  0  0  0
    5.0578  -20.1631   16.7418 N   0  0  0  0  0  0  0  0  0  0  0  0
    9.1736  -16.6439   20.9877 C   0  0  0  0  0  0  0  0  0  0  0  0
   10.2111  -16.0714   20.5712 O   0  0  0  0  0  0  0  0  0  0  0  0
    7.2597  -13.7364   22.0317 C   0  0  0  0  0  0  0  0  0  0  0  0
    8.5367  -14.5581   22.1435 C   0  0  2  0  0  0  0  0  0  0  0  0
    8.2198  -15.9031   21.7764 N   0  0  0  0  0  0  0  0  0  0  0  0
    9.0858  -14.4376   23.5087 C   0  0  0  0  0  0  0  0  0  0  0  0
    9.6148  -13.3460   23.8376 O   0  0  0  0  0  0  0  0  0  0  0  0
    9.0544  -15.4770   24.4744 N   0  0  0  0  0  0  0  0  0  0  0  0
    9.5370  -15.2988   25.8290 C   0  0  1  0  0  0  0  0  0  0  0  0
    8.3359  -15.3522   26.7564 C   0  0  0  0  0  0  0  0  0  0  0  0
    7.4039  -14.2030   26.5073 C   0  0  0  0  0  0  0  0  0  0  0  0
    7.5454  -12.9235   26.9912 C   0  0  0  0  0  0  0  0  0  0  0  0
    6.5195  -12.1758   26.5583 N   0  0  0  0  0  0  0  0  0  0  0  0
    5.7579  -12.9959   25.8150 C   0  0  0  0  0  0  0  0  0  0  0  0
    6.2860  -14.2241   25.7791 N   0  0  0  0  0  0  0  0  0  0  0  0
   10.4741  -16.3926   26.1337 C   0  0  0  0  0  0  0  0  0  0  0  0
   11.1030  -16.5309   27.3742 O   0  0  0  0  0  0  0  0  0  0  0  0
   10.7614  -17.2758   25.2743 O   0  0  0  0  0  0  0  0  0  0  0  0
  2  8  1  0
  2  1  1  6
  3  2  1  0
  4  3  1  0
  5  4  1  0
  5  6  1  0
  6  7  1  0
  8  9  2  0
 11 10  1  1
 12 11  1  0
 12  8  1  0
 13 14  2  0
 13 11  1  0
 15 13  1  0
 16 15  1  0
 16 23  1  0
 16 17  1  1
 18 19  2  0
 18 17  1  0
 20 19  1  0
 21 22  2  0
 21 20  1  0
 22 18  1  0
 23 24  1  0
 25 23  2  0
M  END
$$$$
