CTW.pdb
     RDKit          3D

 28 29  0  0  1  0  0  0  0  0999 V2000
   31.2405  -25.5651  -17.6477 N   0  0  0  0  0  0  0  0  0  0  0  0
   30.1616  -25.7969  -16.7098 C   0  0  1  0  0  0  0  0  0  0  0  0
   30.1692  -24.7249  -15.6158 C   0  0  0  0  0  0  0  0  0  0  0  0
   29.3734  -23.2474  -16.2858 S   0  0  0  0  0  0  0  0  0  0  0  0
   28.8474  -25.8498  -17.4041 C   0  0  0  0  0  0  0  0  0  0  0  0
   28.7521  -25.2672  -18.5154 O   0  0  0  0  0  0  0  0  0  0  0  0
   27.4764  -27.9222  -19.4609 C   0  0  0  0  0  0  0  0  0  0  0  0
   26.5096  -27.9051  -18.3267 C   0  0  1  0  0  0  0  0  0  0  0  0
   26.7969  -28.9948  -17.4589 O   0  0  0  0  0  0  0  0  0  0  0  0
   26.4991  -26.6249  -17.5176 C   0  0  2  0  0  0  0  0  0  0  0  0
   27.7803  -26.5381  -16.8004 N   0  0  0  0  0  0  0  0  0  0  0  0
   25.4265  -26.5526  -16.5110 C   0  0  0  0  0  0  0  0  0  0  0  0
   25.6424  -26.9832  -15.3175 O   0  0  0  0  0  0  0  0  0  0  0  0
   24.1226  -26.0337  -16.7239 N   0  0  0  0  0  0  0  0  0  0  0  0
   23.1098  -26.0317  -15.6781 C   0  0  1  0  0  0  0  0  0  0  0  0
   22.1266  -24.9135  -15.9420 C   0  0  0  0  0  0  0  0  0  0  0  0
   22.6532  -23.6121  -15.4999 C   0  0  0  0  0  0  0  0  0  0  0  0
   23.7761  -22.9283  -15.9385 C   0  0  0  0  0  0  0  0  0  0  0  0
   23.8580  -21.7794  -15.2457 N   0  0  0  0  0  0  0  0  0  0  0  0
   22.8148  -21.7053  -14.3704 C   0  0  0  0  0  0  0  0  0  0  0  0
   22.4929  -20.7169  -13.4638 C   0  0  0  0  0  0  0  0  0  0  0  0
   21.3760  -20.8526  -12.6686 C   0  0  0  0  0  0  0  0  0  0  0  0
   20.5884  -21.9791  -12.7876 C   0  0  0  0  0  0  0  0  0  0  0  0
   20.9391  -22.9558  -13.7094 C   0  0  0  0  0  0  0  0  0  0  0  0
   22.0456  -22.8482  -14.5149 C   0  0  0  0  0  0  0  0  0  0  0  0
   22.3590  -27.2956  -15.7499 C   0  0  0  0  0  0  0  0  0  0  0  0
   21.6051  -27.7157  -14.6781 O   0  0  0  0  0  0  0  0  0  0  0  0
   22.3934  -28.0062  -16.7822 O   0  0  0  0  0  0  0  0  0  0  0  0
  2  1  1  6
  3  2  1  0
  4  3  1  0
  5  2  1  0
  5  6  2  0
  8  7  1  6
  8 10  1  0
  9  8  1  0
 10 11  1  1
 10 12  1  0
 11  5  1  0
 12 14  1  0
 12 13  2  0
 14 15  1  0
 15 26  1  0
 15 16  1  6
 17 18  2  0
 17 16  1  0
 19 18  1  0
 20 25  2  0
 20 19  1  0
 21 20  1  0
 22 23  1  0
 22 21  2  0
 23 24  2  0
 24 25  1  0
 25 17  1  0
 26 27  1  0
 28 26  2  0
M  END
$$$$
