CTW.pdb
     RDKit          3D

 28 29  0  0  1  0  0  0  0  0999 V2000
   28.0687  -20.4099  -15.7091 N   0  0  0  0  0  0  0  0  0  0  0  0
   27.1403  -20.1414  -14.6305 C   0  0  1  0  0  0  0  0  0  0  0  0
   27.2405  -18.6761  -14.1957 C   0  0  0  0  0  0  0  0  0  0  0  0
   26.6597  -17.6528  -15.5671 S   0  0  0  0  0  0  0  0  0  0  0  0
   25.7486  -20.4951  -15.0182 C   0  0  0  0  0  0  0  0  0  0  0  0
   25.4879  -20.5711  -16.2469 O   0  0  0  0  0  0  0  0  0  0  0  0
   24.0266  -23.5353  -14.3520 C   0  0  0  0  0  0  0  0  0  0  0  0
   23.1223  -22.4572  -13.8606 C   0  0  1  0  0  0  0  0  0  0  0  0
   23.1857  -22.4134  -12.4403 O   0  0  0  0  0  0  0  0  0  0  0  0
   23.4214  -21.0765  -14.4064 C   0  0  2  0  0  0  0  0  0  0  0  0
   24.7946  -20.7269  -14.0117 N   0  0  0  0  0  0  0  0  0  0  0  0
   22.5345  -20.0175  -13.8959 C   0  0  0  0  0  0  0  0  0  0  0  0
   22.7961  -19.4559  -12.7678 O   0  0  0  0  0  0  0  0  0  0  0  0
   21.3716  -19.5253  -14.5440 N   0  0  0  0  0  0  0  0  0  0  0  0
   20.5521  -18.4693  -13.9674 C   0  0  1  0  0  0  0  0  0  0  0  0
   20.4439  -17.3298  -14.9556 C   0  0  0  0  0  0  0  0  0  0  0  0
   19.6256  -16.2273  -14.4252 C   0  0  0  0  0  0  0  0  0  0  0  0
   19.9377  -15.3004  -13.4432 C   0  0  0  0  0  0  0  0  0  0  0  0
   18.8805  -14.4840  -13.2934 N   0  0  0  0  0  0  0  0  0  0  0  0
   17.8934  -14.8617  -14.1554 C   0  0  0  0  0  0  0  0  0  0  0  0
   16.6403  -14.3203  -14.3529 C   0  0  0  0  0  0  0  0  0  0  0  0
   15.7950  -14.8712  -15.2911 C   0  0  0  0  0  0  0  0  0  0  0  0
   16.2117  -15.9620  -16.0258 C   0  0  0  0  0  0  0  0  0  0  0  0
   17.4787  -16.4835  -15.8036 C   0  0  0  0  0  0  0  0  0  0  0  0
   18.3426  -15.9561  -14.8761 C   0  0  0  0  0  0  0  0  0  0  0  0
   19.1924  -18.9923  -13.7576 C   0  0  0  0  0  0  0  0  0  0  0  0
   18.4373  -18.5534  -12.6942 O   0  0  0  0  0  0  0  0  0  0  0  0
   18.7023  -19.8411  -14.5394 O   0  0  0  0  0  0  0  0  0  0  0  0
  2  1  1  6
  3  2  1  0
  4  3  1  0
  5  2  1  0
  5  6  2  0
  8  7  1  6
  8 10  1  0
  9  8  1  0
 10 11  1  1
 10 12  1  0
 11  5  1  0
 12 14  1  0
 12 13  2  0
 14 15  1  0
 15 26  1  0
 15 16  1  6
 17 18  2  0
 17 16  1  0
 19 18  1  0
 20 25  2  0
 20 19  1  0
 21 20  1  0
 22 23  1  0
 22 21  2  0
 23 24  2  0
 24 25  1  0
 25 17  1  0
 26 27  1  0
 28 26  2  0
M  END
$$$$
