CTW.pdb
     RDKit          3D

 28 29  0  0  1  0  0  0  0  0999 V2000
   27.9077  -20.7413  -18.1701 N   0  0  0  0  0  0  0  0  0  0  0  0
   27.8968  -21.4268  -16.8945 C   0  0  1  0  0  0  0  0  0  0  0  0
   29.2288  -22.1483  -16.6677 C   0  0  0  0  0  0  0  0  0  0  0  0
   29.0957  -23.0802  -15.1253 S   0  0  0  0  0  0  0  0  0  0  0  0
   27.5960  -20.4872  -15.7815 C   0  0  0  0  0  0  0  0  0  0  0  0
   28.0902  -19.3317  -15.8453 O   0  0  0  0  0  0  0  0  0  0  0  0
   25.9697  -18.2551  -15.5502 C   0  0  0  0  0  0  0  0  0  0  0  0
   25.4139  -18.9684  -14.3654 C   0  0  1  0  0  0  0  0  0  0  0  0
   24.2397  -19.6689  -14.7573 O   0  0  0  0  0  0  0  0  0  0  0  0
   26.3663  -19.9422  -13.7032 C   0  0  2  0  0  0  0  0  0  0  0  0
   26.7837  -20.9208  -14.7189 N   0  0  0  0  0  0  0  0  0  0  0  0
   25.7804  -20.6957  -12.5818 C   0  0  0  0  0  0  0  0  0  0  0  0
   25.4495  -21.9286  -12.7462 O   0  0  0  0  0  0  0  0  0  0  0  0
   25.5325  -20.1871  -11.2801 N   0  0  0  0  0  0  0  0  0  0  0  0
   24.9683  -21.0115  -10.2212 C   0  0  1  0  0  0  0  0  0  0  0  0
   25.3940  -20.4567   -8.8804 C   0  0  0  0  0  0  0  0  0  0  0  0
   26.8381  -20.6308   -8.6548 C   0  0  0  0  0  0  0  0  0  0  0  0
   27.7735  -21.2850   -9.4408 C   0  0  0  0  0  0  0  0  0  0  0  0
   28.9682  -21.1836   -8.8334 N   0  0  0  0  0  0  0  0  0  0  0  0
   28.8263  -20.4795   -7.6740 C   0  0  0  0  0  0  0  0  0  0  0  0
   29.7721  -20.1312   -6.7325 C   0  0  0  0  0  0  0  0  0  0  0  0
   29.3997  -19.4064   -5.6214 C   0  0  0  0  0  0  0  0  0  0  0  0
   28.0806  -19.0353   -5.4615 C   0  0  0  0  0  0  0  0  0  0  0  0
   27.1528  -19.4012   -6.4268 C   0  0  0  0  0  0  0  0  0  0  0  0
   27.4941  -20.1229   -7.5437 C   0  0  0  0  0  0  0  0  0  0  0  0
   23.5008  -20.9162  -10.2839 C   0  0  0  0  0  0  0  0  0  0  0  0
   22.7191  -21.7283   -9.4947 O   0  0  0  0  0  0  0  0  0  0  0  0
   22.9419  -20.0985  -11.0527 O   0  0  0  0  0  0  0  0  0  0  0  0
  2  1  1  6
  3  2  1  0
  4  3  1  0
  5  2  1  0
  5  6  2  0
  8  7  1  6
  8 10  1  0
  9  8  1  0
 10 11  1  6
 10 12  1  0
 11  5  1  0
 12 14  1  0
 12 13  2  0
 14 15  1  0
 15 26  1  0
 15 16  1  1
 17 18  2  0
 17 16  1  0
 19 18  1  0
 20 25  2  0
 20 19  1  0
 21 20  1  0
 22 23  1  0
 22 21  2  0
 23 24  2  0
 24 25  1  0
 25 17  1  0
 26 27  1  0
 28 26  2  0
M  END
$$$$
