CTW.pdb
     RDKit          3D

 28 29  0  0  1  0  0  0  0  0999 V2000
   28.9869  -22.1215  -17.9836 N   0  0  0  0  0  0  0  0  0  0  0  0
   28.0512  -22.5204  -16.9527 C   0  0  1  0  0  0  0  0  0  0  0  0
   28.3610  -23.9426  -16.4756 C   0  0  0  0  0  0  0  0  0  0  0  0
   27.0482  -24.4411  -15.3383 S   0  0  0  0  0  0  0  0  0  0  0  0
   28.0575  -21.5578  -15.8189 C   0  0  0  0  0  0  0  0  0  0  0  0
   29.1753  -21.1702  -15.3903 O   0  0  0  0  0  0  0  0  0  0  0  0
   27.4244  -18.2068  -15.6027 C   0  0  0  0  0  0  0  0  0  0  0  0
   26.4531  -18.8275  -14.6577 C   0  0  1  0  0  0  0  0  0  0  0  0
   25.1870  -18.9290  -15.2978 O   0  0  0  0  0  0  0  0  0  0  0  0
   26.8511  -20.1945  -14.1413 C   0  0  2  0  0  0  0  0  0  0  0  0
   26.8330  -21.1258  -15.2797 N   0  0  0  0  0  0  0  0  0  0  0  0
   25.9495  -20.7402  -13.1128 C   0  0  0  0  0  0  0  0  0  0  0  0
   25.0852  -21.6381  -13.4344 O   0  0  0  0  0  0  0  0  0  0  0  0
   25.9316  -20.3682  -11.7432 N   0  0  0  0  0  0  0  0  0  0  0  0
   24.9545  -20.9059  -10.8075 C   0  0  1  0  0  0  0  0  0  0  0  0
   25.3698  -20.5501   -9.3976 C   0  0  0  0  0  0  0  0  0  0  0  0
   26.7855  -20.8692   -9.1519 C   0  0  0  0  0  0  0  0  0  0  0  0
   27.6295  -21.7070   -9.8637 C   0  0  0  0  0  0  0  0  0  0  0  0
   28.8338  -21.6853   -9.2673 N   0  0  0  0  0  0  0  0  0  0  0  0
   28.7874  -20.8535   -8.1875 C   0  0  0  0  0  0  0  0  0  0  0  0
   29.7769  -20.5240   -7.2849 C   0  0  0  0  0  0  0  0  0  0  0  0
   29.5035  -19.6496   -6.2558 C   0  0  0  0  0  0  0  0  0  0  0  0
   28.2389  -19.1108   -6.1382 C   0  0  0  0  0  0  0  0  0  0  0  0
   27.2649  -19.4622   -7.0626 C   0  0  0  0  0  0  0  0  0  0  0  0
   27.5078  -20.3305   -8.0979 C   0  0  0  0  0  0  0  0  0  0  0  0
   23.6588  -20.2535  -11.0558 C   0  0  0  0  0  0  0  0  0  0  0  0
   22.5308  -20.6769  -10.3908 O   0  0  0  0  0  0  0  0  0  0  0  0
   23.5614  -19.3069  -11.8722 O   0  0  0  0  0  0  0  0  0  0  0  0
  2  1  1  6
  3  2  1  0
  4  3  1  0
  5  2  1  0
  5  6  2  0
  8  7  1  6
  8 10  1  0
  9  8  1  0
 10 11  1  6
 10 12  1  0
 11  5  1  0
 12 14  1  0
 12 13  2  0
 14 15  1  0
 15 26  1  0
 15 16  1  1
 17 18  2  0
 17 16  1  0
 19 18  1  0
 20 25  2  0
 20 19  1  0
 21 20  1  0
 22 23  1  0
 22 21  2  0
 23 24  2  0
 24 25  1  0
 25 17  1  0
 26 27  1  0
 28 26  2  0
M  END
$$$$
