CTW.pdb
     RDKit          3D

 28 29  0  0  1  0  0  0  0  0999 V2000
   29.0357  -19.1017  -18.2008 N   0  0  0  0  0  0  0  0  0  0  0  0
   28.1356  -18.7337  -17.1276 C   0  0  1  0  0  0  0  0  0  0  0  0
   28.5126  -17.3596  -16.5657 C   0  0  0  0  0  0  0  0  0  0  0  0
   27.4311  -17.0238  -15.1576 S   0  0  0  0  0  0  0  0  0  0  0  0
   26.7191  -18.7612  -17.5804 C   0  0  0  0  0  0  0  0  0  0  0  0
   26.4812  -18.4240  -18.7691 O   0  0  0  0  0  0  0  0  0  0  0  0
   25.1050  -20.1426  -19.3482 C   0  0  0  0  0  0  0  0  0  0  0  0
   24.2019  -20.2879  -18.1714 C   0  0  1  0  0  0  0  0  0  0  0  0
   24.4585  -21.5385  -17.5443 O   0  0  0  0  0  0  0  0  0  0  0  0
   24.3214  -19.1883  -17.1368 C   0  0  2  0  0  0  0  0  0  0  0  0
   25.7179  -19.1569  -16.6760 N   0  0  0  0  0  0  0  0  0  0  0  0
   23.4713  -19.3780  -15.9494 C   0  0  0  0  0  0  0  0  0  0  0  0
   24.0095  -19.6956  -14.8243 O   0  0  0  0  0  0  0  0  0  0  0  0
   22.0592  -19.2395  -15.9093 N   0  0  0  0  0  0  0  0  0  0  0  0
   21.3112  -19.2916  -14.6615 C   0  0  1  0  0  0  0  0  0  0  0  0
   21.5232  -18.0014  -13.9018 C   0  0  0  0  0  0  0  0  0  0  0  0
   21.3055  -16.8248  -14.7588 C   0  0  0  0  0  0  0  0  0  0  0  0
   20.1759  -16.4611  -15.4747 C   0  0  0  0  0  0  0  0  0  0  0  0
   20.4423  -15.3073  -16.1106 N   0  0  0  0  0  0  0  0  0  0  0  0
   21.7170  -14.9174  -15.8222 C   0  0  0  0  0  0  0  0  0  0  0  0
   22.4166  -13.8068  -16.2458 C   0  0  0  0  0  0  0  0  0  0  0  0
   23.7130  -13.6100  -15.8228 C   0  0  0  0  0  0  0  0  0  0  0  0
   24.3000  -14.5285  -14.9772 C   0  0  0  0  0  0  0  0  0  0  0  0
   23.5695  -15.6359  -14.5688 C   0  0  0  0  0  0  0  0  0  0  0  0
   22.2766  -15.8584  -14.9736 C   0  0  0  0  0  0  0  0  0  0  0  0
   19.8763  -19.3779  -14.9779 C   0  0  0  0  0  0  0  0  0  0  0  0
   18.9557  -19.5734  -13.9740 O   0  0  0  0  0  0  0  0  0  0  0  0
   19.4713  -19.2754  -16.1600 O   0  0  0  0  0  0  0  0  0  0  0  0
  2  1  1  6
  3  2  1  0
  4  3  1  0
  5  2  1  0
  5  6  2  0
  8  7  1  6
  8 10  1  0
  9  8  1  0
 10 11  1  1
 10 12  1  0
 11  5  1  0
 12 14  1  0
 12 13  2  0
 14 15  1  0
 15 26  1  0
 15 16  1  1
 17 18  2  0
 17 16  1  0
 19 18  1  0
 20 25  2  0
 20 19  1  0
 21 20  1  0
 22 23  1  0
 22 21  2  0
 23 24  2  0
 24 25  1  0
 25 17  1  0
 26 27  1  0
 28 26  2  0
M  END
$$$$
