CTW.pdb
     RDKit          3D

 28 29  0  0  1  0  0  0  0  0999 V2000
   28.3791  -16.7950  -18.9474 N   0  0  0  0  0  0  0  0  0  0  0  0
   27.0832  -16.8178  -18.3014 C   0  0  1  0  0  0  0  0  0  0  0  0
   26.2705  -15.5812  -18.6969 C   0  0  0  0  0  0  0  0  0  0  0  0
   26.9809  -14.1573  -17.8406 S   0  0  0  0  0  0  0  0  0  0  0  0
   26.3468  -18.0709  -18.6173 C   0  0  0  0  0  0  0  0  0  0  0  0
   26.6179  -18.6479  -19.7022 O   0  0  0  0  0  0  0  0  0  0  0  0
   26.5154  -21.1209  -17.1452 C   0  0  0  0  0  0  0  0  0  0  0  0
   25.5681  -20.8900  -18.2725 C   0  0  1  0  0  0  0  0  0  0  0  0
   24.8233  -22.0801  -18.5005 O   0  0  0  0  0  0  0  0  0  0  0  0
   24.6033  -19.7405  -18.0689 C   0  0  2  0  0  0  0  0  0  0  0  0
   25.3918  -18.5533  -17.7051 N   0  0  0  0  0  0  0  0  0  0  0  0
   23.6178  -19.9588  -16.9966 C   0  0  0  0  0  0  0  0  0  0  0  0
   23.9221  -19.6632  -15.7814 O   0  0  0  0  0  0  0  0  0  0  0  0
   22.3089  -20.4809  -17.1664 N   0  0  0  0  0  0  0  0  0  0  0  0
   21.3872  -20.6382  -16.0505 C   0  0  1  0  0  0  0  0  0  0  0  0
   20.1754  -19.7636  -16.2809 C   0  0  0  0  0  0  0  0  0  0  0  0
   20.4427  -18.3608  -15.9243 C   0  0  0  0  0  0  0  0  0  0  0  0
   20.9924  -17.3511  -16.6983 C   0  0  0  0  0  0  0  0  0  0  0  0
   21.0428  -16.2361  -15.9494 N   0  0  0  0  0  0  0  0  0  0  0  0
   20.5388  -16.5020  -14.7103 C   0  0  0  0  0  0  0  0  0  0  0  0
   20.3923  -15.6693  -13.6206 C   0  0  0  0  0  0  0  0  0  0  0  0
   19.8506  -16.1578  -12.4518 C   0  0  0  0  0  0  0  0  0  0  0  0
   19.4590  -17.4789  -12.3829 C   0  0  0  0  0  0  0  0  0  0  0  0
   19.6196  -18.2913  -13.4968 C   0  0  0  0  0  0  0  0  0  0  0  0
   20.1560  -17.8328  -14.6745 C   0  0  0  0  0  0  0  0  0  0  0  0
   20.9170  -22.0327  -16.0235 C   0  0  0  0  0  0  0  0  0  0  0  0
   20.1515  -22.4859  -14.9737 O   0  0  0  0  0  0  0  0  0  0  0  0
   21.2042  -22.8262  -16.9509 O   0  0  0  0  0  0  0  0  0  0  0  0
  2  1  1  6
  3  2  1  0
  4  3  1  0
  5  2  1  0
  5  6  2  0
  8  7  1  1
  8 10  1  0
  9  8  1  0
 10 11  1  1
 10 12  1  0
 11  5  1  0
 12 14  1  0
 12 13  2  0
 14 15  1  0
 15 26  1  0
 15 16  1  6
 17 18  2  0
 17 16  1  0
 19 18  1  0
 20 25  2  0
 20 19  1  0
 21 20  1  0
 22 23  1  0
 22 21  2  0
 23 24  2  0
 24 25  1  0
 25 17  1  0
 26 27  1  0
 28 26  2  0
M  END
$$$$
