CTW.pdb
     RDKit          3D

 28 29  0  0  1  0  0  0  0  0999 V2000
   23.5698  -17.3565  -16.8331 N   0  0  0  0  0  0  0  0  0  0  0  0
   24.5129  -17.1263  -15.7585 C   0  0  1  0  0  0  0  0  0  0  0  0
   24.7439  -15.6242  -15.5671 C   0  0  0  0  0  0  0  0  0  0  0  0
   23.1618  -14.8756  -15.1178 S   0  0  0  0  0  0  0  0  0  0  0  0
   24.0567  -17.7670  -14.4961 C   0  0  0  0  0  0  0  0  0  0  0  0
   23.0465  -17.2782  -13.9270 O   0  0  0  0  0  0  0  0  0  0  0  0
   22.2584  -20.5299  -13.8790 C   0  0  0  0  0  0  0  0  0  0  0  0
   23.5334  -20.7682  -13.1448 C   0  0  1  0  0  0  0  0  0  0  0  0
   24.3791  -21.5877  -13.9424 O   0  0  0  0  0  0  0  0  0  0  0  0
   24.2901  -19.5145  -12.7582 C   0  0  2  0  0  0  0  0  0  0  0  0
   24.7616  -18.8764  -13.9969 N   0  0  0  0  0  0  0  0  0  0  0  0
   25.4706  -19.7556  -11.9115 C   0  0  0  0  0  0  0  0  0  0  0  0
   26.5231  -19.0308  -12.0640 O   0  0  0  0  0  0  0  0  0  0  0  0
   25.5768  -20.7437  -10.8980 N   0  0  0  0  0  0  0  0  0  0  0  0
   26.7759  -20.8947  -10.0864 C   0  0  1  0  0  0  0  0  0  0  0  0
   26.8969  -19.7095   -9.1551 C   0  0  0  0  0  0  0  0  0  0  0  0
   28.0792  -19.8211   -8.2854 C   0  0  0  0  0  0  0  0  0  0  0  0
   29.3982  -20.0707   -8.6303 C   0  0  0  0  0  0  0  0  0  0  0  0
   30.1264  -20.0822   -7.5006 N   0  0  0  0  0  0  0  0  0  0  0  0
   29.3090  -19.8459   -6.4347 C   0  0  0  0  0  0  0  0  0  0  0  0
   29.6120  -19.7670   -5.0915 C   0  0  0  0  0  0  0  0  0  0  0  0
   28.6132  -19.5152   -4.1765 C   0  0  0  0  0  0  0  0  0  0  0  0
   27.3161  -19.3441   -4.6144 C   0  0  0  0  0  0  0  0  0  0  0  0
   27.0436  -19.4295   -5.9727 C   0  0  0  0  0  0  0  0  0  0  0  0
   28.0176  -19.6790   -6.9075 C   0  0  0  0  0  0  0  0  0  0  0  0
   26.6255  -22.0934   -9.2458 C   0  0  0  0  0  0  0  0  0  0  0  0
   27.7371  -22.7492   -8.7685 O   0  0  0  0  0  0  0  0  0  0  0  0
   25.4892  -22.5346   -8.9523 O   0  0  0  0  0  0  0  0  0  0  0  0
  2  1  1  6
  3  2  1  0
  4  3  1  0
  5  2  1  0
  5  6  2  0
  8  7  1  6
  8 10  1  0
  9  8  1  0
 10 11  1  6
 10 12  1  0
 11  5  1  0
 12 14  1  0
 12 13  2  0
 14 15  1  0
 15 26  1  0
 15 16  1  1
 17 18  2  0
 17 16  1  0
 19 18  1  0
 20 25  2  0
 20 19  1  0
 21 20  1  0
 22 23  1  0
 22 21  2  0
 23 24  2  0
 24 25  1  0
 25 17  1  0
 26 27  1  0
 28 26  2  0
M  END
$$$$
