LSR.pdb
     RDKit          3D

 26 25  0  0  1  0  0  0  0  0999 V2000
    6.9029  -12.1599   20.1746 C   0  0  0  0  0  0  0  0  0  0  0  0
    7.4814  -13.2678   19.3553 C   0  0  1  0  0  0  0  0  0  0  0  0
    7.9809  -12.6817   18.0388 C   0  0  0  0  0  0  0  0  0  0  0  0
    8.5830  -14.0338   20.0566 C   0  0  0  0  0  0  0  0  0  0  0  0
    9.0059  -15.1752   19.1619 C   0  0  2  0  0  0  0  0  0  0  0  0
    7.9167  -16.1170   19.0176 N   0  0  0  0  0  0  0  0  0  0  0  0
   10.1886  -15.8839   19.6494 C   0  0  0  0  0  0  0  0  0  0  0  0
   10.0710  -16.8146   20.4631 O   0  0  0  0  0  0  0  0  0  0  0  0
   14.3397  -14.4972   19.0750 O   0  0  0  0  0  0  0  0  0  0  0  0
   13.9664  -15.8311   19.0198 C   0  0  0  0  0  0  0  0  0  0  0  0
   12.7123  -16.1166   19.8018 C   0  0  2  0  0  0  0  0  0  0  0  0
   11.5275  -15.5682   19.2386 N   0  0  0  0  0  0  0  0  0  0  0  0
   12.9031  -15.6010   21.1724 C   0  0  0  0  0  0  0  0  0  0  0  0
   12.5018  -14.4430   21.4558 O   0  0  0  0  0  0  0  0  0  0  0  0
    9.3548  -16.0817   27.9630 N   0  0  0  0  0  0  0  0  0  0  0  0
   10.4699  -15.3361   28.4281 C   0  0  0  0  0  0  0  0  0  0  0  0
   10.3238  -14.2930   29.2020 N   0  0  0  0  0  0  0  0  0  0  0  0
   11.8074  -15.6772   28.0818 N   0  0  0  0  0  0  0  0  0  0  0  0
   12.0848  -16.5693   26.9701 C   0  0  0  0  0  0  0  0  0  0  0  0
   13.0063  -15.9874   25.9657 C   0  0  0  0  0  0  0  0  0  0  0  0
   12.8258  -16.3883   24.5539 C   0  0  0  0  0  0  0  0  0  0  0  0
   13.7608  -15.8080   23.5543 C   0  0  2  0  0  0  0  0  0  0  0  0
   13.5178  -16.3313   22.2107 N   0  0  0  0  0  0  0  0  0  0  0  0
   15.1875  -15.9188   23.8473 C   0  0  0  0  0  0  0  0  0  0  0  0
   15.6979  -15.4005   24.8883 O   0  0  0  0  0  0  0  0  0  0  0  0
   16.0418  -16.5989   22.9954 O   0  0  0  0  0  0  0  0  0  0  0  0
  2  3  1  6
  2  1  1  0
  4  2  1  0
  5  6  1  1
  5  4  1  0
  7  5  1  0
  8  7  2  0
  9 10  1  0
 11 10  1  6
 11 12  1  0
 12  7  1  0
 13 11  1  0
 13 14  2  0
 16 17  2  0
 16 15  1  0
 18 16  1  0
 19 18  1  0
 20 19  1  0
 21 20  1  0
 22 21  1  1
 23 22  1  0
 23 13  1  0
 24 22  1  0
 25 24  2  0
 26 24  1  0
M  END
$$$$
