LSR.pdb
     RDKit          3D

 26 25  0  0  1  0  0  0  0  0999 V2000
    7.6176  -12.1163   18.7281 C   0  0  0  0  0  0  0  0  0  0  0  0
    8.4111  -13.3827   18.7149 C   0  0  1  0  0  0  0  0  0  0  0  0
    9.8040  -13.0715   18.1774 C   0  0  0  0  0  0  0  0  0  0  0  0
    8.4939  -14.0646   20.0641 C   0  0  0  0  0  0  0  0  0  0  0  0
    9.2685  -15.3504   19.8950 C   0  0  2  0  0  0  0  0  0  0  0  0
    8.6981  -16.1306   18.8179 N   0  0  0  0  0  0  0  0  0  0  0  0
    9.3058  -16.1663   21.1080 C   0  0  0  0  0  0  0  0  0  0  0  0
    9.5837  -15.6502   22.2028 O   0  0  0  0  0  0  0  0  0  0  0  0
    8.8031  -20.3599   20.8600 O   0  0  0  0  0  0  0  0  0  0  0  0
    8.5493  -19.7862   22.0963 C   0  0  0  0  0  0  0  0  0  0  0  0
    9.1859  -18.4309   22.2499 C   0  0  2  0  0  0  0  0  0  0  0  0
    9.0335  -17.5759   21.1241 N   0  0  0  0  0  0  0  0  0  0  0  0
   10.6202  -18.6317   22.5384 C   0  0  0  0  0  0  0  0  0  0  0  0
   11.3254  -19.2858   21.7277 O   0  0  0  0  0  0  0  0  0  0  0  0
   15.9875  -13.4006   20.6815 N   0  0  0  0  0  0  0  0  0  0  0  0
   15.0633  -14.1437   19.9009 C   0  0  0  0  0  0  0  0  0  0  0  0
   14.7963  -13.8226   18.6624 N   0  0  0  0  0  0  0  0  0  0  0  0
   14.3750  -15.2775   20.4166 N   0  0  0  0  0  0  0  0  0  0  0  0
   14.3021  -15.5179   21.8469 C   0  0  0  0  0  0  0  0  0  0  0  0
   13.5967  -16.7736   22.1964 C   0  0  0  0  0  0  0  0  0  0  0  0
   13.5012  -17.1326   23.6276 C   0  0  0  0  0  0  0  0  0  0  0  0
   12.6899  -18.3276   23.9793 C   0  0  2  0  0  0  0  0  0  0  0  0
   11.2711  -18.1308   23.6850 N   0  0  0  0  0  0  0  0  0  0  0  0
   12.8179  -18.8300   25.3449 C   0  0  0  0  0  0  0  0  0  0  0  0
   11.8215  -18.8935   26.1296 O   0  0  0  0  0  0  0  0  0  0  0  0
   14.0391  -19.2597   25.8372 O   0  0  0  0  0  0  0  0  0  0  0  0
  2  3  1  1
  2  1  1  0
  4  2  1  0
  5  6  1  6
  5  4  1  0
  7  5  1  0
  8  7  2  0
  9 10  1  0
 11 10  1  6
 11 12  1  0
 12  7  1  0
 13 11  1  0
 13 14  2  0
 16 17  2  0
 16 15  1  0
 18 16  1  0
 19 18  1  0
 20 19  1  0
 21 20  1  0
 22 21  1  1
 23 22  1  0
 23 13  1  0
 24 22  1  0
 25 24  2  0
 26 24  1  0
M  END
$$$$
