LSR.pdb
     RDKit          3D

 26 25  0  0  1  0  0  0  0  0999 V2000
    6.4953  -12.7388   19.1408 C   0  0  0  0  0  0  0  0  0  0  0  0
    7.8767  -13.2221   19.4434 C   0  0  1  0  0  0  0  0  0  0  0  0
    8.6420  -12.0933   20.1263 C   0  0  0  0  0  0  0  0  0  0  0  0
    7.9119  -14.4818   20.2825 C   0  0  0  0  0  0  0  0  0  0  0  0
    9.3510  -14.7680   20.6419 C   0  0  2  0  0  0  0  0  0  0  0  0
   10.1379  -14.9215   19.4372 N   0  0  0  0  0  0  0  0  0  0  0  0
    9.5128  -15.9602   21.4732 C   0  0  0  0  0  0  0  0  0  0  0  0
    8.5264  -16.6494   21.7801 O   0  0  0  0  0  0  0  0  0  0  0  0
   13.1346  -18.1506   21.8056 O   0  0  0  0  0  0  0  0  0  0  0  0
   12.4362  -17.9291   22.9825 C   0  0  0  0  0  0  0  0  0  0  0  0
   10.9896  -17.5877   22.7447 C   0  0  2  0  0  0  0  0  0  0  0  0
   10.7794  -16.4079   21.9794 N   0  0  0  0  0  0  0  0  0  0  0  0
   10.3303  -17.4583   24.0598 C   0  0  0  0  0  0  0  0  0  0  0  0
   10.4055  -16.3673   24.6813 O   0  0  0  0  0  0  0  0  0  0  0  0
    4.6638  -22.8649   28.5625 N   0  0  0  0  0  0  0  0  0  0  0  0
    6.0608  -22.8706   28.8149 C   0  0  0  0  0  0  0  0  0  0  0  0
    6.6451  -23.8708   29.4203 N   0  0  0  0  0  0  0  0  0  0  0  0
    6.9057  -21.7934   28.4262 N   0  0  0  0  0  0  0  0  0  0  0  0
    6.3552  -20.6004   27.8078 C   0  0  0  0  0  0  0  0  0  0  0  0
    7.3646  -19.5408   27.5739 C   0  0  0  0  0  0  0  0  0  0  0  0
    7.9867  -19.4680   26.2344 C   0  0  0  0  0  0  0  0  0  0  0  0
    8.9793  -18.3865   26.0002 C   0  0  2  0  0  0  0  0  0  0  0  0
    9.6053  -18.4951   24.6832 N   0  0  0  0  0  0  0  0  0  0  0  0
   10.0287  -18.2291   27.0041 C   0  0  0  0  0  0  0  0  0  0  0  0
    9.8626  -17.5090   28.0369 O   0  0  0  0  0  0  0  0  0  0  0  0
   11.2514  -18.8648   26.8662 O   0  0  0  0  0  0  0  0  0  0  0  0
  2  3  1  1
  2  1  1  0
  4  2  1  0
  5  6  1  6
  5  4  1  0
  7  5  1  0
  8  7  2  0
  9 10  1  0
 11 10  1  1
 11 12  1  0
 12  7  1  0
 13 11  1  0
 13 14  2  0
 16 17  2  0
 16 15  1  0
 18 16  1  0
 19 18  1  0
 20 19  1  0
 21 20  1  0
 22 21  1  1
 23 22  1  0
 23 13  1  0
 24 22  1  0
 25 24  2  0
 26 24  1  0
M  END
$$$$
