LSR.pdb
     RDKit          3D

 26 25  0  0  1  0  0  0  0  0999 V2000
    6.4567  -12.0686   19.4658 C   0  0  0  0  0  0  0  0  0  0  0  0
    7.0833  -13.4243   19.5190 C   0  0  1  0  0  0  0  0  0  0  0  0
    7.4929  -13.8203   18.1042 C   0  0  0  0  0  0  0  0  0  0  0  0
    8.2607  -13.5152   20.4664 C   0  0  0  0  0  0  0  0  0  0  0  0
    8.7656  -14.9390   20.4547 C   0  0  2  0  0  0  0  0  0  0  0  0
    7.6535  -15.8565   20.5800 N   0  0  0  0  0  0  0  0  0  0  0  0
    9.7356  -15.2168   21.5132 C   0  0  0  0  0  0  0  0  0  0  0  0
   10.7940  -14.5706   21.5793 O   0  0  0  0  0  0  0  0  0  0  0  0
    9.7150  -18.8110   23.7899 O   0  0  0  0  0  0  0  0  0  0  0  0
   10.0236  -17.6446   24.4726 C   0  0  0  0  0  0  0  0  0  0  0  0
   10.4658  -16.5347   23.5568 C   0  0  2  0  0  0  0  0  0  0  0  0
    9.5442  -16.2220   22.5202 N   0  0  0  0  0  0  0  0  0  0  0  0
   11.7677  -16.9169   22.9740 C   0  0  0  0  0  0  0  0  0  0  0  0
   11.7927  -17.5888   21.9109 O   0  0  0  0  0  0  0  0  0  0  0  0
   16.4088  -12.9176   17.6428 N   0  0  0  0  0  0  0  0  0  0  0  0
   17.3868  -13.7989   18.1741 C   0  0  0  0  0  0  0  0  0  0  0  0
   18.5743  -13.9093   17.6397 N   0  0  0  0  0  0  0  0  0  0  0  0
   17.1350  -14.6114   19.3150 N   0  0  0  0  0  0  0  0  0  0  0  0
   15.8397  -14.5935   19.9713 C   0  0  0  0  0  0  0  0  0  0  0  0
   15.7816  -15.4495   21.1798 C   0  0  0  0  0  0  0  0  0  0  0  0
   14.5039  -15.5048   21.9219 C   0  0  0  0  0  0  0  0  0  0  0  0
   14.2909  -16.6625   22.8298 C   0  0  2  0  0  0  0  0  0  0  0  0
   13.0144  -16.5743   23.5376 N   0  0  0  0  0  0  0  0  0  0  0  0
   15.3457  -16.9377   23.8022 C   0  0  0  0  0  0  0  0  0  0  0  0
   16.4339  -17.4994   23.4663 O   0  0  0  0  0  0  0  0  0  0  0  0
   15.1971  -16.5925   25.1352 O   0  0  0  0  0  0  0  0  0  0  0  0
  2  3  1  6
  2  1  1  0
  4  2  1  0
  5  6  1  1
  5  4  1  0
  7  5  1  0
  8  7  2  0
  9 10  1  0
 11 10  1  6
 11 12  1  0
 12  7  1  0
 13 11  1  0
 13 14  2  0
 16 17  2  0
 16 15  1  0
 18 16  1  0
 19 18  1  0
 20 19  1  0
 21 20  1  0
 22 21  1  1
 23 22  1  0
 23 13  1  0
 24 22  1  0
 25 24  2  0
 26 24  1  0
M  END
$$$$
