LSR.pdb
     RDKit          3D

 26 25  0  0  1  0  0  0  0  0999 V2000
    6.8387  -12.1261   19.2610 C   0  0  0  0  0  0  0  0  0  0  0  0
    7.5958  -13.4039   19.0952 C   0  0  1  0  0  0  0  0  0  0  0  0
    8.7189  -13.1701   18.0902 C   0  0  0  0  0  0  0  0  0  0  0  0
    8.1410  -13.9624   20.3925 C   0  0  0  0  0  0  0  0  0  0  0  0
    8.8706  -15.2481   20.0818 C   0  0  2  0  0  0  0  0  0  0  0  0
    8.0322  -16.1066   19.2730 N   0  0  0  0  0  0  0  0  0  0  0  0
    9.2894  -15.9784   21.2775 C   0  0  0  0  0  0  0  0  0  0  0  0
    9.7281  -15.3660   22.2648 O   0  0  0  0  0  0  0  0  0  0  0  0
    9.5991  -20.2722   21.3616 O   0  0  0  0  0  0  0  0  0  0  0  0
    9.2310  -19.6006   22.5171 C   0  0  0  0  0  0  0  0  0  0  0  0
    9.6703  -18.1608   22.5177 C   0  0  2  0  0  0  0  0  0  0  0  0
    9.2271  -17.4078   21.3961 N   0  0  0  0  0  0  0  0  0  0  0  0
   11.1450  -18.1350   22.5900 C   0  0  0  0  0  0  0  0  0  0  0  0
   11.8129  -18.0958   21.5248 O   0  0  0  0  0  0  0  0  0  0  0  0
   13.2217  -14.1573   19.0571 N   0  0  0  0  0  0  0  0  0  0  0  0
   14.6081  -14.4288   19.1973 C   0  0  0  0  0  0  0  0  0  0  0  0
   15.4108  -14.4528   18.1661 N   0  0  0  0  0  0  0  0  0  0  0  0
   15.2052  -14.6901   20.4625 N   0  0  0  0  0  0  0  0  0  0  0  0
   14.3982  -14.7556   21.6679 C   0  0  0  0  0  0  0  0  0  0  0  0
   14.2276  -16.1335   22.1865 C   0  0  0  0  0  0  0  0  0  0  0  0
   13.4372  -16.3091   23.4238 C   0  0  0  0  0  0  0  0  0  0  0  0
   13.2584  -17.6957   23.9290 C   0  0  2  0  0  0  0  0  0  0  0  0
   11.8752  -18.1514   23.7966 N   0  0  0  0  0  0  0  0  0  0  0  0
   13.7088  -17.9613   25.2929 C   0  0  0  0  0  0  0  0  0  0  0  0
   12.9334  -17.8297   26.2900 O   0  0  0  0  0  0  0  0  0  0  0  0
   15.0066  -18.3704   25.5505 O   0  0  0  0  0  0  0  0  0  0  0  0
  2  3  1  6
  2  1  1  0
  4  2  1  0
  5  6  1  1
  5  4  1  0
  7  5  1  0
  8  7  2  0
  9 10  1  0
 11 10  1  6
 11 12  1  0
 12  7  1  0
 13 11  1  0
 13 14  2  0
 16 17  2  0
 16 15  1  0
 18 16  1  0
 19 18  1  0
 20 19  1  0
 21 20  1  0
 22 21  1  1
 23 22  1  0
 23 13  1  0
 24 22  1  0
 25 24  2  0
 26 24  1  0
M  END
$$$$
