LSR.pdb
     RDKit          3D

 26 25  0  0  1  0  0  0  0  0999 V2000
    8.0765  -15.3914   16.6925 C   0  0  0  0  0  0  0  0  0  0  0  0
    8.0816  -14.3276   17.7421 C   0  0  1  0  0  0  0  0  0  0  0  0
    6.6394  -13.9106   18.0107 C   0  0  0  0  0  0  0  0  0  0  0  0
    8.7713  -14.7402   19.0252 C   0  0  0  0  0  0  0  0  0  0  0  0
    8.7314  -13.5691   19.9787 C   0  0  2  0  0  0  0  0  0  0  0  0
    9.4268  -12.4396   19.4001 N   0  0  0  0  0  0  0  0  0  0  0  0
    9.3125  -13.8689   21.2867 C   0  0  0  0  0  0  0  0  0  0  0  0
   10.5183  -13.6617   21.4996 O   0  0  0  0  0  0  0  0  0  0  0  0
    7.1165  -15.9827   24.3098 O   0  0  0  0  0  0  0  0  0  0  0  0
    8.0684  -15.0570   24.7084 C   0  0  0  0  0  0  0  0  0  0  0  0
    9.0981  -14.7869   23.6442 C   0  0  2  0  0  0  0  0  0  0  0  0
    8.5595  -14.4063   22.3845 N   0  0  0  0  0  0  0  0  0  0  0  0
    9.9245  -16.0012   23.4917 C   0  0  0  0  0  0  0  0  0  0  0  0
    9.5872  -16.8737   22.6508 O   0  0  0  0  0  0  0  0  0  0  0  0
   15.8089  -14.0102   21.1624 N   0  0  0  0  0  0  0  0  0  0  0  0
   15.2509  -14.7889   20.1147 C   0  0  0  0  0  0  0  0  0  0  0  0
   15.2552  -14.3756   18.8748 N   0  0  0  0  0  0  0  0  0  0  0  0
   14.6561  -16.0603   20.3495 N   0  0  0  0  0  0  0  0  0  0  0  0
   14.6607  -16.6516   21.6758 C   0  0  0  0  0  0  0  0  0  0  0  0
   13.3060  -16.7968   22.2590 C   0  0  0  0  0  0  0  0  0  0  0  0
   13.2034  -17.3312   23.6338 C   0  0  0  0  0  0  0  0  0  0  0  0
   11.8391  -17.5150   24.1951 C   0  0  2  0  0  0  0  0  0  0  0  0
   11.0925  -16.2584   24.2393 N   0  0  0  0  0  0  0  0  0  0  0  0
   11.7481  -18.1581   25.5035 C   0  0  0  0  0  0  0  0  0  0  0  0
   11.3172  -17.5377   26.5243 O   0  0  0  0  0  0  0  0  0  0  0  0
   12.1300  -19.4777   25.6797 O   0  0  0  0  0  0  0  0  0  0  0  0
  2  3  1  1
  2  1  1  0
  4  2  1  0
  5  6  1  6
  5  4  1  0
  7  5  1  0
  8  7  2  0
  9 10  1  0
 11 10  1  1
 11 12  1  0
 12  7  1  0
 13 11  1  0
 13 14  2  0
 16 17  2  0
 16 15  1  0
 18 16  1  0
 19 18  1  0
 20 19  1  0
 21 20  1  0
 22 21  1  1
 23 22  1  0
 23 13  1  0
 24 22  1  0
 25 24  2  0
 26 24  1  0
M  END
$$$$
