LSR.pdb
     RDKit          3D

 26 25  0  0  1  0  0  0  0  0999 V2000
    7.2753  -12.1245   18.1635 C   0  0  0  0  0  0  0  0  0  0  0  0
    8.0211  -13.3010   18.7049 C   0  0  1  0  0  0  0  0  0  0  0  0
    9.3406  -12.8065   19.2884 C   0  0  0  0  0  0  0  0  0  0  0  0
    7.2427  -14.0970   19.7308 C   0  0  0  0  0  0  0  0  0  0  0  0
    8.1158  -15.2348   20.2052 C   0  0  2  0  0  0  0  0  0  0  0  0
    8.4315  -16.1085   19.0956 N   0  0  0  0  0  0  0  0  0  0  0  0
    7.5065  -16.0233   21.2755 C   0  0  0  0  0  0  0  0  0  0  0  0
    7.2833  -15.5094   22.3839 O   0  0  0  0  0  0  0  0  0  0  0  0
    7.2697  -20.3163   21.3510 O   0  0  0  0  0  0  0  0  0  0  0  0
    6.1387  -19.5864   21.6825 C   0  0  0  0  0  0  0  0  0  0  0  0
    6.4598  -18.1799   22.1121 C   0  0  2  0  0  0  0  0  0  0  0  0
    7.1335  -17.4021   21.1309 N   0  0  0  0  0  0  0  0  0  0  0  0
    7.2744  -18.2542   23.3415 C   0  0  0  0  0  0  0  0  0  0  0  0
    8.5273  -18.3146   23.2470 O   0  0  0  0  0  0  0  0  0  0  0  0
   10.6707  -13.6850   28.2953 N   0  0  0  0  0  0  0  0  0  0  0  0
   10.3479  -14.4808   29.4258 C   0  0  0  0  0  0  0  0  0  0  0  0
   11.1571  -14.5831   30.4470 N   0  0  0  0  0  0  0  0  0  0  0  0
    9.1301  -15.2117   29.5154 N   0  0  0  0  0  0  0  0  0  0  0  0
    8.2458  -15.3297   28.3696 C   0  0  0  0  0  0  0  0  0  0  0  0
    8.2878  -16.6661   27.7303 C   0  0  0  0  0  0  0  0  0  0  0  0
    7.4654  -16.8746   26.5193 C   0  0  0  0  0  0  0  0  0  0  0  0
    7.5350  -18.2090   25.8678 C   0  0  2  0  0  0  0  0  0  0  0  0
    6.7352  -18.2625   24.6448 N   0  0  0  0  0  0  0  0  0  0  0  0
    7.1976  -19.3633   26.6970 C   0  0  0  0  0  0  0  0  0  0  0  0
    6.1024  -19.9903   26.5553 O   0  0  0  0  0  0  0  0  0  0  0  0
    8.0663  -19.8203   27.6740 O   0  0  0  0  0  0  0  0  0  0  0  0
  2  3  1  1
  2  1  1  0
  4  2  1  0
  5  6  1  6
  5  4  1  0
  7  5  1  0
  8  7  2  0
  9 10  1  0
 11 10  1  6
 11 12  1  0
 12  7  1  0
 13 11  1  0
 13 14  2  0
 16 17  2  0
 16 15  1  0
 18 16  1  0
 19 18  1  0
 20 19  1  0
 21 20  1  0
 22 21  1  1
 23 22  1  0
 23 13  1  0
 24 22  1  0
 25 24  2  0
 26 24  1  0
M  END
$$$$
