LSR.pdb
     RDKit          3D

 26 25  0  0  1  0  0  0  0  0999 V2000
    7.7031  -11.6878   18.4661 C   0  0  0  0  0  0  0  0  0  0  0  0
    7.7525  -13.0904   18.9797 C   0  0  1  0  0  0  0  0  0  0  0  0
    8.2664  -13.9932   17.8631 C   0  0  0  0  0  0  0  0  0  0  0  0
    8.5886  -13.2522   20.2315 C   0  0  0  0  0  0  0  0  0  0  0  0
    8.5419  -14.7047   20.6443 C   0  0  2  0  0  0  0  0  0  0  0  0
    7.1705  -15.1660   20.6668 N   0  0  0  0  0  0  0  0  0  0  0  0
    9.1513  -14.9542   21.9500 C   0  0  0  0  0  0  0  0  0  0  0  0
   10.3438  -14.6707   22.1500 O   0  0  0  0  0  0  0  0  0  0  0  0
    6.9416  -16.6494   25.2609 O   0  0  0  0  0  0  0  0  0  0  0  0
    7.9655  -15.7377   25.4667 C   0  0  0  0  0  0  0  0  0  0  0  0
    8.9822  -15.7450   24.3567 C   0  0  2  0  0  0  0  0  0  0  0  0
    8.4422  -15.5255   23.0598 N   0  0  0  0  0  0  0  0  0  0  0  0
    9.6883  -17.0415   24.3947 C   0  0  0  0  0  0  0  0  0  0  0  0
    9.1742  -18.0392   23.8269 O   0  0  0  0  0  0  0  0  0  0  0  0
   13.7703  -16.8555   18.3255 N   0  0  0  0  0  0  0  0  0  0  0  0
   14.0296  -15.8281   19.2703 C   0  0  0  0  0  0  0  0  0  0  0  0
   14.6103  -14.7090   18.9258 N   0  0  0  0  0  0  0  0  0  0  0  0
   13.6749  -15.9534   20.6428 N   0  0  0  0  0  0  0  0  0  0  0  0
   12.9849  -17.1350   21.1292 C   0  0  0  0  0  0  0  0  0  0  0  0
   12.7776  -17.1320   22.5967 C   0  0  0  0  0  0  0  0  0  0  0  0
   12.1339  -18.3174   23.2022 C   0  0  0  0  0  0  0  0  0  0  0  0
   11.8857  -18.2860   24.6676 C   0  0  2  0  0  0  0  0  0  0  0  0
   10.9271  -17.2455   25.0373 N   0  0  0  0  0  0  0  0  0  0  0  0
   13.0586  -18.1680   25.5302 C   0  0  0  0  0  0  0  0  0  0  0  0
   14.0487  -18.9558   25.4230 O   0  0  0  0  0  0  0  0  0  0  0  0
   13.1349  -17.1847   26.5027 O   0  0  0  0  0  0  0  0  0  0  0  0
  2  3  1  6
  2  1  1  0
  4  2  1  0
  5  6  1  1
  5  4  1  0
  7  5  1  0
  8  7  2  0
  9 10  1  0
 11 10  1  1
 11 12  1  0
 12  7  1  0
 13 11  1  0
 13 14  2  0
 16 17  2  0
 16 15  1  0
 18 16  1  0
 19 18  1  0
 20 19  1  0
 21 20  1  0
 22 21  1  6
 23 22  1  0
 23 13  1  0
 24 22  1  0
 25 24  2  0
 26 24  1  0
M  END
$$$$
