LSR.pdb
     RDKit          3D

 26 25  0  0  1  0  0  0  0  0999 V2000
    9.3722  -14.0344   18.8681 C   0  0  0  0  0  0  0  0  0  0  0  0
    8.6760  -13.2955   19.9648 C   0  0  1  0  0  0  0  0  0  0  0  0
    8.2693  -11.9236   19.4372 C   0  0  0  0  0  0  0  0  0  0  0  0
    7.4804  -14.0309   20.5322 C   0  0  0  0  0  0  0  0  0  0  0  0
    7.9727  -15.3095   21.1686 C   0  0  2  0  0  0  0  0  0  0  0  0
    6.8464  -16.1252   21.5689 N   0  0  0  0  0  0  0  0  0  0  0  0
    8.8346  -15.0832   22.3281 C   0  0  0  0  0  0  0  0  0  0  0  0
    8.5526  -14.2023   23.1568 O   0  0  0  0  0  0  0  0  0  0  0  0
    9.8071  -17.1020   25.3884 O   0  0  0  0  0  0  0  0  0  0  0  0
   10.1238  -15.7962   25.0473 C   0  0  0  0  0  0  0  0  0  0  0  0
   10.8559  -15.6992   23.7357 C   0  0  2  0  0  0  0  0  0  0  0  0
   10.0296  -15.8357   22.5867 N   0  0  0  0  0  0  0  0  0  0  0  0
   11.9084  -16.7350   23.7242 C   0  0  0  0  0  0  0  0  0  0  0  0
   11.6596  -17.8598   23.2192 O   0  0  0  0  0  0  0  0  0  0  0  0
   13.3423  -14.7113   17.2731 N   0  0  0  0  0  0  0  0  0  0  0  0
   14.4050  -14.3749   18.1523 C   0  0  0  0  0  0  0  0  0  0  0  0
   15.2783  -13.4501   17.8518 N   0  0  0  0  0  0  0  0  0  0  0  0
   14.5833  -15.0208   19.4079 N   0  0  0  0  0  0  0  0  0  0  0  0
   13.9452  -16.2949   19.6876 C   0  0  0  0  0  0  0  0  0  0  0  0
   14.3871  -16.9057   20.9636 C   0  0  0  0  0  0  0  0  0  0  0  0
   14.3853  -16.0521   22.1709 C   0  0  0  0  0  0  0  0  0  0  0  0
   14.4377  -16.7350   23.4903 C   0  0  2  0  0  0  0  0  0  0  0  0
   13.2032  -16.5486   24.2515 N   0  0  0  0  0  0  0  0  0  0  0  0
   15.5713  -16.4117   24.3529 C   0  0  0  0  0  0  0  0  0  0  0  0
   15.4653  -15.5904   25.3157 O   0  0  0  0  0  0  0  0  0  0  0  0
   16.8118  -16.9939   24.1519 O   0  0  0  0  0  0  0  0  0  0  0  0
  2  3  1  6
  2  1  1  0
  4  2  1  0
  5  6  1  1
  5  4  1  0
  7  5  1  0
  8  7  2  0
  9 10  1  0
 11 10  1  1
 11 12  1  0
 12  7  1  0
 13 11  1  0
 13 14  2  0
 16 17  2  0
 16 15  1  0
 18 16  1  0
 19 18  1  0
 20 19  1  0
 21 20  1  0
 22 21  1  6
 23 22  1  0
 23 13  1  0
 24 22  1  0
 25 24  2  0
 26 24  1  0
M  END
$$$$
