LSR.pdb
     RDKit          3D

 26 25  0  0  1  0  0  0  0  0999 V2000
    8.1882  -15.2500   15.3844 C   0  0  0  0  0  0  0  0  0  0  0  0
    7.7938  -14.3984   16.5474 C   0  0  1  0  0  0  0  0  0  0  0  0
    6.3683  -14.7632   16.9486 C   0  0  0  0  0  0  0  0  0  0  0  0
    8.7318  -14.5096   17.7306 C   0  0  0  0  0  0  0  0  0  0  0  0
    8.2457  -13.5676   18.8069 C   0  0  2  0  0  0  0  0  0  0  0  0
    8.4395  -12.1969   18.3856 N   0  0  0  0  0  0  0  0  0  0  0  0
    8.9090  -13.7699   20.0944 C   0  0  0  0  0  0  0  0  0  0  0  0
   10.1065  -13.4732   20.2364 O   0  0  0  0  0  0  0  0  0  0  0  0
    7.0867  -16.2047   23.1056 O   0  0  0  0  0  0  0  0  0  0  0  0
    7.9651  -15.2162   23.5219 C   0  0  0  0  0  0  0  0  0  0  0  0
    8.8981  -14.7695   22.4283 C   0  0  2  0  0  0  0  0  0  0  0  0
    8.2492  -14.3076   21.2505 N   0  0  0  0  0  0  0  0  0  0  0  0
    9.7900  -15.9000   22.1009 C   0  0  0  0  0  0  0  0  0  0  0  0
    9.5056  -16.6470   21.1295 O   0  0  0  0  0  0  0  0  0  0  0  0
   16.1616  -13.3264   19.3010 N   0  0  0  0  0  0  0  0  0  0  0  0
   16.4479  -14.5875   18.7150 C   0  0  0  0  0  0  0  0  0  0  0  0
   17.6208  -14.8574   18.2055 N   0  0  0  0  0  0  0  0  0  0  0  0
   15.4804  -15.6289   18.6472 N   0  0  0  0  0  0  0  0  0  0  0  0
   14.1275  -15.4218   19.1326 C   0  0  0  0  0  0  0  0  0  0  0  0
   13.9934  -15.6092   20.5966 C   0  0  0  0  0  0  0  0  0  0  0  0
   12.6397  -15.5032   21.1818 C   0  0  0  0  0  0  0  0  0  0  0  0
   12.2513  -16.5209   22.1935 C   0  0  2  0  0  0  0  0  0  0  0  0
   10.9655  -16.2093   22.8163 N   0  0  0  0  0  0  0  0  0  0  0  0
   13.2232  -16.8049   23.2463 C   0  0  0  0  0  0  0  0  0  0  0  0
   13.0668  -16.3791   24.4324 O   0  0  0  0  0  0  0  0  0  0  0  0
   14.3582  -17.5554   22.9880 O   0  0  0  0  0  0  0  0  0  0  0  0
  2  3  1  1
  2  1  1  0
  4  2  1  0
  5  6  1  6
  5  4  1  0
  7  5  1  0
  8  7  2  0
  9 10  1  0
 11 10  1  1
 11 12  1  0
 12  7  1  0
 13 11  1  0
 13 14  2  0
 16 17  2  0
 16 15  1  0
 18 16  1  0
 19 18  1  0
 20 19  1  0
 21 20  1  0
 22 21  1  1
 23 22  1  0
 23 13  1  0
 24 22  1  0
 25 24  2  0
 26 24  1  0
M  END
$$$$
