LSR.pdb
     RDKit          3D

 26 25  0  0  1  0  0  0  0  0999 V2000
    8.6147  -21.2747   18.5631 C   0  0  0  0  0  0  0  0  0  0  0  0
    8.3683  -19.8007   18.5745 C   0  0  1  0  0  0  0  0  0  0  0  0
    6.9114  -19.5599   18.9560 C   0  0  0  0  0  0  0  0  0  0  0  0
    9.2990  -19.0339   19.4900 C   0  0  0  0  0  0  0  0  0  0  0  0
    8.9437  -17.5682   19.4022 C   0  0  2  0  0  0  0  0  0  0  0  0
    9.2187  -17.0742   18.0702 N   0  0  0  0  0  0  0  0  0  0  0  0
    9.6569  -16.7415   20.3750 C   0  0  0  0  0  0  0  0  0  0  0  0
   10.7487  -16.2280   20.0809 O   0  0  0  0  0  0  0  0  0  0  0  0
    8.3241  -16.4349   24.4176 O   0  0  0  0  0  0  0  0  0  0  0  0
    9.0210  -15.3591   23.8895 C   0  0  0  0  0  0  0  0  0  0  0  0
    9.8598  -15.7380   22.6984 C   0  0  2  0  0  0  0  0  0  0  0  0
    9.1661  -16.4708   21.6968 N   0  0  0  0  0  0  0  0  0  0  0  0
   11.0143  -16.5198   23.1849 C   0  0  0  0  0  0  0  0  0  0  0  0
   11.0508  -17.7594   22.9745 O   0  0  0  0  0  0  0  0  0  0  0  0
   19.6069  -17.3492   22.9895 N   0  0  0  0  0  0  0  0  0  0  0  0
   19.2766  -16.2206   23.7849 C   0  0  0  0  0  0  0  0  0  0  0  0
   20.1241  -15.7114   24.6398 N   0  0  0  0  0  0  0  0  0  0  0  0
   18.0095  -15.5783   23.7003 N   0  0  0  0  0  0  0  0  0  0  0  0
   16.9667  -16.0988   22.8341 C   0  0  0  0  0  0  0  0  0  0  0  0
   15.8274  -16.6892   23.5756 C   0  0  0  0  0  0  0  0  0  0  0  0
   14.5034  -16.0482   23.4252 C   0  0  0  0  0  0  0  0  0  0  0  0
   13.3601  -16.6645   24.1484 C   0  0  2  0  0  0  0  0  0  0  0  0
   12.1046  -15.9626   23.8849 N   0  0  0  0  0  0  0  0  0  0  0  0
   13.5082  -16.8299   25.5922 C   0  0  0  0  0  0  0  0  0  0  0  0
   12.8251  -16.1468   26.4164 O   0  0  0  0  0  0  0  0  0  0  0  0
   14.4044  -17.7452   26.1188 O   0  0  0  0  0  0  0  0  0  0  0  0
  2  3  1  1
  2  1  1  0
  4  2  1  0
  5  6  1  6
  5  4  1  0
  7  5  1  0
  8  7  2  0
  9 10  1  0
 11 10  1  1
 11 12  1  0
 12  7  1  0
 13 11  1  0
 13 14  2  0
 16 17  2  0
 16 15  1  0
 18 16  1  0
 19 18  1  0
 20 19  1  0
 21 20  1  0
 22 21  1  1
 23 22  1  0
 23 13  1  0
 24 22  1  0
 25 24  2  0
 26 24  1  0
M  END
$$$$
