LSR.pdb
     RDKit          3D

 26 25  0  0  1  0  0  0  0  0999 V2000
    8.5279  -11.4072   19.7008 C   0  0  0  0  0  0  0  0  0  0  0  0
    8.9374  -12.7302   19.1391 C   0  0  1  0  0  0  0  0  0  0  0  0
   10.3005  -13.0965   19.7168 C   0  0  0  0  0  0  0  0  0  0  0  0
    7.9325  -13.8352   19.3866 C   0  0  0  0  0  0  0  0  0  0  0  0
    8.5074  -15.1239   18.8474 C   0  0  2  0  0  0  0  0  0  0  0  0
    8.1890  -15.2547   17.4418 N   0  0  0  0  0  0  0  0  0  0  0  0
    8.0316  -16.3106   19.5574 C   0  0  0  0  0  0  0  0  0  0  0  0
    6.8173  -16.5654   19.6095 O   0  0  0  0  0  0  0  0  0  0  0  0
   10.4469  -19.6248   20.6628 O   0  0  0  0  0  0  0  0  0  0  0  0
    9.0623  -19.6423   20.7313 C   0  0  0  0  0  0  0  0  0  0  0  0
    8.4802  -18.2970   21.0736 C   0  0  2  0  0  0  0  0  0  0  0  0
    8.9017  -17.2377   20.2241 N   0  0  0  0  0  0  0  0  0  0  0  0
    8.8351  -17.9905   22.4739 C   0  0  0  0  0  0  0  0  0  0  0  0
    9.9201  -17.4033   22.7195 O   0  0  0  0  0  0  0  0  0  0  0  0
   10.7310  -13.9746   30.1785 N   0  0  0  0  0  0  0  0  0  0  0  0
    9.6899  -14.5356   29.3930 C   0  0  0  0  0  0  0  0  0  0  0  0
    8.6502  -15.1089   29.9394 N   0  0  0  0  0  0  0  0  0  0  0  0
    9.7148  -14.5081   27.9704 N   0  0  0  0  0  0  0  0  0  0  0  0
    8.5649  -14.9411   27.1965 C   0  0  0  0  0  0  0  0  0  0  0  0
    8.6326  -16.3647   26.7900 C   0  0  0  0  0  0  0  0  0  0  0  0
    8.3605  -16.6884   25.3731 C   0  0  0  0  0  0  0  0  0  0  0  0
    8.4185  -18.1199   24.9763 C   0  0  2  0  0  0  0  0  0  0  0  0
    8.0253  -18.3167   23.5816 N   0  0  0  0  0  0  0  0  0  0  0  0
    7.6754  -19.0630   25.8082 C   0  0  0  0  0  0  0  0  0  0  0  0
    7.8883  -19.1647   27.0560 O   0  0  0  0  0  0  0  0  0  0  0  0
    6.7039  -19.8859   25.2631 O   0  0  0  0  0  0  0  0  0  0  0  0
  2  3  1  1
  2  1  1  0
  4  2  1  0
  5  6  1  6
  5  4  1  0
  7  5  1  0
  8  7  2  0
  9 10  1  0
 11 10  1  6
 11 12  1  0
 12  7  1  0
 13 11  1  0
 13 14  2  0
 16 17  2  0
 16 15  1  0
 18 16  1  0
 19 18  1  0
 20 19  1  0
 21 20  1  0
 22 21  1  1
 23 22  1  0
 23 13  1  0
 24 22  1  0
 25 24  2  0
 26 24  1  0
M  END
$$$$
