MYP.pdb
     RDKit          3D

 28 29  0  0  1  0  0  0  0  0999 V2000
    8.3825  -20.6959   18.8177 C   0  0  0  0  0  0  0  0  0  0  0  0
    7.4052  -19.4403   17.9891 S   0  0  0  0  0  0  0  0  0  0  0  0
    6.4747  -18.4469   19.2245 C   0  0  0  0  0  0  0  0  0  0  0  0
    7.4713  -18.0022   20.2415 C   0  0  0  0  0  0  0  0  0  0  0  0
    7.5596  -16.5293   20.4651 C   0  0  2  0  0  0  0  0  0  0  0  0
    8.1327  -15.9490   19.2503 N   0  0  0  0  0  0  0  0  0  0  0  0
    8.4240  -16.1442   21.6012 C   0  0  0  0  0  0  0  0  0  0  0  0
    9.6918  -16.1088   21.4083 O   0  0  0  0  0  0  0  0  0  0  0  0
   10.7436  -13.8075   29.8789 O   0  0  0  0  0  0  0  0  0  0  0  0
   10.0266  -14.0653   28.6992 C   0  0  0  0  0  0  0  0  0  0  0  0
    9.7978  -13.0608   27.7752 C   0  0  0  0  0  0  0  0  0  0  0  0
    9.0881  -13.3095   26.6043 C   0  0  0  0  0  0  0  0  0  0  0  0
    8.5857  -14.5597   26.3165 C   0  0  0  0  0  0  0  0  0  0  0  0
    7.8279  -14.8475   25.0783 C   0  0  0  0  0  0  0  0  0  0  0  0
    8.7142  -15.4818   24.0132 C   0  0  2  0  0  0  0  0  0  0  0  0
    7.8705  -15.8261   22.8568 N   0  0  0  0  0  0  0  0  0  0  0  0
    9.2335  -16.7482   24.5808 C   0  0  0  0  0  0  0  0  0  0  0  0
    8.3873  -17.6748   24.8364 O   0  0  0  0  0  0  0  0  0  0  0  0
    8.8280  -15.5405   27.2531 C   0  0  0  0  0  0  0  0  0  0  0  0
    9.5264  -15.3119   28.4135 C   0  0  0  0  0  0  0  0  0  0  0  0
   10.5903  -17.0297   24.8660 N   0  0  0  0  0  0  0  0  0  0  0  0
   11.6232  -15.9830   24.9783 C   0  0  0  0  0  0  0  0  0  0  0  0
   12.7596  -16.6026   24.2032 C   0  0  0  0  0  0  0  0  0  0  0  0
   12.6250  -18.0928   24.3660 C   0  0  0  0  0  0  0  0  0  0  0  0
   11.3123  -18.2406   25.1358 C   0  0  1  0  0  0  0  0  0  0  0  0
   11.5880  -18.4209   26.5965 C   0  0  0  0  0  0  0  0  0  0  0  0
   11.7816  -19.6554   27.1520 O   0  0  0  0  0  0  0  0  0  0  0  0
   11.6370  -17.3902   27.3058 O   0  0  0  0  0  0  0  0  0  0  0  0
  2  1  1  0
  3  4  1  0
  3  2  1  0
  5  6  1  6
  5  4  1  0
  7  5  1  0
  8  7  2  0
  9 10  1  0
 10 11  2  0
 10 20  1  0
 11 12  1  0
 12 13  2  0
 13 14  1  0
 15 14  1  1
 15 16  1  0
 16  7  1  0
 17 15  1  0
 17 21  1  0
 18 17  2  0
 19 13  1  0
 20 19  2  0
 21 22  1  0
 23 22  1  0
 24 23  1  0
 25 21  1  0
 25 24  1  0
 25 26  1  1
 26 27  1  0
 28 26  2  0
M  END
$$$$
