MYP.pdb
     RDKit          3D

 28 29  0  0  1  0  0  0  0  0999 V2000
    6.9552  -13.6652   17.7880 C   0  0  0  0  0  0  0  0  0  0  0  0
    8.1919  -13.5827   19.0849 S   0  0  0  0  0  0  0  0  0  0  0  0
    9.4317  -14.9213   18.8616 C   0  0  0  0  0  0  0  0  0  0  0  0
   10.4027  -14.7852   19.9857 C   0  0  0  0  0  0  0  0  0  0  0  0
   10.3442  -15.8513   21.0285 C   0  0  2  0  0  0  0  0  0  0  0  0
    9.1162  -16.6106   20.7910 N   0  0  0  0  0  0  0  0  0  0  0  0
   10.2961  -15.3358   22.4135 C   0  0  0  0  0  0  0  0  0  0  0  0
   11.2439  -14.5634   22.8018 O   0  0  0  0  0  0  0  0  0  0  0  0
    5.4545  -10.3369   26.6646 O   0  0  0  0  0  0  0  0  0  0  0  0
    6.0178  -11.5698   26.2976 C   0  0  0  0  0  0  0  0  0  0  0  0
    7.2416  -11.6263   25.6540 C   0  0  0  0  0  0  0  0  0  0  0  0
    7.8054  -12.8447   25.2875 C   0  0  0  0  0  0  0  0  0  0  0  0
    7.1726  -14.0404   25.5485 C   0  0  0  0  0  0  0  0  0  0  0  0
    7.7525  -15.3477   25.1679 C   0  0  0  0  0  0  0  0  0  0  0  0
    9.1852  -15.2017   24.6693 C   0  0  2  0  0  0  0  0  0  0  0  0
    9.2408  -15.6835   23.2792 N   0  0  0  0  0  0  0  0  0  0  0  0
   10.0231  -16.1072   25.4904 C   0  0  0  0  0  0  0  0  0  0  0  0
   10.6120  -17.0747   24.8930 O   0  0  0  0  0  0  0  0  0  0  0  0
    5.9564  -13.9550   26.1898 C   0  0  0  0  0  0  0  0  0  0  0  0
    5.3861  -12.7610   26.5582 C   0  0  0  0  0  0  0  0  0  0  0  0
   10.2351  -15.9973   26.8847 N   0  0  0  0  0  0  0  0  0  0  0  0
    9.4440  -15.1038   27.7514 C   0  0  0  0  0  0  0  0  0  0  0  0
   10.5225  -14.4929   28.6116 C   0  0  0  0  0  0  0  0  0  0  0  0
   11.6102  -15.5263   28.7307 C   0  0  0  0  0  0  0  0  0  0  0  0
   11.1320  -16.6422   27.8013 C   0  0  1  0  0  0  0  0  0  0  0  0
   10.4546  -17.7181   28.5925 C   0  0  0  0  0  0  0  0  0  0  0  0
   11.1563  -18.6059   29.3602 O   0  0  0  0  0  0  0  0  0  0  0  0
    9.2056  -17.7813   28.5290 O   0  0  0  0  0  0  0  0  0  0  0  0
  2  1  1  0
  3  4  1  0
  3  2  1  0
  5  6  1  6
  5  4  1  0
  7  5  1  0
  8  7  2  0
  9 10  1  0
 10 11  2  0
 10 20  1  0
 11 12  1  0
 12 13  2  0
 13 14  1  0
 15 14  1  1
 15 16  1  0
 16  7  1  0
 17 15  1  0
 17 21  1  0
 18 17  2  0
 19 13  1  0
 20 19  2  0
 21 22  1  0
 23 22  1  0
 24 23  1  0
 25 21  1  0
 25 24  1  0
 25 26  1  1
 26 27  1  0
 28 26  2  0
M  END
$$$$
