MYP.pdb
     RDKit          3D

 28 29  0  0  1  0  0  0  0  0999 V2000
    2.4827  -18.4102   19.7232 C   0  0  0  0  0  0  0  0  0  0  0  0
    3.2574  -19.2294   21.1184 S   0  0  0  0  0  0  0  0  0  0  0  0
    3.1122  -18.1852   22.6242 C   0  0  0  0  0  0  0  0  0  0  0  0
    3.9369  -18.8485   23.6755 C   0  0  0  0  0  0  0  0  0  0  0  0
    5.4124  -18.6527   23.5646 C   0  0  2  0  0  0  0  0  0  0  0  0
    6.0169  -19.3172   24.7194 N   0  0  0  0  0  0  0  0  0  0  0  0
    5.8343  -17.2358   23.5865 C   0  0  0  0  0  0  0  0  0  0  0  0
    5.0038  -16.3670   24.0351 O   0  0  0  0  0  0  0  0  0  0  0  0
    6.2057  -12.6717   28.2215 O   0  0  0  0  0  0  0  0  0  0  0  0
    6.7522  -13.2025   27.0418 C   0  0  0  0  0  0  0  0  0  0  0  0
    7.3084  -14.4696   27.0261 C   0  0  0  0  0  0  0  0  0  0  0  0
    7.8517  -15.0016   25.8606 C   0  0  0  0  0  0  0  0  0  0  0  0
    7.8589  -14.2933   24.6788 C   0  0  0  0  0  0  0  0  0  0  0  0
    8.4311  -14.8382   23.4275 C   0  0  0  0  0  0  0  0  0  0  0  0
    7.3666  -15.5143   22.5720 C   0  0  2  0  0  0  0  0  0  0  0  0
    7.1100  -16.8530   23.1282 N   0  0  0  0  0  0  0  0  0  0  0  0
    7.9482  -15.6951   21.2210 C   0  0  0  0  0  0  0  0  0  0  0  0
    8.1355  -16.8939   20.8115 O   0  0  0  0  0  0  0  0  0  0  0  0
    7.2990  -13.0353   24.7229 C   0  0  0  0  0  0  0  0  0  0  0  0
    6.7588  -12.4955   25.8645 C   0  0  0  0  0  0  0  0  0  0  0  0
    8.3158  -14.6555   20.3348 N   0  0  0  0  0  0  0  0  0  0  0  0
    8.2382  -13.2270   20.6933 C   0  0  0  0  0  0  0  0  0  0  0  0
    7.6310  -12.6395   19.4434 C   0  0  0  0  0  0  0  0  0  0  0  0
    8.0885  -13.5040   18.2995 C   0  0  0  0  0  0  0  0  0  0  0  0
    8.8416  -14.6358   18.9993 C   0  0  1  0  0  0  0  0  0  0  0  0
   10.3145  -14.3676   18.9755 C   0  0  0  0  0  0  0  0  0  0  0  0
   11.1142  -14.7962   17.9523 O   0  0  0  0  0  0  0  0  0  0  0  0
   10.8002  -13.7284   19.9366 O   0  0  0  0  0  0  0  0  0  0  0  0
  2  1  1  0
  3  4  1  0
  3  2  1  0
  5  6  1  1
  5  4  1  0
  7  5  1  0
  8  7  2  0
  9 10  1  0
 10 11  2  0
 10 20  1  0
 11 12  1  0
 12 13  2  0
 13 14  1  0
 15 14  1  1
 15 16  1  0
 16  7  1  0
 17 15  1  0
 17 21  1  0
 18 17  2  0
 19 13  1  0
 20 19  2  0
 21 22  1  0
 23 22  1  0
 24 23  1  0
 25 21  1  0
 25 24  1  0
 25 26  1  1
 26 27  1  0
 28 26  2  0
M  END
$$$$
