MYP.pdb
     RDKit          3D

 28 29  0  0  1  0  0  0  0  0999 V2000
    6.7739  -12.2683   19.0121 C   0  0  0  0  0  0  0  0  0  0  0  0
    8.1859  -13.3508   18.7827 S   0  0  0  0  0  0  0  0  0  0  0  0
    8.4403  -14.3836   20.2818 C   0  0  0  0  0  0  0  0  0  0  0  0
    9.6407  -15.2267   20.0114 C   0  0  0  0  0  0  0  0  0  0  0  0
   10.0188  -16.1855   21.0909 C   0  0  2  0  0  0  0  0  0  0  0  0
    8.9852  -17.2206   21.1206 N   0  0  0  0  0  0  0  0  0  0  0  0
   10.0891  -15.5781   22.4372 C   0  0  0  0  0  0  0  0  0  0  0  0
   10.9082  -14.6075   22.6180 O   0  0  0  0  0  0  0  0  0  0  0  0
    5.5780  -10.4301   26.4070 O   0  0  0  0  0  0  0  0  0  0  0  0
    6.1512  -11.6897   26.1682 C   0  0  0  0  0  0  0  0  0  0  0  0
    7.4878  -11.8073   25.8294 C   0  0  0  0  0  0  0  0  0  0  0  0
    8.0621  -13.0524   25.5915 C   0  0  0  0  0  0  0  0  0  0  0  0
    7.3283  -14.2149   25.6826 C   0  0  0  0  0  0  0  0  0  0  0  0
    7.9172  -15.5497   25.4337 C   0  0  0  0  0  0  0  0  0  0  0  0
    9.3117  -15.4432   24.8285 C   0  0  2  0  0  0  0  0  0  0  0  0
    9.2803  -16.0522   23.4884 N   0  0  0  0  0  0  0  0  0  0  0  0
   10.2128  -16.2636   25.6716 C   0  0  0  0  0  0  0  0  0  0  0  0
   10.8989  -17.1767   25.0925 O   0  0  0  0  0  0  0  0  0  0  0  0
    6.0010  -14.0688   26.0212 C   0  0  0  0  0  0  0  0  0  0  0  0
    5.4188  -12.8478   26.2593 C   0  0  0  0  0  0  0  0  0  0  0  0
   10.3870  -16.1270   27.0689 N   0  0  0  0  0  0  0  0  0  0  0  0
    9.5320  -15.2651   27.9063 C   0  0  0  0  0  0  0  0  0  0  0  0
   10.5580  -14.5900   28.7824 C   0  0  0  0  0  0  0  0  0  0  0  0
   11.6938  -15.5651   28.9389 C   0  0  0  0  0  0  0  0  0  0  0  0
   11.2942  -16.7146   28.0133 C   0  0  1  0  0  0  0  0  0  0  0  0
   10.6545  -17.8144   28.8028 C   0  0  0  0  0  0  0  0  0  0  0  0
    9.3211  -18.1006   28.7010 O   0  0  0  0  0  0  0  0  0  0  0  0
   11.3893  -18.4753   29.5718 O   0  0  0  0  0  0  0  0  0  0  0  0
  2  1  1  0
  3  4  1  0
  3  2  1  0
  5  6  1  1
  5  4  1  0
  7  5  1  0
  8  7  2  0
  9 10  1  0
 10 11  2  0
 10 20  1  0
 11 12  1  0
 12 13  2  0
 13 14  1  0
 15 14  1  1
 15 16  1  0
 16  7  1  0
 17 15  1  0
 17 21  1  0
 18 17  2  0
 19 13  1  0
 20 19  2  0
 21 22  1  0
 23 22  1  0
 24 23  1  0
 25 21  1  0
 25 24  1  0
 25 26  1  1
 26 27  1  0
 28 26  2  0
M  END
$$$$
