MYP.pdb
     RDKit          3D

 28 29  0  0  1  0  0  0  0  0999 V2000
    4.5253  -18.4504   20.5404 C   0  0  0  0  0  0  0  0  0  0  0  0
    6.1868  -18.8548   19.9984 S   0  0  0  0  0  0  0  0  0  0  0  0
    7.2902  -17.3992   20.2043 C   0  0  0  0  0  0  0  0  0  0  0  0
    6.4036  -16.2428   20.5235 C   0  0  0  0  0  0  0  0  0  0  0  0
    7.0915  -14.9362   20.7406 C   0  0  2  0  0  0  0  0  0  0  0  0
    7.8479  -14.6469   19.5220 N   0  0  0  0  0  0  0  0  0  0  0  0
    8.0422  -14.9380   21.8730 C   0  0  0  0  0  0  0  0  0  0  0  0
    9.2806  -15.1567   21.6193 O   0  0  0  0  0  0  0  0  0  0  0  0
   11.0070  -14.6936   30.2694 O   0  0  0  0  0  0  0  0  0  0  0  0
   10.2063  -14.6111   29.1187 C   0  0  0  0  0  0  0  0  0  0  0  0
    9.4855  -15.7067   28.6769 C   0  0  0  0  0  0  0  0  0  0  0  0
    8.6902  -15.6318   27.5374 C   0  0  0  0  0  0  0  0  0  0  0  0
    8.5870  -14.4697   26.8044 C   0  0  0  0  0  0  0  0  0  0  0  0
    7.7481  -14.3666   25.5895 C   0  0  0  0  0  0  0  0  0  0  0  0
    8.5099  -14.8019   24.3435 C   0  0  2  0  0  0  0  0  0  0  0  0
    7.5999  -14.7062   23.1901 N   0  0  0  0  0  0  0  0  0  0  0  0
    8.8538  -16.2319   24.5246 C   0  0  0  0  0  0  0  0  0  0  0  0
    7.8931  -17.0785   24.5179 O   0  0  0  0  0  0  0  0  0  0  0  0
    9.3146  -13.3951   27.2665 C   0  0  0  0  0  0  0  0  0  0  0  0
   10.1042  -13.4522   28.3889 C   0  0  0  0  0  0  0  0  0  0  0  0
   10.1577  -16.7509   24.7029 N   0  0  0  0  0  0  0  0  0  0  0  0
   11.3314  -15.9016   24.9790 C   0  0  0  0  0  0  0  0  0  0  0  0
   12.3615  -16.5105   24.0601 C   0  0  0  0  0  0  0  0  0  0  0  0
   12.0146  -17.9699   23.9372 C   0  0  0  0  0  0  0  0  0  0  0  0
   10.6994  -18.0802   24.7091 C   0  0  1  0  0  0  0  0  0  0  0  0
   10.9560  -18.5796   26.0973 C   0  0  0  0  0  0  0  0  0  0  0  0
   11.2904  -19.8812   26.3505 O   0  0  0  0  0  0  0  0  0  0  0  0
   10.8536  -17.7559   27.0349 O   0  0  0  0  0  0  0  0  0  0  0  0
  2  1  1  0
  3  4  1  0
  3  2  1  0
  5  6  1  6
  5  4  1  0
  7  5  1  0
  8  7  2  0
  9 10  1  0
 10 11  2  0
 10 20  1  0
 11 12  1  0
 12 13  2  0
 13 14  1  0
 15 14  1  1
 15 16  1  0
 16  7  1  0
 17 15  1  0
 17 21  1  0
 18 17  2  0
 19 13  1  0
 20 19  2  0
 21 22  1  0
 23 22  1  0
 24 23  1  0
 25 21  1  0
 25 24  1  0
 25 26  1  1
 26 27  1  0
 28 26  2  0
M  END
$$$$
