MYP.pdb
     RDKit          3D

 28 29  0  0  1  0  0  0  0  0999 V2000
   14.7274  -20.7201   18.9494 C   0  0  0  0  0  0  0  0  0  0  0  0
   14.2151  -19.3118   19.9355 S   0  0  0  0  0  0  0  0  0  0  0  0
   12.5221  -19.5861   20.5968 C   0  0  0  0  0  0  0  0  0  0  0  0
   12.2363  -18.4389   21.5064 C   0  0  0  0  0  0  0  0  0  0  0  0
   11.2435  -17.4434   21.0057 C   0  0  2  0  0  0  0  0  0  0  0  0
   11.8640  -16.7587   19.8713 N   0  0  0  0  0  0  0  0  0  0  0  0
   10.8661  -16.4175   22.0014 C   0  0  0  0  0  0  0  0  0  0  0  0
   11.6881  -15.4565   22.2171 O   0  0  0  0  0  0  0  0  0  0  0  0
    5.9549  -11.6762   27.6769 O   0  0  0  0  0  0  0  0  0  0  0  0
    6.4087  -12.5320   26.6601 C   0  0  0  0  0  0  0  0  0  0  0  0
    6.2224  -13.9003   26.7499 C   0  0  0  0  0  0  0  0  0  0  0  0
    6.6696  -14.7540   25.7460 C   0  0  0  0  0  0  0  0  0  0  0  0
    7.3134  -14.2758   24.6257 C   0  0  0  0  0  0  0  0  0  0  0  0
    7.7979  -15.1643   23.5458 C   0  0  0  0  0  0  0  0  0  0  0  0
    9.2693  -15.5168   23.7276 C   0  0  2  0  0  0  0  0  0  0  0  0
    9.6405  -16.4945   22.6913 N   0  0  0  0  0  0  0  0  0  0  0  0
    9.3936  -16.1894   25.0421 C   0  0  0  0  0  0  0  0  0  0  0  0
    9.2318  -17.4592   25.0764 O   0  0  0  0  0  0  0  0  0  0  0  0
    7.4855  -12.9105   24.5621 C   0  0  0  0  0  0  0  0  0  0  0  0
    7.0503  -12.0542   25.5439 C   0  0  0  0  0  0  0  0  0  0  0  0
    9.6794  -15.5513   26.2719 N   0  0  0  0  0  0  0  0  0  0  0  0
    9.2413  -14.1789   26.5877 C   0  0  0  0  0  0  0  0  0  0  0  0
   10.4873  -13.6065   27.2169 C   0  0  0  0  0  0  0  0  0  0  0  0
   11.1984  -14.7563   27.8785 C   0  0  0  0  0  0  0  0  0  0  0  0
   10.3604  -15.9666   27.4654 C   0  0  1  0  0  0  0  0  0  0  0  0
    9.4080  -16.3332   28.5611 C   0  0  0  0  0  0  0  0  0  0  0  0
    8.1639  -15.7739   28.6593 O   0  0  0  0  0  0  0  0  0  0  0  0
    9.7912  -17.1814   29.3988 O   0  0  0  0  0  0  0  0  0  0  0  0
  2  1  1  0
  3  4  1  0
  3  2  1  0
  5  6  1  6
  5  4  1  0
  7  5  1  0
  8  7  2  0
  9 10  1  0
 10 11  2  0
 10 20  1  0
 11 12  1  0
 12 13  2  0
 13 14  1  0
 15 14  1  6
 15 16  1  0
 16  7  1  0
 17 15  1  0
 17 21  1  0
 18 17  2  0
 19 13  1  0
 20 19  2  0
 21 22  1  0
 23 22  1  0
 24 23  1  0
 25 21  1  0
 25 24  1  0
 25 26  1  1
 26 27  1  0
 28 26  2  0
M  END
$$$$
