MYP.pdb
     RDKit          3D

 28 29  0  0  1  0  0  0  0  0999 V2000
    6.6825  -12.5241   19.5922 C   0  0  0  0  0  0  0  0  0  0  0  0
    8.2083  -13.4169   19.2876 S   0  0  0  0  0  0  0  0  0  0  0  0
    8.3592  -14.8272   20.4569 C   0  0  0  0  0  0  0  0  0  0  0  0
    7.1993  -15.7245   20.1835 C   0  0  0  0  0  0  0  0  0  0  0  0
    7.0871  -16.9277   21.0593 C   0  0  2  0  0  0  0  0  0  0  0  0
    5.9296  -17.6890   20.5887 N   0  0  0  0  0  0  0  0  0  0  0  0
    6.8709  -16.6136   22.4879 C   0  0  0  0  0  0  0  0  0  0  0  0
    5.6776  -16.3384   22.8701 O   0  0  0  0  0  0  0  0  0  0  0  0
    5.2251  -22.0852   26.5650 O   0  0  0  0  0  0  0  0  0  0  0  0
    6.0294  -20.9587   26.3274 C   0  0  0  0  0  0  0  0  0  0  0  0
    6.6408  -20.7706   25.1003 C   0  0  0  0  0  0  0  0  0  0  0  0
    7.4390  -19.6567   24.8582 C   0  0  0  0  0  0  0  0  0  0  0  0
    7.6534  -18.6986   25.8248 C   0  0  0  0  0  0  0  0  0  0  0  0
    8.4983  -17.5064   25.5904 C   0  0  0  0  0  0  0  0  0  0  0  0
    7.7368  -16.4175   24.8443 C   0  0  2  0  0  0  0  0  0  0  0  0
    7.9440  -16.6169   23.4004 N   0  0  0  0  0  0  0  0  0  0  0  0
    8.3609  -15.1245   25.2113 C   0  0  0  0  0  0  0  0  0  0  0  0
    9.3558  -14.7259   24.5105 O   0  0  0  0  0  0  0  0  0  0  0  0
    7.0331  -18.9108   27.0364 C   0  0  0  0  0  0  0  0  0  0  0  0
    6.2424  -20.0044   27.2917 C   0  0  0  0  0  0  0  0  0  0  0  0
    7.9525  -14.2827   26.2724 N   0  0  0  0  0  0  0  0  0  0  0  0
    6.7127  -14.5000   27.0409 C   0  0  0  0  0  0  0  0  0  0  0  0
    6.1660  -13.0965   27.1262 C   0  0  0  0  0  0  0  0  0  0  0  0
    7.3551  -12.1739   27.1188 C   0  0  0  0  0  0  0  0  0  0  0  0
    8.5308  -13.1250   26.8934 C   0  0  1  0  0  0  0  0  0  0  0  0
    9.1875  -13.4523   28.1987 C   0  0  0  0  0  0  0  0  0  0  0  0
    9.0600  -14.6796   28.7881 O   0  0  0  0  0  0  0  0  0  0  0  0
    9.8683  -12.5535   28.7434 O   0  0  0  0  0  0  0  0  0  0  0  0
  2  1  1  0
  3  4  1  0
  3  2  1  0
  5  6  1  6
  5  4  1  0
  7  5  1  0
  8  7  2  0
  9 10  1  0
 10 11  2  0
 10 20  1  0
 11 12  1  0
 12 13  2  0
 13 14  1  0
 15 14  1  1
 15 16  1  0
 16  7  1  0
 17 15  1  0
 17 21  1  0
 18 17  2  0
 19 13  1  0
 20 19  2  0
 21 22  1  0
 23 22  1  0
 24 23  1  0
 25 21  1  0
 25 24  1  0
 25 26  1  1
 26 27  1  0
 28 26  2  0
M  END
$$$$
