MYP.pdb
     RDKit          3D

 28 29  0  0  1  0  0  0  0  0999 V2000
    8.7648  -20.8163   20.9885 C   0  0  0  0  0  0  0  0  0  0  0  0
    8.8485  -21.8220   22.4717 S   0  0  0  0  0  0  0  0  0  0  0  0
    8.4007  -20.8156   23.9433 C   0  0  0  0  0  0  0  0  0  0  0  0
    7.0704  -20.2091   23.6474 C   0  0  0  0  0  0  0  0  0  0  0  0
    6.5877  -19.1908   24.6259 C   0  0  2  0  0  0  0  0  0  0  0  0
    5.2375  -19.5904   25.0234 N   0  0  0  0  0  0  0  0  0  0  0  0
    6.5102  -17.8196   24.0780 C   0  0  0  0  0  0  0  0  0  0  0  0
    5.4688  -17.4997   23.4006 O   0  0  0  0  0  0  0  0  0  0  0  0
    5.7409  -11.4115   28.1307 O   0  0  0  0  0  0  0  0  0  0  0  0
    6.4287  -12.2128   27.2049 C   0  0  0  0  0  0  0  0  0  0  0  0
    5.7394  -12.9966   26.2963 C   0  0  0  0  0  0  0  0  0  0  0  0
    6.4148  -13.7930   25.3763 C   0  0  0  0  0  0  0  0  0  0  0  0
    7.7912  -13.8348   25.3312 C   0  0  0  0  0  0  0  0  0  0  0  0
    8.5308  -14.6741   24.3622 C   0  0  0  0  0  0  0  0  0  0  0  0
    7.5955  -15.5996   23.5936 C   0  0  2  0  0  0  0  0  0  0  0  0
    7.5495  -16.8938   24.2941 N   0  0  0  0  0  0  0  0  0  0  0  0
    8.2114  -15.8314   22.2659 C   0  0  0  0  0  0  0  0  0  0  0  0
    8.5307  -17.0336   21.9617 O   0  0  0  0  0  0  0  0  0  0  0  0
    8.4518  -13.0451   26.2465 C   0  0  0  0  0  0  0  0  0  0  0  0
    7.8007  -12.2537   27.1609 C   0  0  0  0  0  0  0  0  0  0  0  0
    8.4786  -14.8374   21.2952 N   0  0  0  0  0  0  0  0  0  0  0  0
    8.4533  -13.3934   21.5937 C   0  0  0  0  0  0  0  0  0  0  0  0
    7.7065  -12.8559   20.3980 C   0  0  0  0  0  0  0  0  0  0  0  0
    8.0199  -13.7768   19.2495 C   0  0  0  0  0  0  0  0  0  0  0  0
    8.8430  -14.8846   19.9076 C   0  0  1  0  0  0  0  0  0  0  0  0
   10.3046  -14.6355   19.6982 C   0  0  0  0  0  0  0  0  0  0  0  0
   10.9417  -14.9835   18.5393 O   0  0  0  0  0  0  0  0  0  0  0  0
   10.9364  -14.0898   20.6314 O   0  0  0  0  0  0  0  0  0  0  0  0
  2  1  1  0
  3  4  1  0
  3  2  1  0
  5  6  1  6
  5  4  1  0
  7  5  1  0
  8  7  2  0
  9 10  1  0
 10 11  2  0
 10 20  1  0
 11 12  1  0
 12 13  2  0
 13 14  1  0
 15 14  1  1
 15 16  1  0
 16  7  1  0
 17 15  1  0
 17 21  1  0
 18 17  2  0
 19 13  1  0
 20 19  2  0
 21 22  1  0
 23 22  1  0
 24 23  1  0
 25 21  1  0
 25 24  1  0
 25 26  1  1
 26 27  1  0
 28 26  2  0
M  END
$$$$
