QSM.pdb
     RDKit          3D

 24 23  0  0  1  0  0  0  0  0999 V2000
    8.2319  -12.8596   16.6930 N   0  0  0  0  0  0  0  0  0  0  0  0
    7.5841  -14.0357   17.2193 C   0  0  0  0  0  0  0  0  0  0  0  0
    6.4562  -14.2674   16.7559 O   0  0  0  0  0  0  0  0  0  0  0  0
    8.2444  -14.8652   18.2288 C   0  0  0  0  0  0  0  0  0  0  0  0
    9.5901  -14.3660   18.6359 C   0  0  0  0  0  0  0  0  0  0  0  0
   10.3042  -15.1569   19.6757 C   0  0  2  0  0  0  0  0  0  0  0  0
   10.8240  -16.4193   19.2982 N   0  0  0  0  0  0  0  0  0  0  0  0
    9.4796  -15.3220   20.9058 C   0  0  0  0  0  0  0  0  0  0  0  0
    8.9450  -14.2636   21.3794 O   0  0  0  0  0  0  0  0  0  0  0  0
    9.0168  -18.8755   23.0628 O   0  0  0  0  0  0  0  0  0  0  0  0
    7.9396  -18.0040   22.9485 C   0  0  0  0  0  0  0  0  0  0  0  0
    8.4095  -16.5778   22.7103 C   0  0  2  0  0  0  0  0  0  0  0  0
    9.2578  -16.5487   21.5662 N   0  0  0  0  0  0  0  0  0  0  0  0
    9.1127  -16.1543   23.9601 C   0  0  0  0  0  0  0  0  0  0  0  0
   10.3656  -16.2254   24.0013 O   0  0  0  0  0  0  0  0  0  0  0  0
    6.1301  -10.6605   26.1066 C   0  0  0  0  0  0  0  0  0  0  0  0
    6.5315  -12.1329   27.0504 S   0  0  0  0  0  0  0  0  0  0  0  0
    7.8333  -13.0970   26.2946 C   0  0  0  0  0  0  0  0  0  0  0  0
    8.2617  -14.2899   27.0580 C   0  0  0  0  0  0  0  0  0  0  0  0
    9.1457  -15.2315   26.3317 C   0  0  2  0  0  0  0  0  0  0  0  0
    8.4257  -15.6783   25.0946 N   0  0  0  0  0  0  0  0  0  0  0  0
    9.4703  -16.4411   27.0738 C   0  0  0  0  0  0  0  0  0  0  0  0
    8.9398  -17.5743   26.9284 O   0  0  0  0  0  0  0  0  0  0  0  0
   10.4826  -16.3772   28.0708 O   0  0  0  0  0  0  0  0  0  0  0  0
  2  1  1  0
  3  2  2  0
  4  2  1  0
  5  4  1  0
  6  5  1  0
  6  7  1  6
  8  9  2  0
  8  6  1  0
 10 11  1  0
 12 11  1  1
 12 13  1  0
 13  8  1  0
 14 12  1  0
 15 14  2  0
 17 16  1  0
 18 17  1  0
 19 18  1  0
 20 19  1  1
 20 22  1  0
 20 21  1  0
 21 14  1  0
 22 24  1  0
 23 22  2  0
M  END
$$$$
