QSM.pdb
     RDKit          3D

 24 23  0  0  1  0  0  0  0  0999 V2000
   13.3972  -18.3749   20.6785 N   0  0  0  0  0  0  0  0  0  0  0  0
   12.9014  -18.4988   19.3300 C   0  0  0  0  0  0  0  0  0  0  0  0
   13.7319  -18.8979   18.4983 O   0  0  0  0  0  0  0  0  0  0  0  0
   11.5128  -18.1637   19.0095 C   0  0  0  0  0  0  0  0  0  0  0  0
   10.7256  -17.6681   20.1758 C   0  0  0  0  0  0  0  0  0  0  0  0
    9.3013  -18.0964   20.2448 C   0  0  2  0  0  0  0  0  0  0  0  0
    8.5031  -17.9098   19.0897 N   0  0  0  0  0  0  0  0  0  0  0  0
    8.6021  -17.4988   21.4172 C   0  0  0  0  0  0  0  0  0  0  0  0
    8.1865  -16.2992   21.2817 O   0  0  0  0  0  0  0  0  0  0  0  0
    7.6357  -19.5331   24.9334 O   0  0  0  0  0  0  0  0  0  0  0  0
    6.8426  -18.4941   24.4597 C   0  0  0  0  0  0  0  0  0  0  0  0
    7.6682  -17.4855   23.6768 C   0  0  2  0  0  0  0  0  0  0  0  0
    8.3760  -18.1616   22.6417 N   0  0  0  0  0  0  0  0  0  0  0  0
    8.5793  -16.8321   24.6662 C   0  0  0  0  0  0  0  0  0  0  0  0
    9.8108  -17.0676   24.5998 O   0  0  0  0  0  0  0  0  0  0  0  0
    5.2511  -11.3596   26.3383 C   0  0  0  0  0  0  0  0  0  0  0  0
    6.3650  -12.2512   27.4264 S   0  0  0  0  0  0  0  0  0  0  0  0
    7.4806  -13.3252   26.5335 C   0  0  0  0  0  0  0  0  0  0  0  0
    8.2644  -14.2601   27.3709 C   0  0  0  0  0  0  0  0  0  0  0  0
    9.0407  -15.2839   26.6327 C   0  0  2  0  0  0  0  0  0  0  0  0
    8.1113  -15.9619   25.6709 N   0  0  0  0  0  0  0  0  0  0  0  0
    9.5957  -16.3351   27.4731 C   0  0  0  0  0  0  0  0  0  0  0  0
    9.1412  -17.5016   27.6117 O   0  0  0  0  0  0  0  0  0  0  0  0
   10.7682  -16.0555   28.2279 O   0  0  0  0  0  0  0  0  0  0  0  0
  2  1  1  0
  3  2  2  0
  4  2  1  0
  5  4  1  0
  6  5  1  0
  6  7  1  6
  8  9  2  0
  8  6  1  0
 10 11  1  0
 12 11  1  1
 12 13  1  0
 13  8  1  0
 14 12  1  0
 15 14  2  0
 17 16  1  0
 18 17  1  0
 19 18  1  0
 20 19  1  1
 20 22  1  0
 20 21  1  0
 21 14  1  0
 22 24  1  0
 23 22  2  0
M  END
$$$$
