QSM.pdb
     RDKit          3D

 24 23  0  0  1  0  0  0  0  0999 V2000
    8.4148  -12.6327   16.4009 N   0  0  0  0  0  0  0  0  0  0  0  0
    7.8901  -13.9619   16.2067 C   0  0  0  0  0  0  0  0  0  0  0  0
    7.0828  -14.0777   15.2710 O   0  0  0  0  0  0  0  0  0  0  0  0
    8.3044  -15.0644   17.0761 C   0  0  0  0  0  0  0  0  0  0  0  0
    9.2945  -14.6717   18.1206 C   0  0  0  0  0  0  0  0  0  0  0  0
    9.7598  -15.7523   19.0331 C   0  0  2  0  0  0  0  0  0  0  0  0
    9.5856  -17.0916   18.6066 N   0  0  0  0  0  0  0  0  0  0  0  0
    9.1887  -15.6025   20.4013 C   0  0  0  0  0  0  0  0  0  0  0  0
    9.3407  -14.4647   20.9604 O   0  0  0  0  0  0  0  0  0  0  0  0
    7.5005  -18.6816   22.6036 O   0  0  0  0  0  0  0  0  0  0  0  0
    6.9728  -17.4068   22.7745 C   0  0  0  0  0  0  0  0  0  0  0  0
    7.9864  -16.3375   22.3993 C   0  0  2  0  0  0  0  0  0  0  0  0
    8.5055  -16.6179   21.1027 N   0  0  0  0  0  0  0  0  0  0  0  0
    9.0394  -16.3680   23.4606 C   0  0  0  0  0  0  0  0  0  0  0  0
   10.1449  -16.9025   23.1988 O   0  0  0  0  0  0  0  0  0  0  0  0
    8.4446  -13.0349   29.1261 C   0  0  0  0  0  0  0  0  0  0  0  0
   10.0508  -13.8051   29.3417 S   0  0  0  0  0  0  0  0  0  0  0  0
   10.3808  -15.0572   28.1094 C   0  0  0  0  0  0  0  0  0  0  0  0
    9.5454  -14.9807   26.8905 C   0  0  0  0  0  0  0  0  0  0  0  0
    9.8472  -15.9848   25.8434 C   0  0  2  0  0  0  0  0  0  0  0  0
    8.8410  -15.8206   24.7439 N   0  0  0  0  0  0  0  0  0  0  0  0
    9.7407  -17.3662   26.2905 C   0  0  0  0  0  0  0  0  0  0  0  0
    8.6762  -18.0133   26.4767 O   0  0  0  0  0  0  0  0  0  0  0  0
   10.9359  -18.0909   26.5531 O   0  0  0  0  0  0  0  0  0  0  0  0
  2  1  1  0
  3  2  2  0
  4  2  1  0
  5  4  1  0
  6  5  1  0
  6  7  1  6
  8  9  2  0
  8  6  1  0
 10 11  1  0
 12 11  1  1
 12 13  1  0
 13  8  1  0
 14 12  1  0
 15 14  2  0
 17 16  1  0
 18 17  1  0
 19 18  1  0
 20 19  1  1
 20 22  1  0
 20 21  1  0
 21 14  1  0
 22 24  1  0
 23 22  2  0
M  END
$$$$
