QSM.pdb
     RDKit          3D

 24 23  0  0  1  0  0  0  0  0999 V2000
    8.7035  -13.7563   16.0233 N   0  0  0  0  0  0  0  0  0  0  0  0
    8.9274  -13.2584   17.3581 C   0  0  0  0  0  0  0  0  0  0  0  0
   10.1102  -13.2728   17.7339 O   0  0  0  0  0  0  0  0  0  0  0  0
    7.8104  -12.7836   18.1767 C   0  0  0  0  0  0  0  0  0  0  0  0
    7.6075  -13.5622   19.4330 C   0  0  0  0  0  0  0  0  0  0  0  0
    7.7416  -15.0412   19.3256 C   0  0  2  0  0  0  0  0  0  0  0  0
    6.8271  -15.7238   18.4867 N   0  0  0  0  0  0  0  0  0  0  0  0
    7.7474  -15.6929   20.6656 C   0  0  0  0  0  0  0  0  0  0  0  0
    6.6326  -15.7271   21.2871 O   0  0  0  0  0  0  0  0  0  0  0  0
   10.9809  -17.7143   22.3663 O   0  0  0  0  0  0  0  0  0  0  0  0
    9.6690  -18.0281   22.7028 C   0  0  0  0  0  0  0  0  0  0  0  0
    8.7657  -16.8105   22.5871 C   0  0  2  0  0  0  0  0  0  0  0  0
    8.8838  -16.2620   21.2777 N   0  0  0  0  0  0  0  0  0  0  0  0
    9.2072  -15.8589   23.6527 C   0  0  0  0  0  0  0  0  0  0  0  0
   10.1638  -15.0827   23.4101 O   0  0  0  0  0  0  0  0  0  0  0  0
    6.2167  -10.9476   26.2804 C   0  0  0  0  0  0  0  0  0  0  0  0
    6.6453  -11.9256   27.7225 S   0  0  0  0  0  0  0  0  0  0  0  0
    8.0181  -13.0292   27.4181 C   0  0  0  0  0  0  0  0  0  0  0  0
    7.8588  -13.9315   26.2562 C   0  0  0  0  0  0  0  0  0  0  0  0
    9.0168  -14.8082   25.9628 C   0  0  2  0  0  0  0  0  0  0  0  0
    8.5926  -15.7979   24.9193 N   0  0  0  0  0  0  0  0  0  0  0  0
    9.4798  -15.5890   27.1009 C   0  0  0  0  0  0  0  0  0  0  0  0
    9.2685  -16.8139   27.3047 O   0  0  0  0  0  0  0  0  0  0  0  0
   10.2510  -14.9393   28.1038 O   0  0  0  0  0  0  0  0  0  0  0  0
  2  1  1  0
  3  2  2  0
  4  2  1  0
  5  4  1  0
  6  5  1  0
  6  7  1  6
  8  9  2  0
  8  6  1  0
 10 11  1  0
 12 11  1  6
 12 13  1  0
 13  8  1  0
 14 12  1  0
 15 14  2  0
 17 16  1  0
 18 17  1  0
 19 18  1  0
 20 19  1  1
 20 22  1  0
 20 21  1  0
 21 14  1  0
 22 24  1  0
 23 22  2  0
M  END
$$$$
