QSM.pdb
     RDKit          3D

 24 23  0  0  1  0  0  0  0  0999 V2000
   12.9797  -18.2152   19.5110 N   0  0  0  0  0  0  0  0  0  0  0  0
   11.5618  -18.2580   19.2512 C   0  0  0  0  0  0  0  0  0  0  0  0
   11.2275  -17.9361   18.1001 O   0  0  0  0  0  0  0  0  0  0  0  0
   10.6206  -18.6549   20.2999 C   0  0  0  0  0  0  0  0  0  0  0  0
   11.2752  -19.0704   21.5745 C   0  0  0  0  0  0  0  0  0  0  0  0
   10.7083  -20.2694   22.2511 C   0  0  2  0  0  0  0  0  0  0  0  0
    9.4899  -20.7906   21.7509 N   0  0  0  0  0  0  0  0  0  0  0  0
   10.5784  -20.0631   23.7211 C   0  0  0  0  0  0  0  0  0  0  0  0
    9.5586  -19.4040   24.1158 O   0  0  0  0  0  0  0  0  0  0  0  0
   13.4849  -20.8260   26.6862 O   0  0  0  0  0  0  0  0  0  0  0  0
   12.1595  -21.1888   26.8974 C   0  0  0  0  0  0  0  0  0  0  0  0
   11.2165  -20.3340   26.0658 C   0  0  2  0  0  0  0  0  0  0  0  0
   11.4929  -20.5399   24.6836 N   0  0  0  0  0  0  0  0  0  0  0  0
   11.4450  -18.9199   26.4948 C   0  0  0  0  0  0  0  0  0  0  0  0
   12.1985  -18.1931   25.8015 O   0  0  0  0  0  0  0  0  0  0  0  0
    8.7381  -13.0802   26.6722 C   0  0  0  0  0  0  0  0  0  0  0  0
    8.8101  -13.6813   28.3614 S   0  0  0  0  0  0  0  0  0  0  0  0
   10.1868  -14.7878   28.6363 C   0  0  0  0  0  0  0  0  0  0  0  0
   10.0723  -16.1132   27.9885 C   0  0  0  0  0  0  0  0  0  0  0  0
   11.2311  -17.0181   28.1725 C   0  0  2  0  0  0  0  0  0  0  0  0
   10.8485  -18.3693   27.6466 N   0  0  0  0  0  0  0  0  0  0  0  0
   11.6209  -17.2165   29.5610 C   0  0  0  0  0  0  0  0  0  0  0  0
   12.0299  -16.3310   30.3581 O   0  0  0  0  0  0  0  0  0  0  0  0
   11.5459  -18.5268   30.1088 O   0  0  0  0  0  0  0  0  0  0  0  0
  2  1  1  0
  3  2  2  0
  4  2  1  0
  5  4  1  0
  6  5  1  0
  6  7  1  6
  8  9  2  0
  8  6  1  0
 10 11  1  0
 12 11  1  1
 12 13  1  0
 13  8  1  0
 14 12  1  0
 15 14  2  0
 17 16  1  0
 18 17  1  0
 19 18  1  0
 20 19  1  1
 20 22  1  0
 20 21  1  0
 21 14  1  0
 22 24  1  0
 23 22  2  0
M  END
$$$$
