QSM.pdb
     RDKit          3D

 24 23  0  0  1  0  0  0  0  0999 V2000
    7.5471  -17.9061   26.2378 N   0  0  0  0  0  0  0  0  0  0  0  0
    7.4053  -19.3314   26.0707 C   0  0  0  0  0  0  0  0  0  0  0  0
    8.0854  -20.0226   26.8456 O   0  0  0  0  0  0  0  0  0  0  0  0
    6.5152  -19.8798   25.0460 C   0  0  0  0  0  0  0  0  0  0  0  0
    5.7582  -18.8437   24.2850 C   0  0  0  0  0  0  0  0  0  0  0  0
    5.9799  -18.8079   22.8131 C   0  0  2  0  0  0  0  0  0  0  0  0
    6.3852  -20.0089   22.1811 N   0  0  0  0  0  0  0  0  0  0  0  0
    6.9165  -17.7165   22.4231 C   0  0  0  0  0  0  0  0  0  0  0  0
    8.0931  -18.0721   22.0778 O   0  0  0  0  0  0  0  0  0  0  0  0
    7.6018  -13.1869   20.9382 O   0  0  0  0  0  0  0  0  0  0  0  0
    6.8077  -14.0757   21.6540 C   0  0  0  0  0  0  0  0  0  0  0  0
    7.4986  -15.4201   21.8185 C   0  0  2  0  0  0  0  0  0  0  0  0
    6.5912  -16.3439   22.4123 N   0  0  0  0  0  0  0  0  0  0  0  0
    8.7042  -15.1701   22.6671 C   0  0  0  0  0  0  0  0  0  0  0  0
    9.5295  -14.2975   22.3012 O   0  0  0  0  0  0  0  0  0  0  0  0
    5.5246  -12.1849   26.5214 C   0  0  0  0  0  0  0  0  0  0  0  0
    7.2526  -12.2685   26.9977 S   0  0  0  0  0  0  0  0  0  0  0  0
    7.9027  -13.9321   26.9271 C   0  0  0  0  0  0  0  0  0  0  0  0
    7.9037  -14.5544   25.5846 C   0  0  0  0  0  0  0  0  0  0  0  0
    9.1837  -15.1729   25.1666 C   0  0  2  0  0  0  0  0  0  0  0  0
    8.9518  -15.8749   23.8620 N   0  0  0  0  0  0  0  0  0  0  0  0
    9.6904  -16.1803   26.0872 C   0  0  0  0  0  0  0  0  0  0  0  0
    9.6911  -17.4270   25.9072 O   0  0  0  0  0  0  0  0  0  0  0  0
   10.2485  -15.7535   27.3238 O   0  0  0  0  0  0  0  0  0  0  0  0
  2  1  1  0
  3  2  2  0
  4  2  1  0
  5  4  1  0
  6  5  1  0
  6  7  1  1
  8  9  2  0
  8  6  1  0
 10 11  1  0
 12 11  1  1
 12 13  1  0
 13  8  1  0
 14 12  1  0
 15 14  2  0
 17 16  1  0
 18 17  1  0
 19 18  1  0
 20 19  1  1
 20 22  1  0
 20 21  1  0
 21 14  1  0
 22 24  1  0
 23 22  2  0
M  END
$$$$
