QSM.pdb
     RDKit          3D

 24 23  0  0  1  0  0  0  0  0999 V2000
   10.7078  -19.7896   15.7287 N   0  0  0  0  0  0  0  0  0  0  0  0
    9.8645  -18.6205   15.7722 C   0  0  0  0  0  0  0  0  0  0  0  0
   10.1422  -17.7400   14.9427 O   0  0  0  0  0  0  0  0  0  0  0  0
    8.7737  -18.5205   16.7433 C   0  0  0  0  0  0  0  0  0  0  0  0
    8.7989  -17.2686   17.5544 C   0  0  0  0  0  0  0  0  0  0  0  0
    9.6787  -17.2742   18.7556 C   0  0  2  0  0  0  0  0  0  0  0  0
   10.4927  -18.4137   18.9675 N   0  0  0  0  0  0  0  0  0  0  0  0
    8.9124  -16.9890   20.0014 C   0  0  0  0  0  0  0  0  0  0  0  0
    8.2668  -15.8880   20.0334 O   0  0  0  0  0  0  0  0  0  0  0  0
    8.9415  -19.2234   23.6316 O   0  0  0  0  0  0  0  0  0  0  0  0
    7.7785  -18.6785   23.0993 C   0  0  0  0  0  0  0  0  0  0  0  0
    8.0831  -17.4516   22.2544 C   0  0  2  0  0  0  0  0  0  0  0  0
    8.8574  -17.8414   21.1240 N   0  0  0  0  0  0  0  0  0  0  0  0
    8.8082  -16.4971   23.1483 C   0  0  0  0  0  0  0  0  0  0  0  0
   10.0533  -16.3865   23.0298 O   0  0  0  0  0  0  0  0  0  0  0  0
    5.6233  -11.8017   26.7302 C   0  0  0  0  0  0  0  0  0  0  0  0
    7.3441  -11.2971   26.6666 S   0  0  0  0  0  0  0  0  0  0  0  0
    8.4456  -12.6619   26.3210 C   0  0  0  0  0  0  0  0  0  0  0  0
    7.9441  -13.6456   25.3359 C   0  0  0  0  0  0  0  0  0  0  0  0
    8.8849  -14.7345   24.9825 C   0  0  2  0  0  0  0  0  0  0  0  0
    8.1502  -15.7161   24.1193 N   0  0  0  0  0  0  0  0  0  0  0  0
    9.3836  -15.4884   26.1237 C   0  0  0  0  0  0  0  0  0  0  0  0
   10.3860  -15.2019   26.8306 O   0  0  0  0  0  0  0  0  0  0  0  0
    8.6969  -16.6724   26.5101 O   0  0  0  0  0  0  0  0  0  0  0  0
  2  1  1  0
  3  2  2  0
  4  2  1  0
  5  4  1  0
  6  5  1  0
  6  7  1  1
  8  9  2  0
  8  6  1  0
 10 11  1  0
 12 11  1  1
 12 13  1  0
 13  8  1  0
 14 12  1  0
 15 14  2  0
 17 16  1  0
 18 17  1  0
 19 18  1  0
 20 19  1  1
 20 22  1  0
 20 21  1  0
 21 14  1  0
 22 24  1  0
 23 22  2  0
M  END
$$$$
