WEY.pdb
     RDKit          3D

 36 38  0  0  1  0  0  0  0  0999 V2000
   26.4636  -18.5063  -19.3609 N   0  0  0  0  0  0  0  0  0  0  0  0
   26.7163  -18.6484  -17.9447 C   0  0  1  0  0  0  0  0  0  0  0  0
   26.8096  -17.2914  -17.2766 C   0  0  0  0  0  0  0  0  0  0  0  0
   27.9488  -16.5169  -17.8312 C   0  0  0  0  0  0  0  0  0  0  0  0
   27.9774  -15.2819  -18.4398 C   0  0  0  0  0  0  0  0  0  0  0  0
   29.2315  -14.9789  -18.7839 N   0  0  0  0  0  0  0  0  0  0  0  0
   30.0563  -15.9747  -18.4255 C   0  0  0  0  0  0  0  0  0  0  0  0
   31.4207  -16.1583  -18.5487 C   0  0  0  0  0  0  0  0  0  0  0  0
   31.9670  -17.3119  -18.0700 C   0  0  0  0  0  0  0  0  0  0  0  0
   31.1807  -18.2960  -17.4660 C   0  0  0  0  0  0  0  0  0  0  0  0
   29.8202  -18.1123  -17.3433 C   0  0  0  0  0  0  0  0  0  0  0  0
   29.2640  -16.9492  -17.8251 C   0  0  0  0  0  0  0  0  0  0  0  0
   25.5816  -19.4594  -17.3716 C   0  0  0  0  0  0  0  0  0  0  0  0
   24.4343  -19.2941  -17.8247 O   0  0  0  0  0  0  0  0  0  0  0  0
   25.8043  -20.3961  -16.3363 N   0  0  0  0  0  0  0  0  0  0  0  0
   24.8722  -21.2750  -15.7395 C   0  0  1  0  0  0  0  0  0  0  0  0
   25.4370  -22.5728  -15.1720 C   0  0  0  0  0  0  0  0  0  0  0  0
   26.0464  -23.4770  -16.1832 C   0  0  0  0  0  0  0  0  0  0  0  0
   27.4995  -23.1488  -16.3668 C   0  0  0  0  0  0  0  0  0  0  0  0
   28.1946  -23.8180  -17.1482 O   0  0  0  0  0  0  0  0  0  0  0  0
   23.9964  -20.6785  -14.7294 C   0  0  0  0  0  0  0  0  0  0  0  0
   24.5438  -19.8998  -13.8754 O   0  0  0  0  0  0  0  0  0  0  0  0
   28.0182  -22.0904  -15.6421 O   0  0  0  0  0  0  0  0  0  0  0  0
   19.7211  -18.1022  -19.4336 O   0  0  0  0  0  0  0  0  0  0  0  0
   20.1814  -18.2381  -18.1305 C   0  0  0  0  0  0  0  0  0  0  0  0
   21.5166  -18.0031  -17.8654 C   0  0  0  0  0  0  0  0  0  0  0  0
   22.0295  -18.1224  -16.5930 C   0  0  0  0  0  0  0  0  0  0  0  0
   21.1895  -18.4892  -15.5333 C   0  0  0  0  0  0  0  0  0  0  0  0
   21.7430  -18.6371  -14.1845 C   0  0  0  0  0  0  0  0  0  0  0  0
   21.7606  -20.0555  -13.7264 C   0  0  2  0  0  0  0  0  0  0  0  0
   22.6183  -20.8751  -14.6043 N   0  0  0  0  0  0  0  0  0  0  0  0
   20.4159  -20.6338  -13.7770 C   0  0  0  0  0  0  0  0  0  0  0  0
   19.4421  -20.2133  -12.8976 O   0  0  0  0  0  0  0  0  0  0  0  0
   19.8430  -18.7233  -15.8166 C   0  0  0  0  0  0  0  0  0  0  0  0
   19.3541  -18.5975  -17.0986 C   0  0  0  0  0  0  0  0  0  0  0  0
   20.1361  -21.5163  -14.6157 O   0  0  0  0  0  0  0  0  0  0  0  0
  2  1  1  6
  3  2  1  0
  4  3  1  0
  4 12  1  0
  5  6  1  0
  5  4  2  0
  6  7  1  0
  7  8  2  0
  7 12  1  0
  8  9  1  0
  9 10  2  0
 11 10  1  0
 12 11  2  0
 13  2  1  0
 14 13  2  0
 15 13  1  0
 16 15  1  0
 16 17  1  1
 18 17  1  0
 19 23  1  0
 19 18  1  0
 20 19  2  0
 21 16  1  0
 21 31  1  0
 22 21  2  0
 24 25  1  0
 25 26  2  0
 26 27  1  0
 28 29  1  0
 28 27  2  0
 30 29  1  6
 30 31  1  0
 30 32  1  0
 32 36  2  0
 32 33  1  0
 34 28  1  0
 35 34  2  0
 35 25  1  0
M  END
$$$$
