WEY.pdb
     RDKit          3D

 36 38  0  0  1  0  0  0  0  0999 V2000
   20.6412  -23.2617  -20.5392 N   0  0  0  0  0  0  0  0  0  0  0  0
   19.9679  -22.1048  -19.9936 C   0  0  1  0  0  0  0  0  0  0  0  0
   18.5719  -22.4658  -19.5271 C   0  0  0  0  0  0  0  0  0  0  0  0
   17.6893  -22.7355  -20.6905 C   0  0  0  0  0  0  0  0  0  0  0  0
   17.4582  -23.9020  -21.3849 C   0  0  0  0  0  0  0  0  0  0  0  0
   16.5823  -23.6749  -22.3669 N   0  0  0  0  0  0  0  0  0  0  0  0
   16.2118  -22.3853  -22.3587 C   0  0  0  0  0  0  0  0  0  0  0  0
   15.3472  -21.6485  -23.1462 C   0  0  0  0  0  0  0  0  0  0  0  0
   15.1869  -20.3231  -22.8707 C   0  0  0  0  0  0  0  0  0  0  0  0
   15.8728  -19.7078  -21.8206 C   0  0  0  0  0  0  0  0  0  0  0  0
   16.7348  -20.4431  -21.0356 C   0  0  0  0  0  0  0  0  0  0  0  0
   16.8999  -21.7817  -21.3098 C   0  0  0  0  0  0  0  0  0  0  0  0
   20.8101  -21.6012  -18.8487 C   0  0  0  0  0  0  0  0  0  0  0  0
   21.1591  -22.4004  -17.9607 O   0  0  0  0  0  0  0  0  0  0  0  0
   21.2042  -20.2455  -18.7739 N   0  0  0  0  0  0  0  0  0  0  0  0
   21.9478  -19.6080  -17.7550 C   0  0  1  0  0  0  0  0  0  0  0  0
   22.4384  -18.1969  -18.0607 C   0  0  0  0  0  0  0  0  0  0  0  0
   21.3941  -17.1431  -17.9597 C   0  0  0  0  0  0  0  0  0  0  0  0
   21.9708  -15.8029  -18.3124 C   0  0  0  0  0  0  0  0  0  0  0  0
   22.4464  -15.6083  -19.4426 O   0  0  0  0  0  0  0  0  0  0  0  0
   21.3263  -19.5976  -16.4295 C   0  0  0  0  0  0  0  0  0  0  0  0
   20.0515  -19.5041  -16.3884 O   0  0  0  0  0  0  0  0  0  0  0  0
   21.9493  -14.8161  -17.3427 O   0  0  0  0  0  0  0  0  0  0  0  0
   19.7571  -19.8890   -7.7094 O   0  0  0  0  0  0  0  0  0  0  0  0
   20.3726  -19.8554   -8.9538 C   0  0  0  0  0  0  0  0  0  0  0  0
   20.3597  -20.9935   -9.7366 C   0  0  0  0  0  0  0  0  0  0  0  0
   20.9536  -21.0193  -10.9788 C   0  0  0  0  0  0  0  0  0  0  0  0
   21.5887  -19.8722  -11.4728 C   0  0  0  0  0  0  0  0  0  0  0  0
   22.2391  -19.9096  -12.7855 C   0  0  0  0  0  0  0  0  0  0  0  0
   21.2898  -19.6359  -13.9017 C   0  0  2  0  0  0  0  0  0  0  0  0
   21.9880  -19.6801  -15.2012 N   0  0  0  0  0  0  0  0  0  0  0  0
   20.7076  -18.2982  -13.7714 C   0  0  0  0  0  0  0  0  0  0  0  0
   19.5008  -18.1220  -13.1303 O   0  0  0  0  0  0  0  0  0  0  0  0
   21.5935  -18.7301  -10.6705 C   0  0  0  0  0  0  0  0  0  0  0  0
   20.9922  -18.7299   -9.4307 C   0  0  0  0  0  0  0  0  0  0  0  0
   21.2963  -17.3017  -14.2414 O   0  0  0  0  0  0  0  0  0  0  0  0
  2  1  1  1
  3  2  1  0
  4  3  1  0
  4 12  1  0
  5  6  1  0
  5  4  2  0
  6  7  1  0
  7  8  2  0
  7 12  1  0
  8  9  1  0
  9 10  2  0
 11 10  1  0
 12 11  2  0
 13  2  1  0
 14 13  2  0
 15 13  1  0
 16 15  1  0
 16 17  1  6
 18 17  1  0
 19 23  1  0
 19 18  1  0
 20 19  2  0
 21 16  1  0
 21 31  1  0
 22 21  2  0
 24 25  1  0
 25 26  2  0
 26 27  1  0
 28 29  1  0
 28 27  2  0
 30 29  1  1
 30 31  1  0
 30 32  1  0
 32 36  2  0
 32 33  1  0
 34 28  1  0
 35 34  2  0
 35 25  1  0
M  END
$$$$
