WEY.pdb
     RDKit          3D

 36 38  0  0  1  0  0  0  0  0999 V2000
   26.6045  -22.2718  -14.2450 N   0  0  0  0  0  0  0  0  0  0  0  0
   25.6982  -21.5745  -13.3608 C   0  0  1  0  0  0  0  0  0  0  0  0
   26.2669  -20.2278  -12.9613 C   0  0  0  0  0  0  0  0  0  0  0  0
   27.4094  -20.4026  -12.0289 C   0  0  0  0  0  0  0  0  0  0  0  0
   28.7630  -20.4618  -12.2758 C   0  0  0  0  0  0  0  0  0  0  0  0
   29.4226  -20.6317  -11.1273 N   0  0  0  0  0  0  0  0  0  0  0  0
   28.5539  -20.6895  -10.1063 C   0  0  0  0  0  0  0  0  0  0  0  0
   28.7122  -20.8513   -8.7427 C   0  0  0  0  0  0  0  0  0  0  0  0
   27.5985  -20.8677   -7.9567 C   0  0  0  0  0  0  0  0  0  0  0  0
   26.3195  -20.7256   -8.5002 C   0  0  0  0  0  0  0  0  0  0  0  0
   26.1623  -20.5643   -9.8601 C   0  0  0  0  0  0  0  0  0  0  0  0
   27.2837  -20.5470  -10.6578 C   0  0  0  0  0  0  0  0  0  0  0  0
   24.3933  -21.4157  -14.0994 C   0  0  0  0  0  0  0  0  0  0  0  0
   24.4117  -20.9976  -15.2716 O   0  0  0  0  0  0  0  0  0  0  0  0
   23.1618  -21.7338  -13.4819 N   0  0  0  0  0  0  0  0  0  0  0  0
   21.8678  -21.7042  -14.0496 C   0  0  1  0  0  0  0  0  0  0  0  0
   21.4130  -22.9760  -14.7575 C   0  0  0  0  0  0  0  0  0  0  0  0
   20.1416  -22.8407  -15.5170 C   0  0  0  0  0  0  0  0  0  0  0  0
   19.1572  -23.8839  -15.0749 C   0  0  0  0  0  0  0  0  0  0  0  0
   19.5010  -24.7601  -14.2651 O   0  0  0  0  0  0  0  0  0  0  0  0
   20.7934  -21.2713  -13.1545 C   0  0  0  0  0  0  0  0  0  0  0  0
   19.7742  -22.0380  -13.0599 O   0  0  0  0  0  0  0  0  0  0  0  0
   17.8779  -23.8267  -15.5988 O   0  0  0  0  0  0  0  0  0  0  0  0
   19.1686  -13.6291  -16.4452 O   0  0  0  0  0  0  0  0  0  0  0  0
   19.6733  -14.7536  -15.8054 C   0  0  0  0  0  0  0  0  0  0  0  0
   19.8182  -15.9235  -16.5254 C   0  0  0  0  0  0  0  0  0  0  0  0
   20.3133  -17.0695  -15.9441 C   0  0  0  0  0  0  0  0  0  0  0  0
   20.6827  -17.0632  -14.5925 C   0  0  0  0  0  0  0  0  0  0  0  0
   21.1881  -18.2905  -13.9712 C   0  0  0  0  0  0  0  0  0  0  0  0
   20.2811  -18.8077  -12.9073 C   0  0  2  0  0  0  0  0  0  0  0  0
   20.7695  -20.1010  -12.3907 N   0  0  0  0  0  0  0  0  0  0  0  0
   18.9357  -19.0373  -13.4389 C   0  0  0  0  0  0  0  0  0  0  0  0
   18.7159  -20.0186  -14.3809 O   0  0  0  0  0  0  0  0  0  0  0  0
   20.5305  -15.8738  -13.8781 C   0  0  0  0  0  0  0  0  0  0  0  0
   20.0325  -14.7403  -14.4828 C   0  0  0  0  0  0  0  0  0  0  0  0
   17.9722  -18.3455  -13.0471 O   0  0  0  0  0  0  0  0  0  0  0  0
  2  1  1  6
  3  2  1  0
  4  3  1  0
  4 12  1  0
  5  6  1  0
  5  4  2  0
  6  7  1  0
  7  8  2  0
  7 12  1  0
  8  9  1  0
  9 10  2  0
 11 10  1  0
 12 11  2  0
 13  2  1  0
 14 13  2  0
 15 13  1  0
 16 15  1  0
 16 17  1  1
 18 17  1  0
 19 23  1  0
 19 18  1  0
 20 19  2  0
 21 16  1  0
 21 31  1  0
 22 21  2  0
 24 25  1  0
 25 26  2  0
 26 27  1  0
 28 29  1  0
 28 27  2  0
 30 29  1  6
 30 31  1  0
 30 32  1  0
 32 36  2  0
 32 33  1  0
 34 28  1  0
 35 34  2  0
 35 25  1  0
M  END
$$$$
