WEY.pdb
     RDKit          3D

 36 38  0  0  1  0  0  0  0  0999 V2000
   15.6595  -16.5074    6.5080 N   0  0  0  0  0  0  0  0  0  0  0  0
   17.0264  -16.9767    6.4797 C   0  0  1  0  0  0  0  0  0  0  0  0
   17.9954  -15.8124    6.5236 C   0  0  0  0  0  0  0  0  0  0  0  0
   17.9367  -15.0400    5.2567 C   0  0  0  0  0  0  0  0  0  0  0  0
   17.3088  -15.3253    4.0647 C   0  0  0  0  0  0  0  0  0  0  0  0
   17.5288  -14.3383    3.1928 N   0  0  0  0  0  0  0  0  0  0  0  0
   18.2895  -13.3895    3.7600 C   0  0  0  0  0  0  0  0  0  0  0  0
   18.7936  -12.1870    3.3012 C   0  0  0  0  0  0  0  0  0  0  0  0
   19.5522  -11.4349    4.1481 C   0  0  0  0  0  0  0  0  0  0  0  0
   19.8237  -11.8549    5.4525 C   0  0  0  0  0  0  0  0  0  0  0  0
   19.3207  -13.0541    5.9095 C   0  0  0  0  0  0  0  0  0  0  0  0
   18.5541  -13.8169    5.0581 C   0  0  0  0  0  0  0  0  0  0  0  0
   17.2090  -17.8809    7.6724 C   0  0  0  0  0  0  0  0  0  0  0  0
   16.8620  -17.4732    8.7960 O   0  0  0  0  0  0  0  0  0  0  0  0
   17.7637  -19.1736    7.5300 N   0  0  0  0  0  0  0  0  0  0  0  0
   18.5240  -19.9052    8.4704 C   0  0  1  0  0  0  0  0  0  0  0  0
   18.8258  -21.3561    8.1110 C   0  0  0  0  0  0  0  0  0  0  0  0
   17.6262  -22.1805    7.8060 C   0  0  0  0  0  0  0  0  0  0  0  0
   18.0383  -23.5365    7.3116 C   0  0  0  0  0  0  0  0  0  0  0  0
   17.8923  -24.5338    8.0366 O   0  0  0  0  0  0  0  0  0  0  0  0
   19.7715  -19.2740    8.9046 C   0  0  0  0  0  0  0  0  0  0  0  0
   20.2783  -18.3960    8.1249 O   0  0  0  0  0  0  0  0  0  0  0  0
   18.5764  -23.6232    6.0398 O   0  0  0  0  0  0  0  0  0  0  0  0
   25.7887  -14.2836   12.3406 O   0  0  0  0  0  0  0  0  0  0  0  0
   24.6870  -15.0168   11.9199 C   0  0  0  0  0  0  0  0  0  0  0  0
   24.8245  -15.8711   10.8432 C   0  0  0  0  0  0  0  0  0  0  0  0
   23.7672  -16.6231   10.3817 C   0  0  0  0  0  0  0  0  0  0  0  0
   22.5179  -16.5301   11.0092 C   0  0  0  0  0  0  0  0  0  0  0  0
   21.3891  -17.3148   10.5016 C   0  0  0  0  0  0  0  0  0  0  0  0
   21.6631  -18.7801   10.5079 C   0  0  2  0  0  0  0  0  0  0  0  0
   20.4662  -19.5350   10.0890 N   0  0  0  0  0  0  0  0  0  0  0  0
   22.0101  -19.2372   11.8555 C   0  0  0  0  0  0  0  0  0  0  0  0
   21.1928  -20.1227   12.5238 O   0  0  0  0  0  0  0  0  0  0  0  0
   22.3944  -15.6627   12.0957 C   0  0  0  0  0  0  0  0  0  0  0  0
   23.4677  -14.9206   12.5383 C   0  0  0  0  0  0  0  0  0  0  0  0
   23.0490  -18.8287   12.4161 O   0  0  0  0  0  0  0  0  0  0  0  0
  2  1  1  1
  3  2  1  0
  4  3  1  0
  4 12  1  0
  5  6  1  0
  5  4  2  0
  6  7  1  0
  7  8  2  0
  7 12  1  0
  8  9  1  0
  9 10  2  0
 11 10  1  0
 12 11  2  0
 13  2  1  0
 14 13  2  0
 15 13  1  0
 16 15  1  0
 16 17  1  6
 18 17  1  0
 19 23  1  0
 19 18  1  0
 20 19  2  0
 21 16  1  0
 21 31  1  0
 22 21  2  0
 24 25  1  0
 25 26  2  0
 26 27  1  0
 28 29  1  0
 28 27  2  0
 30 29  1  1
 30 31  1  0
 30 32  1  0
 32 36  2  0
 32 33  1  0
 34 28  1  0
 35 34  2  0
 35 25  1  0
M  END
$$$$
