WEY.pdb
     RDKit          3D

 36 38  0  0  1  0  0  0  0  0999 V2000
   21.0816  -11.9824  -19.3568 N   0  0  0  0  0  0  0  0  0  0  0  0
   19.9414  -11.2192  -18.9018 C   0  0  1  0  0  0  0  0  0  0  0  0
   19.3488  -11.8332  -17.6494 C   0  0  0  0  0  0  0  0  0  0  0  0
   18.8518  -13.2044  -17.9286 C   0  0  0  0  0  0  0  0  0  0  0  0
   19.4175  -14.4313  -17.6618 C   0  0  0  0  0  0  0  0  0  0  0  0
   18.6101  -15.4026  -18.0948 N   0  0  0  0  0  0  0  0  0  0  0  0
   17.5106  -14.8691  -18.6488 C   0  0  0  0  0  0  0  0  0  0  0  0
   16.3880  -15.4224  -19.2356 C   0  0  0  0  0  0  0  0  0  0  0  0
   15.4250  -14.5845  -19.7140 C   0  0  0  0  0  0  0  0  0  0  0  0
   15.5536  -13.1965  -19.6216 C   0  0  0  0  0  0  0  0  0  0  0  0
   16.6732  -12.6454  -19.0364 C   0  0  0  0  0  0  0  0  0  0  0  0
   17.6483  -13.4873  -18.5517 C   0  0  0  0  0  0  0  0  0  0  0  0
   20.4239   -9.8144  -18.6423 C   0  0  0  0  0  0  0  0  0  0  0  0
   21.4928   -9.6488  -18.0266 O   0  0  0  0  0  0  0  0  0  0  0  0
   19.6834   -8.6948  -19.0864 N   0  0  0  0  0  0  0  0  0  0  0  0
   20.0006   -7.3253  -18.9404 C   0  0  1  0  0  0  0  0  0  0  0  0
   19.3304   -6.3696  -19.9217 C   0  0  0  0  0  0  0  0  0  0  0  0
   19.7613   -6.5318  -21.3358 C   0  0  0  0  0  0  0  0  0  0  0  0
   21.1852   -6.0864  -21.5006 C   0  0  0  0  0  0  0  0  0  0  0  0
   21.5453   -4.9804  -21.0664 O   0  0  0  0  0  0  0  0  0  0  0  0
   19.8423   -6.7790  -17.5915 C   0  0  0  0  0  0  0  0  0  0  0  0
   18.6989   -6.9256  -17.0378 O   0  0  0  0  0  0  0  0  0  0  0  0
   22.0591   -6.9448  -22.1441 O   0  0  0  0  0  0  0  0  0  0  0  0
   23.8158  -10.9189  -14.3290 O   0  0  0  0  0  0  0  0  0  0  0  0
   22.9470   -9.8375  -14.3953 C   0  0  0  0  0  0  0  0  0  0  0  0
   21.6646   -9.9793  -13.9019 C   0  0  0  0  0  0  0  0  0  0  0  0
   20.7599   -8.9420  -13.9407 C   0  0  0  0  0  0  0  0  0  0  0  0
   21.1349   -7.7087  -14.4900 C   0  0  0  0  0  0  0  0  0  0  0  0
   20.1627   -6.6139  -14.5503 C   0  0  0  0  0  0  0  0  0  0  0  0
   20.5654   -5.5440  -15.5070 C   0  0  2  0  0  0  0  0  0  0  0  0
   20.8180   -6.1115  -16.8458 N   0  0  0  0  0  0  0  0  0  0  0  0
   21.8065   -4.8993  -15.0720 C   0  0  0  0  0  0  0  0  0  0  0  0
   22.9416   -4.9749  -15.8494 O   0  0  0  0  0  0  0  0  0  0  0  0
   22.4338   -7.5807  -14.9846 C   0  0  0  0  0  0  0  0  0  0  0  0
   23.3206   -8.6341  -14.9343 C   0  0  0  0  0  0  0  0  0  0  0  0
   21.8520   -4.2754  -13.9907 O   0  0  0  0  0  0  0  0  0  0  0  0
  2  1  1  1
  3  2  1  0
  4  3  1  0
  4 12  1  0
  5  6  1  0
  5  4  2  0
  6  7  1  0
  7  8  2  0
  7 12  1  0
  8  9  1  0
  9 10  2  0
 11 10  1  0
 12 11  2  0
 13  2  1  0
 14 13  2  0
 15 13  1  0
 16 15  1  0
 16 17  1  6
 18 17  1  0
 19 23  1  0
 19 18  1  0
 20 19  2  0
 21 16  1  0
 21 31  1  0
 22 21  2  0
 24 25  1  0
 25 26  2  0
 26 27  1  0
 28 29  1  0
 28 27  2  0
 30 29  1  1
 30 31  1  0
 30 32  1  0
 32 36  2  0
 32 33  1  0
 34 28  1  0
 35 34  2  0
 35 25  1  0
M  END
$$$$
