RKD.pdb
     RDKit          3D

 29 28  0  0  1  0  0  0  0  0999 V2000
   18.3603  -25.2884   -9.5765 N   0  0  0  0  0  0  0  0  0  0  0  0
   17.6099  -24.1339   -9.2686 C   0  0  0  0  0  0  0  0  0  0  0  0
   16.8319  -24.0988   -8.2320 N   0  0  0  0  0  0  0  0  0  0  0  0
   17.6907  -22.9851  -10.0912 N   0  0  0  0  0  0  0  0  0  0  0  0
   18.6553  -23.0303  -11.2035 C   0  0  0  0  0  0  0  0  0  0  0  0
   19.9888  -22.6374  -10.6465 C   0  0  0  0  0  0  0  0  0  0  0  0
   20.6303  -21.4363  -11.2491 C   0  0  0  0  0  0  0  0  0  0  0  0
   22.0400  -21.2759  -10.8318 C   0  0  2  0  0  0  0  0  0  0  0  0
   22.1732  -20.6596   -9.5610 N   0  0  0  0  0  0  0  0  0  0  0  0
   22.8747  -20.5981  -11.8822 C   0  0  0  0  0  0  0  0  0  0  0  0
   23.0100  -19.3540  -11.7642 O   0  0  0  0  0  0  0  0  0  0  0  0
   16.2426  -23.2671   -8.0145 N   0  0  0  0  0  0  0  0  0  0  0  0
   23.4840  -21.2971  -12.9524 C   0  0  2  0  0  0  0  0  0  0  0  0
   24.3614  -20.5930  -13.9301 C   0  0  0  0  0  0  0  0  0  0  0  0
   25.5292  -21.5061  -14.2256 C   0  0  0  0  0  0  0  0  0  0  0  0
   26.4637  -21.0643  -15.2862 C   0  0  0  0  0  0  0  0  0  0  0  0
   27.6409  -21.9845  -15.4769 C   0  0  0  0  0  0  0  0  0  0  0  0
   28.5446  -21.3484  -16.5100 N   0  0  0  0  0  0  0  0  0  0  0  0
   27.8873  -21.2321  -17.7875 C   0  0  0  0  0  0  0  0  0  0  0  0
   23.5622  -20.2026  -15.0915 O   0  0  0  0  0  0  0  0  0  0  0  0
   22.7483  -21.0834  -15.5463 N   0  0  0  0  0  0  0  0  0  0  0  0
   23.5625  -18.9803  -15.7786 C   0  0  1  0  0  0  0  0  0  0  0  0
   22.6842  -18.7766  -16.9317 C   0  0  0  0  0  0  0  0  0  0  0  0
   22.0792  -17.3964  -16.8792 C   0  0  0  0  0  0  0  0  0  0  0  0
   21.0921  -17.3161  -15.7922 O   0  0  0  0  0  0  0  0  0  0  0  0
   20.7221  -18.2596  -15.0522 C   0  0  0  0  0  0  0  0  0  0  0  0
   23.4617  -19.0091  -18.1629 O   0  0  0  0  0  0  0  0  0  0  0  0
   22.7427  -19.3959  -19.3152 O   0  0  0  0  0  0  0  0  0  0  0  0
   20.4503  -16.0863  -15.4882 O   0  0  0  0  0  0  0  0  0  0  0  0
  2  1  1  0
  2  3  2  0
  4  2  1  0
  5  4  1  0
  6  5  1  0
  7  6  1  0
  8  9  1  1
  8  7  1  0
 10  8  1  0
 10 11  2  0
 12 10  1  0
 13 12  1  0
 13 19  1  0
 13 14  1  1
 15 14  1  0
 16 15  1  0
 17 16  1  0
 18 17  1  0
 19 21  1  0
 19 20  2  0
 21 22  1  0
 22 23  1  6
 24 23  1  0
 24 28  1  0
 25 24  2  0
 26 27  1  0
 26 22  1  0
 29 26  2  0
M  END
$$$$
