RKD.pdb
     RDKit          3D

 29 28  0  0  1  0  0  0  0  0999 V2000
   24.8846  -21.0865   -8.2053 N   0  0  0  0  0  0  0  0  0  0  0  0
   23.4827  -20.9945   -8.3367 C   0  0  0  0  0  0  0  0  0  0  0  0
   22.6921  -21.5924   -7.5009 N   0  0  0  0  0  0  0  0  0  0  0  0
   22.9085  -20.2449   -9.3909 N   0  0  0  0  0  0  0  0  0  0  0  0
   23.3838  -20.5413  -10.7532 C   0  0  0  0  0  0  0  0  0  0  0  0
   24.7989  -20.0589  -10.8411 C   0  0  0  0  0  0  0  0  0  0  0  0
   25.4439  -20.1392  -12.1807 C   0  0  0  0  0  0  0  0  0  0  0  0
   25.1213  -21.3951  -12.8920 C   0  0  2  0  0  0  0  0  0  0  0  0
   25.8989  -22.4959  -12.4495 N   0  0  0  0  0  0  0  0  0  0  0  0
   25.1626  -21.2342  -14.3858 C   0  0  0  0  0  0  0  0  0  0  0  0
   24.6864  -20.1635  -14.8408 O   0  0  0  0  0  0  0  0  0  0  0  0
   21.6567  -21.4839   -7.5495 N   0  0  0  0  0  0  0  0  0  0  0  0
   25.7009  -22.2162  -15.2525 C   0  0  2  0  0  0  0  0  0  0  0  0
   25.6992  -22.0216  -16.7302 C   0  0  0  0  0  0  0  0  0  0  0  0
   26.5998  -23.0802  -17.3245 C   0  0  0  0  0  0  0  0  0  0  0  0
   28.0498  -22.9435  -17.0555 C   0  0  0  0  0  0  0  0  0  0  0  0
   28.8784  -24.0668  -17.6217 C   0  0  0  0  0  0  0  0  0  0  0  0
   30.3293  -23.7337  -17.3521 N   0  0  0  0  0  0  0  0  0  0  0  0
   31.2060  -24.7844  -17.8052 C   0  0  0  0  0  0  0  0  0  0  0  0
   24.3173  -22.0339  -17.2101 O   0  0  0  0  0  0  0  0  0  0  0  0
   23.4415  -22.5299  -16.4151 N   0  0  0  0  0  0  0  0  0  0  0  0
   23.8153  -21.5667  -18.4331 C   0  0  1  0  0  0  0  0  0  0  0  0
   22.4286  -21.1106  -18.5409 C   0  0  0  0  0  0  0  0  0  0  0  0
   22.1115  -20.1596  -17.4145 C   0  0  0  0  0  0  0  0  0  0  0  0
   20.7337  -19.6623  -17.5430 O   0  0  0  0  0  0  0  0  0  0  0  0
   19.7902  -20.2318  -18.1430 C   0  0  0  0  0  0  0  0  0  0  0  0
   22.2350  -20.5013  -19.8696 O   0  0  0  0  0  0  0  0  0  0  0  0
   20.9518  -20.6131  -20.4486 O   0  0  0  0  0  0  0  0  0  0  0  0
   20.3548  -18.4243  -16.9592 O   0  0  0  0  0  0  0  0  0  0  0  0
  2  1  1  0
  2  3  2  0
  4  2  1  0
  5  4  1  0
  6  5  1  0
  7  6  1  0
  8  9  1  6
  8  7  1  0
 10  8  1  0
 10 11  2  0
 12 10  1  0
 13 12  1  0
 13 19  1  0
 13 14  1  1
 15 14  1  0
 16 15  1  0
 17 16  1  0
 18 17  1  0
 19 21  1  0
 19 20  2  0
 21 22  1  0
 22 23  1  6
 24 23  1  0
 24 28  1  0
 25 24  2  0
 26 27  1  0
 26 22  1  0
 29 26  2  0
M  END
$$$$
