RKD.pdb
     RDKit          3D

 29 28  0  0  1  0  0  0  0  0999 V2000
   31.1385  -25.5078  -15.8635 N   0  0  0  0  0  0  0  0  0  0  0  0
   30.3789  -25.6019  -17.0488 C   0  0  0  0  0  0  0  0  0  0  0  0
   30.7438  -26.3838  -18.0165 N   0  0  0  0  0  0  0  0  0  0  0  0
   29.1976  -24.8385  -17.2065 N   0  0  0  0  0  0  0  0  0  0  0  0
   28.5292  -24.3856  -15.9745 C   0  0  0  0  0  0  0  0  0  0  0  0
   28.4947  -22.8890  -16.0165 C   0  0  0  0  0  0  0  0  0  0  0  0
   27.1730  -22.2647  -16.3000 C   0  0  0  0  0  0  0  0  0  0  0  0
   26.1786  -22.5337  -15.2388 C   0  0  2  0  0  0  0  0  0  0  0  0
   26.6624  -23.4168  -14.2396 N   0  0  0  0  0  0  0  0  0  0  0  0
   24.8535  -22.9753  -15.7941 C   0  0  0  0  0  0  0  0  0  0  0  0
   24.4088  -22.3081  -16.7622 O   0  0  0  0  0  0  0  0  0  0  0  0
   30.1789  -26.4821  -18.8869 N   0  0  0  0  0  0  0  0  0  0  0  0
   24.1281  -24.0753  -15.2754 C   0  0  1  0  0  0  0  0  0  0  0  0
   22.8264  -24.4882  -15.8725 C   0  0  0  0  0  0  0  0  0  0  0  0
   22.7517  -25.9957  -15.7904 C   0  0  0  0  0  0  0  0  0  0  0  0
   23.4560  -26.7526  -16.8508 C   0  0  0  0  0  0  0  0  0  0  0  0
   23.3706  -28.2473  -16.6853 C   0  0  0  0  0  0  0  0  0  0  0  0
   24.2236  -28.8681  -17.7696 N   0  0  0  0  0  0  0  0  0  0  0  0
   24.1771  -30.3079  -17.7196 C   0  0  0  0  0  0  0  0  0  0  0  0
   21.7447  -23.7701  -15.1985 O   0  0  0  0  0  0  0  0  0  0  0  0
   22.0505  -22.6414  -14.6717 N   0  0  0  0  0  0  0  0  0  0  0  0
   20.4031  -24.1514  -15.0537 C   0  0  1  0  0  0  0  0  0  0  0  0
   19.4500  -23.2708  -14.3763 C   0  0  0  0  0  0  0  0  0  0  0  0
   19.4467  -21.9141  -15.0345 C   0  0  0  0  0  0  0  0  0  0  0  0
   18.4345  -21.0496  -14.4096 O   0  0  0  0  0  0  0  0  0  0  0  0
   17.7691  -21.3091  -13.3779 C   0  0  0  0  0  0  0  0  0  0  0  0
   18.1226  -23.9126  -14.3920 O   0  0  0  0  0  0  0  0  0  0  0  0
   17.4040  -23.9358  -13.1764 O   0  0  0  0  0  0  0  0  0  0  0  0
   18.1225  -19.7818  -14.9684 O   0  0  0  0  0  0  0  0  0  0  0  0
  2  1  1  0
  2  3  2  0
  4  2  1  0
  5  4  1  0
  6  5  1  0
  7  6  1  0
  8  9  1  1
  8  7  1  0
 10  8  1  0
 10 11  2  0
 12 10  1  0
 13 12  1  0
 13 19  1  0
 13 14  1  6
 15 14  1  0
 16 15  1  0
 17 16  1  0
 18 17  1  0
 19 21  1  0
 19 20  2  0
 21 22  1  0
 22 23  1  1
 24 23  1  0
 24 28  1  0
 25 24  2  0
 26 27  1  0
 26 22  1  0
 29 26  2  0
M  END
$$$$
