RKD.pdb
     RDKit          3D

 29 28  0  0  1  0  0  0  0  0999 V2000
   26.6875  -25.0342  -16.2598 N   0  0  0  0  0  0  0  0  0  0  0  0
   26.7634  -24.7084  -17.6305 C   0  0  0  0  0  0  0  0  0  0  0  0
   26.2015  -25.4568  -18.5278 N   0  0  0  0  0  0  0  0  0  0  0  0
   27.4602  -23.5522  -18.0557 N   0  0  0  0  0  0  0  0  0  0  0  0
   27.9798  -22.6639  -17.0019 C   0  0  0  0  0  0  0  0  0  0  0  0
   27.2356  -21.3688  -17.1107 C   0  0  0  0  0  0  0  0  0  0  0  0
   26.3224  -21.0331  -15.9834 C   0  0  0  0  0  0  0  0  0  0  0  0
   26.9019  -21.3673  -14.6644 C   0  0  2  0  0  0  0  0  0  0  0  0
   27.8973  -22.3753  -14.7378 N   0  0  0  0  0  0  0  0  0  0  0  0
   25.8487  -21.6823  -13.6393 C   0  0  0  0  0  0  0  0  0  0  0  0
   25.2050  -22.7475  -13.8161 O   0  0  0  0  0  0  0  0  0  0  0  0
   26.2248  -25.2126  -19.5408 N   0  0  0  0  0  0  0  0  0  0  0  0
   25.5775  -20.8449  -12.5300 C   0  0  1  0  0  0  0  0  0  0  0  0
   24.4106  -21.1025  -11.6394 C   0  0  0  0  0  0  0  0  0  0  0  0
   24.6313  -20.3137  -10.3690 C   0  0  0  0  0  0  0  0  0  0  0  0
   25.8070  -20.6907   -9.5510 C   0  0  0  0  0  0  0  0  0  0  0  0
   25.9345  -19.9003   -8.2751 C   0  0  0  0  0  0  0  0  0  0  0  0
   27.2136  -20.3429   -7.5993 N   0  0  0  0  0  0  0  0  0  0  0  0
   27.4614  -19.5928   -6.3936 C   0  0  0  0  0  0  0  0  0  0  0  0
   23.1797  -20.7890  -12.3652 O   0  0  0  0  0  0  0  0  0  0  0  0
   23.1969  -19.7283  -13.0862 N   0  0  0  0  0  0  0  0  0  0  0  0
   21.9726  -21.5022  -12.3830 C   0  0  1  0  0  0  0  0  0  0  0  0
   20.8306  -21.0098  -13.1549 C   0  0  0  0  0  0  0  0  0  0  0  0
   20.6540  -21.8431  -14.3992 C   0  0  0  0  0  0  0  0  0  0  0  0
   19.4219  -21.4527  -15.1006 O   0  0  0  0  0  0  0  0  0  0  0  0
   18.3306  -22.0721  -15.0879 C   0  0  0  0  0  0  0  0  0  0  0  0
   19.6368  -21.0217  -12.2896 O   0  0  0  0  0  0  0  0  0  0  0  0
   19.7790  -21.5886  -11.0039 O   0  0  0  0  0  0  0  0  0  0  0  0
   19.3826  -20.2729  -15.8902 O   0  0  0  0  0  0  0  0  0  0  0  0
  2  1  1  0
  2  3  2  0
  4  2  1  0
  5  4  1  0
  6  5  1  0
  7  6  1  0
  8  9  1  6
  8  7  1  0
 10  8  1  0
 10 11  2  0
 12 10  1  0
 13 12  1  0
 13 19  1  0
 13 14  1  1
 15 14  1  0
 16 15  1  0
 17 16  1  0
 18 17  1  0
 19 21  1  0
 19 20  2  0
 21 22  1  0
 22 23  1  1
 24 23  1  0
 24 28  1  0
 25 24  2  0
 26 27  1  0
 26 22  1  0
 29 26  2  0
M  END
$$$$
