RKD.pdb
     RDKit          3D

 29 28  0  0  1  0  0  0  0  0999 V2000
   25.6962  -21.2565   -9.1788 N   0  0  0  0  0  0  0  0  0  0  0  0
   24.4836  -21.1068   -9.8847 C   0  0  0  0  0  0  0  0  0  0  0  0
   23.4047  -20.7117   -9.2839 N   0  0  0  0  0  0  0  0  0  0  0  0
   24.4204  -21.3882  -11.2702 N   0  0  0  0  0  0  0  0  0  0  0  0
   25.6179  -21.9895  -11.8818 C   0  0  0  0  0  0  0  0  0  0  0  0
   26.6393  -20.9020  -12.0126 C   0  0  0  0  0  0  0  0  0  0  0  0
   26.4166  -19.9118  -13.1021 C   0  0  0  0  0  0  0  0  0  0  0  0
   26.0280  -20.5497  -14.3785 C   0  0  2  0  0  0  0  0  0  0  0  0
   27.1434  -20.9660  -15.1499 N   0  0  0  0  0  0  0  0  0  0  0  0
   25.0712  -19.7055  -15.1728 C   0  0  0  0  0  0  0  0  0  0  0  0
   25.0571  -18.4786  -14.8996 O   0  0  0  0  0  0  0  0  0  0  0  0
   22.4995  -20.6091   -9.7903 N   0  0  0  0  0  0  0  0  0  0  0  0
   24.2242  -20.2364  -16.1758 C   0  0  2  0  0  0  0  0  0  0  0  0
   23.3742  -19.3452  -17.0153 C   0  0  0  0  0  0  0  0  0  0  0  0
   23.3734  -19.9129  -18.4162 C   0  0  0  0  0  0  0  0  0  0  0  0
   22.4877  -19.2484  -19.3997 C   0  0  0  0  0  0  0  0  0  0  0  0
   22.4785  -19.9133  -20.7513 C   0  0  0  0  0  0  0  0  0  0  0  0
   21.6085  -19.0720  -21.6590 N   0  0  0  0  0  0  0  0  0  0  0  0
   21.5702  -19.6054  -22.9976 C   0  0  0  0  0  0  0  0  0  0  0  0
   22.0575  -19.2171  -16.3908 O   0  0  0  0  0  0  0  0  0  0  0  0
   21.6231  -20.2453  -15.7591 N   0  0  0  0  0  0  0  0  0  0  0  0
   21.1996  -18.1080  -16.3855 C   0  0  1  0  0  0  0  0  0  0  0  0
   19.9010  -18.1771  -15.7136 C   0  0  0  0  0  0  0  0  0  0  0  0
   19.3135  -16.7940  -15.5878 C   0  0  0  0  0  0  0  0  0  0  0  0
   18.0409  -16.8483  -14.8529 O   0  0  0  0  0  0  0  0  0  0  0  0
   17.5672  -17.8467  -14.2586 C   0  0  0  0  0  0  0  0  0  0  0  0
   19.0295  -19.0976  -16.4667 O   0  0  0  0  0  0  0  0  0  0  0  0
   18.3399  -20.0824  -15.7256 O   0  0  0  0  0  0  0  0  0  0  0  0
   17.2098  -15.7004  -14.7613 O   0  0  0  0  0  0  0  0  0  0  0  0
  2  1  1  0
  2  3  2  0
  4  2  1  0
  5  4  1  0
  6  5  1  0
  7  6  1  0
  8  9  1  6
  8  7  1  0
 10  8  1  0
 10 11  2  0
 12 10  1  0
 13 12  1  0
 13 19  1  0
 13 14  1  6
 15 14  1  0
 16 15  1  0
 17 16  1  0
 18 17  1  0
 19 21  1  0
 19 20  2  0
 21 22  1  0
 22 23  1  6
 24 23  1  0
 24 28  1  0
 25 24  2  0
 26 27  1  0
 26 22  1  0
 29 26  2  0
M  END
$$$$
