RKD.pdb
     RDKit          3D

 29 28  0  0  1  0  0  0  0  0999 V2000
   20.8127  -32.7004  -11.8623 N   0  0  0  0  0  0  0  0  0  0  0  0
   22.1911  -32.4036  -11.8112 C   0  0  0  0  0  0  0  0  0  0  0  0
   23.0814  -33.3268  -12.0017 N   0  0  0  0  0  0  0  0  0  0  0  0
   22.6319  -31.0848  -11.5477 N   0  0  0  0  0  0  0  0  0  0  0  0
   21.6178  -30.1268  -11.0748 C   0  0  0  0  0  0  0  0  0  0  0  0
   20.5979  -29.9917  -12.1631 C   0  0  0  0  0  0  0  0  0  0  0  0
   20.4351  -28.6343  -12.7533 C   0  0  0  0  0  0  0  0  0  0  0  0
   20.5932  -27.5572  -11.7523 C   0  0  2  0  0  0  0  0  0  0  0  0
   19.4699  -27.4305  -10.8952 N   0  0  0  0  0  0  0  0  0  0  0  0
   20.9814  -26.2466  -12.3777 C   0  0  0  0  0  0  0  0  0  0  0  0
   20.2456  -25.2642  -12.1063 O   0  0  0  0  0  0  0  0  0  0  0  0
   24.1026  -33.1227  -11.9610 N   0  0  0  0  0  0  0  0  0  0  0  0
   22.1053  -26.1003  -13.2265 C   0  0  2  0  0  0  0  0  0  0  0  0
   22.4424  -24.7824  -13.8356 C   0  0  0  0  0  0  0  0  0  0  0  0
   23.8788  -24.8556  -14.3003 C   0  0  0  0  0  0  0  0  0  0  0  0
   24.4102  -23.6636  -15.0006 C   0  0  0  0  0  0  0  0  0  0  0  0
   25.8257  -23.8295  -15.4879 C   0  0  0  0  0  0  0  0  0  0  0  0
   26.2082  -22.5499  -16.1987 N   0  0  0  0  0  0  0  0  0  0  0  0
   27.5143  -22.6495  -16.8003 C   0  0  0  0  0  0  0  0  0  0  0  0
   21.4622  -24.4751  -14.8772 O   0  0  0  0  0  0  0  0  0  0  0  0
   21.1375  -25.4396  -15.6578 N   0  0  0  0  0  0  0  0  0  0  0  0
   20.8193  -23.2563  -15.1367 C   0  0  1  0  0  0  0  0  0  0  0  0
   19.8109  -23.1590  -16.1932 C   0  0  0  0  0  0  0  0  0  0  0  0
   18.6609  -22.3015  -15.7284 C   0  0  0  0  0  0  0  0  0  0  0  0
   17.8761  -23.0142  -14.7094 O   0  0  0  0  0  0  0  0  0  0  0  0
   17.6540  -24.2486  -14.6703 C   0  0  0  0  0  0  0  0  0  0  0  0
   20.4543  -22.6337  -17.4115 O   0  0  0  0  0  0  0  0  0  0  0  0
   19.7560  -22.7934  -18.6287 O   0  0  0  0  0  0  0  0  0  0  0  0
   17.2785  -22.3073  -13.6324 O   0  0  0  0  0  0  0  0  0  0  0  0
  2  1  1  0
  2  3  2  0
  4  2  1  0
  5  4  1  0
  6  5  1  0
  7  6  1  0
  8  9  1  6
  8  7  1  0
 10  8  1  0
 10 11  2  0
 12 10  1  0
 13 12  1  0
 13 19  1  0
 13 14  1  1
 15 14  1  0
 16 15  1  0
 17 16  1  0
 18 17  1  0
 19 21  1  0
 19 20  2  0
 21 22  1  0
 22 23  1  6
 24 23  1  0
 24 28  1  0
 25 24  2  0
 26 27  1  0
 26 22  1  0
 29 26  2  0
M  END
$$$$
