RKD.pdb
     RDKit          3D

 29 28  0  0  1  0  0  0  0  0999 V2000
   31.6057  -22.1535  -13.3542 N   0  0  0  0  0  0  0  0  0  0  0  0
   32.0646  -21.4951  -12.1937 C   0  0  0  0  0  0  0  0  0  0  0  0
   33.1044  -21.9240  -11.5487 N   0  0  0  0  0  0  0  0  0  0  0  0
   31.3939  -20.3479  -11.7069 N   0  0  0  0  0  0  0  0  0  0  0  0
   30.2032  -19.9070  -12.4535 C   0  0  0  0  0  0  0  0  0  0  0  0
   29.2863  -21.0865  -12.5573 C   0  0  0  0  0  0  0  0  0  0  0  0
   28.0045  -20.8670  -13.2825 C   0  0  0  0  0  0  0  0  0  0  0  0
   27.1337  -22.0624  -13.2711 C   0  0  2  0  0  0  0  0  0  0  0  0
   27.3311  -22.9003  -14.3987 N   0  0  0  0  0  0  0  0  0  0  0  0
   25.6857  -21.7142  -13.0685 C   0  0  0  0  0  0  0  0  0  0  0  0
   24.9770  -21.6675  -14.1056 O   0  0  0  0  0  0  0  0  0  0  0  0
   33.3888  -21.5180  -10.6318 N   0  0  0  0  0  0  0  0  0  0  0  0
   25.1272  -21.4498  -11.7943 C   0  0  2  0  0  0  0  0  0  0  0  0
   23.6549  -21.3021  -11.6157 C   0  0  0  0  0  0  0  0  0  0  0  0
   23.3522  -21.5456  -10.1549 C   0  0  0  0  0  0  0  0  0  0  0  0
   21.9249  -21.5173   -9.7605 C   0  0  0  0  0  0  0  0  0  0  0  0
   21.6978  -21.7711   -8.2933 C   0  0  0  0  0  0  0  0  0  0  0  0
   20.2085  -21.9478   -8.0940 N   0  0  0  0  0  0  0  0  0  0  0  0
   19.8863  -22.1995   -6.7118 C   0  0  0  0  0  0  0  0  0  0  0  0
   23.2416  -19.9972  -12.1318 O   0  0  0  0  0  0  0  0  0  0  0  0
   24.1711  -19.1295  -12.3000 N   0  0  0  0  0  0  0  0  0  0  0  0
   21.9530  -19.5644  -12.4758 C   0  0  1  0  0  0  0  0  0  0  0  0
   21.7210  -18.8470  -13.7304 C   0  0  0  0  0  0  0  0  0  0  0  0
   22.0393  -19.7428  -14.9009 C   0  0  0  0  0  0  0  0  0  0  0  0
   21.7556  -19.0465  -16.1646 O   0  0  0  0  0  0  0  0  0  0  0  0
   21.2441  -17.9072  -16.2876 C   0  0  0  0  0  0  0  0  0  0  0  0
   20.3275  -18.3653  -13.7468 O   0  0  0  0  0  0  0  0  0  0  0  0
   20.0356  -17.2668  -14.5851 O   0  0  0  0  0  0  0  0  0  0  0  0
   22.0608  -19.6565  -17.4102 O   0  0  0  0  0  0  0  0  0  0  0  0
  2  1  1  0
  2  3  2  0
  4  2  1  0
  5  4  1  0
  6  5  1  0
  7  6  1  0
  8  9  1  6
  8  7  1  0
 10  8  1  0
 10 11  2  0
 12 10  1  0
 13 12  1  0
 13 19  1  0
 13 14  1  6
 15 14  1  0
 16 15  1  0
 17 16  1  0
 18 17  1  0
 19 21  1  0
 19 20  2  0
 21 22  1  0
 22 23  1  1
 24 23  1  0
 24 28  1  0
 25 24  2  0
 26 27  1  0
 26 22  1  0
 29 26  2  0
M  END
$$$$
