RKD.pdb
     RDKit          3D

 29 28  0  0  1  0  0  0  0  0999 V2000
   18.2419  -17.6133  -16.6533 N   0  0  0  0  0  0  0  0  0  0  0  0
   19.0289  -16.7547  -17.4497 C   0  0  0  0  0  0  0  0  0  0  0  0
   18.5444  -16.2031  -18.5184 N   0  0  0  0  0  0  0  0  0  0  0  0
   20.3712  -16.4783  -17.0966 N   0  0  0  0  0  0  0  0  0  0  0  0
   20.9222  -17.2176  -15.9479 C   0  0  0  0  0  0  0  0  0  0  0  0
   21.6596  -18.3997  -16.4971 C   0  0  0  0  0  0  0  0  0  0  0  0
   21.5827  -19.6562  -15.7018 C   0  0  0  0  0  0  0  0  0  0  0  0
   22.7963  -19.8890  -14.8893 C   0  0  2  0  0  0  0  0  0  0  0  0
   23.9203  -20.2628  -15.6700 N   0  0  0  0  0  0  0  0  0  0  0  0
   22.5510  -20.8425  -13.7536 C   0  0  0  0  0  0  0  0  0  0  0  0
   22.6841  -22.0643  -14.0177 O   0  0  0  0  0  0  0  0  0  0  0  0
   19.1271  -15.6025  -19.1398 N   0  0  0  0  0  0  0  0  0  0  0  0
   22.1900  -20.4155  -12.4526 C   0  0  2  0  0  0  0  0  0  0  0  0
   21.9743  -21.3982  -11.3529 C   0  0  0  0  0  0  0  0  0  0  0  0
   22.4185  -20.7393  -10.0671 C   0  0  0  0  0  0  0  0  0  0  0  0
   23.7277  -21.1661   -9.5218 C   0  0  0  0  0  0  0  0  0  0  0  0
   24.1800  -20.3588   -8.3333 C   0  0  0  0  0  0  0  0  0  0  0  0
   25.5020  -20.9354   -7.8765 N   0  0  0  0  0  0  0  0  0  0  0  0
   26.0872  -20.1454   -6.8224 C   0  0  0  0  0  0  0  0  0  0  0  0
   20.5812  -21.8437  -11.3795 O   0  0  0  0  0  0  0  0  0  0  0  0
   19.7042  -20.9576  -11.6806 N   0  0  0  0  0  0  0  0  0  0  0  0
   20.0706  -23.1241  -11.1222 C   0  0  2  0  0  0  0  0  0  0  0  0
   18.6309  -23.3779  -11.1959 C   0  0  0  0  0  0  0  0  0  0  0  0
   18.3801  -24.8406  -11.4631 C   0  0  0  0  0  0  0  0  0  0  0  0
   16.9351  -25.1131  -11.4784 O   0  0  0  0  0  0  0  0  0  0  0  0
   16.1112  -24.8083  -10.5823 C   0  0  0  0  0  0  0  0  0  0  0  0
   18.0063  -22.9145   -9.9432 O   0  0  0  0  0  0  0  0  0  0  0  0
   16.6352  -22.5794   -9.9928 O   0  0  0  0  0  0  0  0  0  0  0  0
   16.3376  -25.7828  -12.5790 O   0  0  0  0  0  0  0  0  0  0  0  0
  2  1  1  0
  2  3  2  0
  4  2  1  0
  5  4  1  0
  6  5  1  0
  7  6  1  0
  8  9  1  6
  8  7  1  0
 10  8  1  0
 10 11  2  0
 12 10  1  0
 13 12  1  0
 13 19  1  0
 13 14  1  6
 15 14  1  0
 16 15  1  0
 17 16  1  0
 18 17  1  0
 19 21  1  0
 19 20  2  0
 21 22  1  0
 22 23  1  1
 24 23  1  0
 24 28  1  0
 25 24  2  0
 26 27  1  0
 26 22  1  0
 29 26  2  0
M  END
$$$$
