RKD.pdb
     RDKit          3D

 29 28  0  0  1  0  0  0  0  0999 V2000
   28.8034   -9.1504  -18.0832 N   0  0  0  0  0  0  0  0  0  0  0  0
   29.7964  -10.1519  -18.0417 C   0  0  0  0  0  0  0  0  0  0  0  0
   31.0375   -9.8737  -18.2935 N   0  0  0  0  0  0  0  0  0  0  0  0
   29.4551  -11.4882  -17.7242 N   0  0  0  0  0  0  0  0  0  0  0  0
   28.0681  -11.7360  -17.2946 C   0  0  0  0  0  0  0  0  0  0  0  0
   28.0759  -11.8065  -15.7986 C   0  0  0  0  0  0  0  0  0  0  0  0
   26.7501  -11.9456  -15.1353 C   0  0  0  0  0  0  0  0  0  0  0  0
   25.9007  -12.9740  -15.7741 C   0  0  2  0  0  0  0  0  0  0  0  0
   26.5836  -13.7097  -16.7765 N   0  0  0  0  0  0  0  0  0  0  0  0
   24.5972  -12.4131  -16.2698 C   0  0  0  0  0  0  0  0  0  0  0  0
   24.5564  -12.0991  -17.4863 O   0  0  0  0  0  0  0  0  0  0  0  0
   31.7812  -10.6034  -18.2658 N   0  0  0  0  0  0  0  0  0  0  0  0
   23.4661  -12.2384  -15.4359 C   0  0  1  0  0  0  0  0  0  0  0  0
   22.2199  -11.6053  -15.9531 C   0  0  0  0  0  0  0  0  0  0  0  0
   21.0649  -12.4969  -15.5584 C   0  0  0  0  0  0  0  0  0  0  0  0
   19.7195  -12.0794  -16.0155 C   0  0  0  0  0  0  0  0  0  0  0  0
   18.6532  -13.1180  -15.7849 C   0  0  0  0  0  0  0  0  0  0  0  0
   17.3919  -12.6229  -16.4578 N   0  0  0  0  0  0  0  0  0  0  0  0
   16.3158  -13.5732  -16.3285 C   0  0  0  0  0  0  0  0  0  0  0  0
   22.1456  -10.2296  -15.4611 O   0  0  0  0  0  0  0  0  0  0  0  0
   22.7577   -9.9830  -14.3613 N   0  0  0  0  0  0  0  0  0  0  0  0
   21.4924   -9.1315  -16.0388 C   0  0  1  0  0  0  0  0  0  0  0  0
   21.5895   -7.8046  -15.4284 C   0  0  0  0  0  0  0  0  0  0  0  0
   22.9430   -7.2050  -15.7152 C   0  0  0  0  0  0  0  0  0  0  0  0
   22.9870   -5.8088  -15.2559 O   0  0  0  0  0  0  0  0  0  0  0  0
   22.4652   -5.3531  -14.2096 C   0  0  0  0  0  0  0  0  0  0  0  0
   20.4816   -6.9722  -15.9321 O   0  0  0  0  0  0  0  0  0  0  0  0
   20.1892   -5.7889  -15.2188 O   0  0  0  0  0  0  0  0  0  0  0  0
   23.6666   -4.8193  -16.0149 O   0  0  0  0  0  0  0  0  0  0  0  0
  2  1  1  0
  2  3  2  0
  4  2  1  0
  5  4  1  0
  6  5  1  0
  7  6  1  0
  8  9  1  6
  8  7  1  0
 10  8  1  0
 10 11  2  0
 12 10  1  0
 13 12  1  0
 13 19  1  0
 13 14  1  1
 15 14  1  0
 16 15  1  0
 17 16  1  0
 18 17  1  0
 19 21  1  0
 19 20  2  0
 21 22  1  0
 22 23  1  1
 24 23  1  0
 24 28  1  0
 25 24  2  0
 26 27  1  0
 26 22  1  0
 29 26  2  0
M  END
$$$$
