WTR.pdb
     RDKit          3D

 33 34  0  0  1  0  0  0  0  0999 V2000
    9.8157  -15.2141   22.7539 N   0  0  0  0  0  0  0  0  0  0  0  0
    9.2061  -15.9538   23.8315 C   0  0  1  0  0  0  0  0  0  0  0  0
    7.7027  -15.9534   23.6331 C   0  0  0  0  0  0  0  0  0  0  0  0
    7.1626  -14.5507   23.5684 C   0  0  0  0  0  0  0  0  0  0  0  0
    6.6776  -13.8975   22.4615 C   0  0  0  0  0  0  0  0  0  0  0  0
    6.3289  -12.6539   22.8068 N   0  0  0  0  0  0  0  0  0  0  0  0
    6.5746  -12.4694   24.1299 C   0  0  0  0  0  0  0  0  0  0  0  0
    6.3714  -11.3564   24.9398 C   0  0  0  0  0  0  0  0  0  0  0  0
    6.6988  -11.4295   26.2747 C   0  0  0  0  0  0  0  0  0  0  0  0
    7.2211  -12.6055   26.7795 C   0  0  0  0  0  0  0  0  0  0  0  0
    7.4068  -13.6821   25.9470 C   0  0  0  0  0  0  0  0  0  0  0  0
    7.0931  -13.6488   24.6065 C   0  0  0  0  0  0  0  0  0  0  0  0
    9.7478  -17.3363   23.8094 C   0  0  0  0  0  0  0  0  0  0  0  0
    9.1424  -18.2767   23.2130 O   0  0  0  0  0  0  0  0  0  0  0  0
   10.6794  -19.3882   21.9687 C   0  0  0  0  0  0  0  0  0  0  0  0
   11.9258  -19.2478   22.8121 C   0  0  1  0  0  0  0  0  0  0  0  0
   12.6942  -18.1724   22.3480 O   0  0  0  0  0  0  0  0  0  0  0  0
   11.5616  -19.0196   24.2928 C   0  0  2  0  0  0  0  0  0  0  0  0
   10.9794  -17.7021   24.4513 N   0  0  0  0  0  0  0  0  0  0  0  0
   12.8124  -19.1997   25.0449 C   0  0  0  0  0  0  0  0  0  0  0  0
   13.7236  -18.3180   24.9084 O   0  0  0  0  0  0  0  0  0  0  0  0
   11.4391  -19.9418   31.6875 N   0  0  0  0  0  0  0  0  0  0  0  0
   12.3136  -21.0535   31.7874 C   0  0  0  0  0  0  0  0  0  0  0  0
   12.7242  -21.5120   32.9114 N   0  0  0  0  0  0  0  0  0  0  0  0
   12.7747  -21.7131   30.5926 N   0  0  0  0  0  0  0  0  0  0  0  0
   11.8803  -21.9644   29.4895 C   0  0  0  0  0  0  0  0  0  0  0  0
   12.6026  -21.6809   28.1637 C   0  0  0  0  0  0  0  0  0  0  0  0
   13.5422  -20.5165   28.3050 C   0  0  0  0  0  0  0  0  0  0  0  0
   14.1467  -20.1968   26.9580 C   0  0  2  0  0  0  0  0  0  0  0  0
   13.0965  -20.2808   25.9212 N   0  0  0  0  0  0  0  0  0  0  0  0
   15.1876  -21.1794   26.6348 C   0  0  0  0  0  0  0  0  0  0  0  0
   16.3488  -21.1963   27.4285 O   0  0  0  0  0  0  0  0  0  0  0  0
   15.1676  -22.0238   25.7167 O   0  0  0  0  0  0  0  0  0  0  0  0
  2  1  1  6
  2  3  1  0
  3  4  1  0
  4  5  2  0
  5  6  1  0
  7  6  1  0
  8  7  2  0
  9  8  1  0
 10 11  1  0
 10  9  2  0
 11 12  2  0
 12  4  1  0
 12  7  1  0
 13  2  1  0
 13 14  2  0
 16 18  1  0
 16 15  1  6
 17 16  1  0
 18 19  1  6
 19 13  1  0
 20 18  1  0
 21 20  2  0
 23 22  1  0
 23 25  1  0
 24 23  2  0
 26 25  1  0
 27 26  1  0
 27 28  1  0
 29 28  1  1
 29 30  1  0
 30 20  1  0
 31 32  1  0
 31 29  1  0
 33 31  2  0
M  END
$$$$
