WTR.pdb
     RDKit          3D

 33 34  0  0  1  0  0  0  0  0999 V2000
    6.3084  -17.6264   24.3428 N   0  0  0  0  0  0  0  0  0  0  0  0
    7.1792  -16.6410   23.7506 C   0  0  1  0  0  0  0  0  0  0  0  0
    7.8814  -15.8821   24.8599 C   0  0  0  0  0  0  0  0  0  0  0  0
    6.9480  -14.9115   25.5307 C   0  0  0  0  0  0  0  0  0  0  0  0
    5.8589  -15.2113   26.3124 C   0  0  0  0  0  0  0  0  0  0  0  0
    5.2666  -14.0739   26.6900 N   0  0  0  0  0  0  0  0  0  0  0  0
    5.9468  -13.0192   26.1708 C   0  0  0  0  0  0  0  0  0  0  0  0
    5.7211  -11.6514   26.2902 C   0  0  0  0  0  0  0  0  0  0  0  0
    6.5766  -10.7732   25.6647 C   0  0  0  0  0  0  0  0  0  0  0  0
    7.6393  -11.2696   24.9333 C   0  0  0  0  0  0  0  0  0  0  0  0
    7.8279  -12.6268   24.8394 C   0  0  0  0  0  0  0  0  0  0  0  0
    6.9943  -13.5377   25.4491 C   0  0  0  0  0  0  0  0  0  0  0  0
    8.1569  -17.3472   22.8842 C   0  0  0  0  0  0  0  0  0  0  0  0
    8.7439  -18.4025   23.2693 O   0  0  0  0  0  0  0  0  0  0  0  0
    8.6423  -17.0301   18.7597 C   0  0  0  0  0  0  0  0  0  0  0  0
    9.8509  -16.5865   19.5515 C   0  0  1  0  0  0  0  0  0  0  0  0
    9.8975  -15.1874   19.6021 O   0  0  0  0  0  0  0  0  0  0  0  0
    9.8038  -17.1526   20.9849 C   0  0  2  0  0  0  0  0  0  0  0  0
    8.5018  -16.8931   21.5660 N   0  0  0  0  0  0  0  0  0  0  0  0
   10.9064  -16.5021   21.7085 C   0  0  0  0  0  0  0  0  0  0  0  0
   10.6769  -15.3747   22.2585 O   0  0  0  0  0  0  0  0  0  0  0  0
   11.3785  -17.8805   28.3583 N   0  0  0  0  0  0  0  0  0  0  0  0
   11.2782  -16.4688   28.2707 C   0  0  0  0  0  0  0  0  0  0  0  0
   11.5697  -15.6926   29.2478 N   0  0  0  0  0  0  0  0  0  0  0  0
   10.8331  -15.8559   27.0455 N   0  0  0  0  0  0  0  0  0  0  0  0
   10.7897  -16.6035   25.8129 C   0  0  0  0  0  0  0  0  0  0  0  0
   12.1939  -17.1281   25.4771 C   0  0  0  0  0  0  0  0  0  0  0  0
   12.1978  -17.8341   24.1503 C   0  0  0  0  0  0  0  0  0  0  0  0
   12.9422  -16.9932   23.1399 C   0  0  2  0  0  0  0  0  0  0  0  0
   12.2186  -17.0267   21.8515 N   0  0  0  0  0  0  0  0  0  0  0  0
   14.2841  -17.5470   22.9250 C   0  0  0  0  0  0  0  0  0  0  0  0
   14.4356  -18.5517   21.9521 O   0  0  0  0  0  0  0  0  0  0  0  0
   15.3349  -17.2268   23.5163 O   0  0  0  0  0  0  0  0  0  0  0  0
  2  1  1  1
  2  3  1  0
  3  4  1  0
  4  5  2  0
  5  6  1  0
  7  6  1  0
  8  7  2  0
  9  8  1  0
 10 11  1  0
 10  9  2  0
 11 12  2  0
 12  4  1  0
 12  7  1  0
 13  2  1  0
 13 14  2  0
 16 18  1  0
 16 15  1  6
 17 16  1  0
 18 19  1  1
 19 13  1  0
 20 18  1  0
 21 20  2  0
 23 22  1  0
 23 25  1  0
 24 23  2  0
 26 25  1  0
 27 26  1  0
 27 28  1  0
 29 28  1  1
 29 30  1  0
 30 20  1  0
 31 32  1  0
 31 29  1  0
 33 31  2  0
M  END
$$$$
