WTR.pdb
     RDKit          3D

 33 34  0  0  1  0  0  0  0  0999 V2000
    9.3391  -17.0114   26.7200 N   0  0  0  0  0  0  0  0  0  0  0  0
    9.4514  -16.6241   25.3353 C   0  0  1  0  0  0  0  0  0  0  0  0
    9.9124  -15.1810   25.2692 C   0  0  0  0  0  0  0  0  0  0  0  0
    9.1136  -14.3112   26.2011 C   0  0  0  0  0  0  0  0  0  0  0  0
    9.2655  -14.1920   27.5612 C   0  0  0  0  0  0  0  0  0  0  0  0
    8.3399  -13.3497   28.0314 N   0  0  0  0  0  0  0  0  0  0  0  0
    7.5729  -12.9051   27.0024 C   0  0  0  0  0  0  0  0  0  0  0  0
    6.5006  -12.0184   26.9924 C   0  0  0  0  0  0  0  0  0  0  0  0
    5.8890  -11.7190   25.7963 C   0  0  0  0  0  0  0  0  0  0  0  0
    6.3536  -12.3050   24.6338 C   0  0  0  0  0  0  0  0  0  0  0  0
    7.4148  -13.1755   24.6857 C   0  0  0  0  0  0  0  0  0  0  0  0
    8.0527  -13.5016   25.8618 C   0  0  0  0  0  0  0  0  0  0  0  0
   10.4296  -17.5283   24.6790 C   0  0  0  0  0  0  0  0  0  0  0  0
   11.5316  -17.8260   25.2300 O   0  0  0  0  0  0  0  0  0  0  0  0
   10.4885  -21.1089   23.8016 C   0  0  0  0  0  0  0  0  0  0  0  0
   10.6313  -20.3568   22.4984 C   0  0  1  0  0  0  0  0  0  0  0  0
    9.3837  -20.2561   21.8695 O   0  0  0  0  0  0  0  0  0  0  0  0
   11.2013  -18.9449   22.7411 C   0  0  2  0  0  0  0  0  0  0  0  0
   10.2005  -18.1234   23.3921 N   0  0  0  0  0  0  0  0  0  0  0  0
   11.5998  -18.4413   21.4182 C   0  0  0  0  0  0  0  0  0  0  0  0
   11.1464  -19.0424   20.3889 O   0  0  0  0  0  0  0  0  0  0  0  0
    7.3789  -13.4694   16.5029 N   0  0  0  0  0  0  0  0  0  0  0  0
    8.5984  -13.1011   17.1258 C   0  0  0  0  0  0  0  0  0  0  0  0
    8.8932  -11.8856   17.4050 N   0  0  0  0  0  0  0  0  0  0  0  0
    9.5629  -14.1142   17.4695 N   0  0  0  0  0  0  0  0  0  0  0  0
    9.4055  -14.9189   18.6560 C   0  0  0  0  0  0  0  0  0  0  0  0
   10.4573  -14.5126   19.6993 C   0  0  0  0  0  0  0  0  0  0  0  0
   10.7722  -15.6609   20.6164 C   0  0  0  0  0  0  0  0  0  0  0  0
   12.1041  -16.2586   20.2283 C   0  0  2  0  0  0  0  0  0  0  0  0
   12.4535  -17.3304   21.1843 N   0  0  0  0  0  0  0  0  0  0  0  0
   13.1484  -15.2296   20.2938 C   0  0  0  0  0  0  0  0  0  0  0  0
   14.0235  -15.2464   21.3950 O   0  0  0  0  0  0  0  0  0  0  0  0
   13.3598  -14.3171   19.4698 O   0  0  0  0  0  0  0  0  0  0  0  0
  2  1  1  1
  2  3  1  0
  3  4  1  0
  4  5  2  0
  5  6  1  0
  7  6  1  0
  8  7  2  0
  9  8  1  0
 10 11  1  0
 10  9  2  0
 11 12  2  0
 12  4  1  0
 12  7  1  0
 13  2  1  0
 13 14  2  0
 16 18  1  0
 16 15  1  1
 17 16  1  0
 18 19  1  6
 19 13  1  0
 20 18  1  0
 21 20  2  0
 23 22  1  0
 23 25  1  0
 24 23  2  0
 26 25  1  0
 27 26  1  0
 27 28  1  0
 29 28  1  1
 29 30  1  0
 30 20  1  0
 31 32  1  0
 31 29  1  0
 33 31  2  0
M  END
$$$$
