WTR.pdb
     RDKit          3D

 33 34  0  0  1  0  0  0  0  0999 V2000
    9.8818  -15.7682   25.0211 N   0  0  0  0  0  0  0  0  0  0  0  0
    9.1481  -16.2909   23.8949 C   0  0  1  0  0  0  0  0  0  0  0  0
    8.0834  -15.2864   23.4988 C   0  0  0  0  0  0  0  0  0  0  0  0
    7.3291  -14.7897   24.7019 C   0  0  0  0  0  0  0  0  0  0  0  0
    6.4682  -15.5066   25.4969 C   0  0  0  0  0  0  0  0  0  0  0  0
    5.9707  -14.6998   26.4396 N   0  0  0  0  0  0  0  0  0  0  0  0
    6.4891  -13.4541   26.2841 C   0  0  0  0  0  0  0  0  0  0  0  0
    6.2808  -12.2907   27.0185 C   0  0  0  0  0  0  0  0  0  0  0  0
    6.9455  -11.1411   26.6568 C   0  0  0  0  0  0  0  0  0  0  0  0
    7.8040  -11.1686   25.5737 C   0  0  0  0  0  0  0  0  0  0  0  0
    7.9823  -12.3371   24.8743 C   0  0  0  0  0  0  0  0  0  0  0  0
    7.3354  -13.5074   25.2034 C   0  0  0  0  0  0  0  0  0  0  0  0
   10.1061  -16.5206   22.7837 C   0  0  0  0  0  0  0  0  0  0  0  0
   10.6948  -15.5585   22.2056 O   0  0  0  0  0  0  0  0  0  0  0  0
   13.0306  -19.4812   20.1003 C   0  0  0  0  0  0  0  0  0  0  0  0
   12.2016  -19.2175   21.3363 C   0  0  1  0  0  0  0  0  0  0  0  0
   13.0431  -18.9522   22.4243 O   0  0  0  0  0  0  0  0  0  0  0  0
   11.2538  -18.0218   21.1145 C   0  0  2  0  0  0  0  0  0  0  0  0
   10.4312  -17.8303   22.2921 N   0  0  0  0  0  0  0  0  0  0  0  0
   10.4788  -18.3441   19.9069 C   0  0  0  0  0  0  0  0  0  0  0  0
    9.4889  -19.1390   20.0271 O   0  0  0  0  0  0  0  0  0  0  0  0
    7.1318  -12.6986   15.0766 N   0  0  0  0  0  0  0  0  0  0  0  0
    8.2936  -13.1399   14.3939 C   0  0  0  0  0  0  0  0  0  0  0  0
    8.7312  -12.5697   13.3329 N   0  0  0  0  0  0  0  0  0  0  0  0
    9.0311  -14.2729   14.8913 N   0  0  0  0  0  0  0  0  0  0  0  0
    8.6059  -14.9744   16.0776 C   0  0  0  0  0  0  0  0  0  0  0  0
    9.6219  -16.0747   16.4193 C   0  0  0  0  0  0  0  0  0  0  0  0
    8.9421  -17.2471   17.0690 C   0  0  0  0  0  0  0  0  0  0  0  0
    9.9758  -18.2908   17.4213 C   0  0  2  0  0  0  0  0  0  0  0  0
   10.7384  -17.8402   18.6046 N   0  0  0  0  0  0  0  0  0  0  0  0
   10.9162  -18.4547   16.3067 C   0  0  0  0  0  0  0  0  0  0  0  0
   12.2573  -18.0846   16.5147 O   0  0  0  0  0  0  0  0  0  0  0  0
   10.6642  -18.8935   15.1665 O   0  0  0  0  0  0  0  0  0  0  0  0
  2  1  1  1
  2  3  1  0
  3  4  1  0
  4  5  2  0
  5  6  1  0
  7  6  1  0
  8  7  2  0
  9  8  1  0
 10 11  1  0
 10  9  2  0
 11 12  2  0
 12  4  1  0
 12  7  1  0
 13  2  1  0
 13 14  2  0
 16 18  1  0
 16 15  1  6
 17 16  1  0
 18 19  1  1
 19 13  1  0
 20 18  1  0
 21 20  2  0
 23 22  1  0
 23 25  1  0
 24 23  2  0
 26 25  1  0
 27 26  1  0
 27 28  1  0
 29 28  1  6
 29 30  1  0
 30 20  1  0
 31 32  1  0
 31 29  1  0
 33 31  2  0
M  END
$$$$
