WTR.pdb
     RDKit          3D

 33 34  0  0  1  0  0  0  0  0999 V2000
    4.9120  -18.3189   23.1177 N   0  0  0  0  0  0  0  0  0  0  0  0
    6.1784  -18.9614   22.8663 C   0  0  1  0  0  0  0  0  0  0  0  0
    6.1675  -19.5248   21.4584 C   0  0  0  0  0  0  0  0  0  0  0  0
    5.0672  -20.5361   21.2854 C   0  0  0  0  0  0  0  0  0  0  0  0
    4.4419  -20.8913   20.1149 C   0  0  0  0  0  0  0  0  0  0  0  0
    3.4932  -21.7940   20.3838 N   0  0  0  0  0  0  0  0  0  0  0  0
    3.4779  -22.0459   21.7184 C   0  0  0  0  0  0  0  0  0  0  0  0
    2.6812  -22.9074   22.4661 C   0  0  0  0  0  0  0  0  0  0  0  0
    2.8742  -22.9886   23.8264 C   0  0  0  0  0  0  0  0  0  0  0  0
    3.8541  -22.2136   24.4179 C   0  0  0  0  0  0  0  0  0  0  0  0
    4.6198  -21.3753   23.6449 C   0  0  0  0  0  0  0  0  0  0  0  0
    4.4571  -21.2645   22.2820 C   0  0  0  0  0  0  0  0  0  0  0  0
    7.2524  -17.9487   23.0283 C   0  0  0  0  0  0  0  0  0  0  0  0
    8.1945  -17.8402   22.1874 O   0  0  0  0  0  0  0  0  0  0  0  0
    7.6199  -14.0690   23.9355 C   0  0  0  0  0  0  0  0  0  0  0  0
    8.1805  -14.9390   25.0370 C   0  0  1  0  0  0  0  0  0  0  0  0
    7.2491  -15.0457   26.0778 O   0  0  0  0  0  0  0  0  0  0  0  0
    8.5207  -16.3451   24.5039 C   0  0  2  0  0  0  0  0  0  0  0  0
    7.2996  -17.0314   24.1324 N   0  0  0  0  0  0  0  0  0  0  0  0
    9.2612  -17.0143   25.5840 C   0  0  0  0  0  0  0  0  0  0  0  0
    8.6044  -17.4065   26.6044 O   0  0  0  0  0  0  0  0  0  0  0  0
   12.6598  -21.7109   23.7236 N   0  0  0  0  0  0  0  0  0  0  0  0
   13.2357  -20.9948   22.6438 C   0  0  0  0  0  0  0  0  0  0  0  0
   13.1492  -21.3891   21.4276 N   0  0  0  0  0  0  0  0  0  0  0  0
   13.9528  -19.7711   22.8957 N   0  0  0  0  0  0  0  0  0  0  0  0
   14.0445  -19.2234   24.2268 C   0  0  0  0  0  0  0  0  0  0  0  0
   12.6337  -19.0096   24.7959 C   0  0  0  0  0  0  0  0  0  0  0  0
   12.6985  -18.4556   26.1915 C   0  0  0  0  0  0  0  0  0  0  0  0
   11.3077  -18.0755   26.6423 C   0  0  2  0  0  0  0  0  0  0  0  0
   10.6590  -17.2663   25.5891 N   0  0  0  0  0  0  0  0  0  0  0  0
   11.3856  -17.2616   27.8610 C   0  0  0  0  0  0  0  0  0  0  0  0
   11.0834  -15.8914   27.7602 O   0  0  0  0  0  0  0  0  0  0  0  0
   11.6960  -17.6473   29.0061 O   0  0  0  0  0  0  0  0  0  0  0  0
  2  1  1  6
  2  3  1  0
  3  4  1  0
  4  5  2  0
  5  6  1  0
  7  6  1  0
  8  7  2  0
  9  8  1  0
 10 11  1  0
 10  9  2  0
 11 12  2  0
 12  4  1  0
 12  7  1  0
 13  2  1  0
 13 14  2  0
 16 18  1  0
 16 15  1  6
 17 16  1  0
 18 19  1  1
 19 13  1  0
 20 18  1  0
 21 20  2  0
 23 22  1  0
 23 25  1  0
 24 23  2  0
 26 25  1  0
 27 26  1  0
 27 28  1  0
 29 28  1  6
 29 30  1  0
 30 20  1  0
 31 32  1  0
 31 29  1  0
 33 31  2  0
M  END
$$$$
