WTR.pdb
     RDKit          3D

 33 34  0  0  1  0  0  0  0  0999 V2000
    6.1690  -17.6042   24.3389 N   0  0  0  0  0  0  0  0  0  0  0  0
    6.9483  -16.5763   23.6939 C   0  0  1  0  0  0  0  0  0  0  0  0
    7.8108  -15.8924   24.7370 C   0  0  0  0  0  0  0  0  0  0  0  0
    6.9870  -14.9990   25.6237 C   0  0  0  0  0  0  0  0  0  0  0  0
    5.8918  -15.3539   26.3732 C   0  0  0  0  0  0  0  0  0  0  0  0
    5.4166  -14.2685   26.9924 N   0  0  0  0  0  0  0  0  0  0  0  0
    6.1810  -13.1942   26.6660 C   0  0  0  0  0  0  0  0  0  0  0  0
    6.0866  -11.8641   27.0634 C   0  0  0  0  0  0  0  0  0  0  0  0
    7.0067  -10.9560   26.5908 C   0  0  0  0  0  0  0  0  0  0  0  0
    8.0023  -11.3857   25.7336 C   0  0  0  0  0  0  0  0  0  0  0  0
    8.0612  -12.7075   25.3649 C   0  0  0  0  0  0  0  0  0  0  0  0
    7.1596  -13.6463   25.8145 C   0  0  0  0  0  0  0  0  0  0  0  0
    7.7834  -17.2165   22.6461 C   0  0  0  0  0  0  0  0  0  0  0  0
    8.3312  -18.3444   22.8314 O   0  0  0  0  0  0  0  0  0  0  0  0
    7.7044  -16.7264   18.5407 C   0  0  0  0  0  0  0  0  0  0  0  0
    9.0339  -16.3517   19.1544 C   0  0  1  0  0  0  0  0  0  0  0  0
    9.1416  -14.9576   19.2384 O   0  0  0  0  0  0  0  0  0  0  0  0
    9.1793  -16.9653   20.5614 C   0  0  2  0  0  0  0  0  0  0  0  0
    8.0259  -16.6136   21.3653 N   0  0  0  0  0  0  0  0  0  0  0  0
   10.4455  -16.4431   21.0968 C   0  0  0  0  0  0  0  0  0  0  0  0
   10.4340  -15.2885   21.6381 O   0  0  0  0  0  0  0  0  0  0  0  0
   12.8614  -20.1348   28.2594 N   0  0  0  0  0  0  0  0  0  0  0  0
   13.0525  -18.7508   28.0173 C   0  0  0  0  0  0  0  0  0  0  0  0
   13.8324  -18.0250   28.7295 N   0  0  0  0  0  0  0  0  0  0  0  0
   12.3541  -18.1090   26.9331 N   0  0  0  0  0  0  0  0  0  0  0  0
   12.1161  -18.7996   25.6895 C   0  0  0  0  0  0  0  0  0  0  0  0
   12.7961  -18.0418   24.5392 C   0  0  0  0  0  0  0  0  0  0  0  0
   11.8703  -17.9140   23.3622 C   0  0  0  0  0  0  0  0  0  0  0  0
   12.5815  -17.1876   22.2448 C   0  0  2  0  0  0  0  0  0  0  0  0
   11.6933  -17.1209   21.0651 N   0  0  0  0  0  0  0  0  0  0  0  0
   13.7920  -17.9247   21.8643 C   0  0  0  0  0  0  0  0  0  0  0  0
   13.8181  -18.5442   20.6016 O   0  0  0  0  0  0  0  0  0  0  0  0
   14.8283  -18.0732   22.5428 O   0  0  0  0  0  0  0  0  0  0  0  0
  2  1  1  1
  2  3  1  0
  3  4  1  0
  4  5  2  0
  5  6  1  0
  7  6  1  0
  8  7  2  0
  9  8  1  0
 10 11  1  0
 10  9  2  0
 11 12  2  0
 12  4  1  0
 12  7  1  0
 13  2  1  0
 13 14  2  0
 16 18  1  0
 16 15  1  1
 17 16  1  0
 18 19  1  1
 19 13  1  0
 20 18  1  0
 21 20  2  0
 23 22  1  0
 23 25  1  0
 24 23  2  0
 26 25  1  0
 27 26  1  0
 27 28  1  0
 29 28  1  1
 29 30  1  0
 30 20  1  0
 31 32  1  0
 31 29  1  0
 33 31  2  0
M  END
$$$$
