WTR.pdb
     RDKit          3D

 33 34  0  0  1  0  0  0  0  0999 V2000
    5.7804  -17.0828   23.3115 N   0  0  0  0  0  0  0  0  0  0  0  0
    6.8634  -16.1481   23.1293 C   0  0  1  0  0  0  0  0  0  0  0  0
    7.5493  -15.9313   24.4643 C   0  0  0  0  0  0  0  0  0  0  0  0
    6.7286  -15.0440   25.3601 C   0  0  0  0  0  0  0  0  0  0  0  0
    5.6692  -15.4148   26.1520 C   0  0  0  0  0  0  0  0  0  0  0  0
    5.1826  -14.3311   26.7652 N   0  0  0  0  0  0  0  0  0  0  0  0
    5.9041  -13.2422   26.3930 C   0  0  0  0  0  0  0  0  0  0  0  0
    5.7836  -11.9075   26.7672 C   0  0  0  0  0  0  0  0  0  0  0  0
    6.6607  -10.9832   26.2470 C   0  0  0  0  0  0  0  0  0  0  0  0
    7.6403  -11.4016   25.3660 C   0  0  0  0  0  0  0  0  0  0  0  0
    7.7261  -12.7284   25.0214 C   0  0  0  0  0  0  0  0  0  0  0  0
    6.8675  -13.6833   25.5187 C   0  0  0  0  0  0  0  0  0  0  0  0
    7.8042  -16.7174   22.1313 C   0  0  0  0  0  0  0  0  0  0  0  0
    7.4667  -17.6740   21.3714 O   0  0  0  0  0  0  0  0  0  0  0  0
    7.7290  -16.4913   19.4796 C   0  0  0  0  0  0  0  0  0  0  0  0
    9.1324  -15.9326   19.5309 C   0  0  1  0  0  0  0  0  0  0  0  0
    9.0841  -14.5348   19.6090 O   0  0  0  0  0  0  0  0  0  0  0  0
    9.8992  -16.4903   20.7468 C   0  0  2  0  0  0  0  0  0  0  0  0
    9.1443  -16.2313   21.9564 N   0  0  0  0  0  0  0  0  0  0  0  0
   11.2142  -15.8322   20.7268 C   0  0  0  0  0  0  0  0  0  0  0  0
   11.2746  -14.6313   20.3021 O   0  0  0  0  0  0  0  0  0  0  0  0
   13.5750  -15.7658   27.8810 N   0  0  0  0  0  0  0  0  0  0  0  0
   12.1717  -15.9580   27.9475 C   0  0  0  0  0  0  0  0  0  0  0  0
   11.4134  -15.2621   28.7110 N   0  0  0  0  0  0  0  0  0  0  0  0
   11.5469  -16.9699   27.1346 N   0  0  0  0  0  0  0  0  0  0  0  0
   11.1709  -16.6991   25.7688 C   0  0  0  0  0  0  0  0  0  0  0  0
   12.2717  -17.1987   24.8209 C   0  0  0  0  0  0  0  0  0  0  0  0
   11.8140  -17.1379   23.3907 C   0  0  0  0  0  0  0  0  0  0  0  0
   12.8602  -16.4308   22.5617 C   0  0  2  0  0  0  0  0  0  0  0  0
   12.4358  -16.4234   21.1458 N   0  0  0  0  0  0  0  0  0  0  0  0
   14.1359  -17.1503   22.6526 C   0  0  0  0  0  0  0  0  0  0  0  0
   15.1352  -16.6194   23.4883 O   0  0  0  0  0  0  0  0  0  0  0  0
   14.4506  -18.2036   22.0627 O   0  0  0  0  0  0  0  0  0  0  0  0
  2  1  1  1
  2  3  1  0
  3  4  1  0
  4  5  2  0
  5  6  1  0
  7  6  1  0
  8  7  2  0
  9  8  1  0
 10 11  1  0
 10  9  2  0
 11 12  2  0
 12  4  1  0
 12  7  1  0
 13  2  1  0
 13 14  2  0
 16 18  1  0
 16 15  1  1
 17 16  1  0
 18 19  1  1
 19 13  1  0
 20 18  1  0
 21 20  2  0
 23 22  1  0
 23 25  1  0
 24 23  2  0
 26 25  1  0
 27 26  1  0
 27 28  1  0
 29 28  1  1
 29 30  1  0
 30 20  1  0
 31 32  1  0
 31 29  1  0
 33 31  2  0
M  END
$$$$
