WTR.pdb
     RDKit          3D

 33 34  0  0  1  0  0  0  0  0999 V2000
    6.7120  -17.4394   23.6249 N   0  0  0  0  0  0  0  0  0  0  0  0
    7.8621  -16.5860   23.4555 C   0  0  1  0  0  0  0  0  0  0  0  0
    8.2995  -16.0822   24.8173 C   0  0  0  0  0  0  0  0  0  0  0  0
    7.2877  -15.1316   25.3967 C   0  0  0  0  0  0  0  0  0  0  0  0
    6.1323  -15.4547   26.0660 C   0  0  0  0  0  0  0  0  0  0  0  0
    5.4857  -14.3298   26.3881 N   0  0  0  0  0  0  0  0  0  0  0  0
    6.1951  -13.2605   25.9428 C   0  0  0  0  0  0  0  0  0  0  0  0
    5.9346  -11.8975   26.0451 C   0  0  0  0  0  0  0  0  0  0  0  0
    6.8319  -11.0012   25.5106 C   0  0  0  0  0  0  0  0  0  0  0  0
    7.9701  -11.4750   24.8855 C   0  0  0  0  0  0  0  0  0  0  0  0
    8.1910  -12.8282   24.8050 C   0  0  0  0  0  0  0  0  0  0  0  0
    7.3176  -13.7568   25.3258 C   0  0  0  0  0  0  0  0  0  0  0  0
    8.9374  -17.3801   22.8087 C   0  0  0  0  0  0  0  0  0  0  0  0
    9.1670  -18.5813   23.1417 O   0  0  0  0  0  0  0  0  0  0  0  0
   12.5011  -17.8881   19.3613 C   0  0  0  0  0  0  0  0  0  0  0  0
   11.3058  -17.1237   19.8824 C   0  0  1  0  0  0  0  0  0  0  0  0
   10.1990  -17.3520   19.0547 O   0  0  0  0  0  0  0  0  0  0  0  0
   10.9681  -17.5530   21.3242 C   0  0  2  0  0  0  0  0  0  0  0  0
    9.7814  -16.8528   21.7732 N   0  0  0  0  0  0  0  0  0  0  0  0
   12.1641  -17.2471   22.1234 C   0  0  0  0  0  0  0  0  0  0  0  0
   12.3695  -16.0315   22.4496 O   0  0  0  0  0  0  0  0  0  0  0  0
   12.4207  -20.6059   27.6963 N   0  0  0  0  0  0  0  0  0  0  0  0
   13.5195  -20.1350   28.4588 C   0  0  0  0  0  0  0  0  0  0  0  0
   13.4265  -19.8533   29.7055 N   0  0  0  0  0  0  0  0  0  0  0  0
   14.8040  -19.9568   27.8317 N   0  0  0  0  0  0  0  0  0  0  0  0
   14.9737  -20.1582   26.4137 C   0  0  0  0  0  0  0  0  0  0  0  0
   14.5706  -18.8826   25.6586 C   0  0  0  0  0  0  0  0  0  0  0  0
   14.7347  -19.0645   24.1758 C   0  0  0  0  0  0  0  0  0  0  0  0
   14.2378  -17.8284   23.4636 C   0  0  2  0  0  0  0  0  0  0  0  0
   13.1198  -18.1981   22.5701 N   0  0  0  0  0  0  0  0  0  0  0  0
   15.3132  -17.2634   22.6402 C   0  0  0  0  0  0  0  0  0  0  0  0
   16.0162  -16.1537   23.1433 O   0  0  0  0  0  0  0  0  0  0  0  0
   15.6894  -17.6578   21.5181 O   0  0  0  0  0  0  0  0  0  0  0  0
  2  1  1  1
  2  3  1  0
  3  4  1  0
  4  5  2  0
  5  6  1  0
  7  6  1  0
  8  7  2  0
  9  8  1  0
 10 11  1  0
 10  9  2  0
 11 12  2  0
 12  4  1  0
 12  7  1  0
 13  2  1  0
 13 14  2  0
 16 18  1  0
 16 15  1  6
 17 16  1  0
 18 19  1  1
 19 13  1  0
 20 18  1  0
 21 20  2  0
 23 22  1  0
 23 25  1  0
 24 23  2  0
 26 25  1  0
 27 26  1  0
 27 28  1  0
 29 28  1  6
 29 30  1  0
 30 20  1  0
 31 32  1  0
 31 29  1  0
 33 31  2  0
M  END
$$$$
