WTR.pdb
     RDKit          3D

 33 34  0  0  1  0  0  0  0  0999 V2000
    6.3446  -17.1630   24.0321 N   0  0  0  0  0  0  0  0  0  0  0  0
    7.6176  -16.4857   24.0055 C   0  0  1  0  0  0  0  0  0  0  0  0
    7.9500  -16.0184   25.4094 C   0  0  0  0  0  0  0  0  0  0  0  0
    7.0127  -14.9302   25.8570 C   0  0  0  0  0  0  0  0  0  0  0  0
    5.7443  -15.0820   26.3623 C   0  0  0  0  0  0  0  0  0  0  0  0
    5.2242  -13.8747   26.6055 N   0  0  0  0  0  0  0  0  0  0  0  0
    6.1295  -12.9195   26.2695 C   0  0  0  0  0  0  0  0  0  0  0  0
    6.0509  -11.5326   26.3489 C   0  0  0  0  0  0  0  0  0  0  0  0
    7.1283  -10.7757   25.9480 C   0  0  0  0  0  0  0  0  0  0  0  0
    8.2625  -11.4100   25.4766 C   0  0  0  0  0  0  0  0  0  0  0  0
    8.3005  -12.7815   25.4136 C   0  0  0  0  0  0  0  0  0  0  0  0
    7.2439  -13.5738   25.8038 C   0  0  0  0  0  0  0  0  0  0  0  0
    8.6396  -17.4390   23.5036 C   0  0  0  0  0  0  0  0  0  0  0  0
    8.5155  -18.6902   23.6639 O   0  0  0  0  0  0  0  0  0  0  0  0
   10.6082  -17.5173   20.0673 C   0  0  0  0  0  0  0  0  0  0  0  0
   11.5991  -17.5292   21.2085 C   0  0  1  0  0  0  0  0  0  0  0  0
   12.1728  -16.2594   21.3521 O   0  0  0  0  0  0  0  0  0  0  0  0
   10.9105  -17.9354   22.5268 C   0  0  2  0  0  0  0  0  0  0  0  0
    9.8242  -17.0186   22.8088 N   0  0  0  0  0  0  0  0  0  0  0  0
   11.9663  -17.9224   23.5504 C   0  0  0  0  0  0  0  0  0  0  0  0
   12.3724  -16.7906   23.9751 O   0  0  0  0  0  0  0  0  0  0  0  0
   13.3807  -22.8504   30.7648 N   0  0  0  0  0  0  0  0  0  0  0  0
   14.4144  -21.8802   30.7363 C   0  0  0  0  0  0  0  0  0  0  0  0
   15.1916  -21.6679   31.7329 N   0  0  0  0  0  0  0  0  0  0  0  0
   14.6215  -21.0871   29.5518 N   0  0  0  0  0  0  0  0  0  0  0  0
   13.6836  -21.1268   28.4569 C   0  0  0  0  0  0  0  0  0  0  0  0
   14.1617  -20.1953   27.3329 C   0  0  0  0  0  0  0  0  0  0  0  0
   13.1949  -20.2057   26.1823 C   0  0  0  0  0  0  0  0  0  0  0  0
   13.4426  -18.9963   25.3116 C   0  0  2  0  0  0  0  0  0  0  0  0
   12.5784  -19.0731   24.1149 N   0  0  0  0  0  0  0  0  0  0  0  0
   14.8406  -18.9830   24.8656 C   0  0  0  0  0  0  0  0  0  0  0  0
   15.1396  -19.5509   23.6138 O   0  0  0  0  0  0  0  0  0  0  0  0
   15.8225  -18.5174   25.4782 O   0  0  0  0  0  0  0  0  0  0  0  0
  2  1  1  1
  2  3  1  0
  3  4  1  0
  4  5  2  0
  5  6  1  0
  7  6  1  0
  8  7  2  0
  9  8  1  0
 10 11  1  0
 10  9  2  0
 11 12  2  0
 12  4  1  0
 12  7  1  0
 13  2  1  0
 13 14  2  0
 16 18  1  0
 16 15  1  6
 17 16  1  0
 18 19  1  1
 19 13  1  0
 20 18  1  0
 21 20  2  0
 23 22  1  0
 23 25  1  0
 24 23  2  0
 26 25  1  0
 27 26  1  0
 27 28  1  0
 29 28  1  1
 29 30  1  0
 30 20  1  0
 31 32  1  0
 31 29  1  0
 33 31  2  0
M  END
$$$$
