RPF.pdb
     RDKit          3D

 30 31  0  0  1  0  0  0  0  0999 V2000
   13.2573  -13.6178   19.0319 N   0  0  0  0  0  0  0  0  0  0  0  0
   13.7661  -14.8680   19.4323 C   0  0  0  0  0  0  0  0  0  0  0  0
   15.0189  -15.0913   19.3004 N   0  0  0  0  0  0  0  0  0  0  0  0
   12.8932  -15.8486   19.9692 N   0  0  0  0  0  0  0  0  0  0  0  0
   11.5070  -15.5123   20.1637 C   0  0  0  0  0  0  0  0  0  0  0  0
   10.8454  -15.0508   18.9013 C   0  0  0  0  0  0  0  0  0  0  0  0
   10.1710  -13.7105   19.0394 C   0  0  0  0  0  0  0  0  0  0  0  0
    8.6644  -13.8431   18.9537 C   0  0  2  0  0  0  0  0  0  0  0  0
    8.1234  -12.5106   18.6338 N   0  0  0  0  0  0  0  0  0  0  0  0
    8.1347  -14.2743   20.2756 C   0  0  0  0  0  0  0  0  0  0  0  0
    8.1657  -13.4554   21.2420 O   0  0  0  0  0  0  0  0  0  0  0  0
   15.4757  -15.9651   19.6082 N   0  0  0  0  0  0  0  0  0  0  0  0
    7.6065  -15.5478   20.4754 C   0  0  0  0  0  0  0  0  0  0  0  0
    7.4362  -16.5941   19.4707 C   0  0  0  0  0  0  0  0  0  0  0  0
    6.1485  -17.2923   19.9158 C   0  0  0  0  0  0  0  0  0  0  0  0
    6.4349  -17.3882   21.4229 C   0  0  2  0  0  0  0  0  0  0  0  0
    7.1066  -16.0869   21.7205 C   0  0  0  0  0  0  0  0  0  0  0  0
    8.1366  -16.1400   22.7783 O   0  0  0  0  0  0  0  0  0  0  0  0
    9.3470  -16.2881   22.4430 N   0  0  0  0  0  0  0  0  0  0  0  0
    7.8880  -16.0402   24.1682 C   0  0  1  0  0  0  0  0  0  0  0  0
    8.8848  -16.0032   25.1864 C   0  0  0  0  0  0  0  0  0  0  0  0
    9.3624  -14.6703   25.6095 C   0  0  0  0  0  0  0  0  0  0  0  0
    8.3484  -13.6498   25.8729 C   0  0  0  0  0  0  0  0  0  0  0  0
    7.4637  -13.7264   26.9462 C   0  0  0  0  0  0  0  0  0  0  0  0
    6.5223  -12.7893   27.2396 C   0  0  0  0  0  0  0  0  0  0  0  0
    6.3987  -11.6833   26.4585 C   0  0  0  0  0  0  0  0  0  0  0  0
    7.2452  -11.5526   25.3830 C   0  0  0  0  0  0  0  0  0  0  0  0
    8.1886  -12.4947   25.0895 C   0  0  0  0  0  0  0  0  0  0  0  0
    8.2685  -16.7215   26.3773 O   0  0  0  0  0  0  0  0  0  0  0  0
    9.0972  -16.9894   27.4500 O   0  0  0  0  0  0  0  0  0  0  0  0
  2  1  1  0
  2  4  1  0
  3  2  2  0
  4  5  1  0
  5  6  1  0
  7  8  1  0
  7  6  1  0
  8  9  1  1
 10  8  1  0
 11 10  2  0
 12 16  1  0
 12 10  1  0
 13 12  1  0
 14 13  1  0
 14 15  1  0
 15 16  1  0
 17 19  1  0
 16 17  1  6
 18 17  2  0
 20 21  1  1
 20 19  1  0
 21 22  1  0
 22 27  1  0
 23 22  2  0
 23 24  1  0
 24 25  2  0
 25 26  1  0
 27 26  2  0
 28 29  1  0
 28 20  1  0
 30 28  2  0
M  END
$$$$
