RPF.pdb
     RDKit          3D

 30 31  0  0  1  0  0  0  0  0999 V2000
    8.5838  -16.1948   14.1849 N   0  0  0  0  0  0  0  0  0  0  0  0
    8.6505  -15.0510   15.0031 C   0  0  0  0  0  0  0  0  0  0  0  0
    7.5643  -14.4412   15.2947 N   0  0  0  0  0  0  0  0  0  0  0  0
    9.9048  -14.5977   15.4856 N   0  0  0  0  0  0  0  0  0  0  0  0
   10.4267  -15.1642   16.7019 C   0  0  0  0  0  0  0  0  0  0  0  0
   10.4668  -14.1741   17.8255 C   0  0  0  0  0  0  0  0  0  0  0  0
    9.8952  -14.7113   19.1119 C   0  0  0  0  0  0  0  0  0  0  0  0
    8.4203  -14.3880   19.2340 C   0  0  2  0  0  0  0  0  0  0  0  0
    8.2721  -12.9343   19.0456 N   0  0  0  0  0  0  0  0  0  0  0  0
    7.9513  -14.7478   20.5994 C   0  0  0  0  0  0  0  0  0  0  0  0
    8.0142  -13.8752   21.5160 O   0  0  0  0  0  0  0  0  0  0  0  0
    7.5344  -13.5602   15.8331 N   0  0  0  0  0  0  0  0  0  0  0  0
    7.4458  -16.0124   20.8930 C   0  0  0  0  0  0  0  0  0  0  0  0
    7.2793  -17.1274   19.9645 C   0  0  0  0  0  0  0  0  0  0  0  0
    6.0084  -17.8124   20.4739 C   0  0  0  0  0  0  0  0  0  0  0  0
    6.3152  -17.8006   21.9799 C   0  0  2  0  0  0  0  0  0  0  0  0
    6.9701  -16.4722   22.1788 C   0  0  0  0  0  0  0  0  0  0  0  0
    8.0142  -16.4375   23.2236 O   0  0  0  0  0  0  0  0  0  0  0  0
    9.1880  -16.8003   22.9239 N   0  0  0  0  0  0  0  0  0  0  0  0
    7.8171  -16.0274   24.5639 C   0  0  1  0  0  0  0  0  0  0  0  0
    8.8239  -15.9825   25.5719 C   0  0  0  0  0  0  0  0  0  0  0  0
    9.3313  -14.6483   25.9542 C   0  0  0  0  0  0  0  0  0  0  0  0
    8.3430  -13.5876   26.1471 C   0  0  0  0  0  0  0  0  0  0  0  0
    7.9622  -13.1332   27.4076 C   0  0  0  0  0  0  0  0  0  0  0  0
    7.0651  -12.1351   27.6304 C   0  0  0  0  0  0  0  0  0  0  0  0
    6.4725  -11.5079   26.5796 C   0  0  0  0  0  0  0  0  0  0  0  0
    6.8090  -11.9141   25.3099 C   0  0  0  0  0  0  0  0  0  0  0  0
    7.7086  -12.9166   25.0884 C   0  0  0  0  0  0  0  0  0  0  0  0
    8.2048  -16.6559   26.7873 O   0  0  0  0  0  0  0  0  0  0  0  0
    9.0527  -16.9786   27.8296 O   0  0  0  0  0  0  0  0  0  0  0  0
  2  1  1  0
  2  4  1  0
  3  2  2  0
  4  5  1  0
  5  6  1  0
  7  8  1  0
  7  6  1  0
  8  9  1  1
 10  8  1  0
 11 10  2  0
 12 16  1  0
 12 10  1  0
 13 12  1  0
 14 13  1  0
 14 15  1  0
 15 16  1  0
 17 19  1  0
 16 17  1  6
 18 17  2  0
 20 21  1  1
 20 19  1  0
 21 22  1  0
 22 27  1  0
 23 22  2  0
 23 24  1  0
 24 25  2  0
 25 26  1  0
 27 26  2  0
 28 29  1  0
 28 20  1  0
 30 28  2  0
M  END
$$$$
