RPF.pdb
     RDKit          3D

 30 31  0  0  1  0  0  0  0  0999 V2000
    9.8880  -22.3310   19.4828 N   0  0  0  0  0  0  0  0  0  0  0  0
    8.5846  -22.0741   19.0167 C   0  0  0  0  0  0  0  0  0  0  0  0
    8.1046  -22.8202   18.0949 N   0  0  0  0  0  0  0  0  0  0  0  0
    7.8329  -21.0057   19.5690 N   0  0  0  0  0  0  0  0  0  0  0  0
    8.4532  -20.1554   20.5513 C   0  0  0  0  0  0  0  0  0  0  0  0
    9.2138  -19.0229   19.9323 C   0  0  0  0  0  0  0  0  0  0  0  0
    8.3693  -18.1643   19.0268 C   0  0  0  0  0  0  0  0  0  0  0  0
    9.1590  -16.9863   18.4944 C   0  0  2  0  0  0  0  0  0  0  0  0
   10.4433  -17.5079   17.9951 N   0  0  0  0  0  0  0  0  0  0  0  0
    9.4247  -16.0325   19.6051 C   0  0  0  0  0  0  0  0  0  0  0  0
   10.5565  -16.0587   20.1743 O   0  0  0  0  0  0  0  0  0  0  0  0
    7.1809  -22.6628   17.6601 N   0  0  0  0  0  0  0  0  0  0  0  0
    8.4663  -15.1154   20.0308 C   0  0  0  0  0  0  0  0  0  0  0  0
    7.1470  -14.8905   19.4460 C   0  0  0  0  0  0  0  0  0  0  0  0
    6.9403  -13.3851   19.6323 C   0  0  0  0  0  0  0  0  0  0  0  0
    7.4280  -13.2525   21.0838 C   0  0  2  0  0  0  0  0  0  0  0  0
    8.5915  -14.1889   21.1339 C   0  0  0  0  0  0  0  0  0  0  0  0
    8.7975  -14.8649   22.4314 O   0  0  0  0  0  0  0  0  0  0  0  0
    8.2574  -15.9921   22.6235 N   0  0  0  0  0  0  0  0  0  0  0  0
    9.5611  -14.3538   23.5081 C   0  0  2  0  0  0  0  0  0  0  0  0
    9.5980  -14.8947   24.8264 C   0  0  0  0  0  0  0  0  0  0  0  0
   10.3628  -14.1392   25.8403 C   0  0  0  0  0  0  0  0  0  0  0  0
   10.3363  -14.6460   27.2119 C   0  0  0  0  0  0  0  0  0  0  0  0
   11.1457  -15.6946   27.6432 C   0  0  0  0  0  0  0  0  0  0  0  0
   11.1685  -16.1806   28.9136 C   0  0  0  0  0  0  0  0  0  0  0  0
   10.3617  -15.6365   29.8632 C   0  0  0  0  0  0  0  0  0  0  0  0
    9.5394  -14.5977   29.4961 C   0  0  0  0  0  0  0  0  0  0  0  0
    9.5171  -14.1120   28.2205 C   0  0  0  0  0  0  0  0  0  0  0  0
    8.1433  -14.9938   25.2600 O   0  0  0  0  0  0  0  0  0  0  0  0
    7.7745  -16.1151   25.9784 O   0  0  0  0  0  0  0  0  0  0  0  0
  2  1  1  0
  2  4  1  0
  3  2  2  0
  4  5  1  0
  5  6  1  0
  7  8  1  0
  7  6  1  0
  8  9  1  1
 10  8  1  0
 11 10  2  0
 12 16  1  0
 12 10  1  0
 13 12  1  0
 14 13  1  0
 14 15  1  0
 15 16  1  0
 17 19  1  0
 16 17  1  1
 18 17  2  0
 20 21  1  6
 20 19  1  0
 21 22  1  0
 22 27  1  0
 23 22  2  0
 23 24  1  0
 24 25  2  0
 25 26  1  0
 27 26  2  0
 28 29  1  0
 28 20  1  0
 30 28  2  0
M  END
$$$$
