RPF.pdb
     RDKit          3D

 30 31  0  0  1  0  0  0  0  0999 V2000
    8.1610  -14.0088   16.3091 N   0  0  0  0  0  0  0  0  0  0  0  0
    8.5901  -13.8333   17.6385 C   0  0  0  0  0  0  0  0  0  0  0  0
    8.4952  -12.6714   18.1654 N   0  0  0  0  0  0  0  0  0  0  0  0
    9.1147  -14.9332   18.3643 N   0  0  0  0  0  0  0  0  0  0  0  0
    9.0414  -16.2478   17.7817 C   0  0  0  0  0  0  0  0  0  0  0  0
    8.0494  -17.1294   18.4768 C   0  0  0  0  0  0  0  0  0  0  0  0
    8.1435  -17.0611   19.9790 C   0  0  0  0  0  0  0  0  0  0  0  0
    7.0822  -17.9203   20.6348 C   0  0  2  0  0  0  0  0  0  0  0  0
    5.7995  -17.6104   19.9798 N   0  0  0  0  0  0  0  0  0  0  0  0
    6.9861  -17.5650   22.0764 C   0  0  0  0  0  0  0  0  0  0  0  0
    6.7776  -16.3563   22.3944 O   0  0  0  0  0  0  0  0  0  0  0  0
    8.8183  -12.4533   19.1220 N   0  0  0  0  0  0  0  0  0  0  0  0
    7.1168  -18.5231   23.0794 C   0  0  0  0  0  0  0  0  0  0  0  0
    7.1876  -19.9714   22.9048 C   0  0  0  0  0  0  0  0  0  0  0  0
    6.4635  -20.5031   24.1445 C   0  0  0  0  0  0  0  0  0  0  0  0
    7.0990  -19.5901   25.2051 C   0  0  2  0  0  0  0  0  0  0  0  0
    7.1955  -18.2751   24.5018 C   0  0  0  0  0  0  0  0  0  0  0  0
    8.3600  -17.4469   24.8770 O   0  0  0  0  0  0  0  0  0  0  0  0
    9.4195  -17.5401   24.1930 N   0  0  0  0  0  0  0  0  0  0  0  0
    8.4017  -16.5368   25.9603 C   0  0  1  0  0  0  0  0  0  0  0  0
    9.5306  -15.7536   26.3399 C   0  0  0  0  0  0  0  0  0  0  0  0
    9.4896  -14.3137   26.0097 C   0  0  0  0  0  0  0  0  0  0  0  0
    8.2703  -13.5835   26.3546 C   0  0  0  0  0  0  0  0  0  0  0  0
    8.1571  -12.8081   27.5063 C   0  0  0  0  0  0  0  0  0  0  0  0
    7.0509  -12.0960   27.8523 C   0  0  0  0  0  0  0  0  0  0  0  0
    5.9542  -12.1121   27.0488 C   0  0  0  0  0  0  0  0  0  0  0  0
    6.0068  -12.8610   25.8970 C   0  0  0  0  0  0  0  0  0  0  0  0
    7.1174  -13.5759   25.5519 C   0  0  0  0  0  0  0  0  0  0  0  0
    9.6486  -15.9241   27.8468 O   0  0  0  0  0  0  0  0  0  0  0  0
   10.7871  -15.4253   28.4506 O   0  0  0  0  0  0  0  0  0  0  0  0
  2  1  1  0
  2  4  1  0
  3  2  2  0
  4  5  1  0
  5  6  1  0
  7  8  1  0
  7  6  1  0
  8  9  1  6
 10  8  1  0
 11 10  2  0
 12 16  1  0
 12 10  1  0
 13 12  1  0
 14 13  1  0
 14 15  1  0
 15 16  1  0
 17 19  1  0
 16 17  1  6
 18 17  2  0
 20 21  1  1
 20 19  1  0
 21 22  1  0
 22 27  1  0
 23 22  2  0
 23 24  1  0
 24 25  2  0
 25 26  1  0
 27 26  2  0
 28 29  1  0
 28 20  1  0
 30 28  2  0
M  END
$$$$
