RPF.pdb
     RDKit          3D

 30 31  0  0  1  0  0  0  0  0999 V2000
   10.6792  -20.5366   20.7646 N   0  0  0  0  0  0  0  0  0  0  0  0
    9.6660  -21.3159   20.1745 C   0  0  0  0  0  0  0  0  0  0  0  0
   10.0040  -22.2929   19.4209 N   0  0  0  0  0  0  0  0  0  0  0  0
    8.3032  -21.0100   20.4211 N   0  0  0  0  0  0  0  0  0  0  0  0
    7.8736  -19.6383   20.3390 C   0  0  0  0  0  0  0  0  0  0  0  0
    7.9728  -19.0879   18.9491 C   0  0  0  0  0  0  0  0  0  0  0  0
    7.4662  -17.6736   18.8324 C   0  0  0  0  0  0  0  0  0  0  0  0
    8.5797  -16.7223   18.4455 C   0  0  2  0  0  0  0  0  0  0  0  0
    9.6858  -17.5350   17.9100 N   0  0  0  0  0  0  0  0  0  0  0  0
    9.0530  -16.0028   19.6588 C   0  0  0  0  0  0  0  0  0  0  0  0
   10.0695  -16.4449   20.2727 O   0  0  0  0  0  0  0  0  0  0  0  0
    9.3246  -22.8651   18.8936 N   0  0  0  0  0  0  0  0  0  0  0  0
    8.4114  -14.8606   20.1326 C   0  0  0  0  0  0  0  0  0  0  0  0
    7.2645  -14.1856   19.5308 C   0  0  0  0  0  0  0  0  0  0  0  0
    7.5336  -12.7102   19.8380 C   0  0  0  0  0  0  0  0  0  0  0  0
    7.9582  -12.8437   21.3091 C   0  0  2  0  0  0  0  0  0  0  0  0
    8.7622  -14.1034   21.3135 C   0  0  0  0  0  0  0  0  0  0  0  0
    8.6731  -14.9002   22.5544 O   0  0  0  0  0  0  0  0  0  0  0  0
    7.7330  -15.7375   22.6745 N   0  0  0  0  0  0  0  0  0  0  0  0
    9.5640  -14.8096   23.6506 C   0  0  2  0  0  0  0  0  0  0  0  0
    9.2279  -15.0614   25.0128 C   0  0  0  0  0  0  0  0  0  0  0  0
    7.8067  -14.9162   25.3910 C   0  0  0  0  0  0  0  0  0  0  0  0
    7.3873  -13.6227   25.9293 C   0  0  0  0  0  0  0  0  0  0  0  0
    6.0490  -13.2542   26.0471 C   0  0  0  0  0  0  0  0  0  0  0  0
    5.6159  -12.0721   26.5625 C   0  0  0  0  0  0  0  0  0  0  0  0
    6.5158  -11.1544   27.0060 C   0  0  0  0  0  0  0  0  0  0  0  0
    7.8526  -11.4623   26.9147 C   0  0  0  0  0  0  0  0  0  0  0  0
    8.2854  -12.6487   26.3963 C   0  0  0  0  0  0  0  0  0  0  0  0
    9.6794  -16.4892   25.2799 O   0  0  0  0  0  0  0  0  0  0  0  0
    9.5387  -16.9641   26.5699 O   0  0  0  0  0  0  0  0  0  0  0  0
  2  1  1  0
  2  4  1  0
  3  2  2  0
  4  5  1  0
  5  6  1  0
  7  8  1  0
  7  6  1  0
  8  9  1  1
 10  8  1  0
 11 10  2  0
 12 16  1  0
 12 10  1  0
 13 12  1  0
 14 13  1  0
 14 15  1  0
 15 16  1  0
 17 19  1  0
 16 17  1  1
 18 17  2  0
 20 21  1  6
 20 19  1  0
 21 22  1  0
 22 27  1  0
 23 22  2  0
 23 24  1  0
 24 25  2  0
 25 26  1  0
 27 26  2  0
 28 29  1  0
 28 20  1  0
 30 28  2  0
M  END
$$$$
