RPF.pdb
     RDKit          3D

 30 31  0  0  1  0  0  0  0  0999 V2000
    5.5251  -21.2215   17.7126 N   0  0  0  0  0  0  0  0  0  0  0  0
    6.3118  -21.7731   16.6835 C   0  0  0  0  0  0  0  0  0  0  0  0
    5.7471  -22.5236   15.8148 N   0  0  0  0  0  0  0  0  0  0  0  0
    7.7008  -21.4921   16.6261 N   0  0  0  0  0  0  0  0  0  0  0  0
    8.2721  -20.6104   17.6105 C   0  0  0  0  0  0  0  0  0  0  0  0
    7.5151  -19.3239   17.7373 C   0  0  0  0  0  0  0  0  0  0  0  0
    7.9492  -18.4925   18.9166 C   0  0  0  0  0  0  0  0  0  0  0  0
    8.7615  -17.2933   18.4730 C   0  0  2  0  0  0  0  0  0  0  0  0
    9.9875  -17.8045   17.8355 N   0  0  0  0  0  0  0  0  0  0  0  0
    9.1378  -16.4880   19.6662 C   0  0  0  0  0  0  0  0  0  0  0  0
   10.1839  -16.8016   20.3088 O   0  0  0  0  0  0  0  0  0  0  0  0
    6.2392  -22.9120   14.9939 N   0  0  0  0  0  0  0  0  0  0  0  0
    8.3742  -15.4029   20.0906 C   0  0  0  0  0  0  0  0  0  0  0  0
    7.1837  -14.8608   19.4412 C   0  0  0  0  0  0  0  0  0  0  0  0
    7.2979  -13.3583   19.7121 C   0  0  0  0  0  0  0  0  0  0  0  0
    7.6928  -13.4104   21.1966 C   0  0  2  0  0  0  0  0  0  0  0  0
    8.6162  -14.5838   21.2574 C   0  0  0  0  0  0  0  0  0  0  0  0
    8.5717  -15.3525   22.5183 O   0  0  0  0  0  0  0  0  0  0  0  0
    7.4876  -15.9110   22.8532 N   0  0  0  0  0  0  0  0  0  0  0  0
    9.6570  -15.5245   23.4104 C   0  0  2  0  0  0  0  0  0  0  0  0
    9.7285  -15.0057   24.7362 C   0  0  0  0  0  0  0  0  0  0  0  0
    9.6642  -13.5370   24.8861 C   0  0  0  0  0  0  0  0  0  0  0  0
    8.5381  -12.9912   25.6430 C   0  0  0  0  0  0  0  0  0  0  0  0
    7.2602  -12.8620   25.1038 C   0  0  0  0  0  0  0  0  0  0  0  0
    6.1817  -12.3814   25.7795 C   0  0  0  0  0  0  0  0  0  0  0  0
    6.3122  -11.9869   27.0741 C   0  0  0  0  0  0  0  0  0  0  0  0
    7.5513  -12.0908   27.6606 C   0  0  0  0  0  0  0  0  0  0  0  0
    8.6327  -12.5723   26.9806 C   0  0  0  0  0  0  0  0  0  0  0  0
    8.5634  -15.6418   25.4791 O   0  0  0  0  0  0  0  0  0  0  0  0
    7.7081  -16.4408   24.7447 O   0  0  0  0  0  0  0  0  0  0  0  0
  2  1  1  0
  2  4  1  0
  3  2  2  0
  4  5  1  0
  5  6  1  0
  7  8  1  0
  7  6  1  0
  8  9  1  1
 10  8  1  0
 11 10  2  0
 12 16  1  0
 12 10  1  0
 13 12  1  0
 14 13  1  0
 14 15  1  0
 15 16  1  0
 17 19  1  0
 16 17  1  1
 18 17  2  0
 20 21  1  6
 20 19  1  0
 21 22  1  0
 22 27  1  0
 23 22  2  0
 23 24  1  0
 24 25  2  0
 25 26  1  0
 27 26  2  0
 28 29  1  0
 28 20  1  0
 30 28  2  0
M  END
$$$$
