NKV.pdb
     RDKit          3D

 25 24  0  0  1  0  0  0  0  0999 V2000
   18.1548  -17.8026  -16.3346 N   0  0  0  0  0  0  0  0  0  0  0  0
   19.4781  -17.3369  -16.2087 C   0  0  0  0  0  0  0  0  0  0  0  0
   20.4089  -18.1222  -15.8989 O   0  0  0  0  0  0  0  0  0  0  0  0
   19.8094  -15.8952  -16.4406 C   0  0  0  0  0  0  0  0  0  0  0  0
   18.5724  -15.0928  -16.7495 C   0  0  2  0  0  0  0  0  0  0  0  0
   18.0618  -15.5083  -18.0334 N   0  0  0  0  0  0  0  0  0  0  0  0
   18.9516  -13.6622  -16.8357 C   0  0  0  0  0  0  0  0  0  0  0  0
   20.1426  -13.3901  -17.1718 O   0  0  0  0  0  0  0  0  0  0  0  0
   18.0556  -12.5924  -16.5632 N   0  0  0  0  0  0  0  0  0  0  0  0
   18.4181  -11.1955  -16.6857 C   0  0  1  0  0  0  0  0  0  0  0  0
   17.1375  -10.3892  -16.7173 C   0  0  0  0  0  0  0  0  0  0  0  0
   16.4396  -10.5784  -18.0221 C   0  0  0  0  0  0  0  0  0  0  0  0
   14.9668  -10.7831  -17.7386 C   0  0  0  0  0  0  0  0  0  0  0  0
   14.1621  -10.9569  -19.0076 C   0  0  0  0  0  0  0  0  0  0  0  0
   12.7794  -11.1940  -18.5832 N   0  0  0  0  0  0  0  0  0  0  0  0
   19.2931  -10.8336  -15.5719 C   0  0  0  0  0  0  0  0  0  0  0  0
   19.0282  -11.2002  -14.3981 O   0  0  0  0  0  0  0  0  0  0  0  0
   22.8763  -11.6699  -15.1785 C   0  0  0  0  0  0  0  0  0  0  0  0
   22.7907  -10.1927  -14.8843 C   0  0  2  0  0  0  0  0  0  0  0  0
   23.7394   -9.8210  -13.7909 C   0  0  0  0  0  0  0  0  0  0  0  0
   21.3686   -9.7611  -14.6059 C   0  0  2  0  0  0  0  0  0  0  0  0
   20.4873  -10.0563  -15.7166 N   0  0  0  0  0  0  0  0  0  0  0  0
   21.3680   -8.3051  -14.3878 C   0  0  0  0  0  0  0  0  0  0  0  0
   21.6155   -7.7997  -13.1317 O   0  0  0  0  0  0  0  0  0  0  0  0
   21.1452   -7.5115  -15.3285 O   0  0  0  0  0  0  0  0  0  0  0  0
  2  1  1  0
  2  3  2  0
  4  2  1  0
  5  4  1  0
  5  6  1  6
  7  5  1  0
  7  8  2  0
  9  7  1  0
 10  9  1  0
 10 11  1  1
 12 11  1  0
 13 12  1  0
 13 14  1  0
 14 15  1  0
 16 10  1  0
 17 16  2  0
 19 18  1  1
 20 19  1  0
 21 19  1  0
 21 22  1  6
 22 16  1  0
 23 24  1  0
 23 21  1  0
 25 23  2  0
M  END
$$$$
