NKV.pdb
     RDKit          3D

 25 24  0  0  1  0  0  0  0  0999 V2000
   16.3979  -21.6203  -13.9446 N   0  0  0  0  0  0  0  0  0  0  0  0
   17.4815  -20.7490  -14.1693 C   0  0  0  0  0  0  0  0  0  0  0  0
   17.3192  -19.5031  -14.1486 O   0  0  0  0  0  0  0  0  0  0  0  0
   18.8536  -21.2846  -14.4385 C   0  0  0  0  0  0  0  0  0  0  0  0
   19.8738  -20.1770  -14.4829 C   0  0  2  0  0  0  0  0  0  0  0  0
   19.8793  -19.6080  -15.8089 N   0  0  0  0  0  0  0  0  0  0  0  0
   21.2104  -20.7604  -14.2169 C   0  0  0  0  0  0  0  0  0  0  0  0
   21.3666  -21.4000  -13.1342 O   0  0  0  0  0  0  0  0  0  0  0  0
   22.3133  -20.6396  -15.1060 N   0  0  0  0  0  0  0  0  0  0  0  0
   23.5885  -21.2919  -14.8909 C   0  0  1  0  0  0  0  0  0  0  0  0
   24.2175  -21.5306  -16.2467 C   0  0  0  0  0  0  0  0  0  0  0  0
   25.5299  -22.2228  -16.0930 C   0  0  0  0  0  0  0  0  0  0  0  0
   26.1719  -22.3158  -17.4607 C   0  0  0  0  0  0  0  0  0  0  0  0
   27.4741  -23.0847  -17.4267 C   0  0  0  0  0  0  0  0  0  0  0  0
   27.9882  -23.0749  -18.7992 N   0  0  0  0  0  0  0  0  0  0  0  0
   24.4096  -20.4519  -14.0206 C   0  0  0  0  0  0  0  0  0  0  0  0
   24.4415  -19.2036  -14.1720 O   0  0  0  0  0  0  0  0  0  0  0  0
   26.7978  -21.8759  -10.5472 C   0  0  0  0  0  0  0  0  0  0  0  0
   26.2087  -20.5032  -10.7580 C   0  0  2  0  0  0  0  0  0  0  0  0
   24.8794  -20.3949  -10.0834 C   0  0  0  0  0  0  0  0  0  0  0  0
   26.1599  -20.1364  -12.2240 C   0  0  2  0  0  0  0  0  0  0  0  0
   25.2214  -20.9612  -12.9563 N   0  0  0  0  0  0  0  0  0  0  0  0
   27.5021  -20.3454  -12.7916 C   0  0  0  0  0  0  0  0  0  0  0  0
   28.5162  -19.4624  -12.4975 O   0  0  0  0  0  0  0  0  0  0  0  0
   27.7416  -21.3170  -13.5419 O   0  0  0  0  0  0  0  0  0  0  0  0
  2  1  1  0
  2  3  2  0
  4  2  1  0
  5  4  1  0
  5  6  1  6
  7  5  1  0
  7  8  2  0
  9  7  1  0
 10  9  1  0
 10 11  1  6
 12 11  1  0
 13 12  1  0
 13 14  1  0
 14 15  1  0
 16 10  1  0
 17 16  2  0
 19 18  1  6
 20 19  1  0
 21 19  1  0
 21 22  1  6
 22 16  1  0
 23 24  1  0
 23 21  1  0
 25 23  2  0
M  END
$$$$
