NKV.pdb
     RDKit          3D

 25 24  0  0  1  0  0  0  0  0999 V2000
   17.6041  -17.0325  -14.9066 N   0  0  0  0  0  0  0  0  0  0  0  0
   18.7821  -16.4516  -14.3979 C   0  0  0  0  0  0  0  0  0  0  0  0
   19.4350  -17.0170  -13.4852 O   0  0  0  0  0  0  0  0  0  0  0  0
   19.2863  -15.1465  -14.9313 C   0  0  0  0  0  0  0  0  0  0  0  0
   18.3741  -14.6037  -16.0003 C   0  0  2  0  0  0  0  0  0  0  0  0
   18.6426  -15.3021  -17.2340 N   0  0  0  0  0  0  0  0  0  0  0  0
   18.6851  -13.1676  -16.1965 C   0  0  0  0  0  0  0  0  0  0  0  0
   19.7788  -12.8767  -16.7666 O   0  0  0  0  0  0  0  0  0  0  0  0
   17.8273  -12.1124  -15.7817 N   0  0  0  0  0  0  0  0  0  0  0  0
   18.0990  -10.7133  -16.0397 C   0  0  1  0  0  0  0  0  0  0  0  0
   16.7796   -9.9728  -15.9947 C   0  0  0  0  0  0  0  0  0  0  0  0
   16.0205  -10.1921  -17.2600 C   0  0  0  0  0  0  0  0  0  0  0  0
   14.6791   -9.5035  -17.1252 C   0  0  0  0  0  0  0  0  0  0  0  0
   13.8297   -9.6649  -18.3663 C   0  0  0  0  0  0  0  0  0  0  0  0
   12.5000   -9.1563  -18.0181 N   0  0  0  0  0  0  0  0  0  0  0  0
   19.0603  -10.2272  -15.0513 C   0  0  0  0  0  0  0  0  0  0  0  0
   18.8798  -10.4282  -13.8228 O   0  0  0  0  0  0  0  0  0  0  0  0
   23.0381   -9.0892  -16.0909 C   0  0  0  0  0  0  0  0  0  0  0  0
   22.6096   -9.5321  -14.7140 C   0  0  2  0  0  0  0  0  0  0  0  0
   22.7875  -11.0080  -14.5600 C   0  0  0  0  0  0  0  0  0  0  0  0
   21.2075   -9.0682  -14.3901 C   0  0  2  0  0  0  0  0  0  0  0  0
   20.2506   -9.5044  -15.3858 N   0  0  0  0  0  0  0  0  0  0  0  0
   21.2089   -7.5962  -14.3620 C   0  0  0  0  0  0  0  0  0  0  0  0
   21.7910   -6.9310  -13.3068 O   0  0  0  0  0  0  0  0  0  0  0  0
   20.6876   -6.9323  -15.2849 O   0  0  0  0  0  0  0  0  0  0  0  0
  2  1  1  0
  2  3  2  0
  4  2  1  0
  5  4  1  0
  5  6  1  6
  7  5  1  0
  7  8  2  0
  9  7  1  0
 10  9  1  0
 10 11  1  1
 12 11  1  0
 13 12  1  0
 13 14  1  0
 14 15  1  0
 16 10  1  0
 17 16  2  0
 19 18  1  6
 20 19  1  0
 21 19  1  0
 21 22  1  6
 22 16  1  0
 23 24  1  0
 23 21  1  0
 25 23  2  0
M  END
$$$$
