NKV.pdb
     RDKit          3D

 25 24  0  0  1  0  0  0  0  0999 V2000
   27.9548  -20.9995  -15.6104 N   0  0  0  0  0  0  0  0  0  0  0  0
   27.3850  -19.7376  -15.3521 C   0  0  0  0  0  0  0  0  0  0  0  0
   27.5624  -18.7783  -16.1441 O   0  0  0  0  0  0  0  0  0  0  0  0
   26.5538  -19.5070  -14.1282 C   0  0  0  0  0  0  0  0  0  0  0  0
   26.4517  -20.7568  -13.2932 C   0  0  2  0  0  0  0  0  0  0  0  0
   27.0199  -21.8555  -14.0362 N   0  0  0  0  0  0  0  0  0  0  0  0
   25.0172  -21.0441  -13.0537 C   0  0  0  0  0  0  0  0  0  0  0  0
   24.3560  -21.5616  -14.0027 O   0  0  0  0  0  0  0  0  0  0  0  0
   24.3538  -20.7710  -11.8261 N   0  0  0  0  0  0  0  0  0  0  0  0
   22.9854  -21.1595  -11.5535 C   0  0  1  0  0  0  0  0  0  0  0  0
   22.8066  -21.1895  -10.0508 C   0  0  0  0  0  0  0  0  0  0  0  0
   21.4388  -21.6725   -9.7027 C   0  0  0  0  0  0  0  0  0  0  0  0
   21.3727  -21.8447   -8.2002 C   0  0  0  0  0  0  0  0  0  0  0  0
   20.0028  -22.2900   -7.7385 C   0  0  0  0  0  0  0  0  0  0  0  0
   20.0611  -22.3335   -6.2746 N   0  0  0  0  0  0  0  0  0  0  0  0
   22.0846  -20.2183  -12.2168 C   0  0  0  0  0  0  0  0  0  0  0  0
   22.2429  -18.9767  -12.0918 O   0  0  0  0  0  0  0  0  0  0  0  0
   19.7741  -21.2418  -15.5912 C   0  0  0  0  0  0  0  0  0  0  0  0
   20.0966  -19.8251  -15.1855 C   0  0  2  0  0  0  0  0  0  0  0  0
   21.3692  -19.3739  -15.8263 C   0  0  0  0  0  0  0  0  0  0  0  0
   20.1010  -19.6627  -13.6823 C   0  0  2  0  0  0  0  0  0  0  0  0
   20.9810  -20.6159  -13.0386 N   0  0  0  0  0  0  0  0  0  0  0  0
   18.7312  -19.8933  -13.1943 C   0  0  0  0  0  0  0  0  0  0  0  0
   18.4470  -21.0190  -12.4550 O   0  0  0  0  0  0  0  0  0  0  0  0
   17.8130  -19.0803  -13.4400 O   0  0  0  0  0  0  0  0  0  0  0  0
  2  1  1  0
  2  3  2  0
  4  2  1  0
  5  4  1  0
  5  6  1  6
  7  5  1  0
  7  8  2  0
  9  7  1  0
 10  9  1  0
 10 11  1  1
 12 11  1  0
 13 12  1  0
 13 14  1  0
 14 15  1  0
 16 10  1  0
 17 16  2  0
 19 18  1  1
 20 19  1  0
 21 19  1  0
 21 22  1  1
 22 16  1  0
 23 24  1  0
 23 21  1  0
 25 23  2  0
M  END
$$$$
