NKV.pdb
     RDKit          3D

 25 24  0  0  1  0  0  0  0  0999 V2000
   27.6781  -15.0100  -18.7597 N   0  0  0  0  0  0  0  0  0  0  0  0
   26.8744  -15.6109  -19.7480 C   0  0  0  0  0  0  0  0  0  0  0  0
   26.9367  -15.2322  -20.9446 O   0  0  0  0  0  0  0  0  0  0  0  0
   25.9259  -16.7155  -19.3987 C   0  0  0  0  0  0  0  0  0  0  0  0
   25.9017  -16.9660  -17.9133 C   0  0  2  0  0  0  0  0  0  0  0  0
   27.2020  -17.4389  -17.5041 N   0  0  0  0  0  0  0  0  0  0  0  0
   24.9064  -18.0285  -17.6337 C   0  0  0  0  0  0  0  0  0  0  0  0
   24.0497  -18.2812  -18.5325 O   0  0  0  0  0  0  0  0  0  0  0  0
   24.8657  -18.7697  -16.4210 N   0  0  0  0  0  0  0  0  0  0  0  0
   23.9589  -19.8753  -16.1902 C   0  0  1  0  0  0  0  0  0  0  0  0
   24.7955  -21.1087  -15.9259 C   0  0  0  0  0  0  0  0  0  0  0  0
   23.9151  -22.2818  -15.6538 C   0  0  0  0  0  0  0  0  0  0  0  0
   24.7974  -23.5023  -15.5008 C   0  0  0  0  0  0  0  0  0  0  0  0
   23.9935  -24.7551  -15.2319 C   0  0  0  0  0  0  0  0  0  0  0  0
   24.9699  -25.8302  -15.0343 N   0  0  0  0  0  0  0  0  0  0  0  0
   23.0730  -19.5372  -15.0775 C   0  0  0  0  0  0  0  0  0  0  0  0
   23.5323  -19.0510  -14.0121 O   0  0  0  0  0  0  0  0  0  0  0  0
   18.9163  -18.8155  -15.5327 C   0  0  0  0  0  0  0  0  0  0  0  0
   19.7582  -18.3505  -14.3704 C   0  0  2  0  0  0  0  0  0  0  0  0
   20.3441  -17.0051  -14.6537 C   0  0  0  0  0  0  0  0  0  0  0  0
   20.7975  -19.3798  -13.9875 C   0  0  2  0  0  0  0  0  0  0  0  0
   21.6534  -19.7243  -15.1038 N   0  0  0  0  0  0  0  0  0  0  0  0
   20.0946  -20.5969  -13.5492 C   0  0  0  0  0  0  0  0  0  0  0  0
   19.4260  -20.6071  -12.3461 O   0  0  0  0  0  0  0  0  0  0  0  0
   20.0927  -21.6304  -14.2537 O   0  0  0  0  0  0  0  0  0  0  0  0
  2  1  1  0
  2  3  2  0
  4  2  1  0
  5  4  1  0
  5  6  1  6
  7  5  1  0
  7  8  2  0
  9  7  1  0
 10  9  1  0
 10 11  1  1
 12 11  1  0
 13 12  1  0
 13 14  1  0
 14 15  1  0
 16 10  1  0
 17 16  2  0
 19 18  1  6
 20 19  1  0
 21 19  1  0
 21 22  1  6
 22 16  1  0
 23 24  1  0
 23 21  1  0
 25 23  2  0
M  END
$$$$
