NKV.pdb
     RDKit          3D

 25 24  0  0  1  0  0  0  0  0999 V2000
   14.8993  -14.6880  -17.4595 N   0  0  0  0  0  0  0  0  0  0  0  0
   14.8633  -13.5316  -16.6563 C   0  0  0  0  0  0  0  0  0  0  0  0
   13.7674  -13.0173  -16.3193 O   0  0  0  0  0  0  0  0  0  0  0  0
   16.1289  -12.8860  -16.1836 C   0  0  0  0  0  0  0  0  0  0  0  0
   17.3405  -13.5709  -16.7602 C   0  0  2  0  0  0  0  0  0  0  0  0
   17.5029  -14.8475  -16.1076 N   0  0  0  0  0  0  0  0  0  0  0  0
   18.5322  -12.7392  -16.4677 C   0  0  0  0  0  0  0  0  0  0  0  0
   18.8938  -12.6370  -15.2576 O   0  0  0  0  0  0  0  0  0  0  0  0
   19.2812  -12.0580  -17.4660 N   0  0  0  0  0  0  0  0  0  0  0  0
   20.4606  -11.2674  -17.1799 C   0  0  1  0  0  0  0  0  0  0  0  0
   21.3039  -11.2283  -18.4363 C   0  0  0  0  0  0  0  0  0  0  0  0
   22.0701  -12.4997  -18.5842 C   0  0  0  0  0  0  0  0  0  0  0  0
   22.9704  -12.3644  -19.7936 C   0  0  0  0  0  0  0  0  0  0  0  0
   23.7557  -13.6290  -20.0623 C   0  0  0  0  0  0  0  0  0  0  0  0
   24.5634  -13.3603  -21.2555 N   0  0  0  0  0  0  0  0  0  0  0  0
   20.0437   -9.9401  -16.7308 C   0  0  0  0  0  0  0  0  0  0  0  0
   19.1759   -9.2873  -17.3657 O   0  0  0  0  0  0  0  0  0  0  0  0
   18.3850   -8.9856  -13.6436 C   0  0  0  0  0  0  0  0  0  0  0  0
   19.5423   -8.0224  -13.7371 C   0  0  2  0  0  0  0  0  0  0  0  0
   19.1429   -6.6737  -13.2320 C   0  0  0  0  0  0  0  0  0  0  0  0
   20.1242   -7.9834  -15.1321 C   0  0  2  0  0  0  0  0  0  0  0  0
   20.5702   -9.2905  -15.5681 N   0  0  0  0  0  0  0  0  0  0  0  0
   21.2853   -7.0784  -15.1171 C   0  0  0  0  0  0  0  0  0  0  0  0
   21.0928   -5.7169  -15.0552 O   0  0  0  0  0  0  0  0  0  0  0  0
   22.4527   -7.5252  -15.1599 O   0  0  0  0  0  0  0  0  0  0  0  0
  2  1  1  0
  2  3  2  0
  4  2  1  0
  5  4  1  0
  5  6  1  1
  7  5  1  0
  7  8  2  0
  9  7  1  0
 10  9  1  0
 10 11  1  6
 12 11  1  0
 13 12  1  0
 13 14  1  0
 14 15  1  0
 16 10  1  0
 17 16  2  0
 19 18  1  6
 20 19  1  0
 21 19  1  0
 21 22  1  1
 22 16  1  0
 23 24  1  0
 23 21  1  0
 25 23  2  0
M  END
$$$$
