NKV.pdb
     RDKit          3D

 25 24  0  0  1  0  0  0  0  0999 V2000
   24.8889  -21.0370   -7.8894 N   0  0  0  0  0  0  0  0  0  0  0  0
   25.8008  -20.3532   -8.7169 C   0  0  0  0  0  0  0  0  0  0  0  0
   26.9217  -19.9929   -8.2776 O   0  0  0  0  0  0  0  0  0  0  0  0
   25.4584  -20.0383  -10.1401 C   0  0  0  0  0  0  0  0  0  0  0  0
   25.2916  -21.2955  -10.9533 C   0  0  2  0  0  0  0  0  0  0  0  0
   26.5662  -21.9673  -11.0305 N   0  0  0  0  0  0  0  0  0  0  0  0
   24.8778  -20.9146  -12.3248 C   0  0  0  0  0  0  0  0  0  0  0  0
   25.7885  -20.7726  -13.1944 O   0  0  0  0  0  0  0  0  0  0  0  0
   23.5253  -20.7030  -12.7090 N   0  0  0  0  0  0  0  0  0  0  0  0
   23.1063  -20.5015  -14.0808 C   0  0  1  0  0  0  0  0  0  0  0  0
   21.6006  -20.6492  -14.1281 C   0  0  0  0  0  0  0  0  0  0  0  0
   21.2272  -22.0823  -14.3066 C   0  0  0  0  0  0  0  0  0  0  0  0
   19.7209  -22.1891  -14.2011 C   0  0  0  0  0  0  0  0  0  0  0  0
   19.2461  -23.6236  -14.2718 C   0  0  0  0  0  0  0  0  0  0  0  0
   17.7966  -23.5832  -14.0580 N   0  0  0  0  0  0  0  0  0  0  0  0
   23.5653  -19.1877  -14.5284 C   0  0  0  0  0  0  0  0  0  0  0  0
   23.2404  -18.1442  -13.9055 O   0  0  0  0  0  0  0  0  0  0  0  0
   26.8754  -16.1885  -16.3019 C   0  0  0  0  0  0  0  0  0  0  0  0
   26.3832  -17.5681  -15.9413 C   0  0  2  0  0  0  0  0  0  0  0  0
   27.1127  -18.6069  -16.7303 C   0  0  0  0  0  0  0  0  0  0  0  0
   24.8804  -17.6751  -16.0690 C   0  0  2  0  0  0  0  0  0  0  0  0
   24.3967  -18.9825  -15.6764 N   0  0  0  0  0  0  0  0  0  0  0  0
   24.5254  -17.4541  -17.4806 C   0  0  0  0  0  0  0  0  0  0  0  0
   24.6236  -16.1929  -18.0231 O   0  0  0  0  0  0  0  0  0  0  0  0
   24.1332  -18.3969  -18.2029 O   0  0  0  0  0  0  0  0  0  0  0  0
  2  1  1  0
  2  3  2  0
  4  2  1  0
  5  4  1  0
  5  6  1  6
  7  5  1  0
  7  8  2  0
  9  7  1  0
 10  9  1  0
 10 11  1  1
 12 11  1  0
 13 12  1  0
 13 14  1  0
 14 15  1  0
 16 10  1  0
 17 16  2  0
 19 18  1  6
 20 19  1  0
 21 19  1  0
 21 22  1  6
 22 16  1  0
 23 24  1  0
 23 21  1  0
 25 23  2  0
M  END
$$$$
