MGT.pdb
     RDKit          3D

 20 19  0  0  1  0  0  0  0  0999 V2000
   14.9447  -27.2701    1.3967 C   0  0  0  0  0  0  0  0  0  0  0  0
   15.8783  -25.9316    2.1750 S   0  0  0  0  0  0  0  0  0  0  0  0
   15.1123  -24.3616    1.7157 C   0  0  0  0  0  0  0  0  0  0  0  0
   15.8685  -23.2235    2.3166 C   0  0  0  0  0  0  0  0  0  0  0  0
   15.3357  -21.8696    1.9615 C   0  0  2  0  0  0  0  0  0  0  0  0
   15.0228  -21.8165    0.5734 N   0  0  0  0  0  0  0  0  0  0  0  0
   16.3607  -20.8663    2.3641 C   0  0  0  0  0  0  0  0  0  0  0  0
   16.8184  -20.0729    1.5050 O   0  0  0  0  0  0  0  0  0  0  0  0
   16.8549  -20.7577    3.6862 N   0  0  0  0  0  0  0  0  0  0  0  0
   17.7492  -19.7635    4.1763 C   0  0  0  0  0  0  0  0  0  0  0  0
   17.9940  -19.8156    5.6158 C   0  0  0  0  0  0  0  0  0  0  0  0
   17.3350  -20.5697    6.3604 O   0  0  0  0  0  0  0  0  0  0  0  0
   21.3461  -17.5156    7.3487 C   0  0  0  0  0  0  0  0  0  0  0  0
   20.8343  -18.8656    7.8323 C   0  0  1  0  0  0  0  0  0  0  0  0
   21.0734  -18.9036    9.2096 O   0  0  0  0  0  0  0  0  0  0  0  0
   19.3555  -19.0027    7.5870 C   0  0  2  0  0  0  0  0  0  0  0  0
   18.9937  -19.0037    6.2081 N   0  0  0  0  0  0  0  0  0  0  0  0
   18.5631  -18.0134    8.3397 C   0  0  0  0  0  0  0  0  0  0  0  0
   18.2649  -18.2157    9.6665 O   0  0  0  0  0  0  0  0  0  0  0  0
   18.1599  -16.9838    7.7674 O   0  0  0  0  0  0  0  0  0  0  0  0
  2  1  1  0
  3  2  1  0
  4  3  1  0
  5  4  1  0
  5  6  1  6
  7  5  1  0
  7  8  2  0
  9  7  1  0
 10  9  1  0
 10 11  1  0
 11 17  1  0
 11 12  2  0
 14 13  1  1
 15 14  1  0
 16 14  1  0
 16 17  1  6
 18 16  1  0
 18 19  1  0
 20 18  2  0
M  END
$$$$
