MGT.pdb
     RDKit          3D

 20 19  0  0  1  0  0  0  0  0999 V2000
   32.1389  -14.1974  -19.6684 C   0  0  0  0  0  0  0  0  0  0  0  0
   31.5687  -12.7392  -18.7640 S   0  0  0  0  0  0  0  0  0  0  0  0
   29.8411  -12.9952  -18.3030 C   0  0  0  0  0  0  0  0  0  0  0  0
   29.3044  -11.7815  -17.6196 C   0  0  0  0  0  0  0  0  0  0  0  0
   27.9922  -11.9892  -16.9283 C   0  0  2  0  0  0  0  0  0  0  0  0
   27.0540  -12.5731  -17.8262 N   0  0  0  0  0  0  0  0  0  0  0  0
   27.5488  -10.6669  -16.4046 C   0  0  0  0  0  0  0  0  0  0  0  0
   28.2505  -10.0760  -15.5470 O   0  0  0  0  0  0  0  0  0  0  0  0
   26.3580  -10.0300  -16.8293 N   0  0  0  0  0  0  0  0  0  0  0  0
   25.8987   -8.7421  -16.4305 C   0  0  0  0  0  0  0  0  0  0  0  0
   24.5731   -8.3829  -16.9292 C   0  0  0  0  0  0  0  0  0  0  0  0
   24.2708   -8.5241  -18.1317 O   0  0  0  0  0  0  0  0  0  0  0  0
   22.0273  -10.3136  -15.4929 C   0  0  0  0  0  0  0  0  0  0  0  0
   21.6829   -9.3163  -16.5907 C   0  0  1  0  0  0  0  0  0  0  0  0
   20.2871   -9.2915  -16.6722 O   0  0  0  0  0  0  0  0  0  0  0  0
   22.1788   -7.9380  -16.2442 C   0  0  2  0  0  0  0  0  0  0  0  0
   23.5893   -7.8598  -16.0530 N   0  0  0  0  0  0  0  0  0  0  0  0
   21.4579   -7.3481  -15.1015 C   0  0  0  0  0  0  0  0  0  0  0  0
   22.1257   -7.0138  -13.9471 O   0  0  0  0  0  0  0  0  0  0  0  0
   20.2314   -7.1506  -15.1833 O   0  0  0  0  0  0  0  0  0  0  0  0
  2  1  1  0
  3  2  1  0
  4  3  1  0
  5  4  1  0
  5  6  1  6
  7  5  1  0
  7  8  2  0
  9  7  1  0
 10  9  1  0
 10 11  1  0
 11 17  1  0
 11 12  2  0
 14 13  1  1
 15 14  1  0
 16 14  1  0
 16 17  1  1
 18 16  1  0
 18 19  1  0
 20 18  2  0
M  END
$$$$
