MGT.pdb
     RDKit          3D

 20 19  0  0  1  0  0  0  0  0999 V2000
   15.2938  -15.1940  -14.2714 C   0  0  0  0  0  0  0  0  0  0  0  0
   15.0952  -15.3812  -16.0588 S   0  0  0  0  0  0  0  0  0  0  0  0
   16.5427  -14.6673  -16.8699 C   0  0  0  0  0  0  0  0  0  0  0  0
   16.8453  -13.3232  -16.2953 C   0  0  0  0  0  0  0  0  0  0  0  0
   18.0825  -12.6801  -16.8421 C   0  0  2  0  0  0  0  0  0  0  0  0
   19.1281  -13.6412  -16.9447 N   0  0  0  0  0  0  0  0  0  0  0  0
   18.4272  -11.5409  -15.9462 C   0  0  0  0  0  0  0  0  0  0  0  0
   19.0787  -11.7580  -14.8948 O   0  0  0  0  0  0  0  0  0  0  0  0
   18.0531  -10.2037  -16.2215 N   0  0  0  0  0  0  0  0  0  0  0  0
   18.3918   -9.0545  -15.4512 C   0  0  0  0  0  0  0  0  0  0  0  0
   17.7509   -7.8153  -15.8852 C   0  0  0  0  0  0  0  0  0  0  0  0
   16.9932   -7.7879  -16.8764 O   0  0  0  0  0  0  0  0  0  0  0  0
   15.6686   -3.6032  -15.0335 C   0  0  0  0  0  0  0  0  0  0  0  0
   16.2490   -4.9479  -14.6172 C   0  0  1  0  0  0  0  0  0  0  0  0
   15.2188   -5.8815  -14.7675 O   0  0  0  0  0  0  0  0  0  0  0  0
   17.3992   -5.3389  -15.5060 C   0  0  2  0  0  0  0  0  0  0  0  0
   17.9760   -6.6027  -15.1864 N   0  0  0  0  0  0  0  0  0  0  0  0
   18.4338   -4.2917  -15.5859 C   0  0  0  0  0  0  0  0  0  0  0  0
   18.2773   -3.2126  -16.4233 O   0  0  0  0  0  0  0  0  0  0  0  0
   19.4600   -4.3860  -14.8872 O   0  0  0  0  0  0  0  0  0  0  0  0
  2  1  1  0
  3  2  1  0
  4  3  1  0
  5  4  1  0
  5  6  1  1
  7  5  1  0
  7  8  2  0
  9  7  1  0
 10  9  1  0
 10 11  1  0
 11 17  1  0
 11 12  2  0
 14 13  1  6
 15 14  1  0
 16 14  1  0
 16 17  1  1
 18 16  1  0
 18 19  1  0
 20 18  2  0
M  END
$$$$
