MGT.pdb
     RDKit          3D

 20 19  0  0  1  0  0  0  0  0999 V2000
   22.1579  -18.5318  -15.1086 C   0  0  0  0  0  0  0  0  0  0  0  0
   22.4589  -18.6430  -16.8880 S   0  0  0  0  0  0  0  0  0  0  0  0
   23.5055  -17.2541  -17.3759 C   0  0  0  0  0  0  0  0  0  0  0  0
   23.1319  -16.0313  -16.6058 C   0  0  0  0  0  0  0  0  0  0  0  0
   23.9451  -14.8181  -16.9370 C   0  0  2  0  0  0  0  0  0  0  0  0
   25.3163  -15.0508  -16.6318 N   0  0  0  0  0  0  0  0  0  0  0  0
   23.3682  -13.6727  -16.1790 C   0  0  0  0  0  0  0  0  0  0  0  0
   22.2191  -13.2571  -16.4688 O   0  0  0  0  0  0  0  0  0  0  0  0
   24.0579  -13.0164  -15.1315 N   0  0  0  0  0  0  0  0  0  0  0  0
   23.5689  -11.9358  -14.3429 C   0  0  0  0  0  0  0  0  0  0  0  0
   23.4041  -10.6761  -15.0646 C   0  0  0  0  0  0  0  0  0  0  0  0
   24.2043  -10.3287  -15.9569 O   0  0  0  0  0  0  0  0  0  0  0  0
   20.9850   -9.8513  -17.3957 C   0  0  0  0  0  0  0  0  0  0  0  0
   20.7872   -8.7471  -16.3661 C   0  0  1  0  0  0  0  0  0  0  0  0
   19.6866   -9.1275  -15.5917 O   0  0  0  0  0  0  0  0  0  0  0  0
   21.9930   -8.6168  -15.4746 C   0  0  2  0  0  0  0  0  0  0  0  0
   22.3228   -9.8093  -14.7665 N   0  0  0  0  0  0  0  0  0  0  0  0
   21.8961   -7.4676  -14.5564 C   0  0  0  0  0  0  0  0  0  0  0  0
   21.8894   -6.1808  -15.0405 O   0  0  0  0  0  0  0  0  0  0  0  0
   21.8193   -7.6649  -13.3295 O   0  0  0  0  0  0  0  0  0  0  0  0
  2  1  1  0
  3  2  1  0
  4  3  1  0
  5  4  1  0
  5  6  1  1
  7  5  1  0
  7  8  2  0
  9  7  1  0
 10  9  1  0
 10 11  1  0
 11 17  1  0
 11 12  2  0
 14 13  1  6
 15 14  1  0
 16 14  1  0
 16 17  1  1
 18 16  1  0
 18 19  1  0
 20 18  2  0
M  END
$$$$
