MGT.pdb
     RDKit          3D

 20 19  0  0  1  0  0  0  0  0999 V2000
   27.7329  -18.7138   -3.2579 C   0  0  0  0  0  0  0  0  0  0  0  0
   29.2249  -18.9223   -4.2577 S   0  0  0  0  0  0  0  0  0  0  0  0
   28.8418  -20.0380   -5.6256 C   0  0  0  0  0  0  0  0  0  0  0  0
   27.8708  -19.3948   -6.5592 C   0  0  0  0  0  0  0  0  0  0  0  0
   27.3921  -20.2847   -7.6646 C   0  0  2  0  0  0  0  0  0  0  0  0
   28.4978  -20.9386   -8.2789 N   0  0  0  0  0  0  0  0  0  0  0  0
   26.6169  -19.4391   -8.6151 C   0  0  0  0  0  0  0  0  0  0  0  0
   27.1450  -18.4046   -9.0927 O   0  0  0  0  0  0  0  0  0  0  0  0
   25.2939  -19.7445   -9.0154 N   0  0  0  0  0  0  0  0  0  0  0  0
   24.7085  -21.0412   -9.0841 C   0  0  0  0  0  0  0  0  0  0  0  0
   24.4538  -21.5275  -10.4382 C   0  0  0  0  0  0  0  0  0  0  0  0
   23.7581  -22.5428  -10.6441 O   0  0  0  0  0  0  0  0  0  0  0  0
   22.6413  -20.4720  -13.3673 C   0  0  0  0  0  0  0  0  0  0  0  0
   24.0963  -20.4628  -13.8160 C   0  0  1  0  0  0  0  0  0  0  0  0
   24.5236  -19.1341  -13.7290 O   0  0  0  0  0  0  0  0  0  0  0  0
   24.9468  -21.3122  -12.9102 C   0  0  2  0  0  0  0  0  0  0  0  0
   24.9956  -20.8534  -11.5613 N   0  0  0  0  0  0  0  0  0  0  0  0
   26.3042  -21.5251  -13.4444 C   0  0  0  0  0  0  0  0  0  0  0  0
   27.4026  -21.0134  -12.7947 O   0  0  0  0  0  0  0  0  0  0  0  0
   26.4571  -22.1755  -14.4949 O   0  0  0  0  0  0  0  0  0  0  0  0
  2  1  1  0
  3  2  1  0
  4  3  1  0
  5  4  1  0
  5  6  1  6
  7  5  1  0
  7  8  2  0
  9  7  1  0
 10  9  1  0
 10 11  1  0
 11 17  1  0
 11 12  2  0
 14 13  1  1
 15 14  1  0
 16 14  1  0
 16 17  1  1
 18 16  1  0
 18 19  1  0
 20 18  2  0
M  END
$$$$
