MGT.pdb
     RDKit          3D

 20 19  0  0  1  0  0  0  0  0999 V2000
   29.1277  -19.3997   -6.4222 C   0  0  0  0  0  0  0  0  0  0  0  0
   27.6055  -19.5677   -5.4609 S   0  0  0  0  0  0  0  0  0  0  0  0
   26.2827  -20.0867   -6.5760 C   0  0  0  0  0  0  0  0  0  0  0  0
   26.8532  -20.5260   -7.8836 C   0  0  0  0  0  0  0  0  0  0  0  0
   25.9428  -20.3242   -9.0556 C   0  0  2  0  0  0  0  0  0  0  0  0
   24.7075  -20.9977   -8.8363 N   0  0  0  0  0  0  0  0  0  0  0  0
   26.6607  -20.8087  -10.2677 C   0  0  0  0  0  0  0  0  0  0  0  0
   27.3028  -21.8867  -10.2149 O   0  0  0  0  0  0  0  0  0  0  0  0
   26.6578  -20.1068  -11.4970 N   0  0  0  0  0  0  0  0  0  0  0  0
   27.3459  -20.4807  -12.6866 C   0  0  0  0  0  0  0  0  0  0  0  0
   26.4805  -20.8430  -13.8068 C   0  0  0  0  0  0  0  0  0  0  0  0
   26.9352  -20.9842  -14.9603 O   0  0  0  0  0  0  0  0  0  0  0  0
   24.7735  -23.7442  -14.6867 C   0  0  0  0  0  0  0  0  0  0  0  0
   23.6265  -22.7457  -14.6122 C   0  0  1  0  0  0  0  0  0  0  0  0
   22.9827  -22.9803  -13.3932 O   0  0  0  0  0  0  0  0  0  0  0  0
   24.1393  -21.3306  -14.6320 C   0  0  2  0  0  0  0  0  0  0  0  0
   25.0911  -21.0439  -13.6103 N   0  0  0  0  0  0  0  0  0  0  0  0
   23.0522  -20.3350  -14.6349 C   0  0  0  0  0  0  0  0  0  0  0  0
   22.1486  -20.2851  -15.6699 O   0  0  0  0  0  0  0  0  0  0  0  0
   22.9516  -19.5310  -13.6896 O   0  0  0  0  0  0  0  0  0  0  0  0
  2  1  1  0
  3  2  1  0
  4  3  1  0
  5  4  1  0
  5  6  1  1
  7  5  1  0
  7  8  2  0
  9  7  1  0
 10  9  1  0
 10 11  1  0
 11 17  1  0
 11 12  2  0
 14 13  1  1
 15 14  1  0
 16 14  1  0
 16 17  1  1
 18 16  1  0
 18 19  1  0
 20 18  2  0
M  END
$$$$
