MGT.pdb
     RDKit          3D

 20 19  0  0  1  0  0  0  0  0999 V2000
   16.1174  -13.6933  -14.7953 C   0  0  0  0  0  0  0  0  0  0  0  0
   16.9810  -14.8311  -15.9038 S   0  0  0  0  0  0  0  0  0  0  0  0
   18.6276  -14.1653  -16.2324 C   0  0  0  0  0  0  0  0  0  0  0  0
   18.5239  -12.7827  -16.7854 C   0  0  0  0  0  0  0  0  0  0  0  0
   19.8404  -12.1037  -17.0066 C   0  0  2  0  0  0  0  0  0  0  0  0
   20.6649  -12.2495  -15.8549 N   0  0  0  0  0  0  0  0  0  0  0  0
   19.5581  -10.6798  -17.3416 C   0  0  0  0  0  0  0  0  0  0  0  0
   19.1361  -10.3875  -18.4878 O   0  0  0  0  0  0  0  0  0  0  0  0
   19.7432   -9.6203  -16.4212 N   0  0  0  0  0  0  0  0  0  0  0  0
   19.4688   -8.2418  -16.6512 C   0  0  0  0  0  0  0  0  0  0  0  0
   19.7182   -7.3682  -15.5069 C   0  0  0  0  0  0  0  0  0  0  0  0
   19.3998   -7.7070  -14.3489 O   0  0  0  0  0  0  0  0  0  0  0  0
   23.0907   -5.9645  -14.6391 C   0  0  0  0  0  0  0  0  0  0  0  0
   22.1501   -4.7690  -14.7044 C   0  0  1  0  0  0  0  0  0  0  0  0
   22.3854   -4.1537  -15.9379 O   0  0  0  0  0  0  0  0  0  0  0  0
   20.7119   -5.2085  -14.6417 C   0  0  2  0  0  0  0  0  0  0  0  0
   20.3323   -6.1030  -15.6848 N   0  0  0  0  0  0  0  0  0  0  0  0
   19.7765   -4.0725  -14.5544 C   0  0  0  0  0  0  0  0  0  0  0  0
   18.9158   -3.7908  -15.5890 O   0  0  0  0  0  0  0  0  0  0  0  0
   19.7660   -3.3609  -13.5329 O   0  0  0  0  0  0  0  0  0  0  0  0
  2  1  1  0
  3  2  1  0
  4  3  1  0
  5  4  1  0
  5  6  1  1
  7  5  1  0
  7  8  2  0
  9  7  1  0
 10  9  1  0
 10 11  1  0
 11 17  1  0
 11 12  2  0
 14 13  1  6
 15 14  1  0
 16 14  1  0
 16 17  1  6
 18 16  1  0
 18 19  1  0
 20 18  2  0
M  END
$$$$
