MGT.pdb
     RDKit          3D

 20 19  0  0  1  0  0  0  0  0999 V2000
   27.0260  -18.6269   -7.2914 C   0  0  0  0  0  0  0  0  0  0  0  0
   26.9178  -20.3587   -6.7830 S   0  0  0  0  0  0  0  0  0  0  0  0
   26.8433  -21.3841   -8.2681 C   0  0  0  0  0  0  0  0  0  0  0  0
   26.3455  -20.5818   -9.4243 C   0  0  0  0  0  0  0  0  0  0  0  0
   26.2719  -21.3364  -10.7159 C   0  0  2  0  0  0  0  0  0  0  0  0
   27.5574  -21.8435  -11.0593 N   0  0  0  0  0  0  0  0  0  0  0  0
   25.7199  -20.4101  -11.7438 C   0  0  0  0  0  0  0  0  0  0  0  0
   24.4917  -20.1481  -11.7424 O   0  0  0  0  0  0  0  0  0  0  0  0
   26.5196  -19.7989  -12.7392 N   0  0  0  0  0  0  0  0  0  0  0  0
   26.0533  -19.0532  -13.8594 C   0  0  0  0  0  0  0  0  0  0  0  0
   25.0287  -19.7226  -14.6575 C   0  0  0  0  0  0  0  0  0  0  0  0
   25.3319  -20.4732  -15.6072 O   0  0  0  0  0  0  0  0  0  0  0  0
   22.7866  -22.2635  -13.6452 C   0  0  0  0  0  0  0  0  0  0  0  0
   21.8421  -21.1825  -14.1528 C   0  0  1  0  0  0  0  0  0  0  0  0
   21.3582  -20.5225  -13.0188 O   0  0  0  0  0  0  0  0  0  0  0  0
   22.5701  -20.1934  -15.0230 C   0  0  2  0  0  0  0  0  0  0  0  0
   23.6531  -19.5341  -14.3715 N   0  0  0  0  0  0  0  0  0  0  0  0
   21.6615  -19.2186  -15.6536 C   0  0  0  0  0  0  0  0  0  0  0  0
   20.6768  -19.6342  -16.5184 O   0  0  0  0  0  0  0  0  0  0  0  0
   21.7877  -18.0063  -15.3998 O   0  0  0  0  0  0  0  0  0  0  0  0
  2  1  1  0
  3  2  1  0
  4  3  1  0
  5  4  1  0
  5  6  1  6
  7  5  1  0
  7  8  2  0
  9  7  1  0
 10  9  1  0
 10 11  1  0
 11 17  1  0
 11 12  2  0
 14 13  1  1
 15 14  1  0
 16 14  1  0
 16 17  1  1
 18 16  1  0
 18 19  1  0
 20 18  2  0
M  END
$$$$
