MGT.pdb
     RDKit          3D

 20 19  0  0  1  0  0  0  0  0999 V2000
   28.2908  -19.4837   -3.4057 C   0  0  0  0  0  0  0  0  0  0  0  0
   28.5368  -20.1676   -5.0613 S   0  0  0  0  0  0  0  0  0  0  0  0
   27.1393  -19.6745   -6.0939 C   0  0  0  0  0  0  0  0  0  0  0  0
   27.2936  -20.2308   -7.4705 C   0  0  0  0  0  0  0  0  0  0  0  0
   26.1547  -19.9245   -8.3936 C   0  0  2  0  0  0  0  0  0  0  0  0
   24.9464  -20.4730   -7.8773 N   0  0  0  0  0  0  0  0  0  0  0  0
   26.5100  -20.4642   -9.7359 C   0  0  0  0  0  0  0  0  0  0  0  0
   27.6593  -20.2596  -10.1989 O   0  0  0  0  0  0  0  0  0  0  0  0
   25.6056  -21.2082  -10.5313 N   0  0  0  0  0  0  0  0  0  0  0  0
   25.7489  -21.5132  -11.9151 C   0  0  0  0  0  0  0  0  0  0  0  0
   25.6548  -20.3615  -12.8093 C   0  0  0  0  0  0  0  0  0  0  0  0
   25.5926  -19.1970  -12.3650 O   0  0  0  0  0  0  0  0  0  0  0  0
   28.3482  -19.6434  -15.0981 C   0  0  0  0  0  0  0  0  0  0  0  0
   27.1274  -18.7420  -14.9739 C   0  0  1  0  0  0  0  0  0  0  0  0
   27.2474  -17.7806  -15.9823 O   0  0  0  0  0  0  0  0  0  0  0  0
   25.8567  -19.5203  -15.1866 C   0  0  2  0  0  0  0  0  0  0  0  0
   25.6308  -20.5391  -14.2154 N   0  0  0  0  0  0  0  0  0  0  0  0
   25.7465  -20.0608  -16.5537 C   0  0  0  0  0  0  0  0  0  0  0  0
   25.6613  -19.2183  -17.6369 O   0  0  0  0  0  0  0  0  0  0  0  0
   25.7305  -21.2933  -16.7287 O   0  0  0  0  0  0  0  0  0  0  0  0
  2  1  1  0
  3  2  1  0
  4  3  1  0
  5  4  1  0
  5  6  1  1
  7  5  1  0
  7  8  2  0
  9  7  1  0
 10  9  1  0
 10 11  1  0
 11 17  1  0
 11 12  2  0
 14 13  1  6
 15 14  1  0
 16 14  1  0
 16 17  1  1
 18 16  1  0
 18 19  1  0
 20 18  2  0
M  END
$$$$
