WNT.pdb
     RDKit          3D

 30 31  0  0  1  0  0  0  0  0999 V2000
   26.5602  -18.6866  -12.1051 N   0  0  0  0  0  0  0  0  0  0  0  0
   26.8326  -20.0862  -12.2121 C   0  0  1  0  0  0  0  0  0  0  0  0
   25.9933  -20.9415  -11.3282 C   0  0  0  0  0  0  0  0  0  0  0  0
   26.0301  -20.6506   -9.9035 C   0  0  0  0  0  0  0  0  0  0  0  0
   24.9367  -20.3778   -9.1145 C   0  0  0  0  0  0  0  0  0  0  0  0
   25.3477  -20.1408   -7.8393 N   0  0  0  0  0  0  0  0  0  0  0  0
   26.6900  -20.2562   -7.7939 C   0  0  0  0  0  0  0  0  0  0  0  0
   27.5513  -20.1096   -6.7280 C   0  0  0  0  0  0  0  0  0  0  0  0
   28.8989  -20.2822   -6.9230 C   0  0  0  0  0  0  0  0  0  0  0  0
   29.3600  -20.5973   -8.1756 C   0  0  0  0  0  0  0  0  0  0  0  0
   28.4915  -20.7422   -9.2379 C   0  0  0  0  0  0  0  0  0  0  0  0
   27.1304  -20.5763   -9.0832 C   0  0  0  0  0  0  0  0  0  0  0  0
   26.7790  -20.5427  -13.6416 C   0  0  0  0  0  0  0  0  0  0  0  0
   25.9330  -20.0494  -14.4460 O   0  0  0  0  0  0  0  0  0  0  0  0
   30.0227  -22.1965  -18.2319 N   0  0  0  0  0  0  0  0  0  0  0  0
   29.2331  -22.9090  -17.3011 C   0  0  0  0  0  0  0  0  0  0  0  0
   28.6312  -23.9246  -17.7280 O   0  0  0  0  0  0  0  0  0  0  0  0
   29.0874  -22.5228  -15.8839 C   0  0  0  0  0  0  0  0  0  0  0  0
   27.8082  -21.8868  -15.5266 C   0  0  2  0  0  0  0  0  0  0  0  0
   27.6561  -21.5214  -14.1303 N   0  0  0  0  0  0  0  0  0  0  0  0
   26.5701  -22.3008  -16.1552 C   0  0  0  0  0  0  0  0  0  0  0  0
   26.0132  -23.3392  -15.6106 O   0  0  0  0  0  0  0  0  0  0  0  0
   22.9486  -20.6987  -17.0093 C   0  0  0  0  0  0  0  0  0  0  0  0
   23.7433  -21.2441  -18.1603 C   0  0  1  0  0  0  0  0  0  0  0  0
   24.5588  -20.2937  -18.7751 O   0  0  0  0  0  0  0  0  0  0  0  0
   24.6423  -22.3969  -17.7672 C   0  0  2  0  0  0  0  0  0  0  0  0
   25.8787  -21.7715  -17.2529 N   0  0  0  0  0  0  0  0  0  0  0  0
   24.9528  -23.1605  -18.9993 C   0  0  0  0  0  0  0  0  0  0  0  0
   24.1032  -24.0957  -19.5182 O   0  0  0  0  0  0  0  0  0  0  0  0
   26.0386  -22.9511  -19.6048 O   0  0  0  0  0  0  0  0  0  0  0  0
  2 13  1  0
  2  1  1  6
  2  3  1  0
  4  3  1  0
  4 12  1  0
  5  6  1  0
  5  4  2  0
  6  7  1  0
  7  8  1  0
  7 12  2  0
  8  9  2  0
  9 10  1  0
 11 10  2  0
 12 11  1  0
 13 14  2  0
 15 16  1  0
 16 18  1  0
 17 16  2  0
 19 18  1  1
 19 21  1  0
 20 19  1  0
 20 13  1  0
 21 22  2  0
 21 27  1  0
 24 23  1  1
 24 26  1  0
 24 25  1  0
 26 28  1  0
 26 27  1  6
 28 30  2  0
 28 29  1  0
M  END
$$$$
