WNT.pdb
     RDKit          3D

 30 31  0  0  1  0  0  0  0  0999 V2000
   25.4490  -18.8866   -8.6865 N   0  0  0  0  0  0  0  0  0  0  0  0
   26.2937  -19.8895   -9.2570 C   0  0  1  0  0  0  0  0  0  0  0  0
   26.5143  -21.0732   -8.3809 C   0  0  0  0  0  0  0  0  0  0  0  0
   26.8291  -20.8095   -6.9856 C   0  0  0  0  0  0  0  0  0  0  0  0
   25.9183  -20.7605   -5.9558 C   0  0  0  0  0  0  0  0  0  0  0  0
   26.5659  -20.4772   -4.7931 N   0  0  0  0  0  0  0  0  0  0  0  0
   27.8807  -20.3423   -5.0576 C   0  0  0  0  0  0  0  0  0  0  0  0
   28.9264  -20.0599   -4.2052 C   0  0  0  0  0  0  0  0  0  0  0  0
   30.2007  -19.9754   -4.7083 C   0  0  0  0  0  0  0  0  0  0  0  0
   30.4064  -20.1740   -6.0496 C   0  0  0  0  0  0  0  0  0  0  0  0
   29.3544  -20.4561   -6.8966 C   0  0  0  0  0  0  0  0  0  0  0  0
   28.0591  -20.5489   -6.4302 C   0  0  0  0  0  0  0  0  0  0  0  0
   25.8160  -20.2898  -10.6230 C   0  0  0  0  0  0  0  0  0  0  0  0
   24.7071  -19.8685  -11.0689 O   0  0  0  0  0  0  0  0  0  0  0  0
   28.0716  -20.2329  -15.8855 N   0  0  0  0  0  0  0  0  0  0  0  0
   27.7804  -21.3321  -15.0461 C   0  0  0  0  0  0  0  0  0  0  0  0
   27.4626  -22.4077  -15.6101 O   0  0  0  0  0  0  0  0  0  0  0  0
   27.8317  -21.2746  -13.5721 C   0  0  0  0  0  0  0  0  0  0  0  0
   26.5296  -21.1551  -12.8949 C   0  0  2  0  0  0  0  0  0  0  0  0
   26.5747  -21.1358  -11.4444 N   0  0  0  0  0  0  0  0  0  0  0  0
   25.3504  -21.8059  -13.4291 C   0  0  0  0  0  0  0  0  0  0  0  0
   25.2835  -23.0791  -13.1851 O   0  0  0  0  0  0  0  0  0  0  0  0
   21.4599  -21.4245  -12.8403 C   0  0  0  0  0  0  0  0  0  0  0  0
   21.8993  -21.3219  -14.2722 C   0  0  1  0  0  0  0  0  0  0  0  0
   22.1763  -20.0163  -14.6783 O   0  0  0  0  0  0  0  0  0  0  0  0
   23.1363  -22.1409  -14.5735 C   0  0  2  0  0  0  0  0  0  0  0  0
   24.2761  -21.2923  -14.1675 N   0  0  0  0  0  0  0  0  0  0  0  0
   23.1816  -22.3574  -16.0393 C   0  0  0  0  0  0  0  0  0  0  0  0
   22.3227  -23.2011  -16.6845 O   0  0  0  0  0  0  0  0  0  0  0  0
   24.0395  -21.7473  -16.7329 O   0  0  0  0  0  0  0  0  0  0  0  0
  2 13  1  0
  2  1  1  1
  2  3  1  0
  4  3  1  0
  4 12  1  0
  5  6  1  0
  5  4  2  0
  6  7  1  0
  7  8  1  0
  7 12  2  0
  8  9  2  0
  9 10  1  0
 11 10  2  0
 12 11  1  0
 13 14  2  0
 15 16  1  0
 16 18  1  0
 17 16  2  0
 19 18  1  6
 19 21  1  0
 20 19  1  0
 20 13  1  0
 21 22  2  0
 21 27  1  0
 24 23  1  1
 24 26  1  0
 24 25  1  0
 26 28  1  0
 26 27  1  6
 28 30  2  0
 28 29  1  0
M  END
$$$$
