WNT.pdb
     RDKit          3D

 30 31  0  0  1  0  0  0  0  0999 V2000
   24.1398  -20.5700  -11.2571 N   0  0  0  0  0  0  0  0  0  0  0  0
   25.5556  -20.5020  -11.4450 C   0  0  1  0  0  0  0  0  0  0  0  0
   26.3331  -21.4219  -10.5694 C   0  0  0  0  0  0  0  0  0  0  0  0
   26.5456  -20.9983   -9.1943 C   0  0  0  0  0  0  0  0  0  0  0  0
   25.5594  -20.6232   -8.3116 C   0  0  0  0  0  0  0  0  0  0  0  0
   26.1246  -20.2773   -7.1232 N   0  0  0  0  0  0  0  0  0  0  0  0
   27.4607  -20.4232   -7.2262 C   0  0  0  0  0  0  0  0  0  0  0  0
   28.4462  -20.1989   -6.2892 C   0  0  0  0  0  0  0  0  0  0  0  0
   29.7578  -20.4247   -6.6249 C   0  0  0  0  0  0  0  0  0  0  0  0
   30.0599  -20.8693   -7.8866 C   0  0  0  0  0  0  0  0  0  0  0  0
   29.0676  -21.0913   -8.8193 C   0  0  0  0  0  0  0  0  0  0  0  0
   27.7378  -20.8756   -8.5213 C   0  0  0  0  0  0  0  0  0  0  0  0
   25.9208  -20.6702  -12.8917 C   0  0  0  0  0  0  0  0  0  0  0  0
   25.1494  -21.2879  -13.6851 O   0  0  0  0  0  0  0  0  0  0  0  0
   28.0305  -19.4758  -17.6179 N   0  0  0  0  0  0  0  0  0  0  0  0
   28.5668  -18.6673  -16.5901 C   0  0  0  0  0  0  0  0  0  0  0  0
   29.2168  -17.6541  -16.9464 O   0  0  0  0  0  0  0  0  0  0  0  0
   28.4015  -18.9529  -15.1514 C   0  0  0  0  0  0  0  0  0  0  0  0
   27.4222  -20.0014  -14.8198 C   0  0  2  0  0  0  0  0  0  0  0  0
   27.1171  -20.1533  -13.4091 N   0  0  0  0  0  0  0  0  0  0  0  0
   27.3885  -21.2483  -15.5572 C   0  0  0  0  0  0  0  0  0  0  0  0
   28.4929  -21.9288  -15.5108 O   0  0  0  0  0  0  0  0  0  0  0  0
   25.4290  -24.6691  -15.4415 C   0  0  0  0  0  0  0  0  0  0  0  0
   25.3467  -23.9417  -16.7522 C   0  0  1  0  0  0  0  0  0  0  0  0
   24.2488  -23.0862  -16.8473 O   0  0  0  0  0  0  0  0  0  0  0  0
   26.5741  -23.1052  -17.0447 C   0  0  2  0  0  0  0  0  0  0  0  0
   26.3671  -21.8374  -16.3140 N   0  0  0  0  0  0  0  0  0  0  0  0
   26.5931  -22.8358  -18.5022 C   0  0  0  0  0  0  0  0  0  0  0  0
   26.2479  -21.6243  -19.0303 O   0  0  0  0  0  0  0  0  0  0  0  0
   26.9390  -23.7487  -19.3000 O   0  0  0  0  0  0  0  0  0  0  0  0
  2 13  1  0
  2  1  1  6
  2  3  1  0
  4  3  1  0
  4 12  1  0
  5  6  1  0
  5  4  2  0
  6  7  1  0
  7  8  1  0
  7 12  2  0
  8  9  2  0
  9 10  1  0
 11 10  2  0
 12 11  1  0
 13 14  2  0
 15 16  1  0
 16 18  1  0
 17 16  2  0
 19 18  1  1
 19 21  1  0
 20 19  1  0
 20 13  1  0
 21 22  2  0
 21 27  1  0
 24 23  1  1
 24 26  1  0
 24 25  1  0
 26 28  1  0
 26 27  1  1
 28 30  2  0
 28 29  1  0
M  END
$$$$
