WNT.pdb
     RDKit          3D

 30 31  0  0  1  0  0  0  0  0999 V2000
   20.3866  -11.7508  -19.2170 N   0  0  0  0  0  0  0  0  0  0  0  0
   20.9034  -11.2997  -17.9624 C   0  0  1  0  0  0  0  0  0  0  0  0
   22.3708  -11.4938  -17.8007 C   0  0  0  0  0  0  0  0  0  0  0  0
   22.8870  -12.8334  -18.0344 C   0  0  0  0  0  0  0  0  0  0  0  0
   23.7014  -13.2056  -19.0787 C   0  0  0  0  0  0  0  0  0  0  0  0
   23.9744  -14.5355  -18.9869 N   0  0  0  0  0  0  0  0  0  0  0  0
   23.3478  -15.0267  -17.8992 C   0  0  0  0  0  0  0  0  0  0  0  0
   23.3300  -16.3103  -17.3974 C   0  0  0  0  0  0  0  0  0  0  0  0
   22.6156  -16.5768  -16.2561 C   0  0  0  0  0  0  0  0  0  0  0  0
   21.9342  -15.5592  -15.6388 C   0  0  0  0  0  0  0  0  0  0  0  0
   21.9566  -14.2768  -16.1474 C   0  0  0  0  0  0  0  0  0  0  0  0
   22.6622  -13.9683  -17.2923 C   0  0  0  0  0  0  0  0  0  0  0  0
   20.4960   -9.8813  -17.6851 C   0  0  0  0  0  0  0  0  0  0  0  0
   20.2953   -9.0689  -18.6368 O   0  0  0  0  0  0  0  0  0  0  0  0
   17.4011   -5.6209  -15.9865 N   0  0  0  0  0  0  0  0  0  0  0  0
   18.0531   -6.6001  -15.2031 C   0  0  0  0  0  0  0  0  0  0  0  0
   18.2875   -6.3046  -14.0057 O   0  0  0  0  0  0  0  0  0  0  0  0
   18.4614   -7.9225  -15.7163 C   0  0  0  0  0  0  0  0  0  0  0  0
   19.8954   -8.0736  -16.0145 C   0  0  2  0  0  0  0  0  0  0  0  0
   20.3250   -9.4122  -16.3748 N   0  0  0  0  0  0  0  0  0  0  0  0
   20.8921   -7.3245  -15.2763 C   0  0  0  0  0  0  0  0  0  0  0  0
   21.2899   -7.8960  -14.1808 O   0  0  0  0  0  0  0  0  0  0  0  0
   24.2179   -5.3426  -16.5395 C   0  0  0  0  0  0  0  0  0  0  0  0
   23.3544   -4.6062  -15.5566 C   0  0  1  0  0  0  0  0  0  0  0  0
   22.4479   -3.7316  -16.1563 O   0  0  0  0  0  0  0  0  0  0  0  0
   22.5448   -5.5286  -14.6704 C   0  0  2  0  0  0  0  0  0  0  0  0
   21.4923   -6.0873  -15.5446 N   0  0  0  0  0  0  0  0  0  0  0  0
   21.9182   -4.6968  -13.6155 C   0  0  0  0  0  0  0  0  0  0  0  0
   22.6428   -4.0967  -12.6253 O   0  0  0  0  0  0  0  0  0  0  0  0
   20.6690   -4.5258  -13.6171 O   0  0  0  0  0  0  0  0  0  0  0  0
  2 13  1  0
  2  1  1  6
  2  3  1  0
  4  3  1  0
  4 12  1  0
  5  6  1  0
  5  4  2  0
  6  7  1  0
  7  8  1  0
  7 12  2  0
  8  9  2  0
  9 10  1  0
 11 10  2  0
 12 11  1  0
 13 14  2  0
 15 16  1  0
 16 18  1  0
 17 16  2  0
 19 18  1  1
 19 21  1  0
 20 19  1  0
 20 13  1  0
 21 22  2  0
 21 27  1  0
 24 23  1  6
 24 26  1  0
 24 25  1  0
 26 28  1  0
 26 27  1  6
 28 30  2  0
 28 29  1  0
M  END
$$$$
