WNT.pdb
     RDKit          3D

 30 31  0  0  1  0  0  0  0  0999 V2000
   12.2895  -23.1511   -7.7641 N   0  0  0  0  0  0  0  0  0  0  0  0
   13.2020  -22.4666   -6.9019 C   0  0  1  0  0  0  0  0  0  0  0  0
   12.8144  -21.0625   -6.5931 C   0  0  0  0  0  0  0  0  0  0  0  0
   12.4800  -20.2087   -7.7222 C   0  0  0  0  0  0  0  0  0  0  0  0
   13.0534  -20.2734   -8.9710 C   0  0  0  0  0  0  0  0  0  0  0  0
   12.5069  -19.3166   -9.7692 N   0  0  0  0  0  0  0  0  0  0  0  0
   11.5898  -18.6353   -9.0538 C   0  0  0  0  0  0  0  0  0  0  0  0
   10.7805  -17.5853   -9.4311 C   0  0  0  0  0  0  0  0  0  0  0  0
    9.9070  -17.0475   -8.5191 C   0  0  0  0  0  0  0  0  0  0  0  0
    9.8579  -17.5669   -7.2508 C   0  0  0  0  0  0  0  0  0  0  0  0
   10.6715  -18.6181   -6.8805 C   0  0  0  0  0  0  0  0  0  0  0  0
   11.5631  -19.1858   -7.7674 C   0  0  0  0  0  0  0  0  0  0  0  0
   13.4678  -23.2576   -5.6536 C   0  0  0  0  0  0  0  0  0  0  0  0
   12.5332  -23.8932   -5.0802 O   0  0  0  0  0  0  0  0  0  0  0  0
   16.2867  -27.0419   -2.5321 N   0  0  0  0  0  0  0  0  0  0  0  0
   16.5807  -25.6731   -2.7259 C   0  0  0  0  0  0  0  0  0  0  0  0
   17.1543  -25.0771   -1.7815 O   0  0  0  0  0  0  0  0  0  0  0  0
   16.2520  -24.9301   -3.9582 C   0  0  0  0  0  0  0  0  0  0  0  0
   15.0898  -24.0305   -3.8673 C   0  0  2  0  0  0  0  0  0  0  0  0
   14.7482  -23.3195   -5.0855 N   0  0  0  0  0  0  0  0  0  0  0  0
   14.8289  -23.2713   -2.6610 C   0  0  0  0  0  0  0  0  0  0  0  0
   15.5605  -22.2074   -2.5281 O   0  0  0  0  0  0  0  0  0  0  0  0
   11.7872  -21.4228   -1.3689 C   0  0  0  0  0  0  0  0  0  0  0  0
   12.3495  -22.3026   -0.2902 C   0  0  1  0  0  0  0  0  0  0  0  0
   11.7195  -23.5440   -0.1981 O   0  0  0  0  0  0  0  0  0  0  0  0
   13.8281  -22.5789   -0.4603 C   0  0  2  0  0  0  0  0  0  0  0  0
   13.9247  -23.4966   -1.6147 N   0  0  0  0  0  0  0  0  0  0  0  0
   14.2953  -23.2750    0.7623 C   0  0  0  0  0  0  0  0  0  0  0  0
   14.4027  -22.6466    1.9703 O   0  0  0  0  0  0  0  0  0  0  0  0
   14.6095  -24.4946    0.7030 O   0  0  0  0  0  0  0  0  0  0  0  0
  2 13  1  0
  2  1  1  1
  2  3  1  0
  4  3  1  0
  4 12  1  0
  5  6  1  0
  5  4  2  0
  6  7  1  0
  7  8  1  0
  7 12  2  0
  8  9  2  0
  9 10  1  0
 11 10  2  0
 12 11  1  0
 13 14  2  0
 15 16  1  0
 16 18  1  0
 17 16  2  0
 19 18  1  6
 19 21  1  0
 20 19  1  0
 20 13  1  0
 21 22  2  0
 21 27  1  0
 24 23  1  6
 24 26  1  0
 24 25  1  0
 26 28  1  0
 26 27  1  6
 28 30  2  0
 28 29  1  0
M  END
$$$$
