WNT.pdb
     RDKit          3D

 30 31  0  0  1  0  0  0  0  0999 V2000
   26.5606  -22.6657  -12.8160 N   0  0  0  0  0  0  0  0  0  0  0  0
   25.8298  -21.7227  -12.0278 C   0  0  1  0  0  0  0  0  0  0  0  0
   26.5638  -20.4564  -11.7537 C   0  0  0  0  0  0  0  0  0  0  0  0
   27.6591  -20.5243  -10.7990 C   0  0  0  0  0  0  0  0  0  0  0  0
   28.9604  -20.8564  -11.0973 C   0  0  0  0  0  0  0  0  0  0  0  0
   29.7052  -20.8315   -9.9589 N   0  0  0  0  0  0  0  0  0  0  0  0
   28.9038  -20.4887   -8.9307 C   0  0  0  0  0  0  0  0  0  0  0  0
   29.2035  -20.3313   -7.5946 C   0  0  0  0  0  0  0  0  0  0  0  0
   28.2100  -19.9671   -6.7204 C   0  0  0  0  0  0  0  0  0  0  0  0
   26.9391  -19.7672   -7.1955 C   0  0  0  0  0  0  0  0  0  0  0  0
   26.6468  -19.9269   -8.5345 C   0  0  0  0  0  0  0  0  0  0  0  0
   27.6170  -20.2928   -9.4448 C   0  0  0  0  0  0  0  0  0  0  0  0
   24.4713  -21.4627  -12.6121 C   0  0  0  0  0  0  0  0  0  0  0  0
   24.2590  -21.6251  -13.8509 O   0  0  0  0  0  0  0  0  0  0  0  0
   19.2487  -21.3565  -13.0355 N   0  0  0  0  0  0  0  0  0  0  0  0
   19.6335  -21.5003  -11.6832 C   0  0  0  0  0  0  0  0  0  0  0  0
   18.7235  -21.7644  -10.8597 O   0  0  0  0  0  0  0  0  0  0  0  0
   21.0231  -21.3575  -11.2063 C   0  0  0  0  0  0  0  0  0  0  0  0
   22.0122  -20.9857  -12.2319 C   0  0  2  0  0  0  0  0  0  0  0  0
   23.4009  -21.0356  -11.8134 N   0  0  0  0  0  0  0  0  0  0  0  0
   21.7329  -19.9338  -13.1884 C   0  0  0  0  0  0  0  0  0  0  0  0
   21.6511  -18.7462  -12.6709 O   0  0  0  0  0  0  0  0  0  0  0  0
   23.6414  -18.3644  -16.1317 C   0  0  0  0  0  0  0  0  0  0  0  0
   22.2641  -18.8220  -16.5160 C   0  0  1  0  0  0  0  0  0  0  0  0
   22.2273  -20.1262  -17.0100 O   0  0  0  0  0  0  0  0  0  0  0  0
   21.2783  -18.7656  -15.3685 C   0  0  2  0  0  0  0  0  0  0  0  0
   21.5320  -19.9857  -14.5741 N   0  0  0  0  0  0  0  0  0  0  0  0
   19.9154  -18.8300  -15.9479 C   0  0  0  0  0  0  0  0  0  0  0  0
   19.3740  -17.8042  -16.6691 O   0  0  0  0  0  0  0  0  0  0  0  0
   19.2148  -19.8645  -15.7784 O   0  0  0  0  0  0  0  0  0  0  0  0
  2 13  1  0
  2  1  1  6
  2  3  1  0
  4  3  1  0
  4 12  1  0
  5  6  1  0
  5  4  2  0
  6  7  1  0
  7  8  1  0
  7 12  2  0
  8  9  2  0
  9 10  1  0
 11 10  2  0
 12 11  1  0
 13 14  2  0
 15 16  1  0
 16 18  1  0
 17 16  2  0
 19 18  1  1
 19 21  1  0
 20 19  1  0
 20 13  1  0
 21 22  2  0
 21 27  1  0
 24 23  1  1
 24 26  1  0
 24 25  1  0
 26 28  1  0
 26 27  1  1
 28 30  2  0
 28 29  1  0
M  END
$$$$
