WNT.pdb
     RDKit          3D

 30 31  0  0  1  0  0  0  0  0999 V2000
   26.4159  -21.0452  -17.7174 N   0  0  0  0  0  0  0  0  0  0  0  0
   25.4993  -20.1488  -17.0842 C   0  0  1  0  0  0  0  0  0  0  0  0
   24.4683  -19.5831  -17.9976 C   0  0  0  0  0  0  0  0  0  0  0  0
   24.9480  -18.8128  -19.1343 C   0  0  0  0  0  0  0  0  0  0  0  0
   25.2963  -19.3296  -20.3608 C   0  0  0  0  0  0  0  0  0  0  0  0
   25.7120  -18.3212  -21.1743 N   0  0  0  0  0  0  0  0  0  0  0  0
   25.6374  -17.1618  -20.4909 C   0  0  0  0  0  0  0  0  0  0  0  0
   25.9468  -15.8804  -20.8934 C   0  0  0  0  0  0  0  0  0  0  0  0
   25.7835  -14.8404  -20.0127 C   0  0  0  0  0  0  0  0  0  0  0  0
   25.3154  -15.0987  -18.7497 C   0  0  0  0  0  0  0  0  0  0  0  0
   25.0080  -16.3843  -18.3540 C   0  0  0  0  0  0  0  0  0  0  0  0
   25.1589  -17.4566  -19.2092 C   0  0  0  0  0  0  0  0  0  0  0  0
   24.8812  -20.7737  -15.8668 C   0  0  0  0  0  0  0  0  0  0  0  0
   24.3594  -21.9271  -15.9269 O   0  0  0  0  0  0  0  0  0  0  0  0
   24.9424  -21.6288  -10.0343 N   0  0  0  0  0  0  0  0  0  0  0  0
   24.2771  -20.7638  -10.9325 C   0  0  0  0  0  0  0  0  0  0  0  0
   23.0954  -20.4502  -10.6474 O   0  0  0  0  0  0  0  0  0  0  0  0
   24.8934  -20.2253  -12.1609 C   0  0  0  0  0  0  0  0  0  0  0  0
   24.2369  -20.6083  -13.4221 C   0  0  2  0  0  0  0  0  0  0  0  0
   24.8611  -20.1079  -14.6330 N   0  0  0  0  0  0  0  0  0  0  0  0
   22.7938  -20.7033  -13.5109 C   0  0  0  0  0  0  0  0  0  0  0  0
   22.1894  -19.5641  -13.6588 O   0  0  0  0  0  0  0  0  0  0  0  0
   20.3710  -22.6560  -15.8638 C   0  0  0  0  0  0  0  0  0  0  0  0
   20.0164  -22.8306  -14.4155 C   0  0  1  0  0  0  0  0  0  0  0  0
   20.5437  -23.9910  -13.8482 O   0  0  0  0  0  0  0  0  0  0  0  0
   20.4757  -21.6775  -13.5489 C   0  0  2  0  0  0  0  0  0  0  0  0
   21.9443  -21.8163  -13.4587 N   0  0  0  0  0  0  0  0  0  0  0  0
   19.8802  -21.8653  -12.2045 C   0  0  0  0  0  0  0  0  0  0  0  0
   20.6094  -22.2893  -11.1302 O   0  0  0  0  0  0  0  0  0  0  0  0
   18.6545  -21.6287  -12.0276 O   0  0  0  0  0  0  0  0  0  0  0  0
  2 13  1  0
  2  1  1  6
  2  3  1  0
  4  3  1  0
  4 12  1  0
  5  6  1  0
  5  4  2  0
  6  7  1  0
  7  8  1  0
  7 12  2  0
  8  9  2  0
  9 10  1  0
 11 10  2  0
 12 11  1  0
 13 14  2  0
 15 16  1  0
 16 18  1  0
 17 16  2  0
 19 18  1  1
 19 21  1  0
 20 19  1  0
 20 13  1  0
 21 22  2  0
 21 27  1  0
 24 23  1  6
 24 26  1  0
 24 25  1  0
 26 28  1  0
 26 27  1  1
 28 30  2  0
 28 29  1  0
M  END
$$$$
