WNT.pdb
     RDKit          3D

 30 31  0  0  1  0  0  0  0  0999 V2000
   26.4026  -22.9342  -12.6663 N   0  0  0  0  0  0  0  0  0  0  0  0
   25.6906  -21.8830  -12.0085 C   0  0  1  0  0  0  0  0  0  0  0  0
   26.5272  -20.7001  -11.6649 C   0  0  0  0  0  0  0  0  0  0  0  0
   27.5427  -20.8876  -10.6406 C   0  0  0  0  0  0  0  0  0  0  0  0
   28.8223  -21.3440  -10.8573 C   0  0  0  0  0  0  0  0  0  0  0  0
   29.4865  -21.4064   -9.6714 N   0  0  0  0  0  0  0  0  0  0  0  0
   28.6543  -20.9976   -8.6929 C   0  0  0  0  0  0  0  0  0  0  0  0
   28.8761  -20.8863   -7.3371 C   0  0  0  0  0  0  0  0  0  0  0  0
   27.8658  -20.4353   -6.5248 C   0  0  0  0  0  0  0  0  0  0  0  0
   26.6562  -20.1046   -7.0800 C   0  0  0  0  0  0  0  0  0  0  0  0
   26.4418  -20.2189   -8.4382 C   0  0  0  0  0  0  0  0  0  0  0  0
   27.4312  -20.6688   -9.2882 C   0  0  0  0  0  0  0  0  0  0  0  0
   24.4638  -21.4913  -12.7806 C   0  0  0  0  0  0  0  0  0  0  0  0
   24.3701  -21.7479  -14.0181 O   0  0  0  0  0  0  0  0  0  0  0  0
   19.1062  -22.7040  -12.8768 N   0  0  0  0  0  0  0  0  0  0  0  0
   19.6672  -21.6145  -12.1727 C   0  0  0  0  0  0  0  0  0  0  0  0
   18.9098  -20.6417  -11.9360 O   0  0  0  0  0  0  0  0  0  0  0  0
   21.0694  -21.5693  -11.7139 C   0  0  0  0  0  0  0  0  0  0  0  0
   22.0106  -20.8807  -12.6129 C   0  0  2  0  0  0  0  0  0  0  0  0
   23.3898  -20.8344  -12.1634 N   0  0  0  0  0  0  0  0  0  0  0  0
   21.6043  -19.7059  -13.3574 C   0  0  0  0  0  0  0  0  0  0  0  0
   21.4247  -18.6457  -12.6303 O   0  0  0  0  0  0  0  0  0  0  0  0
   23.1365  -17.7066  -16.4747 C   0  0  0  0  0  0  0  0  0  0  0  0
   21.6971  -18.1109  -16.6114 C   0  0  1  0  0  0  0  0  0  0  0  0
   21.5207  -19.3364  -17.2543 O   0  0  0  0  0  0  0  0  0  0  0  0
   20.9803  -18.2122  -15.2819 C   0  0  2  0  0  0  0  0  0  0  0  0
   21.3687  -19.5256  -14.7268 N   0  0  0  0  0  0  0  0  0  0  0  0
   19.5241  -18.2060  -15.5588 C   0  0  0  0  0  0  0  0  0  0  0  0
   18.8588  -17.0862  -15.9701 O   0  0  0  0  0  0  0  0  0  0  0  0
   18.8581  -19.2668  -15.4146 O   0  0  0  0  0  0  0  0  0  0  0  0
  2 13  1  0
  2  1  1  6
  2  3  1  0
  4  3  1  0
  4 12  1  0
  5  6  1  0
  5  4  2  0
  6  7  1  0
  7  8  1  0
  7 12  2  0
  8  9  2  0
  9 10  1  0
 11 10  2  0
 12 11  1  0
 13 14  2  0
 15 16  1  0
 16 18  1  0
 17 16  2  0
 19 18  1  1
 19 21  1  0
 20 19  1  0
 20 13  1  0
 21 22  2  0
 21 27  1  0
 24 23  1  1
 24 26  1  0
 24 25  1  0
 26 28  1  0
 26 27  1  6
 28 30  2  0
 28 29  1  0
M  END
$$$$
