WNT.pdb
     RDKit          3D

 30 31  0  0  1  0  0  0  0  0999 V2000
   25.5864  -19.5666  -18.0957 N   0  0  0  0  0  0  0  0  0  0  0  0
   25.5319  -18.9499  -16.8068 C   0  0  1  0  0  0  0  0  0  0  0  0
   24.8217  -17.6413  -16.7850 C   0  0  0  0  0  0  0  0  0  0  0  0
   24.1588  -17.2320  -18.0133 C   0  0  0  0  0  0  0  0  0  0  0  0
   24.7884  -16.7736  -19.1473 C   0  0  0  0  0  0  0  0  0  0  0  0
   23.8559  -16.4715  -20.0910 N   0  0  0  0  0  0  0  0  0  0  0  0
   22.6341  -16.7277  -19.5824 C   0  0  0  0  0  0  0  0  0  0  0  0
   21.3912  -16.5825  -20.1602 C   0  0  0  0  0  0  0  0  0  0  0  0
   20.2713  -16.9172  -19.4406 C   0  0  0  0  0  0  0  0  0  0  0  0
   20.4131  -17.3895  -18.1609 C   0  0  0  0  0  0  0  0  0  0  0  0
   21.6608  -17.5319  -17.5893 C   0  0  0  0  0  0  0  0  0  0  0  0
   22.8105  -17.2060  -18.2791 C   0  0  0  0  0  0  0  0  0  0  0  0
   24.9883  -19.8950  -15.7745 C   0  0  0  0  0  0  0  0  0  0  0  0
   24.0598  -20.7066  -16.0668 O   0  0  0  0  0  0  0  0  0  0  0  0
   25.3158  -21.4224   -9.7693 N   0  0  0  0  0  0  0  0  0  0  0  0
   25.2504  -21.7477  -11.1431 C   0  0  0  0  0  0  0  0  0  0  0  0
   24.6861  -22.8280  -11.4439 O   0  0  0  0  0  0  0  0  0  0  0  0
   25.8022  -20.8957  -12.2148 C   0  0  0  0  0  0  0  0  0  0  0  0
   24.9067  -20.6523  -13.3581 C   0  0  2  0  0  0  0  0  0  0  0  0
   25.4857  -19.9115  -14.4636 N   0  0  0  0  0  0  0  0  0  0  0  0
   23.4974  -20.3833  -13.1554 C   0  0  0  0  0  0  0  0  0  0  0  0
   23.2491  -19.4436  -12.2951 O   0  0  0  0  0  0  0  0  0  0  0  0
   20.3581  -21.0595  -15.6492 C   0  0  0  0  0  0  0  0  0  0  0  0
   20.2577  -20.1397  -14.4669 C   0  0  1  0  0  0  0  0  0  0  0  0
   18.9458  -19.8948  -14.0605 O   0  0  0  0  0  0  0  0  0  0  0  0
   20.9990  -20.6533  -13.2510 C   0  0  2  0  0  0  0  0  0  0  0  0
   22.3614  -20.9704  -13.7280 N   0  0  0  0  0  0  0  0  0  0  0  0
   20.3280  -21.9007  -12.8137 C   0  0  0  0  0  0  0  0  0  0  0  0
   19.0915  -21.9057  -12.2335 O   0  0  0  0  0  0  0  0  0  0  0  0
   20.9066  -23.0091  -12.9761 O   0  0  0  0  0  0  0  0  0  0  0  0
  2 13  1  0
  2  1  1  6
  2  3  1  0
  4  3  1  0
  4 12  1  0
  5  6  1  0
  5  4  2  0
  6  7  1  0
  7  8  1  0
  7 12  2  0
  8  9  2  0
  9 10  1  0
 11 10  2  0
 12 11  1  0
 13 14  2  0
 15 16  1  0
 16 18  1  0
 17 16  2  0
 19 18  1  1
 19 21  1  0
 20 19  1  0
 20 13  1  0
 21 22  2  0
 21 27  1  0
 24 23  1  6
 24 26  1  0
 24 25  1  0
 26 28  1  0
 26 27  1  6
 28 30  2  0
 28 29  1  0
M  END
$$$$
