WNT.pdb
     RDKit          3D

 30 31  0  0  1  0  0  0  0  0999 V2000
   26.8859  -22.1047  -15.0183 N   0  0  0  0  0  0  0  0  0  0  0  0
   26.6043  -21.4873  -13.7596 C   0  0  1  0  0  0  0  0  0  0  0  0
   27.1646  -20.1155  -13.6129 C   0  0  0  0  0  0  0  0  0  0  0  0
   28.5353  -20.0120  -13.1375 C   0  0  0  0  0  0  0  0  0  0  0  0
   29.4954  -19.1664  -13.6430 C   0  0  0  0  0  0  0  0  0  0  0  0
   30.6611  -19.3501  -12.9658 N   0  0  0  0  0  0  0  0  0  0  0  0
   30.4675  -20.3020  -12.0312 C   0  0  0  0  0  0  0  0  0  0  0  0
   31.3487  -20.8224  -11.1080 C   0  0  0  0  0  0  0  0  0  0  0  0
   30.9184  -21.7957  -10.2412 C   0  0  0  0  0  0  0  0  0  0  0  0
   29.6195  -22.2300  -10.3122 C   0  0  0  0  0  0  0  0  0  0  0  0
   28.7433  -21.7043  -11.2394 C   0  0  0  0  0  0  0  0  0  0  0  0
   29.1371  -20.7254  -12.1284 C   0  0  0  0  0  0  0  0  0  0  0  0
   25.1349  -21.5237  -13.4529 C   0  0  0  0  0  0  0  0  0  0  0  0
   24.2907  -21.7747  -14.3642 O   0  0  0  0  0  0  0  0  0  0  0  0
   23.7688  -19.3381   -9.2617 N   0  0  0  0  0  0  0  0  0  0  0  0
   22.7669  -20.2917   -9.5523 C   0  0  0  0  0  0  0  0  0  0  0  0
   21.6132  -20.0519   -9.1193 O   0  0  0  0  0  0  0  0  0  0  0  0
   23.0093  -21.5270  -10.3230 C   0  0  0  0  0  0  0  0  0  0  0  0
   23.2566  -21.3400  -11.7625 C   0  0  2  0  0  0  0  0  0  0  0  0
   24.6516  -21.2836  -12.1588 N   0  0  0  0  0  0  0  0  0  0  0  0
   22.3926  -20.4955  -12.5625 C   0  0  0  0  0  0  0  0  0  0  0  0
   22.4309  -19.2370  -12.2468 O   0  0  0  0  0  0  0  0  0  0  0  0
   21.7975  -19.9590  -16.4993 C   0  0  0  0  0  0  0  0  0  0  0  0
   20.5510  -20.2127  -15.7020 C   0  0  1  0  0  0  0  0  0  0  0  0
   20.1599  -21.5518  -15.6894 O   0  0  0  0  0  0  0  0  0  0  0  0
   20.6745  -19.7840  -14.2554 C   0  0  2  0  0  0  0  0  0  0  0  0
   21.5215  -20.8110  -13.6136 N   0  0  0  0  0  0  0  0  0  0  0  0
   19.3170  -19.8239  -13.6611 C   0  0  0  0  0  0  0  0  0  0  0  0
   18.3396  -18.9322  -14.0003 O   0  0  0  0  0  0  0  0  0  0  0  0
   19.0364  -20.7087  -12.8079 O   0  0  0  0  0  0  0  0  0  0  0  0
  2 13  1  0
  2  1  1  6
  2  3  1  0
  4  3  1  0
  4 12  1  0
  5  6  1  0
  5  4  2  0
  6  7  1  0
  7  8  1  0
  7 12  2  0
  8  9  2  0
  9 10  1  0
 11 10  2  0
 12 11  1  0
 13 14  2  0
 15 16  1  0
 16 18  1  0
 17 16  2  0
 19 18  1  1
 19 21  1  0
 20 19  1  0
 20 13  1  0
 21 22  2  0
 21 27  1  0
 24 23  1  1
 24 26  1  0
 24 25  1  0
 26 28  1  0
 26 27  1  1
 28 30  2  0
 28 29  1  0
M  END
$$$$
