WNT.pdb
     RDKit          3D

 30 31  0  0  1  0  0  0  0  0999 V2000
   26.7009  -21.7503  -10.6423 N   0  0  0  0  0  0  0  0  0  0  0  0
   25.8143  -21.1805   -9.6759 C   0  0  1  0  0  0  0  0  0  0  0  0
   26.3858  -20.0272   -8.9273 C   0  0  0  0  0  0  0  0  0  0  0  0
   27.6349  -20.2569   -8.2183 C   0  0  0  0  0  0  0  0  0  0  0  0
   28.7665  -20.8254   -8.7557 C   0  0  0  0  0  0  0  0  0  0  0  0
   29.7339  -20.8952   -7.8014 N   0  0  0  0  0  0  0  0  0  0  0  0
   29.2430  -20.3806   -6.6563 C   0  0  0  0  0  0  0  0  0  0  0  0
   29.8471  -20.2341   -5.4261 C   0  0  0  0  0  0  0  0  0  0  0  0
   29.1417  -19.6695   -4.3929 C   0  0  0  0  0  0  0  0  0  0  0  0
   27.8496  -19.2625   -4.6070 C   0  0  0  0  0  0  0  0  0  0  0  0
   27.2516  -19.4127   -5.8414 C   0  0  0  0  0  0  0  0  0  0  0  0
   27.9265  -19.9760   -6.9049 C   0  0  0  0  0  0  0  0  0  0  0  0
   24.4862  -20.8422  -10.2894 C   0  0  0  0  0  0  0  0  0  0  0  0
   23.4813  -20.5940   -9.5583 O   0  0  0  0  0  0  0  0  0  0  0  0
   20.4146  -19.8190  -11.3915 N   0  0  0  0  0  0  0  0  0  0  0  0
   21.3128  -18.8204  -11.8314 C   0  0  0  0  0  0  0  0  0  0  0  0
   20.9319  -17.6288  -11.7260 O   0  0  0  0  0  0  0  0  0  0  0  0
   22.6462  -19.1076  -12.3956 C   0  0  0  0  0  0  0  0  0  0  0  0
   23.0611  -20.5200  -12.3593 C   0  0  2  0  0  0  0  0  0  0  0  0
   24.3150  -20.7896  -11.6801 N   0  0  0  0  0  0  0  0  0  0  0  0
   22.8112  -21.3982  -13.4844 C   0  0  0  0  0  0  0  0  0  0  0  0
   23.6996  -21.3268  -14.4281 O   0  0  0  0  0  0  0  0  0  0  0  0
   22.5433  -25.2486  -14.0727 C   0  0  0  0  0  0  0  0  0  0  0  0
   21.3505  -24.4875  -14.5745 C   0  0  1  0  0  0  0  0  0  0  0  0
   20.3131  -24.4010  -13.6459 O   0  0  0  0  0  0  0  0  0  0  0  0
   21.6822  -23.0691  -14.9868 C   0  0  2  0  0  0  0  0  0  0  0  0
   21.7707  -22.3051  -13.7248 N   0  0  0  0  0  0  0  0  0  0  0  0
   20.5452  -22.5611  -15.7909 C   0  0  0  0  0  0  0  0  0  0  0  0
   20.2537  -23.0400  -17.0364 O   0  0  0  0  0  0  0  0  0  0  0  0
   19.8080  -21.6519  -15.3223 O   0  0  0  0  0  0  0  0  0  0  0  0
  2 13  1  0
  2  1  1  6
  2  3  1  0
  4  3  1  0
  4 12  1  0
  5  6  1  0
  5  4  2  0
  6  7  1  0
  7  8  1  0
  7 12  2  0
  8  9  2  0
  9 10  1  0
 11 10  2  0
 12 11  1  0
 13 14  2  0
 15 16  1  0
 16 18  1  0
 17 16  2  0
 19 18  1  6
 19 21  1  0
 20 19  1  0
 20 13  1  0
 21 22  2  0
 21 27  1  0
 24 23  1  1
 24 26  1  0
 24 25  1  0
 26 28  1  0
 26 27  1  1
 28 30  2  0
 28 29  1  0
M  END
$$$$
