PRS.pdb
     RDKit          3D

 25 25  0  0  1  0  0  0  0  0999 V2000
   10.6287  -22.2118   18.9329 N   0  0  0  0  0  0  0  0  0  0  0  0
   11.9322  -22.8280   18.9700 C   0  0  0  0  0  0  0  0  0  0  0  0
   12.4796  -22.6272   20.3694 C   0  0  0  0  0  0  0  0  0  0  0  0
   11.1556  -22.5955   21.1341 C   0  0  0  0  0  0  0  0  0  0  0  0
   10.3945  -21.6362   20.2428 C   0  0  1  0  0  0  0  0  0  0  0  0
   10.9810  -20.2545   20.3051 C   0  0  0  0  0  0  0  0  0  0  0  0
   12.1153  -20.0728   19.7853 O   0  0  0  0  0  0  0  0  0  0  0  0
    7.1354  -12.4932   19.0121 N   0  0  0  0  0  0  0  0  0  0  0  0
    8.5340  -12.2377   19.1531 C   0  0  0  0  0  0  0  0  0  0  0  0
    9.0044  -11.0701   18.8947 N   0  0  0  0  0  0  0  0  0  0  0  0
    9.4426  -13.2474   19.5768 N   0  0  0  0  0  0  0  0  0  0  0  0
    8.9500  -14.5852   19.8761 C   0  0  0  0  0  0  0  0  0  0  0  0
   10.0667  -15.4516   20.3389 C   0  0  0  0  0  0  0  0  0  0  0  0
    9.6421  -16.8763   20.5267 C   0  0  0  0  0  0  0  0  0  0  0  0
   10.8047  -17.7980   20.7616 C   0  0  2  0  0  0  0  0  0  0  0  0
   10.3294  -19.1754   20.9078 N   0  0  0  0  0  0  0  0  0  0  0  0
   11.5146  -17.3930   22.0144 C   0  0  0  0  0  0  0  0  0  0  0  0
   10.9514  -17.5145   23.1106 O   0  0  0  0  0  0  0  0  0  0  0  0
   10.0202  -10.8621   18.9603 O   0  0  0  0  0  0  0  0  0  0  0  0
   15.4144  -17.5547   21.9536 C   0  0  0  0  0  0  0  0  0  0  0  0
   14.7949  -17.3561   23.1718 C   0  0  1  0  0  0  0  0  0  0  0  0
   13.5866  -16.4235   23.0561 N   0  0  0  0  0  0  0  0  0  0  0  0
   12.8276  -16.8750   21.9166 C   0  0  0  0  0  0  0  0  0  0  0  0
   14.1200  -15.0586   22.8720 O   0  0  0  0  0  0  0  0  0  0  0  0
   13.9323  -14.4616   21.7884 O   0  0  0  0  0  0  0  0  0  0  0  0
  1  2  1  0
  3  2  1  0
  4  5  1  0
  4  3  1  0
  5  1  1  0
  5  6  1  6
  7  6  2  0
  9  8  1  0
 10  9  2  0
 11  9  1  0
 12 13  1  0
 12 11  1  0
 13 14  1  0
 15 14  1  1
 15 16  1  0
 16  6  1  0
 17 22  1  0
 17 15  1  0
 18 17  2  0
 19 20  1  0
 21 20  1  1
 21 23  1  0
 21 22  1  0
 23 25  1  0
 24 23  2  0
M  END
$$$$
