PRS.pdb
     RDKit          3D

 25 25  0  0  1  0  0  0  0  0999 V2000
   13.8063  -16.5153   18.5153 N   0  0  0  0  0  0  0  0  0  0  0  0
   13.2492  -15.4249   17.7533 C   0  0  0  0  0  0  0  0  0  0  0  0
   13.6584  -14.1413   18.4486 C   0  0  0  0  0  0  0  0  0  0  0  0
   14.9790  -14.6172   19.0556 C   0  0  0  0  0  0  0  0  0  0  0  0
   14.5059  -15.9308   19.6426 C   0  0  1  0  0  0  0  0  0  0  0  0
   13.5469  -15.7054   20.7769 C   0  0  0  0  0  0  0  0  0  0  0  0
   13.8805  -14.8860   21.6754 O   0  0  0  0  0  0  0  0  0  0  0  0
    7.5546  -12.6481   20.2309 N   0  0  0  0  0  0  0  0  0  0  0  0
    7.9313  -13.1917   18.9645 C   0  0  0  0  0  0  0  0  0  0  0  0
    8.1100  -12.4139   17.9573 N   0  0  0  0  0  0  0  0  0  0  0  0
    8.1193  -14.5892   18.7735 N   0  0  0  0  0  0  0  0  0  0  0  0
    8.3214  -15.4567   19.9261 C   0  0  0  0  0  0  0  0  0  0  0  0
    9.7021  -15.2947   20.4544 C   0  0  0  0  0  0  0  0  0  0  0  0
    9.9942  -16.2358   21.5832 C   0  0  0  0  0  0  0  0  0  0  0  0
   11.4281  -16.1765   22.0268 C   0  0  2  0  0  0  0  0  0  0  0  0
   12.3155  -16.3582   20.8762 N   0  0  0  0  0  0  0  0  0  0  0  0
   11.6871  -17.2668   23.0176 C   0  0  0  0  0  0  0  0  0  0  0  0
   11.9451  -18.4119   22.6229 O   0  0  0  0  0  0  0  0  0  0  0  0
    8.4613  -12.7693   17.0465 O   0  0  0  0  0  0  0  0  0  0  0  0
   11.8428  -18.0494   27.8477 C   0  0  0  0  0  0  0  0  0  0  0  0
   11.6468  -17.2118   26.7673 C   0  0  2  0  0  0  0  0  0  0  0  0
   11.8035  -17.9479   25.4344 N   0  0  0  0  0  0  0  0  0  0  0  0
   11.6308  -16.9609   24.3979 C   0  0  0  0  0  0  0  0  0  0  0  0
   10.7573  -18.9899   25.3993 O   0  0  0  0  0  0  0  0  0  0  0  0
    9.6658  -18.7524   24.8353 O   0  0  0  0  0  0  0  0  0  0  0  0
  1  2  1  0
  3  2  1  0
  4  5  1  0
  4  3  1  0
  5  1  1  0
  5  6  1  1
  7  6  2  0
  9  8  1  0
 10  9  2  0
 11  9  1  0
 12 13  1  0
 12 11  1  0
 13 14  1  0
 15 14  1  6
 15 16  1  0
 16  6  1  0
 17 22  1  0
 17 15  1  0
 18 17  2  0
 19 20  1  0
 21 20  1  1
 21 23  1  0
 21 22  1  0
 23 25  1  0
 24 23  2  0
M  END
$$$$
