PRS.pdb
     RDKit          3D

 25 25  0  0  1  0  0  0  0  0999 V2000
    7.7435  -14.8995   18.9983 N   0  0  0  0  0  0  0  0  0  0  0  0
    6.6569  -13.9532   18.9360 C   0  0  0  0  0  0  0  0  0  0  0  0
    7.0006  -12.8182   19.8804 C   0  0  0  0  0  0  0  0  0  0  0  0
    8.5252  -12.8885   19.7824 C   0  0  0  0  0  0  0  0  0  0  0  0
    8.7013  -14.3828   19.9562 C   0  0  1  0  0  0  0  0  0  0  0  0
    8.3210  -14.8174   21.3431 C   0  0  0  0  0  0  0  0  0  0  0  0
    7.0965  -14.8199   21.6439 O   0  0  0  0  0  0  0  0  0  0  0  0
   12.8398  -18.1160   28.1366 N   0  0  0  0  0  0  0  0  0  0  0  0
   11.4773  -18.1544   28.5648 C   0  0  0  0  0  0  0  0  0  0  0  0
   11.1975  -18.3149   29.8086 N   0  0  0  0  0  0  0  0  0  0  0  0
   10.3980  -18.0193   27.6473 N   0  0  0  0  0  0  0  0  0  0  0  0
   10.6721  -17.7605   26.2402 C   0  0  0  0  0  0  0  0  0  0  0  0
    9.6456  -16.8431   25.6777 C   0  0  0  0  0  0  0  0  0  0  0  0
    9.8464  -16.5924   24.2141 C   0  0  0  0  0  0  0  0  0  0  0  0
    8.8656  -15.5990   23.6596 C   0  0  2  0  0  0  0  0  0  0  0  0
    9.2567  -15.2144   22.3018 N   0  0  0  0  0  0  0  0  0  0  0  0
    8.8507  -14.3792   24.5252 C   0  0  0  0  0  0  0  0  0  0  0  0
    9.7864  -13.5698   24.4685 O   0  0  0  0  0  0  0  0  0  0  0  0
   10.2166  -18.3592   30.1481 O   0  0  0  0  0  0  0  0  0  0  0  0
    5.5500  -11.9715   25.6619 C   0  0  0  0  0  0  0  0  0  0  0  0
    6.1429  -12.8508   26.5466 C   0  0  2  0  0  0  0  0  0  0  0  0
    7.6366  -13.0296   26.2638 N   0  0  0  0  0  0  0  0  0  0  0  0
    7.7559  -14.1762   25.3982 C   0  0  0  0  0  0  0  0  0  0  0  0
    8.2937  -13.2396   27.5698 O   0  0  0  0  0  0  0  0  0  0  0  0
    8.2245  -12.3506   28.4477 O   0  0  0  0  0  0  0  0  0  0  0  0
  1  2  1  0
  3  2  1  0
  4  5  1  0
  4  3  1  0
  5  1  1  0
  5  6  1  1
  7  6  2  0
  9  8  1  0
 10  9  2  0
 11  9  1  0
 12 13  1  0
 12 11  1  0
 13 14  1  0
 15 14  1  1
 15 16  1  0
 16  6  1  0
 17 22  1  0
 17 15  1  0
 18 17  2  0
 19 20  1  0
 21 20  1  6
 21 23  1  0
 21 22  1  0
 23 25  1  0
 24 23  2  0
M  END
$$$$
