PRS.pdb
     RDKit          3D

 25 25  0  0  1  0  0  0  0  0999 V2000
   11.4025  -19.0983   17.6327 N   0  0  0  0  0  0  0  0  0  0  0  0
   12.3378  -20.1209   18.0322 C   0  0  0  0  0  0  0  0  0  0  0  0
   11.7522  -20.8083   19.2500 C   0  0  0  0  0  0  0  0  0  0  0  0
   10.2684  -20.6080   18.9384 C   0  0  0  0  0  0  0  0  0  0  0  0
   10.3026  -19.1377   18.5765 C   0  0  1  0  0  0  0  0  0  0  0  0
   10.6273  -18.2904   19.7739 C   0  0  0  0  0  0  0  0  0  0  0  0
   11.8176  -18.2914   20.1900 O   0  0  0  0  0  0  0  0  0  0  0  0
    7.2593  -14.8162   18.0441 N   0  0  0  0  0  0  0  0  0  0  0  0
    7.5051  -13.4200   18.2215 C   0  0  0  0  0  0  0  0  0  0  0  0
    7.6449  -12.6556   17.1981 N   0  0  0  0  0  0  0  0  0  0  0  0
    7.6031  -12.8334   19.5142 N   0  0  0  0  0  0  0  0  0  0  0  0
    7.7005  -13.6866   20.6908 C   0  0  0  0  0  0  0  0  0  0  0  0
    8.8581  -14.6111   20.5599 C   0  0  0  0  0  0  0  0  0  0  0  0
    8.9544  -15.5694   21.7078 C   0  0  0  0  0  0  0  0  0  0  0  0
   10.0397  -16.5903   21.5169 C   0  0  2  0  0  0  0  0  0  0  0  0
    9.6764  -17.5107   20.4374 N   0  0  0  0  0  0  0  0  0  0  0  0
   10.2168  -17.3695   22.7814 C   0  0  0  0  0  0  0  0  0  0  0  0
    9.3126  -18.1168   23.1784 O   0  0  0  0  0  0  0  0  0  0  0  0
    7.8732  -11.6467   17.2951 O   0  0  0  0  0  0  0  0  0  0  0  0
   13.9007  -16.9195   24.5493 C   0  0  0  0  0  0  0  0  0  0  0  0
   13.3022  -18.1608   24.6419 C   0  0  1  0  0  0  0  0  0  0  0  0
   11.7746  -18.0640   24.6278 N   0  0  0  0  0  0  0  0  0  0  0  0
   11.4267  -17.2331   23.5022 C   0  0  0  0  0  0  0  0  0  0  0  0
   11.3755  -17.4622   25.9162 O   0  0  0  0  0  0  0  0  0  0  0  0
   11.6440  -18.0542   26.9855 O   0  0  0  0  0  0  0  0  0  0  0  0
  1  2  1  0
  3  2  1  0
  4  5  1  0
  4  3  1  0
  5  1  1  0
  5  6  1  1
  7  6  2  0
  9  8  1  0
 10  9  2  0
 11  9  1  0
 12 13  1  0
 12 11  1  0
 13 14  1  0
 15 14  1  1
 15 16  1  0
 16  6  1  0
 17 22  1  0
 17 15  1  0
 18 17  2  0
 19 20  1  0
 21 20  1  6
 21 23  1  0
 21 22  1  0
 23 25  1  0
 24 23  2  0
M  END
$$$$
