PRS.pdb
     RDKit          3D

 25 25  0  0  1  0  0  0  0  0999 V2000
    8.6412  -14.1642   18.2387 N   0  0  0  0  0  0  0  0  0  0  0  0
    7.2844  -13.7216   18.4467 C   0  0  0  0  0  0  0  0  0  0  0  0
    7.2318  -13.0773   19.8180 C   0  0  0  0  0  0  0  0  0  0  0  0
    8.6735  -12.5723   19.8924 C   0  0  0  0  0  0  0  0  0  0  0  0
    9.3847  -13.8297   19.4375 C   0  0  1  0  0  0  0  0  0  0  0  0
    9.2429  -14.9310   20.4495 C   0  0  0  0  0  0  0  0  0  0  0  0
    8.1339  -15.0507   21.0373 O   0  0  0  0  0  0  0  0  0  0  0  0
   10.6384  -22.1273   17.5132 N   0  0  0  0  0  0  0  0  0  0  0  0
    9.5287  -21.2652   17.2546 C   0  0  0  0  0  0  0  0  0  0  0  0
    8.7257  -21.5225   16.2849 N   0  0  0  0  0  0  0  0  0  0  0  0
    9.2752  -20.1102   18.0460 N   0  0  0  0  0  0  0  0  0  0  0  0
   10.1382  -19.8052   19.1791 C   0  0  0  0  0  0  0  0  0  0  0  0
    9.6427  -18.5973   19.8912 C   0  0  0  0  0  0  0  0  0  0  0  0
   10.5177  -18.2183   21.0470 C   0  0  0  0  0  0  0  0  0  0  0  0
   10.0920  -16.9316   21.6947 C   0  0  2  0  0  0  0  0  0  0  0  0
   10.2767  -15.8174   20.7626 N   0  0  0  0  0  0  0  0  0  0  0  0
   10.9251  -16.6894   22.9132 C   0  0  0  0  0  0  0  0  0  0  0  0
   12.0098  -16.1003   22.8130 O   0  0  0  0  0  0  0  0  0  0  0  0
    7.9598  -20.8722   16.0208 O   0  0  0  0  0  0  0  0  0  0  0  0
   10.8660  -17.0307   27.7637 C   0  0  0  0  0  0  0  0  0  0  0  0
   10.2343  -17.1156   26.5385 C   0  0  2  0  0  0  0  0  0  0  0  0
   11.2299  -17.0881   25.3762 N   0  0  0  0  0  0  0  0  0  0  0  0
   10.4489  -17.1437   24.1657 C   0  0  0  0  0  0  0  0  0  0  0  0
   12.1031  -18.2684   25.5373 O   0  0  0  0  0  0  0  0  0  0  0  0
   11.7759  -19.3566   25.0133 O   0  0  0  0  0  0  0  0  0  0  0  0
  1  2  1  0
  3  2  1  0
  4  5  1  0
  4  3  1  0
  5  1  1  0
  5  6  1  1
  7  6  2  0
  9  8  1  0
 10  9  2  0
 11  9  1  0
 12 13  1  0
 12 11  1  0
 13 14  1  0
 15 14  1  6
 15 16  1  0
 16  6  1  0
 17 22  1  0
 17 15  1  0
 18 17  2  0
 19 20  1  0
 21 20  1  6
 21 23  1  0
 21 22  1  0
 23 25  1  0
 24 23  2  0
M  END
$$$$
