PRS.pdb
     RDKit          3D

 25 25  0  0  1  0  0  0  0  0999 V2000
    8.8298  -14.0568   17.4924 N   0  0  0  0  0  0  0  0  0  0  0  0
    7.4079  -14.0492   17.2508 C   0  0  0  0  0  0  0  0  0  0  0  0
    6.7619  -13.3307   18.4191 C   0  0  0  0  0  0  0  0  0  0  0  0
    7.9135  -12.3908   18.7789 C   0  0  0  0  0  0  0  0  0  0  0  0
    9.0473  -13.3949   18.7638 C   0  0  1  0  0  0  0  0  0  0  0  0
    8.9110  -14.3858   19.8847 C   0  0  0  0  0  0  0  0  0  0  0  0
    8.4856  -13.9642   20.9943 O   0  0  0  0  0  0  0  0  0  0  0  0
   10.8089  -22.1000   17.3327 N   0  0  0  0  0  0  0  0  0  0  0  0
   11.7934  -21.0647   17.3360 C   0  0  0  0  0  0  0  0  0  0  0  0
   12.8889  -21.2158   16.6814 N   0  0  0  0  0  0  0  0  0  0  0  0
   11.6024  -19.8494   18.0510 N   0  0  0  0  0  0  0  0  0  0  0  0
   10.4138  -19.6732   18.8745 C   0  0  0  0  0  0  0  0  0  0  0  0
   10.3933  -18.3063   19.4601 C   0  0  0  0  0  0  0  0  0  0  0  0
    9.2162  -18.0905   20.3618 C   0  0  0  0  0  0  0  0  0  0  0  0
    9.1292  -16.6790   20.8684 C   0  0  2  0  0  0  0  0  0  0  0  0
    9.2321  -15.7391   19.7501 N   0  0  0  0  0  0  0  0  0  0  0  0
   10.2521  -16.4237   21.8230 C   0  0  0  0  0  0  0  0  0  0  0  0
   11.2889  -15.8757   21.4251 O   0  0  0  0  0  0  0  0  0  0  0  0
   13.6390  -20.4971   16.6956 O   0  0  0  0  0  0  0  0  0  0  0  0
    9.2435  -16.6905   25.6593 C   0  0  0  0  0  0  0  0  0  0  0  0
   10.4670  -16.0983   25.4150 C   0  0  1  0  0  0  0  0  0  0  0  0
   11.1394  -16.6657   24.1623 N   0  0  0  0  0  0  0  0  0  0  0  0
   10.1017  -16.8186   23.1733 C   0  0  0  0  0  0  0  0  0  0  0  0
   11.7408  -17.9573   24.5514 O   0  0  0  0  0  0  0  0  0  0  0  0
   11.2585  -19.0234   24.1077 O   0  0  0  0  0  0  0  0  0  0  0  0
  1  2  1  0
  3  2  1  0
  4  5  1  0
  4  3  1  0
  5  1  1  0
  5  6  1  1
  7  6  2  0
  9  8  1  0
 10  9  2  0
 11  9  1  0
 12 13  1  0
 12 11  1  0
 13 14  1  0
 15 14  1  6
 15 16  1  0
 16  6  1  0
 17 22  1  0
 17 15  1  0
 18 17  2  0
 19 20  1  0
 21 20  1  6
 21 23  1  0
 21 22  1  0
 23 25  1  0
 24 23  2  0
M  END
$$$$
