PRS.pdb
     RDKit          3D

 25 25  0  0  1  0  0  0  0  0999 V2000
    5.5988  -20.2117   20.8351 N   0  0  0  0  0  0  0  0  0  0  0  0
    5.6251  -21.1131   21.9607 C   0  0  0  0  0  0  0  0  0  0  0  0
    5.1647  -20.3261   23.1719 C   0  0  0  0  0  0  0  0  0  0  0  0
    4.2437  -19.3305   22.4652 C   0  0  0  0  0  0  0  0  0  0  0  0
    5.1655  -18.9217   21.3351 C   0  0  1  0  0  0  0  0  0  0  0  0
    6.3479  -18.1508   21.8498 C   0  0  0  0  0  0  0  0  0  0  0  0
    7.3342  -18.8061   22.2828 O   0  0  0  0  0  0  0  0  0  0  0  0
    6.7706  -13.7295   17.3605 N   0  0  0  0  0  0  0  0  0  0  0  0
    8.1478  -13.4118   17.5689 C   0  0  0  0  0  0  0  0  0  0  0  0
    9.0219  -13.7218   16.6795 N   0  0  0  0  0  0  0  0  0  0  0  0
    8.5960  -12.7524   18.7476 N   0  0  0  0  0  0  0  0  0  0  0  0
    7.8916  -12.9600   20.0055 C   0  0  0  0  0  0  0  0  0  0  0  0
    8.2686  -14.2726   20.5943 C   0  0  0  0  0  0  0  0  0  0  0  0
    7.4910  -14.5842   21.8366 C   0  0  0  0  0  0  0  0  0  0  0  0
    7.6111  -16.0245   22.2459 C   0  0  2  0  0  0  0  0  0  0  0  0
    6.3992  -16.7546   21.8681 N   0  0  0  0  0  0  0  0  0  0  0  0
    7.7857  -16.1066   23.7292 C   0  0  0  0  0  0  0  0  0  0  0  0
    6.8722  -15.7388   24.4802 O   0  0  0  0  0  0  0  0  0  0  0  0
   10.0356  -13.5446   16.8226 O   0  0  0  0  0  0  0  0  0  0  0  0
    9.3723  -19.1354   25.2537 C   0  0  0  0  0  0  0  0  0  0  0  0
    8.7925  -18.1601   26.0410 C   0  0  1  0  0  0  0  0  0  0  0  0
    9.2642  -16.7558   25.6555 N   0  0  0  0  0  0  0  0  0  0  0  0
    9.0038  -16.6083   24.2453 C   0  0  0  0  0  0  0  0  0  0  0  0
   10.7055  -16.6904   25.9715 O   0  0  0  0  0  0  0  0  0  0  0  0
   11.0891  -16.8610   27.1504 O   0  0  0  0  0  0  0  0  0  0  0  0
  1  2  1  0
  3  2  1  0
  4  5  1  0
  4  3  1  0
  5  1  1  0
  5  6  1  1
  7  6  2  0
  9  8  1  0
 10  9  2  0
 11  9  1  0
 12 13  1  0
 12 11  1  0
 13 14  1  0
 15 14  1  1
 15 16  1  0
 16  6  1  0
 17 22  1  0
 17 15  1  0
 18 17  2  0
 19 20  1  0
 21 20  1  1
 21 23  1  0
 21 22  1  0
 23 25  1  0
 24 23  2  0
M  END
$$$$
