PRS.pdb
     RDKit          3D

 25 25  0  0  1  0  0  0  0  0999 V2000
    8.3485  -14.3404   17.6911 N   0  0  0  0  0  0  0  0  0  0  0  0
    7.1337  -13.5761   17.8337 C   0  0  0  0  0  0  0  0  0  0  0  0
    7.2719  -12.7530   19.0993 C   0  0  0  0  0  0  0  0  0  0  0  0
    8.7919  -12.5842   19.1015 C   0  0  0  0  0  0  0  0  0  0  0  0
    9.1864  -14.0211   18.8303 C   0  0  1  0  0  0  0  0  0  0  0  0
    8.8327  -14.9100   19.9887 C   0  0  0  0  0  0  0  0  0  0  0  0
    7.6953  -14.7674   20.5138 O   0  0  0  0  0  0  0  0  0  0  0  0
    9.2181  -22.1649   18.1033 N   0  0  0  0  0  0  0  0  0  0  0  0
   10.2934  -21.2247   18.0710 C   0  0  0  0  0  0  0  0  0  0  0  0
   11.1426  -21.2505   17.1069 N   0  0  0  0  0  0  0  0  0  0  0  0
   10.4621  -20.2421   19.0863 N   0  0  0  0  0  0  0  0  0  0  0  0
    9.5646  -20.2251   20.2335 C   0  0  0  0  0  0  0  0  0  0  0  0
    9.0454  -18.8498   20.4585 C   0  0  0  0  0  0  0  0  0  0  0  0
    9.8476  -18.0975   21.4763 C   0  0  0  0  0  0  0  0  0  0  0  0
    9.3587  -16.6904   21.6701 C   0  0  2  0  0  0  0  0  0  0  0  0
    9.7015  -15.8765   20.5020 N   0  0  0  0  0  0  0  0  0  0  0  0
   10.0091  -16.1009   22.8813 C   0  0  0  0  0  0  0  0  0  0  0  0
   11.1946  -15.7457   22.8349 O   0  0  0  0  0  0  0  0  0  0  0  0
   11.8778  -20.5236   17.0050 O   0  0  0  0  0  0  0  0  0  0  0  0
    7.4624  -15.0457   25.7860 C   0  0  0  0  0  0  0  0  0  0  0  0
    8.7382  -14.5293   25.9000 C   0  0  1  0  0  0  0  0  0  0  0  0
    9.7920  -15.4658   25.3036 N   0  0  0  0  0  0  0  0  0  0  0  0
    9.2463  -15.9613   24.0647 C   0  0  0  0  0  0  0  0  0  0  0  0
   10.0120  -16.5413   26.2917 O   0  0  0  0  0  0  0  0  0  0  0  0
    9.6675  -17.7128   26.0185 O   0  0  0  0  0  0  0  0  0  0  0  0
  1  2  1  0
  3  2  1  0
  4  5  1  0
  4  3  1  0
  5  1  1  0
  5  6  1  1
  7  6  2  0
  9  8  1  0
 10  9  2  0
 11  9  1  0
 12 13  1  0
 12 11  1  0
 13 14  1  0
 15 14  1  6
 15 16  1  0
 16  6  1  0
 17 22  1  0
 17 15  1  0
 18 17  2  0
 19 20  1  0
 21 20  1  6
 21 23  1  0
 21 22  1  0
 23 25  1  0
 24 23  2  0
M  END
$$$$
