PRS.pdb
     RDKit          3D

 25 25  0  0  1  0  0  0  0  0999 V2000
    7.3309  -15.2705   19.3235 N   0  0  0  0  0  0  0  0  0  0  0  0
    6.3698  -14.2673   19.7108 C   0  0  0  0  0  0  0  0  0  0  0  0
    7.1237  -12.9593   19.8505 C   0  0  0  0  0  0  0  0  0  0  0  0
    8.2276  -13.2172   18.8239 C   0  0  0  0  0  0  0  0  0  0  0  0
    8.6222  -14.6153   19.2520 C   0  0  1  0  0  0  0  0  0  0  0  0
    9.2658  -14.6070   20.6095 C   0  0  0  0  0  0  0  0  0  0  0  0
   10.3770  -14.0233   20.7302 O   0  0  0  0  0  0  0  0  0  0  0  0
    9.3073  -15.9956   28.5493 N   0  0  0  0  0  0  0  0  0  0  0  0
    9.3453  -14.5690   28.6174 C   0  0  0  0  0  0  0  0  0  0  0  0
    9.9550  -13.9866   29.5872 N   0  0  0  0  0  0  0  0  0  0  0  0
    8.7209  -13.7535   27.6325 N   0  0  0  0  0  0  0  0  0  0  0  0
    8.0667  -14.3734   26.4882 C   0  0  0  0  0  0  0  0  0  0  0  0
    9.0502  -14.6019   25.3964 C   0  0  0  0  0  0  0  0  0  0  0  0
    8.4017  -15.0980   24.1400 C   0  0  0  0  0  0  0  0  0  0  0  0
    9.3838  -15.2827   23.0185 C   0  0  2  0  0  0  0  0  0  0  0  0
    8.6910  -15.2119   21.7303 N   0  0  0  0  0  0  0  0  0  0  0  0
   10.0374  -16.6221   23.1460 C   0  0  0  0  0  0  0  0  0  0  0  0
    9.3811  -17.6521   22.9403 O   0  0  0  0  0  0  0  0  0  0  0  0
   10.0037  -12.9515   29.6607 O   0  0  0  0  0  0  0  0  0  0  0  0
   14.0458  -16.4258   23.5778 C   0  0  0  0  0  0  0  0  0  0  0  0
   13.5557  -17.6195   23.0858 C   0  0  1  0  0  0  0  0  0  0  0  0
   12.1444  -17.9158   23.5991 N   0  0  0  0  0  0  0  0  0  0  0  0
   11.4053  -16.6818   23.5025 C   0  0  0  0  0  0  0  0  0  0  0  0
   12.2885  -18.3777   24.9946 O   0  0  0  0  0  0  0  0  0  0  0  0
   12.9661  -19.4004   25.2412 O   0  0  0  0  0  0  0  0  0  0  0  0
  1  2  1  0
  3  2  1  0
  4  5  1  0
  4  3  1  0
  5  1  1  0
  5  6  1  1
  7  6  2  0
  9  8  1  0
 10  9  2  0
 11  9  1  0
 12 13  1  0
 12 11  1  0
 13 14  1  0
 15 14  1  1
 15 16  1  0
 16  6  1  0
 17 22  1  0
 17 15  1  0
 18 17  2  0
 19 20  1  0
 21 20  1  6
 21 23  1  0
 21 22  1  0
 23 25  1  0
 24 23  2  0
M  END
$$$$
