PRS.pdb
     RDKit          3D

 25 25  0  0  1  0  0  0  0  0999 V2000
    8.5904  -14.8123   19.1630 N   0  0  0  0  0  0  0  0  0  0  0  0
    7.3214  -14.6443   18.4987 C   0  0  0  0  0  0  0  0  0  0  0  0
    6.6246  -13.4715   19.1601 C   0  0  0  0  0  0  0  0  0  0  0  0
    7.8604  -12.6770   19.5848 C   0  0  0  0  0  0  0  0  0  0  0  0
    8.6613  -13.8043   20.2027 C   0  0  1  0  0  0  0  0  0  0  0  0
    8.0053  -14.3151   21.4540 C   0  0  0  0  0  0  0  0  0  0  0  0
    6.9139  -13.7888   21.8030 O   0  0  0  0  0  0  0  0  0  0  0  0
    8.1741  -21.7180   26.8257 N   0  0  0  0  0  0  0  0  0  0  0  0
    7.3696  -20.5831   27.1514 C   0  0  0  0  0  0  0  0  0  0  0  0
    6.2007  -20.7469   27.6593 N   0  0  0  0  0  0  0  0  0  0  0  0
    7.8234  -19.2528   26.9297 N   0  0  0  0  0  0  0  0  0  0  0  0
    8.3678  -18.8806   25.6308 C   0  0  0  0  0  0  0  0  0  0  0  0
    7.9121  -17.5156   25.2555 C   0  0  0  0  0  0  0  0  0  0  0  0
    8.4365  -17.0875   23.9187 C   0  0  0  0  0  0  0  0  0  0  0  0
    7.9799  -15.7089   23.5349 C   0  0  2  0  0  0  0  0  0  0  0  0
    8.5478  -15.3370   22.2374 N   0  0  0  0  0  0  0  0  0  0  0  0
    8.4400  -14.7280   24.5663 C   0  0  0  0  0  0  0  0  0  0  0  0
    9.6331  -14.4000   24.6182 O   0  0  0  0  0  0  0  0  0  0  0  0
    5.5743  -19.9433   27.8625 O   0  0  0  0  0  0  0  0  0  0  0  0
    5.8505  -11.9558   25.9063 C   0  0  0  0  0  0  0  0  0  0  0  0
    6.5027  -12.5995   26.9396 C   0  0  2  0  0  0  0  0  0  0  0  0
    7.8236  -13.2243   26.4838 N   0  0  0  0  0  0  0  0  0  0  0  0
    7.4909  -14.1919   25.4683 C   0  0  0  0  0  0  0  0  0  0  0  0
    8.4325  -13.8471   27.6767 O   0  0  0  0  0  0  0  0  0  0  0  0
    8.6867  -15.0724   27.6736 O   0  0  0  0  0  0  0  0  0  0  0  0
  1  2  1  0
  3  2  1  0
  4  5  1  0
  4  3  1  0
  5  1  1  0
  5  6  1  1
  7  6  2  0
  9  8  1  0
 10  9  2  0
 11  9  1  0
 12 13  1  0
 12 11  1  0
 13 14  1  0
 15 14  1  1
 15 16  1  0
 16  6  1  0
 17 22  1  0
 17 15  1  0
 18 17  2  0
 19 20  1  0
 21 20  1  6
 21 23  1  0
 21 22  1  0
 23 25  1  0
 24 23  2  0
M  END
$$$$
