PRS.pdb
     RDKit          3D

 25 25  0  0  1  0  0  0  0  0999 V2000
    6.3125  -20.5331   20.9769 N   0  0  0  0  0  0  0  0  0  0  0  0
    6.9206  -21.6185   21.7064 C   0  0  0  0  0  0  0  0  0  0  0  0
    7.2397  -21.0982   23.0942 C   0  0  0  0  0  0  0  0  0  0  0  0
    6.1228  -20.0605   23.2154 C   0  0  0  0  0  0  0  0  0  0  0  0
    6.2811  -19.3891   21.8670 C   0  0  1  0  0  0  0  0  0  0  0  0
    7.5809  -18.6405   21.7816 C   0  0  0  0  0  0  0  0  0  0  0  0
    8.6162  -19.2922   21.4763 O   0  0  0  0  0  0  0  0  0  0  0  0
    7.6039  -13.2533   16.1725 N   0  0  0  0  0  0  0  0  0  0  0  0
    8.0908  -13.3919   17.5085 C   0  0  0  0  0  0  0  0  0  0  0  0
    9.3092  -13.7435   17.7166 N   0  0  0  0  0  0  0  0  0  0  0  0
    7.2607  -13.1506   18.6388 N   0  0  0  0  0  0  0  0  0  0  0  0
    7.7871  -13.3582   19.9810 C   0  0  0  0  0  0  0  0  0  0  0  0
    8.1868  -14.7792   20.1614 C   0  0  0  0  0  0  0  0  0  0  0  0
    8.6250  -15.0741   21.5637 C   0  0  0  0  0  0  0  0  0  0  0  0
    8.9289  -16.5294   21.7786 C   0  0  2  0  0  0  0  0  0  0  0  0
    7.6886  -17.2685   22.0234 N   0  0  0  0  0  0  0  0  0  0  0  0
    9.8266  -16.6794   22.9657 C   0  0  0  0  0  0  0  0  0  0  0  0
    9.3895  -16.4573   24.1029 O   0  0  0  0  0  0  0  0  0  0  0  0
    9.7098  -13.7904   18.6740 O   0  0  0  0  0  0  0  0  0  0  0  0
   12.4076  -19.5926   23.0673 C   0  0  0  0  0  0  0  0  0  0  0  0
   13.0584  -18.4058   23.3416 C   0  0  2  0  0  0  0  0  0  0  0  0
   12.0950  -17.3238   23.8359 N   0  0  0  0  0  0  0  0  0  0  0  0
   11.1689  -17.0761   22.7591 C   0  0  0  0  0  0  0  0  0  0  0  0
   12.9160  -16.1385   24.1559 O   0  0  0  0  0  0  0  0  0  0  0  0
   12.7890  -15.0956   23.4761 O   0  0  0  0  0  0  0  0  0  0  0  0
  1  2  1  0
  3  2  1  0
  4  5  1  0
  4  3  1  0
  5  1  1  0
  5  6  1  1
  7  6  2  0
  9  8  1  0
 10  9  2  0
 11  9  1  0
 12 13  1  0
 12 11  1  0
 13 14  1  0
 15 14  1  1
 15 16  1  0
 16  6  1  0
 17 22  1  0
 17 15  1  0
 18 17  2  0
 19 20  1  0
 21 20  1  1
 21 23  1  0
 21 22  1  0
 23 25  1  0
 24 23  2  0
M  END
$$$$
