HQW.pdb
     RDKit          3D

 34 36  0  0  1  0  0  0  0  0999 V2000
   25.4453  -17.9104  -16.2883 N   0  0  0  0  0  0  0  0  0  0  0  0
   26.4705  -18.3571  -15.3944 C   0  0  1  0  0  0  0  0  0  0  0  0
   27.4373  -17.2892  -14.9886 C   0  0  0  0  0  0  0  0  0  0  0  0
   28.2623  -16.7795  -16.0938 C   0  0  0  0  0  0  0  0  0  0  0  0
   28.2167  -17.0221  -17.4485 C   0  0  0  0  0  0  0  0  0  0  0  0
   29.1705  -16.3354  -18.0820 N   0  0  0  0  0  0  0  0  0  0  0  0
   29.8272  -15.6500  -17.1144 C   0  0  0  0  0  0  0  0  0  0  0  0
   29.2818  -15.9176  -15.9262 N   0  0  0  0  0  0  0  0  0  0  0  0
   25.7962  -18.8418  -14.1422 C   0  0  0  0  0  0  0  0  0  0  0  0
   24.9476  -18.1265  -13.5285 O   0  0  0  0  0  0  0  0  0  0  0  0
   25.0005  -22.2050  -15.6844 N   0  0  0  0  0  0  0  0  0  0  0  0
   23.7164  -21.6630  -15.3898 C   0  0  0  0  0  0  0  0  0  0  0  0
   22.8696  -21.4423  -16.2785 O   0  0  0  0  0  0  0  0  0  0  0  0
   23.3920  -21.3535  -13.9488 C   0  0  0  0  0  0  0  0  0  0  0  0
   24.5448  -21.8126  -13.1190 C   0  0  0  0  0  0  0  0  0  0  0  0
   25.3225  -20.6616  -12.5050 C   0  0  2  0  0  0  0  0  0  0  0  0
   26.1072  -20.1167  -13.6325 N   0  0  0  0  0  0  0  0  0  0  0  0
   26.1914  -21.0308  -11.3994 C   0  0  0  0  0  0  0  0  0  0  0  0
   27.1558  -21.8165  -11.6298 O   0  0  0  0  0  0  0  0  0  0  0  0
   25.9868  -20.5389  -10.1090 N   0  0  0  0  0  0  0  0  0  0  0  0
   26.6947  -20.9377   -8.9156 C   0  0  1  0  0  0  0  0  0  0  0  0
   27.6912  -19.8725   -8.5755 C   0  0  0  0  0  0  0  0  0  0  0  0
   28.5506  -20.2416   -7.4231 C   0  0  0  0  0  0  0  0  0  0  0  0
   29.5383  -21.1956   -7.3334 C   0  0  0  0  0  0  0  0  0  0  0  0
   30.0390  -21.1739   -6.1080 N   0  0  0  0  0  0  0  0  0  0  0  0
   29.4483  -20.2568   -5.3524 C   0  0  0  0  0  0  0  0  0  0  0  0
   29.6347  -19.8819   -4.0394 C   0  0  0  0  0  0  0  0  0  0  0  0
   28.8586  -18.8643   -3.4838 C   0  0  0  0  0  0  0  0  0  0  0  0
   27.9229  -18.2665   -4.2836 C   0  0  0  0  0  0  0  0  0  0  0  0
   27.7497  -18.6497   -5.5850 C   0  0  0  0  0  0  0  0  0  0  0  0
   28.5002  -19.6512   -6.1627 C   0  0  0  0  0  0  0  0  0  0  0  0
   25.7842  -21.2692   -7.7788 C   0  0  0  0  0  0  0  0  0  0  0  0
   24.6806  -20.7099   -7.6997 O   0  0  0  0  0  0  0  0  0  0  0  0
   26.1208  -22.1776   -6.8057 O   0  0  0  0  0  0  0  0  0  0  0  0
  2  1  1  6
  3  2  1  0
  4  3  1  0
  5  4  2  0
  6  5  1  0
  7  6  1  0
  7  8  2  0
  8  4  1  0
  9  2  1  0
 10  9  2  0
 12 11  1  0
 12 14  1  0
 13 12  2  0
 15 14  1  0
 16 17  1  0
 16 15  1  6
 17  9  1  0
 18 16  1  0
 19 18  2  0
 20 18  1  0
 21 20  1  0
 22 23  1  0
 21 22  1  1
 23 24  2  0
 24 25  1  0
 26 27  2  0
 26 25  1  0
 28 27  1  0
 29 28  2  0
 30 29  1  0
 30 31  2  0
 31 23  1  0
 31 26  1  0
 32 21  1  0
 32 34  1  0
 33 32  2  0
M  END
$$$$
