HQW.pdb
     RDKit          3D

 34 36  0  0  1  0  0  0  0  0999 V2000
   21.2714  -13.8522  -18.3297 N   0  0  0  0  0  0  0  0  0  0  0  0
   20.1841  -12.9258  -18.2318 C   0  0  1  0  0  0  0  0  0  0  0  0
   19.0635  -13.3873  -17.3538 C   0  0  0  0  0  0  0  0  0  0  0  0
   18.3486  -14.5650  -17.8676 C   0  0  0  0  0  0  0  0  0  0  0  0
   17.6115  -14.7511  -19.0156 C   0  0  0  0  0  0  0  0  0  0  0  0
   17.1385  -15.9982  -19.0744 N   0  0  0  0  0  0  0  0  0  0  0  0
   17.5830  -16.6080  -17.9483 C   0  0  0  0  0  0  0  0  0  0  0  0
   18.3066  -15.7483  -17.2285 N   0  0  0  0  0  0  0  0  0  0  0  0
   20.7243  -11.6595  -17.6299 C   0  0  0  0  0  0  0  0  0  0  0  0
   21.4675  -11.6800  -16.6024 O   0  0  0  0  0  0  0  0  0  0  0  0
   23.2819   -7.1394  -18.3133 N   0  0  0  0  0  0  0  0  0  0  0  0
   23.1810   -7.8083  -19.5670 C   0  0  0  0  0  0  0  0  0  0  0  0
   24.1233   -7.8329  -20.3837 O   0  0  0  0  0  0  0  0  0  0  0  0
   21.8823   -8.5029  -19.8965 C   0  0  0  0  0  0  0  0  0  0  0  0
   20.9143   -8.1895  -18.8042 C   0  0  0  0  0  0  0  0  0  0  0  0
   20.9838   -9.1800  -17.6549 C   0  0  2  0  0  0  0  0  0  0  0  0
   20.4038  -10.4191  -18.2134 N   0  0  0  0  0  0  0  0  0  0  0  0
   20.2761   -8.7724  -16.4522 C   0  0  0  0  0  0  0  0  0  0  0  0
   19.0332   -8.9975  -16.3812 O   0  0  0  0  0  0  0  0  0  0  0  0
   20.9332   -8.1508  -15.3887 N   0  0  0  0  0  0  0  0  0  0  0  0
   20.3324   -7.6896  -14.1596 C   0  0  1  0  0  0  0  0  0  0  0  0
   21.4254   -7.3766  -13.1844 C   0  0  0  0  0  0  0  0  0  0  0  0
   20.9109   -6.8095  -11.9131 C   0  0  0  0  0  0  0  0  0  0  0  0
   20.5919   -7.4429  -10.7337 C   0  0  0  0  0  0  0  0  0  0  0  0
   20.1694   -6.5365   -9.8661 N   0  0  0  0  0  0  0  0  0  0  0  0
   20.1813   -5.3158  -10.3865 C   0  0  0  0  0  0  0  0  0  0  0  0
   19.8345   -4.0870   -9.8676 C   0  0  0  0  0  0  0  0  0  0  0  0
   19.9467   -2.9381  -10.6511 C   0  0  0  0  0  0  0  0  0  0  0  0
   20.4070   -3.0816  -11.9318 C   0  0  0  0  0  0  0  0  0  0  0  0
   20.7472   -4.3081  -12.4325 C   0  0  0  0  0  0  0  0  0  0  0  0
   20.6475   -5.4613  -11.6840 C   0  0  0  0  0  0  0  0  0  0  0  0
   19.3872   -6.5508  -14.3619 C   0  0  0  0  0  0  0  0  0  0  0  0
   19.6802   -5.6516  -15.1636 O   0  0  0  0  0  0  0  0  0  0  0  0
   18.1935   -6.4555  -13.6901 O   0  0  0  0  0  0  0  0  0  0  0  0
  2  1  1  1
  3  2  1  0
  4  3  1  0
  5  4  2  0
  6  5  1  0
  7  6  1  0
  7  8  2  0
  8  4  1  0
  9  2  1  0
 10  9  2  0
 12 11  1  0
 12 14  1  0
 13 12  2  0
 15 14  1  0
 16 17  1  0
 16 15  1  6
 17  9  1  0
 18 16  1  0
 19 18  2  0
 20 18  1  0
 21 20  1  0
 22 23  1  0
 21 22  1  1
 23 24  2  0
 24 25  1  0
 26 27  2  0
 26 25  1  0
 28 27  1  0
 29 28  2  0
 30 29  1  0
 30 31  2  0
 31 23  1  0
 31 26  1  0
 32 21  1  0
 32 34  1  0
 33 32  2  0
M  END
$$$$
