HQW.pdb
     RDKit          3D

 34 36  0  0  1  0  0  0  0  0999 V2000
   23.8407  -32.4353  -10.0461 N   0  0  0  0  0  0  0  0  0  0  0  0
   24.6822  -33.4542   -9.4951 C   0  0  1  0  0  0  0  0  0  0  0  0
   25.9387  -33.6968  -10.2711 C   0  0  0  0  0  0  0  0  0  0  0  0
   25.7575  -34.5640  -11.4446 C   0  0  0  0  0  0  0  0  0  0  0  0
   24.6406  -35.1962  -11.9434 C   0  0  0  0  0  0  0  0  0  0  0  0
   24.9439  -35.8894  -13.0435 N   0  0  0  0  0  0  0  0  0  0  0  0
   26.2702  -35.6922  -13.2420 C   0  0  0  0  0  0  0  0  0  0  0  0
   26.7542  -34.8991  -12.2842 N   0  0  0  0  0  0  0  0  0  0  0  0
   25.0913  -33.0058   -8.1207 C   0  0  0  0  0  0  0  0  0  0  0  0
   25.4202  -31.8033   -7.8877 O   0  0  0  0  0  0  0  0  0  0  0  0
   22.1672  -34.2816   -3.3933 N   0  0  0  0  0  0  0  0  0  0  0  0
   23.2208  -33.6326   -2.6876 C   0  0  0  0  0  0  0  0  0  0  0  0
   23.0987  -33.2678   -1.5012 O   0  0  0  0  0  0  0  0  0  0  0  0
   24.5180  -33.3887   -3.4193 C   0  0  0  0  0  0  0  0  0  0  0  0
   24.3061  -33.7630   -4.8487 C   0  0  0  0  0  0  0  0  0  0  0  0
   25.5246  -33.4925   -5.7141 C   0  0  2  0  0  0  0  0  0  0  0  0
   25.1123  -33.9342   -7.0627 N   0  0  0  0  0  0  0  0  0  0  0  0
   26.7376  -34.1747   -5.2935 C   0  0  0  0  0  0  0  0  0  0  0  0
   26.7753  -35.4367   -5.3727 O   0  0  0  0  0  0  0  0  0  0  0  0
   27.8459  -33.4734   -4.8150 N   0  0  0  0  0  0  0  0  0  0  0  0
   29.0440  -34.0446   -4.2469 C   0  0  1  0  0  0  0  0  0  0  0  0
   30.2280  -33.3115   -4.7984 C   0  0  0  0  0  0  0  0  0  0  0  0
   31.5182  -33.8870   -4.3439 C   0  0  0  0  0  0  0  0  0  0  0  0
   31.8102  -34.5968   -3.2016 C   0  0  0  0  0  0  0  0  0  0  0  0
   33.0964  -34.9103   -3.2139 N   0  0  0  0  0  0  0  0  0  0  0  0
   33.7024  -34.4541   -4.3027 C   0  0  0  0  0  0  0  0  0  0  0  0
   35.0079  -34.5372   -4.7367 C   0  0  0  0  0  0  0  0  0  0  0  0
   35.3825  -33.9550   -5.9479 C   0  0  0  0  0  0  0  0  0  0  0  0
   34.4164  -33.3106   -6.6720 C   0  0  0  0  0  0  0  0  0  0  0  0
   33.1249  -33.2366   -6.2279 C   0  0  0  0  0  0  0  0  0  0  0  0
   32.7237  -33.8012   -5.0362 C   0  0  0  0  0  0  0  0  0  0  0  0
   29.0236  -34.0806   -2.7538 C   0  0  0  0  0  0  0  0  0  0  0  0
   29.8053  -34.8317   -2.1523 O   0  0  0  0  0  0  0  0  0  0  0  0
   28.1660  -33.3085   -2.0096 O   0  0  0  0  0  0  0  0  0  0  0  0
  2  1  1  6
  3  2  1  0
  4  3  1  0
  5  4  2  0
  6  5  1  0
  7  6  1  0
  7  8  2  0
  8  4  1  0
  9  2  1  0
 10  9  2  0
 12 11  1  0
 12 14  1  0
 13 12  2  0
 15 14  1  0
 16 17  1  0
 16 15  1  1
 17  9  1  0
 18 16  1  0
 19 18  2  0
 20 18  1  0
 21 20  1  0
 22 23  1  0
 21 22  1  1
 23 24  2  0
 24 25  1  0
 26 27  2  0
 26 25  1  0
 28 27  1  0
 29 28  2  0
 30 29  1  0
 30 31  2  0
 31 23  1  0
 31 26  1  0
 32 21  1  0
 32 34  1  0
 33 32  2  0
M  END
$$$$
