HQW.pdb
     RDKit          3D

 34 36  0  0  1  0  0  0  0  0999 V2000
   23.3205  -21.6432  -18.2475 N   0  0  0  0  0  0  0  0  0  0  0  0
   23.0217  -20.9473  -17.0324 C   0  0  1  0  0  0  0  0  0  0  0  0
   21.7844  -21.4267  -16.3404 C   0  0  0  0  0  0  0  0  0  0  0  0
   20.5361  -21.0479  -17.0189 C   0  0  0  0  0  0  0  0  0  0  0  0
   19.4994  -21.8115  -17.5069 C   0  0  0  0  0  0  0  0  0  0  0  0
   18.5594  -21.0358  -18.0521 N   0  0  0  0  0  0  0  0  0  0  0  0
   19.0086  -19.7652  -17.9065 C   0  0  0  0  0  0  0  0  0  0  0  0
   20.1911  -19.7755  -17.2881 N   0  0  0  0  0  0  0  0  0  0  0  0
   24.1703  -21.1725  -16.0903 C   0  0  0  0  0  0  0  0  0  0  0  0
   24.6460  -22.3314  -15.8925 O   0  0  0  0  0  0  0  0  0  0  0  0
   28.2195  -21.2362  -15.4851 N   0  0  0  0  0  0  0  0  0  0  0  0
   28.7673  -20.5689  -14.3519 C   0  0  0  0  0  0  0  0  0  0  0  0
   29.8244  -20.9449  -13.8072 O   0  0  0  0  0  0  0  0  0  0  0  0
   28.0274  -19.3705  -13.8097 C   0  0  0  0  0  0  0  0  0  0  0  0
   26.7847  -19.2041  -14.6199 C   0  0  0  0  0  0  0  0  0  0  0  0
   25.7777  -20.3170  -14.3873 C   0  0  2  0  0  0  0  0  0  0  0  0
   24.7369  -20.0788  -15.4089 N   0  0  0  0  0  0  0  0  0  0  0  0
   25.1982  -20.3491  -13.0544 C   0  0  0  0  0  0  0  0  0  0  0  0
   24.2435  -19.5605  -12.7953 O   0  0  0  0  0  0  0  0  0  0  0  0
   25.6655  -21.2236  -12.0715 N   0  0  0  0  0  0  0  0  0  0  0  0
   25.2631  -21.2516  -10.6852 C   0  0  1  0  0  0  0  0  0  0  0  0
   26.4050  -21.7749   -9.8692 C   0  0  0  0  0  0  0  0  0  0  0  0
   26.5902  -21.0268   -8.6009 C   0  0  0  0  0  0  0  0  0  0  0  0
   25.6510  -20.5699   -7.7048 C   0  0  0  0  0  0  0  0  0  0  0  0
   26.2751  -19.9526   -6.7137 N   0  0  0  0  0  0  0  0  0  0  0  0
   27.5915  -19.9614   -6.8815 C   0  0  0  0  0  0  0  0  0  0  0  0
   28.6227  -19.4514   -6.1226 C   0  0  0  0  0  0  0  0  0  0  0  0
   29.9445  -19.6057   -6.5419 C   0  0  0  0  0  0  0  0  0  0  0  0
   30.1678  -20.2722   -7.7160 C   0  0  0  0  0  0  0  0  0  0  0  0
   29.1336  -20.7726   -8.4580 C   0  0  0  0  0  0  0  0  0  0  0  0
   27.8177  -20.6366   -8.0710 C   0  0  0  0  0  0  0  0  0  0  0  0
   24.7525  -19.9354  -10.1977 C   0  0  0  0  0  0  0  0  0  0  0  0
   25.3596  -18.8974  -10.4992 O   0  0  0  0  0  0  0  0  0  0  0  0
   23.6261  -19.8240   -9.4203 O   0  0  0  0  0  0  0  0  0  0  0  0
  2  1  1  6
  3  2  1  0
  4  3  1  0
  5  4  2  0
  6  5  1  0
  7  6  1  0
  7  8  2  0
  8  4  1  0
  9  2  1  0
 10  9  2  0
 12 11  1  0
 12 14  1  0
 13 12  2  0
 15 14  1  0
 16 17  1  0
 16 15  1  1
 17  9  1  0
 18 16  1  0
 19 18  2  0
 20 18  1  0
 21 20  1  0
 22 23  1  0
 21 22  1  1
 23 24  2  0
 24 25  1  0
 26 27  2  0
 26 25  1  0
 28 27  1  0
 29 28  2  0
 30 29  1  0
 30 31  2  0
 31 23  1  0
 31 26  1  0
 32 21  1  0
 32 34  1  0
 33 32  2  0
M  END
$$$$
