HQW.pdb
     RDKit          3D

 34 36  0  0  1  0  0  0  0  0999 V2000
   27.8447  -24.4927  -17.6459 N   0  0  0  0  0  0  0  0  0  0  0  0
   26.6861  -24.1838  -16.8636 C   0  0  1  0  0  0  0  0  0  0  0  0
   26.1542  -25.3388  -16.0744 C   0  0  0  0  0  0  0  0  0  0  0  0
   25.4331  -26.3328  -16.8831 C   0  0  0  0  0  0  0  0  0  0  0  0
   25.6911  -27.6625  -17.1308 C   0  0  0  0  0  0  0  0  0  0  0  0
   24.7583  -28.1817  -17.9325 N   0  0  0  0  0  0  0  0  0  0  0  0
   23.8995  -27.1662  -18.1946 C   0  0  0  0  0  0  0  0  0  0  0  0
   24.3056  -26.0616  -17.5655 N   0  0  0  0  0  0  0  0  0  0  0  0
   27.0785  -23.1191  -15.8788 C   0  0  0  0  0  0  0  0  0  0  0  0
   28.1657  -23.1870  -15.2293 O   0  0  0  0  0  0  0  0  0  0  0  0
   28.2747  -18.4345  -14.1647 N   0  0  0  0  0  0  0  0  0  0  0  0
   28.4106  -18.6052  -15.5725 C   0  0  0  0  0  0  0  0  0  0  0  0
   29.4208  -18.2185  -16.1933 O   0  0  0  0  0  0  0  0  0  0  0  0
   27.2830  -19.2782  -16.3162 C   0  0  0  0  0  0  0  0  0  0  0  0
   26.2580  -19.6834  -15.3095 C   0  0  0  0  0  0  0  0  0  0  0  0
   26.5793  -21.0108  -14.6450 C   0  0  2  0  0  0  0  0  0  0  0  0
   26.2267  -22.0185  -15.6668 N   0  0  0  0  0  0  0  0  0  0  0  0
   25.8672  -21.2614  -13.4025 C   0  0  0  0  0  0  0  0  0  0  0  0
   24.6267  -21.5035  -13.4594 O   0  0  0  0  0  0  0  0  0  0  0  0
   26.5175  -21.2443  -12.1672 N   0  0  0  0  0  0  0  0  0  0  0  0
   25.9006  -21.3876  -10.8698 C   0  0  1  0  0  0  0  0  0  0  0  0
   26.9784  -21.6026   -9.8521 C   0  0  0  0  0  0  0  0  0  0  0  0
   26.8323  -20.7171   -8.6701 C   0  0  0  0  0  0  0  0  0  0  0  0
   25.7675  -19.9357   -8.2836 C   0  0  0  0  0  0  0  0  0  0  0  0
   26.0843  -19.3129   -7.1590 N   0  0  0  0  0  0  0  0  0  0  0  0
   27.3087  -19.6247   -6.7534 C   0  0  0  0  0  0  0  0  0  0  0  0
   28.0487  -19.2281   -5.6604 C   0  0  0  0  0  0  0  0  0  0  0  0
   29.3399  -19.7216   -5.4715 C   0  0  0  0  0  0  0  0  0  0  0  0
   29.8298  -20.5993   -6.4001 C   0  0  0  0  0  0  0  0  0  0  0  0
   29.0831  -20.9834   -7.4797 C   0  0  0  0  0  0  0  0  0  0  0  0
   27.8050  -20.5138   -7.6943 C   0  0  0  0  0  0  0  0  0  0  0  0
   24.9914  -20.2535  -10.5260 C   0  0  0  0  0  0  0  0  0  0  0  0
   25.2387  -19.1205  -10.9644 O   0  0  0  0  0  0  0  0  0  0  0  0
   23.8800  -20.4135   -9.7357 O   0  0  0  0  0  0  0  0  0  0  0  0
  2  1  1  1
  3  2  1  0
  4  3  1  0
  5  4  2  0
  6  5  1  0
  7  6  1  0
  7  8  2  0
  8  4  1  0
  9  2  1  0
 10  9  2  0
 12 11  1  0
 12 14  1  0
 13 12  2  0
 15 14  1  0
 16 17  1  0
 16 15  1  6
 17  9  1  0
 18 16  1  0
 19 18  2  0
 20 18  1  0
 21 20  1  0
 22 23  1  0
 21 22  1  1
 23 24  2  0
 24 25  1  0
 26 27  2  0
 26 25  1  0
 28 27  1  0
 29 28  2  0
 30 29  1  0
 30 31  2  0
 31 23  1  0
 31 26  1  0
 32 21  1  0
 32 34  1  0
 33 32  2  0
M  END
$$$$
