HQW.pdb
     RDKit          3D

 34 36  0  0  1  0  0  0  0  0999 V2000
   18.1805  -12.5724  -18.3374 N   0  0  0  0  0  0  0  0  0  0  0  0
   18.9739  -12.1790  -17.2125 C   0  0  1  0  0  0  0  0  0  0  0  0
   20.3718  -11.7735  -17.5607 C   0  0  0  0  0  0  0  0  0  0  0  0
   21.1743  -12.8505  -18.1591 C   0  0  0  0  0  0  0  0  0  0  0  0
   21.6295  -13.0372  -19.4451 C   0  0  0  0  0  0  0  0  0  0  0  0
   22.3299  -14.1701  -19.5367 N   0  0  0  0  0  0  0  0  0  0  0  0
   22.3169  -14.7061  -18.2918 C   0  0  0  0  0  0  0  0  0  0  0  0
   21.6250  -13.9146  -17.4699 N   0  0  0  0  0  0  0  0  0  0  0  0
   18.3096  -10.9844  -16.5887 C   0  0  0  0  0  0  0  0  0  0  0  0
   17.9173  -10.0039  -17.2910 O   0  0  0  0  0  0  0  0  0  0  0  0
   15.6266   -9.7945  -10.2012 N   0  0  0  0  0  0  0  0  0  0  0  0
   15.1848  -10.0509  -11.5310 C   0  0  0  0  0  0  0  0  0  0  0  0
   14.2445  -10.8319  -11.7789 O   0  0  0  0  0  0  0  0  0  0  0  0
   15.8923   -9.3436  -12.6610 C   0  0  0  0  0  0  0  0  0  0  0  0
   16.6983  -10.3628  -13.3959 C   0  0  0  0  0  0  0  0  0  0  0  0
   17.4380   -9.7798  -14.5874 C   0  0  2  0  0  0  0  0  0  0  0  0
   18.1143  -10.9447  -15.1952 N   0  0  0  0  0  0  0  0  0  0  0  0
   18.3961   -8.7358  -14.2618 C   0  0  0  0  0  0  0  0  0  0  0  0
   19.3421   -9.0146  -13.4694 O   0  0  0  0  0  0  0  0  0  0  0  0
   18.2955   -7.4525  -14.8023 N   0  0  0  0  0  0  0  0  0  0  0  0
   19.1274   -6.3174  -14.4802 C   0  0  1  0  0  0  0  0  0  0  0  0
   20.0063   -6.0230  -15.6568 C   0  0  0  0  0  0  0  0  0  0  0  0
   20.9083   -4.8683  -15.4208 C   0  0  0  0  0  0  0  0  0  0  0  0
   21.7841   -4.6343  -14.3854 C   0  0  0  0  0  0  0  0  0  0  0  0
   22.3818   -3.4709  -14.5898 N   0  0  0  0  0  0  0  0  0  0  0  0
   21.9635   -2.8941  -15.7094 C   0  0  0  0  0  0  0  0  0  0  0  0
   22.2977   -1.7021  -16.3151 C   0  0  0  0  0  0  0  0  0  0  0  0
   21.6911   -1.3314  -17.5156 C   0  0  0  0  0  0  0  0  0  0  0  0
   20.7683   -2.1861  -18.0548 C   0  0  0  0  0  0  0  0  0  0  0  0
   20.4473   -3.3657  -17.4416 C   0  0  0  0  0  0  0  0  0  0  0  0
   21.0285   -3.7600  -16.2556 C   0  0  0  0  0  0  0  0  0  0  0  0
   18.3449   -5.1293  -14.0247 C   0  0  0  0  0  0  0  0  0  0  0  0
   17.2437   -4.8909  -14.5420 O   0  0  0  0  0  0  0  0  0  0  0  0
   18.7981   -4.2795  -13.0461 O   0  0  0  0  0  0  0  0  0  0  0  0
  2  1  1  6
  3  2  1  0
  4  3  1  0
  5  4  2  0
  6  5  1  0
  7  6  1  0
  7  8  2  0
  8  4  1  0
  9  2  1  0
 10  9  2  0
 12 11  1  0
 12 14  1  0
 13 12  2  0
 15 14  1  0
 16 17  1  0
 16 15  1  1
 17  9  1  0
 18 16  1  0
 19 18  2  0
 20 18  1  0
 21 20  1  0
 22 23  1  0
 21 22  1  6
 23 24  2  0
 24 25  1  0
 26 27  2  0
 26 25  1  0
 28 27  1  0
 29 28  2  0
 30 29  1  0
 30 31  2  0
 31 23  1  0
 31 26  1  0
 32 21  1  0
 32 34  1  0
 33 32  2  0
M  END
$$$$
