GMF.pdb
     RDKit          3D

 24 24  0  0  1  0  0  0  0  0999 V2000
    8.5498  -16.4793   18.5223 N   0  0  0  0  0  0  0  0  0  0  0  0
    8.0584  -17.0145   19.7747 C   0  0  0  0  0  0  0  0  0  0  0  0
    8.6734  -16.2772   20.9328 C   0  0  0  0  0  0  0  0  0  0  0  0
    9.8972  -16.0111   20.9808 O   0  0  0  0  0  0  0  0  0  0  0  0
    6.4400  -12.1178   27.2288 C   0  0  0  0  0  0  0  0  0  0  0  0
    5.9846  -13.2257   25.8683 S   0  0  0  0  0  0  0  0  0  0  0  0
    7.5602  -13.8170   25.1316 C   0  0  0  0  0  0  0  0  0  0  0  0
    7.2054  -14.6020   23.9130 C   0  0  0  0  0  0  0  0  0  0  0  0
    8.3745  -15.2186   23.2088 C   0  0  2  0  0  0  0  0  0  0  0  0
    7.8682  -15.8622   22.0100 N   0  0  0  0  0  0  0  0  0  0  0  0
    9.1121  -16.2108   24.0316 C   0  0  0  0  0  0  0  0  0  0  0  0
    8.7422  -17.4034   24.1525 O   0  0  0  0  0  0  0  0  0  0  0  0
   10.2887  -15.8239   24.7231 N   0  0  0  0  0  0  0  0  0  0  0  0
   11.0454  -16.8390   25.4358 C   0  0  1  0  0  0  0  0  0  0  0  0
   12.0285  -16.1003   26.3298 C   0  0  0  0  0  0  0  0  0  0  0  0
   11.3670  -15.3319   27.4092 C   0  0  0  0  0  0  0  0  0  0  0  0
   11.3409  -15.8425   28.6879 C   0  0  0  0  0  0  0  0  0  0  0  0
   10.7480  -15.1822   29.7494 C   0  0  0  0  0  0  0  0  0  0  0  0
   10.1588  -13.9530   29.4960 C   0  0  0  0  0  0  0  0  0  0  0  0
   10.1789  -13.4342   28.2246 C   0  0  0  0  0  0  0  0  0  0  0  0
   10.7812  -14.1097   27.1575 C   0  0  0  0  0  0  0  0  0  0  0  0
   10.1741  -17.7637   26.1764 C   0  0  0  0  0  0  0  0  0  0  0  0
   10.6260  -18.8048   26.7623 O   0  0  0  0  0  0  0  0  0  0  0  0
    8.8081  -17.5615   26.2847 O   0  0  0  0  0  0  0  0  0  0  0  0
  2  3  1  0
  2  1  1  0
  3 10  1  0
  4  3  2  0
  6  7  1  0
  6  5  1  0
  7  8  1  0
  9  8  1  1
  9 11  1  0
 10  9  1  0
 11 13  1  0
 11 12  2  0
 13 14  1  0
 14 15  1  1
 14 22  1  0
 16 21  2  0
 16 15  1  0
 17 16  1  0
 18 19  1  0
 18 17  2  0
 19 20  2  0
 20 21  1  0
 22 24  1  0
 23 22  2  0
M  END
$$$$
