GMF.pdb
     RDKit          3D

 24 24  0  0  1  0  0  0  0  0999 V2000
    6.0930  -20.0792   21.3306 N   0  0  0  0  0  0  0  0  0  0  0  0
    5.8113  -18.8051   21.9581 C   0  0  0  0  0  0  0  0  0  0  0  0
    7.0087  -17.9000   21.8588 C   0  0  0  0  0  0  0  0  0  0  0  0
    8.1399  -18.3234   21.5245 O   0  0  0  0  0  0  0  0  0  0  0  0
    8.7377  -12.0008   20.1905 C   0  0  0  0  0  0  0  0  0  0  0  0
    7.1154  -12.5949   19.6420 S   0  0  0  0  0  0  0  0  0  0  0  0
    6.9277  -14.2915   20.3212 C   0  0  0  0  0  0  0  0  0  0  0  0
    7.4820  -14.2715   21.7066 C   0  0  0  0  0  0  0  0  0  0  0  0
    7.9898  -15.5942   22.1919 C   0  0  2  0  0  0  0  0  0  0  0  0
    6.8793  -16.5282   22.1461 N   0  0  0  0  0  0  0  0  0  0  0  0
    8.5468  -15.5518   23.5680 C   0  0  0  0  0  0  0  0  0  0  0  0
    9.4681  -14.7699   23.9049 O   0  0  0  0  0  0  0  0  0  0  0  0
    8.0363  -16.4205   24.5665 N   0  0  0  0  0  0  0  0  0  0  0  0
    8.5597  -16.3149   25.9178 C   0  0  1  0  0  0  0  0  0  0  0  0
    7.4513  -15.7141   26.7673 C   0  0  0  0  0  0  0  0  0  0  0  0
    7.4171  -14.2345   26.7151 C   0  0  0  0  0  0  0  0  0  0  0  0
    8.5893  -13.5235   26.8458 C   0  0  0  0  0  0  0  0  0  0  0  0
    8.6393  -12.1415   26.8020 C   0  0  0  0  0  0  0  0  0  0  0  0
    7.4468  -11.4586   26.6176 C   0  0  0  0  0  0  0  0  0  0  0  0
    6.2720  -12.1575   26.4861 C   0  0  0  0  0  0  0  0  0  0  0  0
    6.2315  -13.5553   26.5318 C   0  0  0  0  0  0  0  0  0  0  0  0
    9.0431  -17.6063   26.4290 C   0  0  0  0  0  0  0  0  0  0  0  0
    8.5568  -18.7202   26.0366 O   0  0  0  0  0  0  0  0  0  0  0  0
   10.0575  -17.6938   27.3680 O   0  0  0  0  0  0  0  0  0  0  0  0
  2  3  1  0
  2  1  1  0
  3 10  1  0
  4  3  2  0
  6  7  1  0
  6  5  1  0
  7  8  1  0
  9  8  1  1
  9 11  1  0
 10  9  1  0
 11 13  1  0
 11 12  2  0
 13 14  1  0
 14 15  1  1
 14 22  1  0
 16 21  2  0
 16 15  1  0
 17 16  1  0
 18 19  1  0
 18 17  2  0
 19 20  2  0
 20 21  1  0
 22 24  1  0
 23 22  2  0
M  END
$$$$
