GMF.pdb
     RDKit          3D

 24 24  0  0  1  0  0  0  0  0999 V2000
    8.7899  -15.6915   18.9226 N   0  0  0  0  0  0  0  0  0  0  0  0
    8.1013  -16.2727   20.0559 C   0  0  0  0  0  0  0  0  0  0  0  0
    8.6474  -15.7117   21.3404 C   0  0  0  0  0  0  0  0  0  0  0  0
    9.8549  -15.4045   21.4748 O   0  0  0  0  0  0  0  0  0  0  0  0
    7.2139  -12.3775   26.6903 C   0  0  0  0  0  0  0  0  0  0  0  0
    5.8264  -12.4854   25.5289 S   0  0  0  0  0  0  0  0  0  0  0  0
    6.4567  -13.3731   24.0491 C   0  0  0  0  0  0  0  0  0  0  0  0
    7.0381  -14.6617   24.5272 C   0  0  0  0  0  0  0  0  0  0  0  0
    8.2425  -15.1209   23.7647 C   0  0  2  0  0  0  0  0  0  0  0  0
    7.7934  -15.5164   22.4420 N   0  0  0  0  0  0  0  0  0  0  0  0
    8.9591  -16.2532   24.4052 C   0  0  0  0  0  0  0  0  0  0  0  0
    8.7939  -17.4468   24.0566 O   0  0  0  0  0  0  0  0  0  0  0  0
    9.8758  -16.0066   25.4593 N   0  0  0  0  0  0  0  0  0  0  0  0
   10.9025  -16.9963   25.7374 C   0  0  1  0  0  0  0  0  0  0  0  0
   12.0218  -16.2686   26.4647 C   0  0  0  0  0  0  0  0  0  0  0  0
   11.5553  -15.5394   27.6663 C   0  0  0  0  0  0  0  0  0  0  0  0
   11.0975  -14.2467   27.5405 C   0  0  0  0  0  0  0  0  0  0  0  0
   10.6404  -13.5031   28.6141 C   0  0  0  0  0  0  0  0  0  0  0  0
   10.6510  -14.1020   29.8645 C   0  0  0  0  0  0  0  0  0  0  0  0
   11.1054  -15.3907   30.0015 C   0  0  0  0  0  0  0  0  0  0  0  0
   11.5657  -16.1348   28.9096 C   0  0  0  0  0  0  0  0  0  0  0  0
   10.3771  -18.1457   26.4895 C   0  0  0  0  0  0  0  0  0  0  0  0
   11.1105  -19.1382   26.8185 O   0  0  0  0  0  0  0  0  0  0  0  0
    9.0529  -18.2218   26.8885 O   0  0  0  0  0  0  0  0  0  0  0  0
  2  3  1  0
  2  1  1  0
  3 10  1  0
  4  3  2  0
  6  7  1  0
  6  5  1  0
  7  8  1  0
  9  8  1  1
  9 11  1  0
 10  9  1  0
 11 13  1  0
 11 12  2  0
 13 14  1  0
 14 15  1  1
 14 22  1  0
 16 21  2  0
 16 15  1  0
 17 16  1  0
 18 19  1  0
 18 17  2  0
 19 20  2  0
 20 21  1  0
 22 24  1  0
 23 22  2  0
M  END
$$$$
