GMF.pdb
     RDKit          3D

 24 24  0  0  1  0  0  0  0  0999 V2000
    6.5040  -19.6520   22.0155 N   0  0  0  0  0  0  0  0  0  0  0  0
    6.5303  -18.9083   23.2575 C   0  0  0  0  0  0  0  0  0  0  0  0
    7.1695  -17.5632   23.0453 C   0  0  0  0  0  0  0  0  0  0  0  0
    7.8947  -17.3176   22.0531 O   0  0  0  0  0  0  0  0  0  0  0  0
    5.5586  -11.9427   26.7565 C   0  0  0  0  0  0  0  0  0  0  0  0
    7.2025  -12.0678   26.0032 S   0  0  0  0  0  0  0  0  0  0  0  0
    6.9560  -12.8098   24.3408 C   0  0  0  0  0  0  0  0  0  0  0  0
    6.6197  -14.2486   24.5499 C   0  0  0  0  0  0  0  0  0  0  0  0
    7.5545  -15.2088   23.8813 C   0  0  2  0  0  0  0  0  0  0  0  0
    6.9611  -16.5302   23.9783 N   0  0  0  0  0  0  0  0  0  0  0  0
    8.9151  -15.2304   24.4764 C   0  0  0  0  0  0  0  0  0  0  0  0
    9.3289  -14.3419   25.2594 O   0  0  0  0  0  0  0  0  0  0  0  0
    9.8084  -16.2874   24.1651 N   0  0  0  0  0  0  0  0  0  0  0  0
   10.9948  -16.4632   24.9852 C   0  0  1  0  0  0  0  0  0  0  0  0
   10.5164  -16.9583   26.3407 C   0  0  0  0  0  0  0  0  0  0  0  0
   10.4697  -15.8902   27.3654 C   0  0  0  0  0  0  0  0  0  0  0  0
    9.8662  -14.6889   27.0666 C   0  0  0  0  0  0  0  0  0  0  0  0
    9.7778  -13.6462   27.9717 C   0  0  0  0  0  0  0  0  0  0  0  0
   10.3267  -13.8368   29.2306 C   0  0  0  0  0  0  0  0  0  0  0  0
   10.9310  -15.0307   29.5394 C   0  0  0  0  0  0  0  0  0  0  0  0
   11.0154  -16.0795   28.6171 C   0  0  0  0  0  0  0  0  0  0  0  0
   11.9768  -17.3597   24.3569 C   0  0  0  0  0  0  0  0  0  0  0  0
   11.6283  -18.3579   23.6404 O   0  0  0  0  0  0  0  0  0  0  0  0
   13.3417  -17.1756   24.5033 O   0  0  0  0  0  0  0  0  0  0  0  0
  2  3  1  0
  2  1  1  0
  3 10  1  0
  4  3  2  0
  6  7  1  0
  6  5  1  0
  7  8  1  0
  9  8  1  1
  9 11  1  0
 10  9  1  0
 11 13  1  0
 11 12  2  0
 13 14  1  0
 14 15  1  1
 14 22  1  0
 16 21  2  0
 16 15  1  0
 17 16  1  0
 18 19  1  0
 18 17  2  0
 19 20  2  0
 20 21  1  0
 22 24  1  0
 23 22  2  0
M  END
$$$$
