GMF.pdb
     RDKit          3D

 24 24  0  0  1  0  0  0  0  0999 V2000
    4.1047  -19.9192   22.1425 N   0  0  0  0  0  0  0  0  0  0  0  0
    4.1906  -18.5446   22.5890 C   0  0  0  0  0  0  0  0  0  0  0  0
    5.5863  -18.0193   22.3909 C   0  0  0  0  0  0  0  0  0  0  0  0
    6.5982  -18.7473   22.5194 O   0  0  0  0  0  0  0  0  0  0  0  0
    8.1727  -11.4257   20.2579 C   0  0  0  0  0  0  0  0  0  0  0  0
    7.8443  -12.9592   19.3489 S   0  0  0  0  0  0  0  0  0  0  0  0
    8.2493  -14.3376   20.4937 C   0  0  0  0  0  0  0  0  0  0  0  0
    6.9541  -14.8921   20.9857 C   0  0  0  0  0  0  0  0  0  0  0  0
    7.0912  -16.0391   21.9388 C   0  0  2  0  0  0  0  0  0  0  0  0
    5.7877  -16.6687   22.0496 N   0  0  0  0  0  0  0  0  0  0  0  0
    7.5670  -15.6411   23.2882 C   0  0  0  0  0  0  0  0  0  0  0  0
    6.9784  -14.7855   23.9917 O   0  0  0  0  0  0  0  0  0  0  0  0
    8.7344  -16.2357   23.8321 N   0  0  0  0  0  0  0  0  0  0  0  0
    9.2369  -15.7494   25.1057 C   0  0  1  0  0  0  0  0  0  0  0  0
    8.0515  -15.7179   26.0570 C   0  0  0  0  0  0  0  0  0  0  0  0
    7.5314  -14.3512   26.2913 C   0  0  0  0  0  0  0  0  0  0  0  0
    8.4139  -13.3014   26.4167 C   0  0  0  0  0  0  0  0  0  0  0  0
    8.0052  -11.9970   26.6307 C   0  0  0  0  0  0  0  0  0  0  0  0
    6.6430  -11.7545   26.7202 C   0  0  0  0  0  0  0  0  0  0  0  0
    5.7540  -12.7939   26.5966 C   0  0  0  0  0  0  0  0  0  0  0  0
    6.1770  -14.1099   26.3802 C   0  0  0  0  0  0  0  0  0  0  0  0
   10.3576  -16.5593   25.6067 C   0  0  0  0  0  0  0  0  0  0  0  0
   10.8991  -16.3452   26.7434 O   0  0  0  0  0  0  0  0  0  0  0  0
   10.8947  -17.6060   24.8756 O   0  0  0  0  0  0  0  0  0  0  0  0
  2  3  1  0
  2  1  1  0
  3 10  1  0
  4  3  2  0
  6  7  1  0
  6  5  1  0
  7  8  1  0
  9  8  1  6
  9 11  1  0
 10  9  1  0
 11 13  1  0
 11 12  2  0
 13 14  1  0
 14 15  1  1
 14 22  1  0
 16 21  2  0
 16 15  1  0
 17 16  1  0
 18 19  1  0
 18 17  2  0
 19 20  2  0
 20 21  1  0
 22 24  1  0
 23 22  2  0
M  END
$$$$
