GMF.pdb
     RDKit          3D

 24 24  0  0  1  0  0  0  0  0999 V2000
    4.9627  -19.7608   22.2245 N   0  0  0  0  0  0  0  0  0  0  0  0
    5.0438  -18.3826   22.6607 C   0  0  0  0  0  0  0  0  0  0  0  0
    6.4047  -17.8191   22.3550 C   0  0  0  0  0  0  0  0  0  0  0  0
    7.3556  -18.5405   21.9728 O   0  0  0  0  0  0  0  0  0  0  0  0
    8.6167  -11.9774   20.4026 C   0  0  0  0  0  0  0  0  0  0  0  0
    7.8633  -13.2692   19.3783 S   0  0  0  0  0  0  0  0  0  0  0  0
    6.9111  -14.3475   20.5209 C   0  0  0  0  0  0  0  0  0  0  0  0
    7.6798  -14.4176   21.7981 C   0  0  0  0  0  0  0  0  0  0  0  0
    7.9340  -15.8073   22.2951 C   0  0  2  0  0  0  0  0  0  0  0  0
    6.6424  -16.4390   22.4956 N   0  0  0  0  0  0  0  0  0  0  0  0
    8.7129  -15.8567   23.5587 C   0  0  0  0  0  0  0  0  0  0  0  0
    9.9058  -15.4770   23.6375 O   0  0  0  0  0  0  0  0  0  0  0  0
    8.1098  -16.3497   24.7443 N   0  0  0  0  0  0  0  0  0  0  0  0
    8.8484  -16.2604   25.9923 C   0  0  1  0  0  0  0  0  0  0  0  0
    7.8729  -15.7453   27.0384 C   0  0  0  0  0  0  0  0  0  0  0  0
    7.3375  -14.4015   26.7210 C   0  0  0  0  0  0  0  0  0  0  0  0
    6.0328  -14.2728   26.2992 C   0  0  0  0  0  0  0  0  0  0  0  0
    5.4595  -13.0523   25.9898 C   0  0  0  0  0  0  0  0  0  0  0  0
    6.2482  -11.9190   26.1156 C   0  0  0  0  0  0  0  0  0  0  0  0
    7.5505  -12.0355   26.5354 C   0  0  0  0  0  0  0  0  0  0  0  0
    8.1215  -13.2745   26.8461 C   0  0  0  0  0  0  0  0  0  0  0  0
    9.4695  -17.5408   26.3633 C   0  0  0  0  0  0  0  0  0  0  0  0
    9.2900  -18.6078   25.6846 O   0  0  0  0  0  0  0  0  0  0  0  0
   10.2891  -17.6679   27.4726 O   0  0  0  0  0  0  0  0  0  0  0  0
  2  3  1  0
  2  1  1  0
  3 10  1  0
  4  3  2  0
  6  7  1  0
  6  5  1  0
  7  8  1  0
  9  8  1  1
  9 11  1  0
 10  9  1  0
 11 13  1  0
 11 12  2  0
 13 14  1  0
 14 15  1  1
 14 22  1  0
 16 21  2  0
 16 15  1  0
 17 16  1  0
 18 19  1  0
 18 17  2  0
 19 20  2  0
 20 21  1  0
 22 24  1  0
 23 22  2  0
M  END
$$$$
