GMF.pdb
     RDKit          3D

 24 24  0  0  1  0  0  0  0  0999 V2000
    5.7951  -19.7185   22.0100 N   0  0  0  0  0  0  0  0  0  0  0  0
    5.6456  -18.4517   22.6949 C   0  0  0  0  0  0  0  0  0  0  0  0
    6.8387  -17.5739   22.4320 C   0  0  0  0  0  0  0  0  0  0  0  0
    7.9598  -18.0444   22.1282 O   0  0  0  0  0  0  0  0  0  0  0  0
    9.2950  -12.8303   19.4445 C   0  0  0  0  0  0  0  0  0  0  0  0
    7.5047  -12.5939   19.6021 S   0  0  0  0  0  0  0  0  0  0  0  0
    6.8635  -14.0676   20.4921 C   0  0  0  0  0  0  0  0  0  0  0  0
    7.3367  -13.9659   21.9037 C   0  0  0  0  0  0  0  0  0  0  0  0
    7.8367  -15.2520   22.4857 C   0  0  2  0  0  0  0  0  0  0  0  0
    6.7166  -16.1748   22.5244 N   0  0  0  0  0  0  0  0  0  0  0  0
    8.4092  -15.1083   23.8486 C   0  0  0  0  0  0  0  0  0  0  0  0
    8.5556  -13.9966   24.4109 O   0  0  0  0  0  0  0  0  0  0  0  0
    8.8177  -16.2589   24.5708 N   0  0  0  0  0  0  0  0  0  0  0  0
    9.2835  -16.0963   25.9375 C   0  0  1  0  0  0  0  0  0  0  0  0
    8.0521  -15.8241   26.7866 C   0  0  0  0  0  0  0  0  0  0  0  0
    7.6032  -14.4143   26.7228 C   0  0  0  0  0  0  0  0  0  0  0  0
    6.3120  -14.1299   26.3373 C   0  0  0  0  0  0  0  0  0  0  0  0
    5.8175  -12.8402   26.2589 C   0  0  0  0  0  0  0  0  0  0  0  0
    6.6738  -11.8002   26.5866 C   0  0  0  0  0  0  0  0  0  0  0  0
    7.9634  -12.0721   26.9724 C   0  0  0  0  0  0  0  0  0  0  0  0
    8.4545  -13.3801   27.0486 C   0  0  0  0  0  0  0  0  0  0  0  0
   10.0597  -17.2560   26.4016 C   0  0  0  0  0  0  0  0  0  0  0  0
   10.0461  -18.3757   25.7874 O   0  0  0  0  0  0  0  0  0  0  0  0
   10.8549  -17.2045   27.5345 O   0  0  0  0  0  0  0  0  0  0  0  0
  2  3  1  0
  2  1  1  0
  3 10  1  0
  4  3  2  0
  6  7  1  0
  6  5  1  0
  7  8  1  0
  9  8  1  1
  9 11  1  0
 10  9  1  0
 11 13  1  0
 11 12  2  0
 13 14  1  0
 14 15  1  1
 14 22  1  0
 16 21  2  0
 16 15  1  0
 17 16  1  0
 18 19  1  0
 18 17  2  0
 19 20  2  0
 20 21  1  0
 22 24  1  0
 23 22  2  0
M  END
$$$$
