GMF.pdb
     RDKit          3D

 24 24  0  0  1  0  0  0  0  0999 V2000
    5.9726  -18.9503   20.3220 N   0  0  0  0  0  0  0  0  0  0  0  0
    6.4657  -18.9277   21.6831 C   0  0  0  0  0  0  0  0  0  0  0  0
    7.6854  -18.0525   21.7804 C   0  0  0  0  0  0  0  0  0  0  0  0
    8.8455  -18.5065   21.6444 O   0  0  0  0  0  0  0  0  0  0  0  0
    8.5496  -11.7329   20.1201 C   0  0  0  0  0  0  0  0  0  0  0  0
    7.0553  -12.7131   19.8171 S   0  0  0  0  0  0  0  0  0  0  0  0
    7.4742  -14.4468   20.2571 C   0  0  0  0  0  0  0  0  0  0  0  0
    8.1269  -14.4116   21.5987 C   0  0  0  0  0  0  0  0  0  0  0  0
    8.6490  -15.7336   22.0706 C   0  0  2  0  0  0  0  0  0  0  0  0
    7.5444  -16.6748   22.0319 N   0  0  0  0  0  0  0  0  0  0  0  0
    9.2212  -15.6953   23.4406 C   0  0  0  0  0  0  0  0  0  0  0  0
   10.3523  -15.2146   23.6919 O   0  0  0  0  0  0  0  0  0  0  0  0
    8.4814  -16.2171   24.5327 N   0  0  0  0  0  0  0  0  0  0  0  0
    9.0746  -16.1809   25.8586 C   0  0  1  0  0  0  0  0  0  0  0  0
    7.9848  -15.7119   26.8093 C   0  0  0  0  0  0  0  0  0  0  0  0
    7.6396  -14.2822   26.6366 C   0  0  0  0  0  0  0  0  0  0  0  0
    6.3777  -13.9357   26.2075 C   0  0  0  0  0  0  0  0  0  0  0  0
    5.9785  -12.6232   26.0279 C   0  0  0  0  0  0  0  0  0  0  0  0
    6.9031  -11.6255   26.2967 C   0  0  0  0  0  0  0  0  0  0  0  0
    8.1644  -11.9595   26.7251 C   0  0  0  0  0  0  0  0  0  0  0  0
    8.5587  -13.2900   26.9038 C   0  0  0  0  0  0  0  0  0  0  0  0
    9.6573  -17.4755   26.2422 C   0  0  0  0  0  0  0  0  0  0  0  0
    9.5026  -18.5288   25.5366 O   0  0  0  0  0  0  0  0  0  0  0  0
   10.4113  -17.6318   27.3935 O   0  0  0  0  0  0  0  0  0  0  0  0
  2  3  1  0
  2  1  1  0
  3 10  1  0
  4  3  2  0
  6  7  1  0
  6  5  1  0
  7  8  1  0
  9  8  1  1
  9 11  1  0
 10  9  1  0
 11 13  1  0
 11 12  2  0
 13 14  1  0
 14 15  1  1
 14 22  1  0
 16 21  2  0
 16 15  1  0
 17 16  1  0
 18 19  1  0
 18 17  2  0
 19 20  2  0
 20 21  1  0
 22 24  1  0
 23 22  2  0
M  END
$$$$
