GMF.pdb
     RDKit          3D

 24 24  0  0  1  0  0  0  0  0999 V2000
    5.2488  -19.9347   21.4219 N   0  0  0  0  0  0  0  0  0  0  0  0
    5.3325  -18.9153   22.4466 C   0  0  0  0  0  0  0  0  0  0  0  0
    6.4236  -17.9337   22.1163 C   0  0  0  0  0  0  0  0  0  0  0  0
    7.5604  -18.3013   21.7381 O   0  0  0  0  0  0  0  0  0  0  0  0
    8.1836  -11.7284   20.2301 C   0  0  0  0  0  0  0  0  0  0  0  0
    8.3720  -13.4429   19.6726 S   0  0  0  0  0  0  0  0  0  0  0  0
    6.7595  -14.2680   19.9791 C   0  0  0  0  0  0  0  0  0  0  0  0
    6.5783  -14.3374   21.4588 C   0  0  0  0  0  0  0  0  0  0  0  0
    7.2093  -15.5310   22.1068 C   0  0  2  0  0  0  0  0  0  0  0  0
    6.1836  -16.5513   22.2281 N   0  0  0  0  0  0  0  0  0  0  0  0
    7.7889  -15.2478   23.4446 C   0  0  0  0  0  0  0  0  0  0  0  0
    7.7091  -14.1240   23.9962 O   0  0  0  0  0  0  0  0  0  0  0  0
    8.4682  -16.2714   24.1540 N   0  0  0  0  0  0  0  0  0  0  0  0
    8.9340  -15.9952   25.5023 C   0  0  1  0  0  0  0  0  0  0  0  0
    7.6939  -15.7743   26.3535 C   0  0  0  0  0  0  0  0  0  0  0  0
    7.3258  -14.3457   26.4831 C   0  0  0  0  0  0  0  0  0  0  0  0
    8.2932  -13.4227   26.8129 C   0  0  0  0  0  0  0  0  0  0  0  0
    8.0287  -12.0713   26.9466 C   0  0  0  0  0  0  0  0  0  0  0  0
    6.7263  -11.6452   26.7356 C   0  0  0  0  0  0  0  0  0  0  0  0
    5.7535  -12.5569   26.4062 C   0  0  0  0  0  0  0  0  0  0  0  0
    6.0309  -13.9218   26.2733 C   0  0  0  0  0  0  0  0  0  0  0  0
    9.8057  -17.0614   26.0182 C   0  0  0  0  0  0  0  0  0  0  0  0
    9.7534  -18.2586   25.5765 O   0  0  0  0  0  0  0  0  0  0  0  0
   10.7389  -16.8318   27.0157 O   0  0  0  0  0  0  0  0  0  0  0  0
  2  3  1  0
  2  1  1  0
  3 10  1  0
  4  3  2  0
  6  7  1  0
  6  5  1  0
  7  8  1  0
  9  8  1  1
  9 11  1  0
 10  9  1  0
 11 13  1  0
 11 12  2  0
 13 14  1  0
 14 15  1  1
 14 22  1  0
 16 21  2  0
 16 15  1  0
 17 16  1  0
 18 19  1  0
 18 17  2  0
 19 20  2  0
 20 21  1  0
 22 24  1  0
 23 22  2  0
M  END
$$$$
