RLN.pdb
     RDKit          3D

 28 27  0  0  1  0  0  0  0  0999 V2000
    7.1471  -14.7619   18.2133 N   0  0  0  0  0  0  0  0  0  0  0  0
    7.8453  -13.9038   17.3208 C   0  0  0  0  0  0  0  0  0  0  0  0
    7.6532  -14.0951   16.0586 N   0  0  0  0  0  0  0  0  0  0  0  0
    8.7262  -12.8712   17.7747 N   0  0  0  0  0  0  0  0  0  0  0  0
    9.1245  -12.8598   19.1612 C   0  0  0  0  0  0  0  0  0  0  0  0
    8.8067  -14.2048   19.8328 C   0  0  0  0  0  0  0  0  0  0  0  0
    9.2915  -14.0823   21.2433 C   0  0  0  0  0  0  0  0  0  0  0  0
    9.1454  -15.3952   22.0197 C   0  0  2  0  0  0  0  0  0  0  0  0
    7.8736  -16.0144   21.7317 N   0  0  0  0  0  0  0  0  0  0  0  0
    9.1819  -15.0169   23.4446 C   0  0  0  0  0  0  0  0  0  0  0  0
   10.2382  -14.5772   23.9350 O   0  0  0  0  0  0  0  0  0  0  0  0
    8.1274  -13.5450   15.3096 C   0  0  0  0  0  0  0  0  0  0  0  0
    7.8951  -11.7743   25.8934 C   0  0  2  0  0  0  0  0  0  0  0  0
    6.7810  -12.6455   25.3628 C   0  0  0  0  0  0  0  0  0  0  0  0
    5.4242  -11.9972   25.5881 C   0  0  0  0  0  0  0  0  0  0  0  0
    6.8238  -14.0238   25.9753 C   0  0  2  0  0  0  0  0  0  0  0  0
    8.1053  -14.7058   25.6344 N   0  0  0  0  0  0  0  0  0  0  0  0
    8.0374  -15.1472   24.2548 C   0  0  0  0  0  0  0  0  0  0  0  0
    8.3952  -15.8640   26.5054 O   0  0  0  0  0  0  0  0  0  0  0  0
    8.4240  -15.7216   27.7467 N   0  0  0  0  0  0  0  0  0  0  0  0
    6.8474  -21.1198   27.9358 C   0  0  0  0  0  0  0  0  0  0  0  0
    8.0353  -20.4873   27.4734 O   0  0  0  0  0  0  0  0  0  0  0  0
    9.1135  -20.9423   27.8781 C   0  0  0  0  0  0  0  0  0  0  0  0
    7.9319  -19.3618   26.5686 C   0  0  1  0  0  0  0  0  0  0  0  0
    8.9026  -18.2523   26.8566 N   0  0  0  0  0  0  0  0  0  0  0  0
    8.6394  -17.1225   25.9486 C   0  0  0  0  0  0  0  0  0  0  0  0
   10.3203  -18.6297   26.5779 O   0  0  0  0  0  0  0  0  0  0  0  0
   11.0740  -19.3659   27.4793 O   0  0  0  0  0  0  0  0  0  0  0  0
  1  2  1  0
  2  4  1  0
  3  2  2  0
  4  5  1  0
  5  6  1  0
  7  6  1  0
  8  9  1  6
  8  7  1  0
 10  8  1  0
 11 10  2  0
 13 14  1  1
 13 12  1  0
 15 13  1  0
 16 15  1  6
 16 17  1  0
 17 10  1  0
 18 16  1  0
 18 19  2  0
 21 20  1  0
 21 22  2  0
 23 21  1  0
 24 23  1  1
 24 25  1  0
 25 18  1  0
 26 24  1  0
 27 26  1  0
 28 26  2  0
M  END
$$$$
