RLN.pdb
     RDKit          3D

 28 27  0  0  1  0  0  0  0  0999 V2000
    8.6229  -15.3004   17.9597 N   0  0  0  0  0  0  0  0  0  0  0  0
    7.9576  -14.0583   17.7726 C   0  0  0  0  0  0  0  0  0  0  0  0
    7.9986  -13.5481   16.5874 N   0  0  0  0  0  0  0  0  0  0  0  0
    7.2701  -13.3846   18.8318 N   0  0  0  0  0  0  0  0  0  0  0  0
    7.5137  -13.8009   20.1914 C   0  0  0  0  0  0  0  0  0  0  0  0
    7.4595  -15.3318   20.3128 C   0  0  0  0  0  0  0  0  0  0  0  0
    7.7920  -15.6410   21.7388 C   0  0  0  0  0  0  0  0  0  0  0  0
    9.1929  -15.1537   22.1232 C   0  0  2  0  0  0  0  0  0  0  0  0
   10.2006  -16.0388   21.5896 N   0  0  0  0  0  0  0  0  0  0  0  0
    9.2390  -15.2084   23.5962 C   0  0  0  0  0  0  0  0  0  0  0  0
   10.3111  -15.4837   24.1659 O   0  0  0  0  0  0  0  0  0  0  0  0
    7.5955  -12.6175   16.3421 C   0  0  0  0  0  0  0  0  0  0  0  0
    8.1232  -12.0165   26.5156 C   0  0  2  0  0  0  0  0  0  0  0  0
    6.9172  -12.7569   25.9874 C   0  0  0  0  0  0  0  0  0  0  0  0
    5.6263  -12.1290   26.4887 C   0  0  0  0  0  0  0  0  0  0  0  0
    6.9736  -14.2218   26.3442 C   0  0  2  0  0  0  0  0  0  0  0  0
    8.2172  -14.8422   25.8037 N   0  0  0  0  0  0  0  0  0  0  0  0
    8.0863  -14.9529   24.3637 C   0  0  0  0  0  0  0  0  0  0  0  0
    8.4946  -16.1769   26.3742 O   0  0  0  0  0  0  0  0  0  0  0  0
    8.6455  -16.3110   27.6077 N   0  0  0  0  0  0  0  0  0  0  0  0
    6.1165  -19.6511   24.2153 C   0  0  0  0  0  0  0  0  0  0  0  0
    6.8969  -19.8105   25.3945 O   0  0  0  0  0  0  0  0  0  0  0  0
    6.2894  -20.0393   26.4490 C   0  0  0  0  0  0  0  0  0  0  0  0
    8.3379  -19.6996   25.3101 C   0  0  2  0  0  0  0  0  0  0  0  0
    8.9182  -18.5965   26.1484 N   0  0  0  0  0  0  0  0  0  0  0  0
    8.5907  -17.2949   25.5410 C   0  0  0  0  0  0  0  0  0  0  0  0
   10.4107  -18.6202   26.1927 O   0  0  0  0  0  0  0  0  0  0  0  0
   11.1084  -19.5987   26.8843 O   0  0  0  0  0  0  0  0  0  0  0  0
  1  2  1  0
  2  4  1  0
  3  2  2  0
  4  5  1  0
  5  6  1  0
  7  6  1  0
  8  9  1  6
  8  7  1  0
 10  8  1  0
 11 10  2  0
 13 14  1  1
 13 12  1  0
 15 13  1  0
 16 15  1  6
 16 17  1  0
 17 10  1  0
 18 16  1  0
 18 19  2  0
 21 20  1  0
 21 22  2  0
 23 21  1  0
 24 23  1  1
 24 25  1  0
 25 18  1  0
 26 24  1  0
 27 26  1  0
 28 26  2  0
M  END
$$$$
