RLN.pdb
     RDKit          3D

 28 27  0  0  1  0  0  0  0  0999 V2000
    7.7910  -13.2448   19.1543 N   0  0  0  0  0  0  0  0  0  0  0  0
    7.9546  -14.0502   17.9946 C   0  0  0  0  0  0  0  0  0  0  0  0
    8.6467  -13.5464   17.0282 N   0  0  0  0  0  0  0  0  0  0  0  0
    7.3877  -15.3592   17.8786 N   0  0  0  0  0  0  0  0  0  0  0  0
    7.0543  -16.0794   19.0833 C   0  0  0  0  0  0  0  0  0  0  0  0
    8.2547  -16.8999   19.5801 C   0  0  0  0  0  0  0  0  0  0  0  0
    8.4356  -16.5301   21.0189 C   0  0  0  0  0  0  0  0  0  0  0  0
    9.2832  -15.2647   21.1871 C   0  0  2  0  0  0  0  0  0  0  0  0
   10.6421  -15.5061   20.7642 N   0  0  0  0  0  0  0  0  0  0  0  0
    9.2762  -14.9747   22.6330 C   0  0  0  0  0  0  0  0  0  0  0  0
   10.3159  -15.1428   23.2967 O   0  0  0  0  0  0  0  0  0  0  0  0
    8.6882  -13.9558   16.0694 C   0  0  0  0  0  0  0  0  0  0  0  0
    5.7608  -12.0581   26.7717 C   0  0  1  0  0  0  0  0  0  0  0  0
    7.0635  -12.7023   26.3596 C   0  0  0  0  0  0  0  0  0  0  0  0
    8.2216  -11.7250   26.4850 C   0  0  0  0  0  0  0  0  0  0  0  0
    6.9814  -13.2579   24.9592 C   0  0  2  0  0  0  0  0  0  0  0  0
    8.1955  -14.0655   24.6471 N   0  0  0  0  0  0  0  0  0  0  0  0
    8.1090  -14.5106   23.2698 C   0  0  0  0  0  0  0  0  0  0  0  0
    8.3547  -15.2386   25.5318 O   0  0  0  0  0  0  0  0  0  0  0  0
    8.4823  -15.0796   26.7648 N   0  0  0  0  0  0  0  0  0  0  0  0
    5.9048  -18.6978   23.7959 C   0  0  0  0  0  0  0  0  0  0  0  0
    6.4045  -18.6645   25.1280 O   0  0  0  0  0  0  0  0  0  0  0  0
    5.5867  -18.4580   26.0346 C   0  0  0  0  0  0  0  0  0  0  0  0
    7.8190  -18.8690   25.3587 C   0  0  2  0  0  0  0  0  0  0  0  0
    8.5291  -17.6689   25.9170 N   0  0  0  0  0  0  0  0  0  0  0  0
    8.3645  -16.5299   24.9971 C   0  0  0  0  0  0  0  0  0  0  0  0
   10.0074  -17.8574   26.0132 O   0  0  0  0  0  0  0  0  0  0  0  0
   10.8463  -17.6407   24.9307 O   0  0  0  0  0  0  0  0  0  0  0  0
  1  2  1  0
  2  4  1  0
  3  2  2  0
  4  5  1  0
  5  6  1  0
  7  6  1  0
  8  9  1  1
  8  7  1  0
 10  8  1  0
 11 10  2  0
 13 14  1  6
 13 12  1  0
 15 13  1  0
 16 15  1  6
 16 17  1  0
 17 10  1  0
 18 16  1  0
 18 19  2  0
 21 20  1  0
 21 22  2  0
 23 21  1  0
 24 23  1  1
 24 25  1  0
 25 18  1  0
 26 24  1  0
 27 26  1  0
 28 26  2  0
M  END
$$$$
