VNW.pdb
     RDKit          3D

 30 31  0  0  1  0  0  0  0  0999 V2000
   30.4647  -17.0733  -16.7238 C   0  0  0  0  0  0  0  0  0  0  0  0
   29.2315  -17.7461  -16.1668 C   0  0  1  0  0  0  0  0  0  0  0  0
   28.1519  -16.6772  -16.1045 C   0  0  0  0  0  0  0  0  0  0  0  0
   28.8279  -18.8370  -17.1311 C   0  0  2  0  0  0  0  0  0  0  0  0
   28.7024  -18.2790  -18.4555 N   0  0  0  0  0  0  0  0  0  0  0  0
   27.5842  -19.4804  -16.6941 C   0  0  0  0  0  0  0  0  0  0  0  0
   26.5020  -19.0850  -17.2427 O   0  0  0  0  0  0  0  0  0  0  0  0
   24.0918  -22.7894  -15.6268 N   0  0  0  0  0  0  0  0  0  0  0  0
   24.9498  -22.9628  -16.7292 C   0  0  0  0  0  0  0  0  0  0  0  0
   24.6497  -23.7643  -17.6346 O   0  0  0  0  0  0  0  0  0  0  0  0
   26.2051  -22.1964  -16.8146 C   0  0  0  0  0  0  0  0  0  0  0  0
   26.3910  -21.3281  -15.5900 C   0  0  2  0  0  0  0  0  0  0  0  0
   27.5542  -20.5024  -15.7042 N   0  0  0  0  0  0  0  0  0  0  0  0
   26.4136  -22.1402  -14.3441 C   0  0  0  0  0  0  0  0  0  0  0  0
   27.4284  -22.8304  -14.1281 O   0  0  0  0  0  0  0  0  0  0  0  0
   25.3301  -22.1229  -13.4543 N   0  0  0  0  0  0  0  0  0  0  0  0
   25.2772  -21.6619  -12.1128 C   0  0  1  0  0  0  0  0  0  0  0  0
   26.6155  -21.1741  -11.5398 C   0  0  0  0  0  0  0  0  0  0  0  0
   26.5037  -20.6542  -10.1677 C   0  0  0  0  0  0  0  0  0  0  0  0
   25.4493  -20.1016   -9.5042 C   0  0  0  0  0  0  0  0  0  0  0  0
   25.8067  -19.7673   -8.2301 N   0  0  0  0  0  0  0  0  0  0  0  0
   27.0902  -20.0948   -8.0426 C   0  0  0  0  0  0  0  0  0  0  0  0
   27.9140  -19.9720   -6.9519 C   0  0  0  0  0  0  0  0  0  0  0  0
   29.2122  -20.4183   -7.0770 C   0  0  0  0  0  0  0  0  0  0  0  0
   29.6996  -20.9699   -8.2301 C   0  0  0  0  0  0  0  0  0  0  0  0
   28.8425  -21.0847   -9.3283 C   0  0  0  0  0  0  0  0  0  0  0  0
   27.5415  -20.6476   -9.2344 C   0  0  0  0  0  0  0  0  0  0  0  0
   24.1442  -20.8247  -11.7461 C   0  0  0  0  0  0  0  0  0  0  0  0
   23.4436  -21.0862  -10.7074 O   0  0  0  0  0  0  0  0  0  0  0  0
   23.7321  -19.7078  -12.4594 O   0  0  0  0  0  0  0  0  0  0  0  0
  2  1  1  6
  3  2  1  0
  4  2  1  0
  4  5  1  6
  6  4  1  0
  7  6  2  0
  8  9  1  0
  9 10  2  0
 11  9  1  0
 12 11  1  6
 12 13  1  0
 13  6  1  0
 14 12  1  0
 14 16  1  0
 15 14  2  0
 17 16  1  0
 17 28  1  0
 17 18  1  6
 19 18  1  0
 20 19  2  0
 21 20  1  0
 22 21  1  0
 22 27  2  0
 23 22  1  0
 24 23  2  0
 24 25  1  0
 25 26  2  0
 26 27  1  0
 27 19  1  0
 28 30  1  0
 29 28  2  0
M  END
$$$$
