VNW.pdb
     RDKit          3D

 30 31  0  0  1  0  0  0  0  0999 V2000
   21.5738  -21.2589  -16.6466 C   0  0  0  0  0  0  0  0  0  0  0  0
   22.6253  -21.4765  -15.5833 C   0  0  1  0  0  0  0  0  0  0  0  0
   22.1160  -22.6064  -14.7024 C   0  0  0  0  0  0  0  0  0  0  0  0
   23.9013  -21.8929  -16.2771 C   0  0  2  0  0  0  0  0  0  0  0  0
   23.6707  -23.1188  -17.0018 N   0  0  0  0  0  0  0  0  0  0  0  0
   24.9949  -22.0329  -15.3095 C   0  0  0  0  0  0  0  0  0  0  0  0
   25.1299  -23.1700  -14.7464 O   0  0  0  0  0  0  0  0  0  0  0  0
   28.6202  -20.1068  -16.6204 N   0  0  0  0  0  0  0  0  0  0  0  0
   28.7897  -20.7915  -15.4022 C   0  0  0  0  0  0  0  0  0  0  0  0
   29.5319  -21.7907  -15.3450 O   0  0  0  0  0  0  0  0  0  0  0  0
   28.0896  -20.3279  -14.1918 C   0  0  0  0  0  0  0  0  0  0  0  0
   26.8406  -21.1448  -13.9451 C   0  0  2  0  0  0  0  0  0  0  0  0
   25.8815  -20.9659  -14.9920 N   0  0  0  0  0  0  0  0  0  0  0  0
   26.2555  -20.8564  -12.6085 C   0  0  0  0  0  0  0  0  0  0  0  0
   25.3742  -19.9776  -12.5461 O   0  0  0  0  0  0  0  0  0  0  0  0
   26.6859  -21.5516  -11.4694 N   0  0  0  0  0  0  0  0  0  0  0  0
   26.3084  -21.3733  -10.1127 C   0  0  1  0  0  0  0  0  0  0  0  0
   27.4449  -21.5417   -9.0941 C   0  0  0  0  0  0  0  0  0  0  0  0
   27.4690  -20.4831   -8.0722 C   0  0  0  0  0  0  0  0  0  0  0  0
   26.7313  -19.3441   -7.9472 C   0  0  0  0  0  0  0  0  0  0  0  0
   27.0949  -18.6582   -6.8247 N   0  0  0  0  0  0  0  0  0  0  0  0
   28.0679  -19.3340   -6.2030 C   0  0  0  0  0  0  0  0  0  0  0  0
   28.7637  -19.0777   -5.0482 C   0  0  0  0  0  0  0  0  0  0  0  0
   29.7214  -19.9908   -4.6621 C   0  0  0  0  0  0  0  0  0  0  0  0
   29.9975  -21.1239   -5.3770 C   0  0  0  0  0  0  0  0  0  0  0  0
   29.2764  -21.3643   -6.5502 C   0  0  0  0  0  0  0  0  0  0  0  0
   28.3147  -20.4711   -6.9618 C   0  0  0  0  0  0  0  0  0  0  0  0
   25.4169  -20.2614   -9.8157 C   0  0  0  0  0  0  0  0  0  0  0  0
   25.6441  -19.0936  -10.2879 O   0  0  0  0  0  0  0  0  0  0  0  0
   24.2813  -20.3577   -9.0239 O   0  0  0  0  0  0  0  0  0  0  0  0
  2  1  1  6
  3  2  1  0
  4  2  1  0
  4  5  1  1
  6  4  1  0
  7  6  2  0
  8  9  1  0
  9 10  2  0
 11  9  1  0
 12 11  1  6
 12 13  1  0
 13  6  1  0
 14 12  1  0
 14 16  1  0
 15 14  2  0
 17 16  1  0
 17 28  1  0
 17 18  1  1
 19 18  1  0
 20 19  2  0
 21 20  1  0
 22 21  1  0
 22 27  2  0
 23 22  1  0
 24 23  2  0
 24 25  1  0
 25 26  2  0
 26 27  1  0
 27 19  1  0
 28 30  1  0
 29 28  2  0
M  END
$$$$
