VNW.pdb
     RDKit          3D

 30 31  0  0  1  0  0  0  0  0999 V2000
   27.4853  -23.4548  -19.8778 C   0  0  0  0  0  0  0  0  0  0  0  0
   27.3640  -23.1126  -18.4109 C   0  0  1  0  0  0  0  0  0  0  0  0
   27.1764  -24.4315  -17.6777 C   0  0  0  0  0  0  0  0  0  0  0  0
   28.6573  -22.4593  -17.9829 C   0  0  2  0  0  0  0  0  0  0  0  0
   29.7451  -23.3876  -18.1726 N   0  0  0  0  0  0  0  0  0  0  0  0
   28.5711  -22.0025  -16.5916 C   0  0  0  0  0  0  0  0  0  0  0  0
   29.1738  -22.7036  -15.7119 O   0  0  0  0  0  0  0  0  0  0  0  0
   26.5492  -17.1702  -14.7067 N   0  0  0  0  0  0  0  0  0  0  0  0
   27.3391  -18.1040  -15.4034 C   0  0  0  0  0  0  0  0  0  0  0  0
   27.2686  -18.1791  -16.6451 O   0  0  0  0  0  0  0  0  0  0  0  0
   28.2512  -18.9950  -14.6655 C   0  0  0  0  0  0  0  0  0  0  0  0
   27.8439  -20.4421  -14.8329 C   0  0  2  0  0  0  0  0  0  0  0  0
   27.8543  -20.8341  -16.2092 N   0  0  0  0  0  0  0  0  0  0  0  0
   26.5293  -20.7160  -14.1934 C   0  0  0  0  0  0  0  0  0  0  0  0
   25.5081  -20.5474  -14.8872 O   0  0  0  0  0  0  0  0  0  0  0  0
   26.4532  -21.1465  -12.8610 N   0  0  0  0  0  0  0  0  0  0  0  0
   25.3074  -21.3632  -12.0516 C   0  0  1  0  0  0  0  0  0  0  0  0
   25.5856  -22.0276  -10.6956 C   0  0  0  0  0  0  0  0  0  0  0  0
   26.2332  -21.1255   -9.7300 C   0  0  0  0  0  0  0  0  0  0  0  0
   25.7104  -20.1759   -8.9041 C   0  0  0  0  0  0  0  0  0  0  0  0
   26.6966  -19.5840   -8.1694 N   0  0  0  0  0  0  0  0  0  0  0  0
   27.8701  -20.1344   -8.5009 C   0  0  0  0  0  0  0  0  0  0  0  0
   29.1468  -19.9004   -8.0551 C   0  0  0  0  0  0  0  0  0  0  0  0
   30.1635  -20.6541   -8.6013 C   0  0  0  0  0  0  0  0  0  0  0  0
   29.9482  -21.6105   -9.5553 C   0  0  0  0  0  0  0  0  0  0  0  0
   28.6397  -21.8315   -9.9945 C   0  0  0  0  0  0  0  0  0  0  0  0
   27.6039  -21.0947   -9.4687 C   0  0  0  0  0  0  0  0  0  0  0  0
   24.3320  -20.2846  -11.9851 C   0  0  0  0  0  0  0  0  0  0  0  0
   24.6710  -19.0765  -12.2374 O   0  0  0  0  0  0  0  0  0  0  0  0
   22.9951  -20.4566  -11.6550 O   0  0  0  0  0  0  0  0  0  0  0  0
  2  1  1  6
  3  2  1  0
  4  2  1  0
  4  5  1  1
  6  4  1  0
  7  6  2  0
  8  9  1  0
  9 10  2  0
 11  9  1  0
 12 11  1  6
 12 13  1  0
 13  6  1  0
 14 12  1  0
 14 16  1  0
 15 14  2  0
 17 16  1  0
 17 28  1  0
 17 18  1  1
 19 18  1  0
 20 19  2  0
 21 20  1  0
 22 21  1  0
 22 27  2  0
 23 22  1  0
 24 23  2  0
 24 25  1  0
 25 26  2  0
 26 27  1  0
 27 19  1  0
 28 30  1  0
 29 28  2  0
M  END
$$$$
