VNW.pdb
     RDKit          3D

 30 31  0  0  1  0  0  0  0  0999 V2000
   19.2304  -14.3922  -16.5477 C   0  0  0  0  0  0  0  0  0  0  0  0
   19.5063  -12.9068  -16.5139 C   0  0  1  0  0  0  0  0  0  0  0  0
   20.2535  -12.6395  -15.2169 C   0  0  0  0  0  0  0  0  0  0  0  0
   20.3847  -12.5755  -17.6978 C   0  0  2  0  0  0  0  0  0  0  0  0
   21.5503  -13.4254  -17.6782 N   0  0  0  0  0  0  0  0  0  0  0  0
   20.7498  -11.1548  -17.6902 C   0  0  0  0  0  0  0  0  0  0  0  0
   21.9272  -10.8599  -17.2960 O   0  0  0  0  0  0  0  0  0  0  0  0
   20.9206   -6.2492  -20.2351 N   0  0  0  0  0  0  0  0  0  0  0  0
   19.9918   -6.5793  -19.2302 C   0  0  0  0  0  0  0  0  0  0  0  0
   19.6047   -5.7091  -18.4269 O   0  0  0  0  0  0  0  0  0  0  0  0
   19.4752   -7.9550  -19.1262 C   0  0  0  0  0  0  0  0  0  0  0  0
   20.3290   -8.7822  -18.1908 C   0  0  2  0  0  0  0  0  0  0  0  0
   19.8523  -10.1284  -18.0979 N   0  0  0  0  0  0  0  0  0  0  0  0
   20.4436   -8.1462  -16.8512 C   0  0  0  0  0  0  0  0  0  0  0  0
   19.9589   -8.7606  -15.8815 O   0  0  0  0  0  0  0  0  0  0  0  0
   21.0741   -6.9033  -16.6964 N   0  0  0  0  0  0  0  0  0  0  0  0
   21.5157   -6.2622  -15.5095 C   0  0  1  0  0  0  0  0  0  0  0  0
   22.3532   -7.1407  -14.5691 C   0  0  0  0  0  0  0  0  0  0  0  0
   23.6358   -7.5598  -15.1564 C   0  0  0  0  0  0  0  0  0  0  0  0
   24.4874   -6.9111  -15.9997 C   0  0  0  0  0  0  0  0  0  0  0  0
   25.5728   -7.6904  -16.2778 N   0  0  0  0  0  0  0  0  0  0  0  0
   25.4484   -8.8513  -15.6245 C   0  0  0  0  0  0  0  0  0  0  0  0
   26.2587   -9.9574  -15.5658 C   0  0  0  0  0  0  0  0  0  0  0  0
   25.8451  -11.0127  -14.7813 C   0  0  0  0  0  0  0  0  0  0  0  0
   24.6758  -10.9962  -14.0714 C   0  0  0  0  0  0  0  0  0  0  0  0
   23.8663   -9.8591  -14.1465 C   0  0  0  0  0  0  0  0  0  0  0  0
   24.2518   -8.7900  -14.9216 C   0  0  0  0  0  0  0  0  0  0  0  0
   22.0178   -4.9021  -15.6409 C   0  0  0  0  0  0  0  0  0  0  0  0
   22.2566   -4.3990  -16.7933 O   0  0  0  0  0  0  0  0  0  0  0  0
   22.2753   -4.0553  -14.5719 O   0  0  0  0  0  0  0  0  0  0  0  0
  2  1  1  6
  3  2  1  0
  4  2  1  0
  4  5  1  1
  6  4  1  0
  7  6  2  0
  8  9  1  0
  9 10  2  0
 11  9  1  0
 12 11  1  6
 12 13  1  0
 13  6  1  0
 14 12  1  0
 14 16  1  0
 15 14  2  0
 17 16  1  0
 17 28  1  0
 17 18  1  6
 19 18  1  0
 20 19  2  0
 21 20  1  0
 22 21  1  0
 22 27  2  0
 23 22  1  0
 24 23  2  0
 24 25  1  0
 25 26  2  0
 26 27  1  0
 27 19  1  0
 28 30  1  0
 29 28  2  0
M  END
$$$$
