VNW.pdb
     RDKit          3D

 30 31  0  0  1  0  0  0  0  0999 V2000
   21.4053  -19.5712  -15.9408 C   0  0  0  0  0  0  0  0  0  0  0  0
   22.5958  -19.8999  -15.0700 C   0  0  1  0  0  0  0  0  0  0  0  0
   22.3141  -21.2623  -14.4563 C   0  0  0  0  0  0  0  0  0  0  0  0
   23.8122  -19.9736  -15.9632 C   0  0  2  0  0  0  0  0  0  0  0  0
   23.5899  -20.9627  -16.9895 N   0  0  0  0  0  0  0  0  0  0  0  0
   25.0148  -20.2693  -15.1770 C   0  0  0  0  0  0  0  0  0  0  0  0
   25.2677  -21.4980  -14.9426 O   0  0  0  0  0  0  0  0  0  0  0  0
   29.0951  -19.3718  -16.0927 N   0  0  0  0  0  0  0  0  0  0  0  0
   28.4731  -18.3618  -15.3347 C   0  0  0  0  0  0  0  0  0  0  0  0
   28.2331  -17.2527  -15.8491 O   0  0  0  0  0  0  0  0  0  0  0  0
   28.1044  -18.6143  -13.9309 C   0  0  0  0  0  0  0  0  0  0  0  0
   26.9775  -19.6194  -13.8419 C   0  0  2  0  0  0  0  0  0  0  0  0
   25.8798  -19.2526  -14.6836 N   0  0  0  0  0  0  0  0  0  0  0  0
   26.5445  -19.8300  -12.4347 C   0  0  0  0  0  0  0  0  0  0  0  0
   25.8028  -18.9665  -11.9278 O   0  0  0  0  0  0  0  0  0  0  0  0
   26.9607  -20.9594  -11.7152 N   0  0  0  0  0  0  0  0  0  0  0  0
   26.6837  -21.3194  -10.3704 C   0  0  1  0  0  0  0  0  0  0  0  0
   27.8647  -21.1689   -9.4008 C   0  0  0  0  0  0  0  0  0  0  0  0
   27.4795  -20.5911   -8.1033 C   0  0  0  0  0  0  0  0  0  0  0  0
   26.2840  -20.1123   -7.6574 C   0  0  0  0  0  0  0  0  0  0  0  0
   26.3926  -19.6773   -6.3684 N   0  0  0  0  0  0  0  0  0  0  0  0
   27.6511  -19.8646   -5.9550 C   0  0  0  0  0  0  0  0  0  0  0  0
   28.2672  -19.6027   -4.7570 C   0  0  0  0  0  0  0  0  0  0  0  0
   29.6029  -19.9231   -4.6408 C   0  0  0  0  0  0  0  0  0  0  0  0
   30.3231  -20.4833   -5.6600 C   0  0  0  0  0  0  0  0  0  0  0  0
   29.6748  -20.7410   -6.8713 C   0  0  0  0  0  0  0  0  0  0  0  0
   28.3425  -20.4317   -7.0180 C   0  0  0  0  0  0  0  0  0  0  0  0
   25.4123  -20.8770   -9.8165 C   0  0  0  0  0  0  0  0  0  0  0  0
   24.8820  -19.7735  -10.1897 O   0  0  0  0  0  0  0  0  0  0  0  0
   24.6831  -21.5814   -8.8688 O   0  0  0  0  0  0  0  0  0  0  0  0
  2  1  1  6
  3  2  1  0
  4  2  1  0
  4  5  1  6
  6  4  1  0
  7  6  2  0
  8  9  1  0
  9 10  2  0
 11  9  1  0
 12 11  1  1
 12 13  1  0
 13  6  1  0
 14 12  1  0
 14 16  1  0
 15 14  2  0
 17 16  1  0
 17 28  1  0
 17 18  1  1
 19 18  1  0
 20 19  2  0
 21 20  1  0
 22 21  1  0
 22 27  2  0
 23 22  1  0
 24 23  2  0
 24 25  1  0
 25 26  2  0
 26 27  1  0
 27 19  1  0
 28 30  1  0
 29 28  2  0
M  END
$$$$
