VNW.pdb
     RDKit          3D

 30 31  0  0  1  0  0  0  0  0999 V2000
   28.3922  -23.4770  -17.2447 C   0  0  0  0  0  0  0  0  0  0  0  0
   29.4112  -22.6167  -17.9556 C   0  0  1  0  0  0  0  0  0  0  0  0
   29.6990  -23.3018  -19.2822 C   0  0  0  0  0  0  0  0  0  0  0  0
   28.7834  -21.2634  -18.1948 C   0  0  2  0  0  0  0  0  0  0  0  0
   29.7047  -20.4354  -18.9344 N   0  0  0  0  0  0  0  0  0  0  0  0
   28.3951  -20.6409  -16.9246 C   0  0  0  0  0  0  0  0  0  0  0  0
   29.3337  -20.1807  -16.1926 O   0  0  0  0  0  0  0  0  0  0  0  0
   24.3266  -18.9535  -17.2924 N   0  0  0  0  0  0  0  0  0  0  0  0
   24.5747  -19.0217  -15.9084 C   0  0  0  0  0  0  0  0  0  0  0  0
   23.6646  -19.3567  -15.1262 O   0  0  0  0  0  0  0  0  0  0  0  0
   25.9117  -18.6972  -15.3819 C   0  0  0  0  0  0  0  0  0  0  0  0
   26.7497  -19.9474  -15.2309 C   0  0  2  0  0  0  0  0  0  0  0  0
   27.0403  -20.5406  -16.5003 N   0  0  0  0  0  0  0  0  0  0  0  0
   26.1152  -20.9203  -14.3020 C   0  0  0  0  0  0  0  0  0  0  0  0
   25.9680  -22.0890  -14.7087 O   0  0  0  0  0  0  0  0  0  0  0  0
   25.7019  -20.5276  -13.0209 N   0  0  0  0  0  0  0  0  0  0  0  0
   25.1615  -21.3154  -11.9710 C   0  0  1  0  0  0  0  0  0  0  0  0
   26.1808  -21.7961  -10.9281 C   0  0  0  0  0  0  0  0  0  0  0  0
   26.3542  -20.8549   -9.8102 C   0  0  0  0  0  0  0  0  0  0  0  0
   25.4672  -20.0211   -9.1978 C   0  0  0  0  0  0  0  0  0  0  0  0
   26.0756  -19.3309   -8.1897 N   0  0  0  0  0  0  0  0  0  0  0  0
   27.3597  -19.7012   -8.1278 C   0  0  0  0  0  0  0  0  0  0  0  0
   28.3829  -19.3135   -7.2995 C   0  0  0  0  0  0  0  0  0  0  0  0
   29.6169  -19.8975   -7.4903 C   0  0  0  0  0  0  0  0  0  0  0  0
   29.8531  -20.8338   -8.4592 C   0  0  0  0  0  0  0  0  0  0  0  0
   28.7960  -21.2132   -9.2914 C   0  0  0  0  0  0  0  0  0  0  0  0
   27.5529  -20.6477   -9.1260 C   0  0  0  0  0  0  0  0  0  0  0  0
   23.9001  -20.8727  -11.3949 C   0  0  0  0  0  0  0  0  0  0  0  0
   23.5204  -19.6551  -11.5031 O   0  0  0  0  0  0  0  0  0  0  0  0
   23.0239  -21.6956  -10.7013 O   0  0  0  0  0  0  0  0  0  0  0  0
  2  1  1  1
  3  2  1  0
  4  2  1  0
  4  5  1  1
  6  4  1  0
  7  6  2  0
  8  9  1  0
  9 10  2  0
 11  9  1  0
 12 11  1  6
 12 13  1  0
 13  6  1  0
 14 12  1  0
 14 16  1  0
 15 14  2  0
 17 16  1  0
 17 28  1  0
 17 18  1  1
 19 18  1  0
 20 19  2  0
 21 20  1  0
 22 21  1  0
 22 27  2  0
 23 22  1  0
 24 23  2  0
 24 25  1  0
 25 26  2  0
 26 27  1  0
 27 19  1  0
 28 30  1  0
 29 28  2  0
M  END
$$$$
