VNW.pdb
     RDKit          3D

 30 31  0  0  1  0  0  0  0  0999 V2000
   25.4627  -23.8656  -14.7270 C   0  0  0  0  0  0  0  0  0  0  0  0
   26.3148  -23.1262  -15.7325 C   0  0  1  0  0  0  0  0  0  0  0  0
   26.2878  -23.9542  -17.0075 C   0  0  0  0  0  0  0  0  0  0  0  0
   25.6757  -21.7786  -15.9740 C   0  0  2  0  0  0  0  0  0  0  0  0
   26.4006  -21.0873  -17.0121 N   0  0  0  0  0  0  0  0  0  0  0  0
   25.6293  -20.9977  -14.7332 C   0  0  0  0  0  0  0  0  0  0  0  0
   26.7272  -20.4918  -14.3241 O   0  0  0  0  0  0  0  0  0  0  0  0
   24.1906  -17.8873  -14.3232 N   0  0  0  0  0  0  0  0  0  0  0  0
   23.1391  -18.1486  -13.4245 C   0  0  0  0  0  0  0  0  0  0  0  0
   22.1364  -17.4093  -13.4040 O   0  0  0  0  0  0  0  0  0  0  0  0
   23.2221  -19.2973  -12.5060 C   0  0  0  0  0  0  0  0  0  0  0  0
   24.4849  -20.0933  -12.7509 C   0  0  2  0  0  0  0  0  0  0  0  0
   24.4287  -20.7962  -13.9962 N   0  0  0  0  0  0  0  0  0  0  0  0
   24.7816  -21.0080  -11.6163 C   0  0  0  0  0  0  0  0  0  0  0  0
   24.1673  -22.0915  -11.5778 O   0  0  0  0  0  0  0  0  0  0  0  0
   25.7176  -20.6554  -10.6336 N   0  0  0  0  0  0  0  0  0  0  0  0
   26.0018  -21.2893   -9.3957 C   0  0  1  0  0  0  0  0  0  0  0  0
   27.4355  -21.0969   -8.8809 C   0  0  0  0  0  0  0  0  0  0  0  0
   27.5611  -19.9953   -7.9134 C   0  0  0  0  0  0  0  0  0  0  0  0
   27.0103  -18.7488   -7.9013 C   0  0  0  0  0  0  0  0  0  0  0  0
   27.4031  -18.0619   -6.7893 N   0  0  0  0  0  0  0  0  0  0  0  0
   28.2099  -18.8435   -6.0626 C   0  0  0  0  0  0  0  0  0  0  0  0
   28.8582  -18.6303   -4.8720 C   0  0  0  0  0  0  0  0  0  0  0  0
   29.6276  -19.6577   -4.3693 C   0  0  0  0  0  0  0  0  0  0  0  0
   29.7648  -20.8615   -5.0046 C   0  0  0  0  0  0  0  0  0  0  0  0
   29.0954  -21.0561   -6.2162 C   0  0  0  0  0  0  0  0  0  0  0  0
   28.3205  -20.0492   -6.7435 C   0  0  0  0  0  0  0  0  0  0  0  0
   24.9887  -21.1907   -8.3551 C   0  0  0  0  0  0  0  0  0  0  0  0
   25.0891  -21.8698   -7.2747 O   0  0  0  0  0  0  0  0  0  0  0  0
   23.8625  -20.3835   -8.4320 O   0  0  0  0  0  0  0  0  0  0  0  0
  2  1  1  1
  3  2  1  0
  4  2  1  0
  4  5  1  6
  6  4  1  0
  7  6  2  0
  8  9  1  0
  9 10  2  0
 11  9  1  0
 12 11  1  1
 12 13  1  0
 13  6  1  0
 14 12  1  0
 14 16  1  0
 15 14  2  0
 17 16  1  0
 17 28  1  0
 17 18  1  1
 19 18  1  0
 20 19  2  0
 21 20  1  0
 22 21  1  0
 22 27  2  0
 23 22  1  0
 24 23  2  0
 24 25  1  0
 25 26  2  0
 26 27  1  0
 27 19  1  0
 28 30  1  0
 29 28  2  0
M  END
$$$$
