KPV.pdb
     RDKit          3D

 24 24  0  0  1  0  0  0  0  0999 V2000
   24.6293  -22.2862  -16.3903 N   0  0  0  0  0  0  0  0  0  0  0  0
   25.1968  -21.1506  -15.7152 C   0  0  1  0  0  0  0  0  0  0  0  0
   24.1276  -20.0704  -15.4790 C   0  0  0  0  0  0  0  0  0  0  0  0
   24.0138  -19.2125  -16.7229 C   0  0  0  0  0  0  0  0  0  0  0  0
   22.7051  -19.3828  -17.4201 C   0  0  0  0  0  0  0  0  0  0  0  0
   22.5750  -18.5679  -18.6677 C   0  0  0  0  0  0  0  0  0  0  0  0
   21.3068  -18.9398  -19.2956 N   0  0  0  0  0  0  0  0  0  0  0  0
   25.8584  -21.5159  -14.4521 C   0  0  0  0  0  0  0  0  0  0  0  0
   25.4672  -22.6365  -13.9566 O   0  0  0  0  0  0  0  0  0  0  0  0
   26.8421  -20.7936  -13.7481 N   0  0  0  0  0  0  0  0  0  0  0  0
   27.3653  -19.5076  -14.0665 C   0  0  0  0  0  0  0  0  0  0  0  0
   28.7201  -19.4673  -13.3882 C   0  0  0  0  0  0  0  0  0  0  0  0
   28.9443  -20.8738  -12.8507 C   0  0  0  0  0  0  0  0  0  0  0  0
   27.4919  -21.2380  -12.5373 C   0  0  1  0  0  0  0  0  0  0  0  0
   26.9564  -20.4455  -11.4118 C   0  0  0  0  0  0  0  0  0  0  0  0
   26.2240  -19.4279  -11.6122 O   0  0  0  0  0  0  0  0  0  0  0  0
   25.6317  -21.2662   -6.7368 C   0  0  0  0  0  0  0  0  0  0  0  0
   26.7771  -21.2705   -7.7320 C   0  0  2  0  0  0  0  0  0  0  0  0
   27.8004  -20.2951   -7.2570 C   0  0  0  0  0  0  0  0  0  0  0  0
   26.2040  -20.9158   -9.0837 C   0  0  2  0  0  0  0  0  0  0  0  0
   27.2688  -20.8318  -10.0781 N   0  0  0  0  0  0  0  0  0  0  0  0
   25.5316  -19.6077   -8.9479 C   0  0  0  0  0  0  0  0  0  0  0  0
   24.1872  -19.5656   -8.6494 O   0  0  0  0  0  0  0  0  0  0  0  0
   26.1612  -18.5498   -9.0989 O   0  0  0  0  0  0  0  0  0  0  0  0
  2  1  1  1
  3  2  1  0
  4  3  1  0
  5  4  1  0
  5  6  1  0
  7  6  1  0
  8  2  1  0
  9  8  2  0
 10 11  1  0
 10  8  1  0
 12 11  1  0
 13 12  1  0
 13 14  1  0
 14 10  1  0
 15 16  2  0
 14 15  1  1
 18 17  1  1
 19 18  1  0
 20 18  1  0
 20 21  1  6
 21 15  1  0
 22 20  1  0
 23 22  1  0
 24 22  2  0
M  END
$$$$
