KPV.pdb
     RDKit          3D

 24 24  0  0  1  0  0  0  0  0999 V2000
   21.4365  -21.1377  -14.0432 N   0  0  0  0  0  0  0  0  0  0  0  0
   21.4022  -20.5223  -12.7442 C   0  0  1  0  0  0  0  0  0  0  0  0
   20.2716  -19.4823  -12.6668 C   0  0  0  0  0  0  0  0  0  0  0  0
   19.2253  -19.8165  -13.7107 C   0  0  0  0  0  0  0  0  0  0  0  0
   17.9884  -20.4038  -13.1165 C   0  0  0  0  0  0  0  0  0  0  0  0
   16.9588  -20.7942  -14.1288 C   0  0  0  0  0  0  0  0  0  0  0  0
   15.8776  -21.4662  -13.4074 N   0  0  0  0  0  0  0  0  0  0  0  0
   21.2831  -21.5055  -11.6555 C   0  0  0  0  0  0  0  0  0  0  0  0
   21.1067  -22.7155  -12.0544 O   0  0  0  0  0  0  0  0  0  0  0  0
   21.3386  -21.2728  -10.2671 N   0  0  0  0  0  0  0  0  0  0  0  0
   21.3558  -20.0140   -9.6005 C   0  0  0  0  0  0  0  0  0  0  0  0
   21.9847  -20.3038   -8.2523 C   0  0  0  0  0  0  0  0  0  0  0  0
   22.4558  -21.7494   -8.3290 C   0  0  0  0  0  0  0  0  0  0  0  0
   21.3678  -22.3004   -9.2527 C   0  0  1  0  0  0  0  0  0  0  0  0
   20.0475  -22.3301   -8.5915 C   0  0  0  0  0  0  0  0  0  0  0  0
   19.3076  -21.2991   -8.5510 O   0  0  0  0  0  0  0  0  0  0  0  0
   18.4136  -26.1081   -7.9013 C   0  0  0  0  0  0  0  0  0  0  0  0
   17.6072  -24.8995   -8.3387 C   0  0  2  0  0  0  0  0  0  0  0  0
   17.6840  -24.8112   -9.8254 C   0  0  0  0  0  0  0  0  0  0  0  0
   18.1886  -23.6912   -7.6433 C   0  0  2  0  0  0  0  0  0  0  0  0
   19.5981  -23.5386   -7.9888 N   0  0  0  0  0  0  0  0  0  0  0  0
   18.0424  -23.9066   -6.1894 C   0  0  0  0  0  0  0  0  0  0  0  0
   16.8140  -23.7118   -5.5965 O   0  0  0  0  0  0  0  0  0  0  0  0
   19.0096  -24.2598   -5.4979 O   0  0  0  0  0  0  0  0  0  0  0  0
  2  1  1  6
  3  2  1  0
  4  3  1  0
  5  4  1  0
  5  6  1  0
  7  6  1  0
  8  2  1  0
  9  8  2  0
 10 11  1  0
 10  8  1  0
 12 11  1  0
 13 12  1  0
 13 14  1  0
 14 10  1  0
 15 16  2  0
 14 15  1  1
 18 17  1  1
 19 18  1  0
 20 18  1  0
 20 21  1  1
 21 15  1  0
 22 20  1  0
 23 22  1  0
 24 22  2  0
M  END
$$$$
