KPV.pdb
     RDKit          3D

 24 24  0  0  1  0  0  0  0  0999 V2000
   20.4812  -20.9830  -12.6231 N   0  0  0  0  0  0  0  0  0  0  0  0
   21.6004  -21.1577  -13.5086 C   0  0  1  0  0  0  0  0  0  0  0  0
   21.1575  -21.0218  -14.9754 C   0  0  0  0  0  0  0  0  0  0  0  0
   21.3975  -22.3393  -15.6844 C   0  0  0  0  0  0  0  0  0  0  0  0
   20.4071  -23.3874  -15.2993 C   0  0  0  0  0  0  0  0  0  0  0  0
   20.6270  -24.7035  -15.9754 C   0  0  0  0  0  0  0  0  0  0  0  0
   19.6259  -25.6316  -15.4487 N   0  0  0  0  0  0  0  0  0  0  0  0
   22.7077  -20.2352  -13.2097 C   0  0  0  0  0  0  0  0  0  0  0  0
   22.3317  -19.0673  -12.8240 O   0  0  0  0  0  0  0  0  0  0  0  0
   24.0916  -20.4843  -13.2981 N   0  0  0  0  0  0  0  0  0  0  0  0
   24.7297  -21.6994  -13.6793 C   0  0  0  0  0  0  0  0  0  0  0  0
   26.1134  -21.6131  -13.0671 C   0  0  0  0  0  0  0  0  0  0  0  0
   26.0926  -20.3641  -12.1970 C   0  0  0  0  0  0  0  0  0  0  0  0
   25.1290  -19.5161  -13.0293 C   0  0  1  0  0  0  0  0  0  0  0  0
   25.7247  -19.1120  -14.3190 C   0  0  0  0  0  0  0  0  0  0  0  0
   25.7898  -19.9196  -15.2965 O   0  0  0  0  0  0  0  0  0  0  0  0
   26.1432  -14.9896  -16.9510 C   0  0  0  0  0  0  0  0  0  0  0  0
   26.1820  -15.6204  -15.5715 C   0  0  2  0  0  0  0  0  0  0  0  0
   27.4256  -15.1574  -14.8909 C   0  0  0  0  0  0  0  0  0  0  0  0
   26.1317  -17.1186  -15.7570 C   0  0  2  0  0  0  0  0  0  0  0  0
   26.2351  -17.7916  -14.4663 N   0  0  0  0  0  0  0  0  0  0  0  0
   27.2709  -17.4946  -16.6186 C   0  0  0  0  0  0  0  0  0  0  0  0
   27.1559  -17.3687  -17.9858 O   0  0  0  0  0  0  0  0  0  0  0  0
   28.3269  -17.9211  -16.1273 O   0  0  0  0  0  0  0  0  0  0  0  0
  2  1  1  1
  3  2  1  0
  4  3  1  0
  5  4  1  0
  5  6  1  0
  7  6  1  0
  8  2  1  0
  9  8  2  0
 10 11  1  0
 10  8  1  0
 12 11  1  0
 13 12  1  0
 13 14  1  0
 14 10  1  0
 15 16  2  0
 14 15  1  6
 18 17  1  6
 19 18  1  0
 20 18  1  0
 20 21  1  1
 21 15  1  0
 22 20  1  0
 23 22  1  0
 24 22  2  0
M  END
$$$$
