KPV.pdb
     RDKit          3D

 24 24  0  0  1  0  0  0  0  0999 V2000
   24.8817  -22.4472  -12.7696 N   0  0  0  0  0  0  0  0  0  0  0  0
   25.8400  -21.4307  -12.4297 C   0  0  1  0  0  0  0  0  0  0  0  0
   25.1558  -20.0580  -12.3131 C   0  0  0  0  0  0  0  0  0  0  0  0
   24.5562  -19.6930  -13.6560 C   0  0  0  0  0  0  0  0  0  0  0  0
   23.0644  -19.7392  -13.6504 C   0  0  0  0  0  0  0  0  0  0  0  0
   22.4437  -19.3653  -14.9589 C   0  0  0  0  0  0  0  0  0  0  0  0
   20.9997  -19.5581  -14.8223 N   0  0  0  0  0  0  0  0  0  0  0  0
   26.5890  -21.7470  -11.2028 C   0  0  0  0  0  0  0  0  0  0  0  0
   25.9821  -22.5558  -10.4080 O   0  0  0  0  0  0  0  0  0  0  0  0
   27.8585  -21.2742  -10.8158 N   0  0  0  0  0  0  0  0  0  0  0  0
   28.6766  -20.3307  -11.5010 C   0  0  0  0  0  0  0  0  0  0  0  0
   30.0820  -20.6157  -11.0105 C   0  0  0  0  0  0  0  0  0  0  0  0
   29.9672  -21.8785  -10.1682 C   0  0  0  0  0  0  0  0  0  0  0  0
   28.5582  -21.6613   -9.6131 C   0  0  1  0  0  0  0  0  0  0  0  0
   28.5078  -20.5276   -8.6678 C   0  0  0  0  0  0  0  0  0  0  0  0
   28.3942  -19.3317   -9.0788 O   0  0  0  0  0  0  0  0  0  0  0  0
   27.9507  -21.3144   -4.5267 C   0  0  0  0  0  0  0  0  0  0  0  0
   27.3261  -20.1561   -5.2821 C   0  0  2  0  0  0  0  0  0  0  0  0
   26.0413  -20.6326   -5.8705 C   0  0  0  0  0  0  0  0  0  0  0  0
   28.3225  -19.7046   -6.3236 C   0  0  2  0  0  0  0  0  0  0  0  0
   28.5884  -20.7830   -7.2700 N   0  0  0  0  0  0  0  0  0  0  0  0
   29.5639  -19.3336   -5.6144 C   0  0  0  0  0  0  0  0  0  0  0  0
   29.6162  -18.1462   -4.9176 O   0  0  0  0  0  0  0  0  0  0  0  0
   30.5569  -20.0764   -5.6387 O   0  0  0  0  0  0  0  0  0  0  0  0
  2  1  1  1
  3  2  1  0
  4  3  1  0
  5  4  1  0
  5  6  1  0
  7  6  1  0
  8  2  1  0
  9  8  2  0
 10 11  1  0
 10  8  1  0
 12 11  1  0
 13 12  1  0
 13 14  1  0
 14 10  1  0
 15 16  2  0
 14 15  1  1
 18 17  1  6
 19 18  1  0
 20 18  1  0
 20 21  1  6
 21 15  1  0
 22 20  1  0
 23 22  1  0
 24 22  2  0
M  END
$$$$
