KPV.pdb
     RDKit          3D

 24 24  0  0  1  0  0  0  0  0999 V2000
   16.3633  -22.8928   -8.5400 N   0  0  0  0  0  0  0  0  0  0  0  0
   17.7603  -22.7518   -8.8493 C   0  0  1  0  0  0  0  0  0  0  0  0
   18.3267  -24.0673   -9.4104 C   0  0  0  0  0  0  0  0  0  0  0  0
   18.9570  -24.8526   -8.2781 C   0  0  0  0  0  0  0  0  0  0  0  0
   17.9812  -25.1896   -7.2002 C   0  0  0  0  0  0  0  0  0  0  0  0
   18.5759  -25.9659   -6.0683 C   0  0  0  0  0  0  0  0  0  0  0  0
   17.5724  -26.0148   -5.0045 N   0  0  0  0  0  0  0  0  0  0  0  0
   18.0260  -21.6341   -9.7693 C   0  0  0  0  0  0  0  0  0  0  0  0
   16.9677  -21.0548  -10.2151 O   0  0  0  0  0  0  0  0  0  0  0  0
   19.2745  -21.1454  -10.2022 N   0  0  0  0  0  0  0  0  0  0  0  0
   20.5621  -21.6785   -9.9072 C   0  0  0  0  0  0  0  0  0  0  0  0
   21.5120  -20.5136  -10.1016 C   0  0  0  0  0  0  0  0  0  0  0  0
   20.6214  -19.3020  -10.3396 C   0  0  0  0  0  0  0  0  0  0  0  0
   19.4663  -19.9996  -11.0603 C   0  0  1  0  0  0  0  0  0  0  0  0
   19.8656  -20.4883  -12.3957 C   0  0  0  0  0  0  0  0  0  0  0  0
   20.5459  -21.5516  -12.5319 O   0  0  0  0  0  0  0  0  0  0  0  0
   17.8790  -20.7020  -16.8008 C   0  0  0  0  0  0  0  0  0  0  0  0
   17.9802  -20.0106  -15.4540 C   0  0  2  0  0  0  0  0  0  0  0  0
   17.9116  -18.5393  -15.6880 C   0  0  0  0  0  0  0  0  0  0  0  0
   19.2776  -20.4484  -14.8164 C   0  0  2  0  0  0  0  0  0  0  0  0
   19.4794  -19.7513  -13.5504 N   0  0  0  0  0  0  0  0  0  0  0  0
   20.3658  -20.1160  -15.7583 C   0  0  0  0  0  0  0  0  0  0  0  0
   21.1982  -19.0532  -15.4829 O   0  0  0  0  0  0  0  0  0  0  0  0
   20.5384  -20.7805  -16.7912 O   0  0  0  0  0  0  0  0  0  0  0  0
  2  1  1  6
  3  2  1  0
  4  3  1  0
  5  4  1  0
  5  6  1  0
  7  6  1  0
  8  2  1  0
  9  8  2  0
 10 11  1  0
 10  8  1  0
 12 11  1  0
 13 12  1  0
 13 14  1  0
 14 10  1  0
 15 16  2  0
 14 15  1  6
 18 17  1  6
 19 18  1  0
 20 18  1  0
 20 21  1  1
 21 15  1  0
 22 20  1  0
 23 22  1  0
 24 22  2  0
M  END
$$$$
