KPV.pdb
     RDKit          3D

 24 24  0  0  1  0  0  0  0  0999 V2000
   23.8527  -21.6601  -15.7188 N   0  0  0  0  0  0  0  0  0  0  0  0
   24.8221  -20.7550  -15.1637 C   0  0  1  0  0  0  0  0  0  0  0  0
   24.1860  -19.3819  -14.8877 C   0  0  0  0  0  0  0  0  0  0  0  0
   23.6396  -18.8244  -16.1864 C   0  0  0  0  0  0  0  0  0  0  0  0
   22.1495  -18.7380  -16.1923 C   0  0  0  0  0  0  0  0  0  0  0  0
   21.5841  -18.1437  -17.4431 C   0  0  0  0  0  0  0  0  0  0  0  0
   20.1278  -18.2538  -17.3529 N   0  0  0  0  0  0  0  0  0  0  0  0
   25.4633  -21.2871  -13.9505 C   0  0  0  0  0  0  0  0  0  0  0  0
   24.7983  -22.2221  -13.3692 O   0  0  0  0  0  0  0  0  0  0  0  0
   26.6877  -20.8954  -13.3739 N   0  0  0  0  0  0  0  0  0  0  0  0
   27.5567  -19.8549  -13.8112 C   0  0  0  0  0  0  0  0  0  0  0  0
   28.9137  -20.2284  -13.2489 C   0  0  0  0  0  0  0  0  0  0  0  0
   28.7334  -21.6150  -12.6469 C   0  0  0  0  0  0  0  0  0  0  0  0
   27.2775  -21.4855  -12.1950 C   0  0  1  0  0  0  0  0  0  0  0  0
   27.1304  -20.5281  -11.0801 C   0  0  0  0  0  0  0  0  0  0  0  0
   27.1587  -19.2746  -11.2799 O   0  0  0  0  0  0  0  0  0  0  0  0
   25.2951  -22.0419   -7.7200 C   0  0  0  0  0  0  0  0  0  0  0  0
   25.1050  -20.6223   -8.2209 C   0  0  2  0  0  0  0  0  0  0  0  0
   24.0615  -20.6482   -9.2860 C   0  0  0  0  0  0  0  0  0  0  0  0
   26.4453  -20.1338   -8.7174 C   0  0  2  0  0  0  0  0  0  0  0  0
   26.9538  -21.0224   -9.7571 N   0  0  0  0  0  0  0  0  0  0  0  0
   27.3662  -20.1239   -7.5626 C   0  0  0  0  0  0  0  0  0  0  0  0
   27.2657  -19.1189   -6.6254 O   0  0  0  0  0  0  0  0  0  0  0  0
   28.2264  -21.0071   -7.4270 O   0  0  0  0  0  0  0  0  0  0  0  0
  2  1  1  1
  3  2  1  0
  4  3  1  0
  5  4  1  0
  5  6  1  0
  7  6  1  0
  8  2  1  0
  9  8  2  0
 10 11  1  0
 10  8  1  0
 12 11  1  0
 13 12  1  0
 13 14  1  0
 14 10  1  0
 15 16  2  0
 14 15  1  1
 18 17  1  6
 19 18  1  0
 20 18  1  0
 20 21  1  6
 21 15  1  0
 22 20  1  0
 23 22  1  0
 24 22  2  0
M  END
$$$$
