KPV.pdb
     RDKit          3D

 24 24  0  0  1  0  0  0  0  0999 V2000
   28.1851  -20.2155  -17.8167 N   0  0  0  0  0  0  0  0  0  0  0  0
   28.4961  -19.6017  -16.5542 C   0  0  1  0  0  0  0  0  0  0  0  0
   27.9745  -18.1553  -16.5117 C   0  0  0  0  0  0  0  0  0  0  0  0
   26.4611  -18.1814  -16.4405 C   0  0  0  0  0  0  0  0  0  0  0  0
   25.8199  -17.4827  -17.5930 C   0  0  0  0  0  0  0  0  0  0  0  0
   24.3253  -17.4683  -17.5348 C   0  0  0  0  0  0  0  0  0  0  0  0
   23.8584  -16.6358  -18.6438 N   0  0  0  0  0  0  0  0  0  0  0  0
   27.9878  -20.3743  -15.4091 C   0  0  0  0  0  0  0  0  0  0  0  0
   27.0436  -21.1960  -15.7047 O   0  0  0  0  0  0  0  0  0  0  0  0
   28.4093  -20.3128  -14.0662 N   0  0  0  0  0  0  0  0  0  0  0  0
   29.2828  -19.3548  -13.4761 C   0  0  0  0  0  0  0  0  0  0  0  0
   29.8396  -20.0494  -12.2495 C   0  0  0  0  0  0  0  0  0  0  0  0
   29.3419  -21.4853  -12.3380 C   0  0  0  0  0  0  0  0  0  0  0  0
   27.9995  -21.2250  -13.0241 C   0  0  1  0  0  0  0  0  0  0  0  0
   27.0566  -20.5142  -12.1369 C   0  0  0  0  0  0  0  0  0  0  0  0
   27.1846  -19.2740  -11.8975 O   0  0  0  0  0  0  0  0  0  0  0  0
   23.3914  -22.3047  -11.6769 C   0  0  0  0  0  0  0  0  0  0  0  0
   23.5917  -20.8007  -11.6900 C   0  0  2  0  0  0  0  0  0  0  0  0
   23.6325  -20.3564  -13.1130 C   0  0  0  0  0  0  0  0  0  0  0  0
   24.8706  -20.5075  -10.9417 C   0  0  2  0  0  0  0  0  0  0  0  0
   25.9848  -21.2356  -11.5398 N   0  0  0  0  0  0  0  0  0  0  0  0
   24.6725  -20.9410   -9.5437 C   0  0  0  0  0  0  0  0  0  0  0  0
   23.8565  -20.2022   -8.7151 O   0  0  0  0  0  0  0  0  0  0  0  0
   25.2305  -21.9595   -9.1081 O   0  0  0  0  0  0  0  0  0  0  0  0
  2  1  1  6
  3  2  1  0
  4  3  1  0
  5  4  1  0
  5  6  1  0
  7  6  1  0
  8  2  1  0
  9  8  2  0
 10 11  1  0
 10  8  1  0
 12 11  1  0
 13 12  1  0
 13 14  1  0
 14 10  1  0
 15 16  2  0
 14 15  1  1
 18 17  1  6
 19 18  1  0
 20 18  1  0
 20 21  1  6
 21 15  1  0
 22 20  1  0
 23 22  1  0
 24 22  2  0
M  END
$$$$
