VRR.pdb
     RDKit          3D

 30 29  0  0  1  0  0  0  0  0999 V2000
   26.8256  -20.2788   -8.6336 C   0  0  0  0  0  0  0  0  0  0  0  0
   26.3852  -20.1934  -10.0893 C   0  0  1  0  0  0  0  0  0  0  0  0
   26.9589  -21.3007  -10.9088 C   0  0  0  0  0  0  0  0  0  0  0  0
   24.8784  -20.0629  -10.1846 C   0  0  2  0  0  0  0  0  0  0  0  0
   24.3551  -21.2856   -9.5535 N   0  0  0  0  0  0  0  0  0  0  0  0
   24.4072  -20.0734  -11.5880 C   0  0  0  0  0  0  0  0  0  0  0  0
   24.5858  -19.0609  -12.3089 O   0  0  0  0  0  0  0  0  0  0  0  0
   25.6842  -25.7223  -15.6747 N   0  0  0  0  0  0  0  0  0  0  0  0
   24.5564  -26.0925  -14.9016 C   0  0  0  0  0  0  0  0  0  0  0  0
   24.4086  -27.3049  -14.5051 N   0  0  0  0  0  0  0  0  0  0  0  0
   23.5834  -25.1028  -14.5661 N   0  0  0  0  0  0  0  0  0  0  0  0
   22.8525  -24.4081  -15.6025 C   0  0  0  0  0  0  0  0  0  0  0  0
   22.8114  -22.8920  -15.3658 C   0  0  0  0  0  0  0  0  0  0  0  0
   23.2962  -22.6396  -13.9792 C   0  0  0  0  0  0  0  0  0  0  0  0
   23.2935  -21.1504  -13.5883 C   0  0  2  0  0  0  0  0  0  0  0  0
   23.7554  -21.1663  -12.1914 N   0  0  0  0  0  0  0  0  0  0  0  0
   21.9356  -20.5579  -13.6892 C   0  0  0  0  0  0  0  0  0  0  0  0
   21.0412  -20.8325  -12.8138 O   0  0  0  0  0  0  0  0  0  0  0  0
   23.5979  -27.6331  -13.9548 N   0  0  0  0  0  0  0  0  0  0  0  0
   21.1424  -14.1070  -17.7995 C   0  0  0  0  0  0  0  0  0  0  0  0
   20.5932  -15.2278  -18.4862 N   0  0  0  0  0  0  0  0  0  0  0  0
   20.9381  -15.5012  -19.6941 N   0  0  0  0  0  0  0  0  0  0  0  0
   19.6345  -16.0837  -17.8400 C   0  0  0  0  0  0  0  0  0  0  0  0
   19.0949  -15.7861  -16.5444 C   0  0  0  0  0  0  0  0  0  0  0  0
   19.0277  -17.0268  -15.6632 C   0  0  0  0  0  0  0  0  0  0  0  0
   20.3263  -17.7833  -15.6576 C   0  0  2  0  0  0  0  0  0  0  0  0
   20.2852  -18.9455  -14.7495 N   0  0  0  0  0  0  0  0  0  0  0  0
   21.5675  -19.6736  -14.7370 C   0  0  0  0  0  0  0  0  0  0  0  0
   19.1590  -19.8833  -14.9155 O   0  0  0  0  0  0  0  0  0  0  0  0
   18.0535  -19.8112  -14.3273 O   0  0  0  0  0  0  0  0  0  0  0  0
  2  4  1  0
  2  1  1  1
  3  2  1  0
  4  6  1  0
  4  5  1  1
  6  7  2  0
  8  9  1  0
  9 11  1  0
 10  9  2  0
 11 12  1  0
 12 13  1  0
 14 13  1  0
 15 14  1  1
 16 15  1  0
 16  6  1  0
 17 18  2  0
 17 15  1  0
 19 20  1  0
 20 22  1  0
 21 20  2  0
 22 23  1  0
 23 24  1  0
 24 25  1  0
 26 25  1  1
 26 27  1  0
 26 28  1  0
 27 17  1  0
 28 30  1  0
 29 28  2  0
M  END
$$$$
