VRR.pdb
     RDKit          3D

 30 29  0  0  1  0  0  0  0  0999 V2000
   21.2845  -15.6551  -17.0542 C   0  0  0  0  0  0  0  0  0  0  0  0
   21.9347  -16.7823  -16.2626 C   0  0  1  0  0  0  0  0  0  0  0  0
   20.9251  -17.5965  -15.5245 C   0  0  0  0  0  0  0  0  0  0  0  0
   22.8617  -17.5910  -17.1477 C   0  0  2  0  0  0  0  0  0  0  0  0
   21.9717  -18.2621  -18.1092 N   0  0  0  0  0  0  0  0  0  0  0  0
   23.5576  -18.6590  -16.3949 C   0  0  0  0  0  0  0  0  0  0  0  0
   22.9321  -19.7002  -16.0760 O   0  0  0  0  0  0  0  0  0  0  0  0
   28.2951  -24.0535  -16.8501 N   0  0  0  0  0  0  0  0  0  0  0  0
   28.6287  -22.7974  -17.4139 C   0  0  0  0  0  0  0  0  0  0  0  0
   28.9847  -22.7102  -18.6446 N   0  0  0  0  0  0  0  0  0  0  0  0
   28.5650  -21.6265  -16.5993 N   0  0  0  0  0  0  0  0  0  0  0  0
   27.9166  -21.6629  -15.3073 C   0  0  0  0  0  0  0  0  0  0  0  0
   27.9292  -20.2936  -14.6137 C   0  0  0  0  0  0  0  0  0  0  0  0
   27.0511  -19.3822  -15.4009 C   0  0  0  0  0  0  0  0  0  0  0  0
   25.5484  -19.6201  -15.1645 C   0  0  2  0  0  0  0  0  0  0  0  0
   24.9075  -18.5920  -15.9993 N   0  0  0  0  0  0  0  0  0  0  0  0
   25.1821  -19.4448  -13.7361 C   0  0  0  0  0  0  0  0  0  0  0  0
   24.6994  -18.3325  -13.3219 O   0  0  0  0  0  0  0  0  0  0  0  0
   29.2811  -21.8283  -19.0943 N   0  0  0  0  0  0  0  0  0  0  0  0
   21.4974  -22.3360   -8.1731 C   0  0  0  0  0  0  0  0  0  0  0  0
   20.3678  -21.7192   -8.7838 N   0  0  0  0  0  0  0  0  0  0  0  0
   19.2985  -22.3885   -9.0318 N   0  0  0  0  0  0  0  0  0  0  0  0
   20.3984  -20.3257   -9.1392 C   0  0  0  0  0  0  0  0  0  0  0  0
   21.1122  -19.8449  -10.2870 C   0  0  0  0  0  0  0  0  0  0  0  0
   22.6029  -20.1425  -10.1893 C   0  0  0  0  0  0  0  0  0  0  0  0
   23.2538  -20.2038  -11.5426 C   0  0  2  0  0  0  0  0  0  0  0  0
   24.7078  -20.4356  -11.4467 N   0  0  0  0  0  0  0  0  0  0  0  0
   25.3420  -20.4796  -12.7773 C   0  0  0  0  0  0  0  0  0  0  0  0
   25.1492  -21.5779  -10.6248 O   0  0  0  0  0  0  0  0  0  0  0  0
   25.4049  -22.7301  -11.0497 O   0  0  0  0  0  0  0  0  0  0  0  0
  2  4  1  0
  2  1  1  6
  3  2  1  0
  4  6  1  0
  4  5  1  6
  6  7  2  0
  8  9  1  0
  9 11  1  0
 10  9  2  0
 11 12  1  0
 12 13  1  0
 14 13  1  0
 15 14  1  1
 16 15  1  0
 16  6  1  0
 17 18  2  0
 17 15  1  0
 19 20  1  0
 20 22  1  0
 21 20  2  0
 22 23  1  0
 23 24  1  0
 24 25  1  0
 26 25  1  1
 26 27  1  0
 26 28  1  0
 27 17  1  0
 28 30  1  0
 29 28  2  0
M  END
$$$$
