VRR.pdb
     RDKit          3D

 30 29  0  0  1  0  0  0  0  0999 V2000
   23.4124  -17.5390  -15.6768 C   0  0  0  0  0  0  0  0  0  0  0  0
   22.8130  -18.3112  -16.8449 C   0  0  1  0  0  0  0  0  0  0  0  0
   21.9366  -17.4481  -17.6898 C   0  0  0  0  0  0  0  0  0  0  0  0
   23.8954  -19.0427  -17.6132 C   0  0  2  0  0  0  0  0  0  0  0  0
   23.1694  -19.8505  -18.6070 N   0  0  0  0  0  0  0  0  0  0  0  0
   24.6408  -19.9918  -16.7560 C   0  0  0  0  0  0  0  0  0  0  0  0
   24.0512  -20.9956  -16.2851 O   0  0  0  0  0  0  0  0  0  0  0  0
   31.4905  -24.4863  -15.5276 N   0  0  0  0  0  0  0  0  0  0  0  0
   30.7399  -24.4609  -16.7288 C   0  0  0  0  0  0  0  0  0  0  0  0
   30.5402  -25.5406  -17.3946 N   0  0  0  0  0  0  0  0  0  0  0  0
   30.2059  -23.2208  -17.1933 N   0  0  0  0  0  0  0  0  0  0  0  0
   30.2616  -22.0381  -16.3631 C   0  0  0  0  0  0  0  0  0  0  0  0
   29.0013  -21.8743  -15.5024 C   0  0  0  0  0  0  0  0  0  0  0  0
   28.0809  -20.9500  -16.2234 C   0  0  0  0  0  0  0  0  0  0  0  0
   26.7110  -20.7887  -15.5392 C   0  0  2  0  0  0  0  0  0  0  0  0
   26.0011  -19.8485  -16.4205 N   0  0  0  0  0  0  0  0  0  0  0  0
   26.8431  -20.2316  -14.1690 C   0  0  0  0  0  0  0  0  0  0  0  0
   26.9555  -18.9678  -13.9906 O   0  0  0  0  0  0  0  0  0  0  0  0
   30.1212  -25.5623  -18.3390 N   0  0  0  0  0  0  0  0  0  0  0  0
   19.4913  -20.1753  -13.1491 C   0  0  0  0  0  0  0  0  0  0  0  0
   20.2617  -21.3719  -13.0857 N   0  0  0  0  0  0  0  0  0  0  0  0
   19.8226  -22.4721  -13.5854 N   0  0  0  0  0  0  0  0  0  0  0  0
   21.5555  -21.3765  -12.4570 C   0  0  0  0  0  0  0  0  0  0  0  0
   22.1141  -20.2034  -11.8487 C   0  0  0  0  0  0  0  0  0  0  0  0
   23.5187  -20.4584  -11.3173 C   0  0  0  0  0  0  0  0  0  0  0  0
   24.5061  -20.6886  -12.4267 C   0  0  2  0  0  0  0  0  0  0  0  0
   25.8756  -20.8891  -11.9152 N   0  0  0  0  0  0  0  0  0  0  0  0
   26.8485  -21.0531  -13.0112 C   0  0  0  0  0  0  0  0  0  0  0  0
   26.0610  -21.9396  -10.8967 O   0  0  0  0  0  0  0  0  0  0  0  0
   26.0686  -23.1752  -11.1124 O   0  0  0  0  0  0  0  0  0  0  0  0
  2  4  1  0
  2  1  1  1
  3  2  1  0
  4  6  1  0
  4  5  1  6
  6  7  2  0
  8  9  1  0
  9 11  1  0
 10  9  2  0
 11 12  1  0
 12 13  1  0
 14 13  1  0
 15 14  1  6
 16 15  1  0
 16  6  1  0
 17 18  2  0
 17 15  1  0
 19 20  1  0
 20 22  1  0
 21 20  2  0
 22 23  1  0
 23 24  1  0
 24 25  1  0
 26 25  1  6
 26 27  1  0
 26 28  1  0
 27 17  1  0
 28 30  1  0
 29 28  2  0
M  END
$$$$
