VRR.pdb
     RDKit          3D

 30 29  0  0  1  0  0  0  0  0999 V2000
   17.2346  -30.2565   -3.4677 C   0  0  0  0  0  0  0  0  0  0  0  0
   16.9874  -28.8269   -3.9314 C   0  0  1  0  0  0  0  0  0  0  0  0
   15.6568  -28.3204   -3.4842 C   0  0  0  0  0  0  0  0  0  0  0  0
   18.1530  -27.9343   -3.5556 C   0  0  2  0  0  0  0  0  0  0  0  0
   18.1796  -27.9515   -2.0838 N   0  0  0  0  0  0  0  0  0  0  0  0
   17.9296  -26.5280   -3.9606 C   0  0  0  0  0  0  0  0  0  0  0  0
   17.4284  -25.7195   -3.1407 O   0  0  0  0  0  0  0  0  0  0  0  0
   19.7964  -26.5591  -10.6124 N   0  0  0  0  0  0  0  0  0  0  0  0
   19.0481  -25.5479  -11.2638 C   0  0  0  0  0  0  0  0  0  0  0  0
   18.6119  -25.7281  -12.4581 N   0  0  0  0  0  0  0  0  0  0  0  0
   18.7826  -24.3237  -10.5786 N   0  0  0  0  0  0  0  0  0  0  0  0
   19.2476  -24.1222   -9.2243 C   0  0  0  0  0  0  0  0  0  0  0  0
   18.2102  -24.5653   -8.1833 C   0  0  0  0  0  0  0  0  0  0  0  0
   18.8162  -24.3757   -6.8349 C   0  0  0  0  0  0  0  0  0  0  0  0
   17.8452  -24.6713   -5.6772 C   0  0  2  0  0  0  0  0  0  0  0  0
   18.2470  -26.0152   -5.2332 N   0  0  0  0  0  0  0  0  0  0  0  0
   16.4310  -24.6653   -6.1305 C   0  0  0  0  0  0  0  0  0  0  0  0
   15.8930  -25.7327   -6.5917 O   0  0  0  0  0  0  0  0  0  0  0  0
   18.0176  -25.0477  -12.9598 N   0  0  0  0  0  0  0  0  0  0  0  0
   12.7315  -24.1698  -12.8550 C   0  0  0  0  0  0  0  0  0  0  0  0
   13.8910  -23.9525  -12.0564 N   0  0  0  0  0  0  0  0  0  0  0  0
   15.0591  -23.8758  -12.5879 N   0  0  0  0  0  0  0  0  0  0  0  0
   13.7805  -23.8138  -10.6289 C   0  0  0  0  0  0  0  0  0  0  0  0
   12.5701  -24.1203   -9.9223 C   0  0  0  0  0  0  0  0  0  0  0  0
   12.6812  -23.7831   -8.4410 C   0  0  0  0  0  0  0  0  0  0  0  0
   14.1108  -23.7443   -7.9791 C   0  0  1  0  0  0  0  0  0  0  0  0
   14.2168  -23.4882   -6.5298 N   0  0  0  0  0  0  0  0  0  0  0  0
   15.6194  -23.5018   -6.0746 C   0  0  0  0  0  0  0  0  0  0  0  0
   13.3764  -24.3139   -5.6425 O   0  0  0  0  0  0  0  0  0  0  0  0
   13.4273  -25.5630   -5.5399 O   0  0  0  0  0  0  0  0  0  0  0  0
  2  4  1  0
  2  1  1  1
  3  2  1  0
  4  6  1  0
  4  5  1  1
  6  7  2  0
  8  9  1  0
  9 11  1  0
 10  9  2  0
 11 12  1  0
 12 13  1  0
 14 13  1  0
 15 14  1  6
 16 15  1  0
 16  6  1  0
 17 18  2  0
 17 15  1  0
 19 20  1  0
 20 22  1  0
 21 20  2  0
 22 23  1  0
 23 24  1  0
 24 25  1  0
 26 25  1  6
 26 27  1  0
 26 28  1  0
 27 17  1  0
 28 30  1  0
 29 28  2  0
M  END
$$$$
