VRR.pdb
     RDKit          3D

 30 29  0  0  1  0  0  0  0  0999 V2000
   12.2486  -11.3206  -12.6540 C   0  0  0  0  0  0  0  0  0  0  0  0
   13.0990  -11.3311  -13.9177 C   0  0  1  0  0  0  0  0  0  0  0  0
   12.4225  -12.0509  -15.0361 C   0  0  0  0  0  0  0  0  0  0  0  0
   13.5570   -9.9288  -14.2650 C   0  0  2  0  0  0  0  0  0  0  0  0
   14.3945  -10.0939  -15.4644 N   0  0  0  0  0  0  0  0  0  0  0  0
   14.4266   -9.3519  -13.2150 C   0  0  0  0  0  0  0  0  0  0  0  0
   13.9569   -9.1380  -12.0702 O   0  0  0  0  0  0  0  0  0  0  0  0
   19.0364  -11.5580  -15.5631 N   0  0  0  0  0  0  0  0  0  0  0  0
   19.2591  -10.6106  -16.5925 C   0  0  0  0  0  0  0  0  0  0  0  0
   19.1005  -10.9381  -17.8239 N   0  0  0  0  0  0  0  0  0  0  0  0
   19.6622   -9.2850  -16.2474 N   0  0  0  0  0  0  0  0  0  0  0  0
   19.5096   -8.7978  -14.8945 C   0  0  0  0  0  0  0  0  0  0  0  0
   18.0699   -8.9474  -14.3836 C   0  0  0  0  0  0  0  0  0  0  0  0
   18.0125   -8.3519  -13.0185 C   0  0  0  0  0  0  0  0  0  0  0  0
   16.6484   -8.5295  -12.3269 C   0  0  2  0  0  0  0  0  0  0  0  0
   15.7803   -9.0164  -13.4105 N   0  0  0  0  0  0  0  0  0  0  0  0
   16.1394   -7.2471  -11.7778 C   0  0  0  0  0  0  0  0  0  0  0  0
   15.5910   -6.3832  -12.5490 O   0  0  0  0  0  0  0  0  0  0  0  0
   19.2428  -10.2864  -18.6132 N   0  0  0  0  0  0  0  0  0  0  0  0
   11.1555   -4.9413   -5.2221 C   0  0  0  0  0  0  0  0  0  0  0  0
   11.1431   -5.5193   -6.5241 N   0  0  0  0  0  0  0  0  0  0  0  0
   10.1462   -6.2227   -6.9293 N   0  0  0  0  0  0  0  0  0  0  0  0
   12.2523   -5.3283   -7.4198 C   0  0  0  0  0  0  0  0  0  0  0  0
   13.4327   -4.6106   -7.0328 C   0  0  0  0  0  0  0  0  0  0  0  0
   14.4003   -4.4468   -8.1978 C   0  0  0  0  0  0  0  0  0  0  0  0
   14.8197   -5.7714   -8.7706 C   0  0  1  0  0  0  0  0  0  0  0  0
   15.8017   -5.6162   -9.8610 N   0  0  0  0  0  0  0  0  0  0  0  0
   16.2298   -6.9207  -10.3991 C   0  0  0  0  0  0  0  0  0  0  0  0
   16.9708   -4.7590   -9.5899 O   0  0  0  0  0  0  0  0  0  0  0  0
   18.1689   -5.1300   -9.6008 O   0  0  0  0  0  0  0  0  0  0  0  0
  2  4  1  0
  2  1  1  1
  3  2  1  0
  4  6  1  0
  4  5  1  6
  6  7  2  0
  8  9  1  0
  9 11  1  0
 10  9  2  0
 11 12  1  0
 12 13  1  0
 14 13  1  0
 15 14  1  6
 16 15  1  0
 16  6  1  0
 17 18  2  0
 17 15  1  0
 19 20  1  0
 20 22  1  0
 21 20  2  0
 22 23  1  0
 23 24  1  0
 24 25  1  0
 26 25  1  6
 26 27  1  0
 26 28  1  0
 27 17  1  0
 28 30  1  0
 29 28  2  0
M  END
$$$$
