VRR.pdb
     RDKit          3D

 30 29  0  0  1  0  0  0  0  0999 V2000
   28.6072  -19.0550  -17.5140 C   0  0  0  0  0  0  0  0  0  0  0  0
   27.9478  -20.1042  -16.6283 C   0  0  1  0  0  0  0  0  0  0  0  0
   28.3438  -19.9514  -15.1977 C   0  0  0  0  0  0  0  0  0  0  0  0
   26.4506  -20.1351  -16.8611 C   0  0  2  0  0  0  0  0  0  0  0  0
   26.0032  -18.7552  -16.6103 N   0  0  0  0  0  0  0  0  0  0  0  0
   25.7527  -20.9939  -15.8777 C   0  0  0  0  0  0  0  0  0  0  0  0
   25.8556  -22.2426  -15.9628 O   0  0  0  0  0  0  0  0  0  0  0  0
   28.7207  -22.5112  -10.2735 N   0  0  0  0  0  0  0  0  0  0  0  0
   29.0577  -21.3758  -11.0508 C   0  0  0  0  0  0  0  0  0  0  0  0
   30.2877  -21.0698  -11.2569 N   0  0  0  0  0  0  0  0  0  0  0  0
   28.0147  -20.5731  -11.6045 N   0  0  0  0  0  0  0  0  0  0  0  0
   26.6958  -21.1257  -11.8198 C   0  0  0  0  0  0  0  0  0  0  0  0
   25.7195  -20.0889  -12.3924 C   0  0  0  0  0  0  0  0  0  0  0  0
   24.3946  -20.7544  -12.5449 C   0  0  0  0  0  0  0  0  0  0  0  0
   24.1734  -21.3723  -13.9377 C   0  0  2  0  0  0  0  0  0  0  0  0
   24.9599  -20.5000  -14.8238 N   0  0  0  0  0  0  0  0  0  0  0  0
   22.7392  -21.3616  -14.3224 C   0  0  0  0  0  0  0  0  0  0  0  0
   22.0152  -20.3284  -14.0987 O   0  0  0  0  0  0  0  0  0  0  0  0
   30.5899  -20.2243  -11.7684 N   0  0  0  0  0  0  0  0  0  0  0  0
   16.8758  -25.4400  -11.3708 C   0  0  0  0  0  0  0  0  0  0  0  0
   16.6396  -25.5800  -12.7687 N   0  0  0  0  0  0  0  0  0  0  0  0
   15.5808  -26.1614  -13.2087 N   0  0  0  0  0  0  0  0  0  0  0  0
   17.5863  -25.0716  -13.7250 C   0  0  0  0  0  0  0  0  0  0  0  0
   18.9942  -25.3252  -13.6162 C   0  0  0  0  0  0  0  0  0  0  0  0
   19.6812  -24.3116  -12.7101 C   0  0  0  0  0  0  0  0  0  0  0  0
   20.9986  -23.8569  -13.2729 C   0  0  1  0  0  0  0  0  0  0  0  0
   20.8267  -23.0246  -14.4791 N   0  0  0  0  0  0  0  0  0  0  0  0
   22.1109  -22.4709  -14.9471 C   0  0  0  0  0  0  0  0  0  0  0  0
   19.7980  -21.9693  -14.4214 O   0  0  0  0  0  0  0  0  0  0  0  0
   18.7444  -21.9361  -15.1011 O   0  0  0  0  0  0  0  0  0  0  0  0
  2  4  1  0
  2  1  1  6
  3  2  1  0
  4  6  1  0
  4  5  1  1
  6  7  2  0
  8  9  1  0
  9 11  1  0
 10  9  2  0
 11 12  1  0
 12 13  1  0
 14 13  1  0
 15 14  1  1
 16 15  1  0
 16  6  1  0
 17 18  2  0
 17 15  1  0
 19 20  1  0
 20 22  1  0
 21 20  2  0
 22 23  1  0
 23 24  1  0
 24 25  1  0
 26 25  1  6
 26 27  1  0
 26 28  1  0
 27 17  1  0
 28 30  1  0
 29 28  2  0
M  END
$$$$
