YDN.pdb
     RDKit          3D

 29 29  0  0  1  0  0  0  0  0999 V2000
    7.4089  -11.0819   19.0940 O   0  0  0  0  0  0  0  0  0  0  0  0
    7.8736  -12.2504   19.6829 C   0  0  0  0  0  0  0  0  0  0  0  0
    6.9749  -13.1604   20.2130 C   0  0  0  0  0  0  0  0  0  0  0  0
    7.4113  -14.3417   20.8104 C   0  0  0  0  0  0  0  0  0  0  0  0
    8.7524  -14.6393   20.8909 C   0  0  0  0  0  0  0  0  0  0  0  0
    9.2376  -15.8891   21.5192 C   0  0  0  0  0  0  0  0  0  0  0  0
    9.2252  -17.0599   20.5671 C   0  0  2  0  0  0  0  0  0  0  0  0
    7.9160  -17.4076   20.1079 N   0  0  0  0  0  0  0  0  0  0  0  0
    9.8335  -18.2168   21.3203 C   0  0  0  0  0  0  0  0  0  0  0  0
    9.1349  -19.0828   21.8982 O   0  0  0  0  0  0  0  0  0  0  0  0
    9.6413  -13.7195   20.3562 C   0  0  0  0  0  0  0  0  0  0  0  0
    9.2245  -12.5474   19.7627 C   0  0  0  0  0  0  0  0  0  0  0  0
   11.2233  -18.3322   21.3792 N   0  0  0  0  0  0  0  0  0  0  0  0
   11.9077  -19.5698   21.8978 C   0  0  1  0  0  0  0  0  0  0  0  0
   13.0770  -19.7998   21.0072 C   0  0  0  0  0  0  0  0  0  0  0  0
   13.1129  -21.0531   20.3078 C   0  0  0  0  0  0  0  0  0  0  0  0
   12.2734  -21.9528   20.3123 O   0  0  0  0  0  0  0  0  0  0  0  0
   12.1835  -19.2310   23.2891 C   0  0  0  0  0  0  0  0  0  0  0  0
   12.5174  -18.0221   23.5631 O   0  0  0  0  0  0  0  0  0  0  0  0
   14.2509  -21.3288   19.4921 O   0  0  0  0  0  0  0  0  0  0  0  0
   10.9825  -19.5183   28.9445 N   0  0  0  0  0  0  0  0  0  0  0  0
   11.7592  -20.2752   28.0348 C   0  0  0  0  0  0  0  0  0  0  0  0
   12.8078  -20.8535   28.4962 O   0  0  0  0  0  0  0  0  0  0  0  0
   11.4941  -20.4741   26.6153 C   0  0  0  0  0  0  0  0  0  0  0  0
   12.3528  -19.6105   25.7293 C   0  0  2  0  0  0  0  0  0  0  0  0
   12.1085  -20.1149   24.3595 N   0  0  0  0  0  0  0  0  0  0  0  0
   13.7886  -19.7231   25.9939 C   0  0  0  0  0  0  0  0  0  0  0  0
   14.4609  -20.6194   25.4246 O   0  0  0  0  0  0  0  0  0  0  0  0
   14.4698  -18.8878   26.8488 O   0  0  0  0  0  0  0  0  0  0  0  0
  2 12  2  0
  2  1  1  0
  3  2  1  0
  4  5  1  0
  4  3  2  0
  5 11  2  0
  6  5  1  0
  7  9  1  0
  7  6  1  0
  7  8  1  1
  9 10  2  0
 11 12  1  0
 13 14  1  0
 13  9  1  0
 14 18  1  0
 14 15  1  6
 16 15  1  0
 16 17  2  0
 18 26  1  0
 18 19  2  0
 20 16  1  0
 21 22  1  0
 22 24  1  0
 23 22  2  0
 25 24  1  1
 25 27  1  0
 26 25  1  0
 27 28  2  0
 27 29  1  0
M  END
$$$$
