YDN.pdb
     RDKit          3D

 29 29  0  0  1  0  0  0  0  0999 V2000
    9.0780  -11.3744   19.2216 O   0  0  0  0  0  0  0  0  0  0  0  0
    8.4922  -12.6118   19.4538 C   0  0  0  0  0  0  0  0  0  0  0  0
    8.6846  -13.2492   20.6676 C   0  0  0  0  0  0  0  0  0  0  0  0
    8.1095  -14.4915   20.9297 C   0  0  0  0  0  0  0  0  0  0  0  0
    7.3311  -15.1229   19.9869 C   0  0  0  0  0  0  0  0  0  0  0  0
    6.7091  -16.4415   20.2452 C   0  0  0  0  0  0  0  0  0  0  0  0
    7.2315  -17.0934   21.5020 C   0  0  2  0  0  0  0  0  0  0  0  0
    7.7454  -16.1607   22.4568 N   0  0  0  0  0  0  0  0  0  0  0  0
    8.3233  -18.0361   21.0603 C   0  0  0  0  0  0  0  0  0  0  0  0
    8.1289  -18.9360   20.2092 O   0  0  0  0  0  0  0  0  0  0  0  0
    7.1466  -14.4736   18.7760 C   0  0  0  0  0  0  0  0  0  0  0  0
    7.7089  -13.2452   18.5026 C   0  0  0  0  0  0  0  0  0  0  0  0
    9.5972  -17.9065   21.6156 N   0  0  0  0  0  0  0  0  0  0  0  0
   10.8498  -18.2233   20.8411 C   0  0  1  0  0  0  0  0  0  0  0  0
   10.5814  -17.8156   19.4358 C   0  0  0  0  0  0  0  0  0  0  0  0
   11.6805  -17.9181   18.5179 C   0  0  0  0  0  0  0  0  0  0  0  0
   12.2780  -18.9305   18.1541 O   0  0  0  0  0  0  0  0  0  0  0  0
   11.8771  -17.4853   21.5667 C   0  0  0  0  0  0  0  0  0  0  0  0
   12.9741  -17.2164   20.9566 O   0  0  0  0  0  0  0  0  0  0  0  0
   12.1728  -16.7143   17.9304 O   0  0  0  0  0  0  0  0  0  0  0  0
   12.3167  -20.2078   25.8188 N   0  0  0  0  0  0  0  0  0  0  0  0
   11.5020  -20.2683   24.6628 C   0  0  0  0  0  0  0  0  0  0  0  0
   10.8274  -21.3437   24.4745 O   0  0  0  0  0  0  0  0  0  0  0  0
   11.3415  -19.2301   23.6523 C   0  0  0  0  0  0  0  0  0  0  0  0
   12.0841  -17.9633   23.9866 C   0  0  2  0  0  0  0  0  0  0  0  0
   11.7665  -17.0360   22.8776 N   0  0  0  0  0  0  0  0  0  0  0  0
   13.5396  -18.1173   24.0329 C   0  0  0  0  0  0  0  0  0  0  0  0
   14.1335  -18.1156   25.1404 O   0  0  0  0  0  0  0  0  0  0  0  0
   14.3219  -18.2688   22.9115 O   0  0  0  0  0  0  0  0  0  0  0  0
  2 12  2  0
  2  1  1  0
  3  2  1  0
  4  5  1  0
  4  3  2  0
  5 11  2  0
  6  5  1  0
  7  9  1  0
  7  6  1  0
  7  8  1  1
  9 10  2  0
 11 12  1  0
 13 14  1  0
 13  9  1  0
 14 18  1  0
 14 15  1  6
 16 15  1  0
 16 17  2  0
 18 26  1  0
 18 19  2  0
 20 16  1  0
 21 22  1  0
 22 24  1  0
 23 22  2  0
 25 24  1  6
 25 27  1  0
 26 25  1  0
 27 28  2  0
 27 29  1  0
M  END
$$$$
