YDN.pdb
     RDKit          3D

 29 29  0  0  1  0  0  0  0  0999 V2000
    4.7283  -11.1177   26.1482 O   0  0  0  0  0  0  0  0  0  0  0  0
    5.6553  -12.1194   25.8922 C   0  0  0  0  0  0  0  0  0  0  0  0
    5.4536  -13.3919   26.3988 C   0  0  0  0  0  0  0  0  0  0  0  0
    6.3664  -14.4176   26.1587 C   0  0  0  0  0  0  0  0  0  0  0  0
    7.4983  -14.1949   25.4087 C   0  0  0  0  0  0  0  0  0  0  0  0
    8.4798  -15.2704   25.1398 C   0  0  0  0  0  0  0  0  0  0  0  0
    8.3594  -15.8299   23.7434 C   0  0  2  0  0  0  0  0  0  0  0  0
    7.0790  -16.4044   23.4677 N   0  0  0  0  0  0  0  0  0  0  0  0
    9.4352  -16.8803   23.6205 C   0  0  0  0  0  0  0  0  0  0  0  0
    9.1734  -18.0856   23.3953 O   0  0  0  0  0  0  0  0  0  0  0  0
    7.6880  -12.9163   24.9076 C   0  0  0  0  0  0  0  0  0  0  0  0
    6.7943  -11.8923   25.1368 C   0  0  0  0  0  0  0  0  0  0  0  0
   10.7714  -16.5026   23.7618 N   0  0  0  0  0  0  0  0  0  0  0  0
   11.8925  -17.5077   23.8054 C   0  0  1  0  0  0  0  0  0  0  0  0
   12.8820  -17.0683   22.7850 C   0  0  0  0  0  0  0  0  0  0  0  0
   13.6081  -15.8639   23.0737 C   0  0  0  0  0  0  0  0  0  0  0  0
   13.5360  -15.1517   24.0746 O   0  0  0  0  0  0  0  0  0  0  0  0
   12.3105  -17.4695   25.2019 C   0  0  0  0  0  0  0  0  0  0  0  0
   13.5236  -17.7850   25.4796 O   0  0  0  0  0  0  0  0  0  0  0  0
   14.5428  -15.3995   22.1004 O   0  0  0  0  0  0  0  0  0  0  0  0
   12.3065  -14.8262   27.3990 N   0  0  0  0  0  0  0  0  0  0  0  0
   11.3730  -15.3476   28.3266 C   0  0  0  0  0  0  0  0  0  0  0  0
   10.7083  -14.5042   29.0293 O   0  0  0  0  0  0  0  0  0  0  0  0
   11.0787  -16.7540   28.5723 C   0  0  0  0  0  0  0  0  0  0  0  0
   11.7768  -17.6785   27.6100 C   0  0  2  0  0  0  0  0  0  0  0  0
   11.4994  -17.1097   26.2720 N   0  0  0  0  0  0  0  0  0  0  0  0
   11.2674  -19.0513   27.6227 C   0  0  0  0  0  0  0  0  0  0  0  0
   10.1612  -19.3126   27.0865 O   0  0  0  0  0  0  0  0  0  0  0  0
   11.9397  -20.1041   28.1989 O   0  0  0  0  0  0  0  0  0  0  0  0
  2 12  2  0
  2  1  1  0
  3  2  1  0
  4  5  1  0
  4  3  2  0
  5 11  2  0
  6  5  1  0
  7  9  1  0
  7  6  1  0
  7  8  1  1
  9 10  2  0
 11 12  1  0
 13 14  1  0
 13  9  1  0
 14 18  1  0
 14 15  1  6
 16 15  1  0
 16 17  2  0
 18 26  1  0
 18 19  2  0
 20 16  1  0
 21 22  1  0
 22 24  1  0
 23 22  2  0
 25 24  1  1
 25 27  1  0
 26 25  1  0
 27 28  2  0
 27 29  1  0
M  END
$$$$
