YDN.pdb
     RDKit          3D

 29 29  0  0  1  0  0  0  0  0999 V2000
    4.8300  -10.4756   26.8808 O   0  0  0  0  0  0  0  0  0  0  0  0
    5.6872  -11.4885   26.4717 C   0  0  0  0  0  0  0  0  0  0  0  0
    6.2703  -11.4340   25.2172 C   0  0  0  0  0  0  0  0  0  0  0  0
    7.1347  -12.4358   24.7789 C   0  0  0  0  0  0  0  0  0  0  0  0
    7.4350  -13.5116   25.5826 C   0  0  0  0  0  0  0  0  0  0  0  0
    8.3520  -14.5856   25.1377 C   0  0  0  0  0  0  0  0  0  0  0  0
    7.7490  -15.4546   24.0614 C   0  0  2  0  0  0  0  0  0  0  0  0
    6.5424  -16.1078   24.4653 N   0  0  0  0  0  0  0  0  0  0  0  0
    8.8006  -16.4790   23.7143 C   0  0  0  0  0  0  0  0  0  0  0  0
    8.6094  -17.7104   23.8530 O   0  0  0  0  0  0  0  0  0  0  0  0
    6.8443  -13.5537   26.8361 C   0  0  0  0  0  0  0  0  0  0  0  0
    5.9877  -12.5706   27.2830 C   0  0  0  0  0  0  0  0  0  0  0  0
   10.0323  -16.0463   23.2206 N   0  0  0  0  0  0  0  0  0  0  0  0
   11.2079  -16.9746   23.0621 C   0  0  1  0  0  0  0  0  0  0  0  0
   12.1236  -16.3201   22.0891 C   0  0  0  0  0  0  0  0  0  0  0  0
   11.6695  -16.2506   20.7289 C   0  0  0  0  0  0  0  0  0  0  0  0
   11.8328  -15.3409   19.9164 O   0  0  0  0  0  0  0  0  0  0  0  0
   11.6872  -17.1303   24.4305 C   0  0  0  0  0  0  0  0  0  0  0  0
   12.8306  -17.6849   24.6121 O   0  0  0  0  0  0  0  0  0  0  0  0
   10.9305  -17.3581   20.2154 O   0  0  0  0  0  0  0  0  0  0  0  0
   12.3387  -16.8192   29.7151 N   0  0  0  0  0  0  0  0  0  0  0  0
   11.5523  -15.8069   29.1147 C   0  0  0  0  0  0  0  0  0  0  0  0
   11.1757  -14.8338   29.8618 O   0  0  0  0  0  0  0  0  0  0  0  0
   11.1202  -15.7466   27.7238 C   0  0  0  0  0  0  0  0  0  0  0  0
   11.6472  -16.8873   26.8936 C   0  0  2  0  0  0  0  0  0  0  0  0
   11.0061  -16.7184   25.5703 N   0  0  0  0  0  0  0  0  0  0  0  0
   11.2819  -18.2128   27.3974 C   0  0  0  0  0  0  0  0  0  0  0  0
   10.2758  -18.8037   26.9305 O   0  0  0  0  0  0  0  0  0  0  0  0
   11.9884  -18.8731   28.3758 O   0  0  0  0  0  0  0  0  0  0  0  0
  2 12  2  0
  2  1  1  0
  3  2  1  0
  4  5  1  0
  4  3  2  0
  5 11  2  0
  6  5  1  0
  7  9  1  0
  7  6  1  0
  7  8  1  1
  9 10  2  0
 11 12  1  0
 13 14  1  0
 13  9  1  0
 14 18  1  0
 14 15  1  6
 16 15  1  0
 16 17  2  0
 18 26  1  0
 18 19  2  0
 20 16  1  0
 21 22  1  0
 22 24  1  0
 23 22  2  0
 25 24  1  1
 25 27  1  0
 26 25  1  0
 27 28  2  0
 27 29  1  0
M  END
$$$$
