YDN.pdb
     RDKit          3D

 29 29  0  0  1  0  0  0  0  0999 V2000
    6.3548  -11.8128   19.5354 O   0  0  0  0  0  0  0  0  0  0  0  0
    7.2758  -12.8450   19.6557 C   0  0  0  0  0  0  0  0  0  0  0  0
    8.2154  -13.0506   18.6599 C   0  0  0  0  0  0  0  0  0  0  0  0
    9.1524  -14.0783   18.7526 C   0  0  0  0  0  0  0  0  0  0  0  0
    9.1713  -14.9214   19.8400 C   0  0  0  0  0  0  0  0  0  0  0  0
   10.1590  -16.0179   19.9596 C   0  0  0  0  0  0  0  0  0  0  0  0
   10.3538  -16.7673   18.6643 C   0  0  2  0  0  0  0  0  0  0  0  0
    9.1576  -17.3787   18.1738 N   0  0  0  0  0  0  0  0  0  0  0  0
   11.3962  -17.8211   18.9446 C   0  0  0  0  0  0  0  0  0  0  0  0
   11.0976  -19.0197   19.1596 O   0  0  0  0  0  0  0  0  0  0  0  0
    8.2250  -14.7044   20.8296 C   0  0  0  0  0  0  0  0  0  0  0  0
    7.2924  -13.6924   20.7516 C   0  0  0  0  0  0  0  0  0  0  0  0
   12.7428  -17.4545   18.9664 N   0  0  0  0  0  0  0  0  0  0  0  0
   13.8435  -18.4463   19.2380 C   0  0  1  0  0  0  0  0  0  0  0  0
   15.0356  -17.9547   18.4960 C   0  0  0  0  0  0  0  0  0  0  0  0
   15.0618  -18.2110   17.0836 C   0  0  0  0  0  0  0  0  0  0  0  0
   14.6497  -19.2016   16.4809 O   0  0  0  0  0  0  0  0  0  0  0  0
   13.9203  -18.4575   20.6941 C   0  0  0  0  0  0  0  0  0  0  0  0
   13.9413  -17.3303   21.3080 O   0  0  0  0  0  0  0  0  0  0  0  0
   15.6304  -17.2140   16.2356 O   0  0  0  0  0  0  0  0  0  0  0  0
   13.3410  -19.4661   25.7817 N   0  0  0  0  0  0  0  0  0  0  0  0
   12.9283  -20.4967   24.9034 C   0  0  0  0  0  0  0  0  0  0  0  0
   12.1577  -21.4042   25.3824 O   0  0  0  0  0  0  0  0  0  0  0  0
   13.2850  -20.6405   23.4973 C   0  0  0  0  0  0  0  0  0  0  0  0
   14.0391  -19.4542   22.9569 C   0  0  2  0  0  0  0  0  0  0  0  0
   13.9666  -19.5994   21.4857 N   0  0  0  0  0  0  0  0  0  0  0  0
   15.4547  -19.4241   23.3304 C   0  0  0  0  0  0  0  0  0  0  0  0
   15.9385  -18.3949   23.8650 O   0  0  0  0  0  0  0  0  0  0  0  0
   16.3143  -20.4792   23.1294 O   0  0  0  0  0  0  0  0  0  0  0  0
  2 12  2  0
  2  1  1  0
  3  2  1  0
  4  5  1  0
  4  3  2  0
  5 11  2  0
  6  5  1  0
  7  9  1  0
  7  6  1  0
  7  8  1  1
  9 10  2  0
 11 12  1  0
 13 14  1  0
 13  9  1  0
 14 18  1  0
 14 15  1  6
 16 15  1  0
 16 17  2  0
 18 26  1  0
 18 19  2  0
 20 16  1  0
 21 22  1  0
 22 24  1  0
 23 22  2  0
 25 24  1  1
 25 27  1  0
 26 25  1  0
 27 28  2  0
 27 29  1  0
M  END
$$$$
