EWY.pdb
     RDKit          3D

 36 38  0  0  1  0  0  0  0  0999 V2000
   23.0740  -11.1686  -19.7997 N   0  0  0  0  0  0  0  0  0  0  0  0
   23.5993   -9.8707  -19.4588 C   0  0  1  0  0  0  0  0  0  0  0  0
   22.6879   -8.8332  -20.0942 C   0  0  0  0  0  0  0  0  0  0  0  0
   23.4099   -8.2173  -21.2528 C   0  0  0  0  0  0  0  0  0  0  0  0
   23.1687   -8.9792  -22.4897 C   0  0  0  0  0  0  0  0  0  0  0  0
   22.5100  -10.0291  -22.4764 O   0  0  0  0  0  0  0  0  0  0  0  0
   23.5058   -9.6975  -17.9836 C   0  0  0  0  0  0  0  0  0  0  0  0
   22.3774   -9.8704  -17.4017 O   0  0  0  0  0  0  0  0  0  0  0  0
   23.6852   -8.5203  -23.7044 O   0  0  0  0  0  0  0  0  0  0  0  0
   24.6657   -9.3456  -17.2634 N   0  0  0  0  0  0  0  0  0  0  0  0
   24.5469   -9.2257  -15.7974 C   0  0  1  0  0  0  0  0  0  0  0  0
   25.8479   -9.7275  -15.2401 C   0  0  0  0  0  0  0  0  0  0  0  0
   25.8859  -11.1998  -15.2846 C   0  0  0  0  0  0  0  0  0  0  0  0
   24.8857  -12.0700  -14.9131 C   0  0  0  0  0  0  0  0  0  0  0  0
   25.3511  -13.3126  -15.1030 N   0  0  0  0  0  0  0  0  0  0  0  0
   26.5974  -13.2883  -15.5769 C   0  0  0  0  0  0  0  0  0  0  0  0
   27.4917  -14.3019  -15.9289 C   0  0  0  0  0  0  0  0  0  0  0  0
   28.7356  -13.9301  -16.3992 C   0  0  0  0  0  0  0  0  0  0  0  0
   29.0903  -12.6067  -16.5200 C   0  0  0  0  0  0  0  0  0  0  0  0
   28.2207  -11.6130  -16.1774 C   0  0  0  0  0  0  0  0  0  0  0  0
   26.9505  -11.9736  -15.6974 C   0  0  0  0  0  0  0  0  0  0  0  0
   24.1803   -7.8581  -15.5150 C   0  0  0  0  0  0  0  0  0  0  0  0
   25.0229   -6.9380  -15.8158 O   0  0  0  0  0  0  0  0  0  0  0  0
   23.8788   -3.9133  -20.3664 O   0  0  0  0  0  0  0  0  0  0  0  0
   23.3223   -4.3715  -19.1892 C   0  0  0  0  0  0  0  0  0  0  0  0
   23.3312   -3.4864  -18.1110 C   0  0  0  0  0  0  0  0  0  0  0  0
   22.7836   -3.9166  -16.9293 C   0  0  0  0  0  0  0  0  0  0  0  0
   22.2353   -5.1868  -16.7966 C   0  0  0  0  0  0  0  0  0  0  0  0
   21.6712   -5.5874  -15.5065 C   0  0  0  0  0  0  0  0  0  0  0  0
   22.7285   -6.1197  -14.5394 C   0  0  2  0  0  0  0  0  0  0  0  0
   22.9578   -7.4834  -14.9361 N   0  0  0  0  0  0  0  0  0  0  0  0
   22.3443   -5.9439  -13.1429 C   0  0  0  0  0  0  0  0  0  0  0  0
   22.1383   -7.0295  -12.3067 O   0  0  0  0  0  0  0  0  0  0  0  0
   22.2432   -6.0349  -17.8815 C   0  0  0  0  0  0  0  0  0  0  0  0
   22.7904   -5.6212  -19.0818 C   0  0  0  0  0  0  0  0  0  0  0  0
   22.1779   -4.8113  -12.6200 O   0  0  0  0  0  0  0  0  0  0  0  0
  2  1  1  1
  3  2  1  0
  4  3  1  0
  5  9  1  0
  5  4  1  0
  6  5  2  0
  7  8  2  0
  7  2  1  0
 10  7  1  0
 11 10  1  0
 11 12  1  1
 13 12  1  0
 13 14  2  0
 15 14  1  0
 16 15  1  0
 17 16  2  0
 18 17  1  0
 19 18  2  0
 19 20  1  0
 20 21  2  0
 21 16  1  0
 21 13  1  0
 22 11  1  0
 23 22  2  0
 24 25  1  0
 25 35  2  0
 26 25  1  0
 26 27  2  0
 27 28  1  0
 28 34  2  0
 28 29  1  0
 30 29  1  6
 30 31  1  0
 31 22  1  0
 32 30  1  0
 33 32  1  0
 35 34  1  0
 36 32  2  0
M  END
$$$$
