EWY.pdb
     RDKit          3D

 36 38  0  0  1  0  0  0  0  0999 V2000
   28.8625  -23.2801  -17.2138 N   0  0  0  0  0  0  0  0  0  0  0  0
   28.3915  -21.9602  -16.8778 C   0  0  1  0  0  0  0  0  0  0  0  0
   27.3806  -21.5574  -17.9393 C   0  0  0  0  0  0  0  0  0  0  0  0
   28.1286  -21.1129  -19.1583 C   0  0  0  0  0  0  0  0  0  0  0  0
   28.8155  -19.8328  -18.9177 C   0  0  0  0  0  0  0  0  0  0  0  0
   28.2165  -18.8689  -18.4193 O   0  0  0  0  0  0  0  0  0  0  0  0
   27.6650  -22.0355  -15.5811 C   0  0  0  0  0  0  0  0  0  0  0  0
   26.8278  -22.9855  -15.3850 O   0  0  0  0  0  0  0  0  0  0  0  0
   30.1650  -19.6909  -19.2519 O   0  0  0  0  0  0  0  0  0  0  0  0
   27.9179  -21.0551  -14.5999 N   0  0  0  0  0  0  0  0  0  0  0  0
   27.1761  -21.1570  -13.3282 C   0  0  1  0  0  0  0  0  0  0  0  0
   27.9348  -20.3136  -12.3445 C   0  0  0  0  0  0  0  0  0  0  0  0
   27.1866  -20.2110  -11.0793 C   0  0  0  0  0  0  0  0  0  0  0  0
   25.8424  -19.9560  -10.9253 C   0  0  0  0  0  0  0  0  0  0  0  0
   25.5913  -19.9360   -9.6088 N   0  0  0  0  0  0  0  0  0  0  0  0
   26.7023  -20.1645   -8.9074 C   0  0  0  0  0  0  0  0  0  0  0  0
   26.9511  -20.2429   -7.5352 C   0  0  0  0  0  0  0  0  0  0  0  0
   28.2450  -20.5012   -7.1279 C   0  0  0  0  0  0  0  0  0  0  0  0
   29.2615  -20.6766   -8.0377 C   0  0  0  0  0  0  0  0  0  0  0  0
   29.0239  -20.6008   -9.3789 C   0  0  0  0  0  0  0  0  0  0  0  0
   27.7129  -20.3391   -9.8108 C   0  0  0  0  0  0  0  0  0  0  0  0
   25.8077  -20.7918  -13.6084 C   0  0  0  0  0  0  0  0  0  0  0  0
   25.5925  -19.6515  -14.1566 O   0  0  0  0  0  0  0  0  0  0  0  0
   22.3785  -27.2309  -14.9018 O   0  0  0  0  0  0  0  0  0  0  0  0
   22.5589  -25.8624  -14.9109 C   0  0  0  0  0  0  0  0  0  0  0  0
   21.5054  -25.0928  -14.4171 C   0  0  0  0  0  0  0  0  0  0  0  0
   21.6592  -23.7298  -14.4141 C   0  0  0  0  0  0  0  0  0  0  0  0
   22.8183  -23.1232  -14.8833 C   0  0  0  0  0  0  0  0  0  0  0  0
   22.9179  -21.6630  -14.8581 C   0  0  0  0  0  0  0  0  0  0  0  0
   23.3666  -21.1250  -13.4996 C   0  0  2  0  0  0  0  0  0  0  0  0
   24.7075  -21.6137  -13.3184 N   0  0  0  0  0  0  0  0  0  0  0  0
   22.4379  -21.4719  -12.4292 C   0  0  0  0  0  0  0  0  0  0  0  0
   21.1388  -20.9899  -12.4135 O   0  0  0  0  0  0  0  0  0  0  0  0
   23.8387  -23.9134  -15.3639 C   0  0  0  0  0  0  0  0  0  0  0  0
   23.7042  -25.2893  -15.3760 C   0  0  0  0  0  0  0  0  0  0  0  0
   22.7558  -22.2189  -11.4675 O   0  0  0  0  0  0  0  0  0  0  0  0
  2  1  1  6
  3  2  1  0
  4  3  1  0
  5  9  1  0
  5  4  1  0
  6  5  2  0
  7  8  2  0
  7  2  1  0
 10  7  1  0
 11 10  1  0
 11 12  1  1
 13 12  1  0
 13 14  2  0
 15 14  1  0
 16 15  1  0
 17 16  2  0
 18 17  1  0
 19 18  2  0
 19 20  1  0
 20 21  2  0
 21 16  1  0
 21 13  1  0
 22 11  1  0
 23 22  2  0
 24 25  1  0
 25 35  2  0
 26 25  1  0
 26 27  2  0
 27 28  1  0
 28 34  2  0
 28 29  1  0
 30 29  1  6
 30 31  1  0
 31 22  1  0
 32 30  1  0
 33 32  1  0
 35 34  1  0
 36 32  2  0
M  END
$$$$
