EWY.pdb
     RDKit          3D

 36 38  0  0  1  0  0  0  0  0999 V2000
   18.1414   -9.0078  -22.2831 N   0  0  0  0  0  0  0  0  0  0  0  0
   17.8954   -7.9950  -21.2878 C   0  0  1  0  0  0  0  0  0  0  0  0
   16.5972   -8.3580  -20.5851 C   0  0  0  0  0  0  0  0  0  0  0  0
   15.8305   -7.0971  -20.3298 C   0  0  0  0  0  0  0  0  0  0  0  0
   15.6516   -6.8723  -18.8855 C   0  0  0  0  0  0  0  0  0  0  0  0
   16.0658   -5.8378  -18.3427 O   0  0  0  0  0  0  0  0  0  0  0  0
   18.9813   -8.0596  -20.2721 C   0  0  0  0  0  0  0  0  0  0  0  0
   18.9996   -9.0284  -19.4337 O   0  0  0  0  0  0  0  0  0  0  0  0
   15.0050   -7.8336  -18.1041 O   0  0  0  0  0  0  0  0  0  0  0  0
   19.9638   -7.0484  -20.2590 N   0  0  0  0  0  0  0  0  0  0  0  0
   20.9820   -7.1020  -19.1922 C   0  0  1  0  0  0  0  0  0  0  0  0
   22.2652   -6.6530  -19.8300 C   0  0  0  0  0  0  0  0  0  0  0  0
   23.3194   -6.5161  -18.8097 C   0  0  0  0  0  0  0  0  0  0  0  0
   24.0967   -7.5192  -18.2758 C   0  0  0  0  0  0  0  0  0  0  0  0
   24.9114   -6.9521  -17.3750 N   0  0  0  0  0  0  0  0  0  0  0  0
   24.6997   -5.6375  -17.3009 C   0  0  0  0  0  0  0  0  0  0  0  0
   25.2848   -4.6308  -16.5294 C   0  0  0  0  0  0  0  0  0  0  0  0
   24.8260   -3.3394  -16.6985 C   0  0  0  0  0  0  0  0  0  0  0  0
   23.8255   -3.0457  -17.5954 C   0  0  0  0  0  0  0  0  0  0  0  0
   23.2506   -4.0253  -18.3511 C   0  0  0  0  0  0  0  0  0  0  0  0
   23.7058   -5.3448  -18.1921 C   0  0  0  0  0  0  0  0  0  0  0  0
   20.4753   -6.3236  -18.0869 C   0  0  0  0  0  0  0  0  0  0  0  0
   20.0165   -5.1521  -18.3400 O   0  0  0  0  0  0  0  0  0  0  0  0
   17.7226  -11.5193  -14.1035 O   0  0  0  0  0  0  0  0  0  0  0  0
   17.9699  -10.1854  -14.3584 C   0  0  0  0  0  0  0  0  0  0  0  0
   17.7879   -9.7593  -15.6742 C   0  0  0  0  0  0  0  0  0  0  0  0
   18.0263   -8.4379  -15.9543 C   0  0  0  0  0  0  0  0  0  0  0  0
   18.4349   -7.5437  -14.9719 C   0  0  0  0  0  0  0  0  0  0  0  0
   18.6782   -6.1472  -15.3371 C   0  0  0  0  0  0  0  0  0  0  0  0
   20.1412   -5.8740  -15.6852 C   0  0  2  0  0  0  0  0  0  0  0  0
   20.4543   -6.7786  -16.7592 N   0  0  0  0  0  0  0  0  0  0  0  0
   21.0180   -5.9751  -14.5234 C   0  0  0  0  0  0  0  0  0  0  0  0
   22.0343   -6.9152  -14.4632 O   0  0  0  0  0  0  0  0  0  0  0  0
   18.6047   -7.9985  -13.6832 C   0  0  0  0  0  0  0  0  0  0  0  0
   18.3700   -9.3266  -13.3793 C   0  0  0  0  0  0  0  0  0  0  0  0
   20.9058   -5.2257  -13.5185 O   0  0  0  0  0  0  0  0  0  0  0  0
  2  1  1  6
  3  2  1  0
  4  3  1  0
  5  9  1  0
  5  4  1  0
  6  5  2  0
  7  8  2  0
  7  2  1  0
 10  7  1  0
 11 10  1  0
 11 12  1  6
 13 12  1  0
 13 14  2  0
 15 14  1  0
 16 15  1  0
 17 16  2  0
 18 17  1  0
 19 18  2  0
 19 20  1  0
 20 21  2  0
 21 16  1  0
 21 13  1  0
 22 11  1  0
 23 22  2  0
 24 25  1  0
 25 35  2  0
 26 25  1  0
 26 27  2  0
 27 28  1  0
 28 34  2  0
 28 29  1  0
 30 29  1  1
 30 31  1  0
 31 22  1  0
 32 30  1  0
 33 32  1  0
 35 34  1  0
 36 32  2  0
M  END
$$$$
