EWY.pdb
     RDKit          3D

 36 38  0  0  1  0  0  0  0  0999 V2000
   27.5218  -22.7575  -16.6021 N   0  0  0  0  0  0  0  0  0  0  0  0
   27.5754  -21.4847  -15.9285 C   0  0  1  0  0  0  0  0  0  0  0  0
   26.8463  -20.4788  -16.8045 C   0  0  0  0  0  0  0  0  0  0  0  0
   27.7093  -20.1723  -17.9894 C   0  0  0  0  0  0  0  0  0  0  0  0
   28.7939  -19.2449  -17.6259 C   0  0  0  0  0  0  0  0  0  0  0  0
   29.9832  -19.5683  -17.7569 O   0  0  0  0  0  0  0  0  0  0  0  0
   26.8152  -21.5943  -14.6537 C   0  0  0  0  0  0  0  0  0  0  0  0
   25.6867  -22.2012  -14.6463 O   0  0  0  0  0  0  0  0  0  0  0  0
   28.4893  -17.9764  -17.1248 O   0  0  0  0  0  0  0  0  0  0  0  0
   27.3588  -21.0244  -13.4843 N   0  0  0  0  0  0  0  0  0  0  0  0
   26.6210  -21.2256  -12.2222 C   0  0  1  0  0  0  0  0  0  0  0  0
   27.6238  -21.0120  -11.1250 C   0  0  0  0  0  0  0  0  0  0  0  0
   26.9338  -20.7673   -9.8463 C   0  0  0  0  0  0  0  0  0  0  0  0
   25.5767  -20.6613   -9.6395 C   0  0  0  0  0  0  0  0  0  0  0  0
   25.3926  -20.4237   -8.3332 N   0  0  0  0  0  0  0  0  0  0  0  0
   26.5588  -20.3711   -7.6885 C   0  0  0  0  0  0  0  0  0  0  0  0
   26.8855  -20.1551   -6.3477 C   0  0  0  0  0  0  0  0  0  0  0  0
   28.2218  -20.1640   -5.9998 C   0  0  0  0  0  0  0  0  0  0  0  0
   29.2053  -20.3779   -6.9372 C   0  0  0  0  0  0  0  0  0  0  0  0
   28.8915  -20.5892   -8.2479 C   0  0  0  0  0  0  0  0  0  0  0  0
   27.5366  -20.5838   -8.6193 C   0  0  0  0  0  0  0  0  0  0  0  0
   25.4737  -20.3501  -12.2608 C   0  0  0  0  0  0  0  0  0  0  0  0
   25.6865  -19.0847  -12.2823 O   0  0  0  0  0  0  0  0  0  0  0  0
   21.8353  -22.0658  -18.1777 O   0  0  0  0  0  0  0  0  0  0  0  0
   22.1347  -21.3432  -17.0403 C   0  0  0  0  0  0  0  0  0  0  0  0
   23.4167  -20.7978  -16.9692 C   0  0  0  0  0  0  0  0  0  0  0  0
   23.7398  -20.0743  -15.8496 C   0  0  0  0  0  0  0  0  0  0  0  0
   22.8320  -19.8831  -14.8148 C   0  0  0  0  0  0  0  0  0  0  0  0
   23.2408  -19.1052  -13.6440 C   0  0  0  0  0  0  0  0  0  0  0  0
   23.0560  -19.8696  -12.3333 C   0  0  2  0  0  0  0  0  0  0  0  0
   24.1465  -20.8064  -12.2796 N   0  0  0  0  0  0  0  0  0  0  0  0
   21.7293  -20.4661  -12.2191 C   0  0  0  0  0  0  0  0  0  0  0  0
   21.5595  -21.8364  -12.1021 O   0  0  0  0  0  0  0  0  0  0  0  0
   21.5749  -20.4357  -14.9179 C   0  0  0  0  0  0  0  0  0  0  0  0
   21.2287  -21.1687  -16.0378 C   0  0  0  0  0  0  0  0  0  0  0  0
   20.6729  -19.7821  -12.2209 O   0  0  0  0  0  0  0  0  0  0  0  0
  2  1  1  6
  3  2  1  0
  4  3  1  0
  5  9  1  0
  5  4  1  0
  6  5  2  0
  7  8  2  0
  7  2  1  0
 10  7  1  0
 11 10  1  0
 11 12  1  1
 13 12  1  0
 13 14  2  0
 15 14  1  0
 16 15  1  0
 17 16  2  0
 18 17  1  0
 19 18  2  0
 19 20  1  0
 20 21  2  0
 21 16  1  0
 21 13  1  0
 22 11  1  0
 23 22  2  0
 24 25  1  0
 25 35  2  0
 26 25  1  0
 26 27  2  0
 27 28  1  0
 28 34  2  0
 28 29  1  0
 30 29  1  6
 30 31  1  0
 31 22  1  0
 32 30  1  0
 33 32  1  0
 35 34  1  0
 36 32  2  0
M  END
$$$$
