EWY.pdb
     RDKit          3D

 36 38  0  0  1  0  0  0  0  0999 V2000
   27.0228  -24.5096  -16.0787 N   0  0  0  0  0  0  0  0  0  0  0  0
   27.3156  -23.1174  -15.8488 C   0  0  1  0  0  0  0  0  0  0  0  0
   26.8953  -22.3554  -17.0951 C   0  0  0  0  0  0  0  0  0  0  0  0
   25.7607  -23.0918  -17.7380 C   0  0  0  0  0  0  0  0  0  0  0  0
   24.5035  -22.3352  -17.6140 C   0  0  0  0  0  0  0  0  0  0  0  0
   23.4046  -22.9049  -17.6791 O   0  0  0  0  0  0  0  0  0  0  0  0
   26.4635  -22.6361  -14.7275 C   0  0  0  0  0  0  0  0  0  0  0  0
   25.5911  -23.4248  -14.2190 O   0  0  0  0  0  0  0  0  0  0  0  0
   24.5374  -20.9518  -17.4188 O   0  0  0  0  0  0  0  0  0  0  0  0
   26.6393  -21.3198  -14.2538 N   0  0  0  0  0  0  0  0  0  0  0  0
   25.7895  -20.8814  -13.1297 C   0  0  1  0  0  0  0  0  0  0  0  0
   26.5628  -19.8002  -12.4311 C   0  0  0  0  0  0  0  0  0  0  0  0
   27.5410  -20.3937  -11.5027 C   0  0  0  0  0  0  0  0  0  0  0  0
   28.7477  -20.9738  -11.8236 C   0  0  0  0  0  0  0  0  0  0  0  0
   29.3033  -21.3920  -10.6776 N   0  0  0  0  0  0  0  0  0  0  0  0
   28.5184  -21.1118   -9.6365 C   0  0  0  0  0  0  0  0  0  0  0  0
   28.6546  -21.3402   -8.2652 C   0  0  0  0  0  0  0  0  0  0  0  0
   27.6358  -20.9145   -7.4360 C   0  0  0  0  0  0  0  0  0  0  0  0
   26.5197  -20.2854   -7.9363 C   0  0  0  0  0  0  0  0  0  0  0  0
   26.3817  -20.0601   -9.2747 C   0  0  0  0  0  0  0  0  0  0  0  0
   27.4092  -20.4864  -10.1328 C   0  0  0  0  0  0  0  0  0  0  0  0
   24.5033  -20.5329  -13.6851 C   0  0  0  0  0  0  0  0  0  0  0  0
   24.4711  -20.0895  -14.8890 O   0  0  0  0  0  0  0  0  0  0  0  0
   20.3329  -26.2814  -13.4311 O   0  0  0  0  0  0  0  0  0  0  0  0
   20.6513  -24.9777  -13.7541 C   0  0  0  0  0  0  0  0  0  0  0  0
   21.9597  -24.7435  -14.1774 C   0  0  0  0  0  0  0  0  0  0  0  0
   22.3022  -23.4564  -14.5054 C   0  0  0  0  0  0  0  0  0  0  0  0
   21.3881  -22.4126  -14.4239 C   0  0  0  0  0  0  0  0  0  0  0  0
   21.8181  -21.0602  -14.7830 C   0  0  0  0  0  0  0  0  0  0  0  0
   22.0663  -20.1756  -13.5614 C   0  0  2  0  0  0  0  0  0  0  0  0
   23.2934  -20.6558  -12.9842 N   0  0  0  0  0  0  0  0  0  0  0  0
   20.9275  -20.1534  -12.6496 C   0  0  0  0  0  0  0  0  0  0  0  0
   19.6584  -19.8069  -13.0849 O   0  0  0  0  0  0  0  0  0  0  0  0
   20.1047  -22.6796  -14.0021 C   0  0  0  0  0  0  0  0  0  0  0  0
   19.7386  -23.9699  -13.6665 C   0  0  0  0  0  0  0  0  0  0  0  0
   21.0271  -20.4425  -11.4288 O   0  0  0  0  0  0  0  0  0  0  0  0
  2  1  1  6
  3  2  1  0
  4  3  1  0
  5  9  1  0
  5  4  1  0
  6  5  2  0
  7  8  2  0
  7  2  1  0
 10  7  1  0
 11 10  1  0
 11 12  1  6
 13 12  1  0
 13 14  2  0
 15 14  1  0
 16 15  1  0
 17 16  2  0
 18 17  1  0
 19 18  2  0
 19 20  1  0
 20 21  2  0
 21 16  1  0
 21 13  1  0
 22 11  1  0
 23 22  2  0
 24 25  1  0
 25 35  2  0
 26 25  1  0
 26 27  2  0
 27 28  1  0
 28 34  2  0
 28 29  1  0
 30 29  1  6
 30 31  1  0
 31 22  1  0
 32 30  1  0
 33 32  1  0
 35 34  1  0
 36 32  2  0
M  END
$$$$
