CQN.pdb
     RDKit          3D

 24 23  0  0  1  0  0  0  0  0999 V2000
   23.3797  -12.7205  -17.8860 N   0  0  0  0  0  0  0  0  0  0  0  0
   22.9857  -12.1696  -16.6009 C   0  0  1  0  0  0  0  0  0  0  0  0
   24.2088  -11.7369  -15.8184 C   0  0  0  0  0  0  0  0  0  0  0  0
   25.0567  -13.1868  -15.1232 S   0  0  0  0  0  0  0  0  0  0  0  0
   22.0776  -11.0292  -16.8562 C   0  0  0  0  0  0  0  0  0  0  0  0
   22.3383  -10.1510  -17.7328 O   0  0  0  0  0  0  0  0  0  0  0  0
   15.8718  -10.5770  -16.1869 N   0  0  0  0  0  0  0  0  0  0  0  0
   16.2313   -9.2482  -16.5492 C   0  0  0  0  0  0  0  0  0  0  0  0
   15.3482   -8.4277  -16.8423 O   0  0  0  0  0  0  0  0  0  0  0  0
   17.6653   -8.8970  -16.5605 C   0  0  0  0  0  0  0  0  0  0  0  0
   18.5491  -10.0979  -16.2958 C   0  0  0  0  0  0  0  0  0  0  0  0
   19.9987   -9.6893  -16.4069 C   0  0  2  0  0  0  0  0  0  0  0  0
   20.8504  -10.8302  -16.1433 N   0  0  0  0  0  0  0  0  0  0  0  0
   20.3288   -8.5384  -15.5412 C   0  0  0  0  0  0  0  0  0  0  0  0
   20.9966   -8.7486  -14.4949 O   0  0  0  0  0  0  0  0  0  0  0  0
   22.0659   -4.6004  -12.7681 N   0  0  0  0  0  0  0  0  0  0  0  0
   22.2603   -4.7804  -14.1977 C   0  0  0  0  0  0  0  0  0  0  0  0
   22.8074   -3.8737  -14.8568 O   0  0  0  0  0  0  0  0  0  0  0  0
   21.8159   -6.0148  -14.8471 C   0  0  0  0  0  0  0  0  0  0  0  0
   20.3301   -6.0595  -15.0067 C   0  0  2  0  0  0  0  0  0  0  0  0
   19.9371   -7.2123  -15.8211 N   0  0  0  0  0  0  0  0  0  0  0  0
   19.7429   -4.8257  -15.5369 C   0  0  0  0  0  0  0  0  0  0  0  0
   19.4680   -4.7719  -16.7938 O   0  0  0  0  0  0  0  0  0  0  0  0
   19.4404   -3.6868  -14.8402 O   0  0  0  0  0  0  0  0  0  0  0  0
  2  1  1  6
  2  3  1  0
  4  3  1  0
  5  2  1  0
  6  5  2  0
  7  8  1  0
  8  9  2  0
 10  8  1  0
 10 11  1  0
 12 11  1  1
 12 13  1  0
 13  5  1  0
 14 21  1  0
 14 12  1  0
 15 14  2  0
 16 17  1  0
 17 19  1  0
 18 17  2  0
 20 19  1  6
 20 22  1  0
 20 21  1  0
 22 24  1  0
 23 22  2  0
M  END
$$$$
