CQN.pdb
     RDKit          3D

 24 23  0  0  1  0  0  0  0  0999 V2000
   15.5653   -9.1460   -9.7765 N   0  0  0  0  0  0  0  0  0  0  0  0
   16.8560   -9.0621  -10.4378 C   0  0  1  0  0  0  0  0  0  0  0  0
   16.9179  -10.0397  -11.5936 C   0  0  0  0  0  0  0  0  0  0  0  0
   16.8638  -11.7486  -10.9761 S   0  0  0  0  0  0  0  0  0  0  0  0
   17.0381   -7.6680  -10.9004 C   0  0  0  0  0  0  0  0  0  0  0  0
   18.0759   -7.3038  -11.5312 O   0  0  0  0  0  0  0  0  0  0  0  0
   15.5285   -5.2515  -15.8862 N   0  0  0  0  0  0  0  0  0  0  0  0
   14.9315   -5.3494  -14.5978 C   0  0  0  0  0  0  0  0  0  0  0  0
   13.7092   -5.1805  -14.4690 O   0  0  0  0  0  0  0  0  0  0  0  0
   15.8081   -5.6536  -13.4494 C   0  0  0  0  0  0  0  0  0  0  0  0
   15.4104   -4.8829  -12.2079 C   0  0  0  0  0  0  0  0  0  0  0  0
   16.3224   -5.2640  -11.0661 C   0  0  2  0  0  0  0  0  0  0  0  0
   16.0705   -6.6352  -10.6751 N   0  0  0  0  0  0  0  0  0  0  0  0
   16.2167   -4.3327   -9.9240 C   0  0  0  0  0  0  0  0  0  0  0  0
   15.4908   -4.6611   -8.9492 O   0  0  0  0  0  0  0  0  0  0  0  0
   17.7693   -0.7047   -5.9630 N   0  0  0  0  0  0  0  0  0  0  0  0
   17.8263   -0.4531   -7.3938 C   0  0  0  0  0  0  0  0  0  0  0  0
   17.7298    0.7187   -7.8103 O   0  0  0  0  0  0  0  0  0  0  0  0
   17.9951   -1.5682   -8.3271 C   0  0  0  0  0  0  0  0  0  0  0  0
   16.6825   -2.1111   -8.7934 C   0  0  2  0  0  0  0  0  0  0  0  0
   16.8851   -3.0919   -9.8630 N   0  0  0  0  0  0  0  0  0  0  0  0
   15.7179   -1.0872   -9.2048 C   0  0  0  0  0  0  0  0  0  0  0  0
   15.6431   -0.7864  -10.4546 O   0  0  0  0  0  0  0  0  0  0  0  0
   14.8590   -0.3882   -8.4001 O   0  0  0  0  0  0  0  0  0  0  0  0
  2  1  1  6
  2  3  1  0
  4  3  1  0
  5  2  1  0
  6  5  2  0
  7  8  1  0
  8  9  2  0
 10  8  1  0
 10 11  1  0
 12 11  1  6
 12 13  1  0
 13  5  1  0
 14 21  1  0
 14 12  1  0
 15 14  2  0
 16 17  1  0
 17 19  1  0
 18 17  2  0
 20 19  1  6
 20 22  1  0
 20 21  1  0
 22 24  1  0
 23 22  2  0
M  END
$$$$
