CQN.pdb
     RDKit          3D

 24 23  0  0  1  0  0  0  0  0999 V2000
   25.4629  -12.0849  -15.5053 N   0  0  0  0  0  0  0  0  0  0  0  0
   25.3762  -11.7488  -16.9159 C   0  0  1  0  0  0  0  0  0  0  0  0
   25.3242  -13.0103  -17.7535 C   0  0  0  0  0  0  0  0  0  0  0  0
   26.8173  -14.0102  -17.4788 S   0  0  0  0  0  0  0  0  0  0  0  0
   24.1645  -10.9217  -17.1109 C   0  0  0  0  0  0  0  0  0  0  0  0
   23.8591  -10.4411  -18.2437 O   0  0  0  0  0  0  0  0  0  0  0  0
   18.5948  -11.8448  -15.2212 N   0  0  0  0  0  0  0  0  0  0  0  0
   19.2426  -12.2323  -16.4280 C   0  0  0  0  0  0  0  0  0  0  0  0
   18.7627  -13.1417  -17.1221 O   0  0  0  0  0  0  0  0  0  0  0  0
   20.4798  -11.5224  -16.8089 C   0  0  0  0  0  0  0  0  0  0  0  0
   20.8517  -10.4471  -15.8095 C   0  0  0  0  0  0  0  0  0  0  0  0
   22.1080   -9.7464  -16.2694 C   0  0  2  0  0  0  0  0  0  0  0  0
   23.2544  -10.6034  -16.0507 N   0  0  0  0  0  0  0  0  0  0  0  0
   22.2777   -8.4207  -15.6396 C   0  0  0  0  0  0  0  0  0  0  0  0
   23.2561   -8.2461  -14.8668 O   0  0  0  0  0  0  0  0  0  0  0  0
   23.9807   -3.2089  -15.6711 N   0  0  0  0  0  0  0  0  0  0  0  0
   23.2147   -4.1977  -14.9299 C   0  0  0  0  0  0  0  0  0  0  0  0
   22.7560   -3.8980  -13.8095 O   0  0  0  0  0  0  0  0  0  0  0  0
   22.9897   -5.5271  -15.5003 C   0  0  0  0  0  0  0  0  0  0  0  0
   21.5937   -6.0076  -15.2654 C   0  0  2  0  0  0  0  0  0  0  0  0
   21.4031   -7.3351  -15.8556 N   0  0  0  0  0  0  0  0  0  0  0  0
   20.5523   -5.0828  -15.7221 C   0  0  0  0  0  0  0  0  0  0  0  0
   20.1505   -5.1708  -16.9423 O   0  0  0  0  0  0  0  0  0  0  0  0
   19.9338   -4.1057  -14.9896 O   0  0  0  0  0  0  0  0  0  0  0  0
  2  1  1  1
  2  3  1  0
  4  3  1  0
  5  2  1  0
  6  5  2  0
  7  8  1  0
  8  9  2  0
 10  8  1  0
 10 11  1  0
 12 11  1  1
 12 13  1  0
 13  5  1  0
 14 21  1  0
 14 12  1  0
 15 14  2  0
 16 17  1  0
 17 19  1  0
 18 17  2  0
 20 19  1  6
 20 22  1  0
 20 21  1  0
 22 24  1  0
 23 22  2  0
M  END
$$$$
