CQN.pdb
     RDKit          3D

 24 23  0  0  1  0  0  0  0  0999 V2000
   16.3859  -12.6959  -14.5868 N   0  0  0  0  0  0  0  0  0  0  0  0
   16.3926  -11.6572  -15.6022 C   0  0  1  0  0  0  0  0  0  0  0  0
   15.1284  -10.8270  -15.5120 C   0  0  0  0  0  0  0  0  0  0  0  0
   13.7116  -11.7658  -16.1569 S   0  0  0  0  0  0  0  0  0  0  0  0
   17.5994  -10.8264  -15.3924 C   0  0  0  0  0  0  0  0  0  0  0  0
   17.8307  -10.2521  -14.2860 O   0  0  0  0  0  0  0  0  0  0  0  0
   23.1072  -10.8178  -18.4799 N   0  0  0  0  0  0  0  0  0  0  0  0
   23.2386   -9.6848  -17.6283 C   0  0  0  0  0  0  0  0  0  0  0  0
   24.3011   -9.0444  -17.6120 O   0  0  0  0  0  0  0  0  0  0  0  0
   22.0843   -9.3134  -16.7861 C   0  0  0  0  0  0  0  0  0  0  0  0
   20.9090  -10.2476  -16.9846 C   0  0  0  0  0  0  0  0  0  0  0  0
   19.7316   -9.7522  -16.1790 C   0  0  2  0  0  0  0  0  0  0  0  0
   18.5867  -10.6086  -16.4079 N   0  0  0  0  0  0  0  0  0  0  0  0
   19.4240   -8.3316  -16.4436 C   0  0  0  0  0  0  0  0  0  0  0  0
   18.5872   -8.0580  -17.3436 O   0  0  0  0  0  0  0  0  0  0  0  0
   19.0111   -3.1902  -16.1434 N   0  0  0  0  0  0  0  0  0  0  0  0
   17.9805   -4.1292  -15.7307 C   0  0  0  0  0  0  0  0  0  0  0  0
   16.8473   -3.6991  -15.4366 O   0  0  0  0  0  0  0  0  0  0  0  0
   18.2788   -5.5608  -15.6643 C   0  0  0  0  0  0  0  0  0  0  0  0
   19.7067   -5.8510  -15.9991 C   0  0  2  0  0  0  0  0  0  0  0  0
   20.0165   -7.2600  -15.7430 N   0  0  0  0  0  0  0  0  0  0  0  0
   20.6734   -4.9773  -15.3280 C   0  0  0  0  0  0  0  0  0  0  0  0
   20.5697   -3.7056  -15.5017 O   0  0  0  0  0  0  0  0  0  0  0  0
   21.7059   -5.3568  -14.5134 O   0  0  0  0  0  0  0  0  0  0  0  0
  2  1  1  1
  2  3  1  0
  4  3  1  0
  5  2  1  0
  6  5  2  0
  7  8  1  0
  8  9  2  0
 10  8  1  0
 10 11  1  0
 12 11  1  6
 12 13  1  0
 13  5  1  0
 14 21  1  0
 14 12  1  0
 15 14  2  0
 16 17  1  0
 17 19  1  0
 18 17  2  0
 20 19  1  1
 20 22  1  0
 20 21  1  0
 22 24  1  0
 23 22  2  0
M  END
$$$$
