CQN.pdb
     RDKit          3D

 24 23  0  0  1  0  0  0  0  0999 V2000
   26.9107  -11.6657  -18.0978 N   0  0  0  0  0  0  0  0  0  0  0  0
   26.3224  -11.4275  -16.7912 C   0  0  1  0  0  0  0  0  0  0  0  0
   27.2971  -10.6784  -15.9057 C   0  0  0  0  0  0  0  0  0  0  0  0
   28.6248  -11.7891  -15.3506 S   0  0  0  0  0  0  0  0  0  0  0  0
   25.0737  -10.6582  -16.9901 C   0  0  0  0  0  0  0  0  0  0  0  0
   24.9999   -9.7097  -17.8282 O   0  0  0  0  0  0  0  0  0  0  0  0
   19.1297  -12.4768  -16.3272 N   0  0  0  0  0  0  0  0  0  0  0  0
   19.0007  -11.1257  -16.7562 C   0  0  0  0  0  0  0  0  0  0  0  0
   17.8983  -10.7004  -17.1343 O   0  0  0  0  0  0  0  0  0  0  0  0
   20.2058  -10.2731  -16.7322 C   0  0  0  0  0  0  0  0  0  0  0  0
   21.4559  -11.0610  -16.4006 C   0  0  0  0  0  0  0  0  0  0  0  0
   22.6608  -10.1555  -16.4962 C   0  0  2  0  0  0  0  0  0  0  0  0
   23.8677  -10.9204  -16.2619 N   0  0  0  0  0  0  0  0  0  0  0  0
   22.5613   -8.9865  -15.5982 C   0  0  0  0  0  0  0  0  0  0  0  0
   22.8443   -9.1409  -14.3812 O   0  0  0  0  0  0  0  0  0  0  0  0
   22.0924   -4.1836  -13.7050 N   0  0  0  0  0  0  0  0  0  0  0  0
   22.6714   -4.1322  -15.0376 C   0  0  0  0  0  0  0  0  0  0  0  0
   23.1563   -3.0595  -15.4500 O   0  0  0  0  0  0  0  0  0  0  0  0
   22.6808   -5.3306  -15.8783 C   0  0  0  0  0  0  0  0  0  0  0  0
   22.1434   -6.5246  -15.1567 C   0  0  2  0  0  0  0  0  0  0  0  0
   22.1658   -7.7023  -16.0280 N   0  0  0  0  0  0  0  0  0  0  0  0
   20.8098   -6.3314  -14.5802 C   0  0  0  0  0  0  0  0  0  0  0  0
   19.7848   -6.5255  -15.3350 O   0  0  0  0  0  0  0  0  0  0  0  0
   20.5084   -5.9583  -13.2981 O   0  0  0  0  0  0  0  0  0  0  0  0
  2  1  1  6
  2  3  1  0
  4  3  1  0
  5  2  1  0
  6  5  2  0
  7  8  1  0
  8  9  2  0
 10  8  1  0
 10 11  1  0
 12 11  1  1
 12 13  1  0
 13  5  1  0
 14 21  1  0
 14 12  1  0
 15 14  2  0
 16 17  1  0
 17 19  1  0
 18 17  2  0
 20 19  1  6
 20 22  1  0
 20 21  1  0
 22 24  1  0
 23 22  2  0
M  END
$$$$
