CQN.pdb
     RDKit          3D

 24 23  0  0  1  0  0  0  0  0999 V2000
   13.8115  -11.3833  -10.4979 N   0  0  0  0  0  0  0  0  0  0  0  0
   15.1523  -10.9469  -10.1487 C   0  0  1  0  0  0  0  0  0  0  0  0
   16.1770  -11.6653  -11.0027 C   0  0  0  0  0  0  0  0  0  0  0  0
   16.3619  -13.3870  -10.4494 S   0  0  0  0  0  0  0  0  0  0  0  0
   15.2176   -9.4816  -10.3462 C   0  0  0  0  0  0  0  0  0  0  0  0
   14.7250   -8.9234  -11.3725 O   0  0  0  0  0  0  0  0  0  0  0  0
   14.1758   -4.9158   -6.4887 N   0  0  0  0  0  0  0  0  0  0  0  0
   14.7133   -4.1849   -7.5855 C   0  0  0  0  0  0  0  0  0  0  0  0
   14.6620   -2.9453   -7.5860 O   0  0  0  0  0  0  0  0  0  0  0  0
   15.3199   -4.9467   -8.6952 C   0  0  0  0  0  0  0  0  0  0  0  0
   15.3219   -6.4377   -8.4298 C   0  0  0  0  0  0  0  0  0  0  0  0
   15.8741   -7.1618   -9.6345 C   0  0  2  0  0  0  0  0  0  0  0  0
   15.8337   -8.5913   -9.4074 N   0  0  0  0  0  0  0  0  0  0  0  0
   17.2272   -6.6961  -10.0020 C   0  0  0  0  0  0  0  0  0  0  0  0
   18.1848   -6.9726   -9.2328 O   0  0  0  0  0  0  0  0  0  0  0  0
   21.3594   -5.3983  -12.7907 N   0  0  0  0  0  0  0  0  0  0  0  0
   20.9827   -6.7215  -12.3207 C   0  0  0  0  0  0  0  0  0  0  0  0
   21.8120   -7.6508  -12.3887 O   0  0  0  0  0  0  0  0  0  0  0  0
   19.6437   -6.9509  -11.7753 C   0  0  0  0  0  0  0  0  0  0  0  0
   18.8654   -5.6807  -11.6501 C   0  0  2  0  0  0  0  0  0  0  0  0
   17.5089   -5.9566  -11.1699 N   0  0  0  0  0  0  0  0  0  0  0  0
   18.8284   -4.8727  -12.8724 C   0  0  0  0  0  0  0  0  0  0  0  0
   17.7384   -4.8525  -13.5577 O   0  0  0  0  0  0  0  0  0  0  0  0
   19.8407   -4.1124  -13.3930 O   0  0  0  0  0  0  0  0  0  0  0  0
  2  1  1  6
  2  3  1  0
  4  3  1  0
  5  2  1  0
  6  5  2  0
  7  8  1  0
  8  9  2  0
 10  8  1  0
 10 11  1  0
 12 11  1  1
 12 13  1  0
 13  5  1  0
 14 21  1  0
 14 12  1  0
 15 14  2  0
 16 17  1  0
 17 19  1  0
 18 17  2  0
 20 19  1  6
 20 22  1  0
 20 21  1  0
 22 24  1  0
 23 22  2  0
M  END
$$$$
