RKK.pdb
     RDKit          3D

 30 29  0  0  1  0  0  0  0  0999 V2000
   22.5810  -21.0136  -13.5414 N   0  0  0  0  0  0  0  0  0  0  0  0
   21.7303  -21.1032  -12.4136 C   0  0  0  0  0  0  0  0  0  0  0  0
   20.6008  -21.7433  -12.4056 N   0  0  0  0  0  0  0  0  0  0  0  0
   22.1121  -20.4547  -11.2005 N   0  0  0  0  0  0  0  0  0  0  0  0
   23.4207  -19.8109  -11.0736 C   0  0  0  0  0  0  0  0  0  0  0  0
   24.2743  -20.5812  -10.1220 C   0  0  0  0  0  0  0  0  0  0  0  0
   25.0111  -21.7431  -10.7359 C   0  0  0  0  0  0  0  0  0  0  0  0
   26.4085  -21.2823  -11.1035 C   0  0  2  0  0  0  0  0  0  0  0  0
   26.9267  -20.4672  -10.0073 N   0  0  0  0  0  0  0  0  0  0  0  0
   26.4310  -20.4715  -12.3250 C   0  0  0  0  0  0  0  0  0  0  0  0
   26.3936  -19.2262  -12.2130 O   0  0  0  0  0  0  0  0  0  0  0  0
   20.0359  -21.7556  -11.5042 N   0  0  0  0  0  0  0  0  0  0  0  0
   26.4948  -21.0120  -13.6345 C   0  0  2  0  0  0  0  0  0  0  0  0
   26.5822  -20.1315  -14.8034 C   0  0  0  0  0  0  0  0  0  0  0  0
   27.4536  -20.8443  -15.8595 C   0  0  0  0  0  0  0  0  0  0  0  0
   27.7633  -20.0132  -17.0479 C   0  0  0  0  0  0  0  0  0  0  0  0
   28.6011  -20.6787  -18.0988 C   0  0  0  0  0  0  0  0  0  0  0  0
   28.9766  -19.6037  -19.1185 N   0  0  0  0  0  0  0  0  0  0  0  0
   29.8574  -20.1764  -20.1205 C   0  0  0  0  0  0  0  0  0  0  0  0
   25.2961  -19.8788  -15.4381 O   0  0  0  0  0  0  0  0  0  0  0  0
   24.4400  -20.8212  -15.4270 N   0  0  0  0  0  0  0  0  0  0  0  0
   24.8850  -18.6895  -16.0652 C   0  0  1  0  0  0  0  0  0  0  0  0
   23.5460  -18.5278  -16.6838 C   0  0  0  0  0  0  0  0  0  0  0  0
   23.3932  -17.0599  -17.0649 C   0  0  0  0  0  0  0  0  0  0  0  0
   22.0876  -16.7502  -17.7137 C   0  0  0  0  0  0  0  0  0  0  0  0
   21.9143  -15.2781  -18.0377 C   0  0  0  0  0  0  0  0  0  0  0  0
   20.6195  -15.0992  -18.7828 N   0  0  0  0  0  0  0  0  0  0  0  0
   20.3589  -13.6800  -18.9661 C   0  0  0  0  0  0  0  0  0  0  0  0
   23.4021  -19.3726  -17.8516 O   0  0  0  0  0  0  0  0  0  0  0  0
   24.3485  -19.5167  -18.7145 O   0  0  0  0  0  0  0  0  0  0  0  0
  2  1  1  0
  2  4  1  0
  3  2  2  0
  4  5  1  0
  5  6  1  0
  6  7  1  0
  7  8  1  0
  8  9  1  1
 10  8  1  0
 11 10  2  0
 12 10  1  0
 13 19  1  0
 13 12  1  0
 13 14  1  6
 15 14  1  0
 16 15  1  0
 17 16  1  0
 18 17  1  0
 19 21  1  0
 20 19  2  0
 21 22  1  0
 22 28  1  0
 22 23  1  6
 23 24  1  0
 25 24  1  0
 26 25  1  0
 26 27  1  0
 28 29  2  0
 28 30  1  0
M  END
$$$$
