RKK.pdb
     RDKit          3D

 30 29  0  0  1  0  0  0  0  0999 V2000
   28.4151  -19.9204  -19.9691 N   0  0  0  0  0  0  0  0  0  0  0  0
   27.3174  -20.7685  -19.6872 C   0  0  0  0  0  0  0  0  0  0  0  0
   27.0285  -21.8333  -20.3715 N   0  0  0  0  0  0  0  0  0  0  0  0
   26.4573  -20.4531  -18.5924 N   0  0  0  0  0  0  0  0  0  0  0  0
   26.7072  -19.2776  -17.7565 C   0  0  0  0  0  0  0  0  0  0  0  0
   28.0593  -19.3777  -17.1323 C   0  0  0  0  0  0  0  0  0  0  0  0
   28.0866  -19.1313  -15.6463 C   0  0  0  0  0  0  0  0  0  0  0  0
   28.1584  -20.4719  -14.9409 C   0  0  2  0  0  0  0  0  0  0  0  0
   28.5862  -21.4785  -15.9097 N   0  0  0  0  0  0  0  0  0  0  0  0
   26.8648  -20.8890  -14.3909 C   0  0  0  0  0  0  0  0  0  0  0  0
   26.1416  -21.6432  -15.0784 O   0  0  0  0  0  0  0  0  0  0  0  0
   26.1427  -22.3669  -20.1217 N   0  0  0  0  0  0  0  0  0  0  0  0
   26.3783  -20.4912  -13.1197 C   0  0  2  0  0  0  0  0  0  0  0  0
   25.0809  -20.9694  -12.6324 C   0  0  0  0  0  0  0  0  0  0  0  0
   24.9738  -20.5874  -11.1407 C   0  0  0  0  0  0  0  0  0  0  0  0
   23.7385  -21.0735  -10.4798 C   0  0  0  0  0  0  0  0  0  0  0  0
   23.5789  -20.6781   -9.0420 C   0  0  0  0  0  0  0  0  0  0  0  0
   22.3104  -21.3593   -8.5290 N   0  0  0  0  0  0  0  0  0  0  0  0
   22.0818  -20.9749   -7.1477 C   0  0  0  0  0  0  0  0  0  0  0  0
   23.9448  -20.3454  -13.2965 O   0  0  0  0  0  0  0  0  0  0  0  0
   23.9318  -19.0743  -13.3687 N   0  0  0  0  0  0  0  0  0  0  0  0
   22.8472  -21.0003  -13.8822 C   0  0  1  0  0  0  0  0  0  0  0  0
   21.7211  -20.2717  -14.5168 C   0  0  0  0  0  0  0  0  0  0  0  0
   20.8735  -21.2982  -15.2591 C   0  0  0  0  0  0  0  0  0  0  0  0
   19.6601  -20.7131  -15.8971 C   0  0  0  0  0  0  0  0  0  0  0  0
   18.8433  -21.7286  -16.6740 C   0  0  0  0  0  0  0  0  0  0  0  0
   17.6591  -21.0284  -17.2830 N   0  0  0  0  0  0  0  0  0  0  0  0
   16.8736  -21.9833  -18.0489 C   0  0  0  0  0  0  0  0  0  0  0  0
   20.9237  -19.5748  -13.5286 O   0  0  0  0  0  0  0  0  0  0  0  0
   20.3949  -18.4229  -13.7625 O   0  0  0  0  0  0  0  0  0  0  0  0
  2  1  1  0
  2  4  1  0
  3  2  2  0
  4  5  1  0
  5  6  1  0
  6  7  1  0
  7  8  1  0
  8  9  1  6
 10  8  1  0
 11 10  2  0
 12 10  1  0
 13 19  1  0
 13 12  1  0
 13 14  1  6
 15 14  1  0
 16 15  1  0
 17 16  1  0
 18 17  1  0
 19 21  1  0
 20 19  2  0
 21 22  1  0
 22 28  1  0
 22 23  1  1
 23 24  1  0
 25 24  1  0
 26 25  1  0
 26 27  1  0
 28 29  2  0
 28 30  1  0
M  END
$$$$
