RKK.pdb
     RDKit          3D

 30 29  0  0  1  0  0  0  0  0999 V2000
   28.7010  -22.0650  -16.2426 N   0  0  0  0  0  0  0  0  0  0  0  0
   27.5453  -21.9623  -17.0535 C   0  0  0  0  0  0  0  0  0  0  0  0
   27.2133  -22.8329  -17.9575 N   0  0  0  0  0  0  0  0  0  0  0  0
   26.6782  -20.8400  -16.8906 N   0  0  0  0  0  0  0  0  0  0  0  0
   26.7951  -19.9649  -15.7228 C   0  0  0  0  0  0  0  0  0  0  0  0
   26.4465  -20.7224  -14.4850 C   0  0  0  0  0  0  0  0  0  0  0  0
   25.1431  -20.3192  -13.8460 C   0  0  0  0  0  0  0  0  0  0  0  0
   24.3986  -21.5778  -13.4438 C   0  0  2  0  0  0  0  0  0  0  0  0
   24.3124  -22.4532  -14.6103 N   0  0  0  0  0  0  0  0  0  0  0  0
   23.0356  -21.3017  -12.9790 C   0  0  0  0  0  0  0  0  0  0  0  0
   22.8862  -20.5694  -11.9759 O   0  0  0  0  0  0  0  0  0  0  0  0
   26.3837  -22.6138  -18.5864 N   0  0  0  0  0  0  0  0  0  0  0  0
   21.8675  -21.8133  -13.5991 C   0  0  2  0  0  0  0  0  0  0  0  0
   20.5415  -21.5404  -13.0364 C   0  0  0  0  0  0  0  0  0  0  0  0
   19.6054  -21.1722  -14.2071 C   0  0  0  0  0  0  0  0  0  0  0  0
   18.2030  -20.9130  -13.8007 C   0  0  0  0  0  0  0  0  0  0  0  0
   17.2508  -20.6212  -14.9220 C   0  0  0  0  0  0  0  0  0  0  0  0
   15.8849  -20.3528  -14.2905 N   0  0  0  0  0  0  0  0  0  0  0  0
   14.9279  -20.0265  -15.3324 C   0  0  0  0  0  0  0  0  0  0  0  0
   19.9405  -22.6930  -12.3797 O   0  0  0  0  0  0  0  0  0  0  0  0
   20.0430  -23.8207  -12.9617 N   0  0  0  0  0  0  0  0  0  0  0  0
   19.2553  -22.7008  -11.1520 C   0  0  1  0  0  0  0  0  0  0  0  0
   18.6270  -23.9218  -10.5896 C   0  0  0  0  0  0  0  0  0  0  0  0
   18.6355  -23.7821   -9.0718 C   0  0  0  0  0  0  0  0  0  0  0  0
   17.9961  -24.9303   -8.3686 C   0  0  0  0  0  0  0  0  0  0  0  0
   17.9760  -24.7723   -6.8598 C   0  0  0  0  0  0  0  0  0  0  0  0
   17.2877  -25.9683   -6.2604 N   0  0  0  0  0  0  0  0  0  0  0  0
   17.2050  -25.8062   -4.8173 C   0  0  0  0  0  0  0  0  0  0  0  0
   17.2727  -24.0867  -11.0762 O   0  0  0  0  0  0  0  0  0  0  0  0
   16.4486  -23.0992  -11.1584 O   0  0  0  0  0  0  0  0  0  0  0  0
  2  1  1  0
  2  4  1  0
  3  2  2  0
  4  5  1  0
  5  6  1  0
  6  7  1  0
  7  8  1  0
  8  9  1  6
 10  8  1  0
 11 10  2  0
 12 10  1  0
 13 19  1  0
 13 12  1  0
 13 14  1  1
 15 14  1  0
 16 15  1  0
 17 16  1  0
 18 17  1  0
 19 21  1  0
 20 19  2  0
 21 22  1  0
 22 28  1  0
 22 23  1  6
 23 24  1  0
 25 24  1  0
 26 25  1  0
 26 27  1  0
 28 29  2  0
 28 30  1  0
M  END
$$$$
