RKK.pdb
     RDKit          3D

 30 29  0  0  1  0  0  0  0  0999 V2000
   23.1848  -21.5125   -7.4656 N   0  0  0  0  0  0  0  0  0  0  0  0
   21.9141  -21.4177   -8.0821 C   0  0  0  0  0  0  0  0  0  0  0  0
   20.8847  -22.1291   -7.7361 N   0  0  0  0  0  0  0  0  0  0  0  0
   21.7284  -20.4949   -9.1554 N   0  0  0  0  0  0  0  0  0  0  0  0
   22.8195  -20.1947  -10.0841 C   0  0  0  0  0  0  0  0  0  0  0  0
   24.1028  -20.7399   -9.5515 C   0  0  0  0  0  0  0  0  0  0  0  0
   25.3159  -20.4244  -10.3871 C   0  0  0  0  0  0  0  0  0  0  0  0
   25.2294  -21.2208  -11.6749 C   0  0  2  0  0  0  0  0  0  0  0  0
   26.3407  -22.1688  -11.7044 N   0  0  0  0  0  0  0  0  0  0  0  0
   25.3207  -20.3736  -12.8682 C   0  0  0  0  0  0  0  0  0  0  0  0
   24.4853  -19.4535  -13.0097 O   0  0  0  0  0  0  0  0  0  0  0  0
   19.9832  -22.0113   -8.2885 N   0  0  0  0  0  0  0  0  0  0  0  0
   26.3035  -20.5303  -13.8785 C   0  0  2  0  0  0  0  0  0  0  0  0
   26.3442  -19.6228  -15.0292 C   0  0  0  0  0  0  0  0  0  0  0  0
   27.5893  -19.9867  -15.8657 C   0  0  0  0  0  0  0  0  0  0  0  0
   27.8777  -19.0345  -16.9654 C   0  0  0  0  0  0  0  0  0  0  0  0
   29.1122  -19.3282  -17.7646 C   0  0  0  0  0  0  0  0  0  0  0  0
   29.2206  -18.2429  -18.8354 N   0  0  0  0  0  0  0  0  0  0  0  0
   30.3865  -18.4965  -19.6626 C   0  0  0  0  0  0  0  0  0  0  0  0
   25.1996  -19.7609  -15.9189 O   0  0  0  0  0  0  0  0  0  0  0  0
   24.7532  -20.9354  -16.1244 N   0  0  0  0  0  0  0  0  0  0  0  0
   24.5171  -18.7252  -16.5810 C   0  0  1  0  0  0  0  0  0  0  0  0
   23.3132  -18.9605  -17.4158 C   0  0  0  0  0  0  0  0  0  0  0  0
   22.4278  -17.7253  -17.2989 C   0  0  0  0  0  0  0  0  0  0  0  0
   21.2105  -17.7869  -18.1568 C   0  0  0  0  0  0  0  0  0  0  0  0
   20.3792  -16.5186  -18.1086 C   0  0  0  0  0  0  0  0  0  0  0  0
   19.1430  -16.7222  -18.9416 N   0  0  0  0  0  0  0  0  0  0  0  0
   18.3024  -15.5382  -18.8575 C   0  0  0  0  0  0  0  0  0  0  0  0
   23.6720  -19.1983  -18.7989 O   0  0  0  0  0  0  0  0  0  0  0  0
   24.7028  -18.6492  -19.3440 O   0  0  0  0  0  0  0  0  0  0  0  0
  2  1  1  0
  2  4  1  0
  3  2  2  0
  4  5  1  0
  5  6  1  0
  6  7  1  0
  7  8  1  0
  8  9  1  6
 10  8  1  0
 11 10  2  0
 12 10  1  0
 13 19  1  0
 13 12  1  0
 13 14  1  6
 15 14  1  0
 16 15  1  0
 17 16  1  0
 18 17  1  0
 19 21  1  0
 20 19  2  0
 21 22  1  0
 22 28  1  0
 22 23  1  6
 23 24  1  0
 25 24  1  0
 26 25  1  0
 26 27  1  0
 28 29  2  0
 28 30  1  0
M  END
$$$$
