RKK.pdb
     RDKit          3D

 30 29  0  0  1  0  0  0  0  0999 V2000
   16.1238  -23.8831  -11.0603 N   0  0  0  0  0  0  0  0  0  0  0  0
   17.4879  -23.6583  -10.7564 C   0  0  0  0  0  0  0  0  0  0  0  0
   18.1588  -24.3432   -9.8810 N   0  0  0  0  0  0  0  0  0  0  0  0
   18.1902  -22.6178  -11.4362 N   0  0  0  0  0  0  0  0  0  0  0  0
   19.1445  -22.9288  -12.5019 C   0  0  0  0  0  0  0  0  0  0  0  0
   20.4846  -22.3663  -12.1622 C   0  0  0  0  0  0  0  0  0  0  0  0
   20.7452  -20.9867  -12.7085 C   0  0  0  0  0  0  0  0  0  0  0  0
   21.0118  -21.1047  -14.1969 C   0  0  2  0  0  0  0  0  0  0  0  0
   21.7832  -22.3235  -14.4302 N   0  0  0  0  0  0  0  0  0  0  0  0
   21.7791  -19.9715  -14.7232 C   0  0  0  0  0  0  0  0  0  0  0  0
   21.3694  -18.8139  -14.4847 O   0  0  0  0  0  0  0  0  0  0  0  0
   19.1913  -24.1214   -9.7526 N   0  0  0  0  0  0  0  0  0  0  0  0
   22.9652  -20.1042  -15.4890 C   0  0  1  0  0  0  0  0  0  0  0  0
   23.6702  -18.9193  -15.9870 C   0  0  0  0  0  0  0  0  0  0  0  0
   25.0542  -19.3789  -16.4929 C   0  0  0  0  0  0  0  0  0  0  0  0
   25.9408  -18.2692  -16.9191 C   0  0  0  0  0  0  0  0  0  0  0  0
   27.2866  -18.6821  -17.4360 C   0  0  0  0  0  0  0  0  0  0  0  0
   28.0181  -17.4051  -17.8491 N   0  0  0  0  0  0  0  0  0  0  0  0
   29.3515  -17.7424  -18.3142 C   0  0  0  0  0  0  0  0  0  0  0  0
   23.0113  -18.2845  -17.1201 O   0  0  0  0  0  0  0  0  0  0  0  0
   22.5317  -19.0443  -18.0222 N   0  0  0  0  0  0  0  0  0  0  0  0
   22.8365  -16.9052  -17.3288 C   0  0  1  0  0  0  0  0  0  0  0  0
   22.1393  -16.3537  -18.5169 C   0  0  0  0  0  0  0  0  0  0  0  0
   21.1058  -15.3517  -18.0157 C   0  0  0  0  0  0  0  0  0  0  0  0
   20.3111  -14.7245  -19.1097 C   0  0  0  0  0  0  0  0  0  0  0  0
   19.3744  -13.6357  -18.6208 C   0  0  0  0  0  0  0  0  0  0  0  0
   18.6421  -13.0645  -19.8044 N   0  0  0  0  0  0  0  0  0  0  0  0
   17.9386  -11.8568  -19.4015 C   0  0  0  0  0  0  0  0  0  0  0  0
   23.0712  -15.7117  -19.4211 O   0  0  0  0  0  0  0  0  0  0  0  0
   23.9635  -14.8784  -19.0083 O   0  0  0  0  0  0  0  0  0  0  0  0
  2  1  1  0
  2  4  1  0
  3  2  2  0
  4  5  1  0
  5  6  1  0
  6  7  1  0
  7  8  1  0
  8  9  1  1
 10  8  1  0
 11 10  2  0
 12 10  1  0
 13 19  1  0
 13 12  1  0
 13 14  1  1
 15 14  1  0
 16 15  1  0
 17 16  1  0
 18 17  1  0
 19 21  1  0
 20 19  2  0
 21 22  1  0
 22 28  1  0
 22 23  1  6
 23 24  1  0
 25 24  1  0
 26 25  1  0
 26 27  1  0
 28 29  2  0
 28 30  1  0
M  END
$$$$
