RKK.pdb
     RDKit          3D

 30 29  0  0  1  0  0  0  0  0999 V2000
   25.2403  -31.0261   -7.2420 N   0  0  0  0  0  0  0  0  0  0  0  0
   24.9894  -32.0710   -8.1634 C   0  0  0  0  0  0  0  0  0  0  0  0
   23.8309  -32.3003   -8.7028 N   0  0  0  0  0  0  0  0  0  0  0  0
   26.0570  -32.9428   -8.5349 N   0  0  0  0  0  0  0  0  0  0  0  0
   27.3939  -32.7785   -7.9614 C   0  0  0  0  0  0  0  0  0  0  0  0
   27.5708  -33.7143   -6.8122 C   0  0  0  0  0  0  0  0  0  0  0  0
   28.8398  -33.5127   -6.0257 C   0  0  0  0  0  0  0  0  0  0  0  0
   29.9498  -34.2953   -6.7008 C   0  0  2  0  0  0  0  0  0  0  0  0
   29.3572  -35.1202   -7.7510 N   0  0  0  0  0  0  0  0  0  0  0  0
   30.6604  -35.1800   -5.7722 C   0  0  0  0  0  0  0  0  0  0  0  0
   30.2091  -36.3314   -5.5847 O   0  0  0  0  0  0  0  0  0  0  0  0
   23.7603  -33.0682   -9.4356 N   0  0  0  0  0  0  0  0  0  0  0  0
   31.8360  -34.8123   -5.0694 C   0  0  2  0  0  0  0  0  0  0  0  0
   32.5031  -35.7658   -4.1778 C   0  0  0  0  0  0  0  0  0  0  0  0
   33.8753  -35.1685   -3.7997 C   0  0  0  0  0  0  0  0  0  0  0  0
   34.7296  -36.0774   -2.9978 C   0  0  0  0  0  0  0  0  0  0  0  0
   36.0945  -35.5523   -2.6655 C   0  0  0  0  0  0  0  0  0  0  0  0
   36.8011  -36.6311   -1.8448 N   0  0  0  0  0  0  0  0  0  0  0  0
   38.1533  -36.1979   -1.5418 C   0  0  0  0  0  0  0  0  0  0  0  0
   31.7935  -35.9842   -2.9249 O   0  0  0  0  0  0  0  0  0  0  0  0
   31.1108  -35.0155   -2.4596 N   0  0  0  0  0  0  0  0  0  0  0  0
   31.7719  -37.1660   -2.1636 C   0  0  1  0  0  0  0  0  0  0  0  0
   31.0267  -37.2862   -0.8862 C   0  0  0  0  0  0  0  0  0  0  0  0
   30.9642  -38.7673   -0.5315 C   0  0  0  0  0  0  0  0  0  0  0  0
   30.1960  -39.0449    0.7153 C   0  0  0  0  0  0  0  0  0  0  0  0
   30.0244  -40.5262    0.9955 C   0  0  0  0  0  0  0  0  0  0  0  0
   29.1485  -40.6876    2.2081 N   0  0  0  0  0  0  0  0  0  0  0  0
   28.9360  -42.1031    2.4666 C   0  0  0  0  0  0  0  0  0  0  0  0
   31.6745  -36.5382    0.1716 O   0  0  0  0  0  0  0  0  0  0  0  0
   31.0079  -35.8350    1.0215 O   0  0  0  0  0  0  0  0  0  0  0  0
  2  1  1  0
  2  4  1  0
  3  2  2  0
  4  5  1  0
  5  6  1  0
  6  7  1  0
  7  8  1  0
  8  9  1  6
 10  8  1  0
 11 10  2  0
 12 10  1  0
 13 19  1  0
 13 12  1  0
 13 14  1  1
 15 14  1  0
 16 15  1  0
 17 16  1  0
 18 17  1  0
 19 21  1  0
 20 19  2  0
 21 22  1  0
 22 28  1  0
 22 23  1  1
 23 24  1  0
 25 24  1  0
 26 25  1  0
 26 27  1  0
 28 29  2  0
 28 30  1  0
M  END
$$$$
