RKK.pdb
     RDKit          3D

 30 29  0  0  1  0  0  0  0  0999 V2000
   43.8236  -19.5376   -8.7844 N   0  0  0  0  0  0  0  0  0  0  0  0
   43.8096  -18.7028   -9.9276 C   0  0  0  0  0  0  0  0  0  0  0  0
   42.8919  -18.7439  -10.8450 N   0  0  0  0  0  0  0  0  0  0  0  0
   44.8598  -17.7529  -10.1087 N   0  0  0  0  0  0  0  0  0  0  0  0
   45.9842  -17.6903   -9.1734 C   0  0  0  0  0  0  0  0  0  0  0  0
   45.7573  -16.5994   -8.1804 C   0  0  0  0  0  0  0  0  0  0  0  0
   45.4597  -15.2511   -8.7831 C   0  0  0  0  0  0  0  0  0  0  0  0
   45.2587  -14.2574   -7.6552 C   0  0  2  0  0  0  0  0  0  0  0  0
   44.0894  -14.6700   -6.8823 N   0  0  0  0  0  0  0  0  0  0  0  0
   45.0263  -12.8936   -8.1409 C   0  0  0  0  0  0  0  0  0  0  0  0
   46.0144  -12.2090   -8.4866 O   0  0  0  0  0  0  0  0  0  0  0  0
   42.9278  -18.0215  -11.6252 N   0  0  0  0  0  0  0  0  0  0  0  0
   43.7440  -12.2972   -8.2466 C   0  0  1  0  0  0  0  0  0  0  0  0
   43.5790  -10.9871   -8.8835 C   0  0  0  0  0  0  0  0  0  0  0  0
   42.3426  -11.0690   -9.8039 C   0  0  0  0  0  0  0  0  0  0  0  0
   42.6190  -11.6596  -11.1358 C   0  0  0  0  0  0  0  0  0  0  0  0
   41.4201  -11.8541  -12.0156 C   0  0  0  0  0  0  0  0  0  0  0  0
   41.9267  -12.4144  -13.3444 N   0  0  0  0  0  0  0  0  0  0  0  0
   40.7996  -12.6525  -14.2282 C   0  0  0  0  0  0  0  0  0  0  0  0
   43.3143   -9.9108   -7.9387 O   0  0  0  0  0  0  0  0  0  0  0  0
   42.7559  -10.2200   -6.8371 N   0  0  0  0  0  0  0  0  0  0  0  0
   43.6179   -8.5484   -8.1068 C   0  0  1  0  0  0  0  0  0  0  0  0
   43.7231   -7.6017   -6.9691 C   0  0  0  0  0  0  0  0  0  0  0  0
   44.6771   -8.2155   -5.9510 C   0  0  0  0  0  0  0  0  0  0  0  0
   44.9905   -7.3072   -4.8115 C   0  0  0  0  0  0  0  0  0  0  0  0
   45.8261   -7.9681   -3.7312 C   0  0  0  0  0  0  0  0  0  0  0  0
   46.0462   -6.9775   -2.6205 N   0  0  0  0  0  0  0  0  0  0  0  0
   46.7855   -7.6156   -1.5425 C   0  0  0  0  0  0  0  0  0  0  0  0
   44.2101   -6.3091   -7.4053 O   0  0  0  0  0  0  0  0  0  0  0  0
   43.8231   -5.2095   -6.8558 O   0  0  0  0  0  0  0  0  0  0  0  0
  2  1  1  0
  2  4  1  0
  3  2  2  0
  4  5  1  0
  5  6  1  0
  6  7  1  0
  7  8  1  0
  8  9  1  6
 10  8  1  0
 11 10  2  0
 12 10  1  0
 13 19  1  0
 13 12  1  0
 13 14  1  6
 15 14  1  0
 16 15  1  0
 17 16  1  0
 18 17  1  0
 19 21  1  0
 20 19  2  0
 21 22  1  0
 22 28  1  0
 22 23  1  1
 23 24  1  0
 25 24  1  0
 26 25  1  0
 26 27  1  0
 28 29  2  0
 28 30  1  0
M  END
$$$$
