RKK.pdb
     RDKit          3D

 30 29  0  0  1  0  0  0  0  0999 V2000
   20.7644  -23.3962   -8.4452 N   0  0  0  0  0  0  0  0  0  0  0  0
   19.8302  -23.3188   -9.5060 C   0  0  0  0  0  0  0  0  0  0  0  0
   18.5823  -23.6610   -9.4004 N   0  0  0  0  0  0  0  0  0  0  0  0
   20.2624  -22.8436  -10.7808 N   0  0  0  0  0  0  0  0  0  0  0  0
   21.6090  -22.2985  -10.9612 C   0  0  0  0  0  0  0  0  0  0  0  0
   21.7448  -21.0212  -10.2012 C   0  0  0  0  0  0  0  0  0  0  0  0
   23.0532  -20.3029  -10.4056 C   0  0  0  0  0  0  0  0  0  0  0  0
   23.9929  -21.2262  -11.1569 C   0  0  2  0  0  0  0  0  0  0  0  0
   25.2410  -21.3234  -10.4037 N   0  0  0  0  0  0  0  0  0  0  0  0
   24.3089  -20.7352  -12.5019 C   0  0  0  0  0  0  0  0  0  0  0  0
   24.9132  -19.6454  -12.6105 O   0  0  0  0  0  0  0  0  0  0  0  0
   17.9734  -23.6182  -10.2717 N   0  0  0  0  0  0  0  0  0  0  0  0
   23.9729  -21.4223  -13.6961 C   0  0  2  0  0  0  0  0  0  0  0  0
   24.3536  -20.8793  -15.0036 C   0  0  0  0  0  0  0  0  0  0  0  0
   24.9217  -22.0428  -15.8438 C   0  0  0  0  0  0  0  0  0  0  0  0
   26.3892  -22.2169  -15.7202 C   0  0  0  0  0  0  0  0  0  0  0  0
   26.9717  -23.3529  -16.5073 C   0  0  0  0  0  0  0  0  0  0  0  0
   28.4672  -23.3936  -16.1940 N   0  0  0  0  0  0  0  0  0  0  0  0
   29.0412  -24.6101  -16.7403 C   0  0  0  0  0  0  0  0  0  0  0  0
   23.2307  -20.3405  -15.7584 O   0  0  0  0  0  0  0  0  0  0  0  0
   22.1111  -20.9376  -15.6530 N   0  0  0  0  0  0  0  0  0  0  0  0
   23.2432  -19.2129  -16.5981 C   0  0  1  0  0  0  0  0  0  0  0  0
   22.0301  -18.7125  -17.2907 C   0  0  0  0  0  0  0  0  0  0  0  0
   22.4014  -17.4002  -17.9713 C   0  0  0  0  0  0  0  0  0  0  0  0
   21.2451  -16.7269  -18.6283 C   0  0  0  0  0  0  0  0  0  0  0  0
   21.6058  -15.3927  -19.2541 C   0  0  0  0  0  0  0  0  0  0  0  0
   20.3517  -14.7599  -19.7928 N   0  0  0  0  0  0  0  0  0  0  0  0
   20.6547  -13.4230  -20.2792 C   0  0  0  0  0  0  0  0  0  0  0  0
   21.5492  -19.6708  -18.2646 O   0  0  0  0  0  0  0  0  0  0  0  0
   22.3437  -20.4685  -18.8918 O   0  0  0  0  0  0  0  0  0  0  0  0
  2  1  1  0
  2  4  1  0
  3  2  2  0
  4  5  1  0
  5  6  1  0
  6  7  1  0
  7  8  1  0
  8  9  1  1
 10  8  1  0
 11 10  2  0
 12 10  1  0
 13 19  1  0
 13 12  1  0
 13 14  1  1
 15 14  1  0
 16 15  1  0
 17 16  1  0
 18 17  1  0
 19 21  1  0
 20 19  2  0
 21 22  1  0
 22 28  1  0
 22 23  1  6
 23 24  1  0
 25 24  1  0
 26 25  1  0
 26 27  1  0
 28 29  2  0
 28 30  1  0
M  END
$$$$
