RKK.pdb
     RDKit          3D

 30 29  0  0  1  0  0  0  0  0999 V2000
   31.1596  -21.0780   -9.8335 N   0  0  0  0  0  0  0  0  0  0  0  0
   31.2997  -21.8394  -11.0186 C   0  0  0  0  0  0  0  0  0  0  0  0
   32.2353  -22.7188  -11.2098 N   0  0  0  0  0  0  0  0  0  0  0  0
   30.3715  -21.6436  -12.0854 N   0  0  0  0  0  0  0  0  0  0  0  0
   29.2412  -20.7251  -11.9374 C   0  0  0  0  0  0  0  0  0  0  0  0
   28.0264  -21.3091  -12.5784 C   0  0  0  0  0  0  0  0  0  0  0  0
   26.8783  -21.5638  -11.6368 C   0  0  0  0  0  0  0  0  0  0  0  0
   25.7218  -22.1326  -12.4362 C   0  0  2  0  0  0  0  0  0  0  0  0
   26.1651  -22.3201  -13.8157 N   0  0  0  0  0  0  0  0  0  0  0  0
   24.5551  -21.2447  -12.4487 C   0  0  0  0  0  0  0  0  0  0  0  0
   24.0954  -20.8513  -11.3539 O   0  0  0  0  0  0  0  0  0  0  0  0
   32.2380  -23.2594  -12.1261 N   0  0  0  0  0  0  0  0  0  0  0  0
   23.9109  -20.7983  -13.6305 C   0  0  1  0  0  0  0  0  0  0  0  0
   22.6407  -20.0698  -13.5602 C   0  0  0  0  0  0  0  0  0  0  0  0
   22.4656  -19.3090  -14.8918 C   0  0  0  0  0  0  0  0  0  0  0  0
   21.2713  -18.4309  -14.9334 C   0  0  0  0  0  0  0  0  0  0  0  0
   21.0840  -17.6581  -16.2050 C   0  0  0  0  0  0  0  0  0  0  0  0
   19.8248  -16.8092  -16.0310 N   0  0  0  0  0  0  0  0  0  0  0  0
   19.6330  -15.9841  -17.2101 C   0  0  0  0  0  0  0  0  0  0  0  0
   21.4790  -20.9384  -13.4302 O   0  0  0  0  0  0  0  0  0  0  0  0
   21.3642  -21.8949  -14.2627 N   0  0  0  0  0  0  0  0  0  0  0  0
   20.4578  -20.8416  -12.4686 C   0  0  1  0  0  0  0  0  0  0  0  0
   19.3907  -21.8623  -12.3234 C   0  0  0  0  0  0  0  0  0  0  0  0
   19.4055  -22.3355  -10.8745 C   0  0  0  0  0  0  0  0  0  0  0  0
   18.3669  -23.3625  -10.5772 C   0  0  0  0  0  0  0  0  0  0  0  0
   18.4457  -23.9011   -9.1610 C   0  0  0  0  0  0  0  0  0  0  0  0
   17.3303  -24.8906   -8.9604 N   0  0  0  0  0  0  0  0  0  0  0  0
   17.3739  -25.3995   -7.5985 C   0  0  0  0  0  0  0  0  0  0  0  0
   18.0931  -21.3172  -12.6657 O   0  0  0  0  0  0  0  0  0  0  0  0
   17.7892  -20.0833  -12.4504 O   0  0  0  0  0  0  0  0  0  0  0  0
  2  1  1  0
  2  4  1  0
  3  2  2  0
  4  5  1  0
  5  6  1  0
  6  7  1  0
  7  8  1  0
  8  9  1  6
 10  8  1  0
 11 10  2  0
 12 10  1  0
 13 19  1  0
 13 12  1  0
 13 14  1  1
 15 14  1  0
 16 15  1  0
 17 16  1  0
 18 17  1  0
 19 21  1  0
 20 19  2  0
 21 22  1  0
 22 28  1  0
 22 23  1  6
 23 24  1  0
 25 24  1  0
 26 25  1  0
 26 27  1  0
 28 29  2  0
 28 30  1  0
M  END
$$$$
