RKK.pdb
     RDKit          3D

 30 29  0  0  1  0  0  0  0  0999 V2000
   29.2321  -20.9360  -19.9854 N   0  0  0  0  0  0  0  0  0  0  0  0
   29.5242  -19.5528  -20.0574 C   0  0  0  0  0  0  0  0  0  0  0  0
   30.4677  -19.0476  -20.7923 N   0  0  0  0  0  0  0  0  0  0  0  0
   28.7523  -18.6370  -19.2806 N   0  0  0  0  0  0  0  0  0  0  0  0
   27.7620  -19.1199  -18.3166 C   0  0  0  0  0  0  0  0  0  0  0  0
   28.1480  -20.4772  -17.8303 C   0  0  0  0  0  0  0  0  0  0  0  0
   27.1360  -21.1341  -16.9281 C   0  0  0  0  0  0  0  0  0  0  0  0
   26.8237  -20.1835  -15.7884 C   0  0  2  0  0  0  0  0  0  0  0  0
   28.0800  -19.8158  -15.1394 N   0  0  0  0  0  0  0  0  0  0  0  0
   25.9471  -20.7843  -14.7781 C   0  0  0  0  0  0  0  0  0  0  0  0
   24.9637  -21.4529  -15.1659 O   0  0  0  0  0  0  0  0  0  0  0  0
   30.6252  -17.9961  -20.7561 N   0  0  0  0  0  0  0  0  0  0  0  0
   26.1451  -20.6568  -13.3797 C   0  0  2  0  0  0  0  0  0  0  0  0
   25.1164  -21.1027  -12.4352 C   0  0  0  0  0  0  0  0  0  0  0  0
   25.5890  -20.7197  -11.0165 C   0  0  0  0  0  0  0  0  0  0  0  0
   24.6591  -21.1331   -9.9379 C   0  0  0  0  0  0  0  0  0  0  0  0
   25.1146  -20.8267   -8.5422 C   0  0  0  0  0  0  0  0  0  0  0  0
   24.0362  -21.3515   -7.5945 N   0  0  0  0  0  0  0  0  0  0  0  0
   24.4051  -21.0405   -6.2251 C   0  0  0  0  0  0  0  0  0  0  0  0
   23.8289  -20.4495  -12.6271 O   0  0  0  0  0  0  0  0  0  0  0  0
   23.8140  -19.1767  -12.6553 N   0  0  0  0  0  0  0  0  0  0  0  0
   22.5821  -21.0774  -12.7945 C   0  0  1  0  0  0  0  0  0  0  0  0
   21.3117  -20.3213  -12.9219 C   0  0  0  0  0  0  0  0  0  0  0  0
   21.0581  -20.1018  -14.4088 C   0  0  0  0  0  0  0  0  0  0  0  0
   19.7714  -19.4050  -14.6927 C   0  0  0  0  0  0  0  0  0  0  0  0
   19.5354  -19.1626  -16.1717 C   0  0  0  0  0  0  0  0  0  0  0  0
   18.2451  -18.4063  -16.3348 N   0  0  0  0  0  0  0  0  0  0  0  0
   18.0037  -18.1602  -17.7479 C   0  0  0  0  0  0  0  0  0  0  0  0
   20.2092  -21.0429  -12.3204 O   0  0  0  0  0  0  0  0  0  0  0  0
   20.1844  -22.3300  -12.2586 O   0  0  0  0  0  0  0  0  0  0  0  0
  2  1  1  0
  2  4  1  0
  3  2  2  0
  4  5  1  0
  5  6  1  0
  6  7  1  0
  7  8  1  0
  8  9  1  1
 10  8  1  0
 11 10  2  0
 12 10  1  0
 13 19  1  0
 13 12  1  0
 13 14  1  1
 15 14  1  0
 16 15  1  0
 17 16  1  0
 18 17  1  0
 19 21  1  0
 20 19  2  0
 21 22  1  0
 22 28  1  0
 22 23  1  1
 23 24  1  0
 25 24  1  0
 26 25  1  0
 26 27  1  0
 28 29  2  0
 28 30  1  0
M  END
$$$$
