FLY.pdb
     RDKit          3D

 32 33  0  0  1  0  0  0  0  0999 V2000
   25.0634  -34.1137  -15.4720 N   0  0  0  0  0  0  0  0  0  0  0  0
   26.1691  -34.2215  -14.5338 C   0  0  1  0  0  0  0  0  0  0  0  0
   26.6001  -32.8514  -14.0560 C   0  0  0  0  0  0  0  0  0  0  0  0
   27.3433  -32.2305  -15.2093 C   0  0  0  0  0  0  0  0  0  0  0  0
   28.5936  -32.7116  -15.5546 C   0  0  0  0  0  0  0  0  0  0  0  0
   29.3043  -32.1725  -16.6030 C   0  0  0  0  0  0  0  0  0  0  0  0
   28.7798  -31.1314  -17.3384 C   0  0  0  0  0  0  0  0  0  0  0  0
   27.5253  -30.6620  -16.9779 C   0  0  0  0  0  0  0  0  0  0  0  0
   26.8067  -31.2046  -15.9204 C   0  0  0  0  0  0  0  0  0  0  0  0
   25.6934  -35.0521  -13.3764 C   0  0  0  0  0  0  0  0  0  0  0  0
   24.5230  -34.9056  -12.9005 O   0  0  0  0  0  0  0  0  0  0  0  0
   24.1071  -39.1808  -12.2814 C   0  0  0  0  0  0  0  0  0  0  0  0
   25.5508  -39.0439  -12.6143 C   0  0  2  0  0  0  0  0  0  0  0  0
   26.1655  -40.4673  -12.5948 C   0  0  0  0  0  0  0  0  0  0  0  0
   26.4145  -38.1847  -11.8099 C   0  0  0  0  0  0  0  0  0  0  0  0
   26.1444  -36.7488  -11.5843 C   0  0  2  0  0  0  0  0  0  0  0  0
   26.5761  -36.0087  -12.8189 N   0  0  0  0  0  0  0  0  0  0  0  0
   26.9310  -36.1831  -10.4755 C   0  0  0  0  0  0  0  0  0  0  0  0
   28.1179  -35.8225  -10.6221 O   0  0  0  0  0  0  0  0  0  0  0  0
   22.8196  -30.6703   -8.7852 O   0  0  0  0  0  0  0  0  0  0  0  0
   23.9522  -31.4640   -8.6941 C   0  0  0  0  0  0  0  0  0  0  0  0
   24.9238  -31.4004   -9.6829 C   0  0  0  0  0  0  0  0  0  0  0  0
   26.0475  -32.1834   -9.5991 C   0  0  0  0  0  0  0  0  0  0  0  0
   26.2754  -33.0585   -8.5560 C   0  0  0  0  0  0  0  0  0  0  0  0
   27.4733  -33.9145   -8.4746 C   0  0  0  0  0  0  0  0  0  0  0  0
   27.1137  -35.3070   -8.0981 C   0  0  2  0  0  0  0  0  0  0  0  0
   26.4067  -36.0030   -9.1599 N   0  0  0  0  0  0  0  0  0  0  0  0
   26.3608  -35.4752   -6.8575 C   0  0  0  0  0  0  0  0  0  0  0  0
   26.9087  -35.3001   -5.7411 O   0  0  0  0  0  0  0  0  0  0  0  0
   25.2935  -33.1061   -7.5806 C   0  0  0  0  0  0  0  0  0  0  0  0
   24.1603  -32.3264   -7.6509 C   0  0  0  0  0  0  0  0  0  0  0  0
   25.0381  -35.8265   -6.8757 O   0  0  0  0  0  0  0  0  0  0  0  0
  2  3  1  0
  2  1  1  6
  4  5  2  0
  4  3  1  0
  6  5  1  0
  7  6  2  0
  8  7  1  0
  8  9  2  0
  9  4  1  0
 10  2  1  0
 11 10  2  0
 13 12  1  1
 14 13  1  0
 15 13  1  0
 16 15  1  6
 16 17  1  0
 17 10  1  0
 18 16  1  0
 18 19  2  0
 20 21  1  0
 21 31  2  0
 22 21  1  0
 22 23  2  0
 23 24  1  0
 24 30  2  0
 24 25  1  0
 26 25  1  6
 26 27  1  0
 27 18  1  0
 28 26  1  0
 29 28  2  0
 31 30  1  0
 32 28  1  0
M  END
$$$$
