FLY.pdb
     RDKit          3D

 32 33  0  0  1  0  0  0  0  0999 V2000
   20.5329  -12.6390  -17.0683 N   0  0  0  0  0  0  0  0  0  0  0  0
   21.3121  -11.7377  -17.9019 C   0  0  1  0  0  0  0  0  0  0  0  0
   20.4033  -10.8806  -18.7567 C   0  0  0  0  0  0  0  0  0  0  0  0
   19.7830  -11.8162  -19.7606 C   0  0  0  0  0  0  0  0  0  0  0  0
   18.4671  -12.2127  -19.6027 C   0  0  0  0  0  0  0  0  0  0  0  0
   17.8631  -13.0651  -20.4991 C   0  0  0  0  0  0  0  0  0  0  0  0
   18.5640  -13.5465  -21.5839 C   0  0  0  0  0  0  0  0  0  0  0  0
   19.8820  -13.1384  -21.7262 C   0  0  0  0  0  0  0  0  0  0  0  0
   20.4931  -12.2784  -20.8228 C   0  0  0  0  0  0  0  0  0  0  0  0
   22.1307  -10.8757  -16.9839 C   0  0  0  0  0  0  0  0  0  0  0  0
   21.6632  -10.4723  -15.8719 O   0  0  0  0  0  0  0  0  0  0  0  0
   28.0975  -10.4745  -16.4469 C   0  0  0  0  0  0  0  0  0  0  0  0
   26.7069  -10.2755  -15.9566 C   0  0  2  0  0  0  0  0  0  0  0  0
   26.2187  -11.6339  -15.3902 C   0  0  0  0  0  0  0  0  0  0  0  0
   25.6709   -9.7814  -16.8588 C   0  0  0  0  0  0  0  0  0  0  0  0
   24.2528   -9.6426  -16.4643 C   0  0  2  0  0  0  0  0  0  0  0  0
   23.4420  -10.5166  -17.3794 N   0  0  0  0  0  0  0  0  0  0  0  0
   23.7368   -8.2754  -16.6456 C   0  0  0  0  0  0  0  0  0  0  0  0
   23.6176   -7.7571  -17.7758 O   0  0  0  0  0  0  0  0  0  0  0  0
   19.4349   -0.9098  -17.2234 O   0  0  0  0  0  0  0  0  0  0  0  0
   19.9730   -2.1811  -17.1003 C   0  0  0  0  0  0  0  0  0  0  0  0
   19.2683   -3.1690  -16.4271 C   0  0  0  0  0  0  0  0  0  0  0  0
   19.7949   -4.4299  -16.3013 C   0  0  0  0  0  0  0  0  0  0  0  0
   21.0234   -4.7845  -16.8216 C   0  0  0  0  0  0  0  0  0  0  0  0
   21.5991   -6.1336  -16.6706 C   0  0  0  0  0  0  0  0  0  0  0  0
   22.7461   -6.1252  -15.7249 C   0  0  2  0  0  0  0  0  0  0  0  0
   23.3358   -7.4427  -15.5576 N   0  0  0  0  0  0  0  0  0  0  0  0
   22.4974   -5.5614  -14.4004 C   0  0  0  0  0  0  0  0  0  0  0  0
   22.7573   -4.3581  -14.1517 O   0  0  0  0  0  0  0  0  0  0  0  0
   21.7095   -3.7838  -17.4892 C   0  0  0  0  0  0  0  0  0  0  0  0
   21.1939   -2.5136  -17.6236 C   0  0  0  0  0  0  0  0  0  0  0  0
   21.9733   -6.3265  -13.3937 O   0  0  0  0  0  0  0  0  0  0  0  0
  2  3  1  0
  2  1  1  1
  4  5  2  0
  4  3  1  0
  6  5  1  0
  7  6  2  0
  8  7  1  0
  8  9  2  0
  9  4  1  0
 10  2  1  0
 11 10  2  0
 13 12  1  6
 14 13  1  0
 15 13  1  0
 16 15  1  6
 16 17  1  0
 17 10  1  0
 18 16  1  0
 18 19  2  0
 20 21  1  0
 21 31  2  0
 22 21  1  0
 22 23  2  0
 23 24  1  0
 24 30  2  0
 24 25  1  0
 26 25  1  1
 26 27  1  0
 27 18  1  0
 28 26  1  0
 29 28  2  0
 31 30  1  0
 32 28  1  0
M  END
$$$$
