FLY.pdb
     RDKit          3D

 32 33  0  0  1  0  0  0  0  0999 V2000
   25.0380  -20.9847  -17.3011 N   0  0  0  0  0  0  0  0  0  0  0  0
   24.4762  -19.9846  -16.4074 C   0  0  1  0  0  0  0  0  0  0  0  0
   23.3268  -19.2585  -17.0729 C   0  0  0  0  0  0  0  0  0  0  0  0
   23.9403  -18.4595  -18.1924 C   0  0  0  0  0  0  0  0  0  0  0  0
   23.5545  -18.7052  -19.4980 C   0  0  0  0  0  0  0  0  0  0  0  0
   24.0902  -17.9956  -20.5489 C   0  0  0  0  0  0  0  0  0  0  0  0
   25.0317  -17.0154  -20.3201 C   0  0  0  0  0  0  0  0  0  0  0  0
   25.4064  -16.7828  -19.0050 C   0  0  0  0  0  0  0  0  0  0  0  0
   24.8671  -17.4978  -17.9433 C   0  0  0  0  0  0  0  0  0  0  0  0
   23.9981  -20.7025  -15.1778 C   0  0  0  0  0  0  0  0  0  0  0  0
   23.4396  -21.8424  -15.2587 O   0  0  0  0  0  0  0  0  0  0  0  0
   25.7118  -20.4453   -9.3571 C   0  0  0  0  0  0  0  0  0  0  0  0
   25.0343  -21.0668  -10.5269 C   0  0  2  0  0  0  0  0  0  0  0  0
   26.0905  -21.9263  -11.2686 C   0  0  0  0  0  0  0  0  0  0  0  0
   24.3726  -20.2317  -11.5249 C   0  0  0  0  0  0  0  0  0  0  0  0
   23.6545  -20.7825  -12.6940 C   0  0  2  0  0  0  0  0  0  0  0  0
   24.1806  -20.0849  -13.9167 N   0  0  0  0  0  0  0  0  0  0  0  0
   22.2079  -20.5095  -12.6612 C   0  0  0  0  0  0  0  0  0  0  0  0
   21.7545  -19.3466  -12.6138 O   0  0  0  0  0  0  0  0  0  0  0  0
   19.4156  -23.8307  -18.5423 O   0  0  0  0  0  0  0  0  0  0  0  0
   19.4177  -23.0241  -17.4152 C   0  0  0  0  0  0  0  0  0  0  0  0
   18.4121  -23.1553  -16.4679 C   0  0  0  0  0  0  0  0  0  0  0  0
   18.4078  -22.3601  -15.3497 C   0  0  0  0  0  0  0  0  0  0  0  0
   19.3757  -21.4069  -15.1040 C   0  0  0  0  0  0  0  0  0  0  0  0
   19.3617  -20.5384  -13.9124 C   0  0  0  0  0  0  0  0  0  0  0  0
   19.7890  -21.2841  -12.6994 C   0  0  2  0  0  0  0  0  0  0  0  0
   21.2194  -21.5393  -12.6811 N   0  0  0  0  0  0  0  0  0  0  0  0
   19.0946  -22.5398  -12.4253 C   0  0  0  0  0  0  0  0  0  0  0  0
   19.7206  -23.6276  -12.3817 O   0  0  0  0  0  0  0  0  0  0  0  0
   20.3695  -21.2927  -16.0618 C   0  0  0  0  0  0  0  0  0  0  0  0
   20.3872  -22.0838  -17.1892 C   0  0  0  0  0  0  0  0  0  0  0  0
   17.7437  -22.5671  -12.2069 O   0  0  0  0  0  0  0  0  0  0  0  0
  2  3  1  0
  2  1  1  6
  4  5  2  0
  4  3  1  0
  6  5  1  0
  7  6  2  0
  8  7  1  0
  8  9  2  0
  9  4  1  0
 10  2  1  0
 11 10  2  0
 13 12  1  1
 14 13  1  0
 15 13  1  0
 16 15  1  1
 16 17  1  0
 17 10  1  0
 18 16  1  0
 18 19  2  0
 20 21  1  0
 21 31  2  0
 22 21  1  0
 22 23  2  0
 23 24  1  0
 24 30  2  0
 24 25  1  0
 26 25  1  6
 26 27  1  0
 27 18  1  0
 28 26  1  0
 29 28  2  0
 31 30  1  0
 32 28  1  0
M  END
$$$$
