FLY.pdb
     RDKit          3D

 32 33  0  0  1  0  0  0  0  0999 V2000
   27.1637  -25.5288  -15.7316 N   0  0  0  0  0  0  0  0  0  0  0  0
   27.4377  -24.5098  -16.7320 C   0  0  1  0  0  0  0  0  0  0  0  0
   28.3397  -25.0559  -17.8180 C   0  0  0  0  0  0  0  0  0  0  0  0
   29.7182  -25.1147  -17.2143 C   0  0  0  0  0  0  0  0  0  0  0  0
   30.5509  -24.0137  -17.3046 C   0  0  0  0  0  0  0  0  0  0  0  0
   31.8170  -24.0267  -16.7645 C   0  0  0  0  0  0  0  0  0  0  0  0
   32.2865  -25.1485  -16.1157 C   0  0  0  0  0  0  0  0  0  0  0  0
   31.4379  -26.2428  -16.0348 C   0  0  0  0  0  0  0  0  0  0  0  0
   30.1602  -26.2315  -16.5792 C   0  0  0  0  0  0  0  0  0  0  0  0
   26.1183  -24.0878  -17.3128 C   0  0  0  0  0  0  0  0  0  0  0  0
   26.0475  -23.1472  -18.1659 O   0  0  0  0  0  0  0  0  0  0  0  0
   22.8642  -25.6071  -20.3551 C   0  0  0  0  0  0  0  0  0  0  0  0
   23.0524  -26.2777  -19.0403 C   0  0  2  0  0  0  0  0  0  0  0  0
   22.0964  -27.4980  -19.0040 C   0  0  0  0  0  0  0  0  0  0  0  0
   22.8580  -25.5341  -17.7991 C   0  0  0  0  0  0  0  0  0  0  0  0
   23.6242  -24.3172  -17.4558 C   0  0  2  0  0  0  0  0  0  0  0  0
   24.9451  -24.7596  -16.8917 N   0  0  0  0  0  0  0  0  0  0  0  0
   22.9824  -23.5114  -16.4037 C   0  0  0  0  0  0  0  0  0  0  0  0
   22.7144  -23.9836  -15.2788 O   0  0  0  0  0  0  0  0  0  0  0  0
   20.5920  -17.4339  -20.3587 O   0  0  0  0  0  0  0  0  0  0  0  0
   21.0462  -18.0274  -19.1915 C   0  0  0  0  0  0  0  0  0  0  0  0
   22.2342  -18.7446  -19.1962 C   0  0  0  0  0  0  0  0  0  0  0  0
   22.6897  -19.3350  -18.0444 C   0  0  0  0  0  0  0  0  0  0  0  0
   22.0142  -19.2549  -16.8431 C   0  0  0  0  0  0  0  0  0  0  0  0
   22.4927  -19.9049  -15.6091 C   0  0  0  0  0  0  0  0  0  0  0  0
   22.0384  -21.3185  -15.5359 C   0  0  2  0  0  0  0  0  0  0  0  0
   22.6197  -22.1422  -16.5824 N   0  0  0  0  0  0  0  0  0  0  0  0
   20.5948  -21.5416  -15.5240 C   0  0  0  0  0  0  0  0  0  0  0  0
   19.8960  -21.1948  -14.5398 O   0  0  0  0  0  0  0  0  0  0  0  0
   20.8315  -18.5347  -16.8609 C   0  0  0  0  0  0  0  0  0  0  0  0
   20.3615  -17.9366  -18.0091 C   0  0  0  0  0  0  0  0  0  0  0  0
   19.9623  -22.1327  -16.5842 O   0  0  0  0  0  0  0  0  0  0  0  0
  2  3  1  0
  2  1  1  1
  4  5  2  0
  4  3  1  0
  6  5  1  0
  7  6  2  0
  8  7  1  0
  8  9  2  0
  9  4  1  0
 10  2  1  0
 11 10  2  0
 13 12  1  6
 14 13  1  0
 15 13  1  0
 16 15  1  1
 16 17  1  0
 17 10  1  0
 18 16  1  0
 18 19  2  0
 20 21  1  0
 21 31  2  0
 22 21  1  0
 22 23  2  0
 23 24  1  0
 24 30  2  0
 24 25  1  0
 26 25  1  6
 26 27  1  0
 27 18  1  0
 28 26  1  0
 29 28  2  0
 31 30  1  0
 32 28  1  0
M  END
$$$$
