FLY.pdb
     RDKit          3D

 32 33  0  0  1  0  0  0  0  0999 V2000
   21.3159  -18.0010  -19.4625 N   0  0  0  0  0  0  0  0  0  0  0  0
   21.5253  -17.4424  -18.1364 C   0  0  1  0  0  0  0  0  0  0  0  0
   20.4203  -17.8715  -17.1951 C   0  0  0  0  0  0  0  0  0  0  0  0
   19.1831  -17.1491  -17.6595 C   0  0  0  0  0  0  0  0  0  0  0  0
   18.0717  -17.8767  -18.0456 C   0  0  0  0  0  0  0  0  0  0  0  0
   16.9213  -17.2542  -18.4744 C   0  0  0  0  0  0  0  0  0  0  0  0
   16.8519  -15.8787  -18.5286 C   0  0  0  0  0  0  0  0  0  0  0  0
   17.9756  -15.1656  -18.1377 C   0  0  0  0  0  0  0  0  0  0  0  0
   19.1372  -15.7920  -17.7048 C   0  0  0  0  0  0  0  0  0  0  0  0
   22.8533  -17.9435  -17.6452 C   0  0  0  0  0  0  0  0  0  0  0  0
   23.3129  -19.0665  -18.0264 O   0  0  0  0  0  0  0  0  0  0  0  0
   27.5724  -16.2701  -17.5307 C   0  0  0  0  0  0  0  0  0  0  0  0
   26.5150  -15.6447  -16.6913 C   0  0  2  0  0  0  0  0  0  0  0  0
   27.1992  -14.5588  -15.8211 C   0  0  0  0  0  0  0  0  0  0  0  0
   25.6983  -16.4655  -15.8021 C   0  0  0  0  0  0  0  0  0  0  0  0
   24.9257  -17.6380  -16.2648 C   0  0  2  0  0  0  0  0  0  0  0  0
   23.5914  -17.1390  -16.7435 N   0  0  0  0  0  0  0  0  0  0  0  0
   24.6374  -18.5985  -15.1866 C   0  0  0  0  0  0  0  0  0  0  0  0
   25.5266  -19.3195  -14.6868 O   0  0  0  0  0  0  0  0  0  0  0  0
   21.5474  -22.5371   -8.0274 O   0  0  0  0  0  0  0  0  0  0  0  0
   21.9205  -21.6849   -9.0547 C   0  0  0  0  0  0  0  0  0  0  0  0
   23.2637  -21.4189   -9.2803 C   0  0  0  0  0  0  0  0  0  0  0  0
   23.6404  -20.5760  -10.2954 C   0  0  0  0  0  0  0  0  0  0  0  0
   22.7329  -19.9575  -11.1319 C   0  0  0  0  0  0  0  0  0  0  0  0
   23.1352  -19.0365  -12.2109 C   0  0  0  0  0  0  0  0  0  0  0  0
   23.0426  -19.6943  -13.5408 C   0  0  2  0  0  0  0  0  0  0  0  0
   23.3344  -18.7806  -14.6324 N   0  0  0  0  0  0  0  0  0  0  0  0
   21.7918  -20.3861  -13.8424 C   0  0  0  0  0  0  0  0  0  0  0  0
   20.9147  -19.8493  -14.5633 O   0  0  0  0  0  0  0  0  0  0  0  0
   21.3983  -20.2367  -10.8892 C   0  0  0  0  0  0  0  0  0  0  0  0
   21.0049  -21.0805   -9.8742 C   0  0  0  0  0  0  0  0  0  0  0  0
   21.5404  -21.6383  -13.3502 O   0  0  0  0  0  0  0  0  0  0  0  0
  2  3  1  0
  2  1  1  6
  4  5  2  0
  4  3  1  0
  6  5  1  0
  7  6  2  0
  8  7  1  0
  8  9  2  0
  9  4  1  0
 10  2  1  0
 11 10  2  0
 13 12  1  1
 14 13  1  0
 15 13  1  0
 16 15  1  1
 16 17  1  0
 17 10  1  0
 18 16  1  0
 18 19  2  0
 20 21  1  0
 21 31  2  0
 22 21  1  0
 22 23  2  0
 23 24  1  0
 24 30  2  0
 24 25  1  0
 26 25  1  1
 26 27  1  0
 27 18  1  0
 28 26  1  0
 29 28  2  0
 31 30  1  0
 32 28  1  0
M  END
$$$$
