FLY.pdb
     RDKit          3D

 32 33  0  0  1  0  0  0  0  0999 V2000
   20.9241  -20.3323  -17.7050 N   0  0  0  0  0  0  0  0  0  0  0  0
   21.4967  -19.2328  -16.9451 C   0  0  1  0  0  0  0  0  0  0  0  0
   20.7147  -19.0000  -15.6702 C   0  0  0  0  0  0  0  0  0  0  0  0
   19.3931  -18.4200  -16.1003 C   0  0  0  0  0  0  0  0  0  0  0  0
   19.3427  -17.1301  -16.5977 C   0  0  0  0  0  0  0  0  0  0  0  0
   18.1550  -16.5645  -17.0031 C   0  0  0  0  0  0  0  0  0  0  0  0
   16.9791  -17.2787  -16.9211 C   0  0  0  0  0  0  0  0  0  0  0  0
   17.0487  -18.5702  -16.4200 C   0  0  0  0  0  0  0  0  0  0  0  0
   18.2461  -19.1426  -16.0104 C   0  0  0  0  0  0  0  0  0  0  0  0
   22.9171  -19.6023  -16.6260 C   0  0  0  0  0  0  0  0  0  0  0  0
   23.2430  -20.8074  -16.3825 O   0  0  0  0  0  0  0  0  0  0  0  0
   28.4320  -16.6778  -17.0083 C   0  0  0  0  0  0  0  0  0  0  0  0
   27.6319  -17.8544  -16.5733 C   0  0  2  0  0  0  0  0  0  0  0  0
   28.2391  -19.1047  -17.2606 C   0  0  0  0  0  0  0  0  0  0  0  0
   26.1900  -17.8895  -16.7991 C   0  0  0  0  0  0  0  0  0  0  0  0
   25.3118  -18.9499  -16.2606 C   0  0  2  0  0  0  0  0  0  0  0  0
   23.8956  -18.5792  -16.6006 N   0  0  0  0  0  0  0  0  0  0  0  0
   25.3644  -19.0495  -14.7924 C   0  0  0  0  0  0  0  0  0  0  0  0
   25.0088  -18.1086  -14.0517 O   0  0  0  0  0  0  0  0  0  0  0  0
   25.1989  -20.3636   -6.3431 O   0  0  0  0  0  0  0  0  0  0  0  0
   25.0822  -20.2180   -7.7164 C   0  0  0  0  0  0  0  0  0  0  0  0
   24.1556  -20.9773   -8.4169 C   0  0  0  0  0  0  0  0  0  0  0  0
   24.0346  -20.8385   -9.7767 C   0  0  0  0  0  0  0  0  0  0  0  0
   24.8050  -19.9600  -10.5120 C   0  0  0  0  0  0  0  0  0  0  0  0
   24.6895  -19.8237  -11.9757 C   0  0  0  0  0  0  0  0  0  0  0  0
   25.9154  -20.3137  -12.6591 C   0  0  2  0  0  0  0  0  0  0  0  0
   25.8202  -20.2152  -14.1058 N   0  0  0  0  0  0  0  0  0  0  0  0
   26.3588  -21.6633  -12.3185 C   0  0  0  0  0  0  0  0  0  0  0  0
   27.1071  -21.8669  -11.3307 O   0  0  0  0  0  0  0  0  0  0  0  0
   25.7229  -19.2125   -9.7934 C   0  0  0  0  0  0  0  0  0  0  0  0
   25.8558  -19.3408   -8.4285 C   0  0  0  0  0  0  0  0  0  0  0  0
   25.9708  -22.7437  -13.0638 O   0  0  0  0  0  0  0  0  0  0  0  0
  2  3  1  0
  2  1  1  1
  4  5  2  0
  4  3  1  0
  6  5  1  0
  7  6  2  0
  8  7  1  0
  8  9  2  0
  9  4  1  0
 10  2  1  0
 11 10  2  0
 13 12  1  6
 14 13  1  0
 15 13  1  0
 16 15  1  1
 16 17  1  0
 17 10  1  0
 18 16  1  0
 18 19  2  0
 20 21  1  0
 21 31  2  0
 22 21  1  0
 22 23  2  0
 23 24  1  0
 24 30  2  0
 24 25  1  0
 26 25  1  1
 26 27  1  0
 27 18  1  0
 28 26  1  0
 29 28  2  0
 31 30  1  0
 32 28  1  0
M  END
$$$$
