FLY.pdb
     RDKit          3D

 32 33  0  0  1  0  0  0  0  0999 V2000
   27.9934  -29.0769  -18.2732 N   0  0  0  0  0  0  0  0  0  0  0  0
   26.6885  -29.7133  -18.1919 C   0  0  1  0  0  0  0  0  0  0  0  0
   26.6190  -30.6391  -16.9963 C   0  0  0  0  0  0  0  0  0  0  0  0
   27.5101  -31.8064  -17.3298 C   0  0  0  0  0  0  0  0  0  0  0  0
   27.0347  -32.8176  -18.1455 C   0  0  0  0  0  0  0  0  0  0  0  0
   27.8182  -33.9003  -18.4752 C   0  0  0  0  0  0  0  0  0  0  0  0
   29.1061  -34.0008  -17.9946 C   0  0  0  0  0  0  0  0  0  0  0  0
   29.5659  -32.9779  -17.1783 C   0  0  0  0  0  0  0  0  0  0  0  0
   28.7768  -31.8847  -16.8446 C   0  0  0  0  0  0  0  0  0  0  0  0
   25.6657  -28.6207  -18.0660 C   0  0  0  0  0  0  0  0  0  0  0  0
   26.0032  -27.4411  -17.7308 O   0  0  0  0  0  0  0  0  0  0  0  0
   23.2894  -25.9964  -20.9001 C   0  0  0  0  0  0  0  0  0  0  0  0
   22.8619  -27.4092  -20.7129 C   0  0  2  0  0  0  0  0  0  0  0  0
   21.7021  -27.6756  -21.7071 C   0  0  0  0  0  0  0  0  0  0  0  0
   22.4286  -27.8806  -19.4009 C   0  0  0  0  0  0  0  0  0  0  0  0
   23.2879  -27.8319  -18.1989 C   0  0  2  0  0  0  0  0  0  0  0  0
   24.3086  -28.9273  -18.3289 N   0  0  0  0  0  0  0  0  0  0  0  0
   22.5515  -28.1084  -16.9541 C   0  0  0  0  0  0  0  0  0  0  0  0
   22.2029  -29.2643  -16.6337 O   0  0  0  0  0  0  0  0  0  0  0  0
   18.6921  -27.3132   -9.0688 O   0  0  0  0  0  0  0  0  0  0  0  0
   19.5250  -27.1904  -10.1698 C   0  0  0  0  0  0  0  0  0  0  0  0
   19.4517  -26.0595  -10.9708 C   0  0  0  0  0  0  0  0  0  0  0  0
   20.2731  -25.9312  -12.0624 C   0  0  0  0  0  0  0  0  0  0  0  0
   21.1973  -26.8916  -12.4221 C   0  0  0  0  0  0  0  0  0  0  0  0
   22.0672  -26.7638  -13.6059 C   0  0  0  0  0  0  0  0  0  0  0  0
   21.4199  -27.3421  -14.8128 C   0  0  2  0  0  0  0  0  0  0  0  0
   22.1815  -27.0901  -16.0244 N   0  0  0  0  0  0  0  0  0  0  0  0
   20.0306  -26.9612  -15.0556 C   0  0  0  0  0  0  0  0  0  0  0  0
   19.0840  -27.6843  -14.6577 O   0  0  0  0  0  0  0  0  0  0  0  0
   21.2538  -28.0115  -11.6094 C   0  0  0  0  0  0  0  0  0  0  0  0
   20.4359  -28.1544  -10.5105 C   0  0  0  0  0  0  0  0  0  0  0  0
   19.7206  -25.8062  -15.7214 O   0  0  0  0  0  0  0  0  0  0  0  0
  2  3  1  0
  2  1  1  1
  4  5  2  0
  4  3  1  0
  6  5  1  0
  7  6  2  0
  8  7  1  0
  8  9  2  0
  9  4  1  0
 10  2  1  0
 11 10  2  0
 13 12  1  1
 14 13  1  0
 15 13  1  0
 16 15  1  6
 16 17  1  0
 17 10  1  0
 18 16  1  0
 18 19  2  0
 20 21  1  0
 21 31  2  0
 22 21  1  0
 22 23  2  0
 23 24  1  0
 24 30  2  0
 24 25  1  0
 26 25  1  1
 26 27  1  0
 27 18  1  0
 28 26  1  0
 29 28  2  0
 31 30  1  0
 32 28  1  0
M  END
$$$$
