DTH.pdb
     RDKit          3D

 26 26  0  0  1  0  0  0  0  0999 V2000
   11.8956  -14.5023   17.6900 N   0  0  0  0  0  0  0  0  0  0  0  0
   12.3316  -14.9281   18.9936 C   0  0  1  0  0  0  0  0  0  0  0  0
   13.6848  -14.2806   19.2574 C   0  0  0  0  0  0  0  0  0  0  0  0
   14.6955  -14.9051   18.3667 C   0  0  0  0  0  0  0  0  0  0  0  0
   14.4148  -15.8293   17.5647 O   0  0  0  0  0  0  0  0  0  0  0  0
   11.3677  -14.4920   20.0281 C   0  0  0  0  0  0  0  0  0  0  0  0
   11.0774  -13.2721   20.1310 O   0  0  0  0  0  0  0  0  0  0  0  0
   16.0138  -14.4750   18.3949 O   0  0  0  0  0  0  0  0  0  0  0  0
    7.8730  -15.1586   20.2323 C   0  0  0  0  0  0  0  0  0  0  0  0
    8.4150  -15.6811   21.5377 C   0  0  1  0  0  0  0  0  0  0  0  0
    8.6016  -17.0655   21.4949 O   0  0  0  0  0  0  0  0  0  0  0  0
    9.7436  -14.9801   21.8513 C   0  0  2  0  0  0  0  0  0  0  0  0
   10.7607  -15.4172   20.9096 N   0  0  0  0  0  0  0  0  0  0  0  0
   10.1055  -15.3501   23.2418 C   0  0  0  0  0  0  0  0  0  0  0  0
   11.0086  -16.1877   23.4271 O   0  0  0  0  0  0  0  0  0  0  0  0
    9.4719  -14.7956   24.3835 N   0  0  0  0  0  0  0  0  0  0  0  0
    9.7936  -15.1946   25.7394 C   0  0  1  0  0  0  0  0  0  0  0  0
    9.0303  -14.3830   26.7609 C   0  0  0  0  0  0  0  0  0  0  0  0
    9.3752  -14.7980   28.1531 C   0  0  0  0  0  0  0  0  0  0  0  0
   10.2434  -14.0611   28.9354 C   0  0  0  0  0  0  0  0  0  0  0  0
   10.3435  -14.6939   30.1222 N   0  0  0  0  0  0  0  0  0  0  0  0
    9.5633  -15.7902   30.0821 C   0  0  0  0  0  0  0  0  0  0  0  0
    8.9725  -15.8443   28.8664 N   0  0  0  0  0  0  0  0  0  0  0  0
    9.4798  -16.6386   25.8923 C   0  0  0  0  0  0  0  0  0  0  0  0
   10.2874  -17.4720   26.6637 O   0  0  0  0  0  0  0  0  0  0  0  0
    8.4845  -17.1775   25.3423 O   0  0  0  0  0  0  0  0  0  0  0  0
  2  3  1  0
  2  1  1  6
  3  4  1  0
  4  8  1  0
  4  5  2  0
  6  2  1  0
  6  7  2  0
 10  9  1  6
 10 12  1  0
 11 10  1  0
 12 13  1  6
 12 14  1  0
 13  6  1  0
 14 16  1  0
 15 14  2  0
 16 17  1  0
 17 24  1  0
 17 18  1  1
 19 18  1  0
 20 19  2  0
 21 22  1  0
 21 20  1  0
 22 23  2  0
 23 19  1  0
 24 26  2  0
 24 25  1  0
M  END
$$$$
