DTH.pdb
     RDKit          3D

 26 26  0  0  1  0  0  0  0  0999 V2000
    8.0139  -16.9936   16.3997 N   0  0  0  0  0  0  0  0  0  0  0  0
    9.2108  -16.1996   16.3117 C   0  0  1  0  0  0  0  0  0  0  0  0
    8.9829  -15.1464   15.2351 C   0  0  0  0  0  0  0  0  0  0  0  0
    8.8657  -15.8249   13.9196 C   0  0  0  0  0  0  0  0  0  0  0  0
    8.7106  -17.0656   13.8073 O   0  0  0  0  0  0  0  0  0  0  0  0
    9.4831  -15.5315   17.6035 C   0  0  0  0  0  0  0  0  0  0  0  0
   10.5051  -14.8078   17.7245 O   0  0  0  0  0  0  0  0  0  0  0  0
    8.9256  -15.0892   12.7453 O   0  0  0  0  0  0  0  0  0  0  0  0
    7.7121  -13.0389   19.6775 C   0  0  0  0  0  0  0  0  0  0  0  0
    7.8379  -14.2675   20.5410 C   0  0  1  0  0  0  0  0  0  0  0  0
    6.6461  -14.9971   20.5665 O   0  0  0  0  0  0  0  0  0  0  0  0
    8.9807  -15.1440   20.0112 C   0  0  2  0  0  0  0  0  0  0  0  0
    8.6185  -15.6865   18.7125 N   0  0  0  0  0  0  0  0  0  0  0  0
    9.1875  -16.2254   21.0057 C   0  0  0  0  0  0  0  0  0  0  0  0
    9.3158  -17.3975   20.6037 O   0  0  0  0  0  0  0  0  0  0  0  0
    9.2476  -15.9944   22.4041 N   0  0  0  0  0  0  0  0  0  0  0  0
   10.3495  -16.4405   23.2335 C   0  0  1  0  0  0  0  0  0  0  0  0
   11.6670  -15.8524   22.7827 C   0  0  0  0  0  0  0  0  0  0  0  0
   12.5608  -16.8999   22.2051 C   0  0  0  0  0  0  0  0  0  0  0  0
   12.1461  -18.2103   22.0653 C   0  0  0  0  0  0  0  0  0  0  0  0
   13.1717  -18.8956   21.5198 N   0  0  0  0  0  0  0  0  0  0  0  0
   14.1933  -18.0409   21.3255 C   0  0  0  0  0  0  0  0  0  0  0  0
   13.8065  -16.8162   21.7506 N   0  0  0  0  0  0  0  0  0  0  0  0
   10.0678  -16.0519   24.6395 C   0  0  0  0  0  0  0  0  0  0  0  0
    9.4984  -14.8170   24.9437 O   0  0  0  0  0  0  0  0  0  0  0  0
   10.3242  -16.8047   25.6147 O   0  0  0  0  0  0  0  0  0  0  0  0
  2  3  1  0
  2  1  1  1
  3  4  1  0
  4  8  1  0
  4  5  2  0
  6  2  1  0
  6  7  2  0
 10  9  1  6
 10 12  1  0
 11 10  1  0
 12 13  1  6
 12 14  1  0
 13  6  1  0
 14 16  1  0
 15 14  2  0
 16 17  1  0
 17 24  1  0
 17 18  1  6
 19 18  1  0
 20 19  2  0
 21 22  1  0
 21 20  1  0
 22 23  2  0
 23 19  1  0
 24 26  2  0
 24 25  1  0
M  END
$$$$
