DTH.pdb
     RDKit          3D

 26 26  0  0  1  0  0  0  0  0999 V2000
    9.8547  -16.9530   16.2787 N   0  0  0  0  0  0  0  0  0  0  0  0
    8.9728  -17.1910   17.3905 C   0  0  1  0  0  0  0  0  0  0  0  0
    9.0783  -18.6674   17.7501 C   0  0  0  0  0  0  0  0  0  0  0  0
    8.5649  -19.4741   16.6141 C   0  0  0  0  0  0  0  0  0  0  0  0
    8.8399  -20.6901   16.4662 O   0  0  0  0  0  0  0  0  0  0  0  0
    9.3766  -16.3714   18.5543 C   0  0  0  0  0  0  0  0  0  0  0  0
   10.5983  -16.2303   18.8201 O   0  0  0  0  0  0  0  0  0  0  0  0
    7.7452  -18.8933   15.6578 O   0  0  0  0  0  0  0  0  0  0  0  0
    7.6778  -12.9159   19.8345 C   0  0  0  0  0  0  0  0  0  0  0  0
    7.7579  -13.9594   20.9187 C   0  0  1  0  0  0  0  0  0  0  0  0
    6.5288  -14.5986   21.1032 O   0  0  0  0  0  0  0  0  0  0  0  0
    8.8365  -14.9879   20.5529 C   0  0  2  0  0  0  0  0  0  0  0  0
    8.4184  -15.7385   19.3808 N   0  0  0  0  0  0  0  0  0  0  0  0
    8.9976  -15.8768   21.7299 C   0  0  0  0  0  0  0  0  0  0  0  0
    8.3453  -16.9369   21.7783 O   0  0  0  0  0  0  0  0  0  0  0  0
    9.8632  -15.5815   22.8143 N   0  0  0  0  0  0  0  0  0  0  0  0
   10.0501  -16.4715   23.9431 C   0  0  1  0  0  0  0  0  0  0  0  0
   11.5133  -16.7358   24.2150 C   0  0  0  0  0  0  0  0  0  0  0  0
   12.0946  -17.6681   23.2039 C   0  0  0  0  0  0  0  0  0  0  0  0
   11.3007  -18.3311   22.2880 C   0  0  0  0  0  0  0  0  0  0  0  0
   12.1185  -19.0859   21.5261 N   0  0  0  0  0  0  0  0  0  0  0  0
   13.3818  -18.9001   21.9524 C   0  0  0  0  0  0  0  0  0  0  0  0
   13.3553  -18.0262   22.9847 N   0  0  0  0  0  0  0  0  0  0  0  0
    9.4082  -15.8608   25.1355 C   0  0  0  0  0  0  0  0  0  0  0  0
    8.8396  -14.5901   25.0742 O   0  0  0  0  0  0  0  0  0  0  0  0
    9.3446  -16.4486   26.2464 O   0  0  0  0  0  0  0  0  0  0  0  0
  2  3  1  0
  2  1  1  6
  3  4  1  0
  4  8  1  0
  4  5  2  0
  6  2  1  0
  6  7  2  0
 10  9  1  6
 10 12  1  0
 11 10  1  0
 12 13  1  6
 12 14  1  0
 13  6  1  0
 14 16  1  0
 15 14  2  0
 16 17  1  0
 17 24  1  0
 17 18  1  1
 19 18  1  0
 20 19  2  0
 21 22  1  0
 21 20  1  0
 22 23  2  0
 23 19  1  0
 24 26  2  0
 24 25  1  0
M  END
$$$$
