DTH.pdb
     RDKit          3D

 26 26  0  0  1  0  0  0  0  0999 V2000
   10.1168  -16.1134   14.7318 N   0  0  0  0  0  0  0  0  0  0  0  0
    9.1144  -16.2085   15.7598 C   0  0  1  0  0  0  0  0  0  0  0  0
    8.8824  -17.6882   16.0371 C   0  0  0  0  0  0  0  0  0  0  0  0
    8.2714  -18.3098   14.8350 C   0  0  0  0  0  0  0  0  0  0  0  0
    7.1415  -17.9785   14.3997 O   0  0  0  0  0  0  0  0  0  0  0  0
    9.5793  -15.5433   16.9971 C   0  0  0  0  0  0  0  0  0  0  0  0
   10.7909  -15.6228   17.3266 O   0  0  0  0  0  0  0  0  0  0  0  0
    8.9482  -19.3007   14.1393 O   0  0  0  0  0  0  0  0  0  0  0  0
    6.8619  -13.3409   19.3886 C   0  0  0  0  0  0  0  0  0  0  0  0
    8.3199  -12.9605   19.3685 C   0  0  1  0  0  0  0  0  0  0  0  0
    8.7192  -12.4059   20.5876 O   0  0  0  0  0  0  0  0  0  0  0  0
    9.1633  -14.2035   19.0541 C   0  0  2  0  0  0  0  0  0  0  0  0
    8.6910  -14.8160   17.8238 N   0  0  0  0  0  0  0  0  0  0  0  0
    9.0115  -15.1266   20.2057 C   0  0  0  0  0  0  0  0  0  0  0  0
    7.9561  -15.7782   20.3208 O   0  0  0  0  0  0  0  0  0  0  0  0
   10.0137  -15.3091   21.1930 N   0  0  0  0  0  0  0  0  0  0  0  0
    9.8104  -16.1000   22.3906 C   0  0  1  0  0  0  0  0  0  0  0  0
    9.5165  -17.5468   22.0663 C   0  0  0  0  0  0  0  0  0  0  0  0
   10.4909  -18.0904   21.0740 C   0  0  0  0  0  0  0  0  0  0  0  0
   11.5343  -17.3260   20.5886 C   0  0  0  0  0  0  0  0  0  0  0  0
   12.2222  -18.0970   19.7219 N   0  0  0  0  0  0  0  0  0  0  0  0
   11.6276  -19.3036   19.6680 C   0  0  0  0  0  0  0  0  0  0  0  0
   10.5638  -19.2883   20.5036 N   0  0  0  0  0  0  0  0  0  0  0  0
   11.0296  -16.0000   23.2335 C   0  0  0  0  0  0  0  0  0  0  0  0
   11.1248  -16.6834   24.4441 O   0  0  0  0  0  0  0  0  0  0  0  0
   12.0253  -15.3042   22.9046 O   0  0  0  0  0  0  0  0  0  0  0  0
  2  3  1  0
  2  1  1  6
  3  4  1  0
  4  8  1  0
  4  5  2  0
  6  2  1  0
  6  7  2  0
 10  9  1  1
 10 12  1  0
 11 10  1  0
 12 13  1  6
 12 14  1  0
 13  6  1  0
 14 16  1  0
 15 14  2  0
 16 17  1  0
 17 24  1  0
 17 18  1  6
 19 18  1  0
 20 19  2  0
 21 22  1  0
 21 20  1  0
 22 23  2  0
 23 19  1  0
 24 26  2  0
 24 25  1  0
M  END
$$$$
