DTH.pdb
     RDKit          3D

 26 26  0  0  1  0  0  0  0  0999 V2000
   12.1499  -14.3707   18.8390 N   0  0  0  0  0  0  0  0  0  0  0  0
   12.5701  -15.2130   19.9273 C   0  0  1  0  0  0  0  0  0  0  0  0
   13.8724  -14.6409   20.4721 C   0  0  0  0  0  0  0  0  0  0  0  0
   14.9480  -14.8650   19.4732 C   0  0  0  0  0  0  0  0  0  0  0  0
   14.8149  -15.6407   18.4951 O   0  0  0  0  0  0  0  0  0  0  0  0
   11.5496  -15.2196   20.9988 C   0  0  0  0  0  0  0  0  0  0  0  0
   10.8550  -14.1902   21.2004 O   0  0  0  0  0  0  0  0  0  0  0  0
   16.1630  -14.2070   19.5940 O   0  0  0  0  0  0  0  0  0  0  0  0
    8.3499  -16.5800   21.3720 C   0  0  0  0  0  0  0  0  0  0  0  0
    9.1538  -17.2510   22.4558 C   0  0  1  0  0  0  0  0  0  0  0  0
    9.6323  -18.4962   22.0390 O   0  0  0  0  0  0  0  0  0  0  0  0
   10.3253  -16.3429   22.8532 C   0  0  2  0  0  0  0  0  0  0  0  0
   11.3339  -16.3605   21.8070 N   0  0  0  0  0  0  0  0  0  0  0  0
   10.8658  -16.8745   24.1286 C   0  0  0  0  0  0  0  0  0  0  0  0
   11.9789  -17.4338   24.1249 O   0  0  0  0  0  0  0  0  0  0  0  0
   10.1764  -16.7792   25.3647 N   0  0  0  0  0  0  0  0  0  0  0  0
   10.6627  -17.3807   26.5907 C   0  0  1  0  0  0  0  0  0  0  0  0
   10.0032  -16.7812   27.8116 C   0  0  0  0  0  0  0  0  0  0  0  0
   10.3417  -15.3342   27.9571 C   0  0  0  0  0  0  0  0  0  0  0  0
   11.2844  -14.7253   27.1513 C   0  0  0  0  0  0  0  0  0  0  0  0
   11.3565  -13.4331   27.5307 N   0  0  0  0  0  0  0  0  0  0  0  0
   10.4871  -13.2415   28.5405 C   0  0  0  0  0  0  0  0  0  0  0  0
    9.8684  -14.4174   28.7945 N   0  0  0  0  0  0  0  0  0  0  0  0
   10.4040  -18.8424   26.5329 C   0  0  0  0  0  0  0  0  0  0  0  0
   10.9209  -19.7028   27.4995 O   0  0  0  0  0  0  0  0  0  0  0  0
    9.7157  -19.3731   25.6228 O   0  0  0  0  0  0  0  0  0  0  0  0
  2  3  1  0
  2  1  1  6
  3  4  1  0
  4  8  1  0
  4  5  2  0
  6  2  1  0
  6  7  2  0
 10  9  1  6
 10 12  1  0
 11 10  1  0
 12 13  1  6
 12 14  1  0
 13  6  1  0
 14 16  1  0
 15 14  2  0
 16 17  1  0
 17 24  1  0
 17 18  1  1
 19 18  1  0
 20 19  2  0
 21 22  1  0
 21 20  1  0
 22 23  2  0
 23 19  1  0
 24 26  2  0
 24 25  1  0
M  END
$$$$
