DTH.pdb
     RDKit          3D

 26 26  0  0  1  0  0  0  0  0999 V2000
   12.1428  -15.1326   17.1345 N   0  0  0  0  0  0  0  0  0  0  0  0
   12.8355  -15.7614   16.0411 C   0  0  1  0  0  0  0  0  0  0  0  0
   12.2249  -15.2341   14.7491 C   0  0  0  0  0  0  0  0  0  0  0  0
   10.8025  -15.6558   14.6855 C   0  0  0  0  0  0  0  0  0  0  0  0
   10.2834  -16.4225   15.5332 O   0  0  0  0  0  0  0  0  0  0  0  0
   14.2752  -15.4222   16.0788 C   0  0  0  0  0  0  0  0  0  0  0  0
   15.0447  -15.8836   15.1968 O   0  0  0  0  0  0  0  0  0  0  0  0
    9.9840  -15.2036   13.6611 O   0  0  0  0  0  0  0  0  0  0  0  0
   17.8211  -12.3527   16.8200 C   0  0  0  0  0  0  0  0  0  0  0  0
   16.3749  -12.7542   16.6851 C   0  0  1  0  0  0  0  0  0  0  0  0
   15.9088  -12.5518   15.3831 O   0  0  0  0  0  0  0  0  0  0  0  0
   16.2204  -14.2300   17.0762 C   0  0  2  0  0  0  0  0  0  0  0  0
   14.8118  -14.5875   17.0873 N   0  0  0  0  0  0  0  0  0  0  0  0
   16.8229  -14.3814   18.4236 C   0  0  0  0  0  0  0  0  0  0  0  0
   16.2194  -13.9171   19.4094 O   0  0  0  0  0  0  0  0  0  0  0  0
   18.0620  -15.0332   18.6521 N   0  0  0  0  0  0  0  0  0  0  0  0
   18.6708  -15.1391   19.9633 C   0  0  1  0  0  0  0  0  0  0  0  0
   19.7141  -16.2318   20.0128 C   0  0  0  0  0  0  0  0  0  0  0  0
   19.0858  -17.5764   20.1771 C   0  0  0  0  0  0  0  0  0  0  0  0
   17.7279  -17.7217   20.3861 C   0  0  0  0  0  0  0  0  0  0  0  0
   17.4815  -19.0434   20.4927 N   0  0  0  0  0  0  0  0  0  0  0  0
   18.6476  -19.7017   20.3548 C   0  0  0  0  0  0  0  0  0  0  0  0
   19.6276  -18.7896   20.1612 N   0  0  0  0  0  0  0  0  0  0  0  0
   19.2823  -13.8292   20.3056 C   0  0  0  0  0  0  0  0  0  0  0  0
   19.3133  -13.3722   21.6216 O   0  0  0  0  0  0  0  0  0  0  0  0
   19.7966  -13.0747   19.4397 O   0  0  0  0  0  0  0  0  0  0  0  0
  2  3  1  0
  2  1  1  1
  3  4  1  0
  4  8  1  0
  4  5  2  0
  6  2  1  0
  6  7  2  0
 10  9  1  6
 10 12  1  0
 11 10  1  0
 12 13  1  1
 12 14  1  0
 13  6  1  0
 14 16  1  0
 15 14  2  0
 16 17  1  0
 17 24  1  0
 17 18  1  6
 19 18  1  0
 20 19  2  0
 21 22  1  0
 21 20  1  0
 22 23  2  0
 23 19  1  0
 24 26  2  0
 24 25  1  0
M  END
$$$$
