DTH.pdb
     RDKit          3D

 26 26  0  0  1  0  0  0  0  0999 V2000
    8.6469  -17.8107   17.7059 N   0  0  0  0  0  0  0  0  0  0  0  0
    9.9375  -17.1950   17.8666 C   0  0  1  0  0  0  0  0  0  0  0  0
   10.2483  -16.4417   16.5798 C   0  0  0  0  0  0  0  0  0  0  0  0
   10.6601  -17.4194   15.5408 C   0  0  0  0  0  0  0  0  0  0  0  0
    9.8690  -18.2617   15.0500 O   0  0  0  0  0  0  0  0  0  0  0  0
    9.9185  -16.2446   19.0005 C   0  0  0  0  0  0  0  0  0  0  0  0
   10.9739  -15.6393   19.3206 O   0  0  0  0  0  0  0  0  0  0  0  0
   11.9645  -17.4315   15.0695 O   0  0  0  0  0  0  0  0  0  0  0  0
    7.0932  -13.6005   19.9868 C   0  0  0  0  0  0  0  0  0  0  0  0
    7.3977  -14.5158   21.1445 C   0  0  1  0  0  0  0  0  0  0  0  0
    6.4179  -15.5023   21.2862 O   0  0  0  0  0  0  0  0  0  0  0  0
    8.7713  -15.1652   20.9290 C   0  0  2  0  0  0  0  0  0  0  0  0
    8.7367  -15.9977   19.7382 N   0  0  0  0  0  0  0  0  0  0  0  0
    9.0581  -15.9730   22.1400 C   0  0  0  0  0  0  0  0  0  0  0  0
    9.3083  -17.1863   22.0100 O   0  0  0  0  0  0  0  0  0  0  0  0
    9.0629  -15.4325   23.4516 N   0  0  0  0  0  0  0  0  0  0  0  0
    9.7923  -16.0312   24.5519 C   0  0  1  0  0  0  0  0  0  0  0  0
   11.2771  -16.0931   24.2752 C   0  0  0  0  0  0  0  0  0  0  0  0
   11.6483  -17.3616   23.5803 C   0  0  0  0  0  0  0  0  0  0  0  0
   10.6989  -18.3042   23.2356 C   0  0  0  0  0  0  0  0  0  0  0  0
   11.3483  -19.3193   22.6301 N   0  0  0  0  0  0  0  0  0  0  0  0
   12.6605  -19.0202   22.5978 C   0  0  0  0  0  0  0  0  0  0  0  0
   12.8335  -17.8138   23.1850 N   0  0  0  0  0  0  0  0  0  0  0  0
    9.5312  -15.2349   25.7786 C   0  0  0  0  0  0  0  0  0  0  0  0
    8.7980  -14.0512   25.7247 O   0  0  0  0  0  0  0  0  0  0  0  0
    9.9514  -15.5810   26.9132 O   0  0  0  0  0  0  0  0  0  0  0  0
  2  3  1  0
  2  1  1  6
  3  4  1  0
  4  8  1  0
  4  5  2  0
  6  2  1  0
  6  7  2  0
 10  9  1  6
 10 12  1  0
 11 10  1  0
 12 13  1  6
 12 14  1  0
 13  6  1  0
 14 16  1  0
 15 14  2  0
 16 17  1  0
 17 24  1  0
 17 18  1  6
 19 18  1  0
 20 19  2  0
 21 22  1  0
 21 20  1  0
 22 23  2  0
 23 19  1  0
 24 26  2  0
 24 25  1  0
M  END
$$$$
