DTH.pdb
     RDKit          3D

 26 26  0  0  1  0  0  0  0  0999 V2000
    8.6191  -17.1882   16.6403 N   0  0  0  0  0  0  0  0  0  0  0  0
    9.8876  -16.5090   16.6550 C   0  0  1  0  0  0  0  0  0  0  0  0
    9.9594  -15.6468   15.4013 C   0  0  0  0  0  0  0  0  0  0  0  0
   10.1246  -16.5323   14.2209 C   0  0  0  0  0  0  0  0  0  0  0  0
    9.1854  -16.7889   13.4283 O   0  0  0  0  0  0  0  0  0  0  0  0
    9.9973  -15.6462   17.8521 C   0  0  0  0  0  0  0  0  0  0  0  0
   11.0382  -14.9625   18.0309 O   0  0  0  0  0  0  0  0  0  0  0  0
   11.3530  -17.1175   13.9517 O   0  0  0  0  0  0  0  0  0  0  0  0
    7.4615  -13.0891   19.4038 C   0  0  0  0  0  0  0  0  0  0  0  0
    7.8068  -14.1441   20.4229 C   0  0  1  0  0  0  0  0  0  0  0  0
    6.7979  -15.1061   20.5231 O   0  0  0  0  0  0  0  0  0  0  0  0
    9.1329  -14.8105   20.0325 C   0  0  2  0  0  0  0  0  0  0  0  0
    8.9555  -15.5702   18.8062 N   0  0  0  0  0  0  0  0  0  0  0  0
    9.5164  -15.6947   21.1605 C   0  0  0  0  0  0  0  0  0  0  0  0
    9.3471  -16.9236   21.0477 O   0  0  0  0  0  0  0  0  0  0  0  0
   10.0714  -15.2111   22.3732 N   0  0  0  0  0  0  0  0  0  0  0  0
   10.3465  -16.0632   23.5132 C   0  0  1  0  0  0  0  0  0  0  0  0
   11.7663  -15.9024   24.0062 C   0  0  0  0  0  0  0  0  0  0  0  0
   12.7379  -16.5787   23.0961 C   0  0  0  0  0  0  0  0  0  0  0  0
   12.4083  -17.7332   22.4125 C   0  0  0  0  0  0  0  0  0  0  0  0
   13.4883  -18.0870   21.6863 N   0  0  0  0  0  0  0  0  0  0  0  0
   14.4604  -17.1829   21.9093 C   0  0  0  0  0  0  0  0  0  0  0  0
   13.9879  -16.2597   22.7780 N   0  0  0  0  0  0  0  0  0  0  0  0
    9.3858  -15.7266   24.5952 C   0  0  0  0  0  0  0  0  0  0  0  0
    8.4770  -14.6804   24.4499 O   0  0  0  0  0  0  0  0  0  0  0  0
    9.3422  -16.3579   25.6830 O   0  0  0  0  0  0  0  0  0  0  0  0
  2  3  1  0
  2  1  1  1
  3  4  1  0
  4  8  1  0
  4  5  2  0
  6  2  1  0
  6  7  2  0
 10  9  1  6
 10 12  1  0
 11 10  1  0
 12 13  1  6
 12 14  1  0
 13  6  1  0
 14 16  1  0
 15 14  2  0
 16 17  1  0
 17 24  1  0
 17 18  1  1
 19 18  1  0
 20 19  2  0
 21 22  1  0
 21 20  1  0
 22 23  2  0
 23 19  1  0
 24 26  2  0
 24 25  1  0
M  END
$$$$
