QII.pdb
     RDKit          3D

 26 25  0  0  1  0  0  0  0  0999 V2000
   11.8681  -21.3260   22.1094 N   0  0  0  0  0  0  0  0  0  0  0  0
   11.2446  -21.1813   20.8538 C   0  0  0  0  0  0  0  0  0  0  0  0
   10.7350  -22.1879   20.2991 O   0  0  0  0  0  0  0  0  0  0  0  0
   11.2197  -19.8288   20.2387 C   0  0  0  0  0  0  0  0  0  0  0  0
   11.9048  -18.8082   21.1377 C   0  0  0  0  0  0  0  0  0  0  0  0
   11.7313  -17.4544   20.4580 C   0  0  2  0  0  0  0  0  0  0  0  0
   13.0071  -17.0987   19.8902 N   0  0  0  0  0  0  0  0  0  0  0  0
   11.2593  -16.4243   21.4039 C   0  0  0  0  0  0  0  0  0  0  0  0
   12.1014  -15.7079   21.9833 O   0  0  0  0  0  0  0  0  0  0  0  0
    6.9561  -13.3833   20.2107 C   0  0  0  0  0  0  0  0  0  0  0  0
    8.2719  -13.8963   20.7406 C   0  0  0  0  0  0  0  0  0  0  0  0
    8.0966  -14.7216   21.9690 C   0  0  2  0  0  0  0  0  0  0  0  0
    7.3996  -13.9182   23.0709 C   0  0  0  0  0  0  0  0  0  0  0  0
    9.3785  -15.2370   22.5786 C   0  0  2  0  0  0  0  0  0  0  0  0
    9.8907  -16.2404   21.6588 N   0  0  0  0  0  0  0  0  0  0  0  0
    9.0302  -15.8614   23.8835 C   0  0  0  0  0  0  0  0  0  0  0  0
    8.7812  -17.0941   23.8730 O   0  0  0  0  0  0  0  0  0  0  0  0
   10.2185  -12.5394   28.1917 C   0  0  0  0  0  0  0  0  0  0  0  0
   10.2613  -13.6664   27.2417 C   0  0  0  0  0  0  0  0  0  0  0  0
    9.4114  -14.8421   27.4235 C   0  0  2  0  0  0  0  0  0  0  0  0
    9.6363  -15.4898   28.8087 C   0  0  0  0  0  0  0  0  0  0  0  0
    9.3235  -15.8623   26.3662 C   0  0  2  0  0  0  0  0  0  0  0  0
    8.9691  -15.1579   25.0882 N   0  0  0  0  0  0  0  0  0  0  0  0
    8.3922  -16.9898   26.5222 C   0  0  0  0  0  0  0  0  0  0  0  0
    8.6580  -18.0964   27.0355 O   0  0  0  0  0  0  0  0  0  0  0  0
    7.0544  -16.8741   26.0686 O   0  0  0  0  0  0  0  0  0  0  0  0
  2  1  1  0
  2  4  1  0
  3  2  2  0
  5  4  1  0
  6  5  1  0
  6  7  1  1
  8  6  1  0
  8  9  2  0
 11 10  1  0
 12 11  1  0
 12 14  1  0
 12 13  1  1
 14 15  1  6
 15  8  1  0
 16 14  1  0
 17 16  2  0
 18 19  1  0
 20 19  1  0
 20 22  1  0
 20 21  1  1
 22 23  1  6
 22 24  1  0
 23 16  1  0
 24 26  1  0
 25 24  2  0
M  END
$$$$
