QII.pdb
     RDKit          3D

 26 25  0  0  1  0  0  0  0  0999 V2000
    7.0744  -19.2121   20.4202 N   0  0  0  0  0  0  0  0  0  0  0  0
    6.2233  -18.3619   19.6860 C   0  0  0  0  0  0  0  0  0  0  0  0
    5.3852  -18.8632   18.8941 O   0  0  0  0  0  0  0  0  0  0  0  0
    6.3596  -16.8958   19.8860 C   0  0  0  0  0  0  0  0  0  0  0  0
    7.3356  -16.5877   21.0138 C   0  0  0  0  0  0  0  0  0  0  0  0
    7.3536  -15.0702   21.1616 C   0  0  2  0  0  0  0  0  0  0  0  0
    7.9371  -14.5342   19.9578 N   0  0  0  0  0  0  0  0  0  0  0  0
    8.1073  -14.6464   22.3578 C   0  0  0  0  0  0  0  0  0  0  0  0
    9.3435  -14.4975   22.2689 O   0  0  0  0  0  0  0  0  0  0  0  0
    6.0346  -11.3510   26.1669 C   0  0  0  0  0  0  0  0  0  0  0  0
    6.9966  -12.0823   25.2641 C   0  0  0  0  0  0  0  0  0  0  0  0
    7.2774  -13.4636   25.7476 C   0  0  2  0  0  0  0  0  0  0  0  0
    7.9725  -13.4330   27.1120 C   0  0  0  0  0  0  0  0  0  0  0  0
    8.1678  -14.2854   24.8463 C   0  0  2  0  0  0  0  0  0  0  0  0
    7.4606  -14.4106   23.5816 N   0  0  0  0  0  0  0  0  0  0  0  0
    8.3316  -15.6209   25.4816 C   0  0  0  0  0  0  0  0  0  0  0  0
    7.5601  -16.5333   25.0891 O   0  0  0  0  0  0  0  0  0  0  0  0
   11.0684  -17.7651   22.8243 C   0  0  0  0  0  0  0  0  0  0  0  0
   10.2172  -17.6863   24.0259 C   0  0  0  0  0  0  0  0  0  0  0  0
   10.7863  -17.3822   25.3379 C   0  0  2  0  0  0  0  0  0  0  0  0
   12.0100  -18.2762   25.6410 C   0  0  0  0  0  0  0  0  0  0  0  0
    9.9103  -17.2612   26.5145 C   0  0  2  0  0  0  0  0  0  0  0  0
    9.2793  -15.8993   26.4687 N   0  0  0  0  0  0  0  0  0  0  0  0
   10.4749  -17.4415   27.8604 C   0  0  0  0  0  0  0  0  0  0  0  0
   10.4997  -18.5076   28.5098 O   0  0  0  0  0  0  0  0  0  0  0  0
   11.0601  -16.3429   28.5382 O   0  0  0  0  0  0  0  0  0  0  0  0
  2  1  1  0
  2  4  1  0
  3  2  2  0
  5  4  1  0
  6  5  1  0
  6  7  1  6
  8  6  1  0
  8  9  2  0
 11 10  1  0
 12 11  1  0
 12 14  1  0
 12 13  1  1
 14 15  1  6
 15  8  1  0
 16 14  1  0
 17 16  2  0
 18 19  1  0
 20 19  1  0
 20 22  1  0
 20 21  1  1
 22 23  1  1
 22 24  1  0
 23 16  1  0
 24 26  1  0
 25 24  2  0
M  END
$$$$
