QII.pdb
     RDKit          3D

 26 25  0  0  1  0  0  0  0  0999 V2000
   11.2367  -20.8117   21.6335 N   0  0  0  0  0  0  0  0  0  0  0  0
   11.1628  -20.3566   20.3017 C   0  0  0  0  0  0  0  0  0  0  0  0
   11.5391  -21.1127   19.3703 O   0  0  0  0  0  0  0  0  0  0  0  0
   10.6373  -18.9879   20.0601 C   0  0  0  0  0  0  0  0  0  0  0  0
   10.1459  -18.3557   21.3555 C   0  0  0  0  0  0  0  0  0  0  0  0
    9.5977  -16.9831   20.9809 C   0  0  2  0  0  0  0  0  0  0  0  0
   10.3206  -16.5420   19.8150 N   0  0  0  0  0  0  0  0  0  0  0  0
    9.7312  -16.0196   22.0911 C   0  0  0  0  0  0  0  0  0  0  0  0
   10.7610  -15.3172   22.1581 O   0  0  0  0  0  0  0  0  0  0  0  0
    6.0736  -12.8937   25.7863 C   0  0  0  0  0  0  0  0  0  0  0  0
    7.4645  -13.4444   25.5929 C   0  0  0  0  0  0  0  0  0  0  0  0
    7.4982  -14.5348   24.5776 C   0  0  2  0  0  0  0  0  0  0  0  0
    6.6851  -15.7440   25.0490 C   0  0  0  0  0  0  0  0  0  0  0  0
    8.8760  -15.0615   24.2539 C   0  0  2  0  0  0  0  0  0  0  0  0
    8.7270  -15.8831   23.0630 N   0  0  0  0  0  0  0  0  0  0  0  0
    9.3148  -15.8950   25.4057 C   0  0  0  0  0  0  0  0  0  0  0  0
    9.4541  -17.1266   25.1930 O   0  0  0  0  0  0  0  0  0  0  0  0
   10.9576  -12.9215   29.6723 C   0  0  0  0  0  0  0  0  0  0  0  0
   11.1543  -13.9281   28.6127 C   0  0  0  0  0  0  0  0  0  0  0  0
   10.7092  -15.3096   28.7891 C   0  0  2  0  0  0  0  0  0  0  0  0
   11.5707  -16.0483   29.8384 C   0  0  0  0  0  0  0  0  0  0  0  0
   10.4532  -16.1602   27.6155 C   0  0  2  0  0  0  0  0  0  0  0  0
    9.5723  -15.3838   26.6794 N   0  0  0  0  0  0  0  0  0  0  0  0
    9.8426  -17.4854   27.7998 C   0  0  0  0  0  0  0  0  0  0  0  0
   10.4508  -18.5750   27.8411 O   0  0  0  0  0  0  0  0  0  0  0  0
    8.4385  -17.6057   27.9505 O   0  0  0  0  0  0  0  0  0  0  0  0
  2  1  1  0
  2  4  1  0
  3  2  2  0
  5  4  1  0
  6  5  1  0
  6  7  1  6
  8  6  1  0
  8  9  2  0
 11 10  1  0
 12 11  1  0
 12 14  1  0
 12 13  1  1
 14 15  1  6
 15  8  1  0
 16 14  1  0
 17 16  2  0
 18 19  1  0
 20 19  1  0
 20 22  1  0
 20 21  1  1
 22 23  1  6
 22 24  1  0
 23 16  1  0
 24 26  1  0
 25 24  2  0
M  END
$$$$
