QII.pdb
     RDKit          3D

 26 25  0  0  1  0  0  0  0  0999 V2000
   10.9405  -20.5143   21.5410 N   0  0  0  0  0  0  0  0  0  0  0  0
   10.3373  -20.2012   20.3063 C   0  0  0  0  0  0  0  0  0  0  0  0
   10.2041  -21.1021   19.4395 O   0  0  0  0  0  0  0  0  0  0  0  0
    9.8822  -18.8039   20.0864 C   0  0  0  0  0  0  0  0  0  0  0  0
   10.1371  -17.9468   21.3192 C   0  0  0  0  0  0  0  0  0  0  0  0
    9.5870  -16.5614   20.9985 C   0  0  2  0  0  0  0  0  0  0  0  0
   10.3454  -16.0520   19.8840 N   0  0  0  0  0  0  0  0  0  0  0  0
    9.6706  -15.6572   22.1622 C   0  0  0  0  0  0  0  0  0  0  0  0
   10.6980  -14.9648   22.3139 O   0  0  0  0  0  0  0  0  0  0  0  0
    5.8122  -12.9656   26.0536 C   0  0  0  0  0  0  0  0  0  0  0  0
    7.2325  -13.4097   25.8069 C   0  0  0  0  0  0  0  0  0  0  0  0
    7.3240  -14.4009   24.6978 C   0  0  2  0  0  0  0  0  0  0  0  0
    6.5650  -15.6838   25.0492 C   0  0  0  0  0  0  0  0  0  0  0  0
    8.7269  -14.8323   24.3430 C   0  0  2  0  0  0  0  0  0  0  0  0
    8.6219  -15.5657   23.0915 N   0  0  0  0  0  0  0  0  0  0  0  0
    9.2039  -15.7298   25.4298 C   0  0  0  0  0  0  0  0  0  0  0  0
    9.3437  -16.9455   25.1400 O   0  0  0  0  0  0  0  0  0  0  0  0
   10.6938  -13.1420   29.9558 C   0  0  0  0  0  0  0  0  0  0  0  0
   10.9529  -14.0763   28.8448 C   0  0  0  0  0  0  0  0  0  0  0  0
   10.4912  -15.4626   28.8985 C   0  0  2  0  0  0  0  0  0  0  0  0
   11.3327  -16.2975   29.8903 C   0  0  0  0  0  0  0  0  0  0  0  0
   10.2399  -16.2077   27.6542 C   0  0  2  0  0  0  0  0  0  0  0  0
    9.4956  -15.2936   26.7239 N   0  0  0  0  0  0  0  0  0  0  0  0
    9.5035  -17.4795   27.7069 C   0  0  0  0  0  0  0  0  0  0  0  0
    8.2618  -17.6101   27.6992 O   0  0  0  0  0  0  0  0  0  0  0  0
   10.2092  -18.7067   27.7735 O   0  0  0  0  0  0  0  0  0  0  0  0
  2  1  1  0
  2  4  1  0
  3  2  2  0
  5  4  1  0
  6  5  1  0
  6  7  1  6
  8  6  1  0
  8  9  2  0
 11 10  1  0
 12 11  1  0
 12 14  1  0
 12 13  1  1
 14 15  1  6
 15  8  1  0
 16 14  1  0
 17 16  2  0
 18 19  1  0
 20 19  1  0
 20 22  1  0
 20 21  1  6
 22 23  1  6
 22 24  1  0
 23 16  1  0
 24 26  1  0
 25 24  2  0
M  END
$$$$
