QII.pdb
     RDKit          3D

 26 25  0  0  1  0  0  0  0  0999 V2000
   11.9478  -19.6335   17.7852 N   0  0  0  0  0  0  0  0  0  0  0  0
   12.7295  -18.4628   17.7167 C   0  0  0  0  0  0  0  0  0  0  0  0
   12.8488  -17.8649   16.6171 O   0  0  0  0  0  0  0  0  0  0  0  0
   13.3830  -17.9860   18.9631 C   0  0  0  0  0  0  0  0  0  0  0  0
   12.5447  -16.9108   19.6415 C   0  0  0  0  0  0  0  0  0  0  0  0
   11.9387  -17.5592   20.8813 C   0  0  2  0  0  0  0  0  0  0  0  0
   10.9579  -18.5113   20.4249 N   0  0  0  0  0  0  0  0  0  0  0  0
   11.3354  -16.5579   21.7825 C   0  0  0  0  0  0  0  0  0  0  0  0
   12.0419  -15.6141   22.1928 O   0  0  0  0  0  0  0  0  0  0  0  0
    6.0655  -15.4931   21.2050 C   0  0  0  0  0  0  0  0  0  0  0  0
    7.5107  -15.2123   21.5335 C   0  0  0  0  0  0  0  0  0  0  0  0
    7.9003  -15.7658   22.8612 C   0  0  2  0  0  0  0  0  0  0  0  0
    7.2442  -14.9737   23.9959 C   0  0  0  0  0  0  0  0  0  0  0  0
    9.3829  -15.7508   23.1475 C   0  0  2  0  0  0  0  0  0  0  0  0
    9.9921  -16.6507   22.1807 N   0  0  0  0  0  0  0  0  0  0  0  0
    9.5738  -16.2698   24.5289 C   0  0  0  0  0  0  0  0  0  0  0  0
    9.8233  -17.4971   24.6434 O   0  0  0  0  0  0  0  0  0  0  0  0
   10.2313  -12.3071   28.0170 C   0  0  0  0  0  0  0  0  0  0  0  0
   10.7027  -13.5888   27.4605 C   0  0  0  0  0  0  0  0  0  0  0  0
   10.1321  -14.8608   27.9012 C   0  0  2  0  0  0  0  0  0  0  0  0
   10.7182  -15.2984   29.2628 C   0  0  0  0  0  0  0  0  0  0  0  0
   10.0462  -15.9961   26.9685 C   0  0  2  0  0  0  0  0  0  0  0  0
    9.4905  -15.4753   25.6743 N   0  0  0  0  0  0  0  0  0  0  0  0
    9.2611  -17.1826   27.3408 C   0  0  0  0  0  0  0  0  0  0  0  0
    8.0251  -17.3125   27.2213 O   0  0  0  0  0  0  0  0  0  0  0  0
    9.9069  -18.3176   27.8915 O   0  0  0  0  0  0  0  0  0  0  0  0
  2  1  1  0
  2  4  1  0
  3  2  2  0
  5  4  1  0
  6  5  1  0
  6  7  1  6
  8  6  1  0
  8  9  2  0
 11 10  1  0
 12 11  1  0
 12 14  1  0
 12 13  1  1
 14 15  1  6
 15  8  1  0
 16 14  1  0
 17 16  2  0
 18 19  1  0
 20 19  1  0
 20 22  1  0
 20 21  1  1
 22 23  1  6
 22 24  1  0
 23 16  1  0
 24 26  1  0
 25 24  2  0
M  END
$$$$
