QII.pdb
     RDKit          3D

 26 25  0  0  1  0  0  0  0  0999 V2000
   14.1078  -17.9540   18.8561 N   0  0  0  0  0  0  0  0  0  0  0  0
   13.0519  -17.0540   18.6082 C   0  0  0  0  0  0  0  0  0  0  0  0
   13.3089  -15.8360   18.4320 O   0  0  0  0  0  0  0  0  0  0  0  0
   11.6687  -17.5954   18.5667 C   0  0  0  0  0  0  0  0  0  0  0  0
   10.7722  -16.8787   19.5676 C   0  0  0  0  0  0  0  0  0  0  0  0
   10.9833  -17.5759   20.9071 C   0  0  2  0  0  0  0  0  0  0  0  0
   10.6194  -18.9586   20.7270 N   0  0  0  0  0  0  0  0  0  0  0  0
   10.1893  -16.9479   21.9813 C   0  0  0  0  0  0  0  0  0  0  0  0
   10.2978  -15.7187   22.1701 O   0  0  0  0  0  0  0  0  0  0  0  0
    5.5199  -19.5110   23.2242 C   0  0  0  0  0  0  0  0  0  0  0  0
    6.4416  -18.3440   22.9718 C   0  0  0  0  0  0  0  0  0  0  0  0
    7.3940  -18.1297   24.0978 C   0  0  2  0  0  0  0  0  0  0  0  0
    6.6602  -17.6259   25.3441 C   0  0  0  0  0  0  0  0  0  0  0  0
    8.4873  -17.1244   23.8249 C   0  0  2  0  0  0  0  0  0  0  0  0
    9.3226  -17.7053   22.7855 N   0  0  0  0  0  0  0  0  0  0  0  0
    9.2652  -16.9616   25.0828 C   0  0  0  0  0  0  0  0  0  0  0  0
   10.1931  -17.7859   25.2856 O   0  0  0  0  0  0  0  0  0  0  0  0
    8.9539  -12.0510   27.2299 C   0  0  0  0  0  0  0  0  0  0  0  0
    9.6927  -13.2678   26.8449 C   0  0  0  0  0  0  0  0  0  0  0  0
    9.7414  -14.4340   27.7254 C   0  0  2  0  0  0  0  0  0  0  0  0
   10.6446  -14.1748   28.9526 C   0  0  0  0  0  0  0  0  0  0  0  0
    9.9753  -15.7750   27.1654 C   0  0  2  0  0  0  0  0  0  0  0  0
    9.0172  -15.9603   26.0240 N   0  0  0  0  0  0  0  0  0  0  0  0
    9.8591  -16.9546   28.0358 C   0  0  0  0  0  0  0  0  0  0  0  0
   10.8000  -17.5338   28.6175 O   0  0  0  0  0  0  0  0  0  0  0  0
    8.5897  -17.5366   28.2778 O   0  0  0  0  0  0  0  0  0  0  0  0
  2  1  1  0
  2  4  1  0
  3  2  2  0
  5  4  1  0
  6  5  1  0
  6  7  1  6
  8  6  1  0
  8  9  2  0
 11 10  1  0
 12 11  1  0
 12 14  1  0
 12 13  1  1
 14 15  1  6
 15  8  1  0
 16 14  1  0
 17 16  2  0
 18 19  1  0
 20 19  1  0
 20 22  1  0
 20 21  1  1
 22 23  1  6
 22 24  1  0
 23 16  1  0
 24 26  1  0
 25 24  2  0
M  END
$$$$
