QII.pdb
     RDKit          3D

 26 25  0  0  1  0  0  0  0  0999 V2000
   12.4030  -21.1268   22.0923 N   0  0  0  0  0  0  0  0  0  0  0  0
   12.7397  -20.9597   20.7340 C   0  0  0  0  0  0  0  0  0  0  0  0
   13.1491  -21.9487   20.0744 O   0  0  0  0  0  0  0  0  0  0  0  0
   12.5926  -19.6056   20.1400 C   0  0  0  0  0  0  0  0  0  0  0  0
   11.9192  -18.6515   21.1175 C   0  0  0  0  0  0  0  0  0  0  0  0
   11.7244  -17.3380   20.3680 C   0  0  2  0  0  0  0  0  0  0  0  0
   12.9843  -17.0129   19.7485 N   0  0  0  0  0  0  0  0  0  0  0  0
   11.2741  -16.2573   21.2669 C   0  0  0  0  0  0  0  0  0  0  0  0
   12.1318  -15.5535   21.8390 O   0  0  0  0  0  0  0  0  0  0  0  0
    6.6389  -13.4105   20.3972 C   0  0  0  0  0  0  0  0  0  0  0  0
    8.0386  -13.7868   20.8151 C   0  0  0  0  0  0  0  0  0  0  0  0
    8.0466  -14.6494   22.0303 C   0  0  2  0  0  0  0  0  0  0  0  0
    7.4124  -13.9220   23.2195 C   0  0  0  0  0  0  0  0  0  0  0  0
    9.4164  -15.0856   22.4928 C   0  0  2  0  0  0  0  0  0  0  0  0
    9.9089  -16.0121   21.4856 N   0  0  0  0  0  0  0  0  0  0  0  0
    9.2441  -15.7824   23.7962 C   0  0  0  0  0  0  0  0  0  0  0  0
    8.8968  -16.9902   23.7512 O   0  0  0  0  0  0  0  0  0  0  0  0
   10.9101  -13.0720   28.3471 C   0  0  0  0  0  0  0  0  0  0  0  0
   10.7383  -14.1054   27.3093 C   0  0  0  0  0  0  0  0  0  0  0  0
    9.6936  -15.1224   27.4196 C   0  0  2  0  0  0  0  0  0  0  0  0
    9.8273  -15.9258   28.7332 C   0  0  0  0  0  0  0  0  0  0  0  0
    9.3996  -16.0078   26.2811 C   0  0  2  0  0  0  0  0  0  0  0  0
    9.4456  -15.1707   25.0353 N   0  0  0  0  0  0  0  0  0  0  0  0
    8.1393  -16.7652   26.2582 C   0  0  0  0  0  0  0  0  0  0  0  0
    7.0320  -16.3371   25.8713 O   0  0  0  0  0  0  0  0  0  0  0  0
    8.1108  -18.1105   26.7033 O   0  0  0  0  0  0  0  0  0  0  0  0
  2  1  1  0
  2  4  1  0
  3  2  2  0
  5  4  1  0
  6  5  1  0
  6  7  1  1
  8  6  1  0
  8  9  2  0
 11 10  1  0
 12 11  1  0
 12 14  1  0
 12 13  1  1
 14 15  1  6
 15  8  1  0
 16 14  1  0
 17 16  2  0
 18 19  1  0
 20 19  1  0
 20 22  1  0
 20 21  1  1
 22 23  1  6
 22 24  1  0
 23 16  1  0
 24 26  1  0
 25 24  2  0
M  END
$$$$
