QII.pdb
     RDKit          3D

 26 25  0  0  1  0  0  0  0  0999 V2000
    9.9716  -21.5409   19.2595 N   0  0  0  0  0  0  0  0  0  0  0  0
   10.6653  -20.3931   18.8262 C   0  0  0  0  0  0  0  0  0  0  0  0
   11.6966  -20.5265   18.1195 O   0  0  0  0  0  0  0  0  0  0  0  0
   10.1374  -19.0644   19.2310 C   0  0  0  0  0  0  0  0  0  0  0  0
    8.9082  -19.2129   20.1176 C   0  0  0  0  0  0  0  0  0  0  0  0
    9.3270  -18.7549   21.5103 C   0  0  2  0  0  0  0  0  0  0  0  0
    8.2162  -19.0100   22.3921 N   0  0  0  0  0  0  0  0  0  0  0  0
    9.7072  -17.3287   21.5253 C   0  0  0  0  0  0  0  0  0  0  0  0
   10.8024  -16.9924   21.0298 O   0  0  0  0  0  0  0  0  0  0  0  0
    6.3990  -13.4616   20.0656 C   0  0  0  0  0  0  0  0  0  0  0  0
    7.6404  -14.2581   20.3815 C   0  0  0  0  0  0  0  0  0  0  0  0
    8.0208  -14.1545   21.8187 C   0  0  2  0  0  0  0  0  0  0  0  0
    8.3303  -12.7032   22.1975 C   0  0  0  0  0  0  0  0  0  0  0  0
    9.2379  -14.9557   22.2149 C   0  0  2  0  0  0  0  0  0  0  0  0
    8.8633  -16.3549   22.0833 N   0  0  0  0  0  0  0  0  0  0  0  0
    9.5392  -14.6325   23.6358 C   0  0  0  0  0  0  0  0  0  0  0  0
   10.4137  -13.7529   23.8434 O   0  0  0  0  0  0  0  0  0  0  0  0
    6.7368  -12.0719   26.5287 C   0  0  0  0  0  0  0  0  0  0  0  0
    7.8430  -12.8870   25.9934 C   0  0  0  0  0  0  0  0  0  0  0  0
    8.3465  -14.0508   26.7213 C   0  0  2  0  0  0  0  0  0  0  0  0
    8.7162  -13.6868   28.1772 C   0  0  0  0  0  0  0  0  0  0  0  0
    9.3678  -14.9190   26.1133 C   0  0  2  0  0  0  0  0  0  0  0  0
    8.9104  -15.2465   24.7210 N   0  0  0  0  0  0  0  0  0  0  0  0
    9.7272  -16.1850   26.7696 C   0  0  0  0  0  0  0  0  0  0  0  0
    9.1954  -17.2958   26.5639 O   0  0  0  0  0  0  0  0  0  0  0  0
   10.7648  -16.2154   27.7345 O   0  0  0  0  0  0  0  0  0  0  0  0
  2  1  1  0
  2  4  1  0
  3  2  2  0
  5  4  1  0
  6  5  1  0
  6  7  1  1
  8  6  1  0
  8  9  2  0
 11 10  1  0
 12 11  1  0
 12 14  1  0
 12 13  1  6
 14 15  1  1
 15  8  1  0
 16 14  1  0
 17 16  2  0
 18 19  1  0
 20 19  1  0
 20 22  1  0
 20 21  1  1
 22 23  1  6
 22 24  1  0
 23 16  1  0
 24 26  1  0
 25 24  2  0
M  END
$$$$
