QII.pdb
     RDKit          3D

 26 25  0  0  1  0  0  0  0  0999 V2000
    7.7861  -18.5649   19.4347 N   0  0  0  0  0  0  0  0  0  0  0  0
    7.8187  -18.4187   20.8361 C   0  0  0  0  0  0  0  0  0  0  0  0
    8.1530  -19.3980   21.5502 O   0  0  0  0  0  0  0  0  0  0  0  0
    7.4518  -17.0975   21.4086 C   0  0  0  0  0  0  0  0  0  0  0  0
    7.7238  -15.9773   20.4135 C   0  0  0  0  0  0  0  0  0  0  0  0
    7.3212  -14.6809   21.1079 C   0  0  2  0  0  0  0  0  0  0  0  0
    7.4838  -13.6181   20.1482 N   0  0  0  0  0  0  0  0  0  0  0  0
    8.1273  -14.4369   22.3200 C   0  0  0  0  0  0  0  0  0  0  0  0
    9.3253  -14.1110   22.1908 O   0  0  0  0  0  0  0  0  0  0  0  0
    5.8846  -11.6297   26.1844 C   0  0  0  0  0  0  0  0  0  0  0  0
    6.8965  -12.2531   25.2556 C   0  0  0  0  0  0  0  0  0  0  0  0
    7.3672  -13.5780   25.7494 C   0  0  2  0  0  0  0  0  0  0  0  0
    8.1074  -13.4316   27.0822 C   0  0  0  0  0  0  0  0  0  0  0  0
    8.3165  -14.3020   24.8246 C   0  0  2  0  0  0  0  0  0  0  0  0
    7.5718  -14.5649   23.6033 N   0  0  0  0  0  0  0  0  0  0  0  0
    8.6927  -15.5805   25.4863 C   0  0  0  0  0  0  0  0  0  0  0  0
    7.7855  -16.4428   25.6096 O   0  0  0  0  0  0  0  0  0  0  0  0
   12.8189  -17.8447   23.4430 C   0  0  0  0  0  0  0  0  0  0  0  0
   11.5764  -17.5672   24.1872 C   0  0  0  0  0  0  0  0  0  0  0  0
   11.5329  -17.6530   25.6462 C   0  0  2  0  0  0  0  0  0  0  0  0
   12.0718  -19.0128   26.1458 C   0  0  0  0  0  0  0  0  0  0  0  0
   10.3149  -17.2625   26.3745 C   0  0  2  0  0  0  0  0  0  0  0  0
    9.9749  -15.8585   25.9642 N   0  0  0  0  0  0  0  0  0  0  0  0
   10.3029  -17.3085   27.8444 C   0  0  0  0  0  0  0  0  0  0  0  0
   10.5241  -16.3482   28.6111 O   0  0  0  0  0  0  0  0  0  0  0  0
   10.0211  -18.5250   28.5147 O   0  0  0  0  0  0  0  0  0  0  0  0
  2  1  1  0
  2  4  1  0
  3  2  2  0
  5  4  1  0
  6  5  1  0
  6  7  1  6
  8  6  1  0
  8  9  2  0
 11 10  1  0
 12 11  1  0
 12 14  1  0
 12 13  1  1
 14 15  1  6
 15  8  1  0
 16 14  1  0
 17 16  2  0
 18 19  1  0
 20 19  1  0
 20 22  1  0
 20 21  1  6
 22 23  1  1
 22 24  1  0
 23 16  1  0
 24 26  1  0
 25 24  2  0
M  END
$$$$
