QII.pdb
     RDKit          3D

 26 25  0  0  1  0  0  0  0  0999 V2000
   12.0758  -22.3118   21.6563 N   0  0  0  0  0  0  0  0  0  0  0  0
   12.6041  -21.0235   21.4387 C   0  0  0  0  0  0  0  0  0  0  0  0
   13.7946  -20.7827   21.7637 O   0  0  0  0  0  0  0  0  0  0  0  0
   11.7172  -19.9995   20.8281 C   0  0  0  0  0  0  0  0  0  0  0  0
   12.4100  -18.6447   20.7666 C   0  0  0  0  0  0  0  0  0  0  0  0
   11.4390  -17.6987   20.0688 C   0  0  2  0  0  0  0  0  0  0  0  0
   12.0697  -17.2705   18.8458 N   0  0  0  0  0  0  0  0  0  0  0  0
   11.0884  -16.5472   20.9231 C   0  0  0  0  0  0  0  0  0  0  0  0
   11.9431  -15.6580   21.1153 O   0  0  0  0  0  0  0  0  0  0  0  0
    6.6595  -13.8402   20.1901 C   0  0  0  0  0  0  0  0  0  0  0  0
    8.0618  -14.1775   20.6318 C   0  0  0  0  0  0  0  0  0  0  0  0
    8.0800  -14.8860   21.9428 C   0  0  2  0  0  0  0  0  0  0  0  0
    7.5448  -13.9831   23.0580 C   0  0  0  0  0  0  0  0  0  0  0  0
    9.4440  -15.3459   22.3994 C   0  0  2  0  0  0  0  0  0  0  0  0
    9.8205  -16.4388   21.5166 N   0  0  0  0  0  0  0  0  0  0  0  0
    9.3026  -15.8357   23.7974 C   0  0  0  0  0  0  0  0  0  0  0  0
    9.1621  -17.0759   23.9515 O   0  0  0  0  0  0  0  0  0  0  0  0
   10.2560  -13.6431   29.5828 C   0  0  0  0  0  0  0  0  0  0  0  0
   10.2861  -14.7072   28.5624 C   0  0  0  0  0  0  0  0  0  0  0  0
    9.8172  -14.4622   27.1993 C   0  0  2  0  0  0  0  0  0  0  0  0
    8.5761  -13.5410   27.1887 C   0  0  0  0  0  0  0  0  0  0  0  0
    9.6567  -15.5833   26.2592 C   0  0  2  0  0  0  0  0  0  0  0  0
    9.3185  -15.0011   24.9169 N   0  0  0  0  0  0  0  0  0  0  0  0
    8.6693  -16.6346   26.5463 C   0  0  0  0  0  0  0  0  0  0  0  0
    7.4860  -16.6592   26.1487 O   0  0  0  0  0  0  0  0  0  0  0  0
    9.0307  -17.7504   27.3420 O   0  0  0  0  0  0  0  0  0  0  0  0
  2  1  1  0
  2  4  1  0
  3  2  2  0
  5  4  1  0
  6  5  1  0
  6  7  1  6
  8  6  1  0
  8  9  2  0
 11 10  1  0
 12 11  1  0
 12 14  1  0
 12 13  1  1
 14 15  1  6
 15  8  1  0
 16 14  1  0
 17 16  2  0
 18 19  1  0
 20 19  1  0
 20 22  1  0
 20 21  1  1
 22 23  1  6
 22 24  1  0
 23 16  1  0
 24 26  1  0
 25 24  2  0
M  END
$$$$
