HEM.pdb
     RDKit          3D

 28 28  0  0  1  0  0  0  0  0999 V2000
   10.1658  -15.6506   19.1793 N   0  0  0  0  0  0  0  0  0  0  0  0
    8.9528  -15.3705   19.9258 C   0  0  1  0  0  0  0  0  0  0  0  0
    7.7921  -15.7402   19.0203 C   0  0  0  0  0  0  0  0  0  0  0  0
    7.8393  -14.8010   17.8689 C   0  0  0  0  0  0  0  0  0  0  0  0
    8.8048  -13.8334   17.6757 C   0  0  0  0  0  0  0  0  0  0  0  0
    8.5558  -13.1531   16.5492 N   0  0  0  0  0  0  0  0  0  0  0  0
    7.4447  -13.6766   16.0258 C   0  0  0  0  0  0  0  0  0  0  0  0
    6.9935  -14.6912   16.8289 N   0  0  0  0  0  0  0  0  0  0  0  0
    8.9341  -16.0973   21.2211 C   0  0  0  0  0  0  0  0  0  0  0  0
    7.9064  -16.0300   21.9419 O   0  0  0  0  0  0  0  0  0  0  0  0
   10.0913  -16.8245   21.5619 N   0  0  0  0  0  0  0  0  0  0  0  0
   10.2420  -17.4192   22.8520 C   0  0  1  0  0  0  0  0  0  0  0  0
   11.3901  -18.3629   23.0005 C   0  0  0  0  0  0  0  0  0  0  0  0
   11.5227  -19.0037   24.3340 C   0  0  0  0  0  0  0  0  0  0  0  0
   12.6647  -19.9034   24.5056 C   0  0  0  0  0  0  0  0  0  0  0  0
   12.5119  -21.1309   24.8169 O   0  0  0  0  0  0  0  0  0  0  0  0
   10.3115  -16.3485   23.9004 C   0  0  0  0  0  0  0  0  0  0  0  0
   11.0934  -15.3681   23.8004 O   0  0  0  0  0  0  0  0  0  0  0  0
   13.9677  -19.4152   24.3259 O   0  0  0  0  0  0  0  0  0  0  0  0
    6.3039  -11.0304   27.3321 C   0  0  0  0  0  0  0  0  0  0  0  0
    6.3519  -12.6996   26.7326 S   0  0  0  0  0  0  0  0  0  0  0  0
    7.8809  -13.5902   26.9301 C   0  0  0  0  0  0  0  0  0  0  0  0
    8.1518  -14.6469   25.9115 C   0  0  0  0  0  0  0  0  0  0  0  0
    9.4446  -15.3654   26.0420 C   0  0  2  0  0  0  0  0  0  0  0  0
    9.4819  -16.4342   25.0342 N   0  0  0  0  0  0  0  0  0  0  0  0
    9.6317  -15.9525   27.4046 C   0  0  0  0  0  0  0  0  0  0  0  0
    9.8340  -15.1692   28.4011 O   0  0  0  0  0  0  0  0  0  0  0  0
    9.6072  -17.2868   27.6935 O   0  0  0  0  0  0  0  0  0  0  0  0
  2  9  1  0
  2  1  1  6
  3  2  1  0
  4  8  1  0
  4  3  1  0
  5  4  2  0
  6  5  1  0
  6  7  1  0
  7  8  2  0
  9 11  1  0
 10  9  2  0
 11 12  1  0
 12 13  1  6
 13 14  1  0
 15 14  1  0
 15 19  1  0
 16 15  2  0
 17 18  2  0
 17 12  1  0
 20 21  1  0
 21 22  1  0
 22 23  1  0
 24 23  1  1
 24 26  1  0
 24 25  1  0
 25 17  1  0
 26 28  1  0
 27 26  2  0
M  END
$$$$
