HEM.pdb
     RDKit          3D

 28 28  0  0  1  0  0  0  0  0999 V2000
    7.5712  -16.8599   18.9011 N   0  0  0  0  0  0  0  0  0  0  0  0
    8.0673  -15.8892   19.8597 C   0  0  1  0  0  0  0  0  0  0  0  0
    7.2185  -14.6422   19.6915 C   0  0  0  0  0  0  0  0  0  0  0  0
    7.5788  -14.0613   18.3713 C   0  0  0  0  0  0  0  0  0  0  0  0
    8.2540  -12.8714   18.1878 C   0  0  0  0  0  0  0  0  0  0  0  0
    8.4143  -12.6299   16.8801 N   0  0  0  0  0  0  0  0  0  0  0  0
    7.8491  -13.6515   16.2322 C   0  0  0  0  0  0  0  0  0  0  0  0
    7.3307  -14.5388   17.1387 N   0  0  0  0  0  0  0  0  0  0  0  0
    8.0381  -16.4302   21.2427 C   0  0  0  0  0  0  0  0  0  0  0  0
    6.9931  -16.2930   21.9279 O   0  0  0  0  0  0  0  0  0  0  0  0
    9.2054  -17.0703   21.7027 N   0  0  0  0  0  0  0  0  0  0  0  0
    9.2966  -17.5831   23.0330 C   0  0  1  0  0  0  0  0  0  0  0  0
   10.2513  -18.7152   23.2271 C   0  0  0  0  0  0  0  0  0  0  0  0
   10.3782  -19.2126   24.6210 C   0  0  0  0  0  0  0  0  0  0  0  0
   11.4280  -20.2051   24.8576 C   0  0  0  0  0  0  0  0  0  0  0  0
   11.2244  -21.2402   25.5747 O   0  0  0  0  0  0  0  0  0  0  0  0
    9.6120  -16.4690   23.9867 C   0  0  0  0  0  0  0  0  0  0  0  0
   10.5404  -15.6484   23.7689 O   0  0  0  0  0  0  0  0  0  0  0  0
   12.6967  -20.0250   24.2864 O   0  0  0  0  0  0  0  0  0  0  0  0
    6.7885  -10.5371   27.2207 C   0  0  0  0  0  0  0  0  0  0  0  0
    6.5370  -12.2860   27.3821 S   0  0  0  0  0  0  0  0  0  0  0  0
    7.9776  -13.3271   27.2787 C   0  0  0  0  0  0  0  0  0  0  0  0
    7.9168  -14.4189   26.2628 C   0  0  0  0  0  0  0  0  0  0  0  0
    9.1318  -15.2629   26.1359 C   0  0  2  0  0  0  0  0  0  0  0  0
    8.8531  -16.3291   25.1638 N   0  0  0  0  0  0  0  0  0  0  0  0
    9.5411  -15.8671   27.4412 C   0  0  0  0  0  0  0  0  0  0  0  0
    9.3538  -17.1218   27.6360 O   0  0  0  0  0  0  0  0  0  0  0  0
   10.1122  -15.1841   28.4765 O   0  0  0  0  0  0  0  0  0  0  0  0
  2  9  1  0
  2  1  1  6
  3  2  1  0
  4  8  1  0
  4  3  1  0
  5  4  2  0
  6  5  1  0
  6  7  1  0
  7  8  2  0
  9 11  1  0
 10  9  2  0
 11 12  1  0
 12 13  1  6
 13 14  1  0
 15 14  1  0
 15 19  1  0
 16 15  2  0
 17 18  2  0
 17 12  1  0
 20 21  1  0
 21 22  1  0
 22 23  1  0
 24 23  1  1
 24 26  1  0
 24 25  1  0
 25 17  1  0
 26 28  1  0
 27 26  2  0
M  END
$$$$
