HEM.pdb
     RDKit          3D

 28 28  0  0  1  0  0  0  0  0999 V2000
    7.3784  -16.5360   19.2257 N   0  0  0  0  0  0  0  0  0  0  0  0
    8.4804  -15.8451   19.8703 C   0  0  1  0  0  0  0  0  0  0  0  0
    8.2576  -14.3621   19.6363 C   0  0  0  0  0  0  0  0  0  0  0  0
    8.3342  -14.1504   18.1668 C   0  0  0  0  0  0  0  0  0  0  0  0
    7.4754  -13.3544   17.4358 C   0  0  0  0  0  0  0  0  0  0  0  0
    7.8114  -13.3837   16.1396 N   0  0  0  0  0  0  0  0  0  0  0  0
    8.8722  -14.1884   16.0393 C   0  0  0  0  0  0  0  0  0  0  0  0
    9.2033  -14.6672   17.2799 N   0  0  0  0  0  0  0  0  0  0  0  0
    8.5736  -16.1991   21.3098 C   0  0  0  0  0  0  0  0  0  0  0  0
    7.6261  -15.8886   22.0754 O   0  0  0  0  0  0  0  0  0  0  0  0
    9.7397  -16.8690   21.7283 N   0  0  0  0  0  0  0  0  0  0  0  0
    9.8888  -17.3326   23.0714 C   0  0  1  0  0  0  0  0  0  0  0  0
   10.9872  -18.3189   23.2984 C   0  0  0  0  0  0  0  0  0  0  0  0
   11.0981  -18.8448   24.6831 C   0  0  0  0  0  0  0  0  0  0  0  0
   12.1711  -19.8119   24.9208 C   0  0  0  0  0  0  0  0  0  0  0  0
   13.4011  -19.4856   24.8330 O   0  0  0  0  0  0  0  0  0  0  0  0
   10.0416  -16.1634   23.9988 C   0  0  0  0  0  0  0  0  0  0  0  0
   10.8951  -15.2612   23.7983 O   0  0  0  0  0  0  0  0  0  0  0  0
   11.8519  -21.1366   25.2547 O   0  0  0  0  0  0  0  0  0  0  0  0
    5.6175  -12.0324   26.4214 C   0  0  0  0  0  0  0  0  0  0  0  0
    7.2940  -11.5543   26.7507 S   0  0  0  0  0  0  0  0  0  0  0  0
    8.4791  -12.8609   26.9923 C   0  0  0  0  0  0  0  0  0  0  0  0
    8.4210  -13.9794   26.0058 C   0  0  0  0  0  0  0  0  0  0  0  0
    9.4407  -15.0467   26.1659 C   0  0  2  0  0  0  0  0  0  0  0  0
    9.2104  -16.0635   25.1303 N   0  0  0  0  0  0  0  0  0  0  0  0
    9.3864  -15.6843   27.5175 C   0  0  0  0  0  0  0  0  0  0  0  0
    8.8225  -16.8301   27.6466 O   0  0  0  0  0  0  0  0  0  0  0  0
    9.8967  -15.1413   28.6617 O   0  0  0  0  0  0  0  0  0  0  0  0
  2  9  1  0
  2  1  1  1
  3  2  1  0
  4  8  1  0
  4  3  1  0
  5  4  2  0
  6  5  1  0
  6  7  1  0
  7  8  2  0
  9 11  1  0
 10  9  2  0
 11 12  1  0
 12 13  1  6
 13 14  1  0
 15 14  1  0
 15 19  1  0
 16 15  2  0
 17 18  2  0
 17 12  1  0
 20 21  1  0
 21 22  1  0
 22 23  1  0
 24 23  1  1
 24 26  1  0
 24 25  1  0
 25 17  1  0
 26 28  1  0
 27 26  2  0
M  END
$$$$
