HEM.pdb
     RDKit          3D

 28 28  0  0  1  0  0  0  0  0999 V2000
    9.4768  -16.0863   18.6670 N   0  0  0  0  0  0  0  0  0  0  0  0
    8.6125  -15.2505   19.4804 C   0  0  1  0  0  0  0  0  0  0  0  0
    7.2811  -15.1706   18.7560 C   0  0  0  0  0  0  0  0  0  0  0  0
    7.5570  -14.5516   17.4329 C   0  0  0  0  0  0  0  0  0  0  0  0
    7.8446  -13.2171   17.2278 C   0  0  0  0  0  0  0  0  0  0  0  0
    8.0349  -12.9824   15.9230 N   0  0  0  0  0  0  0  0  0  0  0  0
    7.8714  -14.1509   15.2980 C   0  0  0  0  0  0  0  0  0  0  0  0
    7.5762  -15.1245   16.2161 N   0  0  0  0  0  0  0  0  0  0  0  0
    8.4915  -15.7804   20.8627 C   0  0  0  0  0  0  0  0  0  0  0  0
    7.6504  -15.2637   21.6410 O   0  0  0  0  0  0  0  0  0  0  0  0
    9.3446  -16.8442   21.2156 N   0  0  0  0  0  0  0  0  0  0  0  0
    9.2644  -17.4665   22.4991 C   0  0  1  0  0  0  0  0  0  0  0  0
   10.0326  -18.7383   22.6519 C   0  0  0  0  0  0  0  0  0  0  0  0
   11.1167  -18.9535   21.6595 C   0  0  0  0  0  0  0  0  0  0  0  0
   11.8631  -20.2068   21.7827 C   0  0  0  0  0  0  0  0  0  0  0  0
   12.5610  -20.4742   22.8164 O   0  0  0  0  0  0  0  0  0  0  0  0
    9.6633  -16.4883   23.5642 C   0  0  0  0  0  0  0  0  0  0  0  0
   10.7157  -15.8042   23.4800 O   0  0  0  0  0  0  0  0  0  0  0  0
   11.8184  -21.1478   20.7431 O   0  0  0  0  0  0  0  0  0  0  0  0
    6.9695  -10.6563   27.8406 C   0  0  0  0  0  0  0  0  0  0  0  0
    6.8093  -12.0532   26.7586 S   0  0  0  0  0  0  0  0  0  0  0  0
    8.1542  -13.2196   26.7327 C   0  0  0  0  0  0  0  0  0  0  0  0
    8.0397  -14.3190   25.7298 C   0  0  0  0  0  0  0  0  0  0  0  0
    9.1413  -15.3145   25.7215 C   0  0  2  0  0  0  0  0  0  0  0  0
    8.8429  -16.3238   24.6960 N   0  0  0  0  0  0  0  0  0  0  0  0
    9.3123  -15.9817   27.0489 C   0  0  0  0  0  0  0  0  0  0  0  0
    8.9027  -17.1887   27.1999 O   0  0  0  0  0  0  0  0  0  0  0  0
    9.8807  -15.4055   28.1486 O   0  0  0  0  0  0  0  0  0  0  0  0
  2  9  1  0
  2  1  1  6
  3  2  1  0
  4  8  1  0
  4  3  1  0
  5  4  2  0
  6  5  1  0
  6  7  1  0
  7  8  2  0
  9 11  1  0
 10  9  2  0
 11 12  1  0
 12 13  1  6
 13 14  1  0
 15 14  1  0
 15 19  1  0
 16 15  2  0
 17 18  2  0
 17 12  1  0
 20 21  1  0
 21 22  1  0
 22 23  1  0
 24 23  1  1
 24 26  1  0
 24 25  1  0
 25 17  1  0
 26 28  1  0
 27 26  2  0
M  END
$$$$
