HEM.pdb
     RDKit          3D

 28 28  0  0  1  0  0  0  0  0999 V2000
   10.0108  -19.1520   17.8288 N   0  0  0  0  0  0  0  0  0  0  0  0
    9.9617  -17.8255   18.4165 C   0  0  1  0  0  0  0  0  0  0  0  0
    9.1865  -16.9513   17.4476 C   0  0  0  0  0  0  0  0  0  0  0  0
    9.9489  -16.9570   16.1713 C   0  0  0  0  0  0  0  0  0  0  0  0
   11.0985  -16.2311   15.9327 C   0  0  0  0  0  0  0  0  0  0  0  0
   11.5321  -16.4523   14.6849 N   0  0  0  0  0  0  0  0  0  0  0  0
   10.6719  -17.3090   14.1292 C   0  0  0  0  0  0  0  0  0  0  0  0
    9.6926  -17.6269   15.0335 N   0  0  0  0  0  0  0  0  0  0  0  0
    9.3647  -17.8573   19.7762 C   0  0  0  0  0  0  0  0  0  0  0  0
    8.1135  -17.8232   19.8924 O   0  0  0  0  0  0  0  0  0  0  0  0
   10.2571  -17.9225   20.8639 N   0  0  0  0  0  0  0  0  0  0  0  0
    9.7869  -18.0998   22.2013 C   0  0  1  0  0  0  0  0  0  0  0  0
   10.3795  -19.2485   22.9497 C   0  0  0  0  0  0  0  0  0  0  0  0
   10.4907  -20.5187   22.1879 C   0  0  0  0  0  0  0  0  0  0  0  0
   11.0095  -21.6704   22.9280 C   0  0  0  0  0  0  0  0  0  0  0  0
   11.3675  -21.5784   24.1488 O   0  0  0  0  0  0  0  0  0  0  0  0
    9.9663  -16.8278   22.9761 C   0  0  0  0  0  0  0  0  0  0  0  0
   11.0090  -16.1306   22.8797 O   0  0  0  0  0  0  0  0  0  0  0  0
   11.1212  -22.9145   22.2893 O   0  0  0  0  0  0  0  0  0  0  0  0
    6.0464  -11.1366   26.9204 C   0  0  0  0  0  0  0  0  0  0  0  0
    6.1249  -12.6273   25.9615 S   0  0  0  0  0  0  0  0  0  0  0  0
    7.7227  -13.3901   25.7747 C   0  0  0  0  0  0  0  0  0  0  0  0
    7.7746  -14.5712   24.8637 C   0  0  0  0  0  0  0  0  0  0  0  0
    9.1068  -15.2023   24.6859 C   0  0  2  0  0  0  0  0  0  0  0  0
    8.9438  -16.3929   23.8399 N   0  0  0  0  0  0  0  0  0  0  0  0
    9.7274  -15.5928   25.9892 C   0  0  0  0  0  0  0  0  0  0  0  0
    9.6623  -16.8163   26.3716 O   0  0  0  0  0  0  0  0  0  0  0  0
   10.3758  -14.7398   26.8356 O   0  0  0  0  0  0  0  0  0  0  0  0
  2  9  1  0
  2  1  1  6
  3  2  1  0
  4  8  1  0
  4  3  1  0
  5  4  2  0
  6  5  1  0
  6  7  1  0
  7  8  2  0
  9 11  1  0
 10  9  2  0
 11 12  1  0
 12 13  1  1
 13 14  1  0
 15 14  1  0
 15 19  1  0
 16 15  2  0
 17 18  2  0
 17 12  1  0
 20 21  1  0
 21 22  1  0
 22 23  1  0
 24 23  1  1
 24 26  1  0
 24 25  1  0
 25 17  1  0
 26 28  1  0
 27 26  2  0
M  END
$$$$
