HEM.pdb
     RDKit          3D

 28 28  0  0  1  0  0  0  0  0999 V2000
    6.7572  -15.9712   20.9368 N   0  0  0  0  0  0  0  0  0  0  0  0
    8.1136  -15.6300   21.3253 C   0  0  1  0  0  0  0  0  0  0  0  0
    8.2651  -14.1363   21.1020 C   0  0  0  0  0  0  0  0  0  0  0  0
    8.0807  -13.9066   19.6448 C   0  0  0  0  0  0  0  0  0  0  0  0
    7.2336  -12.9669   19.0926 C   0  0  0  0  0  0  0  0  0  0  0  0
    7.2955  -13.0203   17.7557 N   0  0  0  0  0  0  0  0  0  0  0  0
    8.1708  -13.9822   17.4532 C   0  0  0  0  0  0  0  0  0  0  0  0
    8.6606  -14.5358   18.6071 N   0  0  0  0  0  0  0  0  0  0  0  0
    8.3955  -16.0402   22.7247 C   0  0  0  0  0  0  0  0  0  0  0  0
    7.6919  -15.5648   23.6517 O   0  0  0  0  0  0  0  0  0  0  0  0
    9.4531  -16.9492   22.9229 N   0  0  0  0  0  0  0  0  0  0  0  0
   10.2893  -16.8756   24.0789 C   0  0  1  0  0  0  0  0  0  0  0  0
   11.7438  -17.1197   23.8433 C   0  0  0  0  0  0  0  0  0  0  0  0
   12.1324  -18.5419   23.6624 C   0  0  0  0  0  0  0  0  0  0  0  0
   13.5498  -18.7936   23.3967 C   0  0  0  0  0  0  0  0  0  0  0  0
   14.3805  -19.0168   24.3386 O   0  0  0  0  0  0  0  0  0  0  0  0
   10.0892  -15.5583   24.7681 C   0  0  0  0  0  0  0  0  0  0  0  0
    9.2051  -14.7420   24.4011 O   0  0  0  0  0  0  0  0  0  0  0  0
   14.0205  -18.7920   22.0751 O   0  0  0  0  0  0  0  0  0  0  0  0
    6.0454  -13.1165   27.2983 C   0  0  0  0  0  0  0  0  0  0  0  0
    7.2418  -12.5377   26.1231 S   0  0  0  0  0  0  0  0  0  0  0  0
    8.8432  -13.3157   26.1434 C   0  0  0  0  0  0  0  0  0  0  0  0
    8.9929  -14.4667   27.0818 C   0  0  0  0  0  0  0  0  0  0  0  0
   10.3591  -15.0339   27.2087 C   0  0  2  0  0  0  0  0  0  0  0  0
   10.9103  -15.2153   25.8586 N   0  0  0  0  0  0  0  0  0  0  0  0
   10.3646  -16.3417   27.9339 C   0  0  0  0  0  0  0  0  0  0  0  0
    9.4793  -17.2236   27.6407 O   0  0  0  0  0  0  0  0  0  0  0  0
   11.2523  -16.6931   28.9102 O   0  0  0  0  0  0  0  0  0  0  0  0
  2  9  1  0
  2  1  1  1
  3  2  1  0
  4  8  1  0
  4  3  1  0
  5  4  2  0
  6  5  1  0
  6  7  1  0
  7  8  2  0
  9 11  1  0
 10  9  2  0
 11 12  1  0
 12 13  1  6
 13 14  1  0
 15 14  1  0
 15 19  1  0
 16 15  2  0
 17 18  2  0
 17 12  1  0
 20 21  1  0
 21 22  1  0
 22 23  1  0
 24 23  1  6
 24 26  1  0
 24 25  1  0
 25 17  1  0
 26 28  1  0
 27 26  2  0
M  END
$$$$
