WCY.pdb
     RDKit          3D

 33 35  0  0  1  0  0  0  0  0999 V2000
   26.7987  -21.0202  -18.5250 N   0  0  0  0  0  0  0  0  0  0  0  0
   26.9563  -20.0968  -17.4312 C   0  0  1  0  0  0  0  0  0  0  0  0
   25.8993  -19.0554  -17.4514 C   0  0  0  0  0  0  0  0  0  0  0  0
   25.8908  -18.1990  -18.6524 C   0  0  0  0  0  0  0  0  0  0  0  0
   24.7770  -17.8968  -19.4465 C   0  0  0  0  0  0  0  0  0  0  0  0
   25.1565  -17.0705  -20.4244 N   0  0  0  0  0  0  0  0  0  0  0  0
   26.4636  -16.7994  -20.3342 C   0  0  0  0  0  0  0  0  0  0  0  0
   27.3212  -16.0314  -21.0794 C   0  0  0  0  0  0  0  0  0  0  0  0
   28.6701  -15.9167  -20.7787 C   0  0  0  0  0  0  0  0  0  0  0  0
   29.0980  -16.6224  -19.6841 C   0  0  0  0  0  0  0  0  0  0  0  0
   28.2787  -17.4034  -18.9080 C   0  0  0  0  0  0  0  0  0  0  0  0
   26.9317  -17.5062  -19.2223 C   0  0  0  0  0  0  0  0  0  0  0  0
   26.9632  -20.8992  -16.1796 C   0  0  0  0  0  0  0  0  0  0  0  0
   26.1953  -21.8916  -16.0085 O   0  0  0  0  0  0  0  0  0  0  0  0
   27.8308  -20.6095  -15.0867 N   0  0  0  0  0  0  0  0  0  0  0  0
   27.6586  -21.1444  -13.7499 C   0  0  1  0  0  0  0  0  0  0  0  0
   28.9232  -20.8246  -12.9792 C   0  0  0  0  0  0  0  0  0  0  0  0
   28.8670  -19.0339  -12.6208 S   0  0  0  0  0  0  0  0  0  0  0  0
   26.4787  -20.5573  -13.0661 C   0  0  0  0  0  0  0  0  0  0  0  0
   25.8763  -19.6197  -13.6444 O   0  0  0  0  0  0  0  0  0  0  0  0
   18.8320  -19.0156   -9.4577 O   0  0  0  0  0  0  0  0  0  0  0  0
   20.0157  -19.4791  -10.0586 C   0  0  0  0  0  0  0  0  0  0  0  0
   20.6017  -20.6654   -9.6661 C   0  0  0  0  0  0  0  0  0  0  0  0
   21.7494  -21.0905  -10.2662 C   0  0  0  0  0  0  0  0  0  0  0  0
   22.3681  -20.3683  -11.2756 C   0  0  0  0  0  0  0  0  0  0  0  0
   23.6038  -20.9122  -11.8557 C   0  0  0  0  0  0  0  0  0  0  0  0
   24.8604  -20.4560  -11.1326 C   0  0  2  0  0  0  0  0  0  0  0  0
   26.0158  -20.9989  -11.8213 N   0  0  0  0  0  0  0  0  0  0  0  0
   24.7616  -21.0245   -9.7498 C   0  0  0  0  0  0  0  0  0  0  0  0
   25.1946  -22.1808   -9.5203 O   0  0  0  0  0  0  0  0  0  0  0  0
   21.7694  -19.1870  -11.6548 C   0  0  0  0  0  0  0  0  0  0  0  0
   20.6093  -18.7446  -11.0574 C   0  0  0  0  0  0  0  0  0  0  0  0
   24.2043  -20.3196   -8.6936 O   0  0  0  0  0  0  0  0  0  0  0  0
  2  1  1  6
  3  2  1  0
  4  5  2  0
  4  3  1  0
  6  5  1  0
  7 12  2  0
  7  6  1  0
  8  7  1  0
  9 10  1  0
  9  8  2  0
 10 11  2  0
 11 12  1  0
 12  4  1  0
 13  2  1  0
 14 13  2  0
 15 13  1  0
 16 17  1  1
 16 15  1  0
 17 18  1  0
 19 16  1  0
 20 19  2  0
 22 23  2  0
 22 21  1  0
 24 23  1  0
 25 24  2  0
 27 26  1  6
 26 25  1  0
 27 28  1  0
 28 19  1  0
 29 27  1  0
 29 33  1  0
 30 29  2  0
 31 25  1  0
 31 32  2  0
 32 22  1  0
M  END
$$$$
