WCY.pdb
     RDKit          3D

 33 35  0  0  1  0  0  0  0  0999 V2000
   18.6422  -16.3023  -20.1486 N   0  0  0  0  0  0  0  0  0  0  0  0
   19.1759  -16.7118  -18.8753 C   0  0  1  0  0  0  0  0  0  0  0  0
   19.2132  -15.5776  -17.9191 C   0  0  0  0  0  0  0  0  0  0  0  0
   20.0944  -14.4612  -18.3104 C   0  0  0  0  0  0  0  0  0  0  0  0
   19.6991  -13.1389  -18.5508 C   0  0  0  0  0  0  0  0  0  0  0  0
   20.7793  -12.4143  -18.8529 N   0  0  0  0  0  0  0  0  0  0  0  0
   21.8802  -13.1743  -18.8302 C   0  0  0  0  0  0  0  0  0  0  0  0
   23.2067  -12.9203  -19.0680 C   0  0  0  0  0  0  0  0  0  0  0  0
   24.1794  -13.9054  -18.9872 C   0  0  0  0  0  0  0  0  0  0  0  0
   23.7321  -15.1575  -18.6531 C   0  0  0  0  0  0  0  0  0  0  0  0
   22.4166  -15.4603  -18.4059 C   0  0  0  0  0  0  0  0  0  0  0  0
   21.4567  -14.4627  -18.4901 C   0  0  0  0  0  0  0  0  0  0  0  0
   18.3468  -17.8507  -18.3999 C   0  0  0  0  0  0  0  0  0  0  0  0
   17.1877  -18.0798  -18.8558 O   0  0  0  0  0  0  0  0  0  0  0  0
   18.7953  -18.7622  -17.4004 N   0  0  0  0  0  0  0  0  0  0  0  0
   18.0423  -19.9217  -16.9627 C   0  0  1  0  0  0  0  0  0  0  0  0
   17.9153  -20.8438  -18.1582 C   0  0  0  0  0  0  0  0  0  0  0  0
   19.6033  -21.0556  -18.8245 S   0  0  0  0  0  0  0  0  0  0  0  0
   18.7123  -20.6259  -15.8404 C   0  0  0  0  0  0  0  0  0  0  0  0
   19.9314  -20.8980  -15.9674 O   0  0  0  0  0  0  0  0  0  0  0  0
   19.3199  -15.3340  -13.6391 O   0  0  0  0  0  0  0  0  0  0  0  0
   19.1838  -16.6970  -13.3215 C   0  0  0  0  0  0  0  0  0  0  0  0
   17.9447  -17.2583  -13.0884 C   0  0  0  0  0  0  0  0  0  0  0  0
   17.8425  -18.5826  -12.7824 C   0  0  0  0  0  0  0  0  0  0  0  0
   18.9523  -19.4094  -12.6928 C   0  0  0  0  0  0  0  0  0  0  0  0
   18.7348  -20.8225  -12.3541 C   0  0  0  0  0  0  0  0  0  0  0  0
   18.6616  -21.7294  -13.5716 C   0  0  2  0  0  0  0  0  0  0  0  0
   18.0514  -20.9940  -14.6629 N   0  0  0  0  0  0  0  0  0  0  0  0
   17.7927  -22.8814  -13.1677 C   0  0  0  0  0  0  0  0  0  0  0  0
   16.6526  -23.0095  -13.6783 O   0  0  0  0  0  0  0  0  0  0  0  0
   20.1809  -18.8325  -12.9287 C   0  0  0  0  0  0  0  0  0  0  0  0
   20.2998  -17.4953  -13.2390 C   0  0  0  0  0  0  0  0  0  0  0  0
   18.1975  -23.8289  -12.2396 O   0  0  0  0  0  0  0  0  0  0  0  0
  2  1  1  6
  3  2  1  0
  4  5  2  0
  4  3  1  0
  6  5  1  0
  7 12  2  0
  7  6  1  0
  8  7  1  0
  9 10  1  0
  9  8  2  0
 10 11  2  0
 11 12  1  0
 12  4  1  0
 13  2  1  0
 14 13  2  0
 15 13  1  0
 16 17  1  6
 16 15  1  0
 17 18  1  0
 19 16  1  0
 20 19  2  0
 22 23  2  0
 22 21  1  0
 24 23  1  0
 25 24  2  0
 27 26  1  1
 26 25  1  0
 27 28  1  0
 28 19  1  0
 29 27  1  0
 29 33  1  0
 30 29  2  0
 31 25  1  0
 31 32  2  0
 32 22  1  0
M  END
$$$$
