WCY.pdb
     RDKit          3D

 33 35  0  0  1  0  0  0  0  0999 V2000
   24.6349  -20.7974  -10.5712 N   0  0  0  0  0  0  0  0  0  0  0  0
   26.0105  -20.8083  -10.9971 C   0  0  1  0  0  0  0  0  0  0  0  0
   26.8923  -21.3801   -9.9494 C   0  0  0  0  0  0  0  0  0  0  0  0
   26.9225  -20.6275   -8.6811 C   0  0  0  0  0  0  0  0  0  0  0  0
   25.8265  -20.0269   -8.0480 C   0  0  0  0  0  0  0  0  0  0  0  0
   26.2412  -19.4649   -6.9099 N   0  0  0  0  0  0  0  0  0  0  0  0
   27.5551  -19.6525   -6.7409 C   0  0  0  0  0  0  0  0  0  0  0  0
   28.4435  -19.2781   -5.7655 C   0  0  0  0  0  0  0  0  0  0  0  0
   29.7922  -19.5950   -5.8259 C   0  0  0  0  0  0  0  0  0  0  0  0
   30.1871  -20.3098   -6.9270 C   0  0  0  0  0  0  0  0  0  0  0  0
   29.3363  -20.7070   -7.9279 C   0  0  0  0  0  0  0  0  0  0  0  0
   27.9899  -20.3825   -7.8512 C   0  0  0  0  0  0  0  0  0  0  0  0
   26.0647  -21.5574  -12.2803 C   0  0  0  0  0  0  0  0  0  0  0  0
   25.8114  -22.7962  -12.3511 O   0  0  0  0  0  0  0  0  0  0  0  0
   26.4051  -20.9374  -13.5174 N   0  0  0  0  0  0  0  0  0  0  0  0
   26.5230  -21.6480  -14.7760 C   0  0  1  0  0  0  0  0  0  0  0  0
   25.1717  -22.2715  -15.0603 C   0  0  0  0  0  0  0  0  0  0  0  0
   23.9326  -20.9563  -14.7902 S   0  0  0  0  0  0  0  0  0  0  0  0
   26.9155  -20.7450  -15.8873 C   0  0  0  0  0  0  0  0  0  0  0  0
   26.1624  -19.7734  -16.1429 O   0  0  0  0  0  0  0  0  0  0  0  0
   26.2170  -14.7943  -14.8176 O   0  0  0  0  0  0  0  0  0  0  0  0
   26.9953  -15.8235  -15.3763 C   0  0  0  0  0  0  0  0  0  0  0  0
   27.2784  -15.8554  -16.7268 C   0  0  0  0  0  0  0  0  0  0  0  0
   28.0354  -16.8655  -17.2413 C   0  0  0  0  0  0  0  0  0  0  0  0
   28.5449  -17.8849  -16.4511 C   0  0  0  0  0  0  0  0  0  0  0  0
   29.3475  -18.9286  -17.1036 C   0  0  0  0  0  0  0  0  0  0  0  0
   28.5092  -20.0405  -17.7125 C   0  0  2  0  0  0  0  0  0  0  0  0
   28.0736  -20.9284  -16.6514 N   0  0  0  0  0  0  0  0  0  0  0  0
   29.4196  -20.7635  -18.6579 C   0  0  0  0  0  0  0  0  0  0  0  0
   29.6859  -21.9749  -18.4609 O   0  0  0  0  0  0  0  0  0  0  0  0
   28.2526  -17.8371  -15.1057 C   0  0  0  0  0  0  0  0  0  0  0  0
   27.4888  -16.8225  -14.5714 C   0  0  0  0  0  0  0  0  0  0  0  0
   29.9912  -20.1450  -19.7596 O   0  0  0  0  0  0  0  0  0  0  0  0
  2  1  1  1
  3  2  1  0
  4  5  2  0
  4  3  1  0
  6  5  1  0
  7 12  2  0
  7  6  1  0
  8  7  1  0
  9 10  1  0
  9  8  2  0
 10 11  2  0
 11 12  1  0
 12  4  1  0
 13  2  1  0
 14 13  2  0
 15 13  1  0
 16 17  1  6
 16 15  1  0
 17 18  1  0
 19 16  1  0
 20 19  2  0
 22 23  2  0
 22 21  1  0
 24 23  1  0
 25 24  2  0
 27 26  1  1
 26 25  1  0
 27 28  1  0
 28 19  1  0
 29 27  1  0
 29 33  1  0
 30 29  2  0
 31 25  1  0
 31 32  2  0
 32 22  1  0
M  END
$$$$
