WCY.pdb
     RDKit          3D

 33 35  0  0  1  0  0  0  0  0999 V2000
   22.3570  -21.1680  -19.1082 N   0  0  0  0  0  0  0  0  0  0  0  0
   21.4276  -20.2111  -18.5656 C   0  0  1  0  0  0  0  0  0  0  0  0
   20.1784  -20.1632  -19.3653 C   0  0  0  0  0  0  0  0  0  0  0  0
   20.3392  -19.6622  -20.7434 C   0  0  0  0  0  0  0  0  0  0  0  0
   20.4018  -20.4414  -21.9059 C   0  0  0  0  0  0  0  0  0  0  0  0
   20.5213  -19.6319  -22.9612 N   0  0  0  0  0  0  0  0  0  0  0  0
   20.5432  -18.3511  -22.5749 C   0  0  0  0  0  0  0  0  0  0  0  0
   20.6546  -17.1636  -23.2518 C   0  0  0  0  0  0  0  0  0  0  0  0
   20.6616  -15.9365  -22.6058 C   0  0  0  0  0  0  0  0  0  0  0  0
   20.5499  -15.9820  -21.2403 C   0  0  0  0  0  0  0  0  0  0  0  0
   20.4360  -17.1442  -20.5193 C   0  0  0  0  0  0  0  0  0  0  0  0
   20.4296  -18.3630  -21.1814 C   0  0  0  0  0  0  0  0  0  0  0  0
   21.1985  -20.5820  -17.1442 C   0  0  0  0  0  0  0  0  0  0  0  0
   21.4934  -21.7260  -16.6881 O   0  0  0  0  0  0  0  0  0  0  0  0
   20.6321  -19.6802  -16.1972 N   0  0  0  0  0  0  0  0  0  0  0  0
   20.3576  -20.0217  -14.8148 C   0  0  1  0  0  0  0  0  0  0  0  0
   20.9809  -18.9378  -13.9592 C   0  0  0  0  0  0  0  0  0  0  0  0
   20.1403  -17.3799  -14.4115 S   0  0  0  0  0  0  0  0  0  0  0  0
   18.9003  -20.1134  -14.5458 C   0  0  0  0  0  0  0  0  0  0  0  0
   18.1296  -19.4396  -15.2726 O   0  0  0  0  0  0  0  0  0  0  0  0
   11.2527  -22.9517  -11.0011 O   0  0  0  0  0  0  0  0  0  0  0  0
   12.6082  -22.7628  -11.3240 C   0  0  0  0  0  0  0  0  0  0  0  0
   13.1068  -23.1201  -12.5603 C   0  0  0  0  0  0  0  0  0  0  0  0
   14.4253  -22.9256  -12.8461 C   0  0  0  0  0  0  0  0  0  0  0  0
   15.3074  -22.3726  -11.9300 C   0  0  0  0  0  0  0  0  0  0  0  0
   16.7101  -22.2073  -12.3355 C   0  0  0  0  0  0  0  0  0  0  0  0
   16.9431  -20.9911  -13.2167 C   0  0  2  0  0  0  0  0  0  0  0  0
   18.3569  -20.9084  -13.5302 N   0  0  0  0  0  0  0  0  0  0  0  0
   16.5196  -19.8098  -12.3979 C   0  0  0  0  0  0  0  0  0  0  0  0
   17.3584  -19.2260  -11.6681 O   0  0  0  0  0  0  0  0  0  0  0  0
   14.7926  -22.0217  -10.7013 C   0  0  0  0  0  0  0  0  0  0  0  0
   13.4621  -22.2124  -10.3982 C   0  0  0  0  0  0  0  0  0  0  0  0
   15.2210  -19.3236  -12.4097 O   0  0  0  0  0  0  0  0  0  0  0  0
  2  1  1  6
  3  2  1  0
  4  5  2  0
  4  3  1  0
  6  5  1  0
  7 12  2  0
  7  6  1  0
  8  7  1  0
  9 10  1  0
  9  8  2  0
 10 11  2  0
 11 12  1  0
 12  4  1  0
 13  2  1  0
 14 13  2  0
 15 13  1  0
 16 17  1  1
 16 15  1  0
 17 18  1  0
 19 16  1  0
 20 19  2  0
 22 23  2  0
 22 21  1  0
 24 23  1  0
 25 24  2  0
 27 26  1  1
 26 25  1  0
 27 28  1  0
 28 19  1  0
 29 27  1  0
 29 33  1  0
 30 29  2  0
 31 25  1  0
 31 32  2  0
 32 22  1  0
M  END
$$$$
