WCY.pdb
     RDKit          3D

 33 35  0  0  1  0  0  0  0  0999 V2000
   26.4374  -19.4063  -12.0137 N   0  0  0  0  0  0  0  0  0  0  0  0
   26.4072  -20.8306  -12.2241 C   0  0  1  0  0  0  0  0  0  0  0  0
   25.9349  -21.5426  -11.0107 C   0  0  0  0  0  0  0  0  0  0  0  0
   26.4024  -20.9737   -9.7326 C   0  0  0  0  0  0  0  0  0  0  0  0
   25.6136  -20.3118   -8.7827 C   0  0  0  0  0  0  0  0  0  0  0  0
   26.3837  -19.9673   -7.7477 N   0  0  0  0  0  0  0  0  0  0  0  0
   27.6473  -20.3594   -7.9471 C   0  0  0  0  0  0  0  0  0  0  0  0
   28.7979  -20.2449   -7.2096 C   0  0  0  0  0  0  0  0  0  0  0  0
   30.0165  -20.7388   -7.6502 C   0  0  0  0  0  0  0  0  0  0  0  0
   30.0021  -21.3525   -8.8759 C   0  0  0  0  0  0  0  0  0  0  0  0
   28.8773  -21.4914   -9.6498 C   0  0  0  0  0  0  0  0  0  0  0  0
   27.6662  -20.9925   -9.1935 C   0  0  0  0  0  0  0  0  0  0  0  0
   25.5546  -21.0781  -13.4167 C   0  0  0  0  0  0  0  0  0  0  0  0
   24.6699  -20.2560  -13.7976 O   0  0  0  0  0  0  0  0  0  0  0  0
   25.6713  -22.2541  -14.2131 N   0  0  0  0  0  0  0  0  0  0  0  0
   24.9362  -22.4778  -15.4430 C   0  0  1  0  0  0  0  0  0  0  0  0
   25.9133  -23.0626  -16.4423 C   0  0  0  0  0  0  0  0  0  0  0  0
   26.7941  -24.4065  -15.5726 S   0  0  0  0  0  0  0  0  0  0  0  0
   23.7912  -23.4017  -15.2437 C   0  0  0  0  0  0  0  0  0  0  0  0
   23.9368  -24.3428  -14.4255 O   0  0  0  0  0  0  0  0  0  0  0  0
   19.9149  -21.9825   -9.9814 O   0  0  0  0  0  0  0  0  0  0  0  0
   19.9916  -22.3298  -11.3418 C   0  0  0  0  0  0  0  0  0  0  0  0
   19.4639  -23.5163  -11.8094 C   0  0  0  0  0  0  0  0  0  0  0  0
   19.5526  -23.8273  -13.1336 C   0  0  0  0  0  0  0  0  0  0  0  0
   20.1629  -22.9863  -14.0520 C   0  0  0  0  0  0  0  0  0  0  0  0
   20.2086  -23.4153  -15.4567 C   0  0  0  0  0  0  0  0  0  0  0  0
   21.4638  -24.1974  -15.8071 C   0  0  2  0  0  0  0  0  0  0  0  0
   22.5731  -23.2696  -15.9201 N   0  0  0  0  0  0  0  0  0  0  0  0
   21.1842  -24.8410  -17.1311 C   0  0  0  0  0  0  0  0  0  0  0  0
   20.3105  -25.7394  -17.2138 O   0  0  0  0  0  0  0  0  0  0  0  0
   20.6838  -21.8064  -13.5680 C   0  0  0  0  0  0  0  0  0  0  0  0
   20.6016  -21.4786  -12.2322 C   0  0  0  0  0  0  0  0  0  0  0  0
   21.8580  -24.4835  -18.2891 O   0  0  0  0  0  0  0  0  0  0  0  0
  2  1  1  1
  3  2  1  0
  4  5  2  0
  4  3  1  0
  6  5  1  0
  7 12  2  0
  7  6  1  0
  8  7  1  0
  9 10  1  0
  9  8  2  0
 10 11  2  0
 11 12  1  0
 12  4  1  0
 13  2  1  0
 14 13  2  0
 15 13  1  0
 16 17  1  6
 16 15  1  0
 17 18  1  0
 19 16  1  0
 20 19  2  0
 22 23  2  0
 22 21  1  0
 24 23  1  0
 25 24  2  0
 27 26  1  6
 26 25  1  0
 27 28  1  0
 28 19  1  0
 29 27  1  0
 29 33  1  0
 30 29  2  0
 31 25  1  0
 31 32  2  0
 32 22  1  0
M  END
$$$$
