WCY.pdb
     RDKit          3D

 33 35  0  0  1  0  0  0  0  0999 V2000
   27.5080  -21.5447  -17.0844 N   0  0  0  0  0  0  0  0  0  0  0  0
   27.5897  -20.4974  -16.0993 C   0  0  1  0  0  0  0  0  0  0  0  0
   26.5327  -19.4774  -16.3112 C   0  0  0  0  0  0  0  0  0  0  0  0
   26.5783  -18.7948  -17.6181 C   0  0  0  0  0  0  0  0  0  0  0  0
   25.5506  -18.7573  -18.5693 C   0  0  0  0  0  0  0  0  0  0  0  0
   25.9520  -18.0210  -19.6085 N   0  0  0  0  0  0  0  0  0  0  0  0
   27.1927  -17.5608  -19.4111 C   0  0  0  0  0  0  0  0  0  0  0  0
   28.0408  -16.7847  -20.1588 C   0  0  0  0  0  0  0  0  0  0  0  0
   29.3140  -16.4447  -19.7269 C   0  0  0  0  0  0  0  0  0  0  0  0
   29.6766  -16.9347  -18.4990 C   0  0  0  0  0  0  0  0  0  0  0  0
   28.8638  -17.7142  -17.7148 C   0  0  0  0  0  0  0  0  0  0  0  0
   27.5927  -18.0440  -18.1616 C   0  0  0  0  0  0  0  0  0  0  0  0
   27.5164  -21.1470  -14.7639 C   0  0  0  0  0  0  0  0  0  0  0  0
   27.7914  -22.3711  -14.5916 O   0  0  0  0  0  0  0  0  0  0  0  0
   27.1322  -20.4413  -13.5869 N   0  0  0  0  0  0  0  0  0  0  0  0
   27.2210  -20.9886  -12.2470 C   0  0  1  0  0  0  0  0  0  0  0  0
   28.6905  -21.2218  -11.9609 C   0  0  0  0  0  0  0  0  0  0  0  0
   29.5126  -19.6005  -12.1447 S   0  0  0  0  0  0  0  0  0  0  0  0
   26.6403  -20.0713  -11.2343 C   0  0  0  0  0  0  0  0  0  0  0  0
   26.7819  -18.8371  -11.4161 O   0  0  0  0  0  0  0  0  0  0  0  0
   21.7820  -18.4335  -15.3489 O   0  0  0  0  0  0  0  0  0  0  0  0
   22.2949  -19.1553  -14.2564 C   0  0  0  0  0  0  0  0  0  0  0  0
   21.8348  -18.9369  -12.9737 C   0  0  0  0  0  0  0  0  0  0  0  0
   22.3502  -19.6511  -11.9334 C   0  0  0  0  0  0  0  0  0  0  0  0
   23.3378  -20.6084  -12.1103 C   0  0  0  0  0  0  0  0  0  0  0  0
   23.8283  -21.3218  -10.9230 C   0  0  0  0  0  0  0  0  0  0  0  0
   24.5159  -20.4143   -9.9162 C   0  0  2  0  0  0  0  0  0  0  0  0
   25.9509  -20.5181  -10.1012 N   0  0  0  0  0  0  0  0  0  0  0  0
   24.1241  -20.9349   -8.5669 C   0  0  0  0  0  0  0  0  0  0  0  0
   22.9707  -20.7095   -8.1241 O   0  0  0  0  0  0  0  0  0  0  0  0
   23.7851  -20.8134  -13.3971 C   0  0  0  0  0  0  0  0  0  0  0  0
   23.2736  -20.0990  -14.4584 C   0  0  0  0  0  0  0  0  0  0  0  0
   24.9923  -21.6670   -7.7712 O   0  0  0  0  0  0  0  0  0  0  0  0
  2  1  1  6
  3  2  1  0
  4  5  2  0
  4  3  1  0
  6  5  1  0
  7 12  2  0
  7  6  1  0
  8  7  1  0
  9 10  1  0
  9  8  2  0
 10 11  2  0
 11 12  1  0
 12  4  1  0
 13  2  1  0
 14 13  2  0
 15 13  1  0
 16 17  1  1
 16 15  1  0
 17 18  1  0
 19 16  1  0
 20 19  2  0
 22 23  2  0
 22 21  1  0
 24 23  1  0
 25 24  2  0
 27 26  1  6
 26 25  1  0
 27 28  1  0
 28 19  1  0
 29 27  1  0
 29 33  1  0
 30 29  2  0
 31 25  1  0
 31 32  2  0
 32 22  1  0
M  END
$$$$
