WCY.pdb
     RDKit          3D

 33 35  0  0  1  0  0  0  0  0999 V2000
   27.7605  -20.3997  -16.0853 N   0  0  0  0  0  0  0  0  0  0  0  0
   27.5407  -19.8492  -14.7728 C   0  0  1  0  0  0  0  0  0  0  0  0
   26.7331  -18.6061  -14.8405 C   0  0  0  0  0  0  0  0  0  0  0  0
   27.2722  -17.5602  -15.7302 C   0  0  0  0  0  0  0  0  0  0  0  0
   26.5759  -16.4454  -16.2149 C   0  0  0  0  0  0  0  0  0  0  0  0
   27.4033  -15.7133  -16.9650 N   0  0  0  0  0  0  0  0  0  0  0  0
   28.6179  -16.2725  -17.0132 C   0  0  0  0  0  0  0  0  0  0  0  0
   29.7900  -15.9295  -17.6370 C   0  0  0  0  0  0  0  0  0  0  0  0
   30.9391  -16.6996  -17.5376 C   0  0  0  0  0  0  0  0  0  0  0  0
   30.8321  -17.8324  -16.7732 C   0  0  0  0  0  0  0  0  0  0  0  0
   29.6823  -18.2169  -16.1301 C   0  0  0  0  0  0  0  0  0  0  0  0
   28.5422  -17.4345  -16.2392 C   0  0  0  0  0  0  0  0  0  0  0  0
   26.9065  -20.9149  -13.9527 C   0  0  0  0  0  0  0  0  0  0  0  0
   26.3469  -21.9251  -14.4724 O   0  0  0  0  0  0  0  0  0  0  0  0
   26.8826  -20.8755  -12.5283 N   0  0  0  0  0  0  0  0  0  0  0  0
   25.8038  -21.4094  -11.7196 C   0  0  1  0  0  0  0  0  0  0  0  0
   26.1332  -21.0895  -10.2758 C   0  0  0  0  0  0  0  0  0  0  0  0
   26.2515  -19.2695  -10.1675 S   0  0  0  0  0  0  0  0  0  0  0  0
   24.4915  -20.8216  -12.0890 C   0  0  0  0  0  0  0  0  0  0  0  0
   24.4811  -19.6422  -12.5194 O   0  0  0  0  0  0  0  0  0  0  0  0
   17.0256  -18.8991  -15.8932 O   0  0  0  0  0  0  0  0  0  0  0  0
   18.2492  -19.3749  -15.3897 C   0  0  0  0  0  0  0  0  0  0  0  0
   19.3323  -18.5351  -15.2268 C   0  0  0  0  0  0  0  0  0  0  0  0
   20.5065  -19.0237  -14.7366 C   0  0  0  0  0  0  0  0  0  0  0  0
   20.6651  -20.3562  -14.3866 C   0  0  0  0  0  0  0  0  0  0  0  0
   21.9726  -20.7833  -13.8697 C   0  0  0  0  0  0  0  0  0  0  0  0
   21.9883  -20.9849  -12.3634 C   0  0  2  0  0  0  0  0  0  0  0  0
   23.2819  -21.5171  -11.9792 N   0  0  0  0  0  0  0  0  0  0  0  0
   20.9071  -21.9819  -12.0763 C   0  0  0  0  0  0  0  0  0  0  0  0
   19.7120  -21.6018  -12.0105 O   0  0  0  0  0  0  0  0  0  0  0  0
   19.5739  -21.1800  -14.5556 C   0  0  0  0  0  0  0  0  0  0  0  0
   18.3806  -20.7003  -15.0500 C   0  0  0  0  0  0  0  0  0  0  0  0
   21.1709  -23.3286  -11.8767 O   0  0  0  0  0  0  0  0  0  0  0  0
  2  1  1  6
  3  2  1  0
  4  5  2  0
  4  3  1  0
  6  5  1  0
  7 12  2  0
  7  6  1  0
  8  7  1  0
  9 10  1  0
  9  8  2  0
 10 11  2  0
 11 12  1  0
 12  4  1  0
 13  2  1  0
 14 13  2  0
 15 13  1  0
 16 17  1  1
 16 15  1  0
 17 18  1  0
 19 16  1  0
 20 19  2  0
 22 23  2  0
 22 21  1  0
 24 23  1  0
 25 24  2  0
 27 26  1  6
 26 25  1  0
 27 28  1  0
 28 19  1  0
 29 27  1  0
 29 33  1  0
 30 29  2  0
 31 25  1  0
 31 32  2  0
 32 22  1  0
M  END
$$$$
