WCY.pdb
     RDKit          3D

 33 35  0  0  1  0  0  0  0  0999 V2000
   26.9402  -21.0353  -17.0002 N   0  0  0  0  0  0  0  0  0  0  0  0
   27.3799  -20.1759  -15.9316 C   0  0  1  0  0  0  0  0  0  0  0  0
   26.4510  -19.0338  -15.7445 C   0  0  0  0  0  0  0  0  0  0  0  0
   26.3866  -18.0908  -16.8770 C   0  0  0  0  0  0  0  0  0  0  0  0
   25.2226  -17.6275  -17.5039 C   0  0  0  0  0  0  0  0  0  0  0  0
   25.5647  -16.7672  -18.4662 N   0  0  0  0  0  0  0  0  0  0  0  0
   26.8939  -16.6253  -18.5232 C   0  0  0  0  0  0  0  0  0  0  0  0
   27.7301  -15.8846  -19.3188 C   0  0  0  0  0  0  0  0  0  0  0  0
   29.1097  -15.9179  -19.1828 C   0  0  0  0  0  0  0  0  0  0  0  0
   29.5911  -16.7417  -18.1985 C   0  0  0  0  0  0  0  0  0  0  0  0
   28.7952  -17.5011  -17.3780 C   0  0  0  0  0  0  0  0  0  0  0  0
   27.4169  -17.4551  -17.5269 C   0  0  0  0  0  0  0  0  0  0  0  0
   27.5169  -21.0234  -14.7177 C   0  0  0  0  0  0  0  0  0  0  0  0
   26.7270  -21.9816  -14.4694 O   0  0  0  0  0  0  0  0  0  0  0  0
   28.5429  -20.8184  -13.7501 N   0  0  0  0  0  0  0  0  0  0  0  0
   28.4351  -21.2088  -12.3577 C   0  0  1  0  0  0  0  0  0  0  0  0
   29.7569  -20.8696  -11.6995 C   0  0  0  0  0  0  0  0  0  0  0  0
   29.5892  -21.3360   -9.9409 S   0  0  0  0  0  0  0  0  0  0  0  0
   27.3236  -20.5049  -11.6695 C   0  0  0  0  0  0  0  0  0  0  0  0
   27.1531  -19.2888  -11.9306 O   0  0  0  0  0  0  0  0  0  0  0  0
   22.0448  -20.5273  -15.4919 O   0  0  0  0  0  0  0  0  0  0  0  0
   22.5538  -20.6833  -14.1904 C   0  0  0  0  0  0  0  0  0  0  0  0
   23.2799  -21.8017  -13.8342 C   0  0  0  0  0  0  0  0  0  0  0  0
   23.7614  -21.9265  -12.5651 C   0  0  0  0  0  0  0  0  0  0  0  0
   23.5495  -20.9589  -11.5946 C   0  0  0  0  0  0  0  0  0  0  0  0
   24.1086  -21.1901  -10.2555 C   0  0  0  0  0  0  0  0  0  0  0  0
   25.4188  -20.4582  -10.0151 C   0  0  2  0  0  0  0  0  0  0  0  0
   26.4695  -21.1313  -10.7547 N   0  0  0  0  0  0  0  0  0  0  0  0
   25.6728  -20.5547   -8.5416 C   0  0  0  0  0  0  0  0  0  0  0  0
   26.6750  -21.1853   -8.1232 O   0  0  0  0  0  0  0  0  0  0  0  0
   22.8229  -19.8494  -11.9676 C   0  0  0  0  0  0  0  0  0  0  0  0
   22.3300  -19.7094  -13.2466 C   0  0  0  0  0  0  0  0  0  0  0  0
   24.8371  -19.9691   -7.6027 O   0  0  0  0  0  0  0  0  0  0  0  0
  2  1  1  6
  3  2  1  0
  4  5  2  0
  4  3  1  0
  6  5  1  0
  7 12  2  0
  7  6  1  0
  8  7  1  0
  9 10  1  0
  9  8  2  0
 10 11  2  0
 11 12  1  0
 12  4  1  0
 13  2  1  0
 14 13  2  0
 15 13  1  0
 16 17  1  1
 16 15  1  0
 17 18  1  0
 19 16  1  0
 20 19  2  0
 22 23  2  0
 22 21  1  0
 24 23  1  0
 25 24  2  0
 27 26  1  1
 26 25  1  0
 27 28  1  0
 28 19  1  0
 29 27  1  0
 29 33  1  0
 30 29  2  0
 31 25  1  0
 31 32  2  0
 32 22  1  0
M  END
$$$$
