WCY.pdb
     RDKit          3D

 33 35  0  0  1  0  0  0  0  0999 V2000
   25.2143  -18.8684   -9.3797 N   0  0  0  0  0  0  0  0  0  0  0  0
   26.2034  -19.7353   -9.9661 C   0  0  1  0  0  0  0  0  0  0  0  0
   26.2987  -21.0184   -9.2267 C   0  0  0  0  0  0  0  0  0  0  0  0
   26.4273  -20.8864   -7.7631 C   0  0  0  0  0  0  0  0  0  0  0  0
   25.4625  -21.2416   -6.8115 C   0  0  0  0  0  0  0  0  0  0  0  0
   25.9517  -21.0028   -5.5921 N   0  0  0  0  0  0  0  0  0  0  0  0
   27.1916  -20.5060   -5.6688 C   0  0  0  0  0  0  0  0  0  0  0  0
   28.1043  -20.0988   -4.7296 C   0  0  0  0  0  0  0  0  0  0  0  0
   29.3518  -19.5991   -5.0717 C   0  0  0  0  0  0  0  0  0  0  0  0
   29.6200  -19.5360   -6.4146 C   0  0  0  0  0  0  0  0  0  0  0  0
   28.7401  -19.9313   -7.3908 C   0  0  0  0  0  0  0  0  0  0  0  0
   27.4967  -20.4298   -7.0311 C   0  0  0  0  0  0  0  0  0  0  0  0
   25.8381  -19.9102  -11.3967 C   0  0  0  0  0  0  0  0  0  0  0  0
   24.8189  -19.3580  -11.9065 O   0  0  0  0  0  0  0  0  0  0  0  0
   26.6056  -20.7095  -12.2928 N   0  0  0  0  0  0  0  0  0  0  0  0
   26.5824  -20.5617  -13.7352 C   0  0  1  0  0  0  0  0  0  0  0  0
   27.0156  -19.1426  -14.0416 C   0  0  0  0  0  0  0  0  0  0  0  0
   28.5370  -18.8500  -13.0730 S   0  0  0  0  0  0  0  0  0  0  0  0
   27.4860  -21.5302  -14.4059 C   0  0  0  0  0  0  0  0  0  0  0  0
   28.5032  -21.9111  -13.7763 O   0  0  0  0  0  0  0  0  0  0  0  0
   22.5226  -28.2468  -16.0537 O   0  0  0  0  0  0  0  0  0  0  0  0
   23.1917  -27.0196  -15.9001 C   0  0  0  0  0  0  0  0  0  0  0  0
   23.9484  -26.7516  -14.7774 C   0  0  0  0  0  0  0  0  0  0  0  0
   24.5863  -25.5533  -14.6549 C   0  0  0  0  0  0  0  0  0  0  0  0
   24.5072  -24.5698  -15.6294 C   0  0  0  0  0  0  0  0  0  0  0  0
   25.2302  -23.3112  -15.4003 C   0  0  0  0  0  0  0  0  0  0  0  0
   26.6351  -23.3095  -15.9801 C   0  0  2  0  0  0  0  0  0  0  0  0
   27.2548  -22.0298  -15.6927 N   0  0  0  0  0  0  0  0  0  0  0  0
   26.4642  -23.4869  -17.4581 C   0  0  0  0  0  0  0  0  0  0  0  0
   25.9671  -22.5587  -18.1426 O   0  0  0  0  0  0  0  0  0  0  0  0
   23.7479  -24.8543  -16.7431 C   0  0  0  0  0  0  0  0  0  0  0  0
   23.0974  -26.0612  -16.8808 C   0  0  0  0  0  0  0  0  0  0  0  0
   26.8364  -24.6496  -18.1158 O   0  0  0  0  0  0  0  0  0  0  0  0
  2  1  1  1
  3  2  1  0
  4  5  2  0
  4  3  1  0
  6  5  1  0
  7 12  2  0
  7  6  1  0
  8  7  1  0
  9 10  1  0
  9  8  2  0
 10 11  2  0
 11 12  1  0
 12  4  1  0
 13  2  1  0
 14 13  2  0
 15 13  1  0
 16 17  1  1
 16 15  1  0
 17 18  1  0
 19 16  1  0
 20 19  2  0
 22 23  2  0
 22 21  1  0
 24 23  1  0
 25 24  2  0
 27 26  1  1
 26 25  1  0
 27 28  1  0
 28 19  1  0
 29 27  1  0
 29 33  1  0
 30 29  2  0
 31 25  1  0
 31 32  2  0
 32 22  1  0
M  END
$$$$
