WCY.pdb
     RDKit          3D

 33 35  0  0  1  0  0  0  0  0999 V2000
   23.3293  -10.5343  -16.1672 N   0  0  0  0  0  0  0  0  0  0  0  0
   22.0089   -9.9644  -16.0924 C   0  0  1  0  0  0  0  0  0  0  0  0
   21.0498  -10.9117  -15.4717 C   0  0  0  0  0  0  0  0  0  0  0  0
   20.7254  -12.0956  -16.2896 C   0  0  0  0  0  0  0  0  0  0  0  0
   21.4705  -13.2796  -16.3652 C   0  0  0  0  0  0  0  0  0  0  0  0
   20.8469  -14.1296  -17.1848 N   0  0  0  0  0  0  0  0  0  0  0  0
   19.7237  -13.5846  -17.6662 C   0  0  0  0  0  0  0  0  0  0  0  0
   18.7543  -14.0286  -18.5287 C   0  0  0  0  0  0  0  0  0  0  0  0
   17.6640  -13.2504  -18.8873 C   0  0  0  0  0  0  0  0  0  0  0  0
   17.6129  -12.0017  -18.3241 C   0  0  0  0  0  0  0  0  0  0  0  0
   18.5576  -11.5134  -17.4566 C   0  0  0  0  0  0  0  0  0  0  0  0
   19.6415  -12.3055  -17.1077 C   0  0  0  0  0  0  0  0  0  0  0  0
   22.1280   -8.6819  -15.3497 C   0  0  0  0  0  0  0  0  0  0  0  0
   23.0739   -8.4556  -14.5388 O   0  0  0  0  0  0  0  0  0  0  0  0
   21.1890   -7.6199  -15.4964 N   0  0  0  0  0  0  0  0  0  0  0  0
   21.3331   -6.3177  -14.8748 C   0  0  1  0  0  0  0  0  0  0  0  0
   22.6824   -5.7729  -15.2966 C   0  0  0  0  0  0  0  0  0  0  0  0
   22.7796   -4.0731  -14.6336 S   0  0  0  0  0  0  0  0  0  0  0  0
   20.2524   -5.3857  -15.2846 C   0  0  0  0  0  0  0  0  0  0  0  0
   20.2081   -5.0383  -16.4903 O   0  0  0  0  0  0  0  0  0  0  0  0
   16.7541   -7.1062   -9.3560 O   0  0  0  0  0  0  0  0  0  0  0  0
   16.7854   -6.4828  -10.6160 C   0  0  0  0  0  0  0  0  0  0  0  0
   17.1799   -7.1701  -11.7460 C   0  0  0  0  0  0  0  0  0  0  0  0
   17.2007   -6.5404  -12.9547 C   0  0  0  0  0  0  0  0  0  0  0  0
   16.8352   -5.2109  -13.1031 C   0  0  0  0  0  0  0  0  0  0  0  0
   16.8949   -4.6247  -14.4491 C   0  0  0  0  0  0  0  0  0  0  0  0
   18.2301   -3.9696  -14.7622 C   0  0  2  0  0  0  0  0  0  0  0  0
   19.2941   -4.8850  -14.3959 N   0  0  0  0  0  0  0  0  0  0  0  0
   18.2862   -2.7367  -13.9125 C   0  0  0  0  0  0  0  0  0  0  0  0
   19.1944   -2.6137  -13.0539 O   0  0  0  0  0  0  0  0  0  0  0  0
   16.4440   -4.5405  -11.9649 C   0  0  0  0  0  0  0  0  0  0  0  0
   16.4180   -5.1637  -10.7364 C   0  0  0  0  0  0  0  0  0  0  0  0
   17.3647   -1.7075  -14.0333 O   0  0  0  0  0  0  0  0  0  0  0  0
  2  1  1  1
  3  2  1  0
  4  5  2  0
  4  3  1  0
  6  5  1  0
  7 12  2  0
  7  6  1  0
  8  7  1  0
  9 10  1  0
  9  8  2  0
 10 11  2  0
 11 12  1  0
 12  4  1  0
 13  2  1  0
 14 13  2  0
 15 13  1  0
 16 17  1  6
 16 15  1  0
 17 18  1  0
 19 16  1  0
 20 19  2  0
 22 23  2  0
 22 21  1  0
 24 23  1  0
 25 24  2  0
 27 26  1  1
 26 25  1  0
 27 28  1  0
 28 19  1  0
 29 27  1  0
 29 33  1  0
 30 29  2  0
 31 25  1  0
 31 32  2  0
 32 22  1  0
M  END
$$$$
