WCY.pdb
     RDKit          3D

 33 35  0  0  1  0  0  0  0  0999 V2000
   23.8604  -20.3739  -15.6967 N   0  0  0  0  0  0  0  0  0  0  0  0
   22.7393  -19.6487  -15.1574 C   0  0  1  0  0  0  0  0  0  0  0  0
   21.7094  -19.4017  -16.1970 C   0  0  0  0  0  0  0  0  0  0  0  0
   22.0788  -18.3997  -17.2145 C   0  0  0  0  0  0  0  0  0  0  0  0
   22.8873  -18.6186  -18.3374 C   0  0  0  0  0  0  0  0  0  0  0  0
   22.9697  -17.4840  -19.0368 N   0  0  0  0  0  0  0  0  0  0  0  0
   22.2626  -16.5128  -18.4479 C   0  0  0  0  0  0  0  0  0  0  0  0
   22.0343  -15.1952  -18.7521 C   0  0  0  0  0  0  0  0  0  0  0  0
   21.2513  -14.3724  -17.9565 C   0  0  0  0  0  0  0  0  0  0  0  0
   20.7154  -14.9593  -16.8395 C   0  0  0  0  0  0  0  0  0  0  0  0
   20.9149  -16.2723  -16.4935 C   0  0  0  0  0  0  0  0  0  0  0  0
   21.7001  -17.0816  -17.3012 C   0  0  0  0  0  0  0  0  0  0  0  0
   22.2277  -20.4315  -14.0015 C   0  0  0  0  0  0  0  0  0  0  0  0
   22.1310  -21.6938  -14.0296 O   0  0  0  0  0  0  0  0  0  0  0  0
   21.8105  -19.8193  -12.7840 N   0  0  0  0  0  0  0  0  0  0  0  0
   21.2246  -20.5417  -11.6715 C   0  0  1  0  0  0  0  0  0  0  0  0
   21.4973  -19.7279  -10.4229 C   0  0  0  0  0  0  0  0  0  0  0  0
   20.7529  -20.6533   -9.0345 S   0  0  0  0  0  0  0  0  0  0  0  0
   19.7635  -20.7385  -11.8468 C   0  0  0  0  0  0  0  0  0  0  0  0
   19.0800  -19.7471  -12.2020 O   0  0  0  0  0  0  0  0  0  0  0  0
   11.9384  -24.4540  -13.4880 O   0  0  0  0  0  0  0  0  0  0  0  0
   13.3015  -24.1931  -13.2616 C   0  0  0  0  0  0  0  0  0  0  0  0
   14.0652  -23.5151  -14.1901 C   0  0  0  0  0  0  0  0  0  0  0  0
   15.3845  -23.2762  -13.9443 C   0  0  0  0  0  0  0  0  0  0  0  0
   16.0072  -23.6930  -12.7774 C   0  0  0  0  0  0  0  0  0  0  0  0
   17.4348  -23.3878  -12.6099 C   0  0  0  0  0  0  0  0  0  0  0  0
   17.6925  -22.1755  -11.7301 C   0  0  2  0  0  0  0  0  0  0  0  0
   19.1247  -21.9658  -11.6359 N   0  0  0  0  0  0  0  0  0  0  0  0
   17.1256  -22.5213  -10.3869 C   0  0  0  0  0  0  0  0  0  0  0  0
   17.8838  -22.9552   -9.4848 O   0  0  0  0  0  0  0  0  0  0  0  0
   15.2300  -24.3680  -11.8619 C   0  0  0  0  0  0  0  0  0  0  0  0
   13.8952  -24.6168  -12.0966 C   0  0  0  0  0  0  0  0  0  0  0  0
   15.7783  -22.3814  -10.0897 O   0  0  0  0  0  0  0  0  0  0  0  0
  2  1  1  6
  3  2  1  0
  4  5  2  0
  4  3  1  0
  6  5  1  0
  7 12  2  0
  7  6  1  0
  8  7  1  0
  9 10  1  0
  9  8  2  0
 10 11  2  0
 11 12  1  0
 12  4  1  0
 13  2  1  0
 14 13  2  0
 15 13  1  0
 16 17  1  1
 16 15  1  0
 17 18  1  0
 19 16  1  0
 20 19  2  0
 22 23  2  0
 22 21  1  0
 24 23  1  0
 25 24  2  0
 27 26  1  6
 26 25  1  0
 27 28  1  0
 28 19  1  0
 29 27  1  0
 29 33  1  0
 30 29  2  0
 31 25  1  0
 31 32  2  0
 32 22  1  0
M  END
$$$$
