KEH.pdb
     RDKit          3D

 29 29  0  0  1  0  0  0  0  0999 V2000
   27.5617  -21.1338  -11.3146 N   0  0  0  0  0  0  0  0  0  0  0  0
   26.2825  -20.8647  -10.7667 C   0  0  1  0  0  0  0  0  0  0  0  0
   26.2405  -20.1110   -9.4805 C   0  0  0  0  0  0  0  0  0  0  0  0
   27.2998  -20.4135   -8.4913 C   0  0  0  0  0  0  0  0  0  0  0  0
   27.1281  -19.7619   -7.1675 C   0  0  0  0  0  0  0  0  0  0  0  0
   28.2273  -20.0852   -6.2057 C   0  0  0  0  0  0  0  0  0  0  0  0
   28.3408  -19.1923   -5.1045 N   0  0  0  0  0  0  0  0  0  0  0  0
   25.4072  -20.1714  -11.7878 C   0  0  0  0  0  0  0  0  0  0  0  0
   25.5600  -18.9471  -11.9007 O   0  0  0  0  0  0  0  0  0  0  0  0
   24.4717  -20.8547  -12.5686 N   0  0  0  0  0  0  0  0  0  0  0  0
   23.7029  -20.3824  -13.6732 C   0  0  1  0  0  0  0  0  0  0  0  0
   23.9679  -21.0238  -15.0000 C   0  0  0  0  0  0  0  0  0  0  0  0
   23.8513  -22.5268  -15.0066 C   0  0  0  0  0  0  0  0  0  0  0  0
   24.0798  -23.0040  -16.3927 C   0  0  0  0  0  0  0  0  0  0  0  0
   24.0337  -24.2173  -16.6400 O   0  0  0  0  0  0  0  0  0  0  0  0
   22.2727  -20.2157  -13.4302 C   0  0  0  0  0  0  0  0  0  0  0  0
   21.6725  -21.1111  -12.7278 O   0  0  0  0  0  0  0  0  0  0  0  0
   24.3402  -22.0997  -17.3885 O   0  0  0  0  0  0  0  0  0  0  0  0
   21.5713  -19.1092  -13.9461 N   0  0  0  0  0  0  0  0  0  0  0  0
   20.1465  -18.9902  -13.6384 C   0  0  1  0  0  0  0  0  0  0  0  0
   19.6967  -17.7238  -14.3730 C   0  0  0  0  0  0  0  0  0  0  0  0
   18.2547  -17.4642  -14.1573 C   0  0  0  0  0  0  0  0  0  0  0  0
   17.4221  -18.1887  -13.3160 C   0  0  0  0  0  0  0  0  0  0  0  0
   16.1883  -17.6665  -13.3747 N   0  0  0  0  0  0  0  0  0  0  0  0
   16.2080  -16.6268  -14.2314 C   0  0  0  0  0  0  0  0  0  0  0  0
   17.4718  -16.5149  -14.7004 N   0  0  0  0  0  0  0  0  0  0  0  0
   19.4782  -20.1681  -14.2564 C   0  0  0  0  0  0  0  0  0  0  0  0
   19.8537  -20.7007  -15.4569 O   0  0  0  0  0  0  0  0  0  0  0  0
   18.5009  -20.7268  -13.6527 O   0  0  0  0  0  0  0  0  0  0  0  0
  2  8  1  0
  2  1  1  6
  3  2  1  0
  4  3  1  0
  4  5  1  0
  6  5  1  0
  7  6  1  0
  8  9  2  0
 10 11  1  0
 10  8  1  0
 11 12  1  6
 13 14  1  0
 13 12  1  0
 14 18  1  0
 15 14  2  0
 16 17  2  0
 16 11  1  0
 19 16  1  0
 20 19  1  0
 20 21  1  6
 22 26  1  0
 22 21  1  0
 23 22  2  0
 24 23  1  0
 24 25  1  0
 25 26  2  0
 27 20  1  0
 27 28  1  0
 29 27  2  0
M  END
$$$$
