KEH.pdb
     RDKit          3D

 29 29  0  0  1  0  0  0  0  0999 V2000
   27.6948  -24.9865  -17.1416 N   0  0  0  0  0  0  0  0  0  0  0  0
   26.3188  -25.0639  -17.4727 C   0  0  1  0  0  0  0  0  0  0  0  0
   25.7974  -26.3947  -17.8984 C   0  0  0  0  0  0  0  0  0  0  0  0
   26.7796  -27.4979  -18.0010 C   0  0  0  0  0  0  0  0  0  0  0  0
   26.9416  -28.3117  -16.7690 C   0  0  0  0  0  0  0  0  0  0  0  0
   27.8012  -29.5193  -16.9704 C   0  0  0  0  0  0  0  0  0  0  0  0
   28.6991  -29.7995  -15.9035 N   0  0  0  0  0  0  0  0  0  0  0  0
   25.4728  -24.5288  -16.3380 C   0  0  0  0  0  0  0  0  0  0  0  0
   25.9979  -24.5268  -15.2158 O   0  0  0  0  0  0  0  0  0  0  0  0
   24.1699  -24.0602  -16.5236 N   0  0  0  0  0  0  0  0  0  0  0  0
   23.4108  -23.1639  -15.7144 C   0  0  1  0  0  0  0  0  0  0  0  0
   23.6883  -21.7028  -15.8875 C   0  0  0  0  0  0  0  0  0  0  0  0
   22.9041  -20.8004  -14.9691 C   0  0  0  0  0  0  0  0  0  0  0  0
   23.3277  -19.4009  -15.2206 C   0  0  0  0  0  0  0  0  0  0  0  0
   22.7943  -18.4754  -14.5925 O   0  0  0  0  0  0  0  0  0  0  0  0
   21.9783  -23.4355  -15.6331 C   0  0  0  0  0  0  0  0  0  0  0  0
   21.3090  -23.4739  -16.7313 O   0  0  0  0  0  0  0  0  0  0  0  0
   24.3051  -19.1424  -16.1453 O   0  0  0  0  0  0  0  0  0  0  0  0
   21.3480  -23.6507  -14.3926 N   0  0  0  0  0  0  0  0  0  0  0  0
   19.9347  -24.0270  -14.3922 C   0  0  1  0  0  0  0  0  0  0  0  0
   19.5959  -24.2558  -12.9162 C   0  0  0  0  0  0  0  0  0  0  0  0
   18.2086  -24.7490  -12.7563 C   0  0  0  0  0  0  0  0  0  0  0  0
   17.3088  -24.9735  -13.7886 C   0  0  0  0  0  0  0  0  0  0  0  0
   16.1559  -25.4182  -13.2678 N   0  0  0  0  0  0  0  0  0  0  0  0
   16.2929  -25.4845  -11.9290 C   0  0  0  0  0  0  0  0  0  0  0  0
   17.5470  -25.0743  -11.6314 N   0  0  0  0  0  0  0  0  0  0  0  0
   19.1789  -22.8416  -14.8815 C   0  0  0  0  0  0  0  0  0  0  0  0
   19.6207  -21.5572  -14.7375 O   0  0  0  0  0  0  0  0  0  0  0  0
   18.0570  -23.0081  -15.4690 O   0  0  0  0  0  0  0  0  0  0  0  0
  2  8  1  0
  2  1  1  1
  3  2  1  0
  4  3  1  0
  4  5  1  0
  6  5  1  0
  7  6  1  0
  8  9  2  0
 10 11  1  0
 10  8  1  0
 11 12  1  6
 13 14  1  0
 13 12  1  0
 14 18  1  0
 15 14  2  0
 16 17  2  0
 16 11  1  0
 19 16  1  0
 20 19  1  0
 20 21  1  1
 22 26  1  0
 22 21  1  0
 23 22  2  0
 24 23  1  0
 24 25  1  0
 25 26  2  0
 27 20  1  0
 27 28  1  0
 29 27  2  0
M  END
$$$$
