KEH.pdb
     RDKit          3D

 29 29  0  0  1  0  0  0  0  0999 V2000
   21.5797  -13.9773  -17.5807 N   0  0  0  0  0  0  0  0  0  0  0  0
   21.9924  -12.9569  -18.4736 C   0  0  1  0  0  0  0  0  0  0  0  0
   21.8934  -13.2511  -19.9323 C   0  0  0  0  0  0  0  0  0  0  0  0
   22.4649  -14.5354  -20.3974 C   0  0  0  0  0  0  0  0  0  0  0  0
   23.9021  -14.7354  -20.0798 C   0  0  0  0  0  0  0  0  0  0  0  0
   24.4459  -16.0273  -20.6023 C   0  0  0  0  0  0  0  0  0  0  0  0
   25.7929  -16.3011  -20.2371 N   0  0  0  0  0  0  0  0  0  0  0  0
   21.2672  -11.6645  -18.1682 C   0  0  0  0  0  0  0  0  0  0  0  0
   21.4654  -10.7256  -18.9519 O   0  0  0  0  0  0  0  0  0  0  0  0
   20.4184  -11.5168  -17.0684 N   0  0  0  0  0  0  0  0  0  0  0  0
   19.6189  -10.3975  -16.6911 C   0  0  1  0  0  0  0  0  0  0  0  0
   18.4198  -10.6838  -15.8414 C   0  0  0  0  0  0  0  0  0  0  0  0
   17.3961  -11.5864  -16.4817 C   0  0  0  0  0  0  0  0  0  0  0  0
   16.2989  -11.8080  -15.5080 C   0  0  0  0  0  0  0  0  0  0  0  0
   15.3858  -10.9757  -15.4115 O   0  0  0  0  0  0  0  0  0  0  0  0
   20.3475   -9.2235  -16.2186 C   0  0  0  0  0  0  0  0  0  0  0  0
   21.2381   -9.3940  -15.3058 O   0  0  0  0  0  0  0  0  0  0  0  0
   16.3034  -12.9308  -14.7228 O   0  0  0  0  0  0  0  0  0  0  0  0
   20.0861   -7.9443  -16.7458 N   0  0  0  0  0  0  0  0  0  0  0  0
   20.9355   -6.8338  -16.3166 C   0  0  1  0  0  0  0  0  0  0  0  0
   20.6807   -5.7309  -17.3484 C   0  0  0  0  0  0  0  0  0  0  0  0
   21.4390   -4.5028  -17.0166 C   0  0  0  0  0  0  0  0  0  0  0  0
   22.5408   -4.0233  -17.7108 C   0  0  0  0  0  0  0  0  0  0  0  0
   22.9618   -2.8927  -17.1254 N   0  0  0  0  0  0  0  0  0  0  0  0
   22.1591   -2.6348  -16.0744 C   0  0  0  0  0  0  0  0  0  0  0  0
   21.2368   -3.6227  -16.0198 N   0  0  0  0  0  0  0  0  0  0  0  0
   20.4153   -6.3865  -14.9956 C   0  0  0  0  0  0  0  0  0  0  0  0
   21.1994   -5.8161  -14.0335 O   0  0  0  0  0  0  0  0  0  0  0  0
   19.1758   -6.5332  -14.7239 O   0  0  0  0  0  0  0  0  0  0  0  0
  2  8  1  0
  2  1  1  1
  3  2  1  0
  4  3  1  0
  4  5  1  0
  6  5  1  0
  7  6  1  0
  8  9  2  0
 10 11  1  0
 10  8  1  0
 11 12  1  1
 13 14  1  0
 13 12  1  0
 14 18  1  0
 15 14  2  0
 16 17  2  0
 16 11  1  0
 19 16  1  0
 20 19  1  0
 20 21  1  6
 22 26  1  0
 22 21  1  0
 23 22  2  0
 24 23  1  0
 24 25  1  0
 25 26  2  0
 27 20  1  0
 27 28  1  0
 29 27  2  0
M  END
$$$$
