KEH.pdb
     RDKit          3D

 29 29  0  0  1  0  0  0  0  0999 V2000
   27.9402  -20.3492  -15.0147 N   0  0  0  0  0  0  0  0  0  0  0  0
   26.9001  -21.0081  -15.7169 C   0  0  1  0  0  0  0  0  0  0  0  0
   27.2604  -22.2575  -16.4471 C   0  0  0  0  0  0  0  0  0  0  0  0
   28.7032  -22.5578  -16.5906 C   0  0  0  0  0  0  0  0  0  0  0  0
   29.0146  -23.8036  -17.3371 C   0  0  0  0  0  0  0  0  0  0  0  0
   30.4789  -24.1037  -17.3961 C   0  0  0  0  0  0  0  0  0  0  0  0
   30.8152  -25.3157  -18.0601 N   0  0  0  0  0  0  0  0  0  0  0  0
   25.7319  -21.2805  -14.7947 C   0  0  0  0  0  0  0  0  0  0  0  0
   24.8285  -21.9957  -15.2500 O   0  0  0  0  0  0  0  0  0  0  0  0
   25.6560  -20.7628  -13.4993 N   0  0  0  0  0  0  0  0  0  0  0  0
   24.5883  -20.8454  -12.5571 C   0  0  1  0  0  0  0  0  0  0  0  0
   24.9478  -20.6577  -11.1157 C   0  0  0  0  0  0  0  0  0  0  0  0
   26.1149  -21.4877  -10.6452 C   0  0  0  0  0  0  0  0  0  0  0  0
   26.4933  -21.0283   -9.2862 C   0  0  0  0  0  0  0  0  0  0  0  0
   25.6527  -21.0454   -8.3758 O   0  0  0  0  0  0  0  0  0  0  0  0
   23.3701  -20.1209  -12.9085 C   0  0  0  0  0  0  0  0  0  0  0  0
   23.4865  -18.9017  -13.3024 O   0  0  0  0  0  0  0  0  0  0  0  0
   27.7688  -20.5885   -9.0480 O   0  0  0  0  0  0  0  0  0  0  0  0
   22.1069  -20.7367  -12.8213 N   0  0  0  0  0  0  0  0  0  0  0  0
   20.9918  -20.1311  -13.5486 C   0  0  1  0  0  0  0  0  0  0  0  0
   21.3807  -20.2542  -15.0249 C   0  0  0  0  0  0  0  0  0  0  0  0
   20.3001  -19.7546  -15.9058 C   0  0  0  0  0  0  0  0  0  0  0  0
   19.6399  -18.5423  -15.7637 C   0  0  0  0  0  0  0  0  0  0  0  0
   18.7289  -18.4293  -16.7413 N   0  0  0  0  0  0  0  0  0  0  0  0
   18.7877  -19.5370  -17.5061 C   0  0  0  0  0  0  0  0  0  0  0  0
   19.7482  -20.3352  -16.9863 N   0  0  0  0  0  0  0  0  0  0  0  0
   19.8015  -20.9872  -13.2914 C   0  0  0  0  0  0  0  0  0  0  0  0
   19.8751  -22.3371  -13.0959 O   0  0  0  0  0  0  0  0  0  0  0  0
   18.6408  -20.4557  -13.2469 O   0  0  0  0  0  0  0  0  0  0  0  0
  2  8  1  0
  2  1  1  1
  3  2  1  0
  4  3  1  0
  4  5  1  0
  6  5  1  0
  7  6  1  0
  8  9  2  0
 10 11  1  0
 10  8  1  0
 11 12  1  1
 13 14  1  0
 13 12  1  0
 14 18  1  0
 15 14  2  0
 16 17  2  0
 16 11  1  0
 19 16  1  0
 20 19  1  0
 20 21  1  6
 22 26  1  0
 22 21  1  0
 23 22  2  0
 24 23  1  0
 24 25  1  0
 25 26  2  0
 27 20  1  0
 27 28  1  0
 29 27  2  0
M  END
$$$$
