KEH.pdb
     RDKit          3D

 29 29  0  0  1  0  0  0  0  0999 V2000
   22.4832  -26.1448  -15.5900 N   0  0  0  0  0  0  0  0  0  0  0  0
   23.1530  -26.7726  -16.6700 C   0  0  1  0  0  0  0  0  0  0  0  0
   24.4528  -26.1802  -17.0984 C   0  0  0  0  0  0  0  0  0  0  0  0
   25.2356  -25.4636  -16.0659 C   0  0  0  0  0  0  0  0  0  0  0  0
   26.6504  -25.8971  -15.9365 C   0  0  0  0  0  0  0  0  0  0  0  0
   27.4369  -25.7225  -17.1969 C   0  0  0  0  0  0  0  0  0  0  0  0
   28.8103  -26.0790  -17.0997 N   0  0  0  0  0  0  0  0  0  0  0  0
   23.3378  -28.2479  -16.3893 C   0  0  0  0  0  0  0  0  0  0  0  0
   23.3302  -28.5849  -15.1971 O   0  0  0  0  0  0  0  0  0  0  0  0
   23.5107  -29.1934  -17.4031 N   0  0  0  0  0  0  0  0  0  0  0  0
   23.6465  -30.6096  -17.3010 C   0  0  1  0  0  0  0  0  0  0  0  0
   22.9592  -31.4282  -18.3495 C   0  0  0  0  0  0  0  0  0  0  0  0
   21.4607  -31.5058  -18.2050 C   0  0  0  0  0  0  0  0  0  0  0  0
   20.9287  -32.3274  -19.3200 C   0  0  0  0  0  0  0  0  0  0  0  0
   19.7040  -32.4505  -19.4624 O   0  0  0  0  0  0  0  0  0  0  0  0
   24.9934  -31.1031  -17.0275 C   0  0  0  0  0  0  0  0  0  0  0  0
   25.9880  -30.4126  -17.4625 O   0  0  0  0  0  0  0  0  0  0  0  0
   21.7956  -32.9438  -20.1837 O   0  0  0  0  0  0  0  0  0  0  0  0
   25.1989  -32.2962  -16.3087 N   0  0  0  0  0  0  0  0  0  0  0  0
   26.5728  -32.6809  -15.9874 C   0  0  1  0  0  0  0  0  0  0  0  0
   26.4314  -33.7384  -14.8886 C   0  0  0  0  0  0  0  0  0  0  0  0
   26.3117  -33.1092  -13.5533 C   0  0  0  0  0  0  0  0  0  0  0  0
   26.5332  -31.7687  -13.2709 C   0  0  0  0  0  0  0  0  0  0  0  0
   26.3296  -31.5636  -11.9615 N   0  0  0  0  0  0  0  0  0  0  0  0
   25.9835  -32.7370  -11.3970 C   0  0  0  0  0  0  0  0  0  0  0  0
   25.9766  -33.6692  -12.3772 N   0  0  0  0  0  0  0  0  0  0  0  0
   27.1301  -33.3262  -17.2076 C   0  0  0  0  0  0  0  0  0  0  0  0
   28.4024  -33.1123  -17.6562 O   0  0  0  0  0  0  0  0  0  0  0  0
   26.4006  -34.1246  -17.8873 O   0  0  0  0  0  0  0  0  0  0  0  0
  2  8  1  0
  2  1  1  1
  3  2  1  0
  4  3  1  0
  4  5  1  0
  6  5  1  0
  7  6  1  0
  8  9  2  0
 10 11  1  0
 10  8  1  0
 11 12  1  6
 13 14  1  0
 13 12  1  0
 14 18  1  0
 15 14  2  0
 16 17  2  0
 16 11  1  0
 19 16  1  0
 20 19  1  0
 20 21  1  1
 22 26  1  0
 22 21  1  0
 23 22  2  0
 24 23  1  0
 24 25  1  0
 25 26  2  0
 27 20  1  0
 27 28  1  0
 29 27  2  0
M  END
$$$$
