KEH.pdb
     RDKit          3D

 29 29  0  0  1  0  0  0  0  0999 V2000
   23.1175  -14.6274  -20.5161 N   0  0  0  0  0  0  0  0  0  0  0  0
   22.1377  -14.0860  -19.6466 C   0  0  1  0  0  0  0  0  0  0  0  0
   21.9209  -14.7874  -18.3485 C   0  0  0  0  0  0  0  0  0  0  0  0
   21.4147  -16.1773  -18.4140 C   0  0  0  0  0  0  0  0  0  0  0  0
   22.4132  -17.2259  -18.0824 C   0  0  0  0  0  0  0  0  0  0  0  0
   21.8989  -18.6150  -18.2918 C   0  0  0  0  0  0  0  0  0  0  0  0
   22.8634  -19.6442  -18.1088 N   0  0  0  0  0  0  0  0  0  0  0  0
   22.4133  -12.6205  -19.3896 C   0  0  0  0  0  0  0  0  0  0  0  0
   23.6021  -12.2727  -19.4167 O   0  0  0  0  0  0  0  0  0  0  0  0
   21.3985  -11.6953  -19.1325 N   0  0  0  0  0  0  0  0  0  0  0  0
   21.4965  -10.2910  -18.9031 C   0  0  1  0  0  0  0  0  0  0  0  0
   20.3833   -9.4434  -19.4363 C   0  0  0  0  0  0  0  0  0  0  0  0
   20.6214   -7.9580  -19.3388 C   0  0  0  0  0  0  0  0  0  0  0  0
   19.4419   -7.2606  -19.9076 C   0  0  0  0  0  0  0  0  0  0  0  0
   18.4622   -7.9187  -20.2851 O   0  0  0  0  0  0  0  0  0  0  0  0
   21.8805   -9.8906  -17.5523 C   0  0  0  0  0  0  0  0  0  0  0  0
   21.2644  -10.4370  -16.5637 O   0  0  0  0  0  0  0  0  0  0  0  0
   19.4450   -5.8944  -20.0115 O   0  0  0  0  0  0  0  0  0  0  0  0
   22.8945   -8.9379  -17.3366 N   0  0  0  0  0  0  0  0  0  0  0  0
   23.2691   -8.6284  -15.9571 C   0  0  1  0  0  0  0  0  0  0  0  0
   24.7610   -8.2890  -16.0285 C   0  0  0  0  0  0  0  0  0  0  0  0
   25.5859   -9.5171  -16.0978 C   0  0  0  0  0  0  0  0  0  0  0  0
   25.1077  -10.8161  -16.0001 C   0  0  0  0  0  0  0  0  0  0  0  0
   26.1396  -11.6657  -16.1086 N   0  0  0  0  0  0  0  0  0  0  0  0
   27.2664  -10.9456  -16.2730 C   0  0  0  0  0  0  0  0  0  0  0  0
   26.9149   -9.6394  -16.2645 N   0  0  0  0  0  0  0  0  0  0  0  0
   22.5144   -7.4032  -15.5762 C   0  0  0  0  0  0  0  0  0  0  0  0
   21.6244   -6.7811  -16.4047 O   0  0  0  0  0  0  0  0  0  0  0  0
   22.6912   -6.8879  -14.4208 O   0  0  0  0  0  0  0  0  0  0  0  0
  2  8  1  0
  2  1  1  1
  3  2  1  0
  4  3  1  0
  4  5  1  0
  6  5  1  0
  7  6  1  0
  8  9  2  0
 10 11  1  0
 10  8  1  0
 11 12  1  1
 13 14  1  0
 13 12  1  0
 14 18  1  0
 15 14  2  0
 16 17  2  0
 16 11  1  0
 19 16  1  0
 20 19  1  0
 20 21  1  6
 22 26  1  0
 22 21  1  0
 23 22  2  0
 24 23  1  0
 24 25  1  0
 25 26  2  0
 27 20  1  0
 27 28  1  0
 29 27  2  0
M  END
$$$$
