KEH.pdb
     RDKit          3D

 29 29  0  0  1  0  0  0  0  0999 V2000
   22.8285  -13.7964  -17.9743 N   0  0  0  0  0  0  0  0  0  0  0  0
   23.1270  -12.8213  -16.9900 C   0  0  1  0  0  0  0  0  0  0  0  0
   24.5134  -12.2720  -16.9779 C   0  0  0  0  0  0  0  0  0  0  0  0
   25.6166  -13.2409  -16.7868 C   0  0  0  0  0  0  0  0  0  0  0  0
   26.9550  -12.6343  -16.5689 C   0  0  0  0  0  0  0  0  0  0  0  0
   28.0481  -13.6485  -16.4494 C   0  0  0  0  0  0  0  0  0  0  0  0
   29.3568  -13.1059  -16.3236 N   0  0  0  0  0  0  0  0  0  0  0  0
   22.1327  -11.6827  -17.0577 C   0  0  0  0  0  0  0  0  0  0  0  0
   21.8893  -11.2331  -18.1862 O   0  0  0  0  0  0  0  0  0  0  0  0
   21.5138  -11.1524  -15.9230 N   0  0  0  0  0  0  0  0  0  0  0  0
   20.5444  -10.1104  -15.8293 C   0  0  1  0  0  0  0  0  0  0  0  0
   19.2478  -10.4562  -15.1651 C   0  0  0  0  0  0  0  0  0  0  0  0
   18.2379   -9.3373  -15.1359 C   0  0  0  0  0  0  0  0  0  0  0  0
   16.9930   -9.8518  -14.5141 C   0  0  0  0  0  0  0  0  0  0  0  0
   16.5457  -10.9554  -14.8570 O   0  0  0  0  0  0  0  0  0  0  0  0
   21.0455   -8.8105  -15.3914 C   0  0  0  0  0  0  0  0  0  0  0  0
   21.8536   -8.7822  -14.3908 O   0  0  0  0  0  0  0  0  0  0  0  0
   16.3471   -9.1029  -13.5658 O   0  0  0  0  0  0  0  0  0  0  0  0
   20.6587   -7.6244  -16.0442 N   0  0  0  0  0  0  0  0  0  0  0  0
   21.1968   -6.3574  -15.5502 C   0  0  1  0  0  0  0  0  0  0  0  0
   20.7553   -5.3195  -16.5865 C   0  0  0  0  0  0  0  0  0  0  0  0
   21.2944   -3.9785  -16.2633 C   0  0  0  0  0  0  0  0  0  0  0  0
   22.6065   -3.7017  -15.9061 C   0  0  0  0  0  0  0  0  0  0  0  0
   22.7264   -2.3837  -15.6898 N   0  0  0  0  0  0  0  0  0  0  0  0
   21.5260   -1.8085  -15.8986 C   0  0  0  0  0  0  0  0  0  0  0  0
   20.6636   -2.7907  -16.2470 N   0  0  0  0  0  0  0  0  0  0  0  0
   20.5060   -6.0754  -14.2621 C   0  0  0  0  0  0  0  0  0  0  0  0
   21.1071   -5.4460  -13.2094 O   0  0  0  0  0  0  0  0  0  0  0  0
   19.2887   -6.4309  -14.1089 O   0  0  0  0  0  0  0  0  0  0  0  0
  2  8  1  0
  2  1  1  6
  3  2  1  0
  4  3  1  0
  4  5  1  0
  6  5  1  0
  7  6  1  0
  8  9  2  0
 10 11  1  0
 10  8  1  0
 11 12  1  1
 13 14  1  0
 13 12  1  0
 14 18  1  0
 15 14  2  0
 16 17  2  0
 16 11  1  0
 19 16  1  0
 20 19  1  0
 20 21  1  6
 22 26  1  0
 22 21  1  0
 23 22  2  0
 24 23  1  0
 24 25  1  0
 25 26  2  0
 27 20  1  0
 27 28  1  0
 29 27  2  0
M  END
$$$$
