AEN.pdb
     RDKit          3D

 23 22  0  0  1  0  0  0  0  0999 V2000
    7.3818  -11.9363   26.5116 C   0  0  0  0  0  0  0  0  0  0  0  0
    6.4409  -12.7851   25.6968 C   0  0  2  0  0  0  0  0  0  0  0  0
    5.2281  -13.0431   26.4325 N   0  0  0  0  0  0  0  0  0  0  0  0
    7.1210  -14.0404   25.2921 C   0  0  0  0  0  0  0  0  0  0  0  0
    6.9958  -15.0889   25.9746 O   0  0  0  0  0  0  0  0  0  0  0  0
    7.9311  -14.1079   24.1320 N   0  0  0  0  0  0  0  0  0  0  0  0
    8.5300  -15.3421   23.7465 C   0  0  1  0  0  0  0  0  0  0  0  0
    9.1122  -15.2121   22.3719 C   0  0  0  0  0  0  0  0  0  0  0  0
    9.7272  -16.4816   21.8603 C   0  0  0  0  0  0  0  0  0  0  0  0
   10.1836  -16.2731   20.4676 C   0  0  0  0  0  0  0  0  0  0  0  0
    9.3745  -16.3260   19.5133 O   0  0  0  0  0  0  0  0  0  0  0  0
    9.5949  -15.7876   24.6866 C   0  0  0  0  0  0  0  0  0  0  0  0
   10.1834  -14.8915   25.3430 O   0  0  0  0  0  0  0  0  0  0  0  0
   11.5165  -16.0157   20.2017 O   0  0  0  0  0  0  0  0  0  0  0  0
   11.9780  -18.6294   28.2001 N   0  0  0  0  0  0  0  0  0  0  0  0
   10.5250  -18.5376   28.2294 C   0  0  0  0  0  0  0  0  0  0  0  0
    9.9187  -18.9389   29.2395 O   0  0  0  0  0  0  0  0  0  0  0  0
    9.8058  -17.9788   27.0789 C   0  0  0  0  0  0  0  0  0  0  0  0
   10.7581  -17.5640   25.9957 C   0  0  2  0  0  0  0  0  0  0  0  0
    9.9388  -17.1480   24.8449 N   0  0  0  0  0  0  0  0  0  0  0  0
   11.7519  -18.5404   25.6133 C   0  0  0  0  0  0  0  0  0  0  0  0
   12.6041  -19.0195   26.3600 O   0  0  0  0  0  0  0  0  0  0  0  0
   11.7687  -18.9986   24.2798 O   0  0  0  0  0  0  0  0  0  0  0  0
  2  4  1  0
  2  1  1  1
  2  3  1  0
  4  5  2  0
  6  7  1  0
  6  4  1  0
  7 12  1  0
  7  8  1  6
  9  8  1  0
 10  9  1  0
 11 10  2  0
 12 13  2  0
 12 20  1  0
 14 10  1  0
 16 15  1  0
 17 16  2  0
 18 16  1  0
 19 18  1  1
 19 21  1  0
 20 19  1  0
 21 22  2  0
 21 23  1  0
M  END
$$$$
