AEN.pdb
     RDKit          3D

 23 22  0  0  1  0  0  0  0  0999 V2000
    6.7530  -13.8164   19.0444 C   0  0  0  0  0  0  0  0  0  0  0  0
    8.1456  -13.2617   19.1948 C   0  0  2  0  0  0  0  0  0  0  0  0
    8.5592  -12.5996   17.9827 N   0  0  0  0  0  0  0  0  0  0  0  0
    9.0797  -14.3490   19.5785 C   0  0  0  0  0  0  0  0  0  0  0  0
    8.8125  -15.1190   20.5359 O   0  0  0  0  0  0  0  0  0  0  0  0
   10.2986  -14.5617   18.8888 N   0  0  0  0  0  0  0  0  0  0  0  0
   11.1116  -15.6896   19.2006 C   0  0  1  0  0  0  0  0  0  0  0  0
   11.9160  -16.0791   17.9978 C   0  0  0  0  0  0  0  0  0  0  0  0
   12.7810  -17.2845   18.2215 C   0  0  0  0  0  0  0  0  0  0  0  0
   13.5242  -17.5865   16.9773 C   0  0  0  0  0  0  0  0  0  0  0  0
   14.7700  -17.4690   16.9304 O   0  0  0  0  0  0  0  0  0  0  0  0
   12.0329  -15.4412   20.3433 C   0  0  0  0  0  0  0  0  0  0  0  0
   12.6705  -14.3579   20.3329 O   0  0  0  0  0  0  0  0  0  0  0  0
   12.8480  -18.0046   15.8453 O   0  0  0  0  0  0  0  0  0  0  0  0
   10.2601  -17.1153   24.6456 N   0  0  0  0  0  0  0  0  0  0  0  0
   11.3349  -16.2357   24.2079 C   0  0  0  0  0  0  0  0  0  0  0  0
   11.1642  -15.0043   24.2675 O   0  0  0  0  0  0  0  0  0  0  0  0
   12.5898  -16.8095   23.7087 C   0  0  0  0  0  0  0  0  0  0  0  0
   13.0948  -16.0502   22.5168 C   0  0  2  0  0  0  0  0  0  0  0  0
   12.1935  -16.3681   21.3963 N   0  0  0  0  0  0  0  0  0  0  0  0
   14.4782  -16.2681   22.1623 C   0  0  0  0  0  0  0  0  0  0  0  0
   15.4449  -15.7309   22.7012 O   0  0  0  0  0  0  0  0  0  0  0  0
   14.7726  -17.1657   21.1153 O   0  0  0  0  0  0  0  0  0  0  0  0
  2  4  1  0
  2  1  1  6
  2  3  1  0
  4  5  2  0
  6  7  1  0
  6  4  1  0
  7 12  1  0
  7  8  1  6
  9  8  1  0
 10  9  1  0
 11 10  2  0
 12 13  2  0
 12 20  1  0
 14 10  1  0
 16 15  1  0
 17 16  2  0
 18 16  1  0
 19 18  1  1
 19 21  1  0
 20 19  1  0
 21 22  2  0
 21 23  1  0
M  END
$$$$
