AEN.pdb
     RDKit          3D

 23 22  0  0  1  0  0  0  0  0999 V2000
    7.2693  -12.6527   19.2903 C   0  0  0  0  0  0  0  0  0  0  0  0
    8.6174  -12.9999   19.8661 C   0  0  2  0  0  0  0  0  0  0  0  0
    9.5231  -13.4077   18.8210 N   0  0  0  0  0  0  0  0  0  0  0  0
    8.4638  -14.0474   20.9059 C   0  0  0  0  0  0  0  0  0  0  0  0
    7.6616  -13.8928   21.8616 O   0  0  0  0  0  0  0  0  0  0  0  0
    9.2076  -15.2523   20.8648 N   0  0  0  0  0  0  0  0  0  0  0  0
    9.0679  -16.2171   21.9041 C   0  0  1  0  0  0  0  0  0  0  0  0
    9.4690  -17.5681   21.3950 C   0  0  0  0  0  0  0  0  0  0  0  0
    8.5696  -18.0912   20.3138 C   0  0  0  0  0  0  0  0  0  0  0  0
    9.1174  -19.3676   19.8018 C   0  0  0  0  0  0  0  0  0  0  0  0
    9.9928  -19.3761   18.9065 O   0  0  0  0  0  0  0  0  0  0  0  0
    9.8775  -15.8906   23.1100 C   0  0  0  0  0  0  0  0  0  0  0  0
   11.0072  -15.3759   22.9124 O   0  0  0  0  0  0  0  0  0  0  0  0
    8.6667  -20.5731   20.3090 O   0  0  0  0  0  0  0  0  0  0  0  0
    8.3820  -13.1278   27.4749 N   0  0  0  0  0  0  0  0  0  0  0  0
    8.5457  -14.0196   26.3354 C   0  0  0  0  0  0  0  0  0  0  0  0
    7.5460  -14.6100   25.8871 O   0  0  0  0  0  0  0  0  0  0  0  0
    9.8736  -14.2060   25.7396 C   0  0  0  0  0  0  0  0  0  0  0  0
   10.1921  -15.6631   25.5741 C   0  0  2  0  0  0  0  0  0  0  0  0
    9.4125  -16.1408   24.4195 N   0  0  0  0  0  0  0  0  0  0  0  0
    9.9837  -16.4965   26.7356 C   0  0  0  0  0  0  0  0  0  0  0  0
    9.1271  -17.3734   26.8389 O   0  0  0  0  0  0  0  0  0  0  0  0
   10.8171  -16.3098   27.8577 O   0  0  0  0  0  0  0  0  0  0  0  0
  2  4  1  0
  2  1  1  6
  2  3  1  0
  4  5  2  0
  6  7  1  0
  6  4  1  0
  7 12  1  0
  7  8  1  6
  9  8  1  0
 10  9  1  0
 11 10  2  0
 12 13  2  0
 12 20  1  0
 14 10  1  0
 16 15  1  0
 17 16  2  0
 18 16  1  0
 19 18  1  1
 19 21  1  0
 20 19  1  0
 21 22  2  0
 21 23  1  0
M  END
$$$$
