AEN.pdb
     RDKit          3D

 23 22  0  0  1  0  0  0  0  0999 V2000
    7.4115  -12.3291   19.1017 C   0  0  0  0  0  0  0  0  0  0  0  0
    8.4166  -13.4160   18.8225 C   0  0  2  0  0  0  0  0  0  0  0  0
    8.0106  -14.1982   17.6814 N   0  0  0  0  0  0  0  0  0  0  0  0
    8.5973  -14.2549   20.0331 C   0  0  0  0  0  0  0  0  0  0  0  0
    8.9413  -13.7400   21.1273 O   0  0  0  0  0  0  0  0  0  0  0  0
    8.3919  -15.6563   20.0056 N   0  0  0  0  0  0  0  0  0  0  0  0
    8.5733  -16.4309   21.1877 C   0  0  1  0  0  0  0  0  0  0  0  0
    7.8213  -17.7212   21.0652 C   0  0  0  0  0  0  0  0  0  0  0  0
    7.5622  -18.1299   19.6449 C   0  0  0  0  0  0  0  0  0  0  0  0
    6.8707  -19.4388   19.6348 C   0  0  0  0  0  0  0  0  0  0  0  0
    5.6893  -19.5364   19.2311 O   0  0  0  0  0  0  0  0  0  0  0  0
   10.0044  -16.7261   21.4727 C   0  0  0  0  0  0  0  0  0  0  0  0
   10.6644  -17.2745   20.5541 O   0  0  0  0  0  0  0  0  0  0  0  0
    7.5245  -20.5763   20.0731 O   0  0  0  0  0  0  0  0  0  0  0  0
   14.7495  -17.0421   22.8795 N   0  0  0  0  0  0  0  0  0  0  0  0
   14.2415  -15.7549   22.4263 C   0  0  0  0  0  0  0  0  0  0  0  0
   15.0532  -14.8806   22.0718 O   0  0  0  0  0  0  0  0  0  0  0  0
   12.7948  -15.5115   22.3949 C   0  0  0  0  0  0  0  0  0  0  0  0
   12.0360  -16.6951   22.9198 C   0  0  2  0  0  0  0  0  0  0  0  0
   10.6062  -16.4110   22.7106 N   0  0  0  0  0  0  0  0  0  0  0  0
   12.3073  -17.0694   24.2885 C   0  0  0  0  0  0  0  0  0  0  0  0
   11.5141  -16.9735   25.2239 O   0  0  0  0  0  0  0  0  0  0  0  0
   13.5787  -17.5904   24.6057 O   0  0  0  0  0  0  0  0  0  0  0  0
  2  4  1  0
  2  1  1  1
  2  3  1  0
  4  5  2  0
  6  7  1  0
  6  4  1  0
  7 12  1  0
  7  8  1  6
  9  8  1  0
 10  9  1  0
 11 10  2  0
 12 13  2  0
 12 20  1  0
 14 10  1  0
 16 15  1  0
 17 16  2  0
 18 16  1  0
 19 18  1  1
 19 21  1  0
 20 19  1  0
 21 22  2  0
 21 23  1  0
M  END
$$$$
