AEN.pdb
     RDKit          3D

 23 22  0  0  1  0  0  0  0  0999 V2000
    8.0014  -12.3635   19.9960 C   0  0  0  0  0  0  0  0  0  0  0  0
    8.3155  -13.1594   18.7561 C   0  0  2  0  0  0  0  0  0  0  0  0
    7.1350  -13.8343   18.2766 N   0  0  0  0  0  0  0  0  0  0  0  0
    9.4210  -14.1088   19.0363 C   0  0  0  0  0  0  0  0  0  0  0  0
    9.1837  -15.3199   19.2767 O   0  0  0  0  0  0  0  0  0  0  0  0
   10.7753  -13.6935   19.0447 N   0  0  0  0  0  0  0  0  0  0  0  0
   11.8196  -14.6553   19.1664 C   0  0  1  0  0  0  0  0  0  0  0  0
   12.9330  -14.3125   18.2240 C   0  0  0  0  0  0  0  0  0  0  0  0
   14.0618  -15.3008   18.2471 C   0  0  0  0  0  0  0  0  0  0  0  0
   15.0873  -14.8896   17.2619 C   0  0  0  0  0  0  0  0  0  0  0  0
   16.1194  -14.2816   17.6270 O   0  0  0  0  0  0  0  0  0  0  0  0
   12.3629  -14.7483   20.5493 C   0  0  0  0  0  0  0  0  0  0  0  0
   12.7930  -13.6845   21.0626 O   0  0  0  0  0  0  0  0  0  0  0  0
   14.9174  -15.1735   15.9187 O   0  0  0  0  0  0  0  0  0  0  0  0
   11.7169  -17.3113   25.8155 N   0  0  0  0  0  0  0  0  0  0  0  0
   12.6552  -17.3213   24.7020 C   0  0  0  0  0  0  0  0  0  0  0  0
   13.8653  -17.4905   24.9387 O   0  0  0  0  0  0  0  0  0  0  0  0
   12.1640  -17.1339   23.3320 C   0  0  0  0  0  0  0  0  0  0  0  0
   12.8470  -15.9751   22.6667 C   0  0  2  0  0  0  0  0  0  0  0  0
   12.3999  -15.9659   21.2635 N   0  0  0  0  0  0  0  0  0  0  0  0
   14.2881  -15.9440   22.7639 C   0  0  0  0  0  0  0  0  0  0  0  0
   14.9315  -15.3373   23.6190 O   0  0  0  0  0  0  0  0  0  0  0  0
   15.0436  -16.6596   21.8123 O   0  0  0  0  0  0  0  0  0  0  0  0
  2  4  1  0
  2  1  1  1
  2  3  1  0
  4  5  2  0
  6  7  1  0
  6  4  1  0
  7 12  1  0
  7  8  1  6
  9  8  1  0
 10  9  1  0
 11 10  2  0
 12 13  2  0
 12 20  1  0
 14 10  1  0
 16 15  1  0
 17 16  2  0
 18 16  1  0
 19 18  1  6
 19 21  1  0
 20 19  1  0
 21 22  2  0
 21 23  1  0
M  END
$$$$
