AEN.pdb
     RDKit          3D

 23 22  0  0  1  0  0  0  0  0999 V2000
    6.9434  -13.5703   18.1713 C   0  0  0  0  0  0  0  0  0  0  0  0
    8.1092  -13.2905   19.0835 C   0  0  2  0  0  0  0  0  0  0  0  0
    8.6158  -11.9590   18.8616 N   0  0  0  0  0  0  0  0  0  0  0  0
    9.1579  -14.3219   18.8876 C   0  0  0  0  0  0  0  0  0  0  0  0
    8.8873  -15.5445   19.0009 O   0  0  0  0  0  0  0  0  0  0  0  0
   10.4937  -13.9746   18.5684 N   0  0  0  0  0  0  0  0  0  0  0  0
   11.4975  -14.9829   18.4897 C   0  0  1  0  0  0  0  0  0  0  0  0
   12.3478  -14.7541   17.2773 C   0  0  0  0  0  0  0  0  0  0  0  0
   13.4725  -15.7380   17.1412 C   0  0  0  0  0  0  0  0  0  0  0  0
   14.1966  -15.4758   15.8769 C   0  0  0  0  0  0  0  0  0  0  0  0
   13.5793  -15.1223   14.8463 O   0  0  0  0  0  0  0  0  0  0  0  0
   12.3697  -15.0269   19.6954 C   0  0  0  0  0  0  0  0  0  0  0  0
   12.8037  -13.9270   20.1221 O   0  0  0  0  0  0  0  0  0  0  0  0
   15.5713  -15.6185   15.8182 O   0  0  0  0  0  0  0  0  0  0  0  0
   12.6156  -17.1598   25.0760 N   0  0  0  0  0  0  0  0  0  0  0  0
   13.1369  -16.3017   24.0213 C   0  0  0  0  0  0  0  0  0  0  0  0
   14.1482  -15.6141   24.2524 O   0  0  0  0  0  0  0  0  0  0  0  0
   12.4683  -16.2620   22.7157 C   0  0  0  0  0  0  0  0  0  0  0  0
   13.4681  -16.2086   21.5979 C   0  0  2  0  0  0  0  0  0  0  0  0
   12.7025  -16.2383   20.3402 N   0  0  0  0  0  0  0  0  0  0  0  0
   14.4977  -17.2219   21.6155 C   0  0  0  0  0  0  0  0  0  0  0  0
   14.3038  -18.4331   21.7093 O   0  0  0  0  0  0  0  0  0  0  0  0
   15.8448  -16.8161   21.5189 O   0  0  0  0  0  0  0  0  0  0  0  0
  2  4  1  0
  2  1  1  6
  2  3  1  0
  4  5  2  0
  6  7  1  0
  6  4  1  0
  7 12  1  0
  7  8  1  6
  9  8  1  0
 10  9  1  0
 11 10  2  0
 12 13  2  0
 12 20  1  0
 14 10  1  0
 16 15  1  0
 17 16  2  0
 18 16  1  0
 19 18  1  1
 19 21  1  0
 20 19  1  0
 21 22  2  0
 21 23  1  0
M  END
$$$$
