AEN.pdb
     RDKit          3D

 23 22  0  0  1  0  0  0  0  0999 V2000
    7.2663  -13.3814   22.2273 C   0  0  0  0  0  0  0  0  0  0  0  0
    7.6099  -14.3792   21.1523 C   0  0  2  0  0  0  0  0  0  0  0  0
    6.4193  -14.8062   20.4603 N   0  0  0  0  0  0  0  0  0  0  0  0
    8.3456  -15.5229   21.7463 C   0  0  0  0  0  0  0  0  0  0  0  0
    7.7295  -16.5318   22.1743 O   0  0  0  0  0  0  0  0  0  0  0  0
    9.7581  -15.5245   21.8544 N   0  0  0  0  0  0  0  0  0  0  0  0
   10.4389  -16.6789   22.3384 C   0  0  1  0  0  0  0  0  0  0  0  0
   11.8384  -16.7001   21.8033 C   0  0  0  0  0  0  0  0  0  0  0  0
   12.4099  -18.0818   21.6779 C   0  0  0  0  0  0  0  0  0  0  0  0
   13.7622  -17.9956   21.0819 C   0  0  0  0  0  0  0  0  0  0  0  0
   13.9690  -17.3026   20.0595 O   0  0  0  0  0  0  0  0  0  0  0  0
   10.4846  -16.7435   23.8250 C   0  0  0  0  0  0  0  0  0  0  0  0
   10.5216  -15.6475   24.4396 O   0  0  0  0  0  0  0  0  0  0  0  0
   14.8198  -18.6829   21.6499 O   0  0  0  0  0  0  0  0  0  0  0  0
    9.3023  -19.9841   28.5867 N   0  0  0  0  0  0  0  0  0  0  0  0
    9.4858  -18.6530   28.0255 C   0  0  0  0  0  0  0  0  0  0  0  0
    9.7441  -17.7084   28.7936 O   0  0  0  0  0  0  0  0  0  0  0  0
    9.3644  -18.4485   26.5775 C   0  0  0  0  0  0  0  0  0  0  0  0
   10.6601  -17.9732   25.9883 C   0  0  2  0  0  0  0  0  0  0  0  0
   10.4867  -17.9693   24.5258 N   0  0  0  0  0  0  0  0  0  0  0  0
   11.8436  -18.7034   26.3797 C   0  0  0  0  0  0  0  0  0  0  0  0
   12.4688  -19.4837   25.6630 O   0  0  0  0  0  0  0  0  0  0  0  0
   12.3443  -18.5256   27.6859 O   0  0  0  0  0  0  0  0  0  0  0  0
  2  4  1  0
  2  1  1  1
  2  3  1  0
  4  5  2  0
  6  7  1  0
  6  4  1  0
  7 12  1  0
  7  8  1  6
  9  8  1  0
 10  9  1  0
 11 10  2  0
 12 13  2  0
 12 20  1  0
 14 10  1  0
 16 15  1  0
 17 16  2  0
 18 16  1  0
 19 18  1  1
 19 21  1  0
 20 19  1  0
 21 22  2  0
 21 23  1  0
M  END
$$$$
