AEN.pdb
     RDKit          3D

 23 22  0  0  1  0  0  0  0  0999 V2000
    7.8078  -12.3040   19.7246 C   0  0  0  0  0  0  0  0  0  0  0  0
    8.2446  -13.2319   18.6211 C   0  0  2  0  0  0  0  0  0  0  0  0
    7.1240  -13.9938   18.1287 N   0  0  0  0  0  0  0  0  0  0  0  0
    9.3395  -14.1080   19.1067 C   0  0  0  0  0  0  0  0  0  0  0  0
    9.0905  -15.2424   19.5881 O   0  0  0  0  0  0  0  0  0  0  0  0
   10.6966  -13.7057   19.0485 N   0  0  0  0  0  0  0  0  0  0  0  0
   11.7268  -14.5949   19.4708 C   0  0  1  0  0  0  0  0  0  0  0  0
   12.9953  -14.2814   18.7374 C   0  0  0  0  0  0  0  0  0  0  0  0
   14.1177  -15.2259   19.0528 C   0  0  0  0  0  0  0  0  0  0  0  0
   15.2631  -14.9338   18.1616 C   0  0  0  0  0  0  0  0  0  0  0  0
   15.6105  -15.7486   17.2764 O   0  0  0  0  0  0  0  0  0  0  0  0
   11.9824  -14.5308   20.9360 C   0  0  0  0  0  0  0  0  0  0  0  0
   11.5266  -13.5320   21.5482 O   0  0  0  0  0  0  0  0  0  0  0  0
   15.9672  -13.7508   18.2961 O   0  0  0  0  0  0  0  0  0  0  0  0
    8.6172  -16.8526   23.9337 N   0  0  0  0  0  0  0  0  0  0  0  0
   10.0401  -17.0606   23.7040 C   0  0  0  0  0  0  0  0  0  0  0  0
   10.6779  -17.7751   24.4987 O   0  0  0  0  0  0  0  0  0  0  0  0
   10.6927  -16.4307   22.5505 C   0  0  0  0  0  0  0  0  0  0  0  0
   12.1349  -16.1342   22.8408 C   0  0  2  0  0  0  0  0  0  0  0  0
   12.7007  -15.5360   21.6198 N   0  0  0  0  0  0  0  0  0  0  0  0
   12.9326  -17.2456   23.3052 C   0  0  0  0  0  0  0  0  0  0  0  0
   12.8143  -18.4121   22.9329 O   0  0  0  0  0  0  0  0  0  0  0  0
   13.9366  -17.0005   24.2646 O   0  0  0  0  0  0  0  0  0  0  0  0
  2  4  1  0
  2  1  1  1
  2  3  1  0
  4  5  2  0
  6  7  1  0
  6  4  1  0
  7 12  1  0
  7  8  1  6
  9  8  1  0
 10  9  1  0
 11 10  2  0
 12 13  2  0
 12 20  1  0
 14 10  1  0
 16 15  1  0
 17 16  2  0
 18 16  1  0
 19 18  1  6
 19 21  1  0
 20 19  1  0
 21 22  2  0
 21 23  1  0
M  END
$$$$
