DVW.pdb
     RDKit          3D

 30 31  0  0  1  0  0  0  0  0999 V2000
    9.7950  -18.8464   19.2419 N   0  0  0  0  0  0  0  0  0  0  0  0
   11.0196  -18.1016   19.4577 C   0  0  1  0  0  0  0  0  0  0  0  0
   11.7187  -17.7872   18.1550 C   0  0  0  0  0  0  0  0  0  0  0  0
   12.4676  -18.9479   17.6456 C   0  0  0  0  0  0  0  0  0  0  0  0
   12.3554  -20.0635   18.2563 O   0  0  0  0  0  0  0  0  0  0  0  0
   10.7554  -16.8762   20.2645 C   0  0  0  0  0  0  0  0  0  0  0  0
   11.7043  -16.1196   20.5893 O   0  0  0  0  0  0  0  0  0  0  0  0
   13.2965  -18.9318   16.5426 O   0  0  0  0  0  0  0  0  0  0  0  0
    7.4775  -13.7867   22.3032 C   0  0  0  0  0  0  0  0  0  0  0  0
    7.7233  -15.0952   21.5906 C   0  0  1  0  0  0  0  0  0  0  0  0
    7.0012  -15.2082   20.2891 C   0  0  0  0  0  0  0  0  0  0  0  0
    9.2074  -15.3707   21.4473 C   0  0  2  0  0  0  0  0  0  0  0  0
    9.4331  -16.5500   20.6745 N   0  0  0  0  0  0  0  0  0  0  0  0
    9.8734  -15.4295   22.7814 C   0  0  0  0  0  0  0  0  0  0  0  0
   10.8181  -14.6408   23.0620 O   0  0  0  0  0  0  0  0  0  0  0  0
    9.4967  -16.3528   23.7939 N   0  0  0  0  0  0  0  0  0  0  0  0
   10.0513  -16.3722   25.1137 C   0  0  1  0  0  0  0  0  0  0  0  0
    9.8474  -15.0935   25.8893 C   0  0  0  0  0  0  0  0  0  0  0  0
    8.4152  -14.8005   26.1172 C   0  0  0  0  0  0  0  0  0  0  0  0
    7.3522  -15.6838   26.0091 C   0  0  0  0  0  0  0  0  0  0  0  0
    6.2001  -15.0544   26.2950 N   0  0  0  0  0  0  0  0  0  0  0  0
    6.4580  -13.7639   26.5944 C   0  0  0  0  0  0  0  0  0  0  0  0
    5.6289  -12.7204   26.9497 C   0  0  0  0  0  0  0  0  0  0  0  0
    6.1495  -11.4694   27.2099 C   0  0  0  0  0  0  0  0  0  0  0  0
    7.5168  -11.3185   27.0988 C   0  0  0  0  0  0  0  0  0  0  0  0
    8.3611  -12.3545   26.7438 C   0  0  0  0  0  0  0  0  0  0  0  0
    7.8223  -13.5984   26.4872 C   0  0  0  0  0  0  0  0  0  0  0  0
    9.6022  -17.5534   25.8998 C   0  0  0  0  0  0  0  0  0  0  0  0
   10.0258  -17.6654   27.0780 O   0  0  0  0  0  0  0  0  0  0  0  0
    8.7609  -18.4998   25.3895 O   0  0  0  0  0  0  0  0  0  0  0  0
  2  1  1  6
  2  6  1  0
  2  3  1  0
  4  3  1  0
  4  5  2  0
  6  7  2  0
  8  4  1  0
 10 11  1  6
 10 12  1  0
 10  9  1  0
 12 13  1  1
 13  6  1  0
 14 12  1  0
 14 15  2  0
 16 14  1  0
 17 16  1  0
 17 28  1  0
 17 18  1  1
 19 18  1  0
 20 19  2  0
 21 22  1  0
 21 20  1  0
 22 27  2  0
 23 24  2  0
 23 22  1  0
 24 25  1  0
 25 26  2  0
 27 26  1  0
 27 19  1  0
 28 29  2  0
 28 30  1  0
M  END
$$$$
