DVW.pdb
     RDKit          3D

 30 31  0  0  1  0  0  0  0  0999 V2000
    9.5772  -18.5534   18.5520 N   0  0  0  0  0  0  0  0  0  0  0  0
    9.5859  -18.7238   19.9914 C   0  0  1  0  0  0  0  0  0  0  0  0
   10.6742  -19.6746   20.4344 C   0  0  0  0  0  0  0  0  0  0  0  0
   10.5428  -20.9909   19.7879 C   0  0  0  0  0  0  0  0  0  0  0  0
   11.6036  -21.6500   19.5225 O   0  0  0  0  0  0  0  0  0  0  0  0
    9.6787  -17.4035   20.6775 C   0  0  0  0  0  0  0  0  0  0  0  0
   10.7607  -16.7650   20.6703 O   0  0  0  0  0  0  0  0  0  0  0  0
    9.3471  -21.5839   19.4378 O   0  0  0  0  0  0  0  0  0  0  0  0
    7.2815  -13.4990   22.4693 C   0  0  0  0  0  0  0  0  0  0  0  0
    7.2323  -14.8909   21.8858 C   0  0  1  0  0  0  0  0  0  0  0  0
    6.5471  -14.9565   20.5613 C   0  0  0  0  0  0  0  0  0  0  0  0
    8.6122  -15.5182   21.8478 C   0  0  2  0  0  0  0  0  0  0  0  0
    8.5498  -16.8533   21.3451 N   0  0  0  0  0  0  0  0  0  0  0  0
    9.2720  -15.4445   23.1843 C   0  0  0  0  0  0  0  0  0  0  0  0
    9.9479  -14.4298   23.5107 O   0  0  0  0  0  0  0  0  0  0  0  0
    9.1839  -16.4845   24.1487 N   0  0  0  0  0  0  0  0  0  0  0  0
    9.9189  -16.5088   25.3772 C   0  0  1  0  0  0  0  0  0  0  0  0
    9.0620  -16.3836   26.6134 C   0  0  0  0  0  0  0  0  0  0  0  0
    7.8753  -15.5297   26.3867 C   0  0  0  0  0  0  0  0  0  0  0  0
    6.6018  -15.9438   26.0281 C   0  0  0  0  0  0  0  0  0  0  0  0
    5.7868  -14.8815   25.9171 N   0  0  0  0  0  0  0  0  0  0  0  0
    6.4791  -13.7562   26.1922 C   0  0  0  0  0  0  0  0  0  0  0  0
    6.1031  -12.4292   26.2151 C   0  0  0  0  0  0  0  0  0  0  0  0
    7.0185  -11.4471   26.5333 C   0  0  0  0  0  0  0  0  0  0  0  0
    8.3055  -11.8527   26.8223 C   0  0  0  0  0  0  0  0  0  0  0  0
    8.6979  -13.1786   26.8036 C   0  0  0  0  0  0  0  0  0  0  0  0
    7.7687  -14.1467   26.4829 C   0  0  0  0  0  0  0  0  0  0  0  0
   10.8270  -17.6842   25.4710 C   0  0  0  0  0  0  0  0  0  0  0  0
   11.5765  -17.7635   26.4770 O   0  0  0  0  0  0  0  0  0  0  0  0
   10.8694  -18.6589   24.5161 O   0  0  0  0  0  0  0  0  0  0  0  0
  2  1  1  6
  2  6  1  0
  2  3  1  0
  4  3  1  0
  4  5  2  0
  6  7  2  0
  8  4  1  0
 10 11  1  6
 10 12  1  0
 10  9  1  0
 12 13  1  1
 13  6  1  0
 14 12  1  0
 14 15  2  0
 16 14  1  0
 17 16  1  0
 17 28  1  0
 17 18  1  1
 19 18  1  0
 20 19  2  0
 21 22  1  0
 21 20  1  0
 22 27  2  0
 23 24  2  0
 23 22  1  0
 24 25  1  0
 25 26  2  0
 27 26  1  0
 27 19  1  0
 28 29  2  0
 28 30  1  0
M  END
$$$$
