DVW.pdb
     RDKit          3D

 30 31  0  0  1  0  0  0  0  0999 V2000
   10.7107  -17.6484   18.2001 N   0  0  0  0  0  0  0  0  0  0  0  0
   11.7004  -17.1866   19.1530 C   0  0  1  0  0  0  0  0  0  0  0  0
   12.8087  -16.4131   18.4761 C   0  0  0  0  0  0  0  0  0  0  0  0
   13.7836  -17.3097   17.8332 C   0  0  0  0  0  0  0  0  0  0  0  0
   13.5717  -17.6810   16.6301 O   0  0  0  0  0  0  0  0  0  0  0  0
   11.0547  -16.4046   20.2457 C   0  0  0  0  0  0  0  0  0  0  0  0
   11.7504  -15.9391   21.1825 O   0  0  0  0  0  0  0  0  0  0  0  0
   14.9292  -17.7919   18.4325 O   0  0  0  0  0  0  0  0  0  0  0  0
    7.0045  -14.2937   22.1323 C   0  0  0  0  0  0  0  0  0  0  0  0
    7.6676  -14.9838   20.9643 C   0  0  1  0  0  0  0  0  0  0  0  0
    7.6902  -14.1585   19.7207 C   0  0  0  0  0  0  0  0  0  0  0  0
    9.0462  -15.4921   21.3388 C   0  0  2  0  0  0  0  0  0  0  0  0
    9.6507  -16.1770   20.2413 N   0  0  0  0  0  0  0  0  0  0  0  0
    8.9920  -16.3309   22.5718 C   0  0  0  0  0  0  0  0  0  0  0  0
    8.9185  -17.5882   22.4894 O   0  0  0  0  0  0  0  0  0  0  0  0
    9.0187  -15.7820   23.8824 N   0  0  0  0  0  0  0  0  0  0  0  0
    9.0612  -16.5623   25.0821 C   0  0  1  0  0  0  0  0  0  0  0  0
    9.0034  -15.7482   26.3519 C   0  0  0  0  0  0  0  0  0  0  0  0
    7.7685  -14.9382   26.4406 C   0  0  0  0  0  0  0  0  0  0  0  0
    6.4626  -15.3853   26.3118 C   0  0  0  0  0  0  0  0  0  0  0  0
    5.6084  -14.3584   26.4563 N   0  0  0  0  0  0  0  0  0  0  0  0
    6.3058  -13.2248   26.6800 C   0  0  0  0  0  0  0  0  0  0  0  0
    5.8999  -11.9232   26.8892 C   0  0  0  0  0  0  0  0  0  0  0  0
    6.8289  -10.9247   27.0983 C   0  0  0  0  0  0  0  0  0  0  0  0
    8.1602  -11.2881   27.0877 C   0  0  0  0  0  0  0  0  0  0  0  0
    8.5829  -12.5882   26.8794 C   0  0  0  0  0  0  0  0  0  0  0  0
    7.6395  -13.5732   26.6720 C   0  0  0  0  0  0  0  0  0  0  0  0
    8.0386  -17.6436   25.0915 C   0  0  0  0  0  0  0  0  0  0  0  0
    7.0537  -17.5216   24.3201 O   0  0  0  0  0  0  0  0  0  0  0  0
    8.1366  -18.7415   25.8968 O   0  0  0  0  0  0  0  0  0  0  0  0
  2  1  1  6
  2  6  1  0
  2  3  1  0
  4  3  1  0
  4  5  2  0
  6  7  2  0
  8  4  1  0
 10 11  1  6
 10 12  1  0
 10  9  1  0
 12 13  1  6
 13  6  1  0
 14 12  1  0
 14 15  2  0
 16 14  1  0
 17 16  1  0
 17 28  1  0
 17 18  1  1
 19 18  1  0
 20 19  2  0
 21 22  1  0
 21 20  1  0
 22 27  2  0
 23 24  2  0
 23 22  1  0
 24 25  1  0
 25 26  2  0
 27 26  1  0
 27 19  1  0
 28 29  2  0
 28 30  1  0
M  END
$$$$
