DVW.pdb
     RDKit          3D

 30 31  0  0  1  0  0  0  0  0999 V2000
   10.6072  -18.5914   18.5595 N   0  0  0  0  0  0  0  0  0  0  0  0
   11.5915  -17.6496   19.0545 C   0  0  1  0  0  0  0  0  0  0  0  0
   12.2690  -16.9057   17.9264 C   0  0  0  0  0  0  0  0  0  0  0  0
   12.9008  -17.8283   16.9686 C   0  0  0  0  0  0  0  0  0  0  0  0
   12.5230  -19.0478   16.9546 O   0  0  0  0  0  0  0  0  0  0  0  0
   10.9808  -16.7247   20.0514 C   0  0  0  0  0  0  0  0  0  0  0  0
   11.6888  -15.8584   20.6228 O   0  0  0  0  0  0  0  0  0  0  0  0
   13.8857  -17.4797   16.0673 O   0  0  0  0  0  0  0  0  0  0  0  0
    7.0007  -14.9576   22.3547 C   0  0  0  0  0  0  0  0  0  0  0  0
    7.5772  -15.7823   21.2287 C   0  0  1  0  0  0  0  0  0  0  0  0
    7.2600  -15.2427   19.8736 C   0  0  0  0  0  0  0  0  0  0  0  0
    9.0641  -16.0085   21.4208 C   0  0  2  0  0  0  0  0  0  0  0  0
    9.5965  -16.8110   20.3665 N   0  0  0  0  0  0  0  0  0  0  0  0
    9.3501  -16.5796   22.7695 C   0  0  0  0  0  0  0  0  0  0  0  0
    9.6426  -17.8004   22.9002 O   0  0  0  0  0  0  0  0  0  0  0  0
    9.3119  -15.8059   23.9610 N   0  0  0  0  0  0  0  0  0  0  0  0
    9.6317  -16.3124   25.2614 C   0  0  1  0  0  0  0  0  0  0  0  0
    9.4804  -15.3027   26.3731 C   0  0  0  0  0  0  0  0  0  0  0  0
    8.1417  -14.6729   26.3775 C   0  0  0  0  0  0  0  0  0  0  0  0
    6.9174  -15.3069   26.2323 C   0  0  0  0  0  0  0  0  0  0  0  0
    5.9227  -14.4058   26.2924 N   0  0  0  0  0  0  0  0  0  0  0  0
    6.4449  -13.1748   26.4749 C   0  0  0  0  0  0  0  0  0  0  0  0
    5.8527  -11.9352   26.5985 C   0  0  0  0  0  0  0  0  0  0  0  0
    6.6237  -10.8055   26.7812 C   0  0  0  0  0  0  0  0  0  0  0  0
    7.9922  -10.9762   26.8330 C   0  0  0  0  0  0  0  0  0  0  0  0
    8.6008  -12.2119   26.7107 C   0  0  0  0  0  0  0  0  0  0  0  0
    7.8136  -13.3302   26.5285 C   0  0  0  0  0  0  0  0  0  0  0  0
    8.8996  -17.5696   25.5756 C   0  0  0  0  0  0  0  0  0  0  0  0
    7.8514  -17.8123   24.9257 O   0  0  0  0  0  0  0  0  0  0  0  0
    9.3242  -18.4490   26.5297 O   0  0  0  0  0  0  0  0  0  0  0  0
  2  1  1  6
  2  6  1  0
  2  3  1  0
  4  3  1  0
  4  5  2  0
  6  7  2  0
  8  4  1  0
 10 11  1  6
 10 12  1  0
 10  9  1  0
 12 13  1  6
 13  6  1  0
 14 12  1  0
 14 15  2  0
 16 14  1  0
 17 16  1  0
 17 28  1  0
 17 18  1  1
 19 18  1  0
 20 19  2  0
 21 22  1  0
 21 20  1  0
 22 27  2  0
 23 24  2  0
 23 22  1  0
 24 25  1  0
 25 26  2  0
 27 26  1  0
 27 19  1  0
 28 29  2  0
 28 30  1  0
M  END
$$$$
