DVW.pdb
     RDKit          3D

 30 31  0  0  1  0  0  0  0  0999 V2000
    8.5778  -18.5698   17.8307 N   0  0  0  0  0  0  0  0  0  0  0  0
    7.9493  -18.1730   19.0751 C   0  0  1  0  0  0  0  0  0  0  0  0
    7.9838  -19.2856   20.0976 C   0  0  0  0  0  0  0  0  0  0  0  0
    7.6305  -20.5842   19.5005 C   0  0  0  0  0  0  0  0  0  0  0  0
    6.5112  -20.6949   18.8965 O   0  0  0  0  0  0  0  0  0  0  0  0
    8.5559  -16.9136   19.5933 C   0  0  0  0  0  0  0  0  0  0  0  0
    9.8047  -16.8035   19.6749 O   0  0  0  0  0  0  0  0  0  0  0  0
    8.4222  -21.7137   19.5393 O   0  0  0  0  0  0  0  0  0  0  0  0
    8.1855  -12.1741   20.7595 C   0  0  0  0  0  0  0  0  0  0  0  0
    7.5424  -13.4177   20.1935 C   0  0  1  0  0  0  0  0  0  0  0  0
    7.2687  -13.3315   18.7287 C   0  0  0  0  0  0  0  0  0  0  0  0
    8.3359  -14.6580   20.5553 C   0  0  2  0  0  0  0  0  0  0  0  0
    7.7329  -15.8270   19.9995 N   0  0  0  0  0  0  0  0  0  0  0  0
    8.5238  -14.7629   22.0320 C   0  0  0  0  0  0  0  0  0  0  0  0
    7.6864  -14.2472   22.8233 O   0  0  0  0  0  0  0  0  0  0  0  0
    9.6281  -15.4319   22.6256 N   0  0  0  0  0  0  0  0  0  0  0  0
    9.8854  -15.4698   24.0335 C   0  0  1  0  0  0  0  0  0  0  0  0
    8.6827  -15.8266   24.8728 C   0  0  0  0  0  0  0  0  0  0  0  0
    8.5363  -14.9371   26.0460 C   0  0  0  0  0  0  0  0  0  0  0  0
    9.2214  -15.0174   27.2485 C   0  0  0  0  0  0  0  0  0  0  0  0
    8.8216  -14.0344   28.0724 N   0  0  0  0  0  0  0  0  0  0  0  0
    7.8805  -13.2892   27.4556 C   0  0  0  0  0  0  0  0  0  0  0  0
    7.1672  -12.1838   27.8702 C   0  0  0  0  0  0  0  0  0  0  0  0
    6.2421  -11.5929   27.0342 C   0  0  0  0  0  0  0  0  0  0  0  0
    6.0703  -12.1540   25.7851 C   0  0  0  0  0  0  0  0  0  0  0  0
    6.7775  -13.2618   25.3548 C   0  0  0  0  0  0  0  0  0  0  0  0
    7.6982  -13.8391   26.2048 C   0  0  0  0  0  0  0  0  0  0  0  0
   11.0509  -16.3307   24.3735 C   0  0  0  0  0  0  0  0  0  0  0  0
   11.3318  -17.2698   23.5866 O   0  0  0  0  0  0  0  0  0  0  0  0
   11.8084  -16.1347   25.4922 O   0  0  0  0  0  0  0  0  0  0  0  0
  2  1  1  6
  2  6  1  0
  2  3  1  0
  4  3  1  0
  4  5  2  0
  6  7  2  0
  8  4  1  0
 10 11  1  6
 10 12  1  0
 10  9  1  0
 12 13  1  1
 13  6  1  0
 14 12  1  0
 14 15  2  0
 16 14  1  0
 17 16  1  0
 17 28  1  0
 17 18  1  1
 19 18  1  0
 20 19  2  0
 21 22  1  0
 21 20  1  0
 22 27  2  0
 23 24  2  0
 23 22  1  0
 24 25  1  0
 25 26  2  0
 27 26  1  0
 27 19  1  0
 28 29  2  0
 28 30  1  0
M  END
$$$$
