PRV.pdb
     RDKit          3D

 26 26  0  0  1  0  0  0  0  0999 V2000
    8.5769  -15.2225   19.3221 N   0  0  0  0  0  0  0  0  0  0  0  0
    8.3399  -15.0473   17.9250 C   0  0  0  0  0  0  0  0  0  0  0  0
    7.8794  -13.6441   17.6987 C   0  0  0  0  0  0  0  0  0  0  0  0
    7.5985  -13.1430   19.0891 C   0  0  0  0  0  0  0  0  0  0  0  0
    8.4830  -13.9578   19.9733 C   0  0  1  0  0  0  0  0  0  0  0  0
    7.9393  -14.0903   21.3704 C   0  0  0  0  0  0  0  0  0  0  0  0
    7.6981  -13.0706   22.0533 O   0  0  0  0  0  0  0  0  0  0  0  0
    6.5698  -21.9711   25.3564 N   0  0  0  0  0  0  0  0  0  0  0  0
    7.3402  -21.2649   24.3348 C   0  0  0  0  0  0  0  0  0  0  0  0
    8.0039  -21.9175   23.4909 N   0  0  0  0  0  0  0  0  0  0  0  0
    7.3239  -19.8547   24.3138 N   0  0  0  0  0  0  0  0  0  0  0  0
    6.6075  -18.9626   25.1643 C   0  0  0  0  0  0  0  0  0  0  0  0
    6.7335  -17.5071   24.9181 C   0  0  0  0  0  0  0  0  0  0  0  0
    7.1953  -17.1816   23.4772 C   0  0  0  0  0  0  0  0  0  0  0  0
    7.3090  -15.7390   23.2166 C   0  0  2  0  0  0  0  0  0  0  0  0
    7.7052  -15.3786   21.8985 N   0  0  0  0  0  0  0  0  0  0  0  0
    8.0253  -14.9723   24.3073 C   0  0  0  0  0  0  0  0  0  0  0  0
    9.2704  -14.9830   24.4475 O   0  0  0  0  0  0  0  0  0  0  0  0
    8.5956  -21.6260   22.7665 C   0  0  0  0  0  0  0  0  0  0  0  0
    6.9579  -11.2402   25.5551 C   0  0  2  0  0  0  0  0  0  0  0  0
    7.2249  -12.1983   26.6929 C   0  0  0  0  0  0  0  0  0  0  0  0
    5.8962  -12.6625   27.2381 C   0  0  2  0  0  0  0  0  0  0  0  0
    8.0185  -13.3932   26.2668 N   0  0  0  0  0  0  0  0  0  0  0  0
    7.3098  -14.1787   25.2554 C   0  0  0  0  0  0  0  0  0  0  0  0
    8.2650  -14.2735   27.4444 O   0  0  0  0  0  0  0  0  0  0  0  0
    7.6899  -15.5474   27.5106 O   0  0  0  0  0  0  0  0  0  0  0  0
  1  2  1  0
  3  2  1  0
  4  5  1  0
  4  3  1  0
  5  1  1  0
  6  7  2  0
  5  6  1  1
  9 11  1  0
  9  8  1  0
 10  9  2  0
 12 11  1  0
 13 12  1  0
 13 14  1  0
 15 14  1  1
 15 16  1  0
 16  6  1  0
 17 18  2  0
 17 15  1  0
 20 19  1  1
 20 21  1  0
 22 20  1  0
 22 23  1  1
 23 17  1  0
 24 22  1  0
 25 24  1  0
 26 24  2  0
M  END
$$$$
