PRV.pdb
     RDKit          3D

 26 26  0  0  1  0  0  0  0  0999 V2000
    8.6643  -14.4512   18.7553 N   0  0  0  0  0  0  0  0  0  0  0  0
    8.2510  -14.1779   17.4161 C   0  0  0  0  0  0  0  0  0  0  0  0
    7.4206  -12.9359   17.4246 C   0  0  0  0  0  0  0  0  0  0  0  0
    7.1597  -12.7035   18.8879 C   0  0  0  0  0  0  0  0  0  0  0  0
    8.3100  -13.3488   19.5869 C   0  0  1  0  0  0  0  0  0  0  0  0
    7.9625  -13.7934   20.9821 C   0  0  0  0  0  0  0  0  0  0  0  0
    7.4498  -12.9895   21.7915 O   0  0  0  0  0  0  0  0  0  0  0  0
   11.6744  -20.8540   21.0419 N   0  0  0  0  0  0  0  0  0  0  0  0
   10.4201  -20.1928   20.6875 C   0  0  0  0  0  0  0  0  0  0  0  0
   10.1253  -20.0200   19.4785 N   0  0  0  0  0  0  0  0  0  0  0  0
    9.5573  -19.7589   21.7155 N   0  0  0  0  0  0  0  0  0  0  0  0
    8.1702  -19.4401   21.6343 C   0  0  0  0  0  0  0  0  0  0  0  0
    7.7828  -18.0121   21.5574 C   0  0  0  0  0  0  0  0  0  0  0  0
    8.3755  -17.1681   22.7114 C   0  0  0  0  0  0  0  0  0  0  0  0
    8.0197  -15.7438   22.6303 C   0  0  2  0  0  0  0  0  0  0  0  0
    8.2221  -15.1277   21.3639 N   0  0  0  0  0  0  0  0  0  0  0  0
    8.5094  -14.9206   23.8020 C   0  0  0  0  0  0  0  0  0  0  0  0
    9.1040  -13.8257   23.6690 O   0  0  0  0  0  0  0  0  0  0  0  0
    9.3402  -19.6150   19.0548 C   0  0  0  0  0  0  0  0  0  0  0  0
    7.1071  -12.4516   27.2760 C   0  0  2  0  0  0  0  0  0  0  0  0
    7.2793  -13.3296   26.0581 C   0  0  0  0  0  0  0  0  0  0  0  0
    7.6928  -12.4527   24.9012 C   0  0  1  0  0  0  0  0  0  0  0  0
    8.3139  -14.3926   26.2549 N   0  0  0  0  0  0  0  0  0  0  0  0
    8.3179  -15.3527   25.1501 C   0  0  0  0  0  0  0  0  0  0  0  0
    8.0280  -15.1395   27.5131 O   0  0  0  0  0  0  0  0  0  0  0  0
    7.6008  -16.4711   27.4662 O   0  0  0  0  0  0  0  0  0  0  0  0
  1  2  1  0
  3  2  1  0
  4  5  1  0
  4  3  1  0
  5  1  1  0
  6  7  2  0
  5  6  1  1
  9 11  1  0
  9  8  1  0
 10  9  2  0
 12 11  1  0
 13 12  1  0
 13 14  1  0
 15 14  1  6
 15 16  1  0
 16  6  1  0
 17 18  2  0
 17 15  1  0
 20 19  1  6
 20 21  1  0
 22 20  1  0
 22 23  1  6
 23 17  1  0
 24 22  1  0
 25 24  1  0
 26 24  2  0
M  END
$$$$
