PRV.pdb
     RDKit          3D

 26 26  0  0  1  0  0  0  0  0999 V2000
   11.4535  -18.7042   21.0181 N   0  0  0  0  0  0  0  0  0  0  0  0
   11.6824  -19.1406   19.6780 C   0  0  0  0  0  0  0  0  0  0  0  0
   12.7809  -18.3124   19.0951 C   0  0  0  0  0  0  0  0  0  0  0  0
   12.9452  -17.2010   20.0956 C   0  0  0  0  0  0  0  0  0  0  0  0
   12.4735  -17.7795   21.3882 C   0  0  1  0  0  0  0  0  0  0  0  0
   11.9568  -16.7310   22.3361 C   0  0  0  0  0  0  0  0  0  0  0  0
   12.7018  -15.8007   22.7155 O   0  0  0  0  0  0  0  0  0  0  0  0
    7.5750  -14.8255   18.5377 N   0  0  0  0  0  0  0  0  0  0  0  0
    7.2693  -13.6369   19.3313 C   0  0  0  0  0  0  0  0  0  0  0  0
    7.6191  -12.5032   18.9180 N   0  0  0  0  0  0  0  0  0  0  0  0
    6.5819  -13.7847   20.5541 N   0  0  0  0  0  0  0  0  0  0  0  0
    6.8949  -14.6406   21.6503 C   0  0  0  0  0  0  0  0  0  0  0  0
    8.3076  -14.7312   22.0874 C   0  0  0  0  0  0  0  0  0  0  0  0
    8.5024  -15.6881   23.2882 C   0  0  0  0  0  0  0  0  0  0  0  0
    9.9152  -15.9076   23.6315 C   0  0  2  0  0  0  0  0  0  0  0  0
   10.6222  -16.8111   22.7900 N   0  0  0  0  0  0  0  0  0  0  0  0
   10.1625  -16.1194   25.1094 C   0  0  0  0  0  0  0  0  0  0  0  0
   10.4976  -17.2242   25.5965 O   0  0  0  0  0  0  0  0  0  0  0  0
    7.4987  -11.6090   19.2999 C   0  0  0  0  0  0  0  0  0  0  0  0
   10.3869  -14.1524   29.7109 C   0  0  1  0  0  0  0  0  0  0  0  0
    9.8868  -14.0679   28.2873 C   0  0  0  0  0  0  0  0  0  0  0  0
   10.5093  -12.8539   27.6417 C   0  0  1  0  0  0  0  0  0  0  0  0
   10.2357  -15.2789   27.4805 N   0  0  0  0  0  0  0  0  0  0  0  0
   10.0257  -15.0527   26.0497 C   0  0  0  0  0  0  0  0  0  0  0  0
    9.3733  -16.4212   27.8976 O   0  0  0  0  0  0  0  0  0  0  0  0
    9.8266  -17.3423   28.8483 O   0  0  0  0  0  0  0  0  0  0  0  0
  1  2  1  0
  3  2  1  0
  4  5  1  0
  4  3  1  0
  5  1  1  0
  6  7  2  0
  5  6  1  1
  9 11  1  0
  9  8  1  0
 10  9  2  0
 12 11  1  0
 13 12  1  0
 13 14  1  0
 15 14  1  1
 15 16  1  0
 16  6  1  0
 17 18  2  0
 17 15  1  0
 20 19  1  1
 20 21  1  0
 22 20  1  0
 22 23  1  1
 23 17  1  0
 24 22  1  0
 25 24  1  0
 26 24  2  0
M  END
$$$$
