PRV.pdb
     RDKit          3D

 26 26  0  0  1  0  0  0  0  0999 V2000
    8.8079  -14.7346   19.1381 N   0  0  0  0  0  0  0  0  0  0  0  0
    8.4236  -14.4735   17.7879 C   0  0  0  0  0  0  0  0  0  0  0  0
    7.7312  -13.1503   17.7437 C   0  0  0  0  0  0  0  0  0  0  0  0
    7.4996  -12.8317   19.1957 C   0  0  0  0  0  0  0  0  0  0  0  0
    8.5754  -13.5675   19.9231 C   0  0  1  0  0  0  0  0  0  0  0  0
    8.1851  -13.9149   21.3345 C   0  0  0  0  0  0  0  0  0  0  0  0
    7.6781  -13.0486   22.0807 O   0  0  0  0  0  0  0  0  0  0  0  0
    7.6203  -21.4628   18.8052 N   0  0  0  0  0  0  0  0  0  0  0  0
    7.3478  -20.5108   19.8801 C   0  0  0  0  0  0  0  0  0  0  0  0
    6.2280  -19.9448   19.9440 N   0  0  0  0  0  0  0  0  0  0  0  0
    8.3529  -20.2437   20.8330 N   0  0  0  0  0  0  0  0  0  0  0  0
    8.2643  -19.4597   22.0203 C   0  0  0  0  0  0  0  0  0  0  0  0
    8.0400  -18.0017   21.8821 C   0  0  0  0  0  0  0  0  0  0  0  0
    8.2645  -17.2335   23.2068 C   0  0  0  0  0  0  0  0  0  0  0  0
    8.0744  -15.7815   23.0744 C   0  0  2  0  0  0  0  0  0  0  0  0
    8.3979  -15.2294   21.8037 N   0  0  0  0  0  0  0  0  0  0  0  0
    8.6033  -14.9833   24.2464 C   0  0  0  0  0  0  0  0  0  0  0  0
    9.8245  -14.7857   24.4452 O   0  0  0  0  0  0  0  0  0  0  0  0
    5.8700  -19.2869   20.5755 C   0  0  0  0  0  0  0  0  0  0  0  0
    7.0259  -11.5292   25.6443 C   0  0  2  0  0  0  0  0  0  0  0  0
    7.2860  -12.5381   26.7390 C   0  0  0  0  0  0  0  0  0  0  0  0
    5.9710  -13.1809   27.1078 C   0  0  2  0  0  0  0  0  0  0  0  0
    8.2480  -13.6060   26.3226 N   0  0  0  0  0  0  0  0  0  0  0  0
    7.7245  -14.3994   25.2095 C   0  0  0  0  0  0  0  0  0  0  0  0
    8.4963  -14.5273   27.4681 O   0  0  0  0  0  0  0  0  0  0  0  0
    9.2934  -14.1223   28.5444 O   0  0  0  0  0  0  0  0  0  0  0  0
  1  2  1  0
  3  2  1  0
  4  5  1  0
  4  3  1  0
  5  1  1  0
  6  7  2  0
  5  6  1  1
  9 11  1  0
  9  8  1  0
 10  9  2  0
 12 11  1  0
 13 12  1  0
 13 14  1  0
 15 14  1  6
 15 16  1  0
 16  6  1  0
 17 18  2  0
 17 15  1  0
 20 19  1  1
 20 21  1  0
 22 20  1  0
 22 23  1  1
 23 17  1  0
 24 22  1  0
 25 24  1  0
 26 24  2  0
M  END
$$$$
