PRV.pdb
     RDKit          3D

 26 26  0  0  1  0  0  0  0  0999 V2000
    8.5733  -15.2656   19.1228 N   0  0  0  0  0  0  0  0  0  0  0  0
    8.2828  -14.9866   17.7529 C   0  0  0  0  0  0  0  0  0  0  0  0
    7.8902  -13.5495   17.6389 C   0  0  0  0  0  0  0  0  0  0  0  0
    7.7010  -13.1273   19.0704 C   0  0  0  0  0  0  0  0  0  0  0  0
    8.5787  -14.0434   19.8567 C   0  0  1  0  0  0  0  0  0  0  0  0
    8.0929  -14.2393   21.2676 C   0  0  0  0  0  0  0  0  0  0  0  0
    8.0066  -13.2647   22.0466 O   0  0  0  0  0  0  0  0  0  0  0  0
    8.7690  -21.2409   24.3785 N   0  0  0  0  0  0  0  0  0  0  0  0
    8.3709  -20.7725   25.7045 C   0  0  0  0  0  0  0  0  0  0  0  0
    8.9473  -21.2242   26.7253 N   0  0  0  0  0  0  0  0  0  0  0  0
    7.3411  -19.8151   25.8148 N   0  0  0  0  0  0  0  0  0  0  0  0
    6.5403  -19.2496   24.7797 C   0  0  0  0  0  0  0  0  0  0  0  0
    6.5994  -17.7842   24.5696 C   0  0  0  0  0  0  0  0  0  0  0  0
    7.1670  -17.4011   23.1816 C   0  0  0  0  0  0  0  0  0  0  0  0
    7.2714  -15.9486   22.9785 C   0  0  2  0  0  0  0  0  0  0  0  0
    7.7361  -15.5356   21.6988 N   0  0  0  0  0  0  0  0  0  0  0  0
    7.9116  -15.2112   24.1347 C   0  0  0  0  0  0  0  0  0  0  0  0
    9.1466  -15.2099   24.3466 O   0  0  0  0  0  0  0  0  0  0  0  0
    8.8286  -21.0255   27.6774 C   0  0  0  0  0  0  0  0  0  0  0  0
    7.4514  -11.7351   27.6954 C   0  0  2  0  0  0  0  0  0  0  0  0
    6.8147  -12.6180   26.6470 C   0  0  0  0  0  0  0  0  0  0  0  0
    6.3129  -11.7348   25.5305 C   0  0  1  0  0  0  0  0  0  0  0  0
    7.7696  -13.6210   26.0801 N   0  0  0  0  0  0  0  0  0  0  0  0
    7.1305  -14.4614   25.0664 C   0  0  0  0  0  0  0  0  0  0  0  0
    8.2642  -14.5097   27.1701 O   0  0  0  0  0  0  0  0  0  0  0  0
    9.2265  -14.0522   28.0770 O   0  0  0  0  0  0  0  0  0  0  0  0
  1  2  1  0
  3  2  1  0
  4  5  1  0
  4  3  1  0
  5  1  1  0
  6  7  2  0
  5  6  1  1
  9 11  1  0
  9  8  1  0
 10  9  2  0
 12 11  1  0
 13 12  1  0
 13 14  1  0
 15 14  1  1
 15 16  1  0
 16  6  1  0
 17 18  2  0
 17 15  1  0
 20 19  1  1
 20 21  1  0
 22 20  1  0
 22 23  1  1
 23 17  1  0
 24 22  1  0
 25 24  1  0
 26 24  2  0
M  END
$$$$
