PRV.pdb
     RDKit          3D

 26 26  0  0  1  0  0  0  0  0999 V2000
    9.2592  -21.2058   18.3193 N   0  0  0  0  0  0  0  0  0  0  0  0
    8.7540  -21.8658   17.1583 C   0  0  0  0  0  0  0  0  0  0  0  0
    9.5277  -21.3891   15.9724 C   0  0  0  0  0  0  0  0  0  0  0  0
   10.2943  -20.2113   16.5095 C   0  0  0  0  0  0  0  0  0  0  0  0
   10.4383  -20.4846   17.9698 C   0  0  1  0  0  0  0  0  0  0  0  0
   10.5817  -19.2256   18.7819 C   0  0  0  0  0  0  0  0  0  0  0  0
   11.6346  -18.5530   18.7231 O   0  0  0  0  0  0  0  0  0  0  0  0
    8.8983  -12.7915   18.7774 N   0  0  0  0  0  0  0  0  0  0  0  0
    8.2756  -12.2578   19.9871 C   0  0  0  0  0  0  0  0  0  0  0  0
    8.4634  -11.0579   20.3088 N   0  0  0  0  0  0  0  0  0  0  0  0
    7.4691  -13.1043   20.7760 N   0  0  0  0  0  0  0  0  0  0  0  0
    7.2566  -14.5074   20.6400 C   0  0  0  0  0  0  0  0  0  0  0  0
    8.3852  -15.4193   20.9399 C   0  0  0  0  0  0  0  0  0  0  0  0
    8.3400  -16.7221   20.1055 C   0  0  0  0  0  0  0  0  0  0  0  0
    9.4242  -17.6592   20.4343 C   0  0  2  0  0  0  0  0  0  0  0  0
    9.5137  -18.8146   19.6088 N   0  0  0  0  0  0  0  0  0  0  0  0
    9.5604  -17.9464   21.9140 C   0  0  0  0  0  0  0  0  0  0  0  0
    8.6260  -18.4051   22.6115 O   0  0  0  0  0  0  0  0  0  0  0  0
    8.0986  -10.5190   21.0412 C   0  0  0  0  0  0  0  0  0  0  0  0
   13.1652  -19.1512   23.5665 C   0  0  2  0  0  0  0  0  0  0  0  0
   12.3808  -18.1715   24.4085 C   0  0  0  0  0  0  0  0  0  0  0  0
   13.0046  -16.8068   24.2451 C   0  0  2  0  0  0  0  0  0  0  0  0
   10.9394  -18.0963   24.0138 N   0  0  0  0  0  0  0  0  0  0  0  0
   10.7837  -17.7066   22.6116 C   0  0  0  0  0  0  0  0  0  0  0  0
   10.2449  -17.0796   24.8544 O   0  0  0  0  0  0  0  0  0  0  0  0
    9.9625  -17.3438   26.1991 O   0  0  0  0  0  0  0  0  0  0  0  0
  1  2  1  0
  3  2  1  0
  4  5  1  0
  4  3  1  0
  5  1  1  0
  6  7  2  0
  5  6  1  1
  9 11  1  0
  9  8  1  0
 10  9  2  0
 12 11  1  0
 13 12  1  0
 13 14  1  0
 15 14  1  1
 15 16  1  0
 16  6  1  0
 17 18  2  0
 17 15  1  0
 20 19  1  1
 20 21  1  0
 22 20  1  0
 22 23  1  1
 23 17  1  0
 24 22  1  0
 25 24  1  0
 26 24  2  0
M  END
$$$$
