PRV.pdb
     RDKit          3D

 26 26  0  0  1  0  0  0  0  0999 V2000
    8.9038  -14.7265   19.2043 N   0  0  0  0  0  0  0  0  0  0  0  0
    8.7124  -14.4771   17.8115 C   0  0  0  0  0  0  0  0  0  0  0  0
    7.9422  -13.2055   17.6632 C   0  0  0  0  0  0  0  0  0  0  0  0
    7.4697  -12.9212   19.0629 C   0  0  0  0  0  0  0  0  0  0  0  0
    8.4717  -13.5881   19.9457 C   0  0  1  0  0  0  0  0  0  0  0  0
    7.8964  -13.9789   21.2804 C   0  0  0  0  0  0  0  0  0  0  0  0
    7.3378  -13.1235   22.0019 O   0  0  0  0  0  0  0  0  0  0  0  0
    4.7086  -20.9878   24.7819 N   0  0  0  0  0  0  0  0  0  0  0  0
    6.1445  -21.0655   25.0429 C   0  0  0  0  0  0  0  0  0  0  0  0
    6.5748  -21.8259   25.9457 N   0  0  0  0  0  0  0  0  0  0  0  0
    7.0270  -20.2813   24.2710 N   0  0  0  0  0  0  0  0  0  0  0  0
    7.9377  -19.2767   24.7111 C   0  0  0  0  0  0  0  0  0  0  0  0
    7.5560  -17.8567   24.5291 C   0  0  0  0  0  0  0  0  0  0  0  0
    7.8961  -17.3218   23.1172 C   0  0  0  0  0  0  0  0  0  0  0  0
    7.7371  -15.8652   22.9951 C   0  0  2  0  0  0  0  0  0  0  0  0
    7.9951  -15.3215   21.7058 N   0  0  0  0  0  0  0  0  0  0  0  0
    8.3597  -15.0820   24.1306 C   0  0  0  0  0  0  0  0  0  0  0  0
    9.5972  -14.9401   24.2672 O   0  0  0  0  0  0  0  0  0  0  0  0
    7.4873  -22.0570   26.2175 C   0  0  0  0  0  0  0  0  0  0  0  0
    6.7817  -11.6657   25.8327 C   0  0  2  0  0  0  0  0  0  0  0  0
    7.2251  -12.7151   26.8257 C   0  0  0  0  0  0  0  0  0  0  0  0
    5.9986  -13.4439   27.3184 C   0  0  2  0  0  0  0  0  0  0  0  0
    8.1733  -13.7082   26.2309 N   0  0  0  0  0  0  0  0  0  0  0  0
    7.5576  -14.4486   25.1287 C   0  0  0  0  0  0  0  0  0  0  0  0
    8.5840  -14.6914   27.2736 O   0  0  0  0  0  0  0  0  0  0  0  0
    9.4510  -14.3120   28.3043 O   0  0  0  0  0  0  0  0  0  0  0  0
  1  2  1  0
  3  2  1  0
  4  5  1  0
  4  3  1  0
  5  1  1  0
  6  7  2  0
  5  6  1  1
  9 11  1  0
  9  8  1  0
 10  9  2  0
 12 11  1  0
 13 12  1  0
 13 14  1  0
 15 14  1  6
 15 16  1  0
 16  6  1  0
 17 18  2  0
 17 15  1  0
 20 19  1  1
 20 21  1  0
 22 20  1  0
 22 23  1  1
 23 17  1  0
 24 22  1  0
 25 24  1  0
 26 24  2  0
M  END
$$$$
