PRV.pdb
     RDKit          3D

 26 26  0  0  1  0  0  0  0  0999 V2000
    8.4267  -19.7819   18.7793 N   0  0  0  0  0  0  0  0  0  0  0  0
    7.8080  -19.9140   17.4992 C   0  0  0  0  0  0  0  0  0  0  0  0
    8.6089  -19.1349   16.5074 C   0  0  0  0  0  0  0  0  0  0  0  0
    9.5408  -18.3290   17.3708 C   0  0  0  0  0  0  0  0  0  0  0  0
    9.6832  -19.1263   18.6246 C   0  0  1  0  0  0  0  0  0  0  0  0
   10.0156  -18.2718   19.8181 C   0  0  0  0  0  0  0  0  0  0  0  0
   11.1322  -17.7150   19.9044 O   0  0  0  0  0  0  0  0  0  0  0  0
    8.1512  -11.2816   20.5368 N   0  0  0  0  0  0  0  0  0  0  0  0
    7.9092  -12.6020   19.9589 C   0  0  0  0  0  0  0  0  0  0  0  0
    7.3606  -12.6998   18.8329 N   0  0  0  0  0  0  0  0  0  0  0  0
    8.2992  -13.7499   20.6798 N   0  0  0  0  0  0  0  0  0  0  0  0
    8.1457  -15.1201   20.3174 C   0  0  0  0  0  0  0  0  0  0  0  0
    7.2955  -15.9802   21.1733 C   0  0  0  0  0  0  0  0  0  0  0  0
    8.0482  -16.5221   22.4124 C   0  0  0  0  0  0  0  0  0  0  0  0
    9.1727  -17.4044   22.0678 C   0  0  2  0  0  0  0  0  0  0  0  0
    9.0518  -18.1071   20.8365 N   0  0  0  0  0  0  0  0  0  0  0  0
    9.6598  -18.2571   23.2193 C   0  0  0  0  0  0  0  0  0  0  0  0
    8.8954  -18.9533   23.9273 O   0  0  0  0  0  0  0  0  0  0  0  0
    7.1453  -13.4816   18.2830 C   0  0  0  0  0  0  0  0  0  0  0  0
   13.4785  -20.6183   25.3650 C   0  0  2  0  0  0  0  0  0  0  0  0
   12.9722  -19.5912   24.3788 C   0  0  0  0  0  0  0  0  0  0  0  0
   13.1683  -20.1400   22.9864 C   0  0  1  0  0  0  0  0  0  0  0  0
   11.5239  -19.2692   24.5737 N   0  0  0  0  0  0  0  0  0  0  0  0
   11.0431  -18.3180   23.5705 C   0  0  0  0  0  0  0  0  0  0  0  0
   11.3258  -18.6589   25.9193 O   0  0  0  0  0  0  0  0  0  0  0  0
   11.2118  -19.4678   27.0554 O   0  0  0  0  0  0  0  0  0  0  0  0
  1  2  1  0
  3  2  1  0
  4  5  1  0
  4  3  1  0
  5  1  1  0
  6  7  2  0
  5  6  1  1
  9 11  1  0
  9  8  1  0
 10  9  2  0
 12 11  1  0
 13 12  1  0
 13 14  1  0
 15 14  1  1
 15 16  1  0
 16  6  1  0
 17 18  2  0
 17 15  1  0
 20 19  1  6
 20 21  1  0
 22 20  1  0
 22 23  1  1
 23 17  1  0
 24 22  1  0
 25 24  1  0
 26 24  2  0
M  END
$$$$
