PRV.pdb
     RDKit          3D

 26 26  0  0  1  0  0  0  0  0999 V2000
    8.5415  -15.2685   19.2296 N   0  0  0  0  0  0  0  0  0  0  0  0
    8.1523  -14.9990   17.8825 C   0  0  0  0  0  0  0  0  0  0  0  0
    7.5713  -13.6237   17.8272 C   0  0  0  0  0  0  0  0  0  0  0  0
    7.3971  -13.2625   19.2772 C   0  0  0  0  0  0  0  0  0  0  0  0
    8.4229  -14.0731   19.9973 C   0  0  1  0  0  0  0  0  0  0  0  0
    8.0344  -14.3631   21.4221 C   0  0  0  0  0  0  0  0  0  0  0  0
    7.7001  -13.4319   22.1873 O   0  0  0  0  0  0  0  0  0  0  0  0
    8.1510  -20.7406   19.9872 N   0  0  0  0  0  0  0  0  0  0  0  0
    6.7362  -20.3744   19.9880 C   0  0  0  0  0  0  0  0  0  0  0  0
    6.1180  -20.2683   18.8994 N   0  0  0  0  0  0  0  0  0  0  0  0
    6.0858  -20.1461   21.2186 N   0  0  0  0  0  0  0  0  0  0  0  0
    6.5402  -19.3846   22.3348 C   0  0  0  0  0  0  0  0  0  0  0  0
    7.7035  -18.4871   22.1437 C   0  0  0  0  0  0  0  0  0  0  0  0
    8.0064  -17.6257   23.3934 C   0  0  0  0  0  0  0  0  0  0  0  0
    7.7576  -16.1919   23.1836 C   0  0  2  0  0  0  0  0  0  0  0  0
    8.0517  -15.6978   21.8821 N   0  0  0  0  0  0  0  0  0  0  0  0
    8.2606  -15.3103   24.3062 C   0  0  0  0  0  0  0  0  0  0  0  0
    9.4775  -15.1478   24.5567 O   0  0  0  0  0  0  0  0  0  0  0  0
    5.2065  -19.9705   18.6985 C   0  0  0  0  0  0  0  0  0  0  0  0
    7.3048  -11.6672   27.5716 C   0  0  2  0  0  0  0  0  0  0  0  0
    6.7864  -12.7282   26.6284 C   0  0  0  0  0  0  0  0  0  0  0  0
    6.1888  -12.0373   25.4268 C   0  0  1  0  0  0  0  0  0  0  0  0
    7.8592  -13.6635   26.1664 N   0  0  0  0  0  0  0  0  0  0  0  0
    7.3605  -14.6009   25.1589 C   0  0  0  0  0  0  0  0  0  0  0  0
    8.3619  -14.4563   27.3245 O   0  0  0  0  0  0  0  0  0  0  0  0
    9.3880  -13.9571   28.1342 O   0  0  0  0  0  0  0  0  0  0  0  0
  1  2  1  0
  3  2  1  0
  4  5  1  0
  4  3  1  0
  5  1  1  0
  6  7  2  0
  5  6  1  1
  9 11  1  0
  9  8  1  0
 10  9  2  0
 12 11  1  0
 13 12  1  0
 13 14  1  0
 15 14  1  1
 15 16  1  0
 16  6  1  0
 17 18  2  0
 17 15  1  0
 20 19  1  1
 20 21  1  0
 22 20  1  0
 22 23  1  1
 23 17  1  0
 24 22  1  0
 25 24  1  0
 26 24  2  0
M  END
$$$$
