PRV.pdb
     RDKit          3D

 26 26  0  0  1  0  0  0  0  0999 V2000
    8.2811  -14.8554   18.8447 N   0  0  0  0  0  0  0  0  0  0  0  0
    7.9207  -14.3861   17.5452 C   0  0  0  0  0  0  0  0  0  0  0  0
    7.7176  -12.9077   17.6190 C   0  0  0  0  0  0  0  0  0  0  0  0
    7.7037  -12.6332   19.0981 C   0  0  0  0  0  0  0  0  0  0  0  0
    8.5108  -13.7364   19.6976 C   0  0  1  0  0  0  0  0  0  0  0  0
    8.1191  -14.0316   21.1205 C   0  0  0  0  0  0  0  0  0  0  0  0
    8.1717  -13.1332   21.9890 O   0  0  0  0  0  0  0  0  0  0  0  0
    9.5998  -20.9328   24.6476 N   0  0  0  0  0  0  0  0  0  0  0  0
    9.8421  -21.0748   23.2133 C   0  0  0  0  0  0  0  0  0  0  0  0
   10.8255  -21.7444   22.8095 N   0  0  0  0  0  0  0  0  0  0  0  0
    8.9616  -20.4545   22.3026 N   0  0  0  0  0  0  0  0  0  0  0  0
    7.8877  -19.5580   22.5769 C   0  0  0  0  0  0  0  0  0  0  0  0
    8.1766  -18.1050   22.6010 C   0  0  0  0  0  0  0  0  0  0  0  0
    6.9022  -17.2443   22.7753 C   0  0  0  0  0  0  0  0  0  0  0  0
    7.1631  -15.7994   22.6967 C   0  0  2  0  0  0  0  0  0  0  0  0
    7.6918  -15.3335   21.4607 N   0  0  0  0  0  0  0  0  0  0  0  0
    7.8566  -15.2331   23.9168 C   0  0  0  0  0  0  0  0  0  0  0  0
    9.1023  -15.1392   24.0147 O   0  0  0  0  0  0  0  0  0  0  0  0
   11.1325  -21.9634   21.9052 C   0  0  0  0  0  0  0  0  0  0  0  0
    7.3947  -12.1496   27.7892 C   0  0  2  0  0  0  0  0  0  0  0  0
    6.7789  -12.9778   26.6852 C   0  0  0  0  0  0  0  0  0  0  0  0
    6.2738  -12.0374   25.6181 C   0  0  1  0  0  0  0  0  0  0  0  0
    7.7523  -13.9328   26.0690 N   0  0  0  0  0  0  0  0  0  0  0  0
    7.1174  -14.7651   25.0460 C   0  0  0  0  0  0  0  0  0  0  0  0
    8.3000  -14.8349   27.1219 O   0  0  0  0  0  0  0  0  0  0  0  0
    9.4426  -14.4717   27.8434 O   0  0  0  0  0  0  0  0  0  0  0  0
  1  2  1  0
  3  2  1  0
  4  5  1  0
  4  3  1  0
  5  1  1  0
  6  7  2  0
  5  6  1  1
  9 11  1  0
  9  8  1  0
 10  9  2  0
 12 11  1  0
 13 12  1  0
 13 14  1  0
 15 14  1  6
 15 16  1  0
 16  6  1  0
 17 18  2  0
 17 15  1  0
 20 19  1  1
 20 21  1  0
 22 20  1  0
 22 23  1  1
 23 17  1  0
 24 22  1  0
 25 24  1  0
 26 24  2  0
M  END
$$$$
