DGE.pdb
     RDKit          3D

 22 21  0  0  1  0  0  0  0  0999 V2000
   19.9030  -12.1684  -17.3579 N   0  0  0  0  0  0  0  0  0  0  0  0
   19.2597  -11.7334  -16.1455 C   0  0  1  0  0  0  0  0  0  0  0  0
   18.9916  -12.9693  -15.2995 C   0  0  0  0  0  0  0  0  0  0  0  0
   17.7825  -13.6573  -15.7819 C   0  0  0  0  0  0  0  0  0  0  0  0
   16.7131  -13.0110  -15.9726 O   0  0  0  0  0  0  0  0  0  0  0  0
   20.1222  -10.7734  -15.4370 C   0  0  0  0  0  0  0  0  0  0  0  0
   19.7155  -10.1765  -14.4110 O   0  0  0  0  0  0  0  0  0  0  0  0
   17.7660  -15.0173  -16.0430 O   0  0  0  0  0  0  0  0  0  0  0  0
   21.4240  -10.5044  -15.8962 N   0  0  0  0  0  0  0  0  0  0  0  0
   22.3069   -9.5853  -15.2199 C   0  0  0  0  0  0  0  0  0  0  0  0
   21.9904   -8.1939  -15.6714 C   0  0  0  0  0  0  0  0  0  0  0  0
   21.5983   -7.9295  -16.8394 O   0  0  0  0  0  0  0  0  0  0  0  0
   22.1251   -7.0898  -14.7739 N   0  0  0  0  0  0  0  0  0  0  0  0
   21.6736   -5.7427  -15.0930 C   0  0  1  0  0  0  0  0  0  0  0  0
   20.1862   -5.8260  -15.2617 C   0  0  0  0  0  0  0  0  0  0  0  0
   19.5059   -4.4933  -15.4494 C   0  0  0  0  0  0  0  0  0  0  0  0
   18.0394   -4.7478  -15.4554 C   0  0  0  0  0  0  0  0  0  0  0  0
   17.2282   -4.3113  -14.6226 O   0  0  0  0  0  0  0  0  0  0  0  0
   22.1033   -4.8447  -14.0203 C   0  0  0  0  0  0  0  0  0  0  0  0
   22.4424   -5.2169  -12.8675 O   0  0  0  0  0  0  0  0  0  0  0  0
   17.5443   -5.5449  -16.4872 O   0  0  0  0  0  0  0  0  0  0  0  0
   22.1576   -3.4741  -14.2419 O   0  0  0  0  0  0  0  0  0  0  0  0
  2  1  1  6
  2  3  1  0
  3  4  1  0
  4  8  1  0
  5  4  2  0
  6  9  1  0
  6  2  1  0
  7  6  2  0
 10  9  1  0
 11 13  1  0
 11 10  1  0
 12 11  2  0
 14 13  1  0
 14 15  1  1
 15 16  1  0
 16 17  1  0
 17 18  2  0
 17 21  1  0
 19 14  1  0
 20 19  2  0
 22 19  1  0
M  END
$$$$
