DGE.pdb
     RDKit          3D

 22 21  0  0  1  0  0  0  0  0999 V2000
   15.3732  -10.2934   -9.7863 N   0  0  0  0  0  0  0  0  0  0  0  0
   15.4039   -9.0825  -10.5647 C   0  0  1  0  0  0  0  0  0  0  0  0
   14.1865   -8.2566  -10.1766 C   0  0  0  0  0  0  0  0  0  0  0  0
   12.9549   -8.9514  -10.5870 C   0  0  0  0  0  0  0  0  0  0  0  0
   12.2848   -9.6145   -9.7449 O   0  0  0  0  0  0  0  0  0  0  0  0
   16.6551   -8.3512  -10.3052 C   0  0  0  0  0  0  0  0  0  0  0  0
   16.8887   -7.8533   -9.1775 O   0  0  0  0  0  0  0  0  0  0  0  0
   12.4865   -8.9085  -11.8896 O   0  0  0  0  0  0  0  0  0  0  0  0
   17.6179   -8.1952  -11.3185 N   0  0  0  0  0  0  0  0  0  0  0  0
   18.8632   -7.5004  -11.1000 C   0  0  0  0  0  0  0  0  0  0  0  0
   19.6468   -7.5048  -12.3752 C   0  0  0  0  0  0  0  0  0  0  0  0
   19.4818   -8.3736  -13.2729 O   0  0  0  0  0  0  0  0  0  0  0  0
   20.6330   -6.5013  -12.6263 N   0  0  0  0  0  0  0  0  0  0  0  0
   21.1583   -6.2136  -13.9535 C   0  0  1  0  0  0  0  0  0  0  0  0
   19.9872   -5.7871  -14.7867 C   0  0  0  0  0  0  0  0  0  0  0  0
   20.3264   -5.4735  -16.2222 C   0  0  0  0  0  0  0  0  0  0  0  0
   19.0572   -5.0879  -16.8975 C   0  0  0  0  0  0  0  0  0  0  0  0
   18.7857   -3.9564  -17.3309 O   0  0  0  0  0  0  0  0  0  0  0  0
   22.2029   -5.1963  -13.8269 C   0  0  0  0  0  0  0  0  0  0  0  0
   22.3272   -4.4155  -12.8485 O   0  0  0  0  0  0  0  0  0  0  0  0
   18.0983   -6.0889  -17.0514 O   0  0  0  0  0  0  0  0  0  0  0  0
   23.1488   -5.0431  -14.8330 O   0  0  0  0  0  0  0  0  0  0  0  0
  2  1  1  1
  2  3  1  0
  3  4  1  0
  4  8  1  0
  5  4  2  0
  6  9  1  0
  6  2  1  0
  7  6  2  0
 10  9  1  0
 11 13  1  0
 11 10  1  0
 12 11  2  0
 14 13  1  0
 14 15  1  6
 15 16  1  0
 16 17  1  0
 17 18  2  0
 17 21  1  0
 19 14  1  0
 20 19  2  0
 22 19  1  0
M  END
$$$$
