DGE.pdb
     RDKit          3D

 22 21  0  0  1  0  0  0  0  0999 V2000
   14.5002   -7.7170   -7.5042 N   0  0  0  0  0  0  0  0  0  0  0  0
   14.7911   -8.2515   -8.8091 C   0  0  1  0  0  0  0  0  0  0  0  0
   13.4819   -8.7493   -9.4034 C   0  0  0  0  0  0  0  0  0  0  0  0
   13.6178  -10.1570   -9.8131 C   0  0  0  0  0  0  0  0  0  0  0  0
   14.7097  -10.5814  -10.2878 O   0  0  0  0  0  0  0  0  0  0  0  0
   15.4033   -7.2111   -9.6519 C   0  0  0  0  0  0  0  0  0  0  0  0
   14.8464   -6.0977   -9.8081 O   0  0  0  0  0  0  0  0  0  0  0  0
   12.5739  -11.0597   -9.6976 O   0  0  0  0  0  0  0  0  0  0  0  0
   16.6289   -7.4438  -10.3014 N   0  0  0  0  0  0  0  0  0  0  0  0
   17.2267   -6.4782  -11.1913 C   0  0  0  0  0  0  0  0  0  0  0  0
   18.5188   -7.0324  -11.7046 C   0  0  0  0  0  0  0  0  0  0  0  0
   18.9563   -8.1648  -11.3666 O   0  0  0  0  0  0  0  0  0  0  0  0
   19.3214   -6.2800  -12.6170 N   0  0  0  0  0  0  0  0  0  0  0  0
   20.3918   -6.8682  -13.4098 C   0  0  1  0  0  0  0  0  0  0  0  0
   20.5808   -5.9694  -14.5949 C   0  0  0  0  0  0  0  0  0  0  0  0
   21.7782   -6.3072  -15.4470 C   0  0  0  0  0  0  0  0  0  0  0  0
   21.8419   -5.2921  -16.5339 C   0  0  0  0  0  0  0  0  0  0  0  0
   22.6935   -4.3937  -16.6327 O   0  0  0  0  0  0  0  0  0  0  0  0
   21.5783   -6.9960  -12.5625 C   0  0  0  0  0  0  0  0  0  0  0  0
   21.8881   -6.1997  -11.6393 O   0  0  0  0  0  0  0  0  0  0  0  0
   20.8578   -5.3644  -17.5195 O   0  0  0  0  0  0  0  0  0  0  0  0
   22.4561   -8.0563  -12.7520 O   0  0  0  0  0  0  0  0  0  0  0  0
  2  1  1  1
  2  3  1  0
  3  4  1  0
  4  8  1  0
  5  4  2  0
  6  9  1  0
  6  2  1  0
  7  6  2  0
 10  9  1  0
 11 13  1  0
 11 10  1  0
 12 11  2  0
 14 13  1  0
 14 15  1  6
 15 16  1  0
 16 17  1  0
 17 18  2  0
 17 21  1  0
 19 14  1  0
 20 19  2  0
 22 19  1  0
M  END
$$$$
