DGE.pdb
     RDKit          3D

 22 21  0  0  1  0  0  0  0  0999 V2000
   22.2861   -7.4985  -14.1894 N   0  0  0  0  0  0  0  0  0  0  0  0
   21.1041   -6.7160  -14.4415 C   0  0  1  0  0  0  0  0  0  0  0  0
   21.5399   -5.4415  -15.1491 C   0  0  0  0  0  0  0  0  0  0  0  0
   22.3887   -4.6349  -14.2564 C   0  0  0  0  0  0  0  0  0  0  0  0
   22.1189   -4.5485  -13.0246 O   0  0  0  0  0  0  0  0  0  0  0  0
   20.1564   -7.4891  -15.2611 C   0  0  0  0  0  0  0  0  0  0  0  0
   19.0630   -6.9920  -15.6238 O   0  0  0  0  0  0  0  0  0  0  0  0
   23.4989   -3.9490  -14.7202 O   0  0  0  0  0  0  0  0  0  0  0  0
   20.4576   -8.8048  -15.6564 N   0  0  0  0  0  0  0  0  0  0  0  0
   19.6214   -9.5480  -16.5674 C   0  0  0  0  0  0  0  0  0  0  0  0
   18.4914  -10.1554  -15.7965 C   0  0  0  0  0  0  0  0  0  0  0  0
   18.5060  -10.2681  -14.5416 O   0  0  0  0  0  0  0  0  0  0  0  0
   17.3288  -10.6409  -16.4714 N   0  0  0  0  0  0  0  0  0  0  0  0
   16.1638  -11.1677  -15.7747 C   0  0  1  0  0  0  0  0  0  0  0  0
   14.9984  -10.9760  -16.6982 C   0  0  0  0  0  0  0  0  0  0  0  0
   13.7023  -11.5587  -16.1934 C   0  0  0  0  0  0  0  0  0  0  0  0
   12.6008  -10.8706  -16.9207 C   0  0  0  0  0  0  0  0  0  0  0  0
   12.7454   -9.9735  -17.7671 O   0  0  0  0  0  0  0  0  0  0  0  0
   16.4259  -12.5649  -15.4264 C   0  0  0  0  0  0  0  0  0  0  0  0
   15.7817  -13.2221  -14.5688 O   0  0  0  0  0  0  0  0  0  0  0  0
   11.3004  -11.2746  -16.6191 O   0  0  0  0  0  0  0  0  0  0  0  0
   17.4488  -13.2587  -16.0611 O   0  0  0  0  0  0  0  0  0  0  0  0
  2  1  1  6
  2  3  1  0
  3  4  1  0
  4  8  1  0
  5  4  2  0
  6  9  1  0
  6  2  1  0
  7  6  2  0
 10  9  1  0
 11 13  1  0
 11 10  1  0
 12 11  2  0
 14 13  1  0
 14 15  1  6
 15 16  1  0
 16 17  1  0
 17 18  2  0
 17 21  1  0
 19 14  1  0
 20 19  2  0
 22 19  1  0
M  END
$$$$
