DGE.pdb
     RDKit          3D

 22 21  0  0  1  0  0  0  0  0999 V2000
   17.1827  -11.7321  -14.9914 N   0  0  0  0  0  0  0  0  0  0  0  0
   15.9622  -11.0114  -15.2444 C   0  0  1  0  0  0  0  0  0  0  0  0
   14.8880  -11.5960  -14.3391 C   0  0  0  0  0  0  0  0  0  0  0  0
   14.6521  -13.0077  -14.6842 C   0  0  0  0  0  0  0  0  0  0  0  0
   14.4686  -13.8656  -13.7743 O   0  0  0  0  0  0  0  0  0  0  0  0
   16.1637   -9.5767  -14.9829 C   0  0  0  0  0  0  0  0  0  0  0  0
   15.2208   -8.7591  -15.1121 O   0  0  0  0  0  0  0  0  0  0  0  0
   14.6214  -13.4478  -15.9971 O   0  0  0  0  0  0  0  0  0  0  0  0
   17.4209   -9.0907  -14.5812 N   0  0  0  0  0  0  0  0  0  0  0  0
   17.6558   -7.6950  -14.3012 C   0  0  0  0  0  0  0  0  0  0  0  0
   19.0421   -7.5398  -13.7588 C   0  0  0  0  0  0  0  0  0  0  0  0
   19.7056   -8.5072  -13.2984 O   0  0  0  0  0  0  0  0  0  0  0  0
   19.6777   -6.2598  -13.7427 N   0  0  0  0  0  0  0  0  0  0  0  0
   21.1211   -6.0849  -13.8209 C   0  0  1  0  0  0  0  0  0  0  0  0
   21.5606   -6.7689  -15.0806 C   0  0  0  0  0  0  0  0  0  0  0  0
   23.0521   -6.7649  -15.3027 C   0  0  0  0  0  0  0  0  0  0  0  0
   23.3200   -7.6234  -16.4889 C   0  0  0  0  0  0  0  0  0  0  0  0
   23.5477   -7.2140  -17.6389 O   0  0  0  0  0  0  0  0  0  0  0  0
   21.4159   -4.6517  -13.7859 C   0  0  0  0  0  0  0  0  0  0  0  0
   22.5331   -4.1575  -13.4859 O   0  0  0  0  0  0  0  0  0  0  0  0
   23.3123   -9.0025  -16.2808 O   0  0  0  0  0  0  0  0  0  0  0  0
   20.4236   -3.7307  -14.0988 O   0  0  0  0  0  0  0  0  0  0  0  0
  2  1  1  1
  2  3  1  0
  3  4  1  0
  4  8  1  0
  5  4  2  0
  6  9  1  0
  6  2  1  0
  7  6  2  0
 10  9  1  0
 11 13  1  0
 11 10  1  0
 12 11  2  0
 14 13  1  0
 14 15  1  6
 15 16  1  0
 16 17  1  0
 17 18  2  0
 17 21  1  0
 19 14  1  0
 20 19  2  0
 22 19  1  0
M  END
$$$$
