VVR.pdb
     RDKit          3D

 26 25  0  0  1  0  0  0  0  0999 V2000
    6.4185  -11.7503   26.9022 C   0  0  0  0  0  0  0  0  0  0  0  0
    7.1927  -12.8036   26.1616 C   0  0  1  0  0  0  0  0  0  0  0  0
    8.2449  -13.4429   27.0089 C   0  0  0  0  0  0  0  0  0  0  0  0
    6.2548  -13.8014   25.5162 C   0  0  2  0  0  0  0  0  0  0  0  0
    5.5101  -14.5661   26.4705 N   0  0  0  0  0  0  0  0  0  0  0  0
    6.9709  -14.7057   24.5866 C   0  0  0  0  0  0  0  0  0  0  0  0
    7.3437  -15.8504   24.9802 O   0  0  0  0  0  0  0  0  0  0  0  0
    6.3360  -14.8610   20.4846 C   0  0  0  0  0  0  0  0  0  0  0  0
    7.7537  -14.8523   20.9277 C   0  0  1  0  0  0  0  0  0  0  0  0
    8.3687  -13.4898   20.6937 C   0  0  0  0  0  0  0  0  0  0  0  0
    7.9519  -15.3248   22.3503 C   0  0  2  0  0  0  0  0  0  0  0  0
    7.2793  -14.3684   23.2404 N   0  0  0  0  0  0  0  0  0  0  0  0
    9.4013  -15.2562   22.6631 C   0  0  0  0  0  0  0  0  0  0  0  0
    9.9119  -14.1204   22.9489 O   0  0  0  0  0  0  0  0  0  0  0  0
   10.3092  -15.6555   29.7213 N   0  0  0  0  0  0  0  0  0  0  0  0
   10.7219  -16.9411   29.2971 C   0  0  0  0  0  0  0  0  0  0  0  0
   10.9895  -17.8040   30.2231 N   0  0  0  0  0  0  0  0  0  0  0  0
   10.8341  -17.2581   27.9177 N   0  0  0  0  0  0  0  0  0  0  0  0
   11.2872  -16.2884   26.9729 C   0  0  0  0  0  0  0  0  0  0  0  0
   11.2353  -16.6721   25.5542 C   0  0  0  0  0  0  0  0  0  0  0  0
   11.6779  -15.7356   24.5300 C   0  0  0  0  0  0  0  0  0  0  0  0
   11.7468  -16.1287   23.0966 C   0  0  2  0  0  0  0  0  0  0  0  0
   10.2861  -16.3349   22.6808 N   0  0  0  0  0  0  0  0  0  0  0  0
   12.4103  -17.4087   22.7762 C   0  0  0  0  0  0  0  0  0  0  0  0
   13.6810  -17.5404   22.9771 O   0  0  0  0  0  0  0  0  0  0  0  0
   11.8237  -18.5391   22.2743 O   0  0  0  0  0  0  0  0  0  0  0  0
  2  4  1  0
  2  1  1  1
  3  2  1  0
  4  5  1  1
  6  7  2  0
  6  4  1  0
  9  8  1  1
  9 11  1  0
 10  9  1  0
 11 12  1  1
 12  6  1  0
 13 23  1  0
 13 11  1  0
 14 13  2  0
 16 15  1  0
 17 16  2  0
 18 16  1  0
 19 20  1  0
 19 18  1  0
 20 21  1  0
 22 23  1  0
 22 21  1  1
 24 22  1  0
 25 24  2  0
 26 24  1  0
M  END
$$$$
