VVR.pdb
     RDKit          3D

 26 25  0  0  1  0  0  0  0  0999 V2000
    6.9663  -19.7329   16.8511 C   0  0  0  0  0  0  0  0  0  0  0  0
    7.7838  -18.7794   17.6756 C   0  0  1  0  0  0  0  0  0  0  0  0
    9.1204  -19.3394   18.0418 C   0  0  0  0  0  0  0  0  0  0  0  0
    7.8651  -17.4255   17.0033 C   0  0  2  0  0  0  0  0  0  0  0  0
    8.5474  -17.4666   15.7452 N   0  0  0  0  0  0  0  0  0  0  0  0
    8.4859  -16.4107   17.8862 C   0  0  0  0  0  0  0  0  0  0  0  0
    9.7259  -16.1686   17.7962 O   0  0  0  0  0  0  0  0  0  0  0  0
    6.2572  -14.3905   20.9221 C   0  0  0  0  0  0  0  0  0  0  0  0
    7.3742  -13.7126   20.2157 C   0  0  1  0  0  0  0  0  0  0  0  0
    7.9657  -12.6272   21.0883 C   0  0  0  0  0  0  0  0  0  0  0  0
    8.4326  -14.6596   19.6965 C   0  0  2  0  0  0  0  0  0  0  0  0
    7.7650  -15.6656   18.8589 N   0  0  0  0  0  0  0  0  0  0  0  0
    9.0146  -15.3829   20.8546 C   0  0  0  0  0  0  0  0  0  0  0  0
    8.4762  -16.4817   21.2224 O   0  0  0  0  0  0  0  0  0  0  0  0
   17.5361  -15.6037   23.1071 N   0  0  0  0  0  0  0  0  0  0  0  0
   17.0028  -16.8453   23.5282 C   0  0  0  0  0  0  0  0  0  0  0  0
   17.8514  -17.7797   23.8118 N   0  0  0  0  0  0  0  0  0  0  0  0
   15.6009  -17.0452   23.6304 N   0  0  0  0  0  0  0  0  0  0  0  0
   14.6857  -16.2486   22.8780 C   0  0  0  0  0  0  0  0  0  0  0  0
   13.2536  -16.4981   23.1001 C   0  0  0  0  0  0  0  0  0  0  0  0
   12.2582  -15.7357   22.3585 C   0  0  0  0  0  0  0  0  0  0  0  0
   10.8010  -15.9516   22.5681 C   0  0  2  0  0  0  0  0  0  0  0  0
   10.1217  -14.9765   21.6004 N   0  0  0  0  0  0  0  0  0  0  0  0
   10.2488  -15.6072   23.8938 C   0  0  0  0  0  0  0  0  0  0  0  0
    9.7332  -14.4374   24.0897 O   0  0  0  0  0  0  0  0  0  0  0  0
   10.2009  -16.4099   25.0016 O   0  0  0  0  0  0  0  0  0  0  0  0
  2  4  1  0
  2  1  1  6
  3  2  1  0
  4  5  1  6
  6  7  2  0
  6  4  1  0
  9  8  1  1
  9 11  1  0
 10  9  1  0
 11 12  1  6
 12  6  1  0
 13 23  1  0
 13 11  1  0
 14 13  2  0
 16 15  1  0
 17 16  2  0
 18 16  1  0
 19 20  1  0
 19 18  1  0
 20 21  1  0
 22 23  1  0
 22 21  1  1
 24 22  1  0
 25 24  2  0
 26 24  1  0
M  END
$$$$
