VVR.pdb
     RDKit          3D

 26 25  0  0  1  0  0  0  0  0999 V2000
    7.4893  -19.1572   18.7119 C   0  0  0  0  0  0  0  0  0  0  0  0
    8.1255  -18.9101   17.3734 C   0  0  1  0  0  0  0  0  0  0  0  0
    7.5770  -19.8004   16.3054 C   0  0  0  0  0  0  0  0  0  0  0  0
    8.0665  -17.4400   17.0168 C   0  0  2  0  0  0  0  0  0  0  0  0
    8.7104  -17.1405   15.7735 N   0  0  0  0  0  0  0  0  0  0  0  0
    8.6230  -16.5910   18.0958 C   0  0  0  0  0  0  0  0  0  0  0  0
    9.8773  -16.5080   18.2512 O   0  0  0  0  0  0  0  0  0  0  0  0
    7.7115  -13.3024   21.7515 C   0  0  0  0  0  0  0  0  0  0  0  0
    7.3531  -14.0093   20.4953 C   0  0  1  0  0  0  0  0  0  0  0  0
    6.9230  -13.0160   19.4381 C   0  0  0  0  0  0  0  0  0  0  0  0
    8.4315  -14.9410   19.9898 C   0  0  2  0  0  0  0  0  0  0  0  0
    7.8227  -15.8386   18.9983 N   0  0  0  0  0  0  0  0  0  0  0  0
    8.8767  -15.7911   21.1222 C   0  0  0  0  0  0  0  0  0  0  0  0
    8.0828  -16.6916   21.5596 O   0  0  0  0  0  0  0  0  0  0  0  0
   13.5631  -21.1541   22.9428 N   0  0  0  0  0  0  0  0  0  0  0  0
   14.4926  -20.1935   22.4776 C   0  0  0  0  0  0  0  0  0  0  0  0
   14.9735  -20.3730   21.2901 N   0  0  0  0  0  0  0  0  0  0  0  0
   14.8728  -19.0891   23.2846 N   0  0  0  0  0  0  0  0  0  0  0  0
   13.9533  -18.0357   23.5734 C   0  0  0  0  0  0  0  0  0  0  0  0
   12.5567  -18.2456   23.1636 C   0  0  0  0  0  0  0  0  0  0  0  0
   11.8519  -17.2088   22.4217 C   0  0  0  0  0  0  0  0  0  0  0  0
   10.4963  -16.7493   22.8279 C   0  0  2  0  0  0  0  0  0  0  0  0
   10.1081  -15.7074   21.7731 N   0  0  0  0  0  0  0  0  0  0  0  0
   10.3803  -16.0368   24.1164 C   0  0  0  0  0  0  0  0  0  0  0  0
   10.4108  -14.7441   24.1396 O   0  0  0  0  0  0  0  0  0  0  0  0
   10.2283  -16.5949   25.3571 O   0  0  0  0  0  0  0  0  0  0  0  0
  2  4  1  0
  2  1  1  1
  3  2  1  0
  4  5  1  6
  6  7  2  0
  6  4  1  0
  9  8  1  1
  9 11  1  0
 10  9  1  0
 11 12  1  6
 12  6  1  0
 13 23  1  0
 13 11  1  0
 14 13  2  0
 16 15  1  0
 17 16  2  0
 18 16  1  0
 19 20  1  0
 19 18  1  0
 20 21  1  0
 22 23  1  0
 22 21  1  6
 24 22  1  0
 25 24  2  0
 26 24  1  0
M  END
$$$$
