VVR.pdb
     RDKit          3D

 26 25  0  0  1  0  0  0  0  0999 V2000
    6.4477  -17.6391   21.3009 C   0  0  0  0  0  0  0  0  0  0  0  0
    7.2175  -16.8967   22.3561 C   0  0  1  0  0  0  0  0  0  0  0  0
    8.4279  -17.6443   22.8146 C   0  0  0  0  0  0  0  0  0  0  0  0
    7.5214  -15.4849   21.9021 C   0  0  2  0  0  0  0  0  0  0  0  0
    8.3238  -15.4397   20.7171 N   0  0  0  0  0  0  0  0  0  0  0  0
    8.1560  -14.6873   22.9773 C   0  0  0  0  0  0  0  0  0  0  0  0
    9.4186  -14.6271   23.0580 O   0  0  0  0  0  0  0  0  0  0  0  0
    5.8547  -13.1331   26.1899 C   0  0  0  0  0  0  0  0  0  0  0  0
    7.0928  -12.4219   25.7806 C   0  0  1  0  0  0  0  0  0  0  0  0
    7.6975  -11.6973   26.9632 C   0  0  0  0  0  0  0  0  0  0  0  0
    8.1024  -13.3054   25.0829 C   0  0  2  0  0  0  0  0  0  0  0  0
    7.4242  -13.9615   23.9564 N   0  0  0  0  0  0  0  0  0  0  0  0
    8.5069  -14.3789   26.0247 C   0  0  0  0  0  0  0  0  0  0  0  0
    7.6816  -15.3241   26.2653 O   0  0  0  0  0  0  0  0  0  0  0  0
   15.4715  -15.9983   23.3820 N   0  0  0  0  0  0  0  0  0  0  0  0
   14.1931  -15.5624   22.9592 C   0  0  0  0  0  0  0  0  0  0  0  0
   14.1556  -14.7548   21.9493 N   0  0  0  0  0  0  0  0  0  0  0  0
   13.0139  -15.9967   23.6199 N   0  0  0  0  0  0  0  0  0  0  0  0
   12.8962  -15.9256   25.0410 C   0  0  0  0  0  0  0  0  0  0  0  0
   11.6107  -16.3433   25.6202 C   0  0  0  0  0  0  0  0  0  0  0  0
   11.3652  -16.1735   27.0461 C   0  0  0  0  0  0  0  0  0  0  0  0
   10.0542  -15.6879   27.5554 C   0  0  2  0  0  0  0  0  0  0  0  0
    9.7308  -14.4656   26.6893 N   0  0  0  0  0  0  0  0  0  0  0  0
   10.0110  -15.1839   28.9430 C   0  0  0  0  0  0  0  0  0  0  0  0
   10.1666  -16.0060   29.9291 O   0  0  0  0  0  0  0  0  0  0  0  0
    9.8257  -13.8885   29.3449 O   0  0  0  0  0  0  0  0  0  0  0  0
  2  4  1  0
  2  1  1  6
  3  2  1  0
  4  5  1  6
  6  7  2  0
  6  4  1  0
  9  8  1  1
  9 11  1  0
 10  9  1  0
 11 12  1  6
 12  6  1  0
 13 23  1  0
 13 11  1  0
 14 13  2  0
 16 15  1  0
 17 16  2  0
 18 16  1  0
 19 20  1  0
 19 18  1  0
 20 21  1  0
 22 23  1  0
 22 21  1  6
 24 22  1  0
 25 24  2  0
 26 24  1  0
M  END
$$$$
