VVR.pdb
     RDKit          3D

 26 25  0  0  1  0  0  0  0  0999 V2000
    8.3225  -12.1985   25.7271 C   0  0  0  0  0  0  0  0  0  0  0  0
    7.0130  -12.5373   26.3813 C   0  0  1  0  0  0  0  0  0  0  0  0
    6.3700  -11.3510   27.0241 C   0  0  0  0  0  0  0  0  0  0  0  0
    6.1026  -13.2607   25.4120 C   0  0  2  0  0  0  0  0  0  0  0  0
    4.8898  -13.7181   26.0201 N   0  0  0  0  0  0  0  0  0  0  0  0
    6.7951  -14.3884   24.7461 C   0  0  0  0  0  0  0  0  0  0  0  0
    6.8646  -15.5150   25.3206 O   0  0  0  0  0  0  0  0  0  0  0  0
    9.1629  -16.1530   20.7057 C   0  0  0  0  0  0  0  0  0  0  0  0
    8.4070  -15.0972   21.4269 C   0  0  1  0  0  0  0  0  0  0  0  0
    7.1530  -14.7339   20.6623 C   0  0  0  0  0  0  0  0  0  0  0  0
    8.1102  -15.4365   22.8703 C   0  0  2  0  0  0  0  0  0  0  0  0
    7.4071  -14.2921   23.4666 N   0  0  0  0  0  0  0  0  0  0  0  0
    9.4018  -15.5689   23.5896 C   0  0  0  0  0  0  0  0  0  0  0  0
   10.0691  -14.5104   23.8479 O   0  0  0  0  0  0  0  0  0  0  0  0
   12.6026  -18.7622   29.8208 N   0  0  0  0  0  0  0  0  0  0  0  0
   11.4959  -19.6375   29.7106 C   0  0  0  0  0  0  0  0  0  0  0  0
   11.1818  -20.3178   30.7652 N   0  0  0  0  0  0  0  0  0  0  0  0
   10.7719  -19.7561   28.4951 N   0  0  0  0  0  0  0  0  0  0  0  0
   11.2668  -19.1856   27.2835 C   0  0  0  0  0  0  0  0  0  0  0  0
   10.4432  -18.1389   26.6601 C   0  0  0  0  0  0  0  0  0  0  0  0
   11.0703  -16.9286   26.1462 C   0  0  0  0  0  0  0  0  0  0  0  0
   11.3547  -16.7578   24.6958 C   0  0  2  0  0  0  0  0  0  0  0  0
    9.9755  -16.7632   24.0274 N   0  0  0  0  0  0  0  0  0  0  0  0
   12.1011  -17.8381   24.0198 C   0  0  0  0  0  0  0  0  0  0  0  0
   13.3583  -18.0050   24.2733 O   0  0  0  0  0  0  0  0  0  0  0  0
   11.6088  -18.7411   23.1164 O   0  0  0  0  0  0  0  0  0  0  0  0
  2  4  1  0
  2  1  1  6
  3  2  1  0
  4  5  1  1
  6  7  2  0
  6  4  1  0
  9  8  1  6
  9 11  1  0
 10  9  1  0
 11 12  1  1
 12  6  1  0
 13 23  1  0
 13 11  1  0
 14 13  2  0
 16 15  1  0
 17 16  2  0
 18 16  1  0
 19 20  1  0
 19 18  1  0
 20 21  1  0
 22 23  1  0
 22 21  1  1
 24 22  1  0
 25 24  2  0
 26 24  1  0
M  END
$$$$
