VVR.pdb
     RDKit          3D

 26 25  0  0  1  0  0  0  0  0999 V2000
    5.8356  -19.5635   18.5734 C   0  0  0  0  0  0  0  0  0  0  0  0
    6.8301  -18.6985   19.2945 C   0  0  1  0  0  0  0  0  0  0  0  0
    8.0694  -19.4437   19.6725 C   0  0  0  0  0  0  0  0  0  0  0  0
    7.1071  -17.4341   18.5094 C   0  0  2  0  0  0  0  0  0  0  0  0
    7.5856  -17.6925   17.1849 N   0  0  0  0  0  0  0  0  0  0  0  0
    8.0462  -16.5389   19.2244 C   0  0  0  0  0  0  0  0  0  0  0  0
    9.2665  -16.5037   18.8867 O   0  0  0  0  0  0  0  0  0  0  0  0
    7.7366  -12.7026   20.1634 C   0  0  0  0  0  0  0  0  0  0  0  0
    8.0111  -13.5503   21.3517 C   0  0  1  0  0  0  0  0  0  0  0  0
    6.7544  -13.7204   22.1771 C   0  0  0  0  0  0  0  0  0  0  0  0
    8.6528  -14.8785   21.0193 C   0  0  2  0  0  0  0  0  0  0  0  0
    7.6622  -15.6892   20.2975 N   0  0  0  0  0  0  0  0  0  0  0  0
    8.9401  -15.5852   22.2926 C   0  0  0  0  0  0  0  0  0  0  0  0
    8.0694  -16.4014   22.7488 O   0  0  0  0  0  0  0  0  0  0  0  0
   12.7559  -20.8875   18.4042 N   0  0  0  0  0  0  0  0  0  0  0  0
   13.7692  -20.6705   19.3682 C   0  0  0  0  0  0  0  0  0  0  0  0
   14.9542  -21.1003   19.0774 N   0  0  0  0  0  0  0  0  0  0  0  0
   13.4872  -20.0115   20.5938 N   0  0  0  0  0  0  0  0  0  0  0  0
   12.6921  -18.8262   20.6277 C   0  0  0  0  0  0  0  0  0  0  0  0
   12.2619  -18.3555   21.9528 C   0  0  0  0  0  0  0  0  0  0  0  0
   11.4472  -17.1536   22.0694 C   0  0  0  0  0  0  0  0  0  0  0  0
   10.9553  -16.6745   23.3894 C   0  0  2  0  0  0  0  0  0  0  0  0
   10.0967  -15.4482   23.0611 N   0  0  0  0  0  0  0  0  0  0  0  0
   11.9630  -16.1785   24.3486 C   0  0  0  0  0  0  0  0  0  0  0  0
   12.4324  -14.9800   24.2234 O   0  0  0  0  0  0  0  0  0  0  0  0
   12.4887  -16.8547   25.4164 O   0  0  0  0  0  0  0  0  0  0  0  0
  2  4  1  0
  2  1  1  6
  3  2  1  0
  4  5  1  6
  6  7  2  0
  6  4  1  0
  9  8  1  6
  9 11  1  0
 10  9  1  0
 11 12  1  6
 12  6  1  0
 13 23  1  0
 13 11  1  0
 14 13  2  0
 16 15  1  0
 17 16  2  0
 18 16  1  0
 19 20  1  0
 19 18  1  0
 20 21  1  0
 22 23  1  0
 22 21  1  6
 24 22  1  0
 25 24  2  0
 26 24  1  0
M  END
$$$$
