VVR.pdb
     RDKit          3D

 26 25  0  0  1  0  0  0  0  0999 V2000
    8.5569  -11.7534   18.5611 C   0  0  0  0  0  0  0  0  0  0  0  0
    8.5995  -12.9546   19.4625 C   0  0  1  0  0  0  0  0  0  0  0  0
    7.6416  -12.8477   20.6049 C   0  0  0  0  0  0  0  0  0  0  0  0
    8.4379  -14.2294   18.6622 C   0  0  2  0  0  0  0  0  0  0  0  0
    7.2277  -14.2592   17.8976 N   0  0  0  0  0  0  0  0  0  0  0  0
    8.5264  -15.4323   19.5224 C   0  0  0  0  0  0  0  0  0  0  0  0
    7.4721  -15.9458   20.0009 O   0  0  0  0  0  0  0  0  0  0  0  0
   10.9944  -19.4731   20.8326 C   0  0  0  0  0  0  0  0  0  0  0  0
   10.6171  -18.3170   19.9797 C   0  0  1  0  0  0  0  0  0  0  0  0
    9.9641  -18.7977   18.7024 C   0  0  0  0  0  0  0  0  0  0  0  0
    9.7738  -17.2829   20.6910 C   0  0  2  0  0  0  0  0  0  0  0  0
    9.7506  -16.0714   19.8596 N   0  0  0  0  0  0  0  0  0  0  0  0
   10.4566  -16.9209   21.9582 C   0  0  0  0  0  0  0  0  0  0  0  0
   11.5662  -16.2905   21.8963 O   0  0  0  0  0  0  0  0  0  0  0  0
   10.5388  -16.5432   29.9793 N   0  0  0  0  0  0  0  0  0  0  0  0
   10.5414  -15.1472   29.7463 C   0  0  0  0  0  0  0  0  0  0  0  0
    9.9784  -14.4041   30.6431 N   0  0  0  0  0  0  0  0  0  0  0  0
   11.1364  -14.5989   28.5796 N   0  0  0  0  0  0  0  0  0  0  0  0
   10.5533  -14.7976   27.2916 C   0  0  0  0  0  0  0  0  0  0  0  0
   10.3110  -16.1892   26.8826 C   0  0  0  0  0  0  0  0  0  0  0  0
    9.8820  -16.4839   25.5220 C   0  0  0  0  0  0  0  0  0  0  0  0
   10.8586  -16.8629   24.4653 C   0  0  2  0  0  0  0  0  0  0  0  0
    9.9964  -17.2033   23.2449 N   0  0  0  0  0  0  0  0  0  0  0  0
   11.6717  -18.0738   24.6972 C   0  0  0  0  0  0  0  0  0  0  0  0
   11.1768  -19.2391   24.4331 O   0  0  0  0  0  0  0  0  0  0  0  0
   12.9539  -18.1280   25.1735 O   0  0  0  0  0  0  0  0  0  0  0  0
  2  4  1  0
  2  1  1  6
  3  2  1  0
  4  5  1  1
  6  7  2  0
  6  4  1  0
  9  8  1  1
  9 11  1  0
 10  9  1  0
 11 12  1  6
 12  6  1  0
 13 23  1  0
 13 11  1  0
 14 13  2  0
 16 15  1  0
 17 16  2  0
 18 16  1  0
 19 20  1  0
 19 18  1  0
 20 21  1  0
 22 23  1  0
 22 21  1  1
 24 22  1  0
 25 24  2  0
 26 24  1  0
M  END
$$$$
