VVR.pdb
     RDKit          3D

 26 25  0  0  1  0  0  0  0  0999 V2000
    8.3659  -19.1976   18.5057 C   0  0  0  0  0  0  0  0  0  0  0  0
    8.7822  -18.6968   17.1517 C   0  0  1  0  0  0  0  0  0  0  0  0
    8.3136  -19.5841   16.0439 C   0  0  0  0  0  0  0  0  0  0  0  0
    8.3800  -17.2487   16.9706 C   0  0  2  0  0  0  0  0  0  0  0  0
    8.7875  -16.7095   15.7083 N   0  0  0  0  0  0  0  0  0  0  0  0
    8.8827  -16.3974   18.0739 C   0  0  0  0  0  0  0  0  0  0  0  0
   10.1179  -16.1284   18.1520 O   0  0  0  0  0  0  0  0  0  0  0  0
    7.7808  -13.6623   22.1112 C   0  0  0  0  0  0  0  0  0  0  0  0
    7.4562  -14.2389   20.7814 C   0  0  1  0  0  0  0  0  0  0  0  0
    6.9052  -13.1684   19.8651 C   0  0  0  0  0  0  0  0  0  0  0  0
    8.6034  -14.9913   20.1455 C   0  0  2  0  0  0  0  0  0  0  0  0
    8.0497  -15.8435   19.0840 N   0  0  0  0  0  0  0  0  0  0  0  0
    9.1835  -15.8995   21.1662 C   0  0  0  0  0  0  0  0  0  0  0  0
    8.5144  -16.9289   21.5196 O   0  0  0  0  0  0  0  0  0  0  0  0
   15.2771  -20.6635   20.7578 N   0  0  0  0  0  0  0  0  0  0  0  0
   15.8269  -20.3163   22.0149 C   0  0  0  0  0  0  0  0  0  0  0  0
   16.5313  -21.2208   22.6145 N   0  0  0  0  0  0  0  0  0  0  0  0
   15.6089  -19.0333   22.5824 N   0  0  0  0  0  0  0  0  0  0  0  0
   14.7181  -18.0990   21.9724 C   0  0  0  0  0  0  0  0  0  0  0  0
   13.3641  -18.0087   22.5393 C   0  0  0  0  0  0  0  0  0  0  0  0
   12.4113  -17.0483   21.9990 C   0  0  0  0  0  0  0  0  0  0  0  0
   11.0454  -16.9045   22.5712 C   0  0  2  0  0  0  0  0  0  0  0  0
   10.4199  -15.7415   21.7934 N   0  0  0  0  0  0  0  0  0  0  0  0
   10.9434  -16.5030   23.9888 C   0  0  0  0  0  0  0  0  0  0  0  0
   11.4168  -17.2771   24.9103 O   0  0  0  0  0  0  0  0  0  0  0  0
   10.3905  -15.3523   24.4828 O   0  0  0  0  0  0  0  0  0  0  0  0
  2  4  1  0
  2  1  1  1
  3  2  1  0
  4  5  1  6
  6  7  2  0
  6  4  1  0
  9  8  1  1
  9 11  1  0
 10  9  1  0
 11 12  1  6
 12  6  1  0
 13 23  1  0
 13 11  1  0
 14 13  2  0
 16 15  1  0
 17 16  2  0
 18 16  1  0
 19 20  1  0
 19 18  1  0
 20 21  1  0
 22 23  1  0
 22 21  1  6
 24 22  1  0
 25 24  2  0
 26 24  1  0
M  END
$$$$
