VVR.pdb
     RDKit          3D

 26 25  0  0  1  0  0  0  0  0999 V2000
    7.2254  -16.0777   21.1686 C   0  0  0  0  0  0  0  0  0  0  0  0
    7.7446  -14.9012   20.3917 C   0  0  1  0  0  0  0  0  0  0  0  0
    7.3671  -14.9573   18.9466 C   0  0  0  0  0  0  0  0  0  0  0  0
    7.3530  -13.6023   21.0635 C   0  0  2  0  0  0  0  0  0  0  0  0
    7.7764  -12.4459   20.3331 N   0  0  0  0  0  0  0  0  0  0  0  0
    7.8495  -13.5340   22.4575 C   0  0  0  0  0  0  0  0  0  0  0  0
    9.0855  -13.3702   22.6807 O   0  0  0  0  0  0  0  0  0  0  0  0
    6.8029  -13.3139   27.3386 C   0  0  0  0  0  0  0  0  0  0  0  0
    6.4338  -13.2283   25.9025 C   0  0  1  0  0  0  0  0  0  0  0  0
    5.8430  -11.8703   25.5921 C   0  0  0  0  0  0  0  0  0  0  0  0
    7.5618  -13.5825   24.9598 C   0  0  2  0  0  0  0  0  0  0  0  0
    7.0096  -13.6429   23.5993 N   0  0  0  0  0  0  0  0  0  0  0  0
    8.0314  -14.9504   25.2935 C   0  0  0  0  0  0  0  0  0  0  0  0
    7.3667  -15.9492   24.8542 O   0  0  0  0  0  0  0  0  0  0  0  0
   14.1089  -19.0799   21.6935 N   0  0  0  0  0  0  0  0  0  0  0  0
   13.0775  -19.9752   22.0646 C   0  0  0  0  0  0  0  0  0  0  0  0
   13.0454  -21.1151   21.4536 N   0  0  0  0  0  0  0  0  0  0  0  0
   12.1276  -19.6284   23.0612 N   0  0  0  0  0  0  0  0  0  0  0  0
   12.1466  -18.3429   23.6822 C   0  0  0  0  0  0  0  0  0  0  0  0
   11.2800  -18.1625   24.8565 C   0  0  0  0  0  0  0  0  0  0  0  0
   10.4982  -16.9421   25.0038 C   0  0  0  0  0  0  0  0  0  0  0  0
    9.6197  -16.7210   26.1841 C   0  0  2  0  0  0  0  0  0  0  0  0
    9.1571  -15.2656   26.0555 N   0  0  0  0  0  0  0  0  0  0  0  0
   10.2468  -16.7966   27.5191 C   0  0  0  0  0  0  0  0  0  0  0  0
   10.6458  -15.7137   28.1027 O   0  0  0  0  0  0  0  0  0  0  0  0
   10.4665  -17.9233   28.2649 O   0  0  0  0  0  0  0  0  0  0  0  0
  2  4  1  0
  2  1  1  1
  3  2  1  0
  4  5  1  6
  6  7  2  0
  6  4  1  0
  9  8  1  1
  9 11  1  0
 10  9  1  0
 11 12  1  6
 12  6  1  0
 13 23  1  0
 13 11  1  0
 14 13  2  0
 16 15  1  0
 17 16  2  0
 18 16  1  0
 19 20  1  0
 19 18  1  0
 20 21  1  0
 22 23  1  0
 22 21  1  6
 24 22  1  0
 25 24  2  0
 26 24  1  0
M  END
$$$$
