VVR.pdb
     RDKit          3D

 26 25  0  0  1  0  0  0  0  0999 V2000
    6.4523  -15.8830   21.7269 C   0  0  0  0  0  0  0  0  0  0  0  0
    7.2334  -15.1572   20.6684 C   0  0  1  0  0  0  0  0  0  0  0  0
    6.6405  -15.3201   19.3061 C   0  0  0  0  0  0  0  0  0  0  0  0
    7.4475  -13.7106   21.0598 C   0  0  2  0  0  0  0  0  0  0  0  0
    8.1754  -12.9676   20.0758 N   0  0  0  0  0  0  0  0  0  0  0  0
    8.1089  -13.5914   22.3800 C   0  0  0  0  0  0  0  0  0  0  0  0
    9.3581  -13.7754   22.4797 O   0  0  0  0  0  0  0  0  0  0  0  0
    5.8571  -12.7888   25.8620 C   0  0  0  0  0  0  0  0  0  0  0  0
    7.2705  -12.3370   25.7967 C   0  0  1  0  0  0  0  0  0  0  0  0
    7.8621  -12.2599   27.1871 C   0  0  0  0  0  0  0  0  0  0  0  0
    8.1310  -13.1563   24.8612 C   0  0  2  0  0  0  0  0  0  0  0  0
    7.4183  -13.2749   23.5816 N   0  0  0  0  0  0  0  0  0  0  0  0
    8.2443  -14.5274   25.4183 C   0  0  0  0  0  0  0  0  0  0  0  0
    7.2025  -15.2668   25.4390 O   0  0  0  0  0  0  0  0  0  0  0  0
    9.7932  -19.4355   21.9238 N   0  0  0  0  0  0  0  0  0  0  0  0
   10.9512  -18.8035   21.4111 C   0  0  0  0  0  0  0  0  0  0  0  0
   11.5581  -19.3982   20.4357 N   0  0  0  0  0  0  0  0  0  0  0  0
   11.4163  -17.5750   21.9498 N   0  0  0  0  0  0  0  0  0  0  0  0
   11.6315  -17.4194   23.3526 C   0  0  0  0  0  0  0  0  0  0  0  0
   10.4485  -17.5273   24.2195 C   0  0  0  0  0  0  0  0  0  0  0  0
   10.5477  -17.1863   25.6323 C   0  0  0  0  0  0  0  0  0  0  0  0
    9.4049  -16.5782   26.3658 C   0  0  2  0  0  0  0  0  0  0  0  0
    9.4043  -15.1082   25.9321 N   0  0  0  0  0  0  0  0  0  0  0  0
    9.4930  -16.5324   27.8394 C   0  0  0  0  0  0  0  0  0  0  0  0
    9.8638  -15.4412   28.4262 O   0  0  0  0  0  0  0  0  0  0  0  0
    9.2108  -17.5463   28.7148 O   0  0  0  0  0  0  0  0  0  0  0  0
  2  4  1  0
  2  1  1  1
  3  2  1  0
  4  5  1  6
  6  7  2  0
  6  4  1  0
  9  8  1  1
  9 11  1  0
 10  9  1  0
 11 12  1  6
 12  6  1  0
 13 23  1  0
 13 11  1  0
 14 13  2  0
 16 15  1  0
 17 16  2  0
 18 16  1  0
 19 20  1  0
 19 18  1  0
 20 21  1  0
 22 23  1  0
 22 21  1  6
 24 22  1  0
 25 24  2  0
 26 24  1  0
M  END
$$$$
