VVR.pdb
     RDKit          3D

 26 25  0  0  1  0  0  0  0  0999 V2000
    7.4846  -18.9585   19.3107 C   0  0  0  0  0  0  0  0  0  0  0  0
    7.9180  -18.8144   17.8793 C   0  0  1  0  0  0  0  0  0  0  0  0
    7.1310  -19.6834   16.9523 C   0  0  0  0  0  0  0  0  0  0  0  0
    7.9309  -17.3573   17.4689 C   0  0  2  0  0  0  0  0  0  0  0  0
    8.3814  -17.1597   16.1243 N   0  0  0  0  0  0  0  0  0  0  0  0
    8.7332  -16.5317   18.4012 C   0  0  0  0  0  0  0  0  0  0  0  0
    9.9980  -16.5907   18.3690 O   0  0  0  0  0  0  0  0  0  0  0  0
    7.8794  -12.6973   19.4878 C   0  0  0  0  0  0  0  0  0  0  0  0
    8.2100  -13.5968   20.6226 C   0  0  1  0  0  0  0  0  0  0  0  0
    6.9543  -13.9711   21.3791 C   0  0  0  0  0  0  0  0  0  0  0  0
    9.0128  -14.8143   20.2230 C   0  0  2  0  0  0  0  0  0  0  0  0
    8.1654  -15.6494   19.3605 N   0  0  0  0  0  0  0  0  0  0  0  0
    9.2924  -15.6064   21.4467 C   0  0  0  0  0  0  0  0  0  0  0  0
    8.4245  -16.4604   21.8337 O   0  0  0  0  0  0  0  0  0  0  0  0
   15.9733  -19.5059   22.8022 N   0  0  0  0  0  0  0  0  0  0  0  0
   15.1637  -19.9968   21.7502 C   0  0  0  0  0  0  0  0  0  0  0  0
   15.7559  -20.6883   20.8311 N   0  0  0  0  0  0  0  0  0  0  0  0
   13.7685  -19.7364   21.7149 N   0  0  0  0  0  0  0  0  0  0  0  0
   13.0216  -19.5548   22.9180 C   0  0  0  0  0  0  0  0  0  0  0  0
   12.8637  -18.1733   23.3967 C   0  0  0  0  0  0  0  0  0  0  0  0
   12.0565  -17.2275   22.6377 C   0  0  0  0  0  0  0  0  0  0  0  0
   10.8067  -16.6479   23.1997 C   0  0  2  0  0  0  0  0  0  0  0  0
   10.4386  -15.5136   22.2370 N   0  0  0  0  0  0  0  0  0  0  0  0
   10.8961  -15.9995   24.5236 C   0  0  0  0  0  0  0  0  0  0  0  0
   11.0733  -14.7208   24.6009 O   0  0  0  0  0  0  0  0  0  0  0  0
   10.8032  -16.6059   25.7473 O   0  0  0  0  0  0  0  0  0  0  0  0
  2  4  1  0
  2  1  1  1
  3  2  1  0
  4  5  1  6
  6  7  2  0
  6  4  1  0
  9  8  1  6
  9 11  1  0
 10  9  1  0
 11 12  1  6
 12  6  1  0
 13 23  1  0
 13 11  1  0
 14 13  2  0
 16 15  1  0
 17 16  2  0
 18 16  1  0
 19 20  1  0
 19 18  1  0
 20 21  1  0
 22 23  1  0
 22 21  1  6
 24 22  1  0
 25 24  2  0
 26 24  1  0
M  END
$$$$
