VVR.pdb
     RDKit          3D

 26 25  0  0  1  0  0  0  0  0999 V2000
    8.2949  -11.9856   25.9688 C   0  0  0  0  0  0  0  0  0  0  0  0
    6.9542  -12.3809   26.5199 C   0  0  1  0  0  0  0  0  0  0  0  0
    6.2851  -11.2644   27.2546 C   0  0  0  0  0  0  0  0  0  0  0  0
    6.0891  -12.9887   25.4365 C   0  0  2  0  0  0  0  0  0  0  0  0
    4.8063  -13.4075   25.9153 N   0  0  0  0  0  0  0  0  0  0  0  0
    6.7711  -14.1145   24.7567 C   0  0  0  0  0  0  0  0  0  0  0  0
    6.7080  -15.2805   25.2474 O   0  0  0  0  0  0  0  0  0  0  0  0
    9.2120  -15.7850   20.7233 C   0  0  0  0  0  0  0  0  0  0  0  0
    8.5601  -14.7063   21.5091 C   0  0  1  0  0  0  0  0  0  0  0  0
    7.4291  -14.0889   20.7161 C   0  0  0  0  0  0  0  0  0  0  0  0
    8.1132  -15.1394   22.8873 C   0  0  2  0  0  0  0  0  0  0  0  0
    7.5155  -13.9740   23.5538 N   0  0  0  0  0  0  0  0  0  0  0  0
    9.3190  -15.5098   23.6696 C   0  0  0  0  0  0  0  0  0  0  0  0
    9.9942  -14.5804   24.2288 O   0  0  0  0  0  0  0  0  0  0  0  0
   12.5427  -20.8883   29.3989 N   0  0  0  0  0  0  0  0  0  0  0  0
   11.9736  -19.7946   30.0940 C   0  0  0  0  0  0  0  0  0  0  0  0
   12.3013  -19.6588   31.3381 N   0  0  0  0  0  0  0  0  0  0  0  0
   11.0857  -18.8954   29.4469 N   0  0  0  0  0  0  0  0  0  0  0  0
   10.6868  -19.1005   28.0915 C   0  0  0  0  0  0  0  0  0  0  0  0
   11.1853  -18.1342   27.1015 C   0  0  0  0  0  0  0  0  0  0  0  0
   10.5016  -17.9821   25.8242 C   0  0  0  0  0  0  0  0  0  0  0  0
   11.0060  -17.0497   24.7801 C   0  0  2  0  0  0  0  0  0  0  0  0
    9.8013  -16.8045   23.8650 N   0  0  0  0  0  0  0  0  0  0  0  0
   12.0635  -17.5500   23.8788 C   0  0  0  0  0  0  0  0  0  0  0  0
   11.7406  -18.0951   22.7514 O   0  0  0  0  0  0  0  0  0  0  0  0
   13.4157  -17.5030   24.0872 O   0  0  0  0  0  0  0  0  0  0  0  0
  2  4  1  0
  2  1  1  6
  3  2  1  0
  4  5  1  1
  6  7  2  0
  6  4  1  0
  9  8  1  6
  9 11  1  0
 10  9  1  0
 11 12  1  1
 12  6  1  0
 13 23  1  0
 13 11  1  0
 14 13  2  0
 16 15  1  0
 17 16  2  0
 18 16  1  0
 19 20  1  0
 19 18  1  0
 20 21  1  0
 22 23  1  0
 22 21  1  1
 24 22  1  0
 25 24  2  0
 26 24  1  0
M  END
$$$$
