VVR.pdb
     RDKit          3D

 26 25  0  0  1  0  0  0  0  0999 V2000
    7.0733  -16.1043   21.3446 C   0  0  0  0  0  0  0  0  0  0  0  0
    7.6627  -15.1343   20.3602 C   0  0  1  0  0  0  0  0  0  0  0  0
    7.1776  -15.3675   18.9658 C   0  0  0  0  0  0  0  0  0  0  0  0
    7.4681  -13.7092   20.8321 C   0  0  2  0  0  0  0  0  0  0  0  0
    7.9692  -12.7403   19.9046 N   0  0  0  0  0  0  0  0  0  0  0  0
    8.0633  -13.4882   22.1706 C   0  0  0  0  0  0  0  0  0  0  0  0
    9.3102  -13.2964   22.2837 O   0  0  0  0  0  0  0  0  0  0  0  0
    7.4019  -12.7057   27.0543 C   0  0  0  0  0  0  0  0  0  0  0  0
    6.9365  -12.7539   25.6446 C   0  0  1  0  0  0  0  0  0  0  0  0
    6.4286  -11.3957   25.2125 C   0  0  0  0  0  0  0  0  0  0  0  0
    7.9628  -13.3060   24.6811 C   0  0  2  0  0  0  0  0  0  0  0  0
    7.3096  -13.4759   23.3758 N   0  0  0  0  0  0  0  0  0  0  0  0
    8.3520  -14.6609   25.1460 C   0  0  0  0  0  0  0  0  0  0  0  0
    7.4556  -15.5698   25.1994 O   0  0  0  0  0  0  0  0  0  0  0  0
   14.8227  -14.5923   22.0056 N   0  0  0  0  0  0  0  0  0  0  0  0
   13.8134  -15.2448   21.2582 C   0  0  0  0  0  0  0  0  0  0  0  0
   13.8685  -15.1235   19.9714 N   0  0  0  0  0  0  0  0  0  0  0  0
   12.7928  -15.9941   21.9006 N   0  0  0  0  0  0  0  0  0  0  0  0
   12.6717  -16.0065   23.3231 C   0  0  0  0  0  0  0  0  0  0  0  0
   11.5643  -16.7935   23.8861 C   0  0  0  0  0  0  0  0  0  0  0  0
   11.2981  -16.7553   25.3178 C   0  0  0  0  0  0  0  0  0  0  0  0
    9.9261  -16.5270   25.8463 C   0  0  2  0  0  0  0  0  0  0  0  0
    9.6320  -15.0549   25.5377 N   0  0  0  0  0  0  0  0  0  0  0  0
    9.7333  -16.6481   27.3055 C   0  0  0  0  0  0  0  0  0  0  0  0
    9.7728  -15.5898   28.0478 O   0  0  0  0  0  0  0  0  0  0  0  0
    9.4973  -17.7952   28.0143 O   0  0  0  0  0  0  0  0  0  0  0  0
  2  4  1  0
  2  1  1  1
  3  2  1  0
  4  5  1  6
  6  7  2  0
  6  4  1  0
  9  8  1  1
  9 11  1  0
 10  9  1  0
 11 12  1  6
 12  6  1  0
 13 23  1  0
 13 11  1  0
 14 13  2  0
 16 15  1  0
 17 16  2  0
 18 16  1  0
 19 20  1  0
 19 18  1  0
 20 21  1  0
 22 23  1  0
 22 21  1  1
 24 22  1  0
 25 24  2  0
 26 24  1  0
M  END
$$$$
