VVR.pdb
     RDKit          3D

 26 25  0  0  1  0  0  0  0  0999 V2000
    6.9723  -15.6448   21.0375 C   0  0  0  0  0  0  0  0  0  0  0  0
    7.6237  -14.6406   20.1295 C   0  0  1  0  0  0  0  0  0  0  0  0
    7.1545  -14.7581   18.7152 C   0  0  0  0  0  0  0  0  0  0  0  0
    7.4856  -13.2421   20.6925 C   0  0  2  0  0  0  0  0  0  0  0  0
    8.0808  -12.2426   19.8578 N   0  0  0  0  0  0  0  0  0  0  0  0
    8.0300  -13.1477   22.0670 C   0  0  0  0  0  0  0  0  0  0  0  0
    9.2813  -13.0691   22.2470 O   0  0  0  0  0  0  0  0  0  0  0  0
    7.1834  -12.8502   26.9848 C   0  0  0  0  0  0  0  0  0  0  0  0
    6.7766  -12.7020   25.5640 C   0  0  1  0  0  0  0  0  0  0  0  0
    6.3416  -11.2793   25.2879 C   0  0  0  0  0  0  0  0  0  0  0  0
    7.8203  -13.1752   24.5773 C   0  0  2  0  0  0  0  0  0  0  0  0
    7.2211  -13.1390   23.2360 N   0  0  0  0  0  0  0  0  0  0  0  0
    8.1254  -14.5974   24.8730 C   0  0  0  0  0  0  0  0  0  0  0  0
    7.2451  -15.4815   24.5979 O   0  0  0  0  0  0  0  0  0  0  0  0
   14.6581  -18.8754   21.7189 N   0  0  0  0  0  0  0  0  0  0  0  0
   13.9545  -19.9234   22.3590 C   0  0  0  0  0  0  0  0  0  0  0  0
   14.3722  -21.1278   22.1383 N   0  0  0  0  0  0  0  0  0  0  0  0
   12.8436  -19.6545   23.2012 N   0  0  0  0  0  0  0  0  0  0  0  0
   12.3187  -18.3330   23.3299 C   0  0  0  0  0  0  0  0  0  0  0  0
   11.2566  -18.1371   24.3279 C   0  0  0  0  0  0  0  0  0  0  0  0
   10.6385  -16.8275   24.4858 C   0  0  0  0  0  0  0  0  0  0  0  0
    9.5729  -16.5891   25.4964 C   0  0  2  0  0  0  0  0  0  0  0  0
    9.3088  -15.0807   25.4325 N   0  0  0  0  0  0  0  0  0  0  0  0
    9.9098  -16.8493   26.9106 C   0  0  0  0  0  0  0  0  0  0  0  0
   10.1960  -15.8611   27.6942 O   0  0  0  0  0  0  0  0  0  0  0  0
    9.9539  -18.0651   27.5381 O   0  0  0  0  0  0  0  0  0  0  0  0
  2  4  1  0
  2  1  1  1
  3  2  1  0
  4  5  1  6
  6  7  2  0
  6  4  1  0
  9  8  1  1
  9 11  1  0
 10  9  1  0
 11 12  1  6
 12  6  1  0
 13 23  1  0
 13 11  1  0
 14 13  2  0
 16 15  1  0
 17 16  2  0
 18 16  1  0
 19 20  1  0
 19 18  1  0
 20 21  1  0
 22 23  1  0
 22 21  1  6
 24 22  1  0
 25 24  2  0
 26 24  1  0
M  END
$$$$
