RVW.pdb
     RDKit          3D

 33 34  0  0  1  0  0  0  0  0999 V2000
    5.6703  -19.2054   16.9136 N   0  0  0  0  0  0  0  0  0  0  0  0
    4.6168  -18.9010   17.8358 C   0  0  0  0  0  0  0  0  0  0  0  0
    3.4358  -19.3417   17.5505 N   0  0  0  0  0  0  0  0  0  0  0  0
    4.8599  -18.1467   19.0139 N   0  0  0  0  0  0  0  0  0  0  0  0
    6.1823  -17.6756   19.2809 C   0  0  0  0  0  0  0  0  0  0  0  0
    6.7015  -18.1182   20.6522 C   0  0  0  0  0  0  0  0  0  0  0  0
    7.3701  -16.9160   21.2631 C   0  0  0  0  0  0  0  0  0  0  0  0
    8.7873  -16.7214   20.8623 C   0  0  2  0  0  0  0  0  0  0  0  0
    9.2292  -17.4685   19.7364 N   0  0  0  0  0  0  0  0  0  0  0  0
    9.6338  -17.0800   22.0502 C   0  0  0  0  0  0  0  0  0  0  0  0
    9.5778  -18.2330   22.5638 O   0  0  0  0  0  0  0  0  0  0  0  0
    2.5800  -19.1417   18.0904 C   0  0  0  0  0  0  0  0  0  0  0  0
   13.7311  -16.8400   24.6159 C   0  0  2  0  0  0  0  0  0  0  0  0
   12.8472  -16.2840   23.5370 C   0  0  0  0  0  0  0  0  0  0  0  0
   13.2742  -16.9840   22.2575 C   0  0  1  0  0  0  0  0  0  0  0  0
   11.3997  -16.5206   23.7454 N   0  0  0  0  0  0  0  0  0  0  0  0
   10.5331  -16.1904   22.6734 C   0  0  0  0  0  0  0  0  0  0  0  0
   10.9560  -15.9247   25.0462 O   0  0  0  0  0  0  0  0  0  0  0  0
   11.1413  -14.7110   25.3167 N   0  0  0  0  0  0  0  0  0  0  0  0
   10.3031  -16.7148   26.0339 C   0  0  1  0  0  0  0  0  0  0  0  0
   10.0967  -16.2201   27.3686 C   0  0  0  0  0  0  0  0  0  0  0  0
    8.6676  -16.2895   27.8066 C   0  0  0  0  0  0  0  0  0  0  0  0
    7.7807  -15.5087   26.9086 C   0  0  0  0  0  0  0  0  0  0  0  0
    6.9196  -16.0089   25.9336 N   0  0  0  0  0  0  0  0  0  0  0  0
    6.2963  -14.9773   25.3399 C   0  0  0  0  0  0  0  0  0  0  0  0
    6.6932  -13.8065   25.8648 C   0  0  0  0  0  0  0  0  0  0  0  0
    6.3711  -12.4834   25.6218 C   0  0  0  0  0  0  0  0  0  0  0  0
    6.9565  -11.4498   26.3407 C   0  0  0  0  0  0  0  0  0  0  0  0
    7.8750  -11.7764   27.3115 C   0  0  0  0  0  0  0  0  0  0  0  0
    8.1889  -13.1136   27.5444 C   0  0  0  0  0  0  0  0  0  0  0  0
    7.6174  -14.1331   26.8418 C   0  0  0  0  0  0  0  0  0  0  0  0
   10.9174  -17.0228   28.3008 O   0  0  0  0  0  0  0  0  0  0  0  0
   11.1033  -16.6612   29.6285 O   0  0  0  0  0  0  0  0  0  0  0  0
  1  2  1  0
  2  3  2  0
  4  2  1  0
  4  5  1  0
  5  6  1  0
  6  7  1  0
  7  8  1  0
  8 10  1  0
  8  9  1  6
 10 11  2  0
 10 16  1  0
 13 12  1  6
 13 15  1  0
 14 13  1  0
 15 17  1  0
 15 16  1  6
 17 18  2  0
 17 19  1  0
 19 20  1  0
 20 21  1  1
 21 22  1  0
 22 30  1  0
 22 23  2  0
 23 24  1  0
 24 25  1  0
 25 26  2  0
 27 26  1  0
 28 27  2  0
 29 30  2  0
 29 28  1  0
 30 25  1  0
 31 20  1  0
 31 32  1  0
 33 31  2  0
M  END
$$$$
