RVW.pdb
     RDKit          3D

 33 34  0  0  1  0  0  0  0  0999 V2000
    9.2945  -16.9408   14.0331 N   0  0  0  0  0  0  0  0  0  0  0  0
   10.3944  -17.8590   14.0226 C   0  0  0  0  0  0  0  0  0  0  0  0
   11.3457  -17.6320   13.1776 N   0  0  0  0  0  0  0  0  0  0  0  0
   10.4377  -18.9717   14.9034 N   0  0  0  0  0  0  0  0  0  0  0  0
    9.3279  -19.2211   15.7684 C   0  0  0  0  0  0  0  0  0  0  0  0
    9.7322  -19.2870   17.2442 C   0  0  0  0  0  0  0  0  0  0  0  0
    9.3006  -17.9845   17.8629 C   0  0  0  0  0  0  0  0  0  0  0  0
    9.1079  -18.0288   19.3353 C   0  0  2  0  0  0  0  0  0  0  0  0
    7.7814  -18.2676   19.7876 N   0  0  0  0  0  0  0  0  0  0  0  0
    9.5810  -16.7116   19.8808 C   0  0  0  0  0  0  0  0  0  0  0  0
   10.7838  -16.3481   19.7494 O   0  0  0  0  0  0  0  0  0  0  0  0
   12.2371  -18.1491   13.1327 C   0  0  0  0  0  0  0  0  0  0  0  0
    7.9971  -13.1270   19.4471 C   0  0  2  0  0  0  0  0  0  0  0  0
    8.3153  -13.3877   20.8911 C   0  0  0  0  0  0  0  0  0  0  0  0
    6.9755  -13.6204   21.5694 C   0  0  2  0  0  0  0  0  0  0  0  0
    9.1768  -14.5696   21.1271 N   0  0  0  0  0  0  0  0  0  0  0  0
    8.7511  -15.7987   20.5638 C   0  0  0  0  0  0  0  0  0  0  0  0
    9.5092  -14.6902   22.5829 O   0  0  0  0  0  0  0  0  0  0  0  0
    9.9352  -13.7125   23.2486 N   0  0  0  0  0  0  0  0  0  0  0  0
    9.3547  -15.9248   23.2741 C   0  0  1  0  0  0  0  0  0  0  0  0
    9.7846  -16.0750   24.6384 C   0  0  0  0  0  0  0  0  0  0  0  0
    8.7017  -16.5702   25.5445 C   0  0  0  0  0  0  0  0  0  0  0  0
    7.5826  -15.6003   25.6420 C   0  0  0  0  0  0  0  0  0  0  0  0
    6.2629  -15.7950   25.2384 N   0  0  0  0  0  0  0  0  0  0  0  0
    5.5647  -14.6765   25.4965 C   0  0  0  0  0  0  0  0  0  0  0  0
    6.3462  -13.7371   26.0536 C   0  0  0  0  0  0  0  0  0  0  0  0
    6.1312  -12.4452   26.4991 C   0  0  0  0  0  0  0  0  0  0  0  0
    7.1565  -11.6862   27.0475 C   0  0  0  0  0  0  0  0  0  0  0  0
    8.4055  -12.2559   27.1383 C   0  0  0  0  0  0  0  0  0  0  0  0
    8.6061  -13.5579   26.6853 C   0  0  0  0  0  0  0  0  0  0  0  0
    7.6034  -14.3083   26.1459 C   0  0  0  0  0  0  0  0  0  0  0  0
   10.9089  -17.0349   24.6752 O   0  0  0  0  0  0  0  0  0  0  0  0
   11.5980  -17.3290   25.8443 O   0  0  0  0  0  0  0  0  0  0  0  0
  1  2  1  0
  2  3  2  0
  4  2  1  0
  4  5  1  0
  5  6  1  0
  6  7  1  0
  7  8  1  0
  8 10  1  0
  8  9  1  6
 10 11  2  0
 10 16  1  0
 13 12  1  1
 13 15  1  0
 14 13  1  0
 15 17  1  0
 15 16  1  1
 17 18  2  0
 17 19  1  0
 19 20  1  0
 20 21  1  1
 21 22  1  0
 22 30  1  0
 22 23  2  0
 23 24  1  0
 24 25  1  0
 25 26  2  0
 27 26  1  0
 28 27  2  0
 29 30  2  0
 29 28  1  0
 30 25  1  0
 31 20  1  0
 31 32  1  0
 33 31  2  0
M  END
$$$$
