RVW.pdb
     RDKit          3D

 33 34  0  0  1  0  0  0  0  0999 V2000
    7.5427  -22.2376   16.6793 N   0  0  0  0  0  0  0  0  0  0  0  0
    6.2218  -21.7285   16.4581 C   0  0  0  0  0  0  0  0  0  0  0  0
    5.4352  -22.4308   15.7108 N   0  0  0  0  0  0  0  0  0  0  0  0
    5.7946  -20.5038   17.0355 N   0  0  0  0  0  0  0  0  0  0  0  0
    6.6736  -19.3774   17.0134 C   0  0  0  0  0  0  0  0  0  0  0  0
    8.0580  -19.6969   17.5855 C   0  0  0  0  0  0  0  0  0  0  0  0
    8.5652  -18.4246   18.2096 C   0  0  0  0  0  0  0  0  0  0  0  0
    8.3709  -18.3320   19.6795 C   0  0  2  0  0  0  0  0  0  0  0  0
    7.0302  -18.4287   20.1425 N   0  0  0  0  0  0  0  0  0  0  0  0
    8.9458  -17.0151   20.1173 C   0  0  0  0  0  0  0  0  0  0  0  0
   10.1337  -16.6964   19.8286 O   0  0  0  0  0  0  0  0  0  0  0  0
    4.4863  -22.1514   15.4186 C   0  0  0  0  0  0  0  0  0  0  0  0
    7.1981  -13.5588   19.7567 C   0  0  2  0  0  0  0  0  0  0  0  0
    7.8787  -13.6186   21.0936 C   0  0  0  0  0  0  0  0  0  0  0  0
    6.7596  -13.6616   22.1208 C   0  0  2  0  0  0  0  0  0  0  0  0
    8.7464  -14.8033   21.2893 N   0  0  0  0  0  0  0  0  0  0  0  0
    8.2329  -16.0540   20.8635 C   0  0  0  0  0  0  0  0  0  0  0  0
    9.2643  -14.8440   22.6944 O   0  0  0  0  0  0  0  0  0  0  0  0
    9.9773  -13.9216   23.1648 N   0  0  0  0  0  0  0  0  0  0  0  0
    8.9676  -15.9361   23.5576 C   0  0  1  0  0  0  0  0  0  0  0  0
    9.6336  -16.0891   24.8233 C   0  0  0  0  0  0  0  0  0  0  0  0
    8.6865  -16.2712   25.9673 C   0  0  0  0  0  0  0  0  0  0  0  0
    7.6679  -15.1928   26.0125 C   0  0  0  0  0  0  0  0  0  0  0  0
    6.3148  -15.2996   25.6961 N   0  0  0  0  0  0  0  0  0  0  0  0
    5.7375  -14.0982   25.8645 C   0  0  0  0  0  0  0  0  0  0  0  0
    6.6323  -13.1862   26.2784 C   0  0  0  0  0  0  0  0  0  0  0  0
    6.5620  -11.8405   26.5910 C   0  0  0  0  0  0  0  0  0  0  0  0
    7.6822  -11.1316   27.0042 C   0  0  0  0  0  0  0  0  0  0  0  0
    8.8772  -11.8069   27.0963 C   0  0  0  0  0  0  0  0  0  0  0  0
    8.9319  -13.1621   26.7781 C   0  0  0  0  0  0  0  0  0  0  0  0
    7.8355  -13.8637   26.3718 C   0  0  0  0  0  0  0  0  0  0  0  0
   10.5200  -17.2704   24.7495 O   0  0  0  0  0  0  0  0  0  0  0  0
   10.5668  -18.0970   23.6347 O   0  0  0  0  0  0  0  0  0  0  0  0
  1  2  1  0
  2  3  2  0
  4  2  1  0
  4  5  1  0
  5  6  1  0
  6  7  1  0
  7  8  1  0
  8 10  1  0
  8  9  1  6
 10 11  2  0
 10 16  1  0
 13 12  1  1
 13 15  1  0
 14 13  1  0
 15 17  1  0
 15 16  1  1
 17 18  2  0
 17 19  1  0
 19 20  1  0
 20 21  1  1
 21 22  1  0
 22 30  1  0
 22 23  2  0
 23 24  1  0
 24 25  1  0
 25 26  2  0
 27 26  1  0
 28 27  2  0
 29 30  2  0
 29 28  1  0
 30 25  1  0
 31 20  1  0
 31 32  1  0
 33 31  2  0
M  END
$$$$
