RVW.pdb
     RDKit          3D

 33 34  0  0  1  0  0  0  0  0999 V2000
    8.5095  -18.1876   13.9719 N   0  0  0  0  0  0  0  0  0  0  0  0
    7.4584  -19.1476   14.1342 C   0  0  0  0  0  0  0  0  0  0  0  0
    7.3240  -20.0391   13.2080 N   0  0  0  0  0  0  0  0  0  0  0  0
    6.6001  -19.1209   15.2649 N   0  0  0  0  0  0  0  0  0  0  0  0
    7.1092  -18.6576   16.5171 C   0  0  0  0  0  0  0  0  0  0  0  0
    8.2643  -19.5171   17.0397 C   0  0  0  0  0  0  0  0  0  0  0  0
    8.7324  -18.8713   18.3162 C   0  0  0  0  0  0  0  0  0  0  0  0
    9.5939  -17.6756   18.1290 C   0  0  2  0  0  0  0  0  0  0  0  0
   10.9679  -17.9273   17.8646 N   0  0  0  0  0  0  0  0  0  0  0  0
    9.4794  -16.8507   19.3791 C   0  0  0  0  0  0  0  0  0  0  0  0
   10.4559  -16.7337   20.1722 O   0  0  0  0  0  0  0  0  0  0  0  0
    6.5911  -20.7645   13.1828 C   0  0  0  0  0  0  0  0  0  0  0  0
    6.9233  -13.6642   22.2719 C   0  0  1  0  0  0  0  0  0  0  0  0
    6.9735  -14.5199   21.0392 C   0  0  0  0  0  0  0  0  0  0  0  0
    6.9949  -13.5505   19.8691 C   0  0  1  0  0  0  0  0  0  0  0  0
    8.1633  -15.3978   20.9482 N   0  0  0  0  0  0  0  0  0  0  0  0
    8.3113  -16.1597   19.7621 C   0  0  0  0  0  0  0  0  0  0  0  0
    8.2913  -16.2322   22.1858 O   0  0  0  0  0  0  0  0  0  0  0  0
    8.0364  -17.4633   22.1844 N   0  0  0  0  0  0  0  0  0  0  0  0
    8.7094  -15.6600   23.4202 C   0  0  2  0  0  0  0  0  0  0  0  0
    8.8298  -16.4589   24.6102 C   0  0  0  0  0  0  0  0  0  0  0  0
    8.9739  -15.6410   25.8549 C   0  0  0  0  0  0  0  0  0  0  0  0
    7.8470  -14.6893   26.0188 C   0  0  0  0  0  0  0  0  0  0  0  0
    6.4889  -14.9963   26.0816 N   0  0  0  0  0  0  0  0  0  0  0  0
    5.7965  -13.8548   26.2325 C   0  0  0  0  0  0  0  0  0  0  0  0
    6.6183  -12.7934   26.2747 C   0  0  0  0  0  0  0  0  0  0  0  0
    6.4254  -11.4306   26.4127 C   0  0  0  0  0  0  0  0  0  0  0  0
    7.4934  -10.5434   26.4227 C   0  0  0  0  0  0  0  0  0  0  0  0
    8.7626  -11.0577   26.2906 C   0  0  0  0  0  0  0  0  0  0  0  0
    8.9406  -12.4325   26.1526 C   0  0  0  0  0  0  0  0  0  0  0  0
    7.8959  -13.3088   26.1420 C   0  0  0  0  0  0  0  0  0  0  0  0
    7.6221  -17.3030   24.7352 O   0  0  0  0  0  0  0  0  0  0  0  0
    7.6133  -18.4858   25.4627 O   0  0  0  0  0  0  0  0  0  0  0  0
  1  2  1  0
  2  3  2  0
  4  2  1  0
  4  5  1  0
  5  6  1  0
  6  7  1  0
  7  8  1  0
  8 10  1  0
  8  9  1  1
 10 11  2  0
 10 16  1  0
 13 12  1  6
 13 15  1  0
 14 13  1  0
 15 17  1  0
 15 16  1  6
 17 18  2  0
 17 19  1  0
 19 20  1  0
 20 21  1  6
 21 22  1  0
 22 30  1  0
 22 23  2  0
 23 24  1  0
 24 25  1  0
 25 26  2  0
 27 26  1  0
 28 27  2  0
 29 30  2  0
 29 28  1  0
 30 25  1  0
 31 20  1  0
 31 32  1  0
 33 31  2  0
M  END
$$$$
