KCG.pdb
     RDKit          3D

 20 19  0  0  1  0  0  0  0  0999 V2000
   19.6237  -15.4994  -18.2886 N   0  0  0  0  0  0  0  0  0  0  0  0
   19.2948  -14.5836  -17.1956 C   0  0  1  0  0  0  0  0  0  0  0  0
   19.5972  -15.3192  -15.9135 C   0  0  0  0  0  0  0  0  0  0  0  0
   18.4822  -16.3068  -15.6442 C   0  0  0  0  0  0  0  0  0  0  0  0
   18.5828  -16.9369  -14.2781 C   0  0  0  0  0  0  0  0  0  0  0  0
   17.3996  -17.8380  -14.0353 C   0  0  0  0  0  0  0  0  0  0  0  0
   17.5176  -18.3927  -12.7110 N   0  0  0  0  0  0  0  0  0  0  0  0
   20.1116  -13.3604  -17.3437 C   0  0  0  0  0  0  0  0  0  0  0  0
   21.1427  -13.3507  -18.0672 O   0  0  0  0  0  0  0  0  0  0  0  0
   19.7699  -12.1645  -16.6844 N   0  0  0  0  0  0  0  0  0  0  0  0
   20.4561  -10.9351  -16.9349 C   0  0  1  0  0  0  0  0  0  0  0  0
   19.9311  -10.2024  -18.1514 C   0  0  0  0  0  0  0  0  0  0  0  0
   18.1409   -9.9363  -18.0305 S   0  0  0  0  0  0  0  0  0  0  0  0
   20.5203  -10.0494  -15.7569 C   0  0  0  0  0  0  0  0  0  0  0  0
   19.5532  -10.0150  -14.9672 O   0  0  0  0  0  0  0  0  0  0  0  0
   21.6495   -9.2541  -15.5214 N   0  0  0  0  0  0  0  0  0  0  0  0
   21.6918   -8.4869  -14.2993 C   0  0  0  0  0  0  0  0  0  0  0  0
   21.3198   -7.0673  -14.5197 C   0  0  0  0  0  0  0  0  0  0  0  0
   21.3497   -6.1050  -13.5348 O   0  0  0  0  0  0  0  0  0  0  0  0
   20.9585   -6.7388  -15.6777 O   0  0  0  0  0  0  0  0  0  0  0  0
  2  8  1  0
  2  1  1  6
  3  2  1  0
  4  3  1  0
  5  4  1  0
  6  5  1  0
  7  6  1  0
  8  9  2  0
 10  8  1  0
 11 10  1  0
 11 12  1  6
 13 12  1  0
 14 11  1  0
 15 14  2  0
 16 14  1  0
 17 16  1  0
 18 17  1  0
 19 18  1  0
 20 18  2  0
M  END
$$$$
