KCG.pdb
     RDKit          3D

 20 19  0  0  1  0  0  0  0  0999 V2000
   21.9480  -31.9798  -10.1242 N   0  0  0  0  0  0  0  0  0  0  0  0
   21.9135  -33.4015   -9.7786 C   0  0  1  0  0  0  0  0  0  0  0  0
   21.8114  -34.1572  -11.0805 C   0  0  0  0  0  0  0  0  0  0  0  0
   20.3796  -34.0966  -11.5677 C   0  0  0  0  0  0  0  0  0  0  0  0
   20.0910  -32.8510  -12.3669 C   0  0  0  0  0  0  0  0  0  0  0  0
   18.6645  -32.8664  -12.8523 C   0  0  0  0  0  0  0  0  0  0  0  0
   18.4293  -31.6601  -13.6038 N   0  0  0  0  0  0  0  0  0  0  0  0
   23.1462  -33.7357   -9.0341 C   0  0  0  0  0  0  0  0  0  0  0  0
   23.4191  -34.9271   -8.7298 O   0  0  0  0  0  0  0  0  0  0  0  0
   24.0584  -32.7392   -8.6385 N   0  0  0  0  0  0  0  0  0  0  0  0
   25.2859  -33.0520   -7.9750 C   0  0  1  0  0  0  0  0  0  0  0  0
   26.5009  -32.4945   -8.6858 C   0  0  0  0  0  0  0  0  0  0  0  0
   26.3683  -32.7220  -10.4805 S   0  0  0  0  0  0  0  0  0  0  0  0
   25.2861  -32.6943   -6.5438 C   0  0  0  0  0  0  0  0  0  0  0  0
   24.4492  -31.8683   -6.1223 O   0  0  0  0  0  0  0  0  0  0  0  0
   26.2111  -33.2704   -5.6631 N   0  0  0  0  0  0  0  0  0  0  0  0
   26.1495  -32.8860   -4.2730 C   0  0  0  0  0  0  0  0  0  0  0  0
   25.3541  -33.8434   -3.4651 C   0  0  0  0  0  0  0  0  0  0  0  0
   25.8629  -34.5590   -2.4039 O   0  0  0  0  0  0  0  0  0  0  0  0
   24.1474  -34.0001   -3.7792 O   0  0  0  0  0  0  0  0  0  0  0  0
  2  8  1  0
  2  1  1  6
  3  2  1  0
  4  3  1  0
  5  4  1  0
  6  5  1  0
  7  6  1  0
  8  9  2  0
 10  8  1  0
 11 10  1  0
 11 12  1  6
 13 12  1  0
 14 11  1  0
 15 14  2  0
 16 14  1  0
 17 16  1  0
 18 17  1  0
 19 18  1  0
 20 18  2  0
M  END
$$$$
