KCG.pdb
     RDKit          3D

 20 19  0  0  1  0  0  0  0  0999 V2000
   27.3964  -21.8171  -15.2530 N   0  0  0  0  0  0  0  0  0  0  0  0
   27.1924  -20.8000  -14.2209 C   0  0  1  0  0  0  0  0  0  0  0  0
   27.0079  -19.4876  -14.9421 C   0  0  0  0  0  0  0  0  0  0  0  0
   27.8194  -19.5157  -16.2194 C   0  0  0  0  0  0  0  0  0  0  0  0
   26.9785  -19.8153  -17.4346 C   0  0  0  0  0  0  0  0  0  0  0  0
   27.7871  -19.6041  -18.6885 C   0  0  0  0  0  0  0  0  0  0  0  0
   26.9740  -19.9734  -19.8188 N   0  0  0  0  0  0  0  0  0  0  0  0
   26.0045  -21.1702  -13.4225 C   0  0  0  0  0  0  0  0  0  0  0  0
   25.1263  -21.9458  -13.8849 O   0  0  0  0  0  0  0  0  0  0  0  0
   25.8103  -20.6723  -12.1202 N   0  0  0  0  0  0  0  0  0  0  0  0
   24.6460  -20.9864  -11.3517 C   0  0  1  0  0  0  0  0  0  0  0  0
   24.8145  -20.6921   -9.8762 C   0  0  0  0  0  0  0  0  0  0  0  0
   26.4345  -21.2499   -9.2805 S   0  0  0  0  0  0  0  0  0  0  0  0
   23.4109  -20.3815  -11.8854 C   0  0  0  0  0  0  0  0  0  0  0  0
   23.3280  -19.1378  -11.9677 O   0  0  0  0  0  0  0  0  0  0  0  0
   22.3405  -21.1867  -12.2966 N   0  0  0  0  0  0  0  0  0  0  0  0
   21.1648  -20.5316  -12.8187 C   0  0  0  0  0  0  0  0  0  0  0  0
   20.0920  -21.4995  -13.1572 C   0  0  0  0  0  0  0  0  0  0  0  0
   18.7858  -21.1404  -13.4058 O   0  0  0  0  0  0  0  0  0  0  0  0
   20.4088  -22.7142  -13.2168 O   0  0  0  0  0  0  0  0  0  0  0  0
  2  8  1  0
  2  1  1  6
  3  2  1  0
  4  3  1  0
  5  4  1  0
  6  5  1  0
  7  6  1  0
  8  9  2  0
 10  8  1  0
 11 10  1  0
 11 12  1  1
 13 12  1  0
 14 11  1  0
 15 14  2  0
 16 14  1  0
 17 16  1  0
 18 17  1  0
 19 18  1  0
 20 18  2  0
M  END
$$$$
