KCG.pdb
     RDKit          3D

 20 19  0  0  1  0  0  0  0  0999 V2000
   22.7298  -21.9405  -13.5683 N   0  0  0  0  0  0  0  0  0  0  0  0
   22.4659  -20.8292  -14.4831 C   0  0  1  0  0  0  0  0  0  0  0  0
   21.5912  -19.8548  -13.7336 C   0  0  0  0  0  0  0  0  0  0  0  0
   20.1500  -20.3011  -13.8552 C   0  0  0  0  0  0  0  0  0  0  0  0
   19.9057  -21.1458  -15.0801 C   0  0  0  0  0  0  0  0  0  0  0  0
   18.4529  -21.5387  -15.1565 C   0  0  0  0  0  0  0  0  0  0  0  0
   17.7619  -20.5623  -15.9594 N   0  0  0  0  0  0  0  0  0  0  0  0
   23.7572  -20.2290  -14.8804 C   0  0  0  0  0  0  0  0  0  0  0  0
   23.8014  -19.1356  -15.5042 O   0  0  0  0  0  0  0  0  0  0  0  0
   24.9818  -20.8540  -14.5781 N   0  0  0  0  0  0  0  0  0  0  0  0
   26.2374  -20.3031  -14.9842 C   0  0  1  0  0  0  0  0  0  0  0  0
   27.2673  -20.2982  -13.8745 C   0  0  0  0  0  0  0  0  0  0  0  0
   28.1000  -18.6905  -13.7643 S   0  0  0  0  0  0  0  0  0  0  0  0
   26.7737  -20.9125  -16.2160 C   0  0  0  0  0  0  0  0  0  0  0  0
   26.7140  -22.1520  -16.3584 O   0  0  0  0  0  0  0  0  0  0  0  0
   27.3441  -20.1160  -17.2176 N   0  0  0  0  0  0  0  0  0  0  0  0
   27.5428  -20.7077  -18.5193 C   0  0  0  0  0  0  0  0  0  0  0  0
   28.9700  -20.6937  -18.9255 C   0  0  0  0  0  0  0  0  0  0  0  0
   29.6750  -21.8197  -19.2888 O   0  0  0  0  0  0  0  0  0  0  0  0
   29.5565  -19.5822  -18.9338 O   0  0  0  0  0  0  0  0  0  0  0  0
  2  8  1  0
  2  1  1  1
  3  2  1  0
  4  3  1  0
  5  4  1  0
  6  5  1  0
  7  6  1  0
  8  9  2  0
 10  8  1  0
 11 10  1  0
 11 12  1  1
 13 12  1  0
 14 11  1  0
 15 14  2  0
 16 14  1  0
 17 16  1  0
 18 17  1  0
 19 18  1  0
 20 18  2  0
M  END
$$$$
