KCG.pdb
     RDKit          3D

 20 19  0  0  1  0  0  0  0  0999 V2000
   20.6297  -17.6908  -17.0965 N   0  0  0  0  0  0  0  0  0  0  0  0
   21.9555  -18.1997  -16.7428 C   0  0  1  0  0  0  0  0  0  0  0  0
   22.9447  -17.1308  -17.1368 C   0  0  0  0  0  0  0  0  0  0  0  0
   23.0899  -17.1332  -18.6434 C   0  0  0  0  0  0  0  0  0  0  0  0
   24.5154  -16.9266  -19.0892 C   0  0  0  0  0  0  0  0  0  0  0  0
   24.5936  -16.9354  -20.5941 C   0  0  0  0  0  0  0  0  0  0  0  0
   25.9745  -16.7866  -20.9762 N   0  0  0  0  0  0  0  0  0  0  0  0
   21.9819  -18.4773  -15.2910 C   0  0  0  0  0  0  0  0  0  0  0  0
   21.3774  -17.7316  -14.4754 O   0  0  0  0  0  0  0  0  0  0  0  0
   22.6808  -19.5810  -14.7666 N   0  0  0  0  0  0  0  0  0  0  0  0
   22.7940  -19.8109  -13.3598 C   0  0  1  0  0  0  0  0  0  0  0  0
   21.7663  -20.7919  -12.8366 C   0  0  0  0  0  0  0  0  0  0  0  0
   21.8301  -20.9006  -11.0271 S   0  0  0  0  0  0  0  0  0  0  0  0
   24.1577  -20.1789  -12.9340 C   0  0  0  0  0  0  0  0  0  0  0  0
   24.7658  -21.0797  -13.5498 O   0  0  0  0  0  0  0  0  0  0  0  0
   24.7686  -19.5297  -11.8531 N   0  0  0  0  0  0  0  0  0  0  0  0
   26.1474  -19.8474  -11.5667 C   0  0  0  0  0  0  0  0  0  0  0  0
   26.2856  -21.1508  -10.8707 C   0  0  0  0  0  0  0  0  0  0  0  0
   27.4905  -21.6769  -10.4603 O   0  0  0  0  0  0  0  0  0  0  0  0
   25.2332  -21.8012  -10.6498 O   0  0  0  0  0  0  0  0  0  0  0  0
  2  8  1  0
  2  1  1  1
  3  2  1  0
  4  3  1  0
  5  4  1  0
  6  5  1  0
  7  6  1  0
  8  9  2  0
 10  8  1  0
 11 10  1  0
 11 12  1  6
 13 12  1  0
 14 11  1  0
 15 14  2  0
 16 14  1  0
 17 16  1  0
 18 17  1  0
 19 18  1  0
 20 18  2  0
M  END
$$$$
