KCG.pdb
     RDKit          3D

 20 19  0  0  1  0  0  0  0  0999 V2000
   20.9871  -11.6845  -16.5313 N   0  0  0  0  0  0  0  0  0  0  0  0
   20.4148  -10.9638  -17.6692 C   0  0  1  0  0  0  0  0  0  0  0  0
   19.3435  -11.8553  -18.2471 C   0  0  0  0  0  0  0  0  0  0  0  0
   20.0071  -12.9912  -18.9958 C   0  0  0  0  0  0  0  0  0  0  0  0
   19.8450  -14.3184  -18.2988 C   0  0  0  0  0  0  0  0  0  0  0  0
   20.5314  -15.4041  -19.0868 C   0  0  0  0  0  0  0  0  0  0  0  0
   20.4626  -16.6264  -18.3277 N   0  0  0  0  0  0  0  0  0  0  0  0
   19.8700   -9.6771  -17.1864 C   0  0  0  0  0  0  0  0  0  0  0  0
   18.9019   -9.1211  -17.7697 O   0  0  0  0  0  0  0  0  0  0  0  0
   20.4100   -9.0267  -16.0608 N   0  0  0  0  0  0  0  0  0  0  0  0
   19.8526   -7.8166  -15.5414 C   0  0  1  0  0  0  0  0  0  0  0  0
   19.8077   -7.7882  -14.0283 C   0  0  0  0  0  0  0  0  0  0  0  0
   18.8594   -9.1907  -13.3772 S   0  0  0  0  0  0  0  0  0  0  0  0
   20.4839   -6.5996  -16.0860 C   0  0  0  0  0  0  0  0  0  0  0  0
   21.7289   -6.5457  -16.1722 O   0  0  0  0  0  0  0  0  0  0  0  0
   19.7022   -5.5143  -16.5030 N   0  0  0  0  0  0  0  0  0  0  0  0
   20.3644   -4.4283  -17.1858 C   0  0  0  0  0  0  0  0  0  0  0  0
   20.8798   -3.4075  -16.2400 C   0  0  0  0  0  0  0  0  0  0  0  0
   21.5056   -2.2451  -16.6324 O   0  0  0  0  0  0  0  0  0  0  0  0
   20.7294   -3.6305  -15.0124 O   0  0  0  0  0  0  0  0  0  0  0  0
  2  8  1  0
  2  1  1  1
  3  2  1  0
  4  3  1  0
  5  4  1  0
  6  5  1  0
  7  6  1  0
  8  9  2  0
 10  8  1  0
 11 10  1  0
 11 12  1  1
 13 12  1  0
 14 11  1  0
 15 14  2  0
 16 14  1  0
 17 16  1  0
 18 17  1  0
 19 18  1  0
 20 18  2  0
M  END
$$$$
