KCG.pdb
     RDKit          3D

 20 19  0  0  1  0  0  0  0  0999 V2000
   22.6031  -11.7670  -18.0452 N   0  0  0  0  0  0  0  0  0  0  0  0
   21.5380  -10.7660  -18.1169 C   0  0  1  0  0  0  0  0  0  0  0  0
   20.4320  -11.2505  -17.2123 C   0  0  0  0  0  0  0  0  0  0  0  0
   19.8523  -12.5235  -17.7907 C   0  0  0  0  0  0  0  0  0  0  0  0
   18.6489  -13.0130  -17.0254 C   0  0  0  0  0  0  0  0  0  0  0  0
   18.0574  -14.2195  -17.7075 C   0  0  0  0  0  0  0  0  0  0  0  0
   16.9830  -14.7205  -16.8890 N   0  0  0  0  0  0  0  0  0  0  0  0
   22.0853   -9.4635  -17.6817 C   0  0  0  0  0  0  0  0  0  0  0  0
   23.0714   -9.4009  -16.9006 O   0  0  0  0  0  0  0  0  0  0  0  0
   21.5274   -8.2482  -18.1218 N   0  0  0  0  0  0  0  0  0  0  0  0
   22.1631   -6.9895  -17.8843 C   0  0  1  0  0  0  0  0  0  0  0  0
   21.9995   -6.0184  -19.0343 C   0  0  0  0  0  0  0  0  0  0  0  0
   22.6379   -6.7229  -20.5791 S   0  0  0  0  0  0  0  0  0  0  0  0
   21.7819   -6.3738  -16.5991 C   0  0  0  0  0  0  0  0  0  0  0  0
   20.5871   -6.0682  -16.4007 O   0  0  0  0  0  0  0  0  0  0  0  0
   22.7436   -6.1322  -15.6092 N   0  0  0  0  0  0  0  0  0  0  0  0
   22.2820   -5.7065  -14.3093 C   0  0  0  0  0  0  0  0  0  0  0  0
   22.1117   -6.8486  -13.3772 C   0  0  0  0  0  0  0  0  0  0  0  0
   21.9121   -6.7089  -12.0217 O   0  0  0  0  0  0  0  0  0  0  0  0
   22.1544   -8.0048  -13.8679 O   0  0  0  0  0  0  0  0  0  0  0  0
  2  8  1  0
  2  1  1  1
  3  2  1  0
  4  3  1  0
  5  4  1  0
  6  5  1  0
  7  6  1  0
  8  9  2  0
 10  8  1  0
 11 10  1  0
 11 12  1  6
 13 12  1  0
 14 11  1  0
 15 14  2  0
 16 14  1  0
 17 16  1  0
 18 17  1  0
 19 18  1  0
 20 18  2  0
M  END
$$$$
