KCG.pdb
     RDKit          3D

 20 19  0  0  1  0  0  0  0  0999 V2000
   22.0417  -11.9534  -16.9639 N   0  0  0  0  0  0  0  0  0  0  0  0
   21.8199  -10.9521  -18.0078 C   0  0  1  0  0  0  0  0  0  0  0  0
   20.9496  -11.6065  -19.0522 C   0  0  0  0  0  0  0  0  0  0  0  0
   21.7756  -12.6283  -19.8037 C   0  0  0  0  0  0  0  0  0  0  0  0
   21.6203  -14.0215  -19.2485 C   0  0  0  0  0  0  0  0  0  0  0  0
   22.3276  -15.0138  -20.1350 C   0  0  0  0  0  0  0  0  0  0  0  0
   22.2210  -16.3170  -19.5304 N   0  0  0  0  0  0  0  0  0  0  0  0
   21.1701   -9.7722  -17.3988 C   0  0  0  0  0  0  0  0  0  0  0  0
   20.7357   -8.8289  -18.1116 O   0  0  0  0  0  0  0  0  0  0  0  0
   21.0124   -9.6582  -16.0046 N   0  0  0  0  0  0  0  0  0  0  0  0
   20.2749   -8.5884  -15.4076 C   0  0  1  0  0  0  0  0  0  0  0  0
   19.2716   -9.0642  -14.3784 C   0  0  0  0  0  0  0  0  0  0  0  0
   18.1391  -10.2899  -15.0894 S   0  0  0  0  0  0  0  0  0  0  0  0
   21.1317   -7.5144  -14.8702 C   0  0  0  0  0  0  0  0  0  0  0  0
   21.9181   -7.7731  -13.9348 O   0  0  0  0  0  0  0  0  0  0  0  0
   21.0688   -6.2182  -15.3983 N   0  0  0  0  0  0  0  0  0  0  0  0
   22.0698   -5.2678  -14.9756 C   0  0  0  0  0  0  0  0  0  0  0  0
   21.5664   -4.3651  -13.9107 C   0  0  0  0  0  0  0  0  0  0  0  0
   20.3263   -4.4881  -13.3241 O   0  0  0  0  0  0  0  0  0  0  0  0
   22.3270   -3.4390  -13.5323 O   0  0  0  0  0  0  0  0  0  0  0  0
  2  8  1  0
  2  1  1  1
  3  2  1  0
  4  3  1  0
  5  4  1  0
  6  5  1  0
  7  6  1  0
  8  9  2  0
 10  8  1  0
 11 10  1  0
 11 12  1  1
 13 12  1  0
 14 11  1  0
 15 14  2  0
 16 14  1  0
 17 16  1  0
 18 17  1  0
 19 18  1  0
 20 18  2  0
M  END
$$$$
