KCG.pdb
     RDKit          3D

 20 19  0  0  1  0  0  0  0  0999 V2000
   20.7964  -32.9052   -9.3396 N   0  0  0  0  0  0  0  0  0  0  0  0
   21.9167  -33.7293   -8.8840 C   0  0  1  0  0  0  0  0  0  0  0  0
   23.1376  -33.2407   -9.6237 C   0  0  0  0  0  0  0  0  0  0  0  0
   22.9983  -33.6038  -11.0865 C   0  0  0  0  0  0  0  0  0  0  0  0
   24.2259  -33.2561  -11.8900 C   0  0  0  0  0  0  0  0  0  0  0  0
   25.3894  -34.1080  -11.4525 C   0  0  0  0  0  0  0  0  0  0  0  0
   26.4829  -33.8821  -12.3626 N   0  0  0  0  0  0  0  0  0  0  0  0
   22.0513  -33.5739   -7.4200 C   0  0  0  0  0  0  0  0  0  0  0  0
   21.6497  -32.5321   -6.8371 O   0  0  0  0  0  0  0  0  0  0  0  0
   22.6311  -34.5804   -6.6247 N   0  0  0  0  0  0  0  0  0  0  0  0
   22.7785  -34.4405   -5.2092 C   0  0  1  0  0  0  0  0  0  0  0  0
   21.8321  -35.3256   -4.4261 C   0  0  0  0  0  0  0  0  0  0  0  0
   21.0595  -34.4103   -3.0639 S   0  0  0  0  0  0  0  0  0  0  0  0
   24.1707  -34.5961   -4.7468 C   0  0  0  0  0  0  0  0  0  0  0  0
   24.9335  -35.3714   -5.3612 O   0  0  0  0  0  0  0  0  0  0  0  0
   24.6375  -33.8859   -3.6330 N   0  0  0  0  0  0  0  0  0  0  0  0
   26.0369  -34.0005   -3.2973 C   0  0  0  0  0  0  0  0  0  0  0  0
   26.4155  -33.1065   -2.1750 C   0  0  0  0  0  0  0  0  0  0  0  0
   27.6863  -33.0318   -1.6493 O   0  0  0  0  0  0  0  0  0  0  0  0
   25.5133  -32.3812   -1.6857 O   0  0  0  0  0  0  0  0  0  0  0  0
  2  8  1  0
  2  1  1  6
  3  2  1  0
  4  3  1  0
  5  4  1  0
  6  5  1  0
  7  6  1  0
  8  9  2  0
 10  8  1  0
 11 10  1  0
 11 12  1  1
 13 12  1  0
 14 11  1  0
 15 14  2  0
 16 14  1  0
 17 16  1  0
 18 17  1  0
 19 18  1  0
 20 18  2  0
M  END
$$$$
