KCG.pdb
     RDKit          3D

 20 19  0  0  1  0  0  0  0  0999 V2000
   23.1438  -12.1788  -18.5607 N   0  0  0  0  0  0  0  0  0  0  0  0
   22.1621  -11.8326  -17.5321 C   0  0  1  0  0  0  0  0  0  0  0  0
   21.8152  -13.1170  -16.8204 C   0  0  0  0  0  0  0  0  0  0  0  0
   20.8122  -13.8817  -17.6572 C   0  0  0  0  0  0  0  0  0  0  0  0
   19.4269  -13.2904  -17.5867 C   0  0  0  0  0  0  0  0  0  0  0  0
   18.4909  -14.0561  -18.4856 C   0  0  0  0  0  0  0  0  0  0  0  0
   17.1710  -13.4959  -18.3468 N   0  0  0  0  0  0  0  0  0  0  0  0
   22.7644  -10.8351  -16.6223 C   0  0  0  0  0  0  0  0  0  0  0  0
   22.1934  -10.5057  -15.5490 O   0  0  0  0  0  0  0  0  0  0  0  0
   23.9942  -10.2178  -16.9195 N   0  0  0  0  0  0  0  0  0  0  0  0
   24.5946   -9.2589  -16.0450 C   0  0  1  0  0  0  0  0  0  0  0  0
   26.1023   -9.2054  -16.1724 C   0  0  0  0  0  0  0  0  0  0  0  0
   26.8385  -10.8406  -15.8998 S   0  0  0  0  0  0  0  0  0  0  0  0
   23.9958   -7.9147  -16.1497 C   0  0  0  0  0  0  0  0  0  0  0  0
   24.1376   -7.2654  -17.2073 O   0  0  0  0  0  0  0  0  0  0  0  0
   23.2757   -7.3678  -15.0794 N   0  0  0  0  0  0  0  0  0  0  0  0
   22.6553   -6.0786  -15.2720 C   0  0  0  0  0  0  0  0  0  0  0  0
   21.8631   -5.6595  -14.0893 C   0  0  0  0  0  0  0  0  0  0  0  0
   21.6366   -6.4633  -12.9940 O   0  0  0  0  0  0  0  0  0  0  0  0
   21.3767   -4.5007  -14.1020 O   0  0  0  0  0  0  0  0  0  0  0  0
  2  8  1  0
  2  1  1  6
  3  2  1  0
  4  3  1  0
  5  4  1  0
  6  5  1  0
  7  6  1  0
  8  9  2  0
 10  8  1  0
 11 10  1  0
 11 12  1  6
 13 12  1  0
 14 11  1  0
 15 14  2  0
 16 14  1  0
 17 16  1  0
 18 17  1  0
 19 18  1  0
 20 18  2  0
M  END
$$$$
