TVC.pdb
     RDKit          3D

 21 20  0  0  1  0  0  0  0  0999 V2000
   23.8726  -11.3299  -14.8994 C   0  0  0  0  0  0  0  0  0  0  0  0
   23.6106  -12.2099  -16.0792 C   0  0  1  0  0  0  0  0  0  0  0  0
   24.2481  -13.4278  -15.8553 O   0  0  0  0  0  0  0  0  0  0  0  0
   22.1204  -12.4008  -16.2543 C   0  0  2  0  0  0  0  0  0  0  0  0
   21.8535  -13.3831  -17.2800 N   0  0  0  0  0  0  0  0  0  0  0  0
   21.4295  -11.1327  -16.5761 C   0  0  0  0  0  0  0  0  0  0  0  0
   21.5884  -10.5590  -17.6777 O   0  0  0  0  0  0  0  0  0  0  0  0
   17.8373  -10.3618  -17.0401 C   0  0  0  0  0  0  0  0  0  0  0  0
   18.3339   -9.5423  -15.8830 C   0  0  2  0  0  0  0  0  0  0  0  0
   17.5530   -8.2453  -15.8744 C   0  0  0  0  0  0  0  0  0  0  0  0
   19.8189   -9.2952  -15.9292 C   0  0  2  0  0  0  0  0  0  0  0  0
   20.5470  -10.5078  -15.6354 N   0  0  0  0  0  0  0  0  0  0  0  0
   20.2543   -8.2224  -15.0159 C   0  0  0  0  0  0  0  0  0  0  0  0
   20.2255   -8.4371  -13.7843 O   0  0  0  0  0  0  0  0  0  0  0  0
   20.6964   -6.9749  -15.5122 N   0  0  0  0  0  0  0  0  0  0  0  0
   21.0793   -5.9413  -14.6013 C   0  0  1  0  0  0  0  0  0  0  0  0
   22.4140   -5.3196  -14.9481 C   0  0  0  0  0  0  0  0  0  0  0  0
   22.7829   -4.1029  -13.6271 S   0  0  0  0  0  0  0  0  0  0  0  0
   20.0677   -4.8582  -14.7000 C   0  0  0  0  0  0  0  0  0  0  0  0
   19.5698   -4.2039  -13.5969 O   0  0  0  0  0  0  0  0  0  0  0  0
   19.6614   -4.5392  -15.8435 O   0  0  0  0  0  0  0  0  0  0  0  0
  2  4  1  0
  2  1  1  1
  3  2  1  0
  4  5  1  6
  6  4  1  0
  7  6  2  0
  9  8  1  6
  9 11  1  0
 10  9  1  0
 11 13  1  0
 11 12  1  1
 12  6  1  0
 13 15  1  0
 14 13  2  0
 15 16  1  0
 16 17  1  6
 16 19  1  0
 17 18  1  0
 19 21  2  0
 19 20  1  0
M  END
$$$$
