TVC.pdb
     RDKit          3D

 21 20  0  0  1  0  0  0  0  0999 V2000
   26.6066  -14.1746  -15.0718 C   0  0  0  0  0  0  0  0  0  0  0  0
   26.5533  -15.1303  -16.2201 C   0  0  1  0  0  0  0  0  0  0  0  0
   27.0596  -16.3524  -15.7844 O   0  0  0  0  0  0  0  0  0  0  0  0
   25.1263  -15.2735  -16.7008 C   0  0  2  0  0  0  0  0  0  0  0  0
   25.0230  -16.3432  -17.6668 N   0  0  0  0  0  0  0  0  0  0  0  0
   24.6040  -14.0164  -17.2802 C   0  0  0  0  0  0  0  0  0  0  0  0
   24.9229  -13.6411  -18.4315 O   0  0  0  0  0  0  0  0  0  0  0  0
   20.8808  -12.6071  -16.1465 C   0  0  0  0  0  0  0  0  0  0  0  0
   21.6482  -12.1916  -17.3693 C   0  0  2  0  0  0  0  0  0  0  0  0
   21.4205  -13.2466  -18.4309 C   0  0  0  0  0  0  0  0  0  0  0  0
   23.1155  -11.9813  -17.1019 C   0  0  2  0  0  0  0  0  0  0  0  0
   23.7082  -13.1745  -16.5434 N   0  0  0  0  0  0  0  0  0  0  0  0
   23.3820  -10.8339  -16.2148 C   0  0  0  0  0  0  0  0  0  0  0  0
   23.1866  -10.9692  -14.9871 O   0  0  0  0  0  0  0  0  0  0  0  0
   23.8483   -9.6036  -16.7315 N   0  0  0  0  0  0  0  0  0  0  0  0
   24.0840   -8.5039  -15.8485 C   0  0  1  0  0  0  0  0  0  0  0  0
   25.0193   -7.4706  -16.4364 C   0  0  0  0  0  0  0  0  0  0  0  0
   26.6094   -8.3261  -16.7552 S   0  0  0  0  0  0  0  0  0  0  0  0
   22.7840   -7.8213  -15.6241 C   0  0  0  0  0  0  0  0  0  0  0  0
   21.6585   -8.1055  -16.3626 O   0  0  0  0  0  0  0  0  0  0  0  0
   22.7273   -6.9529  -14.7203 O   0  0  0  0  0  0  0  0  0  0  0  0
  2  4  1  0
  2  1  1  1
  3  2  1  0
  4  5  1  6
  6  4  1  0
  7  6  2  0
  9  8  1  1
  9 11  1  0
 10  9  1  0
 11 13  1  0
 11 12  1  1
 12  6  1  0
 13 15  1  0
 14 13  2  0
 15 16  1  0
 16 17  1  6
 16 19  1  0
 17 18  1  0
 19 21  2  0
 19 20  1  0
M  END
$$$$
