TVC.pdb
     RDKit          3D

 21 20  0  0  1  0  0  0  0  0999 V2000
   25.3941  -12.1908  -17.7323 C   0  0  0  0  0  0  0  0  0  0  0  0
   24.1519  -12.7664  -17.1317 C   0  0  1  0  0  0  0  0  0  0  0  0
   24.4444  -14.0566  -16.6966 O   0  0  0  0  0  0  0  0  0  0  0  0
   23.6888  -11.8975  -15.9835 C   0  0  2  0  0  0  0  0  0  0  0  0
   22.7877  -12.6320  -15.1251 N   0  0  0  0  0  0  0  0  0  0  0  0
   23.0397  -10.6532  -16.4519 C   0  0  0  0  0  0  0  0  0  0  0  0
   23.5922   -9.8964  -17.2825 O   0  0  0  0  0  0  0  0  0  0  0  0
   18.8710   -9.9660  -15.6237 C   0  0  0  0  0  0  0  0  0  0  0  0
   19.6392   -9.3550  -16.7610 C   0  0  2  0  0  0  0  0  0  0  0  0
   19.5314  -10.2963  -17.9418 C   0  0  0  0  0  0  0  0  0  0  0  0
   21.0753   -9.0631  -16.4136 C   0  0  2  0  0  0  0  0  0  0  0  0
   21.7471  -10.2630  -15.9712 N   0  0  0  0  0  0  0  0  0  0  0  0
   21.2194   -8.0095  -15.3920 C   0  0  0  0  0  0  0  0  0  0  0  0
   21.3255   -8.3493  -14.1932 O   0  0  0  0  0  0  0  0  0  0  0  0
   21.2384   -6.6422  -15.7499 N   0  0  0  0  0  0  0  0  0  0  0  0
   21.4242   -5.6447  -14.7424 C   0  0  1  0  0  0  0  0  0  0  0  0
   22.6429   -4.7831  -14.9887 C   0  0  0  0  0  0  0  0  0  0  0  0
   22.6818   -3.5363  -13.6450 S   0  0  0  0  0  0  0  0  0  0  0  0
   20.2480   -4.7388  -14.7848 C   0  0  0  0  0  0  0  0  0  0  0  0
   19.7778   -4.0792  -13.6727 O   0  0  0  0  0  0  0  0  0  0  0  0
   19.6712   -4.5796  -15.8877 O   0  0  0  0  0  0  0  0  0  0  0  0
  2  4  1  0
  2  1  1  1
  3  2  1  0
  4  5  1  6
  6  4  1  0
  7  6  2  0
  9  8  1  1
  9 11  1  0
 10  9  1  0
 11 13  1  0
 11 12  1  1
 12  6  1  0
 13 15  1  0
 14 13  2  0
 15 16  1  0
 16 17  1  6
 16 19  1  0
 17 18  1  0
 19 21  2  0
 19 20  1  0
M  END
$$$$
