TVC.pdb
     RDKit          3D

 21 20  0  0  1  0  0  0  0  0999 V2000
   19.1996  -12.8556  -19.5913 C   0  0  0  0  0  0  0  0  0  0  0  0
   19.1896  -11.6505  -18.7067 C   0  0  1  0  0  0  0  0  0  0  0  0
   17.9159  -11.0897  -18.7610 O   0  0  0  0  0  0  0  0  0  0  0  0
   19.5472  -12.0508  -17.2926 C   0  0  2  0  0  0  0  0  0  0  0  0
   18.6039  -13.0225  -16.7882 N   0  0  0  0  0  0  0  0  0  0  0  0
   19.6098  -10.8865  -16.3820 C   0  0  0  0  0  0  0  0  0  0  0  0
   18.6404  -10.5664  -15.6570 O   0  0  0  0  0  0  0  0  0  0  0  0
   23.4304   -9.1346  -15.5804 C   0  0  0  0  0  0  0  0  0  0  0  0
   22.2678   -9.1093  -14.6293 C   0  0  2  0  0  0  0  0  0  0  0  0
   22.3559  -10.3515  -13.7683 C   0  0  0  0  0  0  0  0  0  0  0  0
   20.9367   -9.0115  -15.3272 C   0  0  2  0  0  0  0  0  0  0  0  0
   20.7879  -10.0750  -16.2934 N   0  0  0  0  0  0  0  0  0  0  0  0
   20.7250   -7.7097  -15.9869 C   0  0  0  0  0  0  0  0  0  0  0  0
   21.3351   -7.4732  -17.0525 O   0  0  0  0  0  0  0  0  0  0  0  0
   19.8536   -6.7436  -15.4346 N   0  0  0  0  0  0  0  0  0  0  0  0
   19.6277   -5.5113  -16.1237 C   0  0  1  0  0  0  0  0  0  0  0  0
   18.2851   -4.8953  -15.7978 C   0  0  0  0  0  0  0  0  0  0  0  0
   17.0177   -6.1518  -16.2180 S   0  0  0  0  0  0  0  0  0  0  0  0
   20.6600   -4.5457  -15.6676 C   0  0  0  0  0  0  0  0  0  0  0  0
   21.5253   -4.8168  -14.6329 O   0  0  0  0  0  0  0  0  0  0  0  0
   20.7324   -3.4425  -16.2609 O   0  0  0  0  0  0  0  0  0  0  0  0
  2  4  1  0
  2  1  1  6
  3  2  1  0
  4  5  1  1
  6  4  1  0
  7  6  2  0
  9  8  1  6
  9 11  1  0
 10  9  1  0
 11 13  1  0
 11 12  1  6
 12  6  1  0
 13 15  1  0
 14 13  2  0
 15 16  1  0
 16 17  1  1
 16 19  1  0
 17 18  1  0
 19 21  2  0
 19 20  1  0
M  END
$$$$
