TVC.pdb
     RDKit          3D

 21 20  0  0  1  0  0  0  0  0999 V2000
   12.1228  -11.0709  -11.1590 C   0  0  0  0  0  0  0  0  0  0  0  0
   12.5287  -12.5089  -11.1108 C   0  0  1  0  0  0  0  0  0  0  0  0
   11.4034  -13.2814  -11.3881 O   0  0  0  0  0  0  0  0  0  0  0  0
   13.6257  -12.7650  -12.1201 C   0  0  2  0  0  0  0  0  0  0  0  0
   13.9833  -14.1651  -12.1341 N   0  0  0  0  0  0  0  0  0  0  0  0
   14.8256  -11.9389  -11.8617 C   0  0  0  0  0  0  0  0  0  0  0  0
   15.7248  -12.3142  -11.0753 O   0  0  0  0  0  0  0  0  0  0  0  0
   18.2075   -8.9965  -13.6033 C   0  0  0  0  0  0  0  0  0  0  0  0
   16.9739   -9.8516  -13.6670 C   0  0  2  0  0  0  0  0  0  0  0  0
   16.1162   -9.3310  -14.8006 C   0  0  0  0  0  0  0  0  0  0  0  0
   16.2134   -9.8878  -12.3675 C   0  0  2  0  0  0  0  0  0  0  0  0
   15.0070  -10.6706  -12.5042 N   0  0  0  0  0  0  0  0  0  0  0  0
   15.8777   -8.5455  -11.8575 C   0  0  0  0  0  0  0  0  0  0  0  0
   14.9040   -7.9417  -12.3585 O   0  0  0  0  0  0  0  0  0  0  0  0
   16.6340   -7.9459  -10.8249 N   0  0  0  0  0  0  0  0  0  0  0  0
   16.2469   -6.6705  -10.3069 C   0  0  1  0  0  0  0  0  0  0  0  0
   16.6759   -6.4667   -8.8708 C   0  0  0  0  0  0  0  0  0  0  0  0
   15.8144   -7.7473   -7.8811 S   0  0  0  0  0  0  0  0  0  0  0  0
   16.9404   -5.6305  -11.1092 C   0  0  0  0  0  0  0  0  0  0  0  0
   16.5797   -4.3033  -11.0759 O   0  0  0  0  0  0  0  0  0  0  0  0
   17.8919   -5.9942  -11.8418 O   0  0  0  0  0  0  0  0  0  0  0  0
  2  4  1  0
  2  1  1  6
  3  2  1  0
  4  5  1  1
  6  4  1  0
  7  6  2  0
  9  8  1  1
  9 11  1  0
 10  9  1  0
 11 13  1  0
 11 12  1  6
 12  6  1  0
 13 15  1  0
 14 13  2  0
 15 16  1  0
 16 17  1  1
 16 19  1  0
 17 18  1  0
 19 21  2  0
 19 20  1  0
M  END
$$$$
