TVC.pdb
     RDKit          3D

 21 20  0  0  1  0  0  0  0  0999 V2000
   44.2370  -10.0317   -3.8204 C   0  0  0  0  0  0  0  0  0  0  0  0
   43.4786   -9.5673   -5.0222 C   0  0  1  0  0  0  0  0  0  0  0  0
   43.9043   -8.2763   -5.3252 O   0  0  0  0  0  0  0  0  0  0  0  0
   43.7290  -10.5078   -6.1800 C   0  0  2  0  0  0  0  0  0  0  0  0
   45.1450  -10.6140   -6.4482 N   0  0  0  0  0  0  0  0  0  0  0  0
   43.0122  -10.0885   -7.4045 C   0  0  0  0  0  0  0  0  0  0  0  0
   43.6242   -9.6676   -8.4126 O   0  0  0  0  0  0  0  0  0  0  0  0
   40.6122  -11.9337   -9.7067 C   0  0  0  0  0  0  0  0  0  0  0  0
   39.9009  -10.7416   -9.1322 C   0  0  2  0  0  0  0  0  0  0  0  0
   38.9706  -10.2073  -10.2005 C   0  0  0  0  0  0  0  0  0  0  0  0
   40.8420   -9.6769   -8.6332 C   0  0  2  0  0  0  0  0  0  0  0  0
   41.5825  -10.1478   -7.4857 N   0  0  0  0  0  0  0  0  0  0  0  0
   40.1590   -8.4138   -8.2977 C   0  0  0  0  0  0  0  0  0  0  0  0
   39.3704   -8.3998   -7.3272 O   0  0  0  0  0  0  0  0  0  0  0  0
   40.3840   -7.2390   -9.0506 N   0  0  0  0  0  0  0  0  0  0  0  0
   39.6829   -6.0369   -8.7217 C   0  0  1  0  0  0  0  0  0  0  0  0
   40.6047   -4.8505   -8.5455 C   0  0  0  0  0  0  0  0  0  0  0  0
   41.6227   -5.1956   -7.0602 S   0  0  0  0  0  0  0  0  0  0  0  0
   38.7869   -5.7132   -9.8612 C   0  0  0  0  0  0  0  0  0  0  0  0
   37.8242   -4.7327   -9.7940 O   0  0  0  0  0  0  0  0  0  0  0  0
   38.9271   -6.3702  -10.9209 O   0  0  0  0  0  0  0  0  0  0  0  0
  2  4  1  0
  2  1  1  1
  3  2  1  0
  4  5  1  6
  6  4  1  0
  7  6  2  0
  9  8  1  6
  9 11  1  0
 10  9  1  0
 11 13  1  0
 11 12  1  1
 12  6  1  0
 13 15  1  0
 14 13  2  0
 15 16  1  0
 16 17  1  6
 16 19  1  0
 17 18  1  0
 19 21  2  0
 19 20  1  0
M  END
$$$$
