HLK.pdb
     RDKit          3D

 28 28  0  0  1  0  0  0  0  0999 V2000
   17.2211  -10.6961  -14.9445 N   0  0  0  0  0  0  0  0  0  0  0  0
   17.0122   -9.2671  -14.8621 C   0  0  1  0  0  0  0  0  0  0  0  0
   15.5906   -8.9887  -15.2672 C   0  0  0  0  0  0  0  0  0  0  0  0
   15.4942   -9.2160  -16.7338 C   0  0  0  0  0  0  0  0  0  0  0  0
   15.7962   -8.3335  -17.7496 C   0  0  0  0  0  0  0  0  0  0  0  0
   15.5743   -8.9232  -18.9387 N   0  0  0  0  0  0  0  0  0  0  0  0
   15.1325  -10.1769  -18.6893 C   0  0  0  0  0  0  0  0  0  0  0  0
   15.0860  -10.3486  -17.3562 N   0  0  0  0  0  0  0  0  0  0  0  0
   17.3120   -8.7862  -13.4866 C   0  0  0  0  0  0  0  0  0  0  0  0
   16.8444   -9.4008  -12.4652 O   0  0  0  0  0  0  0  0  0  0  0  0
   22.3523   -7.2392  -12.3207 C   0  0  0  0  0  0  0  0  0  0  0  0
   20.9601   -7.7043  -12.0309 C   0  0  1  0  0  0  0  0  0  0  0  0
   20.9185   -8.5385  -10.7450 C   0  0  0  0  0  0  0  0  0  0  0  0
   19.8686   -6.7299  -12.1050 C   0  0  0  0  0  0  0  0  0  0  0  0
   18.4550   -7.0922  -11.9790 C   0  0  2  0  0  0  0  0  0  0  0  0
   18.1136   -7.6509  -13.3186 N   0  0  0  0  0  0  0  0  0  0  0  0
   17.4481   -6.0877  -11.6849 C   0  0  0  0  0  0  0  0  0  0  0  0
   16.9952   -5.3292  -12.5600 O   0  0  0  0  0  0  0  0  0  0  0  0
   16.9151   -5.9035  -10.3733 N   0  0  0  0  0  0  0  0  0  0  0  0
   15.8969   -4.9462  -10.1152 C   0  0  1  0  0  0  0  0  0  0  0  0
   15.1042   -5.1911   -8.8513 C   0  0  0  0  0  0  0  0  0  0  0  0
   14.0506   -4.1344   -8.6413 C   0  0  0  0  0  0  0  0  0  0  0  0
   13.2131   -4.3809   -7.4126 C   0  0  0  0  0  0  0  0  0  0  0  0
   13.9166   -3.8119   -6.2011 C   0  0  0  0  0  0  0  0  0  0  0  0
   13.1332   -4.0075   -5.0016 N   0  0  0  0  0  0  0  0  0  0  0  0
   16.4203   -3.5488  -10.1216 C   0  0  0  0  0  0  0  0  0  0  0  0
   17.5591   -3.3106   -9.7050 O   0  0  0  0  0  0  0  0  0  0  0  0
   15.6212   -2.4938  -10.6015 O   0  0  0  0  0  0  0  0  0  0  0  0
  2  9  1  0
  2  1  1  1
  3  2  1  0
  4  3  1  0
  4  5  2  0
  6  5  1  0
  7  6  1  0
  8  7  2  0
  8  4  1  0
  9 10  2  0
 12 13  1  1
 12 11  1  0
 14 12  1  0
 15 14  1  6
 16 15  1  0
 16  9  1  0
 17 15  1  0
 18 17  2  0
 19 17  1  0
 20 21  1  1
 20 19  1  0
 22 23  1  0
 22 21  1  0
 23 24  1  0
 24 25  1  0
 26 20  1  0
 26 28  1  0
 27 26  2  0
M  END
$$$$
