HLK.pdb
     RDKit          3D

 28 28  0  0  1  0  0  0  0  0999 V2000
   15.7196  -20.2642    1.7710 N   0  0  0  0  0  0  0  0  0  0  0  0
   15.0659  -19.4886    2.8024 C   0  0  1  0  0  0  0  0  0  0  0  0
   14.1726  -20.4186    3.5767 C   0  0  0  0  0  0  0  0  0  0  0  0
   13.1221  -20.9051    2.6431 C   0  0  0  0  0  0  0  0  0  0  0  0
   12.8826  -22.2015    2.2383 C   0  0  0  0  0  0  0  0  0  0  0  0
   11.8406  -22.2218    1.3871 N   0  0  0  0  0  0  0  0  0  0  0  0
   11.4125  -20.9467    1.2453 C   0  0  0  0  0  0  0  0  0  0  0  0
   12.1899  -20.1556    2.0060 N   0  0  0  0  0  0  0  0  0  0  0  0
   16.0821  -18.8310    3.6673 C   0  0  0  0  0  0  0  0  0  0  0  0
   17.1426  -19.4572    4.0179 O   0  0  0  0  0  0  0  0  0  0  0  0
   17.4839  -13.8172    2.2775 C   0  0  0  0  0  0  0  0  0  0  0  0
   17.5923  -15.1762    2.8941 C   0  0  1  0  0  0  0  0  0  0  0  0
   19.0514  -15.6463    2.9291 C   0  0  0  0  0  0  0  0  0  0  0  0
   16.8892  -15.4293    4.1542 C   0  0  0  0  0  0  0  0  0  0  0  0
   16.8952  -16.7269    4.8336 C   0  0  2  0  0  0  0  0  0  0  0  0
   15.8672  -17.5158    4.0959 N   0  0  0  0  0  0  0  0  0  0  0  0
   16.5617  -16.8354    6.2431 C   0  0  0  0  0  0  0  0  0  0  0  0
   15.3854  -16.8406    6.6459 O   0  0  0  0  0  0  0  0  0  0  0  0
   17.5612  -16.9402    7.2572 N   0  0  0  0  0  0  0  0  0  0  0  0
   17.2161  -16.9900    8.6350 C   0  0  1  0  0  0  0  0  0  0  0  0
   18.0648  -17.9252    9.4662 C   0  0  0  0  0  0  0  0  0  0  0  0
   17.5984  -17.9760   10.8982 C   0  0  0  0  0  0  0  0  0  0  0  0
   18.4440  -18.8819   11.7559 C   0  0  0  0  0  0  0  0  0  0  0  0
   17.9420  -18.8387   13.1817 C   0  0  0  0  0  0  0  0  0  0  0  0
   18.6981  -19.7331   14.0297 N   0  0  0  0  0  0  0  0  0  0  0  0
   17.1934  -15.6358    9.2613 C   0  0  0  0  0  0  0  0  0  0  0  0
   17.8870  -14.7251    8.7960 O   0  0  0  0  0  0  0  0  0  0  0  0
   16.3827  -15.3870   10.3850 O   0  0  0  0  0  0  0  0  0  0  0  0
  2  9  1  0
  2  1  1  6
  3  2  1  0
  4  3  1  0
  4  5  2  0
  6  5  1  0
  7  6  1  0
  8  7  2  0
  8  4  1  0
  9 10  2  0
 12 13  1  1
 12 11  1  0
 14 12  1  0
 15 14  1  6
 16 15  1  0
 16  9  1  0
 17 15  1  0
 18 17  2  0
 19 17  1  0
 20 21  1  1
 20 19  1  0
 22 23  1  0
 22 21  1  0
 23 24  1  0
 24 25  1  0
 26 20  1  0
 26 28  1  0
 27 26  2  0
M  END
$$$$
