HLK.pdb
     RDKit          3D

 28 28  0  0  1  0  0  0  0  0999 V2000
   25.0568  -19.7593  -19.2756 N   0  0  0  0  0  0  0  0  0  0  0  0
   24.5526  -19.0977  -18.0921 C   0  0  1  0  0  0  0  0  0  0  0  0
   23.1437  -18.6565  -18.3802 C   0  0  0  0  0  0  0  0  0  0  0  0
   23.2187  -17.5510  -19.3722 C   0  0  0  0  0  0  0  0  0  0  0  0
   22.5853  -17.4648  -20.5942 C   0  0  0  0  0  0  0  0  0  0  0  0
   22.9132  -16.3036  -21.1899 N   0  0  0  0  0  0  0  0  0  0  0  0
   23.7522  -15.6472  -20.3566 C   0  0  0  0  0  0  0  0  0  0  0  0
   23.9333  -16.4050  -19.2603 N   0  0  0  0  0  0  0  0  0  0  0  0
   24.6295  -20.0148  -16.9233 C   0  0  0  0  0  0  0  0  0  0  0  0
   24.3376  -21.2553  -17.0482 O   0  0  0  0  0  0  0  0  0  0  0  0
   28.9376  -19.5741  -13.5910 C   0  0  0  0  0  0  0  0  0  0  0  0
   27.7710  -20.1899  -14.2971 C   0  0  1  0  0  0  0  0  0  0  0  0
   27.9643  -21.7027  -14.4563 C   0  0  0  0  0  0  0  0  0  0  0  0
   26.4203  -19.8391  -13.8513 C   0  0  0  0  0  0  0  0  0  0  0  0
   25.2038  -20.3656  -14.4746 C   0  0  2  0  0  0  0  0  0  0  0  0
   25.0256  -19.5068  -15.6804 N   0  0  0  0  0  0  0  0  0  0  0  0
   23.9344  -20.3504  -13.7691 C   0  0  0  0  0  0  0  0  0  0  0  0
   23.6853  -21.1370  -12.8389 O   0  0  0  0  0  0  0  0  0  0  0  0
   22.8897  -19.4349  -14.0989 N   0  0  0  0  0  0  0  0  0  0  0  0
   21.6240  -19.4923  -13.4551 C   0  0  1  0  0  0  0  0  0  0  0  0
   20.4519  -19.1072  -14.3289 C   0  0  0  0  0  0  0  0  0  0  0  0
   20.0341  -20.2396  -15.2311 C   0  0  0  0  0  0  0  0  0  0  0  0
   18.9356  -19.8501  -16.1867 C   0  0  0  0  0  0  0  0  0  0  0  0
   18.5473  -21.0485  -17.0232 C   0  0  0  0  0  0  0  0  0  0  0  0
   17.4026  -20.7556  -17.8567 N   0  0  0  0  0  0  0  0  0  0  0  0
   21.3703  -20.8207  -12.8246 C   0  0  0  0  0  0  0  0  0  0  0  0
   22.0749  -21.7922  -13.1191 O   0  0  0  0  0  0  0  0  0  0  0  0
   20.3278  -20.9759  -11.8913 O   0  0  0  0  0  0  0  0  0  0  0  0
  2  9  1  0
  2  1  1  6
  3  2  1  0
  4  3  1  0
  4  5  2  0
  6  5  1  0
  7  6  1  0
  8  7  2  0
  8  4  1  0
  9 10  2  0
 12 13  1  1
 12 11  1  0
 14 12  1  0
 15 14  1  1
 16 15  1  0
 16  9  1  0
 17 15  1  0
 18 17  2  0
 19 17  1  0
 20 21  1  6
 20 19  1  0
 22 23  1  0
 22 21  1  0
 23 24  1  0
 24 25  1  0
 26 20  1  0
 26 28  1  0
 27 26  2  0
M  END
$$$$
