HLK.pdb
     RDKit          3D

 28 28  0  0  1  0  0  0  0  0999 V2000
   25.2397  -18.8683  -18.2267 N   0  0  0  0  0  0  0  0  0  0  0  0
   25.3195  -18.2382  -16.9270 C   0  0  1  0  0  0  0  0  0  0  0  0
   24.0176  -17.5249  -16.6841 C   0  0  0  0  0  0  0  0  0  0  0  0
   23.9978  -16.3255  -17.5631 C   0  0  0  0  0  0  0  0  0  0  0  0
   24.9820  -15.8909  -18.4259 C   0  0  0  0  0  0  0  0  0  0  0  0
   24.5769  -14.7640  -19.0396 N   0  0  0  0  0  0  0  0  0  0  0  0
   23.3401  -14.4754  -18.5745 C   0  0  0  0  0  0  0  0  0  0  0  0
   22.9952  -15.4216  -17.6831 N   0  0  0  0  0  0  0  0  0  0  0  0
   25.6083  -19.2577  -15.8828 C   0  0  0  0  0  0  0  0  0  0  0  0
   24.9123  -20.3299  -15.8088 O   0  0  0  0  0  0  0  0  0  0  0  0
   29.2921  -21.9452  -12.7200 C   0  0  0  0  0  0  0  0  0  0  0  0
   29.2122  -20.4531  -12.6428 C   0  0  1  0  0  0  0  0  0  0  0  0
   30.6031  -19.8405  -12.4397 C   0  0  0  0  0  0  0  0  0  0  0  0
   28.4268  -19.7426  -13.6550 C   0  0  0  0  0  0  0  0  0  0  0  0
   27.0030  -19.9925  -13.8918 C   0  0  2  0  0  0  0  0  0  0  0  0
   26.6527  -19.0329  -14.9781 N   0  0  0  0  0  0  0  0  0  0  0  0
   26.0230  -19.7949  -12.8383 C   0  0  0  0  0  0  0  0  0  0  0  0
   25.3383  -18.7600  -12.7576 O   0  0  0  0  0  0  0  0  0  0  0  0
   25.7838  -20.7729  -11.8262 N   0  0  0  0  0  0  0  0  0  0  0  0
   24.7080  -20.6399  -10.9071 C   0  0  1  0  0  0  0  0  0  0  0  0
   23.4002  -21.2382  -11.3734 C   0  0  0  0  0  0  0  0  0  0  0  0
   22.4955  -20.1961  -11.9787 C   0  0  0  0  0  0  0  0  0  0  0  0
   21.2027  -20.7738  -12.4949 C   0  0  0  0  0  0  0  0  0  0  0  0
   20.3803  -19.6771  -13.1334 C   0  0  0  0  0  0  0  0  0  0  0  0
   19.0634  -20.1533  -13.4935 N   0  0  0  0  0  0  0  0  0  0  0  0
   25.0519  -21.1674   -9.5543 C   0  0  0  0  0  0  0  0  0  0  0  0
   26.0138  -21.9299   -9.4115 O   0  0  0  0  0  0  0  0  0  0  0  0
   24.2838  -20.8003   -8.4330 O   0  0  0  0  0  0  0  0  0  0  0  0
  2  9  1  0
  2  1  1  6
  3  2  1  0
  4  3  1  0
  4  5  2  0
  6  5  1  0
  7  6  1  0
  8  7  2  0
  8  4  1  0
  9 10  2  0
 12 13  1  6
 12 11  1  0
 14 12  1  0
 15 14  1  1
 16 15  1  0
 16  9  1  0
 17 15  1  0
 18 17  2  0
 19 17  1  0
 20 21  1  6
 20 19  1  0
 22 23  1  0
 22 21  1  0
 23 24  1  0
 24 25  1  0
 26 20  1  0
 26 28  1  0
 27 26  2  0
M  END
$$$$
