HLK.pdb
     RDKit          3D

 28 28  0  0  1  0  0  0  0  0999 V2000
   20.8678  -19.9083  -10.3031 N   0  0  0  0  0  0  0  0  0  0  0  0
   21.7778  -20.9913  -10.6058 C   0  0  1  0  0  0  0  0  0  0  0  0
   21.1294  -21.8538  -11.6538 C   0  0  0  0  0  0  0  0  0  0  0  0
   20.1914  -22.7722  -10.9549 C   0  0  0  0  0  0  0  0  0  0  0  0
   19.9882  -22.9035   -9.5972 C   0  0  0  0  0  0  0  0  0  0  0  0
   19.0536  -23.8449   -9.3711 N   0  0  0  0  0  0  0  0  0  0  0  0
   18.6580  -24.3160  -10.5756 C   0  0  0  0  0  0  0  0  0  0  0  0
   19.3483  -23.6648  -11.5287 N   0  0  0  0  0  0  0  0  0  0  0  0
   23.0877  -20.4467  -11.0537 C   0  0  0  0  0  0  0  0  0  0  0  0
   23.1390  -19.4767  -11.8881 O   0  0  0  0  0  0  0  0  0  0  0  0
   27.2189  -20.5274   -7.4653 C   0  0  0  0  0  0  0  0  0  0  0  0
   26.3792  -20.0989   -8.6272 C   0  0  1  0  0  0  0  0  0  0  0  0
   26.4686  -18.5826   -8.8371 C   0  0  0  0  0  0  0  0  0  0  0  0
   26.4881  -20.8480   -9.8815 C   0  0  0  0  0  0  0  0  0  0  0  0
   25.6217  -20.6121  -11.0387 C   0  0  2  0  0  0  0  0  0  0  0  0
   24.2686  -21.0068  -10.5524 N   0  0  0  0  0  0  0  0  0  0  0  0
   25.8317  -21.3222  -12.2882 C   0  0  0  0  0  0  0  0  0  0  0  0
   25.8333  -22.5641  -12.3508 O   0  0  0  0  0  0  0  0  0  0  0  0
   26.0525  -20.6421  -13.5239 N   0  0  0  0  0  0  0  0  0  0  0  0
   26.3047  -21.3554  -14.7270 C   0  0  1  0  0  0  0  0  0  0  0  0
   25.4838  -20.9040  -15.9137 C   0  0  0  0  0  0  0  0  0  0  0  0
   24.0384  -21.3073  -15.7768 C   0  0  0  0  0  0  0  0  0  0  0  0
   23.1989  -20.8798  -16.9533 C   0  0  0  0  0  0  0  0  0  0  0  0
   21.7616  -21.2887  -16.7216 C   0  0  0  0  0  0  0  0  0  0  0  0
   20.9035  -20.1323  -16.5909 N   0  0  0  0  0  0  0  0  0  0  0  0
   27.7529  -21.3626  -15.0868 C   0  0  0  0  0  0  0  0  0  0  0  0
   28.1684  -22.1169  -15.9731 O   0  0  0  0  0  0  0  0  0  0  0  0
   28.6542  -20.5114  -14.4198 O   0  0  0  0  0  0  0  0  0  0  0  0
  2  9  1  0
  2  1  1  6
  3  2  1  0
  4  3  1  0
  4  5  2  0
  6  5  1  0
  7  6  1  0
  8  7  2  0
  8  4  1  0
  9 10  2  0
 12 13  1  6
 12 11  1  0
 14 12  1  0
 15 14  1  1
 16 15  1  0
 16  9  1  0
 17 15  1  0
 18 17  2  0
 19 17  1  0
 20 21  1  6
 20 19  1  0
 22 23  1  0
 22 21  1  0
 23 24  1  0
 24 25  1  0
 26 20  1  0
 26 28  1  0
 27 26  2  0
M  END
$$$$
