HLK.pdb
     RDKit          3D

 28 28  0  0  1  0  0  0  0  0999 V2000
   20.5476  -31.0926  -11.3868 N   0  0  0  0  0  0  0  0  0  0  0  0
   21.2164  -30.6697  -10.1759 C   0  0  1  0  0  0  0  0  0  0  0  0
   20.2116  -29.9351   -9.3313 C   0  0  0  0  0  0  0  0  0  0  0  0
   19.8428  -28.6924  -10.0602 C   0  0  0  0  0  0  0  0  0  0  0  0
   20.6698  -27.6568  -10.4417 C   0  0  0  0  0  0  0  0  0  0  0  0
   19.9487  -26.7174  -11.0809 N   0  0  0  0  0  0  0  0  0  0  0  0
   18.6663  -27.1460  -11.1103 C   0  0  0  0  0  0  0  0  0  0  0  0
   18.6079  -28.3392  -10.4926 N   0  0  0  0  0  0  0  0  0  0  0  0
   21.7915  -31.8479   -9.4729 C   0  0  0  0  0  0  0  0  0  0  0  0
   21.1454  -32.9520   -9.4160 O   0  0  0  0  0  0  0  0  0  0  0  0
   27.3164  -32.7343   -9.5454 C   0  0  0  0  0  0  0  0  0  0  0  0
   25.8669  -33.0903   -9.4415 C   0  0  1  0  0  0  0  0  0  0  0  0
   25.6480  -34.5813   -9.7249 C   0  0  0  0  0  0  0  0  0  0  0  0
   25.1151  -32.6231   -8.2741 C   0  0  0  0  0  0  0  0  0  0  0  0
   23.6784  -32.8477   -8.0984 C   0  0  2  0  0  0  0  0  0  0  0  0
   23.0509  -31.7379   -8.8716 N   0  0  0  0  0  0  0  0  0  0  0  0
   23.0725  -32.8215   -6.7786 C   0  0  0  0  0  0  0  0  0  0  0  0
   22.3098  -31.9077   -6.4191 O   0  0  0  0  0  0  0  0  0  0  0  0
   23.3150  -33.8400   -5.8080 N   0  0  0  0  0  0  0  0  0  0  0  0
   22.7013  -33.8033   -4.5267 C   0  0  1  0  0  0  0  0  0  0  0  0
   21.1929  -33.7030   -4.5505 C   0  0  0  0  0  0  0  0  0  0  0  0
   20.6062  -33.8021   -3.1661 C   0  0  0  0  0  0  0  0  0  0  0  0
   19.1058  -33.6598   -3.1561 C   0  0  0  0  0  0  0  0  0  0  0  0
   18.6118  -33.6330   -1.7272 C   0  0  0  0  0  0  0  0  0  0  0  0
   17.1673  -33.6682   -1.6725 N   0  0  0  0  0  0  0  0  0  0  0  0
   23.1187  -34.9493   -3.6670 C   0  0  0  0  0  0  0  0  0  0  0  0
   22.7156  -35.0301   -2.5016 O   0  0  0  0  0  0  0  0  0  0  0  0
   23.9734  -35.9449   -4.1772 O   0  0  0  0  0  0  0  0  0  0  0  0
  2  9  1  0
  2  1  1  6
  3  2  1  0
  4  3  1  0
  4  5  2  0
  6  5  1  0
  7  6  1  0
  8  7  2  0
  8  4  1  0
  9 10  2  0
 12 13  1  1
 12 11  1  0
 14 12  1  0
 15 14  1  1
 16 15  1  0
 16  9  1  0
 17 15  1  0
 18 17  2  0
 19 17  1  0
 20 21  1  6
 20 19  1  0
 22 23  1  0
 22 21  1  0
 23 24  1  0
 24 25  1  0
 26 20  1  0
 26 28  1  0
 27 26  2  0
M  END
$$$$
