HLK.pdb
     RDKit          3D

 28 28  0  0  1  0  0  0  0  0999 V2000
   14.9004  -15.8553    3.2149 N   0  0  0  0  0  0  0  0  0  0  0  0
   15.0230  -15.4917    4.6096 C   0  0  1  0  0  0  0  0  0  0  0  0
   14.1965  -16.4613    5.4092 C   0  0  0  0  0  0  0  0  0  0  0  0
   12.7784  -16.2787    4.9999 C   0  0  0  0  0  0  0  0  0  0  0  0
   11.8271  -15.4658    5.5797 C   0  0  0  0  0  0  0  0  0  0  0  0
   10.6653  -15.5854    4.9114 N   0  0  0  0  0  0  0  0  0  0  0  0
   10.8679  -16.4695    3.9081 C   0  0  0  0  0  0  0  0  0  0  0  0
   12.1457  -16.8851    3.9662 N   0  0  0  0  0  0  0  0  0  0  0  0
   16.4543  -15.5011    5.0152 C   0  0  0  0  0  0  0  0  0  0  0  0
   17.3135  -16.1852    4.3569 O   0  0  0  0  0  0  0  0  0  0  0  0
   20.1965  -11.2818    5.7478 C   0  0  0  0  0  0  0  0  0  0  0  0
   19.9763  -12.6939    6.1905 C   0  0  1  0  0  0  0  0  0  0  0  0
   20.6743  -12.9628    7.5291 C   0  0  0  0  0  0  0  0  0  0  0  0
   18.6157  -13.2354    6.1467 C   0  0  0  0  0  0  0  0  0  0  0  0
   18.2816  -14.6075    6.5355 C   0  0  2  0  0  0  0  0  0  0  0  0
   16.8546  -14.7518    6.1279 N   0  0  0  0  0  0  0  0  0  0  0  0
   18.3568  -15.0320    7.9224 C   0  0  0  0  0  0  0  0  0  0  0  0
   17.5836  -14.5925    8.7914 O   0  0  0  0  0  0  0  0  0  0  0  0
   19.3238  -15.9780    8.3789 N   0  0  0  0  0  0  0  0  0  0  0  0
   19.2897  -16.4913    9.7037 C   0  0  1  0  0  0  0  0  0  0  0  0
   19.1062  -17.9891    9.7971 C   0  0  0  0  0  0  0  0  0  0  0  0
   17.6543  -18.3797    9.6962 C   0  0  0  0  0  0  0  0  0  0  0  0
   17.4307  -19.8555    9.9054 C   0  0  0  0  0  0  0  0  0  0  0  0
   15.9479  -20.1501    9.8714 C   0  0  0  0  0  0  0  0  0  0  0  0
   15.6927  -21.5661   10.0142 N   0  0  0  0  0  0  0  0  0  0  0  0
   20.4807  -16.0768   10.5013 C   0  0  0  0  0  0  0  0  0  0  0  0
   21.5995  -16.0489    9.9774 O   0  0  0  0  0  0  0  0  0  0  0  0
   20.3379  -15.7150   11.8544 O   0  0  0  0  0  0  0  0  0  0  0  0
  2  9  1  0
  2  1  1  6
  3  2  1  0
  4  3  1  0
  4  5  2  0
  6  5  1  0
  7  6  1  0
  8  7  2  0
  8  4  1  0
  9 10  2  0
 12 13  1  1
 12 11  1  0
 14 12  1  0
 15 14  1  1
 16 15  1  0
 16  9  1  0
 17 15  1  0
 18 17  2  0
 19 17  1  0
 20 21  1  6
 20 19  1  0
 22 23  1  0
 22 21  1  0
 23 24  1  0
 24 25  1  0
 26 20  1  0
 26 28  1  0
 27 26  2  0
M  END
$$$$
