MCF.pdb
     RDKit          3D

 26 26  0  0  1  0  0  0  0  0999 V2000
   29.8377  -15.4047  -16.7486 C   0  0  0  0  0  0  0  0  0  0  0  0
   28.8322  -16.5356  -15.7684 S   0  0  0  0  0  0  0  0  0  0  0  0
   27.5586  -15.6802  -14.8520 C   0  0  0  0  0  0  0  0  0  0  0  0
   26.7430  -16.5811  -13.9986 C   0  0  0  0  0  0  0  0  0  0  0  0
   26.2692  -17.8386  -14.6404 C   0  0  2  0  0  0  0  0  0  0  0  0
   25.3238  -17.6826  -15.6987 N   0  0  0  0  0  0  0  0  0  0  0  0
   25.7574  -18.7862  -13.6063 C   0  0  0  0  0  0  0  0  0  0  0  0
   24.5616  -18.6825  -13.1709 O   0  0  0  0  0  0  0  0  0  0  0  0
   26.5332  -19.8313  -13.0526 N   0  0  0  0  0  0  0  0  0  0  0  0
   25.9508  -20.7219  -12.0592 C   0  0  1  0  0  0  0  0  0  0  0  0
   26.0967  -22.1643  -12.5388 C   0  0  0  0  0  0  0  0  0  0  0  0
   25.6135  -23.2957  -11.2259 S   0  0  0  0  0  0  0  0  0  0  0  0
   26.7503  -20.6029  -10.8189 C   0  0  0  0  0  0  0  0  0  0  0  0
   27.9740  -20.8846  -10.9263 O   0  0  0  0  0  0  0  0  0  0  0  0
   26.1487  -20.1988   -9.6165 N   0  0  0  0  0  0  0  0  0  0  0  0
   26.8138  -20.4092   -8.3453 C   0  0  1  0  0  0  0  0  0  0  0  0
   27.5743  -19.2235   -7.8821 C   0  0  0  0  0  0  0  0  0  0  0  0
   28.1425  -19.4034   -6.5535 C   0  0  0  0  0  0  0  0  0  0  0  0
   27.8272  -18.4959   -5.5538 C   0  0  0  0  0  0  0  0  0  0  0  0
   28.3593  -18.6845   -4.2909 C   0  0  0  0  0  0  0  0  0  0  0  0
   29.1885  -19.7574   -4.0346 C   0  0  0  0  0  0  0  0  0  0  0  0
   29.5221  -20.6825   -5.0162 C   0  0  0  0  0  0  0  0  0  0  0  0
   28.9716  -20.4674   -6.2783 C   0  0  0  0  0  0  0  0  0  0  0  0
   25.8496  -20.9753   -7.3672 C   0  0  0  0  0  0  0  0  0  0  0  0
   26.2357  -21.6755   -6.2239 O   0  0  0  0  0  0  0  0  0  0  0  0
   24.6075  -20.8590   -7.5050 O   0  0  0  0  0  0  0  0  0  0  0  0
  2  1  1  0
  3  2  1  0
  4  3  1  0
  4  5  1  0
  5  7  1  0
  5  6  1  6
  7  8  2  0
  9  7  1  0
  9 10  1  0
 10 11  1  6
 11 12  1  0
 13 15  1  0
 13 10  1  0
 14 13  2  0
 16 15  1  0
 16 17  1  1
 18 17  1  0
 18 19  2  0
 20 19  1  0
 21 20  2  0
 22 23  2  0
 22 21  1  0
 23 18  1  0
 24 16  1  0
 24 25  1  0
 26 24  2  0
M  END
$$$$
