MCF.pdb
     RDKit          3D

 26 26  0  0  1  0  0  0  0  0999 V2000
   24.4559  -22.0296  -16.4577 C   0  0  0  0  0  0  0  0  0  0  0  0
   25.6371  -21.0294  -15.5329 S   0  0  0  0  0  0  0  0  0  0  0  0
   27.1750  -20.8162  -16.4179 C   0  0  0  0  0  0  0  0  0  0  0  0
   27.7701  -22.0963  -16.8787 C   0  0  0  0  0  0  0  0  0  0  0  0
   29.0750  -21.9930  -17.5888 C   0  0  2  0  0  0  0  0  0  0  0  0
   29.0946  -21.1506  -18.7413 N   0  0  0  0  0  0  0  0  0  0  0  0
   29.5946  -23.3538  -17.9168 C   0  0  0  0  0  0  0  0  0  0  0  0
   29.2412  -23.9371  -18.9963 O   0  0  0  0  0  0  0  0  0  0  0  0
   30.4850  -24.0712  -17.0841 N   0  0  0  0  0  0  0  0  0  0  0  0
   30.9882  -25.3705  -17.5060 C   0  0  1  0  0  0  0  0  0  0  0  0
   32.3726  -25.5879  -16.8993 C   0  0  0  0  0  0  0  0  0  0  0  0
   33.5921  -24.6172  -17.7980 S   0  0  0  0  0  0  0  0  0  0  0  0
   30.1035  -26.4084  -16.9302 C   0  0  0  0  0  0  0  0  0  0  0  0
   29.9571  -26.3715  -15.6790 O   0  0  0  0  0  0  0  0  0  0  0  0
   29.4834  -27.3584  -17.7573 N   0  0  0  0  0  0  0  0  0  0  0  0
   28.6474  -28.4010  -17.1945 C   0  0  1  0  0  0  0  0  0  0  0  0
   27.2399  -28.3323  -17.6559 C   0  0  0  0  0  0  0  0  0  0  0  0
   26.5356  -27.1663  -17.1414 C   0  0  0  0  0  0  0  0  0  0  0  0
   26.6296  -25.9630  -17.8238 C   0  0  0  0  0  0  0  0  0  0  0  0
   25.9439  -24.8651  -17.3357 C   0  0  0  0  0  0  0  0  0  0  0  0
   25.1814  -24.9695  -16.1902 C   0  0  0  0  0  0  0  0  0  0  0  0
   25.0687  -26.1618  -15.4855 C   0  0  0  0  0  0  0  0  0  0  0  0
   25.7699  -27.2505  -16.0003 C   0  0  0  0  0  0  0  0  0  0  0  0
   29.3141  -29.7179  -17.3626 C   0  0  0  0  0  0  0  0  0  0  0  0
   30.4779  -29.9008  -18.1100 O   0  0  0  0  0  0  0  0  0  0  0  0
   28.8703  -30.7671  -16.8356 O   0  0  0  0  0  0  0  0  0  0  0  0
  2  1  1  0
  3  2  1  0
  4  3  1  0
  4  5  1  0
  5  7  1  0
  5  6  1  6
  7  8  2  0
  9  7  1  0
  9 10  1  0
 10 11  1  1
 11 12  1  0
 13 15  1  0
 13 10  1  0
 14 13  2  0
 16 15  1  0
 16 17  1  6
 18 17  1  0
 18 19  2  0
 20 19  1  0
 21 20  2  0
 22 23  2  0
 22 21  1  0
 23 18  1  0
 24 16  1  0
 24 25  1  0
 26 24  2  0
M  END
$$$$
