MCF.pdb
     RDKit          3D

 26 26  0  0  1  0  0  0  0  0999 V2000
   24.0144  -14.4637  -14.7769 C   0  0  0  0  0  0  0  0  0  0  0  0
   25.7630  -14.0982  -15.0208 S   0  0  0  0  0  0  0  0  0  0  0  0
   26.7567  -15.5821  -15.0870 C   0  0  0  0  0  0  0  0  0  0  0  0
   26.2373  -16.6759  -14.2274 C   0  0  0  0  0  0  0  0  0  0  0  0
   26.1324  -18.0168  -14.8667 C   0  0  2  0  0  0  0  0  0  0  0  0
   25.2701  -18.1027  -16.0012 N   0  0  0  0  0  0  0  0  0  0  0  0
   25.7751  -19.0488  -13.8486 C   0  0  0  0  0  0  0  0  0  0  0  0
   24.5530  -19.3539  -13.6397 O   0  0  0  0  0  0  0  0  0  0  0  0
   26.7314  -19.7394  -13.0679 N   0  0  0  0  0  0  0  0  0  0  0  0
   26.3198  -20.8646  -12.2410 C   0  0  1  0  0  0  0  0  0  0  0  0
   26.9804  -22.1364  -12.7681 C   0  0  0  0  0  0  0  0  0  0  0  0
   28.7228  -22.1499  -12.3194 S   0  0  0  0  0  0  0  0  0  0  0  0
   26.8507  -20.6432  -10.8769 C   0  0  0  0  0  0  0  0  0  0  0  0
   28.0426  -20.2391  -10.8114 O   0  0  0  0  0  0  0  0  0  0  0  0
   26.0474  -20.8796   -9.7500 N   0  0  0  0  0  0  0  0  0  0  0  0
   26.6117  -20.8451   -8.4147 C   0  0  1  0  0  0  0  0  0  0  0  0
   27.3571  -19.5956   -8.1289 C   0  0  0  0  0  0  0  0  0  0  0  0
   27.8438  -19.5319   -6.7580 C   0  0  0  0  0  0  0  0  0  0  0  0
   27.3522  -18.5513   -5.9100 C   0  0  0  0  0  0  0  0  0  0  0  0
   27.8091  -18.5091   -4.6050 C   0  0  0  0  0  0  0  0  0  0  0  0
   28.7374  -19.4277   -4.1590 C   0  0  0  0  0  0  0  0  0  0  0  0
   29.2478  -20.4209   -4.9858 C   0  0  0  0  0  0  0  0  0  0  0  0
   28.7696  -20.4393   -6.2946 C   0  0  0  0  0  0  0  0  0  0  0  0
   25.5668  -21.2099   -7.4237 C   0  0  0  0  0  0  0  0  0  0  0  0
   24.3762  -20.5000   -7.2650 O   0  0  0  0  0  0  0  0  0  0  0  0
   25.6860  -22.1942   -6.6541 O   0  0  0  0  0  0  0  0  0  0  0  0
  2  1  1  0
  3  2  1  0
  4  3  1  0
  4  5  1  0
  5  7  1  0
  5  6  1  6
  7  8  2  0
  9  7  1  0
  9 10  1  0
 10 11  1  6
 11 12  1  0
 13 15  1  0
 13 10  1  0
 14 13  2  0
 16 15  1  0
 16 17  1  1
 18 17  1  0
 18 19  2  0
 20 19  1  0
 21 20  2  0
 22 23  2  0
 22 21  1  0
 23 18  1  0
 24 16  1  0
 24 25  1  0
 26 24  2  0
M  END
$$$$
