MCF.pdb
     RDKit          3D

 26 26  0  0  1  0  0  0  0  0999 V2000
   30.6641  -13.9817  -17.8603 C   0  0  0  0  0  0  0  0  0  0  0  0
   29.0001  -14.6519  -18.0412 S   0  0  0  0  0  0  0  0  0  0  0  0
   28.3215  -15.1959  -16.4800 C   0  0  0  0  0  0  0  0  0  0  0  0
   27.5804  -16.4791  -16.5766 C   0  0  0  0  0  0  0  0  0  0  0  0
   27.8580  -17.3057  -17.7839 C   0  0  2  0  0  0  0  0  0  0  0  0
   27.3539  -16.7972  -19.0191 N   0  0  0  0  0  0  0  0  0  0  0  0
   27.4051  -18.7113  -17.5638 C   0  0  0  0  0  0  0  0  0  0  0  0
   26.1803  -19.0293  -17.7341 O   0  0  0  0  0  0  0  0  0  0  0  0
   28.2700  -19.7567  -17.1639 N   0  0  0  0  0  0  0  0  0  0  0  0
   27.7504  -21.1059  -16.9943 C   0  0  1  0  0  0  0  0  0  0  0  0
   28.8769  -22.1069  -17.2410 C   0  0  0  0  0  0  0  0  0  0  0  0
   29.4698  -21.9534  -18.9328 S   0  0  0  0  0  0  0  0  0  0  0  0
   27.3455  -21.2614  -15.5788 C   0  0  0  0  0  0  0  0  0  0  0  0
   28.2417  -21.0297  -14.7235 O   0  0  0  0  0  0  0  0  0  0  0  0
   26.0361  -21.6449  -15.2476 N   0  0  0  0  0  0  0  0  0  0  0  0
   25.6367  -21.8067  -13.8631 C   0  0  1  0  0  0  0  0  0  0  0  0
   25.9534  -20.6263  -13.0234 C   0  0  0  0  0  0  0  0  0  0  0  0
   25.4674  -20.7610  -11.6574 C   0  0  0  0  0  0  0  0  0  0  0  0
   26.3190  -21.2556  -10.6815 C   0  0  0  0  0  0  0  0  0  0  0  0
   25.8528  -21.3648   -9.3836 C   0  0  0  0  0  0  0  0  0  0  0  0
   24.5630  -20.9876   -9.0699 C   0  0  0  0  0  0  0  0  0  0  0  0
   23.6872  -20.4890  -10.0265 C   0  0  0  0  0  0  0  0  0  0  0  0
   24.1840  -20.3900  -11.3248 C   0  0  0  0  0  0  0  0  0  0  0  0
   24.2290  -22.2776  -13.8034 C   0  0  0  0  0  0  0  0  0  0  0  0
   23.2195  -21.7912  -14.6345 O   0  0  0  0  0  0  0  0  0  0  0  0
   23.8492  -23.1566  -12.9919 O   0  0  0  0  0  0  0  0  0  0  0  0
  2  1  1  0
  3  2  1  0
  4  3  1  0
  4  5  1  0
  5  7  1  0
  5  6  1  6
  7  8  2  0
  9  7  1  0
  9 10  1  0
 10 11  1  1
 11 12  1  0
 13 15  1  0
 13 10  1  0
 14 13  2  0
 16 15  1  0
 16 17  1  1
 18 17  1  0
 18 19  2  0
 20 19  1  0
 21 20  2  0
 22 23  2  0
 22 21  1  0
 23 18  1  0
 24 16  1  0
 24 25  1  0
 26 24  2  0
M  END
$$$$
