MCF.pdb
     RDKit          3D

 26 26  0  0  1  0  0  0  0  0999 V2000
   28.4639  -14.7577  -15.9620 C   0  0  0  0  0  0  0  0  0  0  0  0
   29.4188  -16.2871  -15.9688 S   0  0  0  0  0  0  0  0  0  0  0  0
   28.3759  -17.7296  -16.1267 C   0  0  0  0  0  0  0  0  0  0  0  0
   27.3626  -17.8432  -15.0471 C   0  0  0  0  0  0  0  0  0  0  0  0
   26.4605  -19.0259  -15.1183 C   0  0  2  0  0  0  0  0  0  0  0  0
   25.5509  -19.0532  -16.2184 N   0  0  0  0  0  0  0  0  0  0  0  0
   25.7352  -19.2019  -13.8251 C   0  0  0  0  0  0  0  0  0  0  0  0
   24.8830  -18.3330  -13.4392 O   0  0  0  0  0  0  0  0  0  0  0  0
   25.9330  -20.3057  -12.9630 N   0  0  0  0  0  0  0  0  0  0  0  0
   25.1633  -20.4143  -11.7321 C   0  0  1  0  0  0  0  0  0  0  0  0
   24.2963  -21.6697  -11.7974 C   0  0  0  0  0  0  0  0  0  0  0  0
   23.3397  -21.8301  -10.2821 S   0  0  0  0  0  0  0  0  0  0  0  0
   26.1167  -20.6132  -10.6170 C   0  0  0  0  0  0  0  0  0  0  0  0
   27.1461  -21.2872  -10.8895 O   0  0  0  0  0  0  0  0  0  0  0  0
   25.8567  -20.0703   -9.3486 N   0  0  0  0  0  0  0  0  0  0  0  0
   26.7089  -20.3825   -8.2178 C   0  0  1  0  0  0  0  0  0  0  0  0
   27.7086  -19.3252   -7.9319 C   0  0  0  0  0  0  0  0  0  0  0  0
   28.2908  -19.4462   -6.6027 C   0  0  0  0  0  0  0  0  0  0  0  0
   29.3816  -20.2811   -6.4148 C   0  0  0  0  0  0  0  0  0  0  0  0
   29.9374  -20.3769   -5.1517 C   0  0  0  0  0  0  0  0  0  0  0  0
   29.4128  -19.6532   -4.1002 C   0  0  0  0  0  0  0  0  0  0  0  0
   28.3205  -18.8091   -4.2584 C   0  0  0  0  0  0  0  0  0  0  0  0
   27.7816  -18.7324   -5.5412 C   0  0  0  0  0  0  0  0  0  0  0  0
   25.8714  -20.8023   -7.0649 C   0  0  0  0  0  0  0  0  0  0  0  0
   24.4995  -20.5615   -6.9829 O   0  0  0  0  0  0  0  0  0  0  0  0
   26.3475  -21.4105   -6.0756 O   0  0  0  0  0  0  0  0  0  0  0  0
  2  1  1  0
  3  2  1  0
  4  3  1  0
  4  5  1  0
  5  7  1  0
  5  6  1  6
  7  8  2  0
  9  7  1  0
  9 10  1  0
 10 11  1  6
 11 12  1  0
 13 15  1  0
 13 10  1  0
 14 13  2  0
 16 15  1  0
 16 17  1  1
 18 17  1  0
 18 19  2  0
 20 19  1  0
 21 20  2  0
 22 23  2  0
 22 21  1  0
 23 18  1  0
 24 16  1  0
 24 25  1  0
 26 24  2  0
M  END
$$$$
