MCF.pdb
     RDKit          3D

 26 26  0  0  1  0  0  0  0  0999 V2000
   26.4190  -15.5117  -14.9269 C   0  0  0  0  0  0  0  0  0  0  0  0
   25.7463  -15.1227  -16.5539 S   0  0  0  0  0  0  0  0  0  0  0  0
   24.5207  -16.3136  -17.0764 C   0  0  0  0  0  0  0  0  0  0  0  0
   24.6206  -17.6117  -16.3620 C   0  0  0  0  0  0  0  0  0  0  0  0
   25.4615  -18.6539  -17.0133 C   0  0  2  0  0  0  0  0  0  0  0  0
   24.8666  -19.3379  -18.1163 N   0  0  0  0  0  0  0  0  0  0  0  0
   25.9639  -19.6238  -15.9954 C   0  0  0  0  0  0  0  0  0  0  0  0
   25.2505  -20.6249  -15.6499 O   0  0  0  0  0  0  0  0  0  0  0  0
   27.2229  -19.5080  -15.3612 N   0  0  0  0  0  0  0  0  0  0  0  0
   27.5820  -20.4203  -14.2850 C   0  0  1  0  0  0  0  0  0  0  0  0
   29.0977  -20.3991  -14.1006 C   0  0  0  0  0  0  0  0  0  0  0  0
   29.5366  -21.2203  -12.5611 S   0  0  0  0  0  0  0  0  0  0  0  0
   26.9934  -19.8969  -13.0315 C   0  0  0  0  0  0  0  0  0  0  0  0
   27.1078  -18.6552  -12.8487 O   0  0  0  0  0  0  0  0  0  0  0  0
   26.3556  -20.7599  -12.1262 N   0  0  0  0  0  0  0  0  0  0  0  0
   25.7726  -20.2515  -10.8997 C   0  0  1  0  0  0  0  0  0  0  0  0
   24.6088  -19.3625  -11.1323 C   0  0  0  0  0  0  0  0  0  0  0  0
   23.4403  -20.0815  -11.6198 C   0  0  0  0  0  0  0  0  0  0  0  0
   23.4546  -20.6053  -12.9035 C   0  0  0  0  0  0  0  0  0  0  0  0
   22.3457  -21.3004  -13.3517 C   0  0  0  0  0  0  0  0  0  0  0  0
   21.2471  -21.4673  -12.5333 C   0  0  0  0  0  0  0  0  0  0  0  0
   21.2042  -20.9536  -11.2429 C   0  0  0  0  0  0  0  0  0  0  0  0
   22.3349  -20.2584  -10.8184 C   0  0  0  0  0  0  0  0  0  0  0  0
   25.5433  -21.3750   -9.9551 C   0  0  0  0  0  0  0  0  0  0  0  0
   25.7408  -22.7147  -10.2911 O   0  0  0  0  0  0  0  0  0  0  0  0
   25.1528  -21.1918   -8.7764 O   0  0  0  0  0  0  0  0  0  0  0  0
  2  1  1  0
  3  2  1  0
  4  3  1  0
  4  5  1  0
  5  7  1  0
  5  6  1  6
  7  8  2  0
  9  7  1  0
  9 10  1  0
 10 11  1  1
 11 12  1  0
 13 15  1  0
 13 10  1  0
 14 13  2  0
 16 15  1  0
 16 17  1  6
 18 17  1  0
 18 19  2  0
 20 19  1  0
 21 20  2  0
 22 23  2  0
 22 21  1  0
 23 18  1  0
 24 16  1  0
 24 25  1  0
 26 24  2  0
M  END
$$$$
