MCF.pdb
     RDKit          3D

 26 26  0  0  1  0  0  0  0  0999 V2000
   28.9538  -21.7801  -14.0687 C   0  0  0  0  0  0  0  0  0  0  0  0
   29.4498  -20.8336  -15.5209 S   0  0  0  0  0  0  0  0  0  0  0  0
   28.5043  -19.3272  -15.6962 C   0  0  0  0  0  0  0  0  0  0  0  0
   27.7062  -18.9907  -14.4900 C   0  0  0  0  0  0  0  0  0  0  0  0
   26.2400  -19.2327  -14.5872 C   0  0  2  0  0  0  0  0  0  0  0  0
   25.5278  -18.3983  -15.5008 N   0  0  0  0  0  0  0  0  0  0  0  0
   25.6173  -19.1881  -13.2309 C   0  0  0  0  0  0  0  0  0  0  0  0
   25.1842  -18.0851  -12.7552 O   0  0  0  0  0  0  0  0  0  0  0  0
   25.4676  -20.3249  -12.4027 N   0  0  0  0  0  0  0  0  0  0  0  0
   24.8236  -20.1984  -11.1032 C   0  0  1  0  0  0  0  0  0  0  0  0
   23.6153  -21.1308  -11.0546 C   0  0  0  0  0  0  0  0  0  0  0  0
   22.9314  -21.1571   -9.3906 S   0  0  0  0  0  0  0  0  0  0  0  0
   25.7750  -20.6809  -10.0766 C   0  0  0  0  0  0  0  0  0  0  0  0
   26.2643  -21.8249  -10.2771 O   0  0  0  0  0  0  0  0  0  0  0  0
   26.0884  -19.8863   -8.9624 N   0  0  0  0  0  0  0  0  0  0  0  0
   27.0138  -20.3573   -7.9503 C   0  0  1  0  0  0  0  0  0  0  0  0
   28.0334  -19.3473   -7.5774 C   0  0  0  0  0  0  0  0  0  0  0  0
   28.4401  -19.4469   -6.1828 C   0  0  0  0  0  0  0  0  0  0  0  0
   29.2359  -20.5099   -5.7840 C   0  0  0  0  0  0  0  0  0  0  0  0
   29.6301  -20.5870   -4.4602 C   0  0  0  0  0  0  0  0  0  0  0  0
   29.2363  -19.6216   -3.5560 C   0  0  0  0  0  0  0  0  0  0  0  0
   28.4391  -18.5455   -3.9267 C   0  0  0  0  0  0  0  0  0  0  0  0
   28.0575  -18.4938   -5.2660 C   0  0  0  0  0  0  0  0  0  0  0  0
   26.2545  -20.9503   -6.8196 C   0  0  0  0  0  0  0  0  0  0  0  0
   24.9202  -20.6475   -6.5466 O   0  0  0  0  0  0  0  0  0  0  0  0
   26.7685  -21.7748   -6.0250 O   0  0  0  0  0  0  0  0  0  0  0  0
  2  1  1  0
  3  2  1  0
  4  3  1  0
  4  5  1  0
  5  7  1  0
  5  6  1  6
  7  8  2  0
  9  7  1  0
  9 10  1  0
 10 11  1  6
 11 12  1  0
 13 15  1  0
 13 10  1  0
 14 13  2  0
 16 15  1  0
 16 17  1  1
 18 17  1  0
 18 19  2  0
 20 19  1  0
 21 20  2  0
 22 23  2  0
 22 21  1  0
 23 18  1  0
 24 16  1  0
 24 25  1  0
 26 24  2  0
M  END
$$$$
