NLK.pdb
     RDKit          3D

 26 25  0  0  1  0  0  0  0  0999 V2000
    6.5040  -13.8248   18.6244 N   0  0  0  0  0  0  0  0  0  0  0  0
    7.2222  -14.9887   19.0242 C   0  0  0  0  0  0  0  0  0  0  0  0
    7.2531  -15.9369   18.2350 O   0  0  0  0  0  0  0  0  0  0  0  0
    7.8613  -14.9506   20.3443 C   0  0  0  0  0  0  0  0  0  0  0  0
    7.6104  -13.7252   21.1582 C   0  0  2  0  0  0  0  0  0  0  0  0
    8.1720  -12.6073   20.4017 N   0  0  0  0  0  0  0  0  0  0  0  0
    8.2111  -13.7718   22.5107 C   0  0  0  0  0  0  0  0  0  0  0  0
    9.4335  -13.6355   22.7586 O   0  0  0  0  0  0  0  0  0  0  0  0
    5.2311  -11.8407   26.8815 C   0  0  0  0  0  0  0  0  0  0  0  0
    6.3449  -12.2272   25.9589 C   0  0  1  0  0  0  0  0  0  0  0  0
    7.5791  -11.4480   26.4432 C   0  0  0  0  0  0  0  0  0  0  0  0
    6.7350  -13.6584   25.9698 C   0  0  0  0  0  0  0  0  0  0  0  0
    7.8083  -14.0652   24.9982 C   0  0  2  0  0  0  0  0  0  0  0  0
    7.3592  -13.9856   23.6253 N   0  0  0  0  0  0  0  0  0  0  0  0
    8.4789  -15.3293   25.3115 C   0  0  0  0  0  0  0  0  0  0  0  0
    8.4699  -15.7487   26.4967 O   0  0  0  0  0  0  0  0  0  0  0  0
    9.1616  -16.1467   24.3585 N   0  0  0  0  0  0  0  0  0  0  0  0
    9.7300  -17.4605   24.7277 C   0  0  1  0  0  0  0  0  0  0  0  0
   10.0385  -18.2605   23.5147 C   0  0  0  0  0  0  0  0  0  0  0  0
   10.6745  -19.5772   23.8252 C   0  0  0  0  0  0  0  0  0  0  0  0
   11.1193  -20.2719   22.5314 C   0  0  0  0  0  0  0  0  0  0  0  0
   11.7453  -21.5983   22.9342 C   0  0  0  0  0  0  0  0  0  0  0  0
   12.1896  -22.2964   21.7563 N   0  0  0  0  0  0  0  0  0  0  0  0
   10.8330  -17.2347   25.6625 C   0  0  0  0  0  0  0  0  0  0  0  0
   11.0708  -17.9540   26.8237 O   0  0  0  0  0  0  0  0  0  0  0  0
   11.6760  -16.3069   25.4364 O   0  0  0  0  0  0  0  0  0  0  0  0
  2  1  1  0
  2  3  2  0
  4  5  1  0
  4  2  1  0
  5  7  1  0
  5  6  1  6
  7  8  2  0
 10  9  1  1
 10 12  1  0
 10 11  1  0
 13 12  1  1
 13 15  1  0
 14  7  1  0
 14 13  1  0
 15 16  2  0
 17 18  1  0
 17 15  1  0
 18 24  1  0
 18 19  1  6
 20 19  1  0
 21 20  1  0
 22 21  1  0
 23 22  1  0
 24 25  1  0
 26 24  2  0
M  END
$$$$
