NLK.pdb
     RDKit          3D

 26 25  0  0  1  0  0  0  0  0999 V2000
   11.8915  -18.0489   14.1319 N   0  0  0  0  0  0  0  0  0  0  0  0
   10.8311  -17.2454   14.6420 C   0  0  0  0  0  0  0  0  0  0  0  0
    9.8009  -17.1680   13.9669 O   0  0  0  0  0  0  0  0  0  0  0  0
   11.0647  -16.5815   15.9293 C   0  0  0  0  0  0  0  0  0  0  0  0
   10.3765  -17.1812   17.1098 C   0  0  2  0  0  0  0  0  0  0  0  0
    8.9537  -17.2263   16.7770 N   0  0  0  0  0  0  0  0  0  0  0  0
   10.5771  -16.4253   18.3672 C   0  0  0  0  0  0  0  0  0  0  0  0
   11.6933  -16.1551   18.8723 O   0  0  0  0  0  0  0  0  0  0  0  0
    6.5290  -12.8018   19.7457 C   0  0  0  0  0  0  0  0  0  0  0  0
    7.8284  -13.5146   19.5346 C   0  0  1  0  0  0  0  0  0  0  0  0
    8.9094  -12.4207   19.5262 C   0  0  0  0  0  0  0  0  0  0  0  0
    8.2264  -14.4742   20.5935 C   0  0  0  0  0  0  0  0  0  0  0  0
    9.4782  -15.2678   20.3391 C   0  0  2  0  0  0  0  0  0  0  0  0
    9.4350  -15.9619   19.0705 N   0  0  0  0  0  0  0  0  0  0  0  0
    9.9035  -16.1241   21.4489 C   0  0  0  0  0  0  0  0  0  0  0  0
    9.0957  -16.9674   21.9147 O   0  0  0  0  0  0  0  0  0  0  0  0
   11.1928  -16.0795   22.0638 N   0  0  0  0  0  0  0  0  0  0  0  0
   11.5534  -16.9811   23.1785 C   0  0  1  0  0  0  0  0  0  0  0  0
   12.6948  -17.8540   22.8017 C   0  0  0  0  0  0  0  0  0  0  0  0
   12.4191  -18.6944   21.5968 C   0  0  0  0  0  0  0  0  0  0  0  0
   13.6492  -19.5417   21.2458 C   0  0  0  0  0  0  0  0  0  0  0  0
   13.3239  -20.2814   19.9571 C   0  0  0  0  0  0  0  0  0  0  0  0
   14.4745  -21.0354   19.5333 N   0  0  0  0  0  0  0  0  0  0  0  0
   11.7177  -16.1713   24.3862 C   0  0  0  0  0  0  0  0  0  0  0  0
   11.6469  -14.7882   24.4501 O   0  0  0  0  0  0  0  0  0  0  0  0
   11.9493  -16.7383   25.5032 O   0  0  0  0  0  0  0  0  0  0  0  0
  2  1  1  0
  2  3  2  0
  4  5  1  0
  4  2  1  0
  5  7  1  0
  5  6  1  6
  7  8  2  0
 10  9  1  1
 10 12  1  0
 10 11  1  0
 13 12  1  1
 13 15  1  0
 14  7  1  0
 14 13  1  0
 15 16  2  0
 17 18  1  0
 17 15  1  0
 18 24  1  0
 18 19  1  6
 20 19  1  0
 21 20  1  0
 22 21  1  0
 23 22  1  0
 24 25  1  0
 26 24  2  0
M  END
$$$$
