NLK.pdb
     RDKit          3D

 26 25  0  0  1  0  0  0  0  0999 V2000
   10.6392  -19.4770   15.5763 N   0  0  0  0  0  0  0  0  0  0  0  0
   11.5978  -18.4347   15.4182 C   0  0  0  0  0  0  0  0  0  0  0  0
   12.4529  -18.5771   14.5399 O   0  0  0  0  0  0  0  0  0  0  0  0
   11.4778  -17.2835   16.3198 C   0  0  0  0  0  0  0  0  0  0  0  0
   10.3243  -17.3103   17.2662 C   0  0  2  0  0  0  0  0  0  0  0  0
    9.1813  -16.7642   16.5364 N   0  0  0  0  0  0  0  0  0  0  0  0
   10.5495  -16.5330   18.5061 C   0  0  0  0  0  0  0  0  0  0  0  0
   11.6610  -16.3851   19.0691 O   0  0  0  0  0  0  0  0  0  0  0  0
    8.2567  -13.0198   18.6095 C   0  0  0  0  0  0  0  0  0  0  0  0
    8.1510  -13.1013   20.1005 C   0  0  1  0  0  0  0  0  0  0  0  0
    6.7538  -12.5628   20.4512 C   0  0  0  0  0  0  0  0  0  0  0  0
    8.2237  -14.4619   20.6871 C   0  0  0  0  0  0  0  0  0  0  0  0
    9.4790  -15.2422   20.4098 C   0  0  2  0  0  0  0  0  0  0  0  0
    9.4389  -15.8991   19.1214 N   0  0  0  0  0  0  0  0  0  0  0  0
    9.9079  -16.1288   21.4942 C   0  0  0  0  0  0  0  0  0  0  0  0
    9.2775  -17.1978   21.6954 O   0  0  0  0  0  0  0  0  0  0  0  0
   11.0108  -15.8735   22.3663 N   0  0  0  0  0  0  0  0  0  0  0  0
   11.5463  -16.9162   23.2673 C   0  0  1  0  0  0  0  0  0  0  0  0
   11.8843  -18.1465   22.5067 C   0  0  0  0  0  0  0  0  0  0  0  0
   12.4807  -19.2194   23.3596 C   0  0  0  0  0  0  0  0  0  0  0  0
   12.7595  -20.4734   22.5205 C   0  0  0  0  0  0  0  0  0  0  0  0
   13.2802  -21.5375   23.4745 C   0  0  0  0  0  0  0  0  0  0  0  0
   13.4144  -22.7869   22.7724 N   0  0  0  0  0  0  0  0  0  0  0  0
   12.6195  -16.3229   24.0657 C   0  0  0  0  0  0  0  0  0  0  0  0
   13.0559  -15.0092   23.9879 O   0  0  0  0  0  0  0  0  0  0  0  0
   13.2406  -17.0337   24.9211 O   0  0  0  0  0  0  0  0  0  0  0  0
  2  1  1  0
  2  3  2  0
  4  5  1  0
  4  2  1  0
  5  7  1  0
  5  6  1  6
  7  8  2  0
 10  9  1  6
 10 12  1  0
 10 11  1  0
 13 12  1  1
 13 15  1  0
 14  7  1  0
 14 13  1  0
 15 16  2  0
 17 18  1  0
 17 15  1  0
 18 24  1  0
 18 19  1  6
 20 19  1  0
 21 20  1  0
 22 21  1  0
 23 22  1  0
 24 25  1  0
 26 24  2  0
M  END
$$$$
