NLK.pdb
     RDKit          3D

 26 25  0  0  1  0  0  0  0  0999 V2000
   10.7409  -17.7303   18.6478 N   0  0  0  0  0  0  0  0  0  0  0  0
    9.8374  -16.6857   18.9983 C   0  0  0  0  0  0  0  0  0  0  0  0
    8.9231  -16.4357   18.2081 O   0  0  0  0  0  0  0  0  0  0  0  0
   10.0802  -16.0013   20.2732 C   0  0  0  0  0  0  0  0  0  0  0  0
    9.2048  -16.4072   21.4115 C   0  0  2  0  0  0  0  0  0  0  0  0
    7.8276  -16.2332   20.9530 N   0  0  0  0  0  0  0  0  0  0  0  0
    9.4282  -15.6230   22.6474 C   0  0  0  0  0  0  0  0  0  0  0  0
   10.5499  -15.4011   23.1641 O   0  0  0  0  0  0  0  0  0  0  0  0
    7.9692  -11.7228   26.3518 C   0  0  0  0  0  0  0  0  0  0  0  0
    7.0683  -12.9067   26.1853 C   0  0  1  0  0  0  0  0  0  0  0  0
    5.6353  -12.3639   26.3153 C   0  0  0  0  0  0  0  0  0  0  0  0
    7.1278  -13.5929   24.8715 C   0  0  0  0  0  0  0  0  0  0  0  0
    8.3522  -14.4252   24.6078 C   0  0  2  0  0  0  0  0  0  0  0  0
    8.3037  -15.0715   23.3144 N   0  0  0  0  0  0  0  0  0  0  0  0
    8.7256  -15.3364   25.6924 C   0  0  0  0  0  0  0  0  0  0  0  0
    7.9434  -16.2705   26.0025 O   0  0  0  0  0  0  0  0  0  0  0  0
    9.9352  -15.2496   26.4483 N   0  0  0  0  0  0  0  0  0  0  0  0
   10.3491  -16.3223   27.3776 C   0  0  1  0  0  0  0  0  0  0  0  0
   11.3764  -17.1940   26.7518 C   0  0  0  0  0  0  0  0  0  0  0  0
   11.8945  -18.2484   27.6761 C   0  0  0  0  0  0  0  0  0  0  0  0
   12.9283  -19.1253   26.9573 C   0  0  0  0  0  0  0  0  0  0  0  0
   13.3980  -20.1679   27.9602 C   0  0  0  0  0  0  0  0  0  0  0  0
   14.4637  -20.9437   27.3821 N   0  0  0  0  0  0  0  0  0  0  0  0
   10.7023  -15.7070   28.6574 C   0  0  0  0  0  0  0  0  0  0  0  0
   10.8451  -16.3735   29.8647 O   0  0  0  0  0  0  0  0  0  0  0  0
   10.9058  -14.4512   28.7226 O   0  0  0  0  0  0  0  0  0  0  0  0
  2  1  1  0
  2  3  2  0
  4  5  1  0
  4  2  1  0
  5  7  1  0
  5  6  1  6
  7  8  2  0
 10  9  1  6
 10 12  1  0
 10 11  1  0
 13 12  1  1
 13 15  1  0
 14  7  1  0
 14 13  1  0
 15 16  2  0
 17 18  1  0
 17 15  1  0
 18 24  1  0
 18 19  1  6
 20 19  1  0
 21 20  1  0
 22 21  1  0
 23 22  1  0
 24 25  1  0
 26 24  2  0
M  END
$$$$
