NLK.pdb
     RDKit          3D

 26 25  0  0  1  0  0  0  0  0999 V2000
    6.1998  -21.1860   22.5358 N   0  0  0  0  0  0  0  0  0  0  0  0
    6.0388  -19.8097   22.2038 C   0  0  0  0  0  0  0  0  0  0  0  0
    5.0803  -19.5056   21.4885 O   0  0  0  0  0  0  0  0  0  0  0  0
    7.0335  -18.8777   22.7466 C   0  0  0  0  0  0  0  0  0  0  0  0
    6.8031  -17.4321   22.4567 C   0  0  2  0  0  0  0  0  0  0  0  0
    7.1682  -17.2307   21.0555 N   0  0  0  0  0  0  0  0  0  0  0  0
    7.5854  -16.5169   23.3186 C   0  0  0  0  0  0  0  0  0  0  0  0
    8.8357  -16.4122   23.3063 O   0  0  0  0  0  0  0  0  0  0  0  0
    8.0009  -11.7060   26.0210 C   0  0  0  0  0  0  0  0  0  0  0  0
    7.1046  -12.7400   26.6282 C   0  0  1  0  0  0  0  0  0  0  0  0
    5.8960  -11.9704   27.1870 C   0  0  0  0  0  0  0  0  0  0  0  0
    6.5495  -13.7517   25.6961 C   0  0  0  0  0  0  0  0  0  0  0  0
    7.5232  -14.7555   25.1433 C   0  0  2  0  0  0  0  0  0  0  0  0
    6.8896  -15.6864   24.2351 N   0  0  0  0  0  0  0  0  0  0  0  0
    8.3681  -15.4128   26.1434 C   0  0  0  0  0  0  0  0  0  0  0  0
    7.8964  -16.3697   26.8085 O   0  0  0  0  0  0  0  0  0  0  0  0
    9.7184  -15.0471   26.4353 N   0  0  0  0  0  0  0  0  0  0  0  0
   10.6521  -15.9852   27.0941 C   0  0  1  0  0  0  0  0  0  0  0  0
   11.8595  -16.2019   26.2562 C   0  0  0  0  0  0  0  0  0  0  0  0
   12.8477  -17.1342   26.8796 C   0  0  0  0  0  0  0  0  0  0  0  0
   14.0687  -17.3044   25.9661 C   0  0  0  0  0  0  0  0  0  0  0  0
   14.9954  -18.3000   26.6469 C   0  0  0  0  0  0  0  0  0  0  0  0
   16.1989  -18.4437   25.8704 N   0  0  0  0  0  0  0  0  0  0  0  0
   10.8785  -15.5190   28.4625 C   0  0  0  0  0  0  0  0  0  0  0  0
   10.5196  -14.2777   28.9653 O   0  0  0  0  0  0  0  0  0  0  0  0
   11.4533  -16.2817   29.3054 O   0  0  0  0  0  0  0  0  0  0  0  0
  2  1  1  0
  2  3  2  0
  4  5  1  0
  4  2  1  0
  5  7  1  0
  5  6  1  6
  7  8  2  0
 10  9  1  6
 10 12  1  0
 10 11  1  0
 13 12  1  1
 13 15  1  0
 14  7  1  0
 14 13  1  0
 15 16  2  0
 17 18  1  0
 17 15  1  0
 18 24  1  0
 18 19  1  6
 20 19  1  0
 21 20  1  0
 22 21  1  0
 23 22  1  0
 24 25  1  0
 26 24  2  0
M  END
$$$$
