PFI.pdb
     RDKit          3D

 27 28  0  0  1  0  0  0  0  0999 V2000
    8.3326  -17.5611   20.3644 N   0  0  0  0  0  0  0  0  0  0  0  0
    8.0049  -17.7977   18.9914 C   0  0  0  0  0  0  0  0  0  0  0  0
    8.7116  -16.7704   18.1637 C   0  0  0  0  0  0  0  0  0  0  0  0
    9.0839  -15.7135   19.2019 C   0  0  0  0  0  0  0  0  0  0  0  0
    9.3805  -16.5931   20.3933 C   0  0  1  0  0  0  0  0  0  0  0  0
    9.4189  -15.8153   21.6526 C   0  0  0  0  0  0  0  0  0  0  0  0
   10.4190  -15.0951   21.8848 O   0  0  0  0  0  0  0  0  0  0  0  0
    8.3760  -15.8593   22.5895 N   0  0  0  0  0  0  0  0  0  0  0  0
    8.2643  -14.9174   23.6727 C   0  0  1  0  0  0  0  0  0  0  0  0
    6.9417  -14.1854   23.6379 C   0  0  0  0  0  0  0  0  0  0  0  0
    6.8387  -13.1659   24.7114 C   0  0  0  0  0  0  0  0  0  0  0  0
    6.1290  -13.3997   25.8694 C   0  0  0  0  0  0  0  0  0  0  0  0
    6.0418  -12.4284   26.8742 C   0  0  0  0  0  0  0  0  0  0  0  0
    6.6661  -11.2099   26.7296 C   0  0  0  0  0  0  0  0  0  0  0  0
    7.3727  -10.9873   25.5669 C   0  0  0  0  0  0  0  0  0  0  0  0
    7.4632  -11.9378   24.5738 C   0  0  0  0  0  0  0  0  0  0  0  0
    8.5067  -15.5527   24.9934 C   0  0  0  0  0  0  0  0  0  0  0  0
    7.7169  -15.2602   25.9246 O   0  0  0  0  0  0  0  0  0  0  0  0
    9.7652  -13.7245   29.0122 C   0  0  0  0  0  0  0  0  0  0  0  0
   10.2631  -14.1534   27.6700 C   0  0  0  0  0  0  0  0  0  0  0  0
   10.1994  -15.6340   27.4173 C   0  0  2  0  0  0  0  0  0  0  0  0
   10.9326  -16.3133   28.5681 C   0  0  0  0  0  0  0  0  0  0  0  0
   10.6981  -16.0773   26.0897 C   0  0  2  0  0  0  0  0  0  0  0  0
    9.5625  -16.4561   25.2615 N   0  0  0  0  0  0  0  0  0  0  0  0
   11.7041  -17.1576   26.1596 C   0  0  0  0  0  0  0  0  0  0  0  0
   12.8300  -16.9412   26.7213 O   0  0  0  0  0  0  0  0  0  0  0  0
   11.5160  -18.4253   25.6488 O   0  0  0  0  0  0  0  0  0  0  0  0
  1  2  1  0
  2  3  1  0
  4  3  1  0
  5  1  1  0
  5  4  1  0
  5  6  1  1
  7  6  2  0
  8  6  1  0
  9  8  1  0
  9 10  1  1
 10 11  1  0
 11 12  2  0
 12 13  1  0
 14 13  2  0
 15 14  1  0
 16 11  1  0
 16 15  2  0
 17 24  1  0
 17  9  1  0
 18 17  2  0
 20 19  1  0
 21 20  1  0
 21 22  1  1
 23 21  1  0
 23 24  1  6
 25 23  1  0
 26 25  2  0
 27 25  1  0
M  END
$$$$
