PFI.pdb
     RDKit          3D

 27 28  0  0  1  0  0  0  0  0999 V2000
    9.2285  -18.1801   19.7614 N   0  0  0  0  0  0  0  0  0  0  0  0
    8.9834  -18.5297   18.3953 C   0  0  0  0  0  0  0  0  0  0  0  0
    9.5447  -17.4436   17.5321 C   0  0  0  0  0  0  0  0  0  0  0  0
    9.7152  -16.2935   18.5230 C   0  0  0  0  0  0  0  0  0  0  0  0
   10.1102  -17.0582   19.7641 C   0  0  1  0  0  0  0  0  0  0  0  0
    9.9882  -16.2259   20.9826 C   0  0  0  0  0  0  0  0  0  0  0  0
   10.8587  -15.3503   21.2028 O   0  0  0  0  0  0  0  0  0  0  0  0
    8.9342  -16.3862   21.8938 N   0  0  0  0  0  0  0  0  0  0  0  0
    8.6796  -15.4522   22.9597 C   0  0  1  0  0  0  0  0  0  0  0  0
    7.2128  -15.0957   23.0471 C   0  0  0  0  0  0  0  0  0  0  0  0
    6.9511  -14.0524   24.0697 C   0  0  0  0  0  0  0  0  0  0  0  0
    6.3827  -14.3560   25.2879 C   0  0  0  0  0  0  0  0  0  0  0  0
    6.1430  -13.3610   26.2434 C   0  0  0  0  0  0  0  0  0  0  0  0
    6.4710  -12.0484   25.9885 C   0  0  0  0  0  0  0  0  0  0  0  0
    7.0386  -11.7568   24.7664 C   0  0  0  0  0  0  0  0  0  0  0  0
    7.2776  -12.7301   23.8211 C   0  0  0  0  0  0  0  0  0  0  0  0
    9.2073  -15.9331   24.2624 C   0  0  0  0  0  0  0  0  0  0  0  0
    9.3596  -17.1719   24.3979 O   0  0  0  0  0  0  0  0  0  0  0  0
   10.8193  -13.8962   29.9365 C   0  0  0  0  0  0  0  0  0  0  0  0
   10.9595  -14.9042   28.8421 C   0  0  0  0  0  0  0  0  0  0  0  0
   10.3042  -14.5211   27.5443 C   0  0  2  0  0  0  0  0  0  0  0  0
    8.9242  -13.9727   27.8879 C   0  0  0  0  0  0  0  0  0  0  0  0
   10.2464  -15.5933   26.5172 C   0  0  2  0  0  0  0  0  0  0  0  0
    9.5432  -15.0883   25.3469 N   0  0  0  0  0  0  0  0  0  0  0  0
    9.6534  -16.8562   27.0045 C   0  0  0  0  0  0  0  0  0  0  0  0
   10.3542  -17.6550   27.7121 O   0  0  0  0  0  0  0  0  0  0  0  0
    8.3577  -17.2535   26.7468 O   0  0  0  0  0  0  0  0  0  0  0  0
  1  2  1  0
  2  3  1  0
  4  3  1  0
  5  1  1  0
  5  4  1  0
  5  6  1  1
  7  6  2  0
  8  6  1  0
  9  8  1  0
  9 10  1  1
 10 11  1  0
 11 12  2  0
 12 13  1  0
 14 13  2  0
 15 14  1  0
 16 11  1  0
 16 15  2  0
 17 24  1  0
 17  9  1  0
 18 17  2  0
 20 19  1  0
 21 20  1  0
 21 22  1  1
 23 21  1  0
 23 24  1  6
 25 23  1  0
 26 25  2  0
 27 25  1  0
M  END
$$$$
