PFI.pdb
     RDKit          3D

 27 28  0  0  1  0  0  0  0  0999 V2000
    9.6265  -18.2935   20.0489 N   0  0  0  0  0  0  0  0  0  0  0  0
    9.4437  -18.6562   18.6765 C   0  0  0  0  0  0  0  0  0  0  0  0
    9.9254  -17.5201   17.8298 C   0  0  0  0  0  0  0  0  0  0  0  0
    9.9712  -16.3647   18.8280 C   0  0  0  0  0  0  0  0  0  0  0  0
   10.4048  -17.0979   20.0752 C   0  0  1  0  0  0  0  0  0  0  0  0
   10.1826  -16.2861   21.2934 C   0  0  0  0  0  0  0  0  0  0  0  0
   11.0995  -15.5254   21.6851 O   0  0  0  0  0  0  0  0  0  0  0  0
    8.9837  -16.3417   22.0191 N   0  0  0  0  0  0  0  0  0  0  0  0
    8.6942  -15.4489   23.1110 C   0  0  1  0  0  0  0  0  0  0  0  0
    7.2353  -15.0521   23.1320 C   0  0  0  0  0  0  0  0  0  0  0  0
    6.9402  -14.0635   24.1988 C   0  0  0  0  0  0  0  0  0  0  0  0
    6.3872  -14.4389   25.4040 C   0  0  0  0  0  0  0  0  0  0  0  0
    6.1155  -13.4948   26.4017 C   0  0  0  0  0  0  0  0  0  0  0  0
    6.3956  -12.1616   26.2025 C   0  0  0  0  0  0  0  0  0  0  0  0
    6.9482  -11.7980   24.9929 C   0  0  0  0  0  0  0  0  0  0  0  0
    7.2184  -12.7209   24.0064 C   0  0  0  0  0  0  0  0  0  0  0  0
    9.1323  -16.0031   24.4178 C   0  0  0  0  0  0  0  0  0  0  0  0
    9.2261  -17.2517   24.5091 O   0  0  0  0  0  0  0  0  0  0  0  0
   10.8621  -14.4124   30.1030 C   0  0  0  0  0  0  0  0  0  0  0  0
   11.3185  -15.0396   28.8256 C   0  0  0  0  0  0  0  0  0  0  0  0
   10.5243  -14.6466   27.6111 C   0  0  2  0  0  0  0  0  0  0  0  0
    9.2444  -13.9870   28.1112 C   0  0  0  0  0  0  0  0  0  0  0  0
   10.2548  -15.7407   26.6427 C   0  0  2  0  0  0  0  0  0  0  0  0
    9.4452  -15.2170   25.5521 N   0  0  0  0  0  0  0  0  0  0  0  0
    9.6384  -16.9384   27.2506 C   0  0  0  0  0  0  0  0  0  0  0  0
   10.3199  -17.6690   28.0454 O   0  0  0  0  0  0  0  0  0  0  0  0
    8.3398  -17.3428   27.0196 O   0  0  0  0  0  0  0  0  0  0  0  0
  1  2  1  0
  2  3  1  0
  4  3  1  0
  5  1  1  0
  5  4  1  0
  5  6  1  1
  7  6  2  0
  8  6  1  0
  9  8  1  0
  9 10  1  1
 10 11  1  0
 11 12  2  0
 12 13  1  0
 14 13  2  0
 15 14  1  0
 16 11  1  0
 16 15  2  0
 17 24  1  0
 17  9  1  0
 18 17  2  0
 20 19  1  0
 21 20  1  0
 21 22  1  1
 23 21  1  0
 23 24  1  6
 25 23  1  0
 26 25  2  0
 27 25  1  0
M  END
$$$$
