PFI.pdb
     RDKit          3D

 27 28  0  0  1  0  0  0  0  0999 V2000
    8.6861  -17.7800   19.9406 N   0  0  0  0  0  0  0  0  0  0  0  0
    8.3706  -18.0060   18.5629 C   0  0  0  0  0  0  0  0  0  0  0  0
    8.9537  -16.8823   17.7647 C   0  0  0  0  0  0  0  0  0  0  0  0
    9.2218  -15.8256   18.8347 C   0  0  0  0  0  0  0  0  0  0  0  0
    9.6242  -16.7062   19.9940 C   0  0  1  0  0  0  0  0  0  0  0  0
    9.5927  -15.9699   21.2782 C   0  0  0  0  0  0  0  0  0  0  0  0
   10.5471  -15.2057   21.5572 O   0  0  0  0  0  0  0  0  0  0  0  0
    8.5333  -16.1006   22.1879 N   0  0  0  0  0  0  0  0  0  0  0  0
    8.4224  -15.2906   23.3731 C   0  0  1  0  0  0  0  0  0  0  0  0
    7.0120  -14.7817   23.5680 C   0  0  0  0  0  0  0  0  0  0  0  0
    6.9050  -13.8613   24.7273 C   0  0  0  0  0  0  0  0  0  0  0  0
    7.3800  -12.5687   24.6746 C   0  0  0  0  0  0  0  0  0  0  0  0
    7.2707  -11.7114   25.7762 C   0  0  0  0  0  0  0  0  0  0  0  0
    6.6831  -12.1405   26.9450 C   0  0  0  0  0  0  0  0  0  0  0  0
    6.2121  -13.4356   26.9860 C   0  0  0  0  0  0  0  0  0  0  0  0
    6.3158  -14.2851   25.9064 C   0  0  0  0  0  0  0  0  0  0  0  0
    8.9247  -15.9949   24.5807 C   0  0  0  0  0  0  0  0  0  0  0  0
    8.6730  -17.2213   24.6762 O   0  0  0  0  0  0  0  0  0  0  0  0
   10.3601  -13.9290   29.3475 C   0  0  0  0  0  0  0  0  0  0  0  0
   10.6711  -13.9698   27.8863 C   0  0  0  0  0  0  0  0  0  0  0  0
   11.2529  -15.2685   27.4014 C   0  0  2  0  0  0  0  0  0  0  0  0
   12.4926  -14.9229   26.5847 C   0  0  0  0  0  0  0  0  0  0  0  0
   10.3155  -16.1508   26.6594 C   0  0  2  0  0  0  0  0  0  0  0  0
    9.6601  -15.3732   25.6177 N   0  0  0  0  0  0  0  0  0  0  0  0
    9.3334  -16.8395   27.5225 C   0  0  0  0  0  0  0  0  0  0  0  0
    9.7385  -17.6314   28.4384 O   0  0  0  0  0  0  0  0  0  0  0  0
    7.9664  -16.6888   27.4135 O   0  0  0  0  0  0  0  0  0  0  0  0
  1  2  1  0
  2  3  1  0
  4  3  1  0
  5  1  1  0
  5  4  1  0
  5  6  1  1
  7  6  2  0
  8  6  1  0
  9  8  1  0
  9 10  1  1
 10 11  1  0
 11 12  2  0
 12 13  1  0
 14 13  2  0
 15 14  1  0
 16 11  1  0
 16 15  2  0
 17 24  1  0
 17  9  1  0
 18 17  2  0
 20 19  1  0
 21 20  1  0
 21 22  1  6
 23 21  1  0
 23 24  1  6
 25 23  1  0
 26 25  2  0
 27 25  1  0
M  END
$$$$
