PFI.pdb
     RDKit          3D

 27 28  0  0  1  0  0  0  0  0999 V2000
    7.6098  -15.5713   19.7093 N   0  0  0  0  0  0  0  0  0  0  0  0
    7.1471  -15.1793   18.4129 C   0  0  0  0  0  0  0  0  0  0  0  0
    7.9260  -13.9738   17.9888 C   0  0  0  0  0  0  0  0  0  0  0  0
    8.5231  -13.4892   19.3087 C   0  0  0  0  0  0  0  0  0  0  0  0
    8.7832  -14.8105   19.9927 C   0  0  1  0  0  0  0  0  0  0  0  0
    9.0282  -14.6380   21.4427 C   0  0  0  0  0  0  0  0  0  0  0  0
   10.1544  -14.2344   21.8188 O   0  0  0  0  0  0  0  0  0  0  0  0
    8.0440  -14.9112   22.4039 N   0  0  0  0  0  0  0  0  0  0  0  0
    8.1774  -14.5244   23.7843 C   0  0  1  0  0  0  0  0  0  0  0  0
    6.8762  -13.9910   24.3398 C   0  0  0  0  0  0  0  0  0  0  0  0
    7.0624  -13.3135   25.6470 C   0  0  0  0  0  0  0  0  0  0  0  0
    6.0075  -12.7437   26.3265 C   0  0  0  0  0  0  0  0  0  0  0  0
    6.1984  -12.1089   27.5599 C   0  0  0  0  0  0  0  0  0  0  0  0
    7.4509  -12.0379   28.1271 C   0  0  0  0  0  0  0  0  0  0  0  0
    8.4985  -12.6110   27.4379 C   0  0  0  0  0  0  0  0  0  0  0  0
    8.3186  -13.2373   26.2241 C   0  0  0  0  0  0  0  0  0  0  0  0
    8.7242  -15.6223   24.6224 C   0  0  0  0  0  0  0  0  0  0  0  0
    8.0238  -16.6576   24.7403 O   0  0  0  0  0  0  0  0  0  0  0  0
   13.5456  -17.0435   23.4269 C   0  0  0  0  0  0  0  0  0  0  0  0
   12.1311  -16.9507   23.9003 C   0  0  0  0  0  0  0  0  0  0  0  0
   11.9688  -16.8863   25.3935 C   0  0  2  0  0  0  0  0  0  0  0  0
   12.6736  -18.1084   25.9705 C   0  0  0  0  0  0  0  0  0  0  0  0
   10.5702  -16.7592   25.8790 C   0  0  2  0  0  0  0  0  0  0  0  0
    9.9718  -15.5708   25.2884 N   0  0  0  0  0  0  0  0  0  0  0  0
   10.4470  -16.7550   27.3516 C   0  0  0  0  0  0  0  0  0  0  0  0
   10.3873  -15.6456   27.9805 O   0  0  0  0  0  0  0  0  0  0  0  0
   10.3888  -17.8945   28.1271 O   0  0  0  0  0  0  0  0  0  0  0  0
  1  2  1  0
  2  3  1  0
  4  3  1  0
  5  1  1  0
  5  4  1  0
  5  6  1  1
  7  6  2  0
  8  6  1  0
  9  8  1  0
  9 10  1  1
 10 11  1  0
 11 12  2  0
 12 13  1  0
 14 13  2  0
 15 14  1  0
 16 11  1  0
 16 15  2  0
 17 24  1  0
 17  9  1  0
 18 17  2  0
 20 19  1  0
 21 20  1  0
 21 22  1  1
 23 21  1  0
 23 24  1  1
 25 23  1  0
 26 25  2  0
 27 25  1  0
M  END
$$$$
