PFI.pdb
     RDKit          3D

 27 28  0  0  1  0  0  0  0  0999 V2000
    9.5548  -18.1131   20.1152 N   0  0  0  0  0  0  0  0  0  0  0  0
    9.4955  -18.4444   18.7240 C   0  0  0  0  0  0  0  0  0  0  0  0
   10.2651  -17.4068   17.9683 C   0  0  0  0  0  0  0  0  0  0  0  0
   10.3706  -16.2723   18.9858 C   0  0  0  0  0  0  0  0  0  0  0  0
   10.5101  -17.0638   20.2645 C   0  0  1  0  0  0  0  0  0  0  0  0
   10.2679  -16.2227   21.4588 C   0  0  0  0  0  0  0  0  0  0  0  0
   11.1478  -15.3975   21.8020 O   0  0  0  0  0  0  0  0  0  0  0  0
    9.0904  -16.3203   22.2144 N   0  0  0  0  0  0  0  0  0  0  0  0
    8.7741  -15.4072   23.2818 C   0  0  1  0  0  0  0  0  0  0  0  0
    7.3134  -15.0169   23.2642 C   0  0  0  0  0  0  0  0  0  0  0  0
    6.9845  -14.0345   24.3268 C   0  0  0  0  0  0  0  0  0  0  0  0
    7.2912  -12.6970   24.1996 C   0  0  0  0  0  0  0  0  0  0  0  0
    6.9733  -11.7816   25.2103 C   0  0  0  0  0  0  0  0  0  0  0  0
    6.3433  -12.1970   26.3618 C   0  0  0  0  0  0  0  0  0  0  0  0
    6.0420  -13.5373   26.4780 C   0  0  0  0  0  0  0  0  0  0  0  0
    6.3514  -14.4441   25.4881 C   0  0  0  0  0  0  0  0  0  0  0  0
    9.1869  -15.9332   24.6083 C   0  0  0  0  0  0  0  0  0  0  0  0
    9.3339  -17.1758   24.7126 O   0  0  0  0  0  0  0  0  0  0  0  0
   12.4932  -14.7336   29.1698 C   0  0  0  0  0  0  0  0  0  0  0  0
   11.0079  -14.8983   29.1638 C   0  0  0  0  0  0  0  0  0  0  0  0
   10.3364  -14.5181   27.8736 C   0  0  2  0  0  0  0  0  0  0  0  0
    8.9969  -13.8889   28.2381 C   0  0  0  0  0  0  0  0  0  0  0  0
   10.1942  -15.6141   26.8805 C   0  0  2  0  0  0  0  0  0  0  0  0
    9.4202  -15.1272   25.7478 N   0  0  0  0  0  0  0  0  0  0  0  0
    9.6182  -16.8553   27.4388 C   0  0  0  0  0  0  0  0  0  0  0  0
   10.3203  -17.5886   28.2129 O   0  0  0  0  0  0  0  0  0  0  0  0
    8.3377  -17.2990   27.1812 O   0  0  0  0  0  0  0  0  0  0  0  0
  1  2  1  0
  2  3  1  0
  4  3  1  0
  5  1  1  0
  5  4  1  0
  5  6  1  1
  7  6  2  0
  8  6  1  0
  9  8  1  0
  9 10  1  1
 10 11  1  0
 11 12  2  0
 12 13  1  0
 14 13  2  0
 15 14  1  0
 16 11  1  0
 16 15  2  0
 17 24  1  0
 17  9  1  0
 18 17  2  0
 20 19  1  0
 21 20  1  0
 21 22  1  1
 23 21  1  0
 23 24  1  6
 25 23  1  0
 26 25  2  0
 27 25  1  0
M  END
$$$$
