PFI.pdb
     RDKit          3D

 27 28  0  0  1  0  0  0  0  0999 V2000
    9.7730  -18.2281   20.0765 N   0  0  0  0  0  0  0  0  0  0  0  0
    9.7451  -18.5323   18.6782 C   0  0  0  0  0  0  0  0  0  0  0  0
   10.4690  -17.4414   17.9530 C   0  0  0  0  0  0  0  0  0  0  0  0
   10.5062  -16.3248   18.9949 C   0  0  0  0  0  0  0  0  0  0  0  0
   10.6722  -17.1353   20.2585 C   0  0  1  0  0  0  0  0  0  0  0  0
   10.3753  -16.3331   21.4671 C   0  0  0  0  0  0  0  0  0  0  0  0
   11.1885  -15.4434   21.8136 O   0  0  0  0  0  0  0  0  0  0  0  0
    9.2179  -16.5369   22.2326 N   0  0  0  0  0  0  0  0  0  0  0  0
    8.8784  -15.7117   23.3626 C   0  0  1  0  0  0  0  0  0  0  0  0
    7.3924  -15.4389   23.4245 C   0  0  0  0  0  0  0  0  0  0  0  0
    7.0537  -14.4180   24.4470 C   0  0  0  0  0  0  0  0  0  0  0  0
    7.2556  -13.0729   24.2251 C   0  0  0  0  0  0  0  0  0  0  0  0
    6.9298  -12.1211   25.1990 C   0  0  0  0  0  0  0  0  0  0  0  0
    6.3968  -12.5073   26.4083 C   0  0  0  0  0  0  0  0  0  0  0  0
    6.1998  -13.8555   26.6190 C   0  0  0  0  0  0  0  0  0  0  0  0
    6.5178  -14.7979   25.6658 C   0  0  0  0  0  0  0  0  0  0  0  0
    9.3878  -16.2748   24.6394 C   0  0  0  0  0  0  0  0  0  0  0  0
    9.7096  -17.4884   24.6435 O   0  0  0  0  0  0  0  0  0  0  0  0
   10.1772  -12.7540   28.9380 C   0  0  0  0  0  0  0  0  0  0  0  0
   10.4323  -13.7317   27.8368 C   0  0  0  0  0  0  0  0  0  0  0  0
   10.0312  -15.1474   28.1451 C   0  0  2  0  0  0  0  0  0  0  0  0
   10.8319  -15.5802   29.3677 C   0  0  0  0  0  0  0  0  0  0  0  0
   10.1584  -16.1071   27.0179 C   0  0  2  0  0  0  0  0  0  0  0  0
    9.5290  -15.5341   25.8369 N   0  0  0  0  0  0  0  0  0  0  0  0
    9.6283  -17.4537   27.3169 C   0  0  0  0  0  0  0  0  0  0  0  0
    8.3874  -17.7000   27.1448 O   0  0  0  0  0  0  0  0  0  0  0  0
   10.3947  -18.5019   27.7827 O   0  0  0  0  0  0  0  0  0  0  0  0
  1  2  1  0
  2  3  1  0
  4  3  1  0
  5  1  1  0
  5  4  1  0
  5  6  1  1
  7  6  2  0
  8  6  1  0
  9  8  1  0
  9 10  1  1
 10 11  1  0
 11 12  2  0
 12 13  1  0
 14 13  2  0
 15 14  1  0
 16 11  1  0
 16 15  2  0
 17 24  1  0
 17  9  1  0
 18 17  2  0
 20 19  1  0
 21 20  1  0
 21 22  1  1
 23 21  1  0
 23 24  1  6
 25 23  1  0
 26 25  2  0
 27 25  1  0
M  END
$$$$
