CWA.pdb
     RDKit          3D

 26 27  0  0  1  0  0  0  0  0999 V2000
   10.2438  -16.0808   17.9504 N   0  0  0  0  0  0  0  0  0  0  0  0
    9.3837  -16.6997   18.9221 C   0  0  1  0  0  0  0  0  0  0  0  0
    9.6452  -18.1931   18.9775 C   0  0  0  0  0  0  0  0  0  0  0  0
   11.2755  -18.4525   19.7040 S   0  0  0  0  0  0  0  0  0  0  0  0
    9.5430  -16.0856   20.2703 C   0  0  0  0  0  0  0  0  0  0  0  0
   10.5719  -15.3937   20.4748 O   0  0  0  0  0  0  0  0  0  0  0  0
    8.5881  -16.2600   21.2954 N   0  0  0  0  0  0  0  0  0  0  0  0
    8.6886  -15.5614   22.6037 C   0  0  1  0  0  0  0  0  0  0  0  0
    7.2832  -15.3573   23.0226 C   0  0  0  0  0  0  0  0  0  0  0  0
    6.9969  -14.9966   24.4006 C   0  0  0  0  0  0  0  0  0  0  0  0
    6.6319  -15.7835   25.4782 C   0  0  0  0  0  0  0  0  0  0  0  0
    6.4629  -14.9774   26.5351 N   0  0  0  0  0  0  0  0  0  0  0  0
    6.6971  -13.7062   26.2113 C   0  0  0  0  0  0  0  0  0  0  0  0
    6.6807  -12.5067   26.9306 C   0  0  0  0  0  0  0  0  0  0  0  0
    6.9939  -11.2971   26.3465 C   0  0  0  0  0  0  0  0  0  0  0  0
    7.3285  -11.2911   25.0188 C   0  0  0  0  0  0  0  0  0  0  0  0
    7.3432  -12.4706   24.3148 C   0  0  0  0  0  0  0  0  0  0  0  0
    7.0296  -13.6963   24.8924 C   0  0  0  0  0  0  0  0  0  0  0  0
    9.4794  -16.4027   23.4890 C   0  0  0  0  0  0  0  0  0  0  0  0
    9.4726  -17.6515   23.3562 O   0  0  0  0  0  0  0  0  0  0  0  0
   10.0566  -17.7601   26.0998 C   0  0  0  0  0  0  0  0  0  0  0  0
   11.0080  -16.7172   25.4899 C   0  0  2  0  0  0  0  0  0  0  0  0
   10.3105  -15.8993   24.5430 N   0  0  0  0  0  0  0  0  0  0  0  0
   12.1418  -17.4717   24.9584 C   0  0  0  0  0  0  0  0  0  0  0  0
   12.4420  -17.2967   23.5956 O   0  0  0  0  0  0  0  0  0  0  0  0
   12.8228  -18.2381   25.6596 O   0  0  0  0  0  0  0  0  0  0  0  0
  2  5  1  0
  2  1  1  6
  3  2  1  0
  4  3  1  0
  5  6  2  0
  7  8  1  0
  7  5  1  0
  8  9  1  1
 10  9  1  0
 11 10  2  0
 12 13  1  0
 12 11  1  0
 13 18  2  0
 14 13  1  0
 14 15  2  0
 15 16  1  0
 16 17  2  0
 18 10  1  0
 18 17  1  0
 19 20  2  0
 19  8  1  0
 22 21  1  6
 22 23  1  0
 23 19  1  0
 24 22  1  0
 24 25  1  0
 26 24  2  0
M  END
$$$$
