CWA.pdb
     RDKit          3D

 26 27  0  0  1  0  0  0  0  0999 V2000
    6.8022  -14.6687   20.0452 N   0  0  0  0  0  0  0  0  0  0  0  0
    7.4073  -15.7667   20.7489 C   0  0  1  0  0  0  0  0  0  0  0  0
    8.1463  -16.6680   19.7777 C   0  0  0  0  0  0  0  0  0  0  0  0
    7.3012  -18.2607   19.7335 S   0  0  0  0  0  0  0  0  0  0  0  0
    8.3191  -15.2942   21.8287 C   0  0  0  0  0  0  0  0  0  0  0  0
    8.9066  -14.1974   21.6533 O   0  0  0  0  0  0  0  0  0  0  0  0
    8.5312  -16.0332   23.0128 N   0  0  0  0  0  0  0  0  0  0  0  0
    9.3486  -15.5125   24.1399 C   0  0  1  0  0  0  0  0  0  0  0  0
    8.5845  -15.8833   25.3527 C   0  0  0  0  0  0  0  0  0  0  0  0
    7.3826  -15.1402   25.6910 C   0  0  0  0  0  0  0  0  0  0  0  0
    6.0668  -15.5561   25.7895 C   0  0  0  0  0  0  0  0  0  0  0  0
    5.3236  -14.4894   26.1137 N   0  0  0  0  0  0  0  0  0  0  0  0
    6.0780  -13.3976   26.2339 C   0  0  0  0  0  0  0  0  0  0  0  0
    5.8060  -12.0667   26.5671 C   0  0  0  0  0  0  0  0  0  0  0  0
    6.7992  -11.1129   26.6462 C   0  0  0  0  0  0  0  0  0  0  0  0
    8.0863  -11.5009   26.3861 C   0  0  0  0  0  0  0  0  0  0  0  0
    8.3503  -12.8087   26.0585 C   0  0  0  0  0  0  0  0  0  0  0  0
    7.3577  -13.7794   25.9757 C   0  0  0  0  0  0  0  0  0  0  0  0
   10.6695  -16.1135   24.0362 C   0  0  0  0  0  0  0  0  0  0  0  0
   11.5408  -15.8934   24.9136 O   0  0  0  0  0  0  0  0  0  0  0  0
   13.2727  -16.7095   21.9508 C   0  0  0  0  0  0  0  0  0  0  0  0
   12.3734  -17.5732   22.8507 C   0  0  2  0  0  0  0  0  0  0  0  0
   11.0736  -16.9829   22.9704 N   0  0  0  0  0  0  0  0  0  0  0  0
   13.1069  -17.7447   24.1037 C   0  0  0  0  0  0  0  0  0  0  0  0
   14.3446  -18.4087   24.0328 O   0  0  0  0  0  0  0  0  0  0  0  0
   12.6758  -17.3313   25.1928 O   0  0  0  0  0  0  0  0  0  0  0  0
  2  5  1  0
  2  1  1  6
  3  2  1  0
  4  3  1  0
  5  6  2  0
  7  8  1  0
  7  5  1  0
  8  9  1  1
 10  9  1  0
 11 10  2  0
 12 13  1  0
 12 11  1  0
 13 18  2  0
 14 13  1  0
 14 15  2  0
 15 16  1  0
 16 17  2  0
 18 10  1  0
 18 17  1  0
 19 20  2  0
 19  8  1  0
 22 21  1  6
 22 23  1  0
 23 19  1  0
 24 22  1  0
 24 25  1  0
 26 24  2  0
M  END
$$$$
