CWA.pdb
     RDKit          3D

 26 27  0  0  1  0  0  0  0  0999 V2000
    7.8143  -14.6045   20.0705 N   0  0  0  0  0  0  0  0  0  0  0  0
    7.9946  -15.7215   20.9575 C   0  0  1  0  0  0  0  0  0  0  0  0
    8.6340  -16.8808   20.2167 C   0  0  0  0  0  0  0  0  0  0  0  0
    7.3960  -17.5989   19.1191 S   0  0  0  0  0  0  0  0  0  0  0  0
    8.8011  -15.3507   22.1543 C   0  0  0  0  0  0  0  0  0  0  0  0
    9.5870  -14.3763   22.0453 O   0  0  0  0  0  0  0  0  0  0  0  0
    8.7035  -16.0524   23.3755 N   0  0  0  0  0  0  0  0  0  0  0  0
    9.5079  -15.6853   24.5705 C   0  0  1  0  0  0  0  0  0  0  0  0
    8.6065  -15.9437   25.7163 C   0  0  0  0  0  0  0  0  0  0  0  0
    7.4198  -15.1230   25.8870 C   0  0  0  0  0  0  0  0  0  0  0  0
    6.0789  -15.4554   25.8126 C   0  0  0  0  0  0  0  0  0  0  0  0
    5.3682  -14.3402   26.0281 N   0  0  0  0  0  0  0  0  0  0  0  0
    6.1675  -13.2953   26.2401 C   0  0  0  0  0  0  0  0  0  0  0  0
    5.9383  -11.9453   26.5254 C   0  0  0  0  0  0  0  0  0  0  0  0
    6.9706  -11.0534   26.7293 C   0  0  0  0  0  0  0  0  0  0  0  0
    8.2537  -11.5240   26.6450 C   0  0  0  0  0  0  0  0  0  0  0  0
    8.4756  -12.8503   26.3642 C   0  0  0  0  0  0  0  0  0  0  0  0
    7.4434  -13.7591   26.1568 C   0  0  0  0  0  0  0  0  0  0  0  0
   10.7196  -16.4901   24.5461 C   0  0  0  0  0  0  0  0  0  0  0  0
   11.1027  -17.0972   25.5766 O   0  0  0  0  0  0  0  0  0  0  0  0
   12.0224  -19.0540   23.3829 C   0  0  0  0  0  0  0  0  0  0  0  0
   12.5939  -17.6307   23.2711 C   0  0  2  0  0  0  0  0  0  0  0  0
   11.5451  -16.6618   23.3866 N   0  0  0  0  0  0  0  0  0  0  0  0
   13.3478  -17.5989   22.0190 C   0  0  0  0  0  0  0  0  0  0  0  0
   14.7499  -17.6489   22.1170 O   0  0  0  0  0  0  0  0  0  0  0  0
   12.7965  -17.5308   20.9080 O   0  0  0  0  0  0  0  0  0  0  0  0
  2  5  1  0
  2  1  1  6
  3  2  1  0
  4  3  1  0
  5  6  2  0
  7  8  1  0
  7  5  1  0
  8  9  1  1
 10  9  1  0
 11 10  2  0
 12 13  1  0
 12 11  1  0
 13 18  2  0
 14 13  1  0
 14 15  2  0
 15 16  1  0
 16 17  2  0
 18 10  1  0
 18 17  1  0
 19 20  2  0
 19  8  1  0
 22 21  1  6
 22 23  1  0
 23 19  1  0
 24 22  1  0
 24 25  1  0
 26 24  2  0
M  END
$$$$
