CWA.pdb
     RDKit          3D

 26 27  0  0  1  0  0  0  0  0999 V2000
   11.7955  -16.2349   19.6914 N   0  0  0  0  0  0  0  0  0  0  0  0
   11.6229  -16.9758   20.9113 C   0  0  1  0  0  0  0  0  0  0  0  0
   12.9185  -17.6672   21.2921 C   0  0  0  0  0  0  0  0  0  0  0  0
   13.1525  -19.0728   20.1863 S   0  0  0  0  0  0  0  0  0  0  0  0
   11.1428  -16.1058   22.0217 C   0  0  0  0  0  0  0  0  0  0  0  0
   11.7455  -15.0194   22.2097 O   0  0  0  0  0  0  0  0  0  0  0  0
   10.0542  -16.4668   22.8450 N   0  0  0  0  0  0  0  0  0  0  0  0
    9.5075  -15.5568   23.8856 C   0  0  1  0  0  0  0  0  0  0  0  0
    8.0384  -15.6635   23.7350 C   0  0  0  0  0  0  0  0  0  0  0  0
    7.1753  -15.0707   24.7422 C   0  0  0  0  0  0  0  0  0  0  0  0
    6.3590  -15.6643   25.6884 C   0  0  0  0  0  0  0  0  0  0  0  0
    5.7496  -14.6876   26.3739 N   0  0  0  0  0  0  0  0  0  0  0  0
    6.1207  -13.4869   25.9309 C   0  0  0  0  0  0  0  0  0  0  0  0
    5.8033  -12.1775   26.3066 C   0  0  0  0  0  0  0  0  0  0  0  0
    6.3598  -11.0804   25.6829 C   0  0  0  0  0  0  0  0  0  0  0  0
    7.2490  -11.3009   24.6653 C   0  0  0  0  0  0  0  0  0  0  0  0
    7.5584  -12.5880   24.2982 C   0  0  0  0  0  0  0  0  0  0  0  0
    7.0041  -13.7021   24.9194 C   0  0  0  0  0  0  0  0  0  0  0  0
   10.0289  -15.9982   25.1701 C   0  0  0  0  0  0  0  0  0  0  0  0
   10.2673  -17.2136   25.3778 O   0  0  0  0  0  0  0  0  0  0  0  0
   10.6894  -14.3692   28.5562 C   0  0  0  0  0  0  0  0  0  0  0  0
   10.7225  -15.5479   27.5692 C   0  0  2  0  0  0  0  0  0  0  0  0
   10.3140  -15.1180   26.2652 N   0  0  0  0  0  0  0  0  0  0  0  0
    9.9048  -16.5989   28.1725 C   0  0  0  0  0  0  0  0  0  0  0  0
   10.3726  -17.1608   29.3739 O   0  0  0  0  0  0  0  0  0  0  0  0
    8.8420  -16.9934   27.6649 O   0  0  0  0  0  0  0  0  0  0  0  0
  2  5  1  0
  2  1  1  6
  3  2  1  0
  4  3  1  0
  5  6  2  0
  7  8  1  0
  7  5  1  0
  8  9  1  1
 10  9  1  0
 11 10  2  0
 12 13  1  0
 12 11  1  0
 13 18  2  0
 14 13  1  0
 14 15  2  0
 15 16  1  0
 16 17  2  0
 18 10  1  0
 18 17  1  0
 19 20  2  0
 19  8  1  0
 22 21  1  1
 22 23  1  0
 23 19  1  0
 24 22  1  0
 24 25  1  0
 26 24  2  0
M  END
$$$$
