CWA.pdb
     RDKit          3D

 26 27  0  0  1  0  0  0  0  0999 V2000
    7.1883  -14.5313   19.6169 N   0  0  0  0  0  0  0  0  0  0  0  0
    7.1155  -15.5578   20.6208 C   0  0  1  0  0  0  0  0  0  0  0  0
    7.1164  -16.9282   19.9698 C   0  0  0  0  0  0  0  0  0  0  0  0
    8.6182  -17.0815   18.9828 S   0  0  0  0  0  0  0  0  0  0  0  0
    8.2246  -15.4422   21.6092 C   0  0  0  0  0  0  0  0  0  0  0  0
    9.2510  -14.8080   21.2579 O   0  0  0  0  0  0  0  0  0  0  0  0
    8.1487  -16.0148   22.8974 N   0  0  0  0  0  0  0  0  0  0  0  0
    9.2604  -15.9152   23.8792 C   0  0  1  0  0  0  0  0  0  0  0  0
    8.6001  -16.0379   25.1988 C   0  0  0  0  0  0  0  0  0  0  0  0
    7.4996  -15.1486   25.5289 C   0  0  0  0  0  0  0  0  0  0  0  0
    6.1369  -15.3831   25.5732 C   0  0  0  0  0  0  0  0  0  0  0  0
    5.5350  -14.2358   25.9148 N   0  0  0  0  0  0  0  0  0  0  0  0
    6.4263  -13.2622   26.0975 C   0  0  0  0  0  0  0  0  0  0  0  0
    6.3266  -11.9182   26.4717 C   0  0  0  0  0  0  0  0  0  0  0  0
    7.4370  -11.1126   26.6152 C   0  0  0  0  0  0  0  0  0  0  0  0
    8.6675  -11.6648   26.3788 C   0  0  0  0  0  0  0  0  0  0  0  0
    8.7622  -12.9849   26.0109 C   0  0  0  0  0  0  0  0  0  0  0  0
    7.6502  -13.8072   25.8630 C   0  0  0  0  0  0  0  0  0  0  0  0
   10.2148  -16.9681   23.5674 C   0  0  0  0  0  0  0  0  0  0  0  0
    9.9939  -17.7709   22.6273 O   0  0  0  0  0  0  0  0  0  0  0  0
   13.0478  -16.6355   22.5103 C   0  0  0  0  0  0  0  0  0  0  0  0
   12.6748  -17.5835   23.6622 C   0  0  2  0  0  0  0  0  0  0  0  0
   11.4471  -17.1680   24.2722 N   0  0  0  0  0  0  0  0  0  0  0  0
   13.8390  -17.6179   24.5458 C   0  0  0  0  0  0  0  0  0  0  0  0
   14.4836  -18.8577   24.7039 O   0  0  0  0  0  0  0  0  0  0  0  0
   14.2573  -16.6105   25.1401 O   0  0  0  0  0  0  0  0  0  0  0  0
  2  5  1  0
  2  1  1  6
  3  2  1  0
  4  3  1  0
  5  6  2  0
  7  8  1  0
  7  5  1  0
  8  9  1  1
 10  9  1  0
 11 10  2  0
 12 13  1  0
 12 11  1  0
 13 18  2  0
 14 13  1  0
 14 15  2  0
 15 16  1  0
 16 17  2  0
 18 10  1  0
 18 17  1  0
 19 20  2  0
 19  8  1  0
 22 21  1  6
 22 23  1  0
 23 19  1  0
 24 22  1  0
 24 25  1  0
 26 24  2  0
M  END
$$$$
