CWA.pdb
     RDKit          3D

 26 27  0  0  1  0  0  0  0  0999 V2000
    5.8235  -17.8142   22.5113 N   0  0  0  0  0  0  0  0  0  0  0  0
    6.5446  -17.3947   21.3405 C   0  0  1  0  0  0  0  0  0  0  0  0
    5.6825  -16.4760   20.4953 C   0  0  0  0  0  0  0  0  0  0  0  0
    3.9529  -16.8763   20.8140 S   0  0  0  0  0  0  0  0  0  0  0  0
    7.8323  -16.7333   21.6934 C   0  0  0  0  0  0  0  0  0  0  0  0
    8.5888  -16.3949   20.7488 O   0  0  0  0  0  0  0  0  0  0  0  0
    8.2104  -16.4855   23.0309 N   0  0  0  0  0  0  0  0  0  0  0  0
    9.5235  -15.8877   23.3888 C   0  0  1  0  0  0  0  0  0  0  0  0
    9.1791  -14.6101   24.0532 C   0  0  0  0  0  0  0  0  0  0  0  0
    8.0432  -14.5625   24.9578 C   0  0  0  0  0  0  0  0  0  0  0  0
    7.2281  -15.5752   25.4311 C   0  0  0  0  0  0  0  0  0  0  0  0
    6.3059  -15.0195   26.2285 N   0  0  0  0  0  0  0  0  0  0  0  0
    6.4706  -13.6994   26.3053 C   0  0  0  0  0  0  0  0  0  0  0  0
    5.8080  -12.6813   26.9987 C   0  0  0  0  0  0  0  0  0  0  0  0
    6.2052  -11.3627   26.9215 C   0  0  0  0  0  0  0  0  0  0  0  0
    7.2846  -11.0608   26.1351 C   0  0  0  0  0  0  0  0  0  0  0  0
    7.9330  -12.0627   25.4547 C   0  0  0  0  0  0  0  0  0  0  0  0
    7.5422  -13.3957   25.5247 C   0  0  0  0  0  0  0  0  0  0  0  0
   10.2273  -16.8474   24.2258 C   0  0  0  0  0  0  0  0  0  0  0  0
   11.3487  -16.5646   24.7155 O   0  0  0  0  0  0  0  0  0  0  0  0
    9.5953  -20.4094   25.4592 C   0  0  0  0  0  0  0  0  0  0  0  0
   10.4144  -19.1121   25.3553 C   0  0  2  0  0  0  0  0  0  0  0  0
    9.7182  -18.1453   24.5598 N   0  0  0  0  0  0  0  0  0  0  0  0
   11.7310  -19.5082   24.8586 C   0  0  0  0  0  0  0  0  0  0  0  0
   11.8716  -19.6505   23.4665 O   0  0  0  0  0  0  0  0  0  0  0  0
   12.6958  -19.7152   25.6131 O   0  0  0  0  0  0  0  0  0  0  0  0
  2  5  1  0
  2  1  1  1
  3  2  1  0
  4  3  1  0
  5  6  2  0
  7  8  1  0
  7  5  1  0
  8  9  1  1
 10  9  1  0
 11 10  2  0
 12 13  1  0
 12 11  1  0
 13 18  2  0
 14 13  1  0
 14 15  2  0
 15 16  1  0
 16 17  2  0
 18 10  1  0
 18 17  1  0
 19 20  2  0
 19  8  1  0
 22 21  1  6
 22 23  1  0
 23 19  1  0
 24 22  1  0
 24 25  1  0
 26 24  2  0
M  END
$$$$
