CWA.pdb
     RDKit          3D

 26 27  0  0  1  0  0  0  0  0999 V2000
    7.0323  -13.5705   19.9628 N   0  0  0  0  0  0  0  0  0  0  0  0
    7.3881  -14.9005   20.3769 C   0  0  1  0  0  0  0  0  0  0  0  0
    8.0558  -15.6437   19.2352 C   0  0  0  0  0  0  0  0  0  0  0  0
    8.3567  -17.3404   19.7677 S   0  0  0  0  0  0  0  0  0  0  0  0
    8.2643  -14.8870   21.5821 C   0  0  0  0  0  0  0  0  0  0  0  0
    9.1437  -13.9921   21.6500 O   0  0  0  0  0  0  0  0  0  0  0  0
    8.1309  -15.8333   22.6213 N   0  0  0  0  0  0  0  0  0  0  0  0
    9.0168  -15.8342   23.8151 C   0  0  1  0  0  0  0  0  0  0  0  0
    8.1123  -16.1422   24.9461 C   0  0  0  0  0  0  0  0  0  0  0  0
    7.1685  -15.1338   25.3971 C   0  0  0  0  0  0  0  0  0  0  0  0
    5.7950  -15.1935   25.5515 C   0  0  0  0  0  0  0  0  0  0  0  0
    5.3786  -13.9938   25.9788 N   0  0  0  0  0  0  0  0  0  0  0  0
    6.4018  -13.1509   26.1138 C   0  0  0  0  0  0  0  0  0  0  0  0
    6.5100  -11.8219   26.5364 C   0  0  0  0  0  0  0  0  0  0  0  0
    7.7244  -11.1719   26.6083 C   0  0  0  0  0  0  0  0  0  0  0  0
    8.8485  -11.8668   26.2499 C   0  0  0  0  0  0  0  0  0  0  0  0
    8.7390  -13.1717   25.8347 C   0  0  0  0  0  0  0  0  0  0  0  0
    7.5205  -13.8379   25.7581 C   0  0  0  0  0  0  0  0  0  0  0  0
   10.0658  -16.8147   23.5804 C   0  0  0  0  0  0  0  0  0  0  0  0
    9.7858  -17.9516   23.1263 O   0  0  0  0  0  0  0  0  0  0  0  0
   13.8443  -16.9379   23.4799 C   0  0  0  0  0  0  0  0  0  0  0  0
   12.4778  -17.5791   23.7735 C   0  0  2  0  0  0  0  0  0  0  0  0
   11.4573  -16.5751   23.8281 N   0  0  0  0  0  0  0  0  0  0  0  0
   12.6574  -18.3639   24.9938 C   0  0  0  0  0  0  0  0  0  0  0  0
   13.5505  -19.4484   24.9292 O   0  0  0  0  0  0  0  0  0  0  0  0
   12.0588  -18.1034   26.0505 O   0  0  0  0  0  0  0  0  0  0  0  0
  2  5  1  0
  2  1  1  6
  3  2  1  0
  4  3  1  0
  5  6  2  0
  7  8  1  0
  7  5  1  0
  8  9  1  1
 10  9  1  0
 11 10  2  0
 12 13  1  0
 12 11  1  0
 13 18  2  0
 14 13  1  0
 14 15  2  0
 15 16  1  0
 16 17  2  0
 18 10  1  0
 18 17  1  0
 19 20  2  0
 19  8  1  0
 22 21  1  1
 22 23  1  0
 23 19  1  0
 24 22  1  0
 24 25  1  0
 26 24  2  0
M  END
$$$$
