CWA.pdb
     RDKit          3D

 26 27  0  0  1  0  0  0  0  0999 V2000
    6.1699  -15.2046   20.1195 N   0  0  0  0  0  0  0  0  0  0  0  0
    7.0261  -16.2272   20.6563 C   0  0  1  0  0  0  0  0  0  0  0  0
    7.7266  -16.9672   19.5324 C   0  0  0  0  0  0  0  0  0  0  0  0
    8.6533  -18.3370   20.2521 S   0  0  0  0  0  0  0  0  0  0  0  0
    8.0171  -15.6679   21.6183 C   0  0  0  0  0  0  0  0  0  0  0  0
    8.6018  -14.6035   21.2957 O   0  0  0  0  0  0  0  0  0  0  0  0
    8.3053  -16.2919   22.8514 N   0  0  0  0  0  0  0  0  0  0  0  0
    9.3526  -15.7825   23.7753 C   0  0  1  0  0  0  0  0  0  0  0  0
    8.7600  -15.9321   25.1240 C   0  0  0  0  0  0  0  0  0  0  0  0
    7.5997  -15.1351   25.4835 C   0  0  0  0  0  0  0  0  0  0  0  0
    6.2662  -15.4874   25.5924 C   0  0  0  0  0  0  0  0  0  0  0  0
    5.5796  -14.3893   25.9360 N   0  0  0  0  0  0  0  0  0  0  0  0
    6.3877  -13.3370   26.0591 C   0  0  0  0  0  0  0  0  0  0  0  0
    6.1846  -11.9981   26.4092 C   0  0  0  0  0  0  0  0  0  0  0  0
    7.2240  -11.0947   26.4869 C   0  0  0  0  0  0  0  0  0  0  0  0
    8.4877  -11.5422   26.2084 C   0  0  0  0  0  0  0  0  0  0  0  0
    8.6840  -12.8576   25.8643 C   0  0  0  0  0  0  0  0  0  0  0  0
    7.6443  -13.7778   25.7826 C   0  0  0  0  0  0  0  0  0  0  0  0
   10.5583  -16.5625   23.5421 C   0  0  0  0  0  0  0  0  0  0  0  0
   10.5685  -17.8000   23.7559 O   0  0  0  0  0  0  0  0  0  0  0  0
   13.9103  -16.0574   21.8535 C   0  0  0  0  0  0  0  0  0  0  0  0
   12.9998  -16.7552   22.8776 C   0  0  2  0  0  0  0  0  0  0  0  0
   11.7895  -16.0103   23.0578 N   0  0  0  0  0  0  0  0  0  0  0  0
   13.8136  -16.9380   24.0782 C   0  0  0  0  0  0  0  0  0  0  0  0
   13.3494  -16.3358   25.2613 O   0  0  0  0  0  0  0  0  0  0  0  0
   14.8702  -17.5910   24.0768 O   0  0  0  0  0  0  0  0  0  0  0  0
  2  5  1  0
  2  1  1  6
  3  2  1  0
  4  3  1  0
  5  6  2  0
  7  8  1  0
  7  5  1  0
  8  9  1  1
 10  9  1  0
 11 10  2  0
 12 13  1  0
 12 11  1  0
 13 18  2  0
 14 13  1  0
 14 15  2  0
 15 16  1  0
 16 17  2  0
 18 10  1  0
 18 17  1  0
 19 20  2  0
 19  8  1  0
 22 21  1  6
 22 23  1  0
 23 19  1  0
 24 22  1  0
 24 25  1  0
 26 24  2  0
M  END
$$$$
