CWA.pdb
     RDKit          3D

 26 27  0  0  1  0  0  0  0  0999 V2000
   10.4064  -16.8168   18.5910 N   0  0  0  0  0  0  0  0  0  0  0  0
    9.5223  -17.2585   19.6351 C   0  0  1  0  0  0  0  0  0  0  0  0
    9.8908  -18.6631   20.0743 C   0  0  0  0  0  0  0  0  0  0  0  0
   11.4596  -18.5825   20.9605 S   0  0  0  0  0  0  0  0  0  0  0  0
    9.5290  -16.3238   20.7956 C   0  0  0  0  0  0  0  0  0  0  0  0
   10.4321  -15.4510   20.8323 O   0  0  0  0  0  0  0  0  0  0  0  0
    8.5678  -16.3964   21.8271 N   0  0  0  0  0  0  0  0  0  0  0  0
    8.5841  -15.4779   22.9958 C   0  0  1  0  0  0  0  0  0  0  0  0
    7.2416  -15.6277   23.6022 C   0  0  0  0  0  0  0  0  0  0  0  0
    6.9788  -15.0365   24.9032 C   0  0  0  0  0  0  0  0  0  0  0  0
    6.7327  -15.6317   26.1275 C   0  0  0  0  0  0  0  0  0  0  0  0
    6.5320  -14.6563   27.0239 N   0  0  0  0  0  0  0  0  0  0  0  0
    6.6333  -13.4549   26.4564 C   0  0  0  0  0  0  0  0  0  0  0  0
    6.5341  -12.1461   26.9398 C   0  0  0  0  0  0  0  0  0  0  0  0
    6.7091  -11.0478   26.1239 C   0  0  0  0  0  0  0  0  0  0  0  0
    6.9878  -11.2666   24.8013 C   0  0  0  0  0  0  0  0  0  0  0  0
    7.0840  -12.5531   24.3293 C   0  0  0  0  0  0  0  0  0  0  0  0
    6.9098  -13.6684   25.1419 C   0  0  0  0  0  0  0  0  0  0  0  0
    9.6934  -15.8754   23.8490 C   0  0  0  0  0  0  0  0  0  0  0  0
   10.5337  -15.0274   24.2388 O   0  0  0  0  0  0  0  0  0  0  0  0
   10.7010  -16.9706   26.6041 C   0  0  0  0  0  0  0  0  0  0  0  0
   10.9428  -17.6041   25.2239 C   0  0  2  0  0  0  0  0  0  0  0  0
    9.9110  -17.2156   24.3093 N   0  0  0  0  0  0  0  0  0  0  0  0
   11.0696  -19.0413   25.4594 C   0  0  0  0  0  0  0  0  0  0  0  0
   10.1997  -19.8842   24.7448 O   0  0  0  0  0  0  0  0  0  0  0  0
   11.9003  -19.5186   26.2500 O   0  0  0  0  0  0  0  0  0  0  0  0
  2  5  1  0
  2  1  1  6
  3  2  1  0
  4  3  1  0
  5  6  2  0
  7  8  1  0
  7  5  1  0
  8  9  1  1
 10  9  1  0
 11 10  2  0
 12 13  1  0
 12 11  1  0
 13 18  2  0
 14 13  1  0
 14 15  2  0
 15 16  1  0
 16 17  2  0
 18 10  1  0
 18 17  1  0
 19 20  2  0
 19  8  1  0
 22 21  1  1
 22 23  1  0
 23 19  1  0
 24 22  1  0
 24 25  1  0
 26 24  2  0
M  END
$$$$
