YCW.pdb
     RDKit          3D

 33 35  0  0  1  0  0  0  0  0999 V2000
    3.7092  -23.9137   23.0174 O   0  0  0  0  0  0  0  0  0  0  0  0
    4.7098  -22.9411   22.8977 C   0  0  0  0  0  0  0  0  0  0  0  0
    6.0023  -23.2726   22.5480 C   0  0  0  0  0  0  0  0  0  0  0  0
    6.9821  -22.3083   22.4323 C   0  0  0  0  0  0  0  0  0  0  0  0
    6.7119  -20.9657   22.6618 C   0  0  0  0  0  0  0  0  0  0  0  0
    7.7665  -19.9241   22.5372 C   0  0  0  0  0  0  0  0  0  0  0  0
    7.5704  -19.2217   21.2244 C   0  0  2  0  0  0  0  0  0  0  0  0
    7.5145  -20.1508   20.1146 N   0  0  0  0  0  0  0  0  0  0  0  0
    8.5422  -18.1423   20.9898 C   0  0  0  0  0  0  0  0  0  0  0  0
    9.1198  -18.1190   19.8723 O   0  0  0  0  0  0  0  0  0  0  0  0
    5.4154  -20.6503   23.0104 C   0  0  0  0  0  0  0  0  0  0  0  0
    4.4329  -21.6102   23.1274 C   0  0  0  0  0  0  0  0  0  0  0  0
    8.8510  -17.1434   21.9521 N   0  0  0  0  0  0  0  0  0  0  0  0
    8.7737  -15.7684   21.5905 C   0  0  1  0  0  0  0  0  0  0  0  0
    7.3509  -15.5094   21.0949 C   0  0  0  0  0  0  0  0  0  0  0  0
    7.2775  -13.8608   20.3657 S   0  0  0  0  0  0  0  0  0  0  0  0
    9.1317  -14.8439   22.6891 C   0  0  0  0  0  0  0  0  0  0  0  0
    8.4078  -13.8398   22.9053 O   0  0  0  0  0  0  0  0  0  0  0  0
   10.2642  -15.0335   23.5225 N   0  0  0  0  0  0  0  0  0  0  0  0
   10.2047  -15.4195   24.9006 C   0  0  1  0  0  0  0  0  0  0  0  0
    9.0389  -16.3457   25.1922 C   0  0  0  0  0  0  0  0  0  0  0  0
    7.7866  -15.5750   25.3849 C   0  0  0  0  0  0  0  0  0  0  0  0
    6.5027  -15.8497   24.9349 C   0  0  0  0  0  0  0  0  0  0  0  0
    5.6744  -14.8744   25.3435 N   0  0  0  0  0  0  0  0  0  0  0  0
    6.3563  -13.9553   26.0515 C   0  0  0  0  0  0  0  0  0  0  0  0
    5.9796  -12.7946   26.6723 C   0  0  0  0  0  0  0  0  0  0  0  0
    6.9266  -12.0466   27.3351 C   0  0  0  0  0  0  0  0  0  0  0  0
    8.2521  -12.4449   27.3862 C   0  0  0  0  0  0  0  0  0  0  0  0
    8.5839  -13.6164   26.7488 C   0  0  0  0  0  0  0  0  0  0  0  0
    7.6606  -14.3839   26.0795 C   0  0  0  0  0  0  0  0  0  0  0  0
   11.4416  -16.1531   25.2451 C   0  0  0  0  0  0  0  0  0  0  0  0
   11.7790  -16.5686   26.5214 O   0  0  0  0  0  0  0  0  0  0  0  0
   12.2559  -16.4284   24.3323 O   0  0  0  0  0  0  0  0  0  0  0  0
  2 12  2  0
  2  1  1  0
  3  2  1  0
  4  5  1  0
  4  3  2  0
  5 11  2  0
  6  5  1  0
  7  6  1  0
  7  8  1  6
  9 13  1  0
  9  7  1  0
 10  9  2  0
 11 12  1  0
 14 13  1  0
 14 15  1  1
 16 15  1  0
 17 14  1  0
 17 18  2  0
 19 17  1  0
 20 19  1  0
 20 21  1  6
 22 21  1  0
 22 30  1  0
 23 24  1  0
 23 22  2  0
 24 25  1  0
 25 30  2  0
 25 26  1  0
 26 27  2  0
 27 28  1  0
 29 28  2  0
 30 29  1  0
 31 20  1  0
 32 31  1  0
 33 31  2  0
M  END
$$$$
