YCW.pdb
     RDKit          3D

 33 35  0  0  1  0  0  0  0  0999 V2000
   15.0145  -18.5772   14.9513 O   0  0  0  0  0  0  0  0  0  0  0  0
   13.8088  -18.2560   15.5873 C   0  0  0  0  0  0  0  0  0  0  0  0
   12.7759  -19.1654   15.6807 C   0  0  0  0  0  0  0  0  0  0  0  0
   11.5913  -18.8408   16.3090 C   0  0  0  0  0  0  0  0  0  0  0  0
   11.3866  -17.5887   16.8733 C   0  0  0  0  0  0  0  0  0  0  0  0
   10.1104  -17.2365   17.5516 C   0  0  0  0  0  0  0  0  0  0  0  0
   10.3647  -17.2107   19.0315 C   0  0  2  0  0  0  0  0  0  0  0  0
   10.7088  -18.5203   19.5460 N   0  0  0  0  0  0  0  0  0  0  0  0
    9.2760  -16.5866   19.7994 C   0  0  0  0  0  0  0  0  0  0  0  0
    8.8230  -15.4929   19.3733 O   0  0  0  0  0  0  0  0  0  0  0  0
   12.4284  -16.6908   16.7718 C   0  0  0  0  0  0  0  0  0  0  0  0
   13.6140  -17.0103   16.1450 C   0  0  0  0  0  0  0  0  0  0  0  0
    8.7241  -17.1545   20.9793 N   0  0  0  0  0  0  0  0  0  0  0  0
    7.7234  -16.4445   21.7017 C   0  0  1  0  0  0  0  0  0  0  0  0
    6.4737  -17.3248   21.7291 C   0  0  0  0  0  0  0  0  0  0  0  0
    6.7246  -18.6581   22.9184 S   0  0  0  0  0  0  0  0  0  0  0  0
    8.1365  -16.0633   23.0706 C   0  0  0  0  0  0  0  0  0  0  0  0
    7.2542  -15.8029   23.9267 O   0  0  0  0  0  0  0  0  0  0  0  0
    9.4940  -15.9749   23.4733 N   0  0  0  0  0  0  0  0  0  0  0  0
    9.9302  -15.6515   24.7987 C   0  0  1  0  0  0  0  0  0  0  0  0
    8.9965  -16.1954   25.8639 C   0  0  0  0  0  0  0  0  0  0  0  0
    7.6900  -15.4946   25.8298 C   0  0  0  0  0  0  0  0  0  0  0  0
    6.4312  -15.9882   25.5162 C   0  0  0  0  0  0  0  0  0  0  0  0
    5.5317  -14.9954   25.6136 N   0  0  0  0  0  0  0  0  0  0  0  0
    6.1415  -13.8535   25.9813 C   0  0  0  0  0  0  0  0  0  0  0  0
    5.6780  -12.5861   26.2121 C   0  0  0  0  0  0  0  0  0  0  0  0
    6.5650  -11.6015   26.5853 C   0  0  0  0  0  0  0  0  0  0  0  0
    7.9164  -11.8676   26.7317 C   0  0  0  0  0  0  0  0  0  0  0  0
    8.3359  -13.1538   26.4896 C   0  0  0  0  0  0  0  0  0  0  0  0
    7.4740  -14.1572   26.1158 C   0  0  0  0  0  0  0  0  0  0  0  0
   11.2569  -16.2630   25.0278 C   0  0  0  0  0  0  0  0  0  0  0  0
   12.0063  -16.1051   26.1805 O   0  0  0  0  0  0  0  0  0  0  0  0
   11.7568  -16.9785   24.1277 O   0  0  0  0  0  0  0  0  0  0  0  0
  2 12  2  0
  2  1  1  0
  3  2  1  0
  4  5  1  0
  4  3  2  0
  5 11  2  0
  6  5  1  0
  7  6  1  0
  7  8  1  1
  9 13  1  0
  9  7  1  0
 10  9  2  0
 11 12  1  0
 14 13  1  0
 14 15  1  1
 16 15  1  0
 17 14  1  0
 17 18  2  0
 19 17  1  0
 20 19  1  0
 20 21  1  1
 22 21  1  0
 22 30  1  0
 23 24  1  0
 23 22  2  0
 24 25  1  0
 25 30  2  0
 25 26  1  0
 26 27  2  0
 27 28  1  0
 29 28  2  0
 30 29  1  0
 31 20  1  0
 32 31  1  0
 33 31  2  0
M  END
$$$$
