YCW.pdb
     RDKit          3D

 33 35  0  0  1  0  0  0  0  0999 V2000
    3.7468  -23.3590   25.5384 O   0  0  0  0  0  0  0  0  0  0  0  0
    4.5969  -22.3510   25.0665 C   0  0  0  0  0  0  0  0  0  0  0  0
    4.1148  -21.2741   24.3521 C   0  0  0  0  0  0  0  0  0  0  0  0
    4.9592  -20.2854   23.8909 C   0  0  0  0  0  0  0  0  0  0  0  0
    6.3272  -20.3301   24.1243 C   0  0  0  0  0  0  0  0  0  0  0  0
    7.2397  -19.2651   23.6284 C   0  0  0  0  0  0  0  0  0  0  0  0
    7.1701  -19.2576   22.1282 C   0  0  2  0  0  0  0  0  0  0  0  0
    7.7053  -20.4749   21.5539 N   0  0  0  0  0  0  0  0  0  0  0  0
    7.7648  -18.0559   21.5229 C   0  0  0  0  0  0  0  0  0  0  0  0
    8.9589  -18.1362   21.1347 O   0  0  0  0  0  0  0  0  0  0  0  0
    6.7939  -21.4128   24.8399 C   0  0  0  0  0  0  0  0  0  0  0  0
    5.9542  -22.4032   25.3028 C   0  0  0  0  0  0  0  0  0  0  0  0
    7.0627  -16.8312   21.3603 N   0  0  0  0  0  0  0  0  0  0  0  0
    7.7847  -15.6369   21.0778 C   0  0  1  0  0  0  0  0  0  0  0  0
    6.7565  -14.5270   20.8581 C   0  0  0  0  0  0  0  0  0  0  0  0
    7.6225  -13.0092   20.4095 S   0  0  0  0  0  0  0  0  0  0  0  0
    8.7535  -15.2645   22.1325 C   0  0  0  0  0  0  0  0  0  0  0  0
    9.5292  -14.2952   21.9373 O   0  0  0  0  0  0  0  0  0  0  0  0
    8.8544  -15.9527   23.3691 N   0  0  0  0  0  0  0  0  0  0  0  0
    9.7070  -15.5606   24.4512 C   0  0  1  0  0  0  0  0  0  0  0  0
    9.0942  -15.8570   25.8072 C   0  0  0  0  0  0  0  0  0  0  0  0
    7.7553  -15.2313   25.9306 C   0  0  0  0  0  0  0  0  0  0  0  0
    6.4979  -15.8147   25.8587 C   0  0  0  0  0  0  0  0  0  0  0  0
    5.5617  -14.8660   26.0254 N   0  0  0  0  0  0  0  0  0  0  0  0
    6.1456  -13.6671   26.2066 C   0  0  0  0  0  0  0  0  0  0  0  0
    5.6420  -12.4112   26.4150 C   0  0  0  0  0  0  0  0  0  0  0  0
    6.5102  -11.3538   26.5689 C   0  0  0  0  0  0  0  0  0  0  0  0
    7.8823  -11.5354   26.5172 C   0  0  0  0  0  0  0  0  0  0  0  0
    8.3420  -12.8132   26.3060 C   0  0  0  0  0  0  0  0  0  0  0  0
    7.4997  -13.8881   26.1488 C   0  0  0  0  0  0  0  0  0  0  0  0
   10.9695  -16.3258   24.3663 C   0  0  0  0  0  0  0  0  0  0  0  0
   12.0712  -16.1164   25.1773 O   0  0  0  0  0  0  0  0  0  0  0  0
   11.0707  -17.2325   23.5062 O   0  0  0  0  0  0  0  0  0  0  0  0
  2 12  2  0
  2  1  1  0
  3  2  1  0
  4  5  1  0
  4  3  2  0
  5 11  2  0
  6  5  1  0
  7  6  1  0
  7  8  1  6
  9 13  1  0
  9  7  1  0
 10  9  2  0
 11 12  1  0
 14 13  1  0
 14 15  1  1
 16 15  1  0
 17 14  1  0
 17 18  2  0
 19 17  1  0
 20 19  1  0
 20 21  1  1
 22 21  1  0
 22 30  1  0
 23 24  1  0
 23 22  2  0
 24 25  1  0
 25 30  2  0
 25 26  1  0
 26 27  2  0
 27 28  1  0
 29 28  2  0
 30 29  1  0
 31 20  1  0
 32 31  1  0
 33 31  2  0
M  END
$$$$
