YCW.pdb
     RDKit          3D

 33 35  0  0  1  0  0  0  0  0999 V2000
    8.3077  -11.5024   17.0573 O   0  0  0  0  0  0  0  0  0  0  0  0
    7.9971  -12.4753   18.0156 C   0  0  0  0  0  0  0  0  0  0  0  0
    8.6160  -12.4999   19.2480 C   0  0  0  0  0  0  0  0  0  0  0  0
    8.3041  -13.4619   20.1865 C   0  0  0  0  0  0  0  0  0  0  0  0
    7.3565  -14.4447   19.9332 C   0  0  0  0  0  0  0  0  0  0  0  0
    7.0182  -15.4828   20.9435 C   0  0  0  0  0  0  0  0  0  0  0  0
    7.9334  -16.6538   20.7283 C   0  0  2  0  0  0  0  0  0  0  0  0
    7.4513  -17.5349   19.6846 N   0  0  0  0  0  0  0  0  0  0  0  0
    8.2448  -17.3857   21.9659 C   0  0  0  0  0  0  0  0  0  0  0  0
    7.6032  -18.4453   22.1864 O   0  0  0  0  0  0  0  0  0  0  0  0
    6.7466  -14.4068   18.6968 C   0  0  0  0  0  0  0  0  0  0  0  0
    7.0549  -13.4476   17.7558 C   0  0  0  0  0  0  0  0  0  0  0  0
    9.2205  -16.9563   22.9056 N   0  0  0  0  0  0  0  0  0  0  0  0
    9.5200  -17.7724   24.0333 C   0  0  1  0  0  0  0  0  0  0  0  0
   10.3387  -18.9606   23.5283 C   0  0  0  0  0  0  0  0  0  0  0  0
   10.8768  -19.9425   24.9430 S   0  0  0  0  0  0  0  0  0  0  0  0
   10.2329  -17.0549   25.1135 C   0  0  0  0  0  0  0  0  0  0  0  0
   11.3589  -16.5505   24.8746 O   0  0  0  0  0  0  0  0  0  0  0  0
    9.7058  -16.9041   26.4220 N   0  0  0  0  0  0  0  0  0  0  0  0
   10.3489  -16.1845   27.4804 C   0  0  1  0  0  0  0  0  0  0  0  0
    9.3770  -15.3316   28.2741 C   0  0  0  0  0  0  0  0  0  0  0  0
    8.2262  -14.9204   27.4339 C   0  0  0  0  0  0  0  0  0  0  0  0
    7.2085  -15.6927   26.8913 C   0  0  0  0  0  0  0  0  0  0  0  0
    6.3772  -14.9000   26.1950 N   0  0  0  0  0  0  0  0  0  0  0  0
    6.8004  -13.6238   26.2508 C   0  0  0  0  0  0  0  0  0  0  0  0
    6.3135  -12.4601   25.7186 C   0  0  0  0  0  0  0  0  0  0  0  0
    6.9815  -11.2795   25.9549 C   0  0  0  0  0  0  0  0  0  0  0  0
    8.1356  -11.2459   26.7200 C   0  0  0  0  0  0  0  0  0  0  0  0
    8.5869  -12.4381   27.2335 C   0  0  0  0  0  0  0  0  0  0  0  0
    7.9416  -13.6319   27.0146 C   0  0  0  0  0  0  0  0  0  0  0  0
   10.9481  -17.1543   28.4223 C   0  0  0  0  0  0  0  0  0  0  0  0
   11.8240  -16.8217   29.4410 O   0  0  0  0  0  0  0  0  0  0  0  0
   10.6561  -18.3683   28.3080 O   0  0  0  0  0  0  0  0  0  0  0  0
  2 12  2  0
  2  1  1  0
  3  2  1  0
  4  5  1  0
  4  3  2  0
  5 11  2  0
  6  5  1  0
  7  6  1  0
  7  8  1  6
  9 13  1  0
  9  7  1  0
 10  9  2  0
 11 12  1  0
 14 13  1  0
 14 15  1  6
 16 15  1  0
 17 14  1  0
 17 18  2  0
 19 17  1  0
 20 19  1  0
 20 21  1  1
 22 21  1  0
 22 30  1  0
 23 24  1  0
 23 22  2  0
 24 25  1  0
 25 30  2  0
 25 26  1  0
 26 27  2  0
 27 28  1  0
 29 28  2  0
 30 29  1  0
 31 20  1  0
 32 31  1  0
 33 31  2  0
M  END
$$$$
