YCW.pdb
     RDKit          3D

 33 35  0  0  1  0  0  0  0  0999 V2000
   11.7444  -24.2387   18.5109 O   0  0  0  0  0  0  0  0  0  0  0  0
   11.9776  -22.9054   18.8708 C   0  0  0  0  0  0  0  0  0  0  0  0
   12.8903  -22.1229   18.1946 C   0  0  0  0  0  0  0  0  0  0  0  0
   13.1140  -20.8103   18.5556 C   0  0  0  0  0  0  0  0  0  0  0  0
   12.4328  -20.2204   19.6120 C   0  0  0  0  0  0  0  0  0  0  0  0
   12.6720  -18.8052   20.0030 C   0  0  0  0  0  0  0  0  0  0  0  0
   11.5729  -17.9697   19.4120 C   0  0  2  0  0  0  0  0  0  0  0  0
   12.0218  -17.2210   18.2561 N   0  0  0  0  0  0  0  0  0  0  0  0
   10.9003  -17.1092   20.3976 C   0  0  0  0  0  0  0  0  0  0  0  0
   11.4750  -16.0355   20.7134 O   0  0  0  0  0  0  0  0  0  0  0  0
   11.5239  -21.0154   20.2781 C   0  0  0  0  0  0  0  0  0  0  0  0
   11.2968  -22.3275   19.9212 C   0  0  0  0  0  0  0  0  0  0  0  0
    9.6530  -17.4317   20.9973 N   0  0  0  0  0  0  0  0  0  0  0  0
    9.1008  -16.5665   21.9842 C   0  0  1  0  0  0  0  0  0  0  0  0
    7.5827  -16.7420   21.9425 C   0  0  0  0  0  0  0  0  0  0  0  0
    6.9390  -15.9112   20.4760 S   0  0  0  0  0  0  0  0  0  0  0  0
    9.6275  -16.8059   23.3462 C   0  0  0  0  0  0  0  0  0  0  0  0
   10.1473  -17.9180   23.6154 O   0  0  0  0  0  0  0  0  0  0  0  0
    9.5762  -15.8337   24.3782 N   0  0  0  0  0  0  0  0  0  0  0  0
    9.9943  -16.0587   25.7295 C   0  0  1  0  0  0  0  0  0  0  0  0
    9.5386  -14.9565   26.6673 C   0  0  0  0  0  0  0  0  0  0  0  0
    8.1316  -14.5766   26.3927 C   0  0  0  0  0  0  0  0  0  0  0  0
    7.0447  -15.3812   26.0800 C   0  0  0  0  0  0  0  0  0  0  0  0
    5.9590  -14.6087   25.9102 N   0  0  0  0  0  0  0  0  0  0  0  0
    6.2782  -13.3149   26.0978 C   0  0  0  0  0  0  0  0  0  0  0  0
    5.5452  -12.1601   26.0405 C   0  0  0  0  0  0  0  0  0  0  0  0
    6.1649  -10.9554   26.2863 C   0  0  0  0  0  0  0  0  0  0  0  0
    7.5145  -10.8888   26.5902 C   0  0  0  0  0  0  0  0  0  0  0  0
    8.2099  -12.0733   26.6365 C   0  0  0  0  0  0  0  0  0  0  0  0
    7.6185  -13.2906   26.3958 C   0  0  0  0  0  0  0  0  0  0  0  0
    9.3915  -17.3196   26.2126 C   0  0  0  0  0  0  0  0  0  0  0  0
    9.8093  -18.0100   27.3370 O   0  0  0  0  0  0  0  0  0  0  0  0
    8.4335  -17.8158   25.5738 O   0  0  0  0  0  0  0  0  0  0  0  0
  2 12  2  0
  2  1  1  0
  3  2  1  0
  4  5  1  0
  4  3  2  0
  5 11  2  0
  6  5  1  0
  7  6  1  0
  7  8  1  6
  9 13  1  0
  9  7  1  0
 10  9  2  0
 11 12  1  0
 14 13  1  0
 14 15  1  1
 16 15  1  0
 17 14  1  0
 17 18  2  0
 19 17  1  0
 20 19  1  0
 20 21  1  1
 22 21  1  0
 22 30  1  0
 23 24  1  0
 23 22  2  0
 24 25  1  0
 25 30  2  0
 25 26  1  0
 26 27  2  0
 27 28  1  0
 29 28  2  0
 30 29  1  0
 31 20  1  0
 32 31  1  0
 33 31  2  0
M  END
$$$$
