YCW.pdb
     RDKit          3D

 33 35  0  0  1  0  0  0  0  0999 V2000
    7.5681  -13.1546   14.8918 O   0  0  0  0  0  0  0  0  0  0  0  0
    7.5008  -13.8954   16.0784 C   0  0  0  0  0  0  0  0  0  0  0  0
    7.4397  -15.2734   16.0681 C   0  0  0  0  0  0  0  0  0  0  0  0
    7.3736  -15.9956   17.2417 C   0  0  0  0  0  0  0  0  0  0  0  0
    7.3655  -15.3699   18.4813 C   0  0  0  0  0  0  0  0  0  0  0  0
    7.2947  -16.1464   19.7480 C   0  0  0  0  0  0  0  0  0  0  0  0
    8.6331  -16.7898   19.9719 C   0  0  2  0  0  0  0  0  0  0  0  0
    9.0681  -17.5527   18.8200 N   0  0  0  0  0  0  0  0  0  0  0  0
    8.7006  -17.5789   21.2117 C   0  0  0  0  0  0  0  0  0  0  0  0
    8.1069  -18.6881   21.2226 O   0  0  0  0  0  0  0  0  0  0  0  0
    7.4271  -13.9922   18.4750 C   0  0  0  0  0  0  0  0  0  0  0  0
    7.4933  -13.2661   17.3050 C   0  0  0  0  0  0  0  0  0  0  0  0
    9.3943  -17.1511   22.3758 N   0  0  0  0  0  0  0  0  0  0  0  0
    9.5991  -15.7605   22.6031 C   0  0  1  0  0  0  0  0  0  0  0  0
    8.2203  -15.1023   22.6569 C   0  0  0  0  0  0  0  0  0  0  0  0
    8.4240  -13.3505   23.0377 S   0  0  0  0  0  0  0  0  0  0  0  0
   10.3777  -15.4667   23.8267 C   0  0  0  0  0  0  0  0  0  0  0  0
   11.6324  -15.5227   23.7827 O   0  0  0  0  0  0  0  0  0  0  0  0
    9.7750  -15.1205   25.0635 N   0  0  0  0  0  0  0  0  0  0  0  0
    9.9336  -15.8585   26.2808 C   0  0  1  0  0  0  0  0  0  0  0  0
    8.6168  -16.4002   26.8048 C   0  0  0  0  0  0  0  0  0  0  0  0
    7.5175  -15.4316   26.5749 C   0  0  0  0  0  0  0  0  0  0  0  0
    6.2278  -15.6531   26.1123 C   0  0  0  0  0  0  0  0  0  0  0  0
    5.5720  -14.4822   26.0577 N   0  0  0  0  0  0  0  0  0  0  0  0
    6.3752  -13.4829   26.4669 C   0  0  0  0  0  0  0  0  0  0  0  0
    6.1866  -12.1329   26.5938 C   0  0  0  0  0  0  0  0  0  0  0  0
    7.2213  -11.3476   27.0503 C   0  0  0  0  0  0  0  0  0  0  0  0
    8.4486  -11.8963   27.3837 C   0  0  0  0  0  0  0  0  0  0  0  0
    8.5918  -13.2555   27.2403 C   0  0  0  0  0  0  0  0  0  0  0  0
    7.5772  -14.0647   26.7871 C   0  0  0  0  0  0  0  0  0  0  0  0
   10.8121  -17.0200   26.0243 C   0  0  0  0  0  0  0  0  0  0  0  0
   11.2805  -17.8816   27.0009 O   0  0  0  0  0  0  0  0  0  0  0  0
   11.1700  -17.2596   24.8468 O   0  0  0  0  0  0  0  0  0  0  0  0
  2 12  2  0
  2  1  1  0
  3  2  1  0
  4  5  1  0
  4  3  2  0
  5 11  2  0
  6  5  1  0
  7  6  1  0
  7  8  1  6
  9 13  1  0
  9  7  1  0
 10  9  2  0
 11 12  1  0
 14 13  1  0
 14 15  1  1
 16 15  1  0
 17 14  1  0
 17 18  2  0
 19 17  1  0
 20 19  1  0
 20 21  1  6
 22 21  1  0
 22 30  1  0
 23 24  1  0
 23 22  2  0
 24 25  1  0
 25 30  2  0
 25 26  1  0
 26 27  2  0
 27 28  1  0
 29 28  2  0
 30 29  1  0
 31 20  1  0
 32 31  1  0
 33 31  2  0
M  END
$$$$
