YCW.pdb
     RDKit          3D

 33 35  0  0  1  0  0  0  0  0999 V2000
   14.7773  -22.7614   17.3721 O   0  0  0  0  0  0  0  0  0  0  0  0
   14.2695  -21.7561   18.2044 C   0  0  0  0  0  0  0  0  0  0  0  0
   12.9379  -21.7177   18.5624 C   0  0  0  0  0  0  0  0  0  0  0  0
   12.4457  -20.7238   19.3828 C   0  0  0  0  0  0  0  0  0  0  0  0
   13.2658  -19.7213   19.8832 C   0  0  0  0  0  0  0  0  0  0  0  0
   12.7376  -18.6488   20.7684 C   0  0  0  0  0  0  0  0  0  0  0  0
   11.8190  -17.7856   19.9520 C   0  0  2  0  0  0  0  0  0  0  0  0
   12.4848  -17.2299   18.7918 N   0  0  0  0  0  0  0  0  0  0  0  0
   11.1360  -16.7500   20.7429 C   0  0  0  0  0  0  0  0  0  0  0  0
   11.8370  -15.7996   21.1769 O   0  0  0  0  0  0  0  0  0  0  0  0
   14.5943  -19.7733   19.5165 C   0  0  0  0  0  0  0  0  0  0  0  0
   15.0908  -20.7644   18.6969 C   0  0  0  0  0  0  0  0  0  0  0  0
    9.7451  -16.7758   21.0326 N   0  0  0  0  0  0  0  0  0  0  0  0
    9.1877  -15.7947   21.9011 C   0  0  1  0  0  0  0  0  0  0  0  0
    7.7247  -15.6107   21.4973 C   0  0  0  0  0  0  0  0  0  0  0  0
    6.9336  -14.4859   22.6653 S   0  0  0  0  0  0  0  0  0  0  0  0
    9.3053  -16.1358   23.3362 C   0  0  0  0  0  0  0  0  0  0  0  0
    8.8312  -17.2243   23.7481 O   0  0  0  0  0  0  0  0  0  0  0  0
    9.9334  -15.2879   24.2846 N   0  0  0  0  0  0  0  0  0  0  0  0
   10.1265  -15.6144   25.6658 C   0  0  1  0  0  0  0  0  0  0  0  0
    8.9003  -16.2587   26.2850 C   0  0  0  0  0  0  0  0  0  0  0  0
    7.7058  -15.3969   26.1122 C   0  0  0  0  0  0  0  0  0  0  0  0
    6.4214  -15.7380   25.7116 C   0  0  0  0  0  0  0  0  0  0  0  0
    5.6576  -14.6332   25.6931 N   0  0  0  0  0  0  0  0  0  0  0  0
    6.3832  -13.5632   26.0669 C   0  0  0  0  0  0  0  0  0  0  0  0
    6.0760  -12.2365   26.2078 C   0  0  0  0  0  0  0  0  0  0  0  0
    7.0540  -11.3579   26.6168 C   0  0  0  0  0  0  0  0  0  0  0  0
    8.3418  -11.7896   26.8884 C   0  0  0  0  0  0  0  0  0  0  0  0
    8.6038  -13.1297   26.7332 C   0  0  0  0  0  0  0  0  0  0  0  0
    7.6482  -14.0302   26.3265 C   0  0  0  0  0  0  0  0  0  0  0  0
   11.2339  -16.5882   25.7763 C   0  0  0  0  0  0  0  0  0  0  0  0
   11.7136  -17.1004   26.9691 O   0  0  0  0  0  0  0  0  0  0  0  0
   11.7916  -16.9915   24.7283 O   0  0  0  0  0  0  0  0  0  0  0  0
  2 12  2  0
  2  1  1  0
  3  2  1  0
  4  5  1  0
  4  3  2  0
  5 11  2  0
  6  5  1  0
  7  6  1  0
  7  8  1  6
  9 13  1  0
  9  7  1  0
 10  9  2  0
 11 12  1  0
 14 13  1  0
 14 15  1  6
 16 15  1  0
 17 14  1  0
 17 18  2  0
 19 17  1  0
 20 19  1  0
 20 21  1  6
 22 21  1  0
 22 30  1  0
 23 24  1  0
 23 22  2  0
 24 25  1  0
 25 30  2  0
 25 26  1  0
 26 27  2  0
 27 28  1  0
 29 28  2  0
 30 29  1  0
 31 20  1  0
 32 31  1  0
 33 31  2  0
M  END
$$$$
