YCW.pdb
     RDKit          3D

 33 35  0  0  1  0  0  0  0  0999 V2000
    9.9520  -13.9634   12.7857 O   0  0  0  0  0  0  0  0  0  0  0  0
    9.3699  -14.1270   14.0489 C   0  0  0  0  0  0  0  0  0  0  0  0
    8.0010  -14.1567   14.2159 C   0  0  0  0  0  0  0  0  0  0  0  0
    7.4356  -14.3183   15.4639 C   0  0  0  0  0  0  0  0  0  0  0  0
    8.2164  -14.4578   16.6036 C   0  0  0  0  0  0  0  0  0  0  0  0
    7.6092  -14.6326   17.9502 C   0  0  0  0  0  0  0  0  0  0  0  0
    7.7950  -16.0657   18.3591 C   0  0  2  0  0  0  0  0  0  0  0  0
    7.0275  -16.9710   17.5287 N   0  0  0  0  0  0  0  0  0  0  0  0
    7.5573  -16.2986   19.7922 C   0  0  0  0  0  0  0  0  0  0  0  0
    6.3637  -16.4415   20.1632 O   0  0  0  0  0  0  0  0  0  0  0  0
    9.5830  -14.4261   16.4203 C   0  0  0  0  0  0  0  0  0  0  0  0
   10.1527  -14.2648   15.1753 C   0  0  0  0  0  0  0  0  0  0  0  0
    8.5977  -16.3681   20.7576 N   0  0  0  0  0  0  0  0  0  0  0  0
    8.3117  -16.8432   22.0691 C   0  0  1  0  0  0  0  0  0  0  0  0
    7.8842  -18.3052   21.9382 C   0  0  0  0  0  0  0  0  0  0  0  0
    9.2191  -19.3599   22.5389 S   0  0  0  0  0  0  0  0  0  0  0  0
    9.4430  -16.7014   23.0124 C   0  0  0  0  0  0  0  0  0  0  0  0
   10.6033  -16.9897   22.6253 O   0  0  0  0  0  0  0  0  0  0  0  0
    9.2852  -16.2513   24.3486 N   0  0  0  0  0  0  0  0  0  0  0  0
   10.3563  -16.0964   25.2868 C   0  0  1  0  0  0  0  0  0  0  0  0
    9.9585  -15.2557   26.4855 C   0  0  0  0  0  0  0  0  0  0  0  0
    8.5004  -14.9845   26.4807 C   0  0  0  0  0  0  0  0  0  0  0  0
    7.4365  -15.8757   26.4920 C   0  0  0  0  0  0  0  0  0  0  0  0
    6.2838  -15.1862   26.4801 N   0  0  0  0  0  0  0  0  0  0  0  0
    6.5360  -13.8644   26.4613 C   0  0  0  0  0  0  0  0  0  0  0  0
    5.7216  -12.7641   26.4441 C   0  0  0  0  0  0  0  0  0  0  0  0
    6.2857  -11.5082   26.4267 C   0  0  0  0  0  0  0  0  0  0  0  0
    7.6600  -11.3361   26.4264 C   0  0  0  0  0  0  0  0  0  0  0  0
    8.4376  -12.4691   26.4441 C   0  0  0  0  0  0  0  0  0  0  0  0
    7.9032  -13.7355   26.4616 C   0  0  0  0  0  0  0  0  0  0  0  0
   10.7408  -17.4299   25.7975 C   0  0  0  0  0  0  0  0  0  0  0  0
    9.9400  -18.5568   25.7327 O   0  0  0  0  0  0  0  0  0  0  0  0
   11.8667  -17.5721   26.3304 O   0  0  0  0  0  0  0  0  0  0  0  0
  2 12  2  0
  2  1  1  0
  3  2  1  0
  4  5  1  0
  4  3  2  0
  5 11  2  0
  6  5  1  0
  7  6  1  0
  7  8  1  6
  9 13  1  0
  9  7  1  0
 10  9  2  0
 11 12  1  0
 14 13  1  0
 14 15  1  6
 16 15  1  0
 17 14  1  0
 17 18  2  0
 19 17  1  0
 20 19  1  0
 20 21  1  1
 22 21  1  0
 22 30  1  0
 23 24  1  0
 23 22  2  0
 24 25  1  0
 25 30  2  0
 25 26  1  0
 26 27  2  0
 27 28  1  0
 29 28  2  0
 30 29  1  0
 31 20  1  0
 32 31  1  0
 33 31  2  0
M  END
$$$$
