YCW.pdb
     RDKit          3D

 33 35  0  0  1  0  0  0  0  0999 V2000
    7.3884  -11.9623   16.7129 O   0  0  0  0  0  0  0  0  0  0  0  0
    7.4817  -12.7495   17.8675 C   0  0  0  0  0  0  0  0  0  0  0  0
    6.5802  -13.7604   18.1283 C   0  0  0  0  0  0  0  0  0  0  0  0
    6.6793  -14.5312   19.2681 C   0  0  0  0  0  0  0  0  0  0  0  0
    7.6874  -14.3248   20.2004 C   0  0  0  0  0  0  0  0  0  0  0  0
    7.7966  -15.1548   21.4299 C   0  0  0  0  0  0  0  0  0  0  0  0
    8.8204  -16.2241   21.1770 C   0  0  2  0  0  0  0  0  0  0  0  0
    8.4185  -17.1192   20.1114 N   0  0  0  0  0  0  0  0  0  0  0  0
    9.2117  -16.9558   22.3918 C   0  0  0  0  0  0  0  0  0  0  0  0
    8.4309  -17.8534   22.8012 O   0  0  0  0  0  0  0  0  0  0  0  0
    8.5808  -13.3107   19.9255 C   0  0  0  0  0  0  0  0  0  0  0  0
    8.4859  -12.5377   18.7880 C   0  0  0  0  0  0  0  0  0  0  0  0
   10.4107  -16.6980   23.1096 N   0  0  0  0  0  0  0  0  0  0  0  0
   10.6821  -17.4152   24.3093 C   0  0  1  0  0  0  0  0  0  0  0  0
   11.9706  -18.2063   24.0828 C   0  0  0  0  0  0  0  0  0  0  0  0
   11.8428  -19.0946   22.5176 S   0  0  0  0  0  0  0  0  0  0  0  0
   10.7905  -16.5519   25.5062 C   0  0  0  0  0  0  0  0  0  0  0  0
   11.5397  -15.5436   25.4686 O   0  0  0  0  0  0  0  0  0  0  0  0
   10.0841  -16.8053   26.7103 N   0  0  0  0  0  0  0  0  0  0  0  0
   10.2206  -16.0364   27.9110 C   0  0  1  0  0  0  0  0  0  0  0  0
    8.8819  -15.5850   28.4643 C   0  0  0  0  0  0  0  0  0  0  0  0
    7.9709  -15.1685   27.3706 C   0  0  0  0  0  0  0  0  0  0  0  0
    7.0833  -15.9297   26.6228 C   0  0  0  0  0  0  0  0  0  0  0  0
    6.4615  -15.1361   25.7351 N   0  0  0  0  0  0  0  0  0  0  0  0
    6.8999  -13.8699   25.8604 C   0  0  0  0  0  0  0  0  0  0  0  0
    6.5866  -12.7097   25.2046 C   0  0  0  0  0  0  0  0  0  0  0  0
    7.2180  -11.5403   25.5645 C   0  0  0  0  0  0  0  0  0  0  0  0
    8.1635  -11.5145   26.5763 C   0  0  0  0  0  0  0  0  0  0  0  0
    8.4458  -12.7028   27.2063 C   0  0  0  0  0  0  0  0  0  0  0  0
    7.8319  -13.8855   26.8690 C   0  0  0  0  0  0  0  0  0  0  0  0
   10.8597  -16.8766   28.9464 C   0  0  0  0  0  0  0  0  0  0  0  0
   11.3132  -16.4094   30.1677 O   0  0  0  0  0  0  0  0  0  0  0  0
   11.0116  -18.1010   28.7232 O   0  0  0  0  0  0  0  0  0  0  0  0
  2 12  2  0
  2  1  1  0
  3  2  1  0
  4  5  1  0
  4  3  2  0
  5 11  2  0
  6  5  1  0
  7  6  1  0
  7  8  1  6
  9 13  1  0
  9  7  1  0
 10  9  2  0
 11 12  1  0
 14 13  1  0
 14 15  1  6
 16 15  1  0
 17 14  1  0
 17 18  2  0
 19 17  1  0
 20 19  1  0
 20 21  1  1
 22 21  1  0
 22 30  1  0
 23 24  1  0
 23 22  2  0
 24 25  1  0
 25 30  2  0
 25 26  1  0
 26 27  2  0
 27 28  1  0
 29 28  2  0
 30 29  1  0
 31 20  1  0
 32 31  1  0
 33 31  2  0
M  END
$$$$
