YCW.pdb
     RDKit          3D

 33 35  0  0  1  0  0  0  0  0999 V2000
    7.4072  -12.0209   16.5772 O   0  0  0  0  0  0  0  0  0  0  0  0
    7.4681  -12.8017   17.7382 C   0  0  0  0  0  0  0  0  0  0  0  0
    8.3922  -12.5504   18.7311 C   0  0  0  0  0  0  0  0  0  0  0  0
    8.4454  -13.3245   19.8717 C   0  0  0  0  0  0  0  0  0  0  0  0
    7.5743  -14.3874   20.0707 C   0  0  0  0  0  0  0  0  0  0  0  0
    7.6294  -15.2232   21.3000 C   0  0  0  0  0  0  0  0  0  0  0  0
    8.5779  -16.3593   21.0449 C   0  0  2  0  0  0  0  0  0  0  0  0
    8.1111  -17.2285   19.9844 N   0  0  0  0  0  0  0  0  0  0  0  0
    8.9261  -17.1122   22.2599 C   0  0  0  0  0  0  0  0  0  0  0  0
    8.1729  -18.0667   22.5828 O   0  0  0  0  0  0  0  0  0  0  0  0
    6.6565  -14.6259   19.0693 C   0  0  0  0  0  0  0  0  0  0  0  0
    6.5993  -13.8553   17.9277 C   0  0  0  0  0  0  0  0  0  0  0  0
   10.0551  -16.8139   23.0697 N   0  0  0  0  0  0  0  0  0  0  0  0
   10.2897  -17.5652   24.2563 C   0  0  1  0  0  0  0  0  0  0  0  0
   11.3675  -18.5998   23.9320 C   0  0  0  0  0  0  0  0  0  0  0  0
   12.7543  -17.7675   23.1326 S   0  0  0  0  0  0  0  0  0  0  0  0
   10.6802  -16.7353   25.4176 C   0  0  0  0  0  0  0  0  0  0  0  0
   11.4242  -15.7389   25.2362 O   0  0  0  0  0  0  0  0  0  0  0  0
   10.2535  -17.0084   26.7428 N   0  0  0  0  0  0  0  0  0  0  0  0
   10.6836  -16.2846   27.9016 C   0  0  1  0  0  0  0  0  0  0  0  0
    9.5261  -15.6523   28.6514 C   0  0  0  0  0  0  0  0  0  0  0  0
    8.4141  -15.3229   27.7271 C   0  0  0  0  0  0  0  0  0  0  0  0
    7.4653  -16.1583   27.1542 C   0  0  0  0  0  0  0  0  0  0  0  0
    6.6470  -15.4289   26.3779 N   0  0  0  0  0  0  0  0  0  0  0  0
    7.0127  -14.1341   26.4093 C   0  0  0  0  0  0  0  0  0  0  0  0
    6.5123  -13.0131   25.8031 C   0  0  0  0  0  0  0  0  0  0  0  0
    7.1146  -11.7966   26.0332 C   0  0  0  0  0  0  0  0  0  0  0  0
    8.2161  -11.6845   26.8654 C   0  0  0  0  0  0  0  0  0  0  0  0
    8.6835  -12.8362   27.4519 C   0  0  0  0  0  0  0  0  0  0  0  0
    8.1031  -14.0643   27.2410 C   0  0  0  0  0  0  0  0  0  0  0  0
   11.3460  -17.2232   28.8327 C   0  0  0  0  0  0  0  0  0  0  0  0
   12.0059  -16.8474   29.9898 O   0  0  0  0  0  0  0  0  0  0  0  0
   11.3202  -18.4500   28.5752 O   0  0  0  0  0  0  0  0  0  0  0  0
  2 12  2  0
  2  1  1  0
  3  2  1  0
  4  5  1  0
  4  3  2  0
  5 11  2  0
  6  5  1  0
  7  6  1  0
  7  8  1  6
  9 13  1  0
  9  7  1  0
 10  9  2  0
 11 12  1  0
 14 13  1  0
 14 15  1  6
 16 15  1  0
 17 14  1  0
 17 18  2  0
 19 17  1  0
 20 19  1  0
 20 21  1  1
 22 21  1  0
 22 30  1  0
 23 24  1  0
 23 22  2  0
 24 25  1  0
 25 30  2  0
 25 26  1  0
 26 27  2  0
 27 28  1  0
 29 28  2  0
 30 29  1  0
 31 20  1  0
 32 31  1  0
 33 31  2  0
M  END
$$$$
