YCW.pdb
     RDKit          3D

 33 35  0  0  1  0  0  0  0  0999 V2000
   10.6961  -12.7796   19.0626 O   0  0  0  0  0  0  0  0  0  0  0  0
    9.4921  -13.4581   19.2893 C   0  0  0  0  0  0  0  0  0  0  0  0
    9.4631  -14.6968   19.8955 C   0  0  0  0  0  0  0  0  0  0  0  0
    8.2726  -15.3584   20.1150 C   0  0  0  0  0  0  0  0  0  0  0  0
    7.0547  -14.8090   19.7370 C   0  0  0  0  0  0  0  0  0  0  0  0
    5.7697  -15.5202   19.9730 C   0  0  0  0  0  0  0  0  0  0  0  0
    6.0895  -16.9239   20.4008 C   0  0  2  0  0  0  0  0  0  0  0  0
    5.1714  -17.8878   19.8298 N   0  0  0  0  0  0  0  0  0  0  0  0
    6.2099  -17.0759   21.8591 C   0  0  0  0  0  0  0  0  0  0  0  0
    5.1435  -17.1832   22.5180 O   0  0  0  0  0  0  0  0  0  0  0  0
    7.1002  -13.5703   19.1323 C   0  0  0  0  0  0  0  0  0  0  0  0
    8.2872  -12.9053   18.9107 C   0  0  0  0  0  0  0  0  0  0  0  0
    7.4550  -17.1063   22.5434 N   0  0  0  0  0  0  0  0  0  0  0  0
    7.4911  -17.4426   23.9265 C   0  0  1  0  0  0  0  0  0  0  0  0
    7.0363  -18.8968   24.0514 C   0  0  0  0  0  0  0  0  0  0  0  0
    7.2656  -19.4359   25.7578 S   0  0  0  0  0  0  0  0  0  0  0  0
    8.8174  -17.2437   24.5520 C   0  0  0  0  0  0  0  0  0  0  0  0
    9.8147  -17.8433   24.0775 O   0  0  0  0  0  0  0  0  0  0  0  0
    9.0257  -16.4007   25.6740 N   0  0  0  0  0  0  0  0  0  0  0  0
   10.3099  -16.0661   26.2131 C   0  0  1  0  0  0  0  0  0  0  0  0
   10.3098  -14.7215   26.9160 C   0  0  0  0  0  0  0  0  0  0  0  0
    8.9409  -14.3523   27.3510 C   0  0  0  0  0  0  0  0  0  0  0  0
    8.1888  -14.8417   28.4100 C   0  0  0  0  0  0  0  0  0  0  0  0
    6.9983  -14.2200   28.4294 N   0  0  0  0  0  0  0  0  0  0  0  0
    6.9245  -13.3310   27.4218 C   0  0  0  0  0  0  0  0  0  0  0  0
    5.9442  -12.4649   27.0177 C   0  0  0  0  0  0  0  0  0  0  0  0
    6.1652  -11.6602   25.9225 C   0  0  0  0  0  0  0  0  0  0  0  0
    7.3589  -11.7096   25.2219 C   0  0  0  0  0  0  0  0  0  0  0  0
    8.3136  -12.5939   25.6638 C   0  0  0  0  0  0  0  0  0  0  0  0
    8.1216  -13.4095   26.7535 C   0  0  0  0  0  0  0  0  0  0  0  0
   10.6863  -17.0837   27.2177 C   0  0  0  0  0  0  0  0  0  0  0  0
   11.9447  -17.2036   27.7812 O   0  0  0  0  0  0  0  0  0  0  0  0
    9.8202  -17.9057   27.6001 O   0  0  0  0  0  0  0  0  0  0  0  0
  2 12  2  0
  2  1  1  0
  3  2  1  0
  4  5  1  0
  4  3  2  0
  5 11  2  0
  6  5  1  0
  7  6  1  0
  7  8  1  1
  9 13  1  0
  9  7  1  0
 10  9  2  0
 11 12  1  0
 14 13  1  0
 14 15  1  6
 16 15  1  0
 17 14  1  0
 17 18  2  0
 19 17  1  0
 20 19  1  0
 20 21  1  1
 22 21  1  0
 22 30  1  0
 23 24  1  0
 23 22  2  0
 24 25  1  0
 25 30  2  0
 25 26  1  0
 26 27  2  0
 27 28  1  0
 29 28  2  0
 30 29  1  0
 31 20  1  0
 32 31  1  0
 33 31  2  0
M  END
$$$$
