YCW.pdb
     RDKit          3D

 33 35  0  0  1  0  0  0  0  0999 V2000
    8.1298  -12.0226   16.7890 O   0  0  0  0  0  0  0  0  0  0  0  0
    8.0101  -12.7243   17.9951 C   0  0  0  0  0  0  0  0  0  0  0  0
    6.8855  -13.4658   18.2918 C   0  0  0  0  0  0  0  0  0  0  0  0
    6.7756  -14.1542   19.4823 C   0  0  0  0  0  0  0  0  0  0  0  0
    7.7886  -14.1315   20.4317 C   0  0  0  0  0  0  0  0  0  0  0  0
    7.6727  -14.8732   21.7159 C   0  0  0  0  0  0  0  0  0  0  0  0
    8.1150  -16.2880   21.4747 C   0  0  2  0  0  0  0  0  0  0  0  0
    7.0612  -17.0947   20.8943 N   0  0  0  0  0  0  0  0  0  0  0  0
    8.7046  -16.9251   22.6625 C   0  0  0  0  0  0  0  0  0  0  0  0
    7.9320  -17.5789   23.4098 O   0  0  0  0  0  0  0  0  0  0  0  0
    8.9064  -13.3859   20.1205 C   0  0  0  0  0  0  0  0  0  0  0  0
    9.0208  -12.6964   18.9323 C   0  0  0  0  0  0  0  0  0  0  0  0
   10.0830  -16.8361   22.9963 N   0  0  0  0  0  0  0  0  0  0  0  0
   10.5549  -17.4230   24.2047 C   0  0  1  0  0  0  0  0  0  0  0  0
   11.9272  -18.0284   23.9087 C   0  0  0  0  0  0  0  0  0  0  0  0
   12.4886  -18.9402   25.3608 S   0  0  0  0  0  0  0  0  0  0  0  0
   10.6245  -16.4745   25.3384 C   0  0  0  0  0  0  0  0  0  0  0  0
   11.2555  -15.3969   25.1979 O   0  0  0  0  0  0  0  0  0  0  0  0
   10.0083  -16.7205   26.5925 N   0  0  0  0  0  0  0  0  0  0  0  0
   10.2710  -15.9764   27.7880 C   0  0  1  0  0  0  0  0  0  0  0  0
    9.0098  -15.3872   28.3916 C   0  0  0  0  0  0  0  0  0  0  0  0
    8.0098  -15.0870   27.3384 C   0  0  0  0  0  0  0  0  0  0  0  0
    7.1079  -15.9344   26.7099 C   0  0  0  0  0  0  0  0  0  0  0  0
    6.3935  -15.2322   25.8151 N   0  0  0  0  0  0  0  0  0  0  0  0
    6.7835  -13.9442   25.8205 C   0  0  0  0  0  0  0  0  0  0  0  0
    6.3761  -12.8477   25.1091 C   0  0  0  0  0  0  0  0  0  0  0  0
    6.9785  -11.6316   25.3410 C   0  0  0  0  0  0  0  0  0  0  0  0
    7.9881  -11.4957   26.2795 C   0  0  0  0  0  0  0  0  0  0  0  0
    8.3641  -12.6232   26.9694 C   0  0  0  0  0  0  0  0  0  0  0  0
    7.7811  -13.8502   26.7595 C   0  0  0  0  0  0  0  0  0  0  0  0
   10.8546  -16.8853   28.7979 C   0  0  0  0  0  0  0  0  0  0  0  0
   11.4000  -16.4753   30.0020 O   0  0  0  0  0  0  0  0  0  0  0  0
   10.8668  -18.1177   28.5676 O   0  0  0  0  0  0  0  0  0  0  0  0
  2 12  2  0
  2  1  1  0
  3  2  1  0
  4  5  1  0
  4  3  2  0
  5 11  2  0
  6  5  1  0
  7  6  1  0
  7  8  1  1
  9 13  1  0
  9  7  1  0
 10  9  2  0
 11 12  1  0
 14 13  1  0
 14 15  1  6
 16 15  1  0
 17 14  1  0
 17 18  2  0
 19 17  1  0
 20 19  1  0
 20 21  1  1
 22 21  1  0
 22 30  1  0
 23 24  1  0
 23 22  2  0
 24 25  1  0
 25 30  2  0
 25 26  1  0
 26 27  2  0
 27 28  1  0
 29 28  2  0
 30 29  1  0
 31 20  1  0
 32 31  1  0
 33 31  2  0
M  END
$$$$
