YCW.pdb
     RDKit          3D

 33 35  0  0  1  0  0  0  0  0999 V2000
   10.7320  -24.9934   17.4024 O   0  0  0  0  0  0  0  0  0  0  0  0
   10.5138  -23.6335   17.6565 C   0  0  0  0  0  0  0  0  0  0  0  0
    9.7156  -22.8636   16.8363 C   0  0  0  0  0  0  0  0  0  0  0  0
    9.5058  -21.5246   17.0939 C   0  0  0  0  0  0  0  0  0  0  0  0
   10.0867  -20.8943   18.1863 C   0  0  0  0  0  0  0  0  0  0  0  0
    9.8617  -19.4508   18.4664 C   0  0  0  0  0  0  0  0  0  0  0  0
    9.6858  -19.2890   19.9490 C   0  0  2  0  0  0  0  0  0  0  0  0
    8.6395  -20.1455   20.4682 N   0  0  0  0  0  0  0  0  0  0  0  0
    9.5085  -17.8893   20.3658 C   0  0  0  0  0  0  0  0  0  0  0  0
   10.3279  -17.0459   19.9185 O   0  0  0  0  0  0  0  0  0  0  0  0
   10.8819  -21.6773   18.9967 C   0  0  0  0  0  0  0  0  0  0  0  0
   11.0945  -23.0156   18.7436 C   0  0  0  0  0  0  0  0  0  0  0  0
    8.4713  -17.4563   21.2353 N   0  0  0  0  0  0  0  0  0  0  0  0
    8.3495  -16.0738   21.5535 C   0  0  1  0  0  0  0  0  0  0  0  0
    6.8583  -15.7736   21.7066 C   0  0  0  0  0  0  0  0  0  0  0  0
    6.6472  -14.0104   22.0254 S   0  0  0  0  0  0  0  0  0  0  0  0
    9.1003  -15.6743   22.7644 C   0  0  0  0  0  0  0  0  0  0  0  0
    9.6680  -14.5535   22.7914 O   0  0  0  0  0  0  0  0  0  0  0  0
    9.2148  -16.5005   23.9121 N   0  0  0  0  0  0  0  0  0  0  0  0
   10.0385  -16.2074   25.0467 C   0  0  1  0  0  0  0  0  0  0  0  0
    9.2665  -16.2623   26.3517 C   0  0  0  0  0  0  0  0  0  0  0  0
    8.0226  -15.4596   26.2645 C   0  0  0  0  0  0  0  0  0  0  0  0
    6.7144  -15.8775   26.0629 C   0  0  0  0  0  0  0  0  0  0  0  0
    5.9058  -14.8050   26.0524 N   0  0  0  0  0  0  0  0  0  0  0  0
    6.6243  -13.6826   26.2398 C   0  0  0  0  0  0  0  0  0  0  0  0
    6.2785  -12.3597   26.3096 C   0  0  0  0  0  0  0  0  0  0  0  0
    7.2600  -11.4163   26.5149 C   0  0  0  0  0  0  0  0  0  0  0  0
    8.5897  -11.7789   26.6523 C   0  0  0  0  0  0  0  0  0  0  0  0
    8.8896  -13.1179   26.5754 C   0  0  0  0  0  0  0  0  0  0  0  0
    7.9315  -14.0822   26.3712 C   0  0  0  0  0  0  0  0  0  0  0  0
   11.1123  -17.2205   25.1320 C   0  0  0  0  0  0  0  0  0  0  0  0
   12.1350  -17.2047   26.0644 O   0  0  0  0  0  0  0  0  0  0  0  0
   11.1159  -18.1688   24.3119 O   0  0  0  0  0  0  0  0  0  0  0  0
  2 12  2  0
  2  1  1  0
  3  2  1  0
  4  5  1  0
  4  3  2  0
  5 11  2  0
  6  5  1  0
  7  6  1  0
  7  8  1  6
  9 13  1  0
  9  7  1  0
 10  9  2  0
 11 12  1  0
 14 13  1  0
 14 15  1  1
 16 15  1  0
 17 14  1  0
 17 18  2  0
 19 17  1  0
 20 19  1  0
 20 21  1  1
 22 21  1  0
 22 30  1  0
 23 24  1  0
 23 22  2  0
 24 25  1  0
 25 30  2  0
 25 26  1  0
 26 27  2  0
 27 28  1  0
 29 28  2  0
 30 29  1  0
 31 20  1  0
 32 31  1  0
 33 31  2  0
M  END
$$$$
