EWH.pdb
     RDKit          3D

 34 36  0  0  1  0  0  0  0  0999 V2000
   28.5663  -22.3067  -16.1356 N   0  0  0  0  0  0  0  0  0  0  0  0
   28.2594  -21.0311  -15.4517 C   0  0  1  0  0  0  0  0  0  0  0  0
   27.5216  -20.1758  -16.4961 C   0  0  0  0  0  0  0  0  0  0  0  0
   27.0624  -21.1533  -17.5863 C   0  0  0  0  0  0  0  0  0  0  0  0
   27.5387  -20.6700  -18.8798 C   0  0  0  0  0  0  0  0  0  0  0  0
   27.9118  -19.4933  -19.0312 O   0  0  0  0  0  0  0  0  0  0  0  0
   27.4085  -21.3465  -14.3084 C   0  0  0  0  0  0  0  0  0  0  0  0
   26.7322  -22.4319  -14.2999 O   0  0  0  0  0  0  0  0  0  0  0  0
   27.5767  -21.5348  -19.9535 O   0  0  0  0  0  0  0  0  0  0  0  0
   27.2403  -20.5548  -13.1567 N   0  0  0  0  0  0  0  0  0  0  0  0
   26.3485  -20.8974  -12.0435 C   0  0  1  0  0  0  0  0  0  0  0  0
   26.8667  -20.1366  -10.8927 C   0  0  0  0  0  0  0  0  0  0  0  0
   28.0098  -20.6422  -10.1643 C   0  0  0  0  0  0  0  0  0  0  0  0
   29.1373  -21.3163  -10.5241 C   0  0  0  0  0  0  0  0  0  0  0  0
   29.9110  -21.5504   -9.4462 N   0  0  0  0  0  0  0  0  0  0  0  0
   29.3010  -21.0363   -8.3863 C   0  0  0  0  0  0  0  0  0  0  0  0
   29.6427  -20.9811   -7.0355 C   0  0  0  0  0  0  0  0  0  0  0  0
   28.8357  -20.3749   -6.0972 C   0  0  0  0  0  0  0  0  0  0  0  0
   27.6323  -19.7911   -6.4945 C   0  0  0  0  0  0  0  0  0  0  0  0
   27.3157  -19.8550   -7.8200 C   0  0  0  0  0  0  0  0  0  0  0  0
   28.1323  -20.4694   -8.7754 C   0  0  0  0  0  0  0  0  0  0  0  0
   24.9619  -20.5963  -12.4599 C   0  0  0  0  0  0  0  0  0  0  0  0
   24.7210  -19.4615  -12.9718 O   0  0  0  0  0  0  0  0  0  0  0  0
   23.9226  -21.5346  -12.2997 N   0  0  0  0  0  0  0  0  0  0  0  0
   22.5404  -21.2930  -12.7284 C   0  0  1  0  0  0  0  0  0  0  0  0
   21.9812  -22.4750  -13.4273 C   0  0  0  0  0  0  0  0  0  0  0  0
   20.5820  -22.3847  -13.8404 C   0  0  0  0  0  0  0  0  0  0  0  0
   19.7374  -21.3272  -13.5516 C   0  0  0  0  0  0  0  0  0  0  0  0
   18.5276  -21.5871  -14.0708 N   0  0  0  0  0  0  0  0  0  0  0  0
   18.6068  -22.7959  -14.6824 C   0  0  0  0  0  0  0  0  0  0  0  0
   19.8544  -23.2522  -14.5276 N   0  0  0  0  0  0  0  0  0  0  0  0
   21.7916  -20.8142  -11.5568 C   0  0  0  0  0  0  0  0  0  0  0  0
   22.3046  -20.8756  -10.2561 O   0  0  0  0  0  0  0  0  0  0  0  0
   20.6537  -20.3237  -11.6764 O   0  0  0  0  0  0  0  0  0  0  0  0
  2  1  1  6
  2  3  1  0
  3  4  1  0
  5  4  1  0
  5  9  1  0
  6  5  2  0
  7  2  1  0
  8  7  2  0
 10  7  1  0
 11 12  1  1
 11 10  1  0
 12 13  1  0
 13 14  2  0
 13 21  1  0
 14 15  1  0
 15 16  1  0
 16 17  2  0
 18 17  1  0
 19 18  2  0
 20 21  2  0
 20 19  1  0
 21 16  1  0
 22 23  2  0
 22 11  1  0
 24 22  1  0
 25 32  1  0
 25 24  1  0
 25 26  1  1
 27 28  2  0
 27 26  1  0
 29 28  1  0
 30 31  2  0
 30 29  1  0
 31 27  1  0
 32 33  1  0
 34 32  2  0
M  END
$$$$
