EWH.pdb
     RDKit          3D

 34 36  0  0  1  0  0  0  0  0999 V2000
   27.1256  -24.9561  -16.0690 N   0  0  0  0  0  0  0  0  0  0  0  0
   26.6447  -23.5744  -16.2892 C   0  0  1  0  0  0  0  0  0  0  0  0
   25.6615  -23.6680  -17.4687 C   0  0  0  0  0  0  0  0  0  0  0  0
   25.8747  -22.3904  -18.2914 C   0  0  0  0  0  0  0  0  0  0  0  0
   26.9139  -22.6419  -19.2866 C   0  0  0  0  0  0  0  0  0  0  0  0
   27.7375  -21.7626  -19.5957 O   0  0  0  0  0  0  0  0  0  0  0  0
   25.9814  -23.1458  -15.0615 C   0  0  0  0  0  0  0  0  0  0  0  0
   25.3220  -23.9931  -14.3665 O   0  0  0  0  0  0  0  0  0  0  0  0
   26.9844  -23.8778  -19.8944 O   0  0  0  0  0  0  0  0  0  0  0  0
   25.9861  -21.8434  -14.5278 N   0  0  0  0  0  0  0  0  0  0  0  0
   25.2812  -21.4516  -13.3024 C   0  0  1  0  0  0  0  0  0  0  0  0
   26.0678  -20.3338  -12.7515 C   0  0  0  0  0  0  0  0  0  0  0  0
   27.1853  -20.6155  -11.8771 C   0  0  0  0  0  0  0  0  0  0  0  0
   28.5031  -20.8894  -12.0853 C   0  0  0  0  0  0  0  0  0  0  0  0
   29.1386  -21.0699  -10.9111 N   0  0  0  0  0  0  0  0  0  0  0  0
   28.2499  -20.9168   -9.9381 C   0  0  0  0  0  0  0  0  0  0  0  0
   28.3508  -20.9842   -8.5489 C   0  0  0  0  0  0  0  0  0  0  0  0
   27.2676  -20.7783   -7.7223 C   0  0  0  0  0  0  0  0  0  0  0  0
   26.0198  -20.4913   -8.2770 C   0  0  0  0  0  0  0  0  0  0  0  0
   25.9414  -20.4291   -9.6376 C   0  0  0  0  0  0  0  0  0  0  0  0
   27.0387  -20.6375  -10.4799 C   0  0  0  0  0  0  0  0  0  0  0  0
   23.8770  -21.1546  -13.6586 C   0  0  0  0  0  0  0  0  0  0  0  0
   23.6544  -20.4511  -14.6899 O   0  0  0  0  0  0  0  0  0  0  0  0
   22.8015  -21.6329  -12.8835 N   0  0  0  0  0  0  0  0  0  0  0  0
   21.3973  -21.3116  -13.1614 C   0  0  1  0  0  0  0  0  0  0  0  0
   20.5165  -22.4714  -12.8831 C   0  0  0  0  0  0  0  0  0  0  0  0
   19.0795  -22.2463  -13.0275 C   0  0  0  0  0  0  0  0  0  0  0  0
   18.3843  -22.3064  -14.2226 C   0  0  0  0  0  0  0  0  0  0  0  0
   17.0925  -22.0320  -13.9845 N   0  0  0  0  0  0  0  0  0  0  0  0
   16.9720  -21.8018  -12.6527 C   0  0  0  0  0  0  0  0  0  0  0  0
   18.1834  -21.9375  -12.1023 N   0  0  0  0  0  0  0  0  0  0  0  0
   21.0793  -20.0658  -12.4476 C   0  0  0  0  0  0  0  0  0  0  0  0
   19.9662  -19.2782  -12.7626 O   0  0  0  0  0  0  0  0  0  0  0  0
   21.7971  -19.6561  -11.5167 O   0  0  0  0  0  0  0  0  0  0  0  0
  2  1  1  1
  2  3  1  0
  3  4  1  0
  5  4  1  0
  5  9  1  0
  6  5  2  0
  7  2  1  0
  8  7  2  0
 10  7  1  0
 11 12  1  6
 11 10  1  0
 12 13  1  0
 13 14  2  0
 13 21  1  0
 14 15  1  0
 15 16  1  0
 16 17  2  0
 18 17  1  0
 19 18  2  0
 20 21  2  0
 20 19  1  0
 21 16  1  0
 22 23  2  0
 22 11  1  0
 24 22  1  0
 25 32  1  0
 25 24  1  0
 25 26  1  1
 27 28  2  0
 27 26  1  0
 29 28  1  0
 30 31  2  0
 30 29  1  0
 31 27  1  0
 32 33  1  0
 34 32  2  0
M  END
$$$$
