EWH.pdb
     RDKit          3D

 34 36  0  0  1  0  0  0  0  0999 V2000
   27.7544  -25.3891  -17.5863 N   0  0  0  0  0  0  0  0  0  0  0  0
   26.6784  -26.1405  -16.9033 C   0  0  1  0  0  0  0  0  0  0  0  0
   25.3701  -25.6656  -17.5588 C   0  0  0  0  0  0  0  0  0  0  0  0
   24.9277  -24.4321  -16.7603 C   0  0  0  0  0  0  0  0  0  0  0  0
   24.1672  -24.8762  -15.5950 C   0  0  0  0  0  0  0  0  0  0  0  0
   23.4440  -25.8869  -15.6436 O   0  0  0  0  0  0  0  0  0  0  0  0
   26.9220  -27.5597  -17.1425 C   0  0  0  0  0  0  0  0  0  0  0  0
   27.1597  -27.9724  -18.3295 O   0  0  0  0  0  0  0  0  0  0  0  0
   24.2533  -24.1625  -14.4181 O   0  0  0  0  0  0  0  0  0  0  0  0
   26.9276  -28.5757  -16.1683 N   0  0  0  0  0  0  0  0  0  0  0  0
   27.3318  -29.9623  -16.4251 C   0  0  1  0  0  0  0  0  0  0  0  0
   28.6049  -30.1278  -15.7015 C   0  0  0  0  0  0  0  0  0  0  0  0
   29.8504  -30.0745  -16.4354 C   0  0  0  0  0  0  0  0  0  0  0  0
   30.4148  -29.1625  -17.2749 C   0  0  0  0  0  0  0  0  0  0  0  0
   31.6204  -29.5919  -17.6961 N   0  0  0  0  0  0  0  0  0  0  0  0
   31.8495  -30.7747  -17.1407 C   0  0  0  0  0  0  0  0  0  0  0  0
   32.9237  -31.6607  -17.2169 C   0  0  0  0  0  0  0  0  0  0  0  0
   32.9413  -32.8554  -16.5303 C   0  0  0  0  0  0  0  0  0  0  0  0
   31.8561  -33.2065  -15.7265 C   0  0  0  0  0  0  0  0  0  0  0  0
   30.8153  -32.3266  -15.6645 C   0  0  0  0  0  0  0  0  0  0  0  0
   30.7938  -31.1130  -16.3599 C   0  0  0  0  0  0  0  0  0  0  0  0
   26.2207  -30.8459  -16.0110 C   0  0  0  0  0  0  0  0  0  0  0  0
   25.6506  -30.6155  -14.9020 O   0  0  0  0  0  0  0  0  0  0  0  0
   25.7930  -31.9209  -16.8158 N   0  0  0  0  0  0  0  0  0  0  0  0
   24.6955  -32.8220  -16.4468 C   0  0  1  0  0  0  0  0  0  0  0  0
   23.9771  -33.3120  -17.6477 C   0  0  0  0  0  0  0  0  0  0  0  0
   23.1156  -32.3474  -18.3289 C   0  0  0  0  0  0  0  0  0  0  0  0
   22.6771  -31.1535  -17.7837 C   0  0  0  0  0  0  0  0  0  0  0  0
   21.8949  -30.5317  -18.6794 N   0  0  0  0  0  0  0  0  0  0  0  0
   21.8403  -31.3238  -19.7798 C   0  0  0  0  0  0  0  0  0  0  0  0
   22.5840  -32.4093  -19.5404 N   0  0  0  0  0  0  0  0  0  0  0  0
   25.2496  -33.8509  -15.5540 C   0  0  0  0  0  0  0  0  0  0  0  0
   24.7109  -34.1247  -14.2917 O   0  0  0  0  0  0  0  0  0  0  0  0
   26.2344  -34.5336  -15.8915 O   0  0  0  0  0  0  0  0  0  0  0  0
  2  1  1  6
  2  3  1  0
  3  4  1  0
  5  4  1  0
  5  9  1  0
  6  5  2  0
  7  2  1  0
  8  7  2  0
 10  7  1  0
 11 12  1  1
 11 10  1  0
 12 13  1  0
 13 14  2  0
 13 21  1  0
 14 15  1  0
 15 16  1  0
 16 17  2  0
 18 17  1  0
 19 18  2  0
 20 21  2  0
 20 19  1  0
 21 16  1  0
 22 23  2  0
 22 11  1  0
 24 22  1  0
 25 32  1  0
 25 24  1  0
 25 26  1  6
 27 28  2  0
 27 26  1  0
 29 28  1  0
 30 31  2  0
 30 29  1  0
 31 27  1  0
 32 33  1  0
 34 32  2  0
M  END
$$$$
