EWH.pdb
     RDKit          3D

 34 36  0  0  1  0  0  0  0  0999 V2000
   27.3390  -23.4678  -15.6185 N   0  0  0  0  0  0  0  0  0  0  0  0
   26.9216  -22.0579  -15.4546 C   0  0  1  0  0  0  0  0  0  0  0  0
   26.0290  -21.7530  -16.6700 C   0  0  0  0  0  0  0  0  0  0  0  0
   26.4143  -20.3393  -17.1259 C   0  0  0  0  0  0  0  0  0  0  0  0
   27.6333  -20.4212  -17.9267 C   0  0  0  0  0  0  0  0  0  0  0  0
   28.0546  -21.5119  -18.3504 O   0  0  0  0  0  0  0  0  0  0  0  0
   26.1806  -21.9686  -14.2002 C   0  0  0  0  0  0  0  0  0  0  0  0
   25.3148  -22.8637  -13.9085 O   0  0  0  0  0  0  0  0  0  0  0  0
   28.3297  -19.2675  -18.2196 O   0  0  0  0  0  0  0  0  0  0  0  0
   26.3178  -20.9620  -13.2259 N   0  0  0  0  0  0  0  0  0  0  0  0
   25.4920  -20.8658  -12.0173 C   0  0  1  0  0  0  0  0  0  0  0  0
   26.2352  -19.9640  -11.1193 C   0  0  0  0  0  0  0  0  0  0  0  0
   27.4749  -20.4162  -10.5265 C   0  0  0  0  0  0  0  0  0  0  0  0
   28.5709  -21.0664  -11.0073 C   0  0  0  0  0  0  0  0  0  0  0  0
   29.4783  -21.2486  -10.0283 N   0  0  0  0  0  0  0  0  0  0  0  0
   28.9868  -20.7243   -8.9132 C   0  0  0  0  0  0  0  0  0  0  0  0
   29.4900  -20.6228   -7.6166 C   0  0  0  0  0  0  0  0  0  0  0  0
   28.7852  -20.0155   -6.6000 C   0  0  0  0  0  0  0  0  0  0  0  0
   27.5238  -19.4782   -6.8588 C   0  0  0  0  0  0  0  0  0  0  0  0
   27.0490  -19.5869   -8.1332 C   0  0  0  0  0  0  0  0  0  0  0  0
   27.7614  -20.2026   -9.1677 C   0  0  0  0  0  0  0  0  0  0  0  0
   24.1403  -20.4233  -12.4219 C   0  0  0  0  0  0  0  0  0  0  0  0
   24.0417  -19.4246  -13.1971 O   0  0  0  0  0  0  0  0  0  0  0  0
   22.9806  -21.0827  -11.9675 N   0  0  0  0  0  0  0  0  0  0  0  0
   21.6193  -20.6488  -12.3008 C   0  0  1  0  0  0  0  0  0  0  0  0
   21.1351  -21.3054  -13.5389 C   0  0  0  0  0  0  0  0  0  0  0  0
   19.7678  -20.9916  -13.9495 C   0  0  0  0  0  0  0  0  0  0  0  0
   18.6925  -21.8569  -13.8503 C   0  0  0  0  0  0  0  0  0  0  0  0
   17.6003  -21.2450  -14.3333 N   0  0  0  0  0  0  0  0  0  0  0  0
   17.9809  -20.0053  -14.7328 C   0  0  0  0  0  0  0  0  0  0  0  0
   19.2902  -19.8807  -14.4899 N   0  0  0  0  0  0  0  0  0  0  0  0
   20.7907  -20.8314  -11.0997 C   0  0  0  0  0  0  0  0  0  0  0  0
   19.5920  -20.1381  -10.8969 O   0  0  0  0  0  0  0  0  0  0  0  0
   21.1256  -21.6253  -10.2012 O   0  0  0  0  0  0  0  0  0  0  0  0
  2  1  1  6
  2  3  1  0
  3  4  1  0
  5  4  1  0
  5  9  1  0
  6  5  2  0
  7  2  1  0
  8  7  2  0
 10  7  1  0
 11 12  1  1
 11 10  1  0
 12 13  1  0
 13 14  2  0
 13 21  1  0
 14 15  1  0
 15 16  1  0
 16 17  2  0
 18 17  1  0
 19 18  2  0
 20 21  2  0
 20 19  1  0
 21 16  1  0
 22 23  2  0
 22 11  1  0
 24 22  1  0
 25 32  1  0
 25 24  1  0
 25 26  1  6
 27 28  2  0
 27 26  1  0
 29 28  1  0
 30 31  2  0
 30 29  1  0
 31 27  1  0
 32 33  1  0
 34 32  2  0
M  END
$$$$
