EWH.pdb
     RDKit          3D

 34 36  0  0  1  0  0  0  0  0999 V2000
   28.5549  -22.5784  -15.7227 N   0  0  0  0  0  0  0  0  0  0  0  0
   27.6503  -21.4089  -15.6691 C   0  0  1  0  0  0  0  0  0  0  0  0
   26.8594  -21.4444  -16.9882 C   0  0  0  0  0  0  0  0  0  0  0  0
   27.6547  -22.3620  -17.9264 C   0  0  0  0  0  0  0  0  0  0  0  0
   28.7186  -21.5820  -18.5538 C   0  0  0  0  0  0  0  0  0  0  0  0
   29.9146  -21.8929  -18.4138 O   0  0  0  0  0  0  0  0  0  0  0  0
   26.7814  -21.5863  -14.5096 C   0  0  0  0  0  0  0  0  0  0  0  0
   25.5986  -22.0467  -14.6665 O   0  0  0  0  0  0  0  0  0  0  0  0
   28.3910  -20.4809  -19.3167 O   0  0  0  0  0  0  0  0  0  0  0  0
   27.1132  -21.2962  -13.1728 N   0  0  0  0  0  0  0  0  0  0  0  0
   26.1650  -21.3598  -12.0553 C   0  0  1  0  0  0  0  0  0  0  0  0
   26.9983  -21.2662  -10.8433 C   0  0  0  0  0  0  0  0  0  0  0  0
   26.3858  -20.8880   -9.5885 C   0  0  0  0  0  0  0  0  0  0  0  0
   25.0982  -20.7157   -9.1790 C   0  0  0  0  0  0  0  0  0  0  0  0
   25.0600  -20.3627   -7.8793 N   0  0  0  0  0  0  0  0  0  0  0  0
   26.3087  -20.3027   -7.4355 C   0  0  0  0  0  0  0  0  0  0  0  0
   26.8532  -19.9987   -6.1882 C   0  0  0  0  0  0  0  0  0  0  0  0
   28.2118  -20.0071   -5.9574 C   0  0  0  0  0  0  0  0  0  0  0  0
   29.0871  -20.3287   -6.9953 C   0  0  0  0  0  0  0  0  0  0  0  0
   28.5354  -20.6235   -8.2078 C   0  0  0  0  0  0  0  0  0  0  0  0
   27.1569  -20.6160   -8.4459 C   0  0  0  0  0  0  0  0  0  0  0  0
   25.1611  -20.2911  -12.2469 C   0  0  0  0  0  0  0  0  0  0  0  0
   25.5164  -19.2336  -12.8498 O   0  0  0  0  0  0  0  0  0  0  0  0
   23.8390  -20.4273  -11.7783 N   0  0  0  0  0  0  0  0  0  0  0  0
   22.6590  -20.0408  -12.5598 C   0  0  1  0  0  0  0  0  0  0  0  0
   22.6715  -20.6759  -13.8995 C   0  0  0  0  0  0  0  0  0  0  0  0
   23.0467  -19.8186  -15.0223 C   0  0  0  0  0  0  0  0  0  0  0  0
   23.3282  -18.4670  -14.9276 C   0  0  0  0  0  0  0  0  0  0  0  0
   23.6175  -17.9998  -16.1518 N   0  0  0  0  0  0  0  0  0  0  0  0
   23.5210  -19.0453  -17.0114 C   0  0  0  0  0  0  0  0  0  0  0  0
   23.1761  -20.1266  -16.3040 N   0  0  0  0  0  0  0  0  0  0  0  0
   21.4741  -20.2980  -11.7277 C   0  0  0  0  0  0  0  0  0  0  0  0
   20.3641  -19.4458  -11.7107 O   0  0  0  0  0  0  0  0  0  0  0  0
   21.4076  -21.3022  -10.9951 O   0  0  0  0  0  0  0  0  0  0  0  0
  2  1  1  6
  2  3  1  0
  3  4  1  0
  5  4  1  0
  5  9  1  0
  6  5  2  0
  7  2  1  0
  8  7  2  0
 10  7  1  0
 11 12  1  1
 11 10  1  0
 12 13  1  0
 13 14  2  0
 13 21  1  0
 14 15  1  0
 15 16  1  0
 16 17  2  0
 18 17  1  0
 19 18  2  0
 20 21  2  0
 20 19  1  0
 21 16  1  0
 22 23  2  0
 22 11  1  0
 24 22  1  0
 25 32  1  0
 25 24  1  0
 25 26  1  6
 27 28  2  0
 27 26  1  0
 29 28  1  0
 30 31  2  0
 30 29  1  0
 31 27  1  0
 32 33  1  0
 34 32  2  0
M  END
$$$$
