EWH.pdb
     RDKit          3D

 34 36  0  0  1  0  0  0  0  0999 V2000
   28.3393  -21.7388  -15.5188 N   0  0  0  0  0  0  0  0  0  0  0  0
   28.2795  -20.5907  -14.5876 C   0  0  1  0  0  0  0  0  0  0  0  0
   27.5762  -19.4678  -15.3695 C   0  0  0  0  0  0  0  0  0  0  0  0
   28.5307  -19.0942  -16.5115 C   0  0  0  0  0  0  0  0  0  0  0  0
   28.0272  -17.8904  -17.1682 C   0  0  0  0  0  0  0  0  0  0  0  0
   28.6985  -16.8439  -17.1991 O   0  0  0  0  0  0  0  0  0  0  0  0
   27.5017  -21.0143  -13.4272 C   0  0  0  0  0  0  0  0  0  0  0  0
   26.5134  -21.8113  -13.5812 O   0  0  0  0  0  0  0  0  0  0  0  0
   26.7848  -17.9147  -17.7662 O   0  0  0  0  0  0  0  0  0  0  0  0
   27.7271  -20.6286  -12.0924 N   0  0  0  0  0  0  0  0  0  0  0  0
   26.8783  -21.0269  -10.9643 C   0  0  1  0  0  0  0  0  0  0  0  0
   27.5979  -20.5640   -9.7644 C   0  0  0  0  0  0  0  0  0  0  0  0
   26.9762  -20.7045   -8.4657 C   0  0  0  0  0  0  0  0  0  0  0  0
   25.7580  -21.1435   -8.0433 C   0  0  0  0  0  0  0  0  0  0  0  0
   25.6753  -21.0841   -6.6998 N   0  0  0  0  0  0  0  0  0  0  0  0
   26.8264  -20.6111   -6.2403 C   0  0  0  0  0  0  0  0  0  0  0  0
   27.2929  -20.3517   -4.9520 C   0  0  0  0  0  0  0  0  0  0  0  0
   28.5565  -19.8564   -4.7136 C   0  0  0  0  0  0  0  0  0  0  0  0
   29.4118  -19.6000   -5.7858 C   0  0  0  0  0  0  0  0  0  0  0  0
   28.9376  -19.8604   -7.0382 C   0  0  0  0  0  0  0  0  0  0  0  0
   27.6555  -20.3633   -7.2841 C   0  0  0  0  0  0  0  0  0  0  0  0
   25.5311  -20.4576  -11.1832 C   0  0  0  0  0  0  0  0  0  0  0  0
   25.4324  -19.2114  -11.3953 O   0  0  0  0  0  0  0  0  0  0  0  0
   24.3759  -21.2645  -11.1603 N   0  0  0  0  0  0  0  0  0  0  0  0
   23.0326  -20.7645  -11.4736 C   0  0  1  0  0  0  0  0  0  0  0  0
   22.2542  -21.7644  -12.2433 C   0  0  0  0  0  0  0  0  0  0  0  0
   20.8679  -21.4150  -12.5481 C   0  0  0  0  0  0  0  0  0  0  0  0
   19.7862  -21.6742  -11.7249 C   0  0  0  0  0  0  0  0  0  0  0  0
   18.6708  -21.2330  -12.3264 N   0  0  0  0  0  0  0  0  0  0  0  0
   19.0436  -20.6994  -13.5171 C   0  0  0  0  0  0  0  0  0  0  0  0
   20.3710  -20.8229  -13.6236 N   0  0  0  0  0  0  0  0  0  0  0  0
   22.4303  -20.2977  -10.2158 C   0  0  0  0  0  0  0  0  0  0  0  0
   22.4873  -21.0395   -9.0305 O   0  0  0  0  0  0  0  0  0  0  0  0
   21.8384  -19.2043  -10.1524 O   0  0  0  0  0  0  0  0  0  0  0  0
  2  1  1  6
  2  3  1  0
  3  4  1  0
  5  4  1  0
  5  9  1  0
  6  5  2  0
  7  2  1  0
  8  7  2  0
 10  7  1  0
 11 12  1  1
 11 10  1  0
 12 13  1  0
 13 14  2  0
 13 21  1  0
 14 15  1  0
 15 16  1  0
 16 17  2  0
 18 17  1  0
 19 18  2  0
 20 21  2  0
 20 19  1  0
 21 16  1  0
 22 23  2  0
 22 11  1  0
 24 22  1  0
 25 32  1  0
 25 24  1  0
 25 26  1  1
 27 28  2  0
 27 26  1  0
 29 28  1  0
 30 31  2  0
 30 29  1  0
 31 27  1  0
 32 33  1  0
 34 32  2  0
M  END
$$$$
