EWH.pdb
     RDKit          3D

 34 36  0  0  1  0  0  0  0  0999 V2000
   18.6213  -30.5928   -6.4860 N   0  0  0  0  0  0  0  0  0  0  0  0
   17.5613  -30.4083   -5.4704 C   0  0  1  0  0  0  0  0  0  0  0  0
   17.7970  -31.5160   -4.4292 C   0  0  0  0  0  0  0  0  0  0  0  0
   16.5933  -31.4579   -3.4792 C   0  0  0  0  0  0  0  0  0  0  0  0
   17.0188  -31.9065   -2.1557 C   0  0  0  0  0  0  0  0  0  0  0  0
   18.1323  -31.5964   -1.6967 O   0  0  0  0  0  0  0  0  0  0  0  0
   17.7376  -29.0774   -4.8972 C   0  0  0  0  0  0  0  0  0  0  0  0
   18.9041  -28.6848   -4.5495 O   0  0  0  0  0  0  0  0  0  0  0  0
   16.1698  -32.6877   -1.4002 O   0  0  0  0  0  0  0  0  0  0  0  0
   16.7213  -28.1295   -4.6742 N   0  0  0  0  0  0  0  0  0  0  0  0
   16.9359  -26.8238   -4.0408 C   0  0  1  0  0  0  0  0  0  0  0  0
   16.5006  -25.8373   -5.0454 C   0  0  0  0  0  0  0  0  0  0  0  0
   17.4166  -25.4387   -6.0919 C   0  0  0  0  0  0  0  0  0  0  0  0
   18.6715  -25.8294   -6.4492 C   0  0  0  0  0  0  0  0  0  0  0  0
   19.0903  -25.1406   -7.5287 N   0  0  0  0  0  0  0  0  0  0  0  0
   18.1224  -24.3043   -7.8803 C   0  0  0  0  0  0  0  0  0  0  0  0
   18.0093  -23.3719   -8.9111 C   0  0  0  0  0  0  0  0  0  0  0  0
   16.8788  -22.6036   -9.0865 C   0  0  0  0  0  0  0  0  0  0  0  0
   15.8009  -22.7506   -8.2127 C   0  0  0  0  0  0  0  0  0  0  0  0
   15.9305  -23.6679   -7.2112 C   0  0  0  0  0  0  0  0  0  0  0  0
   17.0763  -24.4496   -7.0299 C   0  0  0  0  0  0  0  0  0  0  0  0
   16.2083  -26.8158   -2.7534 C   0  0  0  0  0  0  0  0  0  0  0  0
   14.9604  -27.0404   -2.7668 O   0  0  0  0  0  0  0  0  0  0  0  0
   16.8687  -26.5670   -1.5335 N   0  0  0  0  0  0  0  0  0  0  0  0
   16.1849  -26.5265   -0.2361 C   0  0  1  0  0  0  0  0  0  0  0  0
   17.1314  -26.7781    0.8771 C   0  0  0  0  0  0  0  0  0  0  0  0
   16.5679  -26.7638    2.2257 C   0  0  0  0  0  0  0  0  0  0  0  0
   15.3947  -27.3945    2.6009 C   0  0  0  0  0  0  0  0  0  0  0  0
   15.1753  -27.1580    3.9034 N   0  0  0  0  0  0  0  0  0  0  0  0
   16.1996  -26.3867    4.3474 C   0  0  0  0  0  0  0  0  0  0  0  0
   17.0222  -26.1651    3.3164 N   0  0  0  0  0  0  0  0  0  0  0  0
   15.4270  -25.2678   -0.1751 C   0  0  0  0  0  0  0  0  0  0  0  0
   14.2107  -25.1512    0.5072 O   0  0  0  0  0  0  0  0  0  0  0  0
   15.8448  -24.2370   -0.7342 O   0  0  0  0  0  0  0  0  0  0  0  0
  2  1  1  6
  2  3  1  0
  3  4  1  0
  5  4  1  0
  5  9  1  0
  6  5  2  0
  7  2  1  0
  8  7  2  0
 10  7  1  0
 11 12  1  6
 11 10  1  0
 12 13  1  0
 13 14  2  0
 13 21  1  0
 14 15  1  0
 15 16  1  0
 16 17  2  0
 18 17  1  0
 19 18  2  0
 20 21  2  0
 20 19  1  0
 21 16  1  0
 22 23  2  0
 22 11  1  0
 24 22  1  0
 25 32  1  0
 25 24  1  0
 25 26  1  1
 27 28  2  0
 27 26  1  0
 29 28  1  0
 30 31  2  0
 30 29  1  0
 31 27  1  0
 32 33  1  0
 34 32  2  0
M  END
$$$$
