EWH.pdb
     RDKit          3D

 34 36  0  0  1  0  0  0  0  0999 V2000
   23.1194  -12.0002  -19.0106 N   0  0  0  0  0  0  0  0  0  0  0  0
   22.3648  -10.8046  -19.4465 C   0  0  1  0  0  0  0  0  0  0  0  0
   20.9196  -11.2886  -19.6561 C   0  0  0  0  0  0  0  0  0  0  0  0
   20.9498  -12.1552  -20.9222 C   0  0  0  0  0  0  0  0  0  0  0  0
   19.6151  -12.1645  -21.5156 C   0  0  0  0  0  0  0  0  0  0  0  0
   18.7564  -11.3277  -21.1852 O   0  0  0  0  0  0  0  0  0  0  0  0
   22.4575   -9.8191  -18.3737 C   0  0  0  0  0  0  0  0  0  0  0  0
   22.2770  -10.1815  -17.1606 O   0  0  0  0  0  0  0  0  0  0  0  0
   19.3011  -13.1184  -22.4609 O   0  0  0  0  0  0  0  0  0  0  0  0
   22.7387   -8.4486  -18.5289 N   0  0  0  0  0  0  0  0  0  0  0  0
   22.8148   -7.4915  -17.4198 C   0  0  1  0  0  0  0  0  0  0  0  0
   24.0829   -6.7697  -17.6262 C   0  0  0  0  0  0  0  0  0  0  0  0
   25.3342   -7.4869  -17.5132 C   0  0  0  0  0  0  0  0  0  0  0  0
   26.5019   -7.4671  -18.2140 C   0  0  0  0  0  0  0  0  0  0  0  0
   27.3833   -8.3389  -17.6866 N   0  0  0  0  0  0  0  0  0  0  0  0
   26.8038   -8.9279  -16.6488 C   0  0  0  0  0  0  0  0  0  0  0  0
   27.2452   -9.8929  -15.7440 C   0  0  0  0  0  0  0  0  0  0  0  0
   26.4499  -10.3582  -14.7193 C   0  0  0  0  0  0  0  0  0  0  0  0
   25.1564   -9.8576  -14.5666 C   0  0  0  0  0  0  0  0  0  0  0  0
   24.7431   -8.9141  -15.4612 C   0  0  0  0  0  0  0  0  0  0  0  0
   25.5475   -8.4394  -16.5026 C   0  0  0  0  0  0  0  0  0  0  0  0
   21.5827   -6.6739  -17.4369 C   0  0  0  0  0  0  0  0  0  0  0  0
   21.1357   -6.2838  -18.5576 O   0  0  0  0  0  0  0  0  0  0  0  0
   20.9096   -6.3278  -16.2481 N   0  0  0  0  0  0  0  0  0  0  0  0
   19.7092   -5.4850  -16.2132 C   0  0  1  0  0  0  0  0  0  0  0  0
   18.6171   -6.1383  -15.4524 C   0  0  0  0  0  0  0  0  0  0  0  0
   17.9255   -7.2382  -16.1220 C   0  0  0  0  0  0  0  0  0  0  0  0
   17.9846   -7.5019  -17.4792 C   0  0  0  0  0  0  0  0  0  0  0  0
   17.2190   -8.5715  -17.7446 N   0  0  0  0  0  0  0  0  0  0  0  0
   16.6822   -8.9804  -16.5673 C   0  0  0  0  0  0  0  0  0  0  0  0
   17.1247   -8.1598  -15.6085 N   0  0  0  0  0  0  0  0  0  0  0  0
   20.1191   -4.1511  -15.7493 C   0  0  0  0  0  0  0  0  0  0  0  0
   19.2090   -3.1049  -15.5600 O   0  0  0  0  0  0  0  0  0  0  0  0
   21.3113   -3.8948  -15.4988 O   0  0  0  0  0  0  0  0  0  0  0  0
  2  1  1  1
  2  3  1  0
  3  4  1  0
  5  4  1  0
  5  9  1  0
  6  5  2  0
  7  2  1  0
  8  7  2  0
 10  7  1  0
 11 12  1  6
 11 10  1  0
 12 13  1  0
 13 14  2  0
 13 21  1  0
 14 15  1  0
 15 16  1  0
 16 17  2  0
 18 17  1  0
 19 18  2  0
 20 21  2  0
 20 19  1  0
 21 16  1  0
 22 23  2  0
 22 11  1  0
 24 22  1  0
 25 32  1  0
 25 24  1  0
 25 26  1  1
 27 28  2  0
 27 26  1  0
 29 28  1  0
 30 31  2  0
 30 29  1  0
 31 27  1  0
 32 33  1  0
 34 32  2  0
M  END
$$$$
