CQY.pdb
     RDKit          3D

 28 28  0  0  1  0  0  0  0  0999 V2000
    7.5746  -15.6546   17.9696 N   0  0  0  0  0  0  0  0  0  0  0  0
    8.7014  -15.1161   18.7047 C   0  0  1  0  0  0  0  0  0  0  0  0
    8.3802  -13.7175   19.2151 C   0  0  0  0  0  0  0  0  0  0  0  0
    8.2538  -12.5701   17.8242 S   0  0  0  0  0  0  0  0  0  0  0  0
    9.0004  -15.9942   19.8530 C   0  0  0  0  0  0  0  0  0  0  0  0
    8.0489  -16.4580   20.5205 O   0  0  0  0  0  0  0  0  0  0  0  0
   15.1085  -18.5223   22.5592 N   0  0  0  0  0  0  0  0  0  0  0  0
   13.9502  -19.0038   21.8901 C   0  0  0  0  0  0  0  0  0  0  0  0
   14.0832  -19.8232   20.9596 O   0  0  0  0  0  0  0  0  0  0  0  0
   12.5643  -18.5413   22.2856 C   0  0  0  0  0  0  0  0  0  0  0  0
   12.0537  -17.6862   21.1804 C   0  0  0  0  0  0  0  0  0  0  0  0
   10.6821  -17.1018   21.3651 C   0  0  2  0  0  0  0  0  0  0  0  0
   10.3319  -16.2977   20.1828 N   0  0  0  0  0  0  0  0  0  0  0  0
   10.5050  -16.2252   22.5156 C   0  0  0  0  0  0  0  0  0  0  0  0
   11.2231  -15.2143   22.6887 O   0  0  0  0  0  0  0  0  0  0  0  0
    6.1719  -11.2010   28.1648 O   0  0  0  0  0  0  0  0  0  0  0  0
    6.6672  -12.0776   27.2075 C   0  0  0  0  0  0  0  0  0  0  0  0
    5.8332  -13.0692   26.7626 C   0  0  0  0  0  0  0  0  0  0  0  0
    6.3024  -13.9574   25.8075 C   0  0  0  0  0  0  0  0  0  0  0  0
    7.5721  -13.8811   25.2904 C   0  0  0  0  0  0  0  0  0  0  0  0
    8.0104  -14.8502   24.2877 C   0  0  0  0  0  0  0  0  0  0  0  0
    9.2764  -15.5894   24.6159 C   0  0  2  0  0  0  0  0  0  0  0  0
    9.5031  -16.4919   23.4766 N   0  0  0  0  0  0  0  0  0  0  0  0
    9.1349  -16.3390   25.8678 C   0  0  0  0  0  0  0  0  0  0  0  0
    9.0880  -15.7321   26.9521 O   0  0  0  0  0  0  0  0  0  0  0  0
    8.3978  -12.8824   25.7449 C   0  0  0  0  0  0  0  0  0  0  0  0
    7.9440  -11.9753   26.7086 C   0  0  0  0  0  0  0  0  0  0  0  0
    9.0514  -17.7164   25.8632 O   0  0  0  0  0  0  0  0  0  0  0  0
  2  1  1  1
  2  5  1  0
  3  2  1  0
  4  3  1  0
  5  6  2  0
  8  7  1  0
  8 10  1  0
  9  8  2  0
 11 10  1  0
 12 11  1  6
 12 14  1  0
 13  5  1  0
 13 12  1  0
 14 15  2  0
 16 17  1  0
 17 18  2  0
 18 19  1  0
 20 21  1  0
 20 19  2  0
 22 21  1  6
 22 24  1  0
 23 22  1  0
 23 14  1  0
 24 25  2  0
 24 28  1  0
 26 20  1  0
 27 26  2  0
 27 17  1  0
M  END
$$$$
