CQY.pdb
     RDKit          3D

 28 28  0  0  1  0  0  0  0  0999 V2000
    7.7098  -15.4578   16.5852 N   0  0  0  0  0  0  0  0  0  0  0  0
    8.5228  -14.7687   17.5671 C   0  0  1  0  0  0  0  0  0  0  0  0
    7.8621  -13.4583   17.9749 C   0  0  0  0  0  0  0  0  0  0  0  0
    8.8488  -12.6445   19.2521 S   0  0  0  0  0  0  0  0  0  0  0  0
    8.6786  -15.6244   18.7599 C   0  0  0  0  0  0  0  0  0  0  0  0
    7.6775  -16.2330   19.1997 O   0  0  0  0  0  0  0  0  0  0  0  0
   12.7354  -19.5513   21.2901 N   0  0  0  0  0  0  0  0  0  0  0  0
   12.1981  -19.6196   19.9757 C   0  0  0  0  0  0  0  0  0  0  0  0
   12.3382  -20.6689   19.3164 O   0  0  0  0  0  0  0  0  0  0  0  0
   11.4622  -18.4465   19.3650 C   0  0  0  0  0  0  0  0  0  0  0  0
   11.4424  -17.3613   20.3826 C   0  0  0  0  0  0  0  0  0  0  0  0
   10.1452  -16.6217   20.5475 C   0  0  2  0  0  0  0  0  0  0  0  0
    9.9319  -15.7469   19.3829 N   0  0  0  0  0  0  0  0  0  0  0  0
   10.0372  -15.7644   21.7208 C   0  0  0  0  0  0  0  0  0  0  0  0
   10.6648  -14.6843   21.8061 O   0  0  0  0  0  0  0  0  0  0  0  0
    6.2007  -11.0659   27.9174 O   0  0  0  0  0  0  0  0  0  0  0  0
    6.5371  -11.9826   26.9291 C   0  0  0  0  0  0  0  0  0  0  0  0
    7.4284  -11.5824   25.9688 C   0  0  0  0  0  0  0  0  0  0  0  0
    7.7813  -12.4776   24.9711 C   0  0  0  0  0  0  0  0  0  0  0  0
    7.2710  -13.7508   24.9088 C   0  0  0  0  0  0  0  0  0  0  0  0
    7.6789  -14.6478   23.8291 C   0  0  0  0  0  0  0  0  0  0  0  0
    9.0467  -15.2517   23.9750 C   0  0  2  0  0  0  0  0  0  0  0  0
    9.2079  -16.1298   22.8057 N   0  0  0  0  0  0  0  0  0  0  0  0
    9.1539  -16.0079   25.2263 C   0  0  0  0  0  0  0  0  0  0  0  0
    9.4125  -15.4156   26.2886 O   0  0  0  0  0  0  0  0  0  0  0  0
    6.3786  -14.1393   25.8776 C   0  0  0  0  0  0  0  0  0  0  0  0
    6.0090  -13.2513   26.8937 C   0  0  0  0  0  0  0  0  0  0  0  0
    8.9706  -17.3755   25.2455 O   0  0  0  0  0  0  0  0  0  0  0  0
  2  1  1  6
  2  5  1  0
  3  2  1  0
  4  3  1  0
  5  6  2  0
  8  7  1  0
  8 10  1  0
  9  8  2  0
 11 10  1  0
 12 11  1  6
 12 14  1  0
 13  5  1  0
 13 12  1  0
 14 15  2  0
 16 17  1  0
 17 18  2  0
 18 19  1  0
 20 21  1  0
 20 19  2  0
 22 21  1  6
 22 24  1  0
 23 22  1  0
 23 14  1  0
 24 25  2  0
 24 28  1  0
 26 20  1  0
 27 26  2  0
 27 17  1  0
M  END
$$$$
