CQY.pdb
     RDKit          3D

 28 28  0  0  1  0  0  0  0  0999 V2000
   11.3178  -17.0283   17.2963 N   0  0  0  0  0  0  0  0  0  0  0  0
   10.0284  -17.0699   17.9567 C   0  0  1  0  0  0  0  0  0  0  0  0
    9.0655  -17.9594   17.1812 C   0  0  0  0  0  0  0  0  0  0  0  0
    9.2798  -17.6950   15.4060 S   0  0  0  0  0  0  0  0  0  0  0  0
   10.1951  -17.6099   19.3205 C   0  0  0  0  0  0  0  0  0  0  0  0
    9.1832  -17.7376   20.0457 O   0  0  0  0  0  0  0  0  0  0  0  0
   15.0078  -21.1030   20.9800 N   0  0  0  0  0  0  0  0  0  0  0  0
   13.7751  -21.6916   20.5865 C   0  0  0  0  0  0  0  0  0  0  0  0
   13.7573  -22.8897   20.2412 O   0  0  0  0  0  0  0  0  0  0  0  0
   12.4892  -20.8931   20.5793 C   0  0  0  0  0  0  0  0  0  0  0  0
   12.8163  -19.5278   21.0719 C   0  0  0  0  0  0  0  0  0  0  0  0
   11.6808  -18.5457   21.1255 C   0  0  2  0  0  0  0  0  0  0  0  0
   11.4702  -17.9708   19.7868 N   0  0  0  0  0  0  0  0  0  0  0  0
   11.8499  -17.4142   22.0280 C   0  0  0  0  0  0  0  0  0  0  0  0
   12.7303  -16.5451   21.8351 O   0  0  0  0  0  0  0  0  0  0  0  0
   10.8255  -13.5006   29.9911 O   0  0  0  0  0  0  0  0  0  0  0  0
   10.6843  -14.2406   28.8237 C   0  0  0  0  0  0  0  0  0  0  0  0
   10.2220  -13.5889   27.7110 C   0  0  0  0  0  0  0  0  0  0  0  0
   10.0719  -14.3038   26.5330 C   0  0  0  0  0  0  0  0  0  0  0  0
   10.3691  -15.6411   26.4392 C   0  0  0  0  0  0  0  0  0  0  0  0
   10.1859  -16.3414   25.1693 C   0  0  0  0  0  0  0  0  0  0  0  0
   11.3997  -16.4027   24.2862 C   0  0  2  0  0  0  0  0  0  0  0  0
   11.0123  -17.2617   23.1565 N   0  0  0  0  0  0  0  0  0  0  0  0
   12.5456  -16.9613   25.0101 C   0  0  0  0  0  0  0  0  0  0  0  0
   13.4904  -16.2231   25.3400 O   0  0  0  0  0  0  0  0  0  0  0  0
   10.8317  -16.2822   27.5621 C   0  0  0  0  0  0  0  0  0  0  0  0
   10.9905  -15.5792   28.7613 C   0  0  0  0  0  0  0  0  0  0  0  0
   12.5935  -18.3017   25.3347 O   0  0  0  0  0  0  0  0  0  0  0  0
  2  1  1  6
  2  5  1  0
  3  2  1  0
  4  3  1  0
  5  6  2  0
  8  7  1  0
  8 10  1  0
  9  8  2  0
 11 10  1  0
 12 11  1  6
 12 14  1  0
 13  5  1  0
 13 12  1  0
 14 15  2  0
 16 17  1  0
 17 18  2  0
 18 19  1  0
 20 21  1  0
 20 19  2  0
 22 21  1  1
 22 24  1  0
 23 22  1  0
 23 14  1  0
 24 25  2  0
 24 28  1  0
 26 20  1  0
 27 26  2  0
 27 17  1  0
M  END
$$$$
