CQY.pdb
     RDKit          3D

 28 28  0  0  1  0  0  0  0  0999 V2000
    5.6671  -16.0138   20.2462 N   0  0  0  0  0  0  0  0  0  0  0  0
    6.9441  -16.1543   20.9168 C   0  0  1  0  0  0  0  0  0  0  0  0
    7.7822  -14.8967   20.7272 C   0  0  0  0  0  0  0  0  0  0  0  0
    8.3831  -14.8100   19.0247 S   0  0  0  0  0  0  0  0  0  0  0  0
    6.7173  -16.3726   22.3590 C   0  0  0  0  0  0  0  0  0  0  0  0
    5.8388  -15.6965   22.9398 O   0  0  0  0  0  0  0  0  0  0  0  0
    6.6363  -21.8173   24.6011 N   0  0  0  0  0  0  0  0  0  0  0  0
    6.4995  -21.1448   25.8461 C   0  0  0  0  0  0  0  0  0  0  0  0
    6.1730  -21.7987   26.8566 O   0  0  0  0  0  0  0  0  0  0  0  0
    6.7420  -19.6557   25.9663 C   0  0  0  0  0  0  0  0  0  0  0  0
    6.9790  -19.1360   24.5925 C   0  0  0  0  0  0  0  0  0  0  0  0
    7.2133  -17.6574   24.4672 C   0  0  2  0  0  0  0  0  0  0  0  0
    7.4787  -17.3240   23.0582 N   0  0  0  0  0  0  0  0  0  0  0  0
    8.3323  -17.1158   25.2273 C   0  0  0  0  0  0  0  0  0  0  0  0
    9.4926  -17.0852   24.7579 O   0  0  0  0  0  0  0  0  0  0  0  0
    6.1209  -10.8004   25.0747 O   0  0  0  0  0  0  0  0  0  0  0  0
    6.7761  -11.7954   25.7894 C   0  0  0  0  0  0  0  0  0  0  0  0
    6.0433  -12.5107   26.6994 C   0  0  0  0  0  0  0  0  0  0  0  0
    6.6726  -13.5093   27.4260 C   0  0  0  0  0  0  0  0  0  0  0  0
    8.0033  -13.8087   27.2683 C   0  0  0  0  0  0  0  0  0  0  0  0
    8.6113  -14.8711   28.0673 C   0  0  0  0  0  0  0  0  0  0  0  0
    9.2406  -15.9874   27.2833 C   0  0  2  0  0  0  0  0  0  0  0  0
    8.1361  -16.5997   26.5287 N   0  0  0  0  0  0  0  0  0  0  0  0
    9.8773  -16.9598   28.1766 C   0  0  0  0  0  0  0  0  0  0  0  0
    9.4097  -18.1076   28.2783 O   0  0  0  0  0  0  0  0  0  0  0  0
    8.7263  -13.0842   26.3528 C   0  0  0  0  0  0  0  0  0  0  0  0
    8.1105  -12.0719   25.6088 C   0  0  0  0  0  0  0  0  0  0  0  0
   10.9953  -16.6209   28.9113 O   0  0  0  0  0  0  0  0  0  0  0  0
  2  1  1  6
  2  5  1  0
  3  2  1  0
  4  3  1  0
  5  6  2  0
  8  7  1  0
  8 10  1  0
  9  8  2  0
 11 10  1  0
 12 11  1  6
 12 14  1  0
 13  5  1  0
 13 12  1  0
 14 15  2  0
 16 17  1  0
 17 18  2  0
 18 19  1  0
 20 21  1  0
 20 19  2  0
 22 21  1  1
 22 24  1  0
 23 22  1  0
 23 14  1  0
 24 25  2  0
 24 28  1  0
 26 20  1  0
 27 26  2  0
 27 17  1  0
M  END
$$$$
