CQY.pdb
     RDKit          3D

 28 28  0  0  1  0  0  0  0  0999 V2000
    6.8681  -14.7934   19.0878 N   0  0  0  0  0  0  0  0  0  0  0  0
    8.2387  -14.4941   19.4510 C   0  0  1  0  0  0  0  0  0  0  0  0
    8.2974  -13.2284   20.2963 C   0  0  0  0  0  0  0  0  0  0  0  0
    7.8887  -11.7912   19.2793 S   0  0  0  0  0  0  0  0  0  0  0  0
    8.7962  -15.6203   20.2256 C   0  0  0  0  0  0  0  0  0  0  0  0
    8.0328  -16.2763   20.9693 O   0  0  0  0  0  0  0  0  0  0  0  0
   13.8995  -18.5320   18.5232 N   0  0  0  0  0  0  0  0  0  0  0  0
   13.7430  -19.1634   19.7872 C   0  0  0  0  0  0  0  0  0  0  0  0
   14.5342  -20.0697   20.1153 O   0  0  0  0  0  0  0  0  0  0  0  0
   12.6376  -18.7567   20.7379 C   0  0  0  0  0  0  0  0  0  0  0  0
   11.9250  -17.6070   20.1182 C   0  0  0  0  0  0  0  0  0  0  0  0
   10.7637  -17.0454   20.8882 C   0  0  2  0  0  0  0  0  0  0  0  0
   10.1599  -15.9422   20.1232 N   0  0  0  0  0  0  0  0  0  0  0  0
   11.0667  -16.5033   22.2065 C   0  0  0  0  0  0  0  0  0  0  0  0
   11.2486  -15.2779   22.3876 O   0  0  0  0  0  0  0  0  0  0  0  0
   10.3201  -13.8446   30.2141 O   0  0  0  0  0  0  0  0  0  0  0  0
   10.2725  -14.3252   28.9114 C   0  0  0  0  0  0  0  0  0  0  0  0
   11.3303  -15.0773   28.4731 C   0  0  0  0  0  0  0  0  0  0  0  0
   11.3082  -15.5691   27.1774 C   0  0  0  0  0  0  0  0  0  0  0  0
   10.2656  -15.3308   26.3161 C   0  0  0  0  0  0  0  0  0  0  0  0
   10.3021  -15.8737   24.9595 C   0  0  0  0  0  0  0  0  0  0  0  0
   11.4329  -16.8206   24.6743 C   0  0  2  0  0  0  0  0  0  0  0  0
   11.1600  -17.3547   23.3310 N   0  0  0  0  0  0  0  0  0  0  0  0
   11.4817  -17.8929   25.6728 C   0  0  0  0  0  0  0  0  0  0  0  0
   11.9297  -17.6619   26.8096 O   0  0  0  0  0  0  0  0  0  0  0  0
    9.2115  -14.5756   26.7682 C   0  0  0  0  0  0  0  0  0  0  0  0
    9.2139  -14.0696   28.0726 C   0  0  0  0  0  0  0  0  0  0  0  0
   11.0350  -19.1632   25.3707 O   0  0  0  0  0  0  0  0  0  0  0  0
  2  1  1  1
  2  5  1  0
  3  2  1  0
  4  3  1  0
  5  6  2  0
  8  7  1  0
  8 10  1  0
  9  8  2  0
 11 10  1  0
 12 11  1  6
 12 14  1  0
 13  5  1  0
 13 12  1  0
 14 15  2  0
 16 17  1  0
 17 18  2  0
 18 19  1  0
 20 21  1  0
 20 19  2  0
 22 21  1  1
 22 24  1  0
 23 22  1  0
 23 14  1  0
 24 25  2  0
 24 28  1  0
 26 20  1  0
 27 26  2  0
 27 17  1  0
M  END
$$$$
