CQY.pdb
     RDKit          3D

 28 28  0  0  1  0  0  0  0  0999 V2000
    7.3135  -14.2132   17.8262 N   0  0  0  0  0  0  0  0  0  0  0  0
    8.3492  -14.0225   18.8218 C   0  0  1  0  0  0  0  0  0  0  0  0
    8.1443  -12.7015   19.5518 C   0  0  0  0  0  0  0  0  0  0  0  0
    8.6548  -11.3289   18.4923 S   0  0  0  0  0  0  0  0  0  0  0  0
    8.2981  -15.1285   19.7982 C   0  0  0  0  0  0  0  0  0  0  0  0
    7.1820  -15.5185   20.2088 O   0  0  0  0  0  0  0  0  0  0  0  0
   11.0868  -18.2633   18.0370 N   0  0  0  0  0  0  0  0  0  0  0  0
    9.8385  -18.9000   18.2759 C   0  0  0  0  0  0  0  0  0  0  0  0
    9.2904  -19.5289   17.3490 O   0  0  0  0  0  0  0  0  0  0  0  0
    9.1656  -18.8284   19.6298 C   0  0  0  0  0  0  0  0  0  0  0  0
   10.0700  -18.0645   20.5309 C   0  0  0  0  0  0  0  0  0  0  0  0
    9.4831  -16.8535   21.1987 C   0  0  2  0  0  0  0  0  0  0  0  0
    9.4857  -15.7260   20.2523 N   0  0  0  0  0  0  0  0  0  0  0  0
   10.1711  -16.3793   22.3925 C   0  0  0  0  0  0  0  0  0  0  0  0
   11.3703  -16.0207   22.3616 O   0  0  0  0  0  0  0  0  0  0  0  0
   10.9105  -14.5640   31.0969 O   0  0  0  0  0  0  0  0  0  0  0  0
   10.4680  -14.7793   29.7977 C   0  0  0  0  0  0  0  0  0  0  0  0
   10.2508  -16.0743   29.4074 C   0  0  0  0  0  0  0  0  0  0  0  0
    9.8090  -16.3171   28.1162 C   0  0  0  0  0  0  0  0  0  0  0  0
    9.5810  -15.3083   27.2131 C   0  0  0  0  0  0  0  0  0  0  0  0
    9.1191  -15.6283   25.8637 C   0  0  0  0  0  0  0  0  0  0  0  0
   10.2013  -15.9344   24.8677 C   0  0  2  0  0  0  0  0  0  0  0  0
    9.4949  -16.3055   23.6317 N   0  0  0  0  0  0  0  0  0  0  0  0
   11.0540  -17.0286   25.3415 C   0  0  0  0  0  0  0  0  0  0  0  0
   10.6788  -18.2072   25.2136 O   0  0  0  0  0  0  0  0  0  0  0  0
    9.8026  -14.0147   27.6172 C   0  0  0  0  0  0  0  0  0  0  0  0
   10.2485  -13.7476   28.9162 C   0  0  0  0  0  0  0  0  0  0  0  0
   12.2751  -16.7711   25.9305 O   0  0  0  0  0  0  0  0  0  0  0  0
  2  1  1  6
  2  5  1  0
  3  2  1  0
  4  3  1  0
  5  6  2  0
  8  7  1  0
  8 10  1  0
  9  8  2  0
 11 10  1  0
 12 11  1  6
 12 14  1  0
 13  5  1  0
 13 12  1  0
 14 15  2  0
 16 17  1  0
 17 18  2  0
 18 19  1  0
 20 21  1  0
 20 19  2  0
 22 21  1  1
 22 24  1  0
 23 22  1  0
 23 14  1  0
 24 25  2  0
 24 28  1  0
 26 20  1  0
 27 26  2  0
 27 17  1  0
M  END
$$$$
