CQY.pdb
     RDKit          3D

 28 28  0  0  1  0  0  0  0  0999 V2000
    7.6499  -15.7804   17.3121 N   0  0  0  0  0  0  0  0  0  0  0  0
    8.7573  -15.2676   18.0937 C   0  0  1  0  0  0  0  0  0  0  0  0
    8.5309  -13.7999   18.4320 C   0  0  0  0  0  0  0  0  0  0  0  0
    8.5909  -12.8056   16.9237 S   0  0  0  0  0  0  0  0  0  0  0  0
    8.8715  -16.0413   19.3457 C   0  0  0  0  0  0  0  0  0  0  0  0
    7.8254  -16.4406   19.9046 O   0  0  0  0  0  0  0  0  0  0  0  0
   11.1077  -20.8622   20.8631 N   0  0  0  0  0  0  0  0  0  0  0  0
   11.0341  -20.0546   22.0307 C   0  0  0  0  0  0  0  0  0  0  0  0
   10.2586  -20.3853   22.9497 O   0  0  0  0  0  0  0  0  0  0  0  0
   11.8767  -18.8059   22.1777 C   0  0  0  0  0  0  0  0  0  0  0  0
   11.5626  -17.9245   21.0210 C   0  0  0  0  0  0  0  0  0  0  0  0
   10.3006  -17.1153   21.1191 C   0  0  2  0  0  0  0  0  0  0  0  0
   10.1356  -16.3193   19.8919 N   0  0  0  0  0  0  0  0  0  0  0  0
   10.2258  -16.1702   22.2258 C   0  0  0  0  0  0  0  0  0  0  0  0
   10.9458  -15.1467   22.2662 O   0  0  0  0  0  0  0  0  0  0  0  0
    6.4216  -11.0921   28.2001 O   0  0  0  0  0  0  0  0  0  0  0  0
    6.7175  -12.0104   27.2004 C   0  0  0  0  0  0  0  0  0  0  0  0
    7.9298  -12.6456   27.2605 C   0  0  0  0  0  0  0  0  0  0  0  0
    8.2502  -13.5667   26.2755 C   0  0  0  0  0  0  0  0  0  0  0  0
    7.3982  -13.8665   25.2413 C   0  0  0  0  0  0  0  0  0  0  0  0
    7.7949  -14.8445   24.2300 C   0  0  0  0  0  0  0  0  0  0  0  0
    9.1821  -15.4010   24.3808 C   0  0  2  0  0  0  0  0  0  0  0  0
    9.3248  -16.3824   23.2942 N   0  0  0  0  0  0  0  0  0  0  0  0
    9.3527  -16.0323   25.6929 C   0  0  0  0  0  0  0  0  0  0  0  0
    9.9595  -15.4308   26.5964 O   0  0  0  0  0  0  0  0  0  0  0  0
    6.1862  -13.2226   25.1930 C   0  0  0  0  0  0  0  0  0  0  0  0
    5.8430  -12.2894   26.1772 C   0  0  0  0  0  0  0  0  0  0  0  0
    8.8472  -17.2915   25.9443 O   0  0  0  0  0  0  0  0  0  0  0  0
  2  1  1  6
  2  5  1  0
  3  2  1  0
  4  3  1  0
  5  6  2  0
  8  7  1  0
  8 10  1  0
  9  8  2  0
 11 10  1  0
 12 11  1  6
 12 14  1  0
 13  5  1  0
 13 12  1  0
 14 15  2  0
 16 17  1  0
 17 18  2  0
 18 19  1  0
 20 21  1  0
 20 19  2  0
 22 21  1  1
 22 24  1  0
 23 22  1  0
 23 14  1  0
 24 25  2  0
 24 28  1  0
 26 20  1  0
 27 26  2  0
 27 17  1  0
M  END
$$$$
