CQY.pdb
     RDKit          3D

 28 28  0  0  1  0  0  0  0  0999 V2000
    8.5192  -12.8822   18.0002 N   0  0  0  0  0  0  0  0  0  0  0  0
    8.8608  -14.1703   18.5695 C   0  0  1  0  0  0  0  0  0  0  0  0
   10.3682  -14.2830   18.7563 C   0  0  0  0  0  0  0  0  0  0  0  0
   10.9542  -12.9564   19.8350 S   0  0  0  0  0  0  0  0  0  0  0  0
    8.1979  -14.3165   19.8804 C   0  0  0  0  0  0  0  0  0  0  0  0
    7.4410  -13.4026   20.2779 O   0  0  0  0  0  0  0  0  0  0  0  0
    6.4515  -20.0826   19.5433 N   0  0  0  0  0  0  0  0  0  0  0  0
    6.2327  -18.7463   19.1104 C   0  0  0  0  0  0  0  0  0  0  0  0
    6.3159  -18.4806   17.8949 O   0  0  0  0  0  0  0  0  0  0  0  0
    5.9020  -17.6450   20.0947 C   0  0  0  0  0  0  0  0  0  0  0  0
    7.0892  -17.4694   20.9739 C   0  0  0  0  0  0  0  0  0  0  0  0
    7.3540  -16.0767   21.4711 C   0  0  2  0  0  0  0  0  0  0  0  0
    8.4188  -15.4641   20.6600 N   0  0  0  0  0  0  0  0  0  0  0  0
    7.7853  -15.9590   22.8580 C   0  0  0  0  0  0  0  0  0  0  0  0
    7.0194  -16.2313   23.8103 O   0  0  0  0  0  0  0  0  0  0  0  0
    5.8612  -10.8738   27.3114 O   0  0  0  0  0  0  0  0  0  0  0  0
    6.5031  -12.0066   26.8266 C   0  0  0  0  0  0  0  0  0  0  0  0
    5.8280  -13.1967   26.8942 C   0  0  0  0  0  0  0  0  0  0  0  0
    6.4455  -14.3424   26.4175 C   0  0  0  0  0  0  0  0  0  0  0  0
    7.7090  -14.3296   25.8799 C   0  0  0  0  0  0  0  0  0  0  0  0
    8.3086  -15.5722   25.3973 C   0  0  0  0  0  0  0  0  0  0  0  0
    9.5485  -15.4088   24.5650 C   0  0  2  0  0  0  0  0  0  0  0  0
    9.0969  -15.5341   23.1705 N   0  0  0  0  0  0  0  0  0  0  0  0
   10.5404  -16.4360   24.8967 C   0  0  0  0  0  0  0  0  0  0  0  0
   10.7463  -17.3764   24.1097 O   0  0  0  0  0  0  0  0  0  0  0  0
    8.3746  -13.1300   25.8180 C   0  0  0  0  0  0  0  0  0  0  0  0
    7.7694  -11.9616   26.2936 C   0  0  0  0  0  0  0  0  0  0  0  0
   11.2551  -16.3761   26.0757 O   0  0  0  0  0  0  0  0  0  0  0  0
  2  1  1  1
  2  5  1  0
  3  2  1  0
  4  3  1  0
  5  6  2  0
  8  7  1  0
  8 10  1  0
  9  8  2  0
 11 10  1  0
 12 11  1  6
 12 14  1  0
 13  5  1  0
 13 12  1  0
 14 15  2  0
 16 17  1  0
 17 18  2  0
 18 19  1  0
 20 21  1  0
 20 19  2  0
 22 21  1  1
 22 24  1  0
 23 22  1  0
 23 14  1  0
 24 25  2  0
 24 28  1  0
 26 20  1  0
 27 26  2  0
 27 17  1  0
M  END
$$$$
