CQY.pdb
     RDKit          3D

 28 28  0  0  1  0  0  0  0  0999 V2000
    7.9606  -14.8617   16.2505 N   0  0  0  0  0  0  0  0  0  0  0  0
    8.5167  -14.3610   17.4916 C   0  0  1  0  0  0  0  0  0  0  0  0
    7.6178  -13.2787   18.0752 C   0  0  0  0  0  0  0  0  0  0  0  0
    8.2974  -12.6969   19.6458 S   0  0  0  0  0  0  0  0  0  0  0  0
    8.6302  -15.4702   18.4590 C   0  0  0  0  0  0  0  0  0  0  0  0
    7.7296  -16.3387   18.4881 O   0  0  0  0  0  0  0  0  0  0  0  0
   12.9419  -19.3364   19.7099 N   0  0  0  0  0  0  0  0  0  0  0  0
   12.5902  -18.5562   18.5748 C   0  0  0  0  0  0  0  0  0  0  0  0
   13.1422  -18.7917   17.4816 O   0  0  0  0  0  0  0  0  0  0  0  0
   11.5621  -17.4494   18.6691 C   0  0  0  0  0  0  0  0  0  0  0  0
   11.0940  -17.4028   20.0806 C   0  0  0  0  0  0  0  0  0  0  0  0
    9.8579  -16.5925   20.3496 C   0  0  2  0  0  0  0  0  0  0  0  0
    9.7326  -15.5411   19.3269 N   0  0  0  0  0  0  0  0  0  0  0  0
    9.8014  -15.9116   21.6367 C   0  0  0  0  0  0  0  0  0  0  0  0
   10.6628  -15.0672   21.9722 O   0  0  0  0  0  0  0  0  0  0  0  0
    6.4709  -11.4439   28.2481 O   0  0  0  0  0  0  0  0  0  0  0  0
    6.6281  -12.3637   27.2188 C   0  0  0  0  0  0  0  0  0  0  0  0
    7.7756  -12.2931   26.4740 C   0  0  0  0  0  0  0  0  0  0  0  0
    7.9577  -13.1991   25.4409 C   0  0  0  0  0  0  0  0  0  0  0  0
    7.0308  -14.1650   25.1356 C   0  0  0  0  0  0  0  0  0  0  0  0
    7.2783  -15.0897   24.0309 C   0  0  0  0  0  0  0  0  0  0  0  0
    8.7046  -15.5320   23.8679 C   0  0  2  0  0  0  0  0  0  0  0  0
    8.7583  -16.1851   22.5507 N   0  0  0  0  0  0  0  0  0  0  0  0
    9.0904  -16.4585   24.9365 C   0  0  0  0  0  0  0  0  0  0  0  0
    8.8380  -17.6712   24.8271 O   0  0  0  0  0  0  0  0  0  0  0  0
    5.8849  -14.2249   25.8901 C   0  0  0  0  0  0  0  0  0  0  0  0
    5.6814  -13.3199   26.9375 C   0  0  0  0  0  0  0  0  0  0  0  0
    9.7342  -16.0044   26.0696 O   0  0  0  0  0  0  0  0  0  0  0  0
  2  1  1  6
  2  5  1  0
  3  2  1  0
  4  3  1  0
  5  6  2  0
  8  7  1  0
  8 10  1  0
  9  8  2  0
 11 10  1  0
 12 11  1  6
 12 14  1  0
 13  5  1  0
 13 12  1  0
 14 15  2  0
 16 17  1  0
 17 18  2  0
 18 19  1  0
 20 21  1  0
 20 19  2  0
 22 21  1  1
 22 24  1  0
 23 22  1  0
 23 14  1  0
 24 25  2  0
 24 28  1  0
 26 20  1  0
 27 26  2  0
 27 17  1  0
M  END
$$$$
