KPE.pdb
     RDKit          3D

 26 26  0  0  1  0  0  0  0  0999 V2000
   15.6376  -25.2063   -0.2224 N   0  0  0  0  0  0  0  0  0  0  0  0
   14.9553  -24.0919    0.3404 C   0  0  1  0  0  0  0  0  0  0  0  0
   13.5409  -24.4547    0.8008 C   0  0  0  0  0  0  0  0  0  0  0  0
   12.6371  -24.6982   -0.3823 C   0  0  0  0  0  0  0  0  0  0  0  0
   11.2502  -25.1167    0.0112 C   0  0  0  0  0  0  0  0  0  0  0  0
   10.4039  -25.5042   -1.1805 C   0  0  0  0  0  0  0  0  0  0  0  0
    9.0731  -25.8057   -0.6663 N   0  0  0  0  0  0  0  0  0  0  0  0
   15.6426  -23.4155    1.4596 C   0  0  0  0  0  0  0  0  0  0  0  0
   16.1132  -24.2361    2.3437 O   0  0  0  0  0  0  0  0  0  0  0  0
   15.8162  -22.0274    1.6321 N   0  0  0  0  0  0  0  0  0  0  0  0
   15.3376  -20.9506    0.8196 C   0  0  0  0  0  0  0  0  0  0  0  0
   16.4880  -19.9332    0.9398 C   0  0  0  0  0  0  0  0  0  0  0  0
   16.8087  -20.0117    2.4048 C   0  0  0  0  0  0  0  0  0  0  0  0
   16.5731  -21.4472    2.7461 C   0  0  1  0  0  0  0  0  0  0  0  0
   15.8866  -21.6318    4.0338 C   0  0  0  0  0  0  0  0  0  0  0  0
   14.8991  -22.3949    4.1499 O   0  0  0  0  0  0  0  0  0  0  0  0
   16.3392  -20.9388    5.1798 N   0  0  0  0  0  0  0  0  0  0  0  0
   15.6643  -21.1175    6.4816 C   0  0  1  0  0  0  0  0  0  0  0  0
   15.9255  -22.5306    6.9087 C   0  0  0  0  0  0  0  0  0  0  0  0
   17.2630  -22.7797    7.5062 C   0  0  0  0  0  0  0  0  0  0  0  0
   17.4083  -24.1580    8.0177 C   0  0  0  0  0  0  0  0  0  0  0  0
   16.5180  -25.0342    7.9424 O   0  0  0  0  0  0  0  0  0  0  0  0
   16.2966  -20.1893    7.4452 C   0  0  0  0  0  0  0  0  0  0  0  0
   15.7878  -20.0563    8.7219 O   0  0  0  0  0  0  0  0  0  0  0  0
   18.6032  -24.5484    8.6327 O   0  0  0  0  0  0  0  0  0  0  0  0
   17.3004  -19.5020    7.1412 O   0  0  0  0  0  0  0  0  0  0  0  0
  2  1  1  1
  2  8  1  0
  2  3  1  0
  4  3  1  0
  4  5  1  0
  5  6  1  0
  6  7  1  0
  8 10  1  0
  9  8  2  0
 10 14  1  0
 10 11  1  0
 12 11  1  0
 12 13  1  0
 14 15  1  1
 14 13  1  0
 15 16  2  0
 15 17  1  0
 17 18  1  0
 18 23  1  0
 18 19  1  1
 20 19  1  0
 20 21  1  0
 21 22  2  0
 21 25  1  0
 23 26  2  0
 23 24  1  0
M  END
$$$$
