KPE.pdb
     RDKit          3D

 26 26  0  0  1  0  0  0  0  0999 V2000
   28.0183  -21.1460  -17.3219 N   0  0  0  0  0  0  0  0  0  0  0  0
   27.9792  -20.1422  -16.3145 C   0  0  1  0  0  0  0  0  0  0  0  0
   27.0466  -18.9868  -16.6882 C   0  0  0  0  0  0  0  0  0  0  0  0
   27.8338  -17.7308  -16.9685 C   0  0  0  0  0  0  0  0  0  0  0  0
   28.5368  -17.7590  -18.2947 C   0  0  0  0  0  0  0  0  0  0  0  0
   29.3885  -16.5306  -18.5231 C   0  0  0  0  0  0  0  0  0  0  0  0
   30.1325  -16.7625  -19.7556 N   0  0  0  0  0  0  0  0  0  0  0  0
   27.6159  -20.6050  -14.9594 C   0  0  0  0  0  0  0  0  0  0  0  0
   26.5325  -21.3135  -14.9327 O   0  0  0  0  0  0  0  0  0  0  0  0
   28.3144  -20.3506  -13.7619 N   0  0  0  0  0  0  0  0  0  0  0  0
   29.4842  -19.5530  -13.5518 C   0  0  0  0  0  0  0  0  0  0  0  0
   30.2043  -20.3409  -12.4411 C   0  0  0  0  0  0  0  0  0  0  0  0
   29.0619  -20.6953  -11.5330 C   0  0  0  0  0  0  0  0  0  0  0  0
   27.9167  -20.9138  -12.4675 C   0  0  1  0  0  0  0  0  0  0  0  0
   26.6535  -20.3383  -11.9811 C   0  0  0  0  0  0  0  0  0  0  0  0
   26.4012  -19.1156  -12.0923 O   0  0  0  0  0  0  0  0  0  0  0  0
   25.6883  -21.1711  -11.3702 N   0  0  0  0  0  0  0  0  0  0  0  0
   24.4406  -20.5999  -10.8235 C   0  0  1  0  0  0  0  0  0  0  0  0
   23.3182  -21.1559  -11.6474 C   0  0  0  0  0  0  0  0  0  0  0  0
   21.9520  -20.7757  -11.2038 C   0  0  0  0  0  0  0  0  0  0  0  0
   20.8990  -21.2968  -12.0994 C   0  0  0  0  0  0  0  0  0  0  0  0
   21.1228  -21.9395  -13.1496 O   0  0  0  0  0  0  0  0  0  0  0  0
   24.3051  -21.0729   -9.4278 C   0  0  0  0  0  0  0  0  0  0  0  0
   25.1447  -22.0542   -8.9396 O   0  0  0  0  0  0  0  0  0  0  0  0
   19.5520  -21.0786  -11.7886 O   0  0  0  0  0  0  0  0  0  0  0  0
   23.4371  -20.6067   -8.6521 O   0  0  0  0  0  0  0  0  0  0  0  0
  2  1  1  6
  2  8  1  0
  2  3  1  0
  4  3  1  0
  4  5  1  0
  5  6  1  0
  6  7  1  0
  8 10  1  0
  9  8  2  0
 10 14  1  0
 10 11  1  0
 12 11  1  0
 12 13  1  0
 14 15  1  1
 14 13  1  0
 15 16  2  0
 15 17  1  0
 17 18  1  0
 18 23  1  0
 18 19  1  6
 20 19  1  0
 20 21  1  0
 21 22  2  0
 21 25  1  0
 23 26  2  0
 23 24  1  0
M  END
$$$$
