KPE.pdb
     RDKit          3D

 26 26  0  0  1  0  0  0  0  0999 V2000
   19.0125  -14.4352  -16.4402 N   0  0  0  0  0  0  0  0  0  0  0  0
   18.7002  -13.3657  -17.3250 C   0  0  1  0  0  0  0  0  0  0  0  0
   17.2489  -12.9008  -17.1775 C   0  0  0  0  0  0  0  0  0  0  0  0
   16.2923  -13.9737  -17.6354 C   0  0  0  0  0  0  0  0  0  0  0  0
   16.0964  -15.0617  -16.6197 C   0  0  0  0  0  0  0  0  0  0  0  0
   14.9914  -16.0193  -17.0051 C   0  0  0  0  0  0  0  0  0  0  0  0
   14.9519  -17.0476  -15.9720 N   0  0  0  0  0  0  0  0  0  0  0  0
   19.5740  -12.1781  -17.2320 C   0  0  0  0  0  0  0  0  0  0  0  0
   19.9124  -11.8843  -16.0172 O   0  0  0  0  0  0  0  0  0  0  0  0
   20.0412  -11.3846  -18.2990 N   0  0  0  0  0  0  0  0  0  0  0  0
   19.8050  -11.5312  -19.7031 C   0  0  0  0  0  0  0  0  0  0  0  0
   21.1468  -11.0618  -20.2965 C   0  0  0  0  0  0  0  0  0  0  0  0
   21.4428   -9.8535  -19.4552 C   0  0  0  0  0  0  0  0  0  0  0  0
   20.9046  -10.2146  -18.1088 C   0  0  1  0  0  0  0  0  0  0  0  0
   20.1942   -9.1066  -17.4522 C   0  0  0  0  0  0  0  0  0  0  0  0
   18.9552   -8.9577  -17.5694 O   0  0  0  0  0  0  0  0  0  0  0  0
   20.9116   -8.1771  -16.6650 N   0  0  0  0  0  0  0  0  0  0  0  0
   20.2356   -6.9924  -16.0980 C   0  0  1  0  0  0  0  0  0  0  0  0
   20.6534   -6.9081  -14.6607 C   0  0  0  0  0  0  0  0  0  0  0  0
   20.0296   -7.9076  -13.7553 C   0  0  0  0  0  0  0  0  0  0  0  0
   20.5471   -7.8233  -12.3742 C   0  0  0  0  0  0  0  0  0  0  0  0
   21.6616   -7.3432  -12.0683 O   0  0  0  0  0  0  0  0  0  0  0  0
   20.7331   -5.8025  -16.8237 C   0  0  0  0  0  0  0  0  0  0  0  0
   20.0587   -4.6008  -16.7378 O   0  0  0  0  0  0  0  0  0  0  0  0
   19.7716   -8.3000  -11.3113 O   0  0  0  0  0  0  0  0  0  0  0  0
   21.7680   -5.8431  -17.5308 O   0  0  0  0  0  0  0  0  0  0  0  0
  2  1  1  1
  2  8  1  0
  2  3  1  0
  4  3  1  0
  4  5  1  0
  5  6  1  0
  6  7  1  0
  8 10  1  0
  9  8  2  0
 10 14  1  0
 10 11  1  0
 12 11  1  0
 12 13  1  0
 14 15  1  6
 14 13  1  0
 15 16  2  0
 15 17  1  0
 17 18  1  0
 18 23  1  0
 18 19  1  1
 20 19  1  0
 20 21  1  0
 21 22  2  0
 21 25  1  0
 23 26  2  0
 23 24  1  0
M  END
$$$$
