KPE.pdb
     RDKit          3D

 26 26  0  0  1  0  0  0  0  0999 V2000
   21.5415  -20.2018  -13.2026 N   0  0  0  0  0  0  0  0  0  0  0  0
   22.6975  -20.9977  -13.4353 C   0  0  1  0  0  0  0  0  0  0  0  0
   22.4401  -22.1004  -14.4660 C   0  0  0  0  0  0  0  0  0  0  0  0
   22.1180  -23.4073  -13.7847 C   0  0  0  0  0  0  0  0  0  0  0  0
   20.6514  -23.5885  -13.5198 C   0  0  0  0  0  0  0  0  0  0  0  0
   19.8852  -23.9867  -14.7611 C   0  0  0  0  0  0  0  0  0  0  0  0
   18.4856  -24.1009  -14.3682 N   0  0  0  0  0  0  0  0  0  0  0  0
   23.9126  -20.2631  -13.8434 C   0  0  0  0  0  0  0  0  0  0  0  0
   23.6624  -19.0931  -14.3385 O   0  0  0  0  0  0  0  0  0  0  0  0
   25.2458  -20.7092  -13.7432 N   0  0  0  0  0  0  0  0  0  0  0  0
   25.7575  -21.8892  -13.1152 C   0  0  0  0  0  0  0  0  0  0  0  0
   27.1075  -21.3906  -12.5659 C   0  0  0  0  0  0  0  0  0  0  0  0
   27.6177  -20.5714  -13.7165 C   0  0  0  0  0  0  0  0  0  0  0  0
   26.3819  -19.9699  -14.3030 C   0  0  1  0  0  0  0  0  0  0  0  0
   26.3744  -19.9793  -15.7738 C   0  0  0  0  0  0  0  0  0  0  0  0
   25.8070  -20.8887  -16.4234 O   0  0  0  0  0  0  0  0  0  0  0  0
   27.0184  -18.9437  -16.4888 N   0  0  0  0  0  0  0  0  0  0  0  0
   27.0210  -18.9391  -17.9660 C   0  0  1  0  0  0  0  0  0  0  0  0
   27.2604  -17.5210  -18.3892 C   0  0  0  0  0  0  0  0  0  0  0  0
   27.4122  -17.3087  -19.8520 C   0  0  0  0  0  0  0  0  0  0  0  0
   27.6866  -15.8982  -20.1953 C   0  0  0  0  0  0  0  0  0  0  0  0
   28.6810  -15.5140  -20.8509 O   0  0  0  0  0  0  0  0  0  0  0  0
   28.1515  -19.7821  -18.4147 C   0  0  0  0  0  0  0  0  0  0  0  0
   28.1125  -20.4023  -19.6476 O   0  0  0  0  0  0  0  0  0  0  0  0
   26.8017  -14.8971  -19.7792 O   0  0  0  0  0  0  0  0  0  0  0  0
   29.1682  -19.9599  -17.7025 O   0  0  0  0  0  0  0  0  0  0  0  0
  2  1  1  6
  2  8  1  0
  2  3  1  0
  4  3  1  0
  4  5  1  0
  5  6  1  0
  6  7  1  0
  8 10  1  0
  9  8  2  0
 10 14  1  0
 10 11  1  0
 12 11  1  0
 12 13  1  0
 14 15  1  6
 14 13  1  0
 15 16  2  0
 15 17  1  0
 17 18  1  0
 18 23  1  0
 18 19  1  1
 20 19  1  0
 20 21  1  0
 21 22  2  0
 21 25  1  0
 23 26  2  0
 23 24  1  0
M  END
$$$$
