KPE.pdb
     RDKit          3D

 26 26  0  0  1  0  0  0  0  0999 V2000
   17.2766  -31.3186   -1.4711 N   0  0  0  0  0  0  0  0  0  0  0  0
   17.3548  -29.9106   -1.6594 C   0  0  1  0  0  0  0  0  0  0  0  0
   15.9707  -29.2694   -1.7922 C   0  0  0  0  0  0  0  0  0  0  0  0
   15.2585  -29.7792   -3.0205 C   0  0  0  0  0  0  0  0  0  0  0  0
   15.6239  -29.0287   -4.2682 C   0  0  0  0  0  0  0  0  0  0  0  0
   14.8337  -29.4902   -5.4721 C   0  0  0  0  0  0  0  0  0  0  0  0
   15.2295  -28.6336   -6.5837 N   0  0  0  0  0  0  0  0  0  0  0  0
   18.1088  -29.1651   -0.6307 C   0  0  0  0  0  0  0  0  0  0  0  0
   17.9858  -29.6641    0.5577 O   0  0  0  0  0  0  0  0  0  0  0  0
   18.9053  -28.0192   -0.8286 N   0  0  0  0  0  0  0  0  0  0  0  0
   19.1485  -27.2868   -2.0341 C   0  0  0  0  0  0  0  0  0  0  0  0
   20.6120  -26.8462   -1.8421 C   0  0  0  0  0  0  0  0  0  0  0  0
   20.6140  -26.4246   -0.4007 C   0  0  0  0  0  0  0  0  0  0  0  0
   19.6586  -27.3714    0.2501 C   0  0  1  0  0  0  0  0  0  0  0  0
   18.7724  -26.7206    1.2271 C   0  0  0  0  0  0  0  0  0  0  0  0
   17.6591  -26.2503    0.8949 O   0  0  0  0  0  0  0  0  0  0  0  0
   19.1708  -26.6145    2.5793 N   0  0  0  0  0  0  0  0  0  0  0  0
   18.3124  -25.9246    3.5638 C   0  0  1  0  0  0  0  0  0  0  0  0
   18.4518  -26.6757    4.8538 C   0  0  0  0  0  0  0  0  0  0  0  0
   19.8251  -26.7235    5.4191 C   0  0  0  0  0  0  0  0  0  0  0  0
   19.8967  -27.5046    6.6710 C   0  0  0  0  0  0  0  0  0  0  0  0
   19.5189  -28.6925    6.7820 O   0  0  0  0  0  0  0  0  0  0  0  0
   18.8408  -24.5530    3.7357 C   0  0  0  0  0  0  0  0  0  0  0  0
   18.1147  -23.6084    4.4333 O   0  0  0  0  0  0  0  0  0  0  0  0
   20.4138  -26.9142    7.8297 O   0  0  0  0  0  0  0  0  0  0  0  0
   19.9487  -24.2061    3.2614 O   0  0  0  0  0  0  0  0  0  0  0  0
  2  1  1  1
  2  8  1  0
  2  3  1  0
  4  3  1  0
  4  5  1  0
  5  6  1  0
  6  7  1  0
  8 10  1  0
  9  8  2  0
 10 14  1  0
 10 11  1  0
 12 11  1  0
 12 13  1  0
 14 15  1  1
 14 13  1  0
 15 16  2  0
 15 17  1  0
 17 18  1  0
 18 23  1  0
 18 19  1  1
 20 19  1  0
 20 21  1  0
 21 22  2  0
 21 25  1  0
 23 26  2  0
 23 24  1  0
M  END
$$$$
