IVG.pdb
     RDKit          3D

 20 19  0  0  1  0  0  0  0  0999 V2000
   26.5549  -20.6195  -10.0095 C   0  0  0  0  0  0  0  0  0  0  0  0
   25.2797  -21.1920  -10.5757 C   0  0  0  0  0  0  0  0  0  0  0  0
   25.1867  -20.9135  -12.0518 C   0  0  2  0  0  0  0  0  0  0  0  0
   25.3233  -19.4487  -12.3716 C   0  0  0  0  0  0  0  0  0  0  0  0
   23.8393  -21.3650  -12.5781 C   0  0  2  0  0  0  0  0  0  0  0  0
   23.7654  -22.7943  -12.2797 N   0  0  0  0  0  0  0  0  0  0  0  0
   23.7073  -21.1348  -14.0332 C   0  0  0  0  0  0  0  0  0  0  0  0
   24.6025  -21.5637  -14.7894 O   0  0  0  0  0  0  0  0  0  0  0  0
   20.7745  -20.8082  -17.8374 C   0  0  0  0  0  0  0  0  0  0  0  0
   21.2437  -20.9882  -16.4366 C   0  0  1  0  0  0  0  0  0  0  0  0
   21.4753  -22.4888  -16.2099 C   0  0  0  0  0  0  0  0  0  0  0  0
   22.4535  -20.2248  -16.0339 C   0  0  2  0  0  0  0  0  0  0  0  0
   22.6053  -20.4490  -14.5873 N   0  0  0  0  0  0  0  0  0  0  0  0
   22.4443  -18.7885  -16.3059 C   0  0  0  0  0  0  0  0  0  0  0  0
   21.6217  -18.0372  -15.6932 O   0  0  0  0  0  0  0  0  0  0  0  0
   23.3114  -18.1515  -17.2294 N   0  0  0  0  0  0  0  0  0  0  0  0
   23.1906  -16.7170  -17.4016 C   0  0  0  0  0  0  0  0  0  0  0  0
   22.2073  -16.3355  -18.4077 C   0  0  0  0  0  0  0  0  0  0  0  0
   21.4754  -17.1962  -18.9357 O   0  0  0  0  0  0  0  0  0  0  0  0
   22.0773  -15.0176  -18.7853 O   0  0  0  0  0  0  0  0  0  0  0  0
  1  2  1  0
  3  2  1  0
  3  5  1  0
  3  4  1  1
  5  7  1  0
  5  6  1  6
  7  8  2  0
  7 13  1  0
 10  9  1  6
 10 11  1  0
 12 14  1  0
 12 10  1  0
 12 13  1  1
 14 15  2  0
 16 14  1  0
 16 17  1  0
 17 18  1  0
 18 20  1  0
 19 18  2  0
M  END
$$$$
