IVG.pdb
     RDKit          3D

 20 19  0  0  1  0  0  0  0  0999 V2000
   19.1434  -19.3812  -15.7028 C   0  0  0  0  0  0  0  0  0  0  0  0
   20.4672  -18.9634  -16.2921 C   0  0  0  0  0  0  0  0  0  0  0  0
   21.5940  -19.7294  -15.6528 C   0  0  2  0  0  0  0  0  0  0  0  0
   21.6182  -19.5763  -14.1553 C   0  0  0  0  0  0  0  0  0  0  0  0
   22.9233  -19.2259  -16.1779 C   0  0  2  0  0  0  0  0  0  0  0  0
   22.8936  -19.4806  -17.6173 N   0  0  0  0  0  0  0  0  0  0  0  0
   24.0668  -19.9264  -15.5541 C   0  0  0  0  0  0  0  0  0  0  0  0
   24.1678  -21.1606  -15.7090 O   0  0  0  0  0  0  0  0  0  0  0  0
   28.6777  -19.5844  -13.9617 C   0  0  0  0  0  0  0  0  0  0  0  0
   27.3916  -19.1992  -14.6039 C   0  0  1  0  0  0  0  0  0  0  0  0
   27.5623  -19.3521  -16.1219 C   0  0  0  0  0  0  0  0  0  0  0  0
   26.1767  -19.9293  -14.1571 C   0  0  2  0  0  0  0  0  0  0  0  0
   25.0408  -19.2439  -14.7941 N   0  0  0  0  0  0  0  0  0  0  0  0
   25.9514  -20.0084  -12.7149 C   0  0  0  0  0  0  0  0  0  0  0  0
   25.6112  -18.9650  -12.0730 O   0  0  0  0  0  0  0  0  0  0  0  0
   26.0871  -21.1983  -11.9559 N   0  0  0  0  0  0  0  0  0  0  0  0
   25.8557  -21.1265  -10.5265 C   0  0  0  0  0  0  0  0  0  0  0  0
   24.4449  -21.1863  -10.1648 C   0  0  0  0  0  0  0  0  0  0  0  0
   23.5685  -21.2763  -11.0473 O   0  0  0  0  0  0  0  0  0  0  0  0
   24.0661  -21.1439   -8.8415 O   0  0  0  0  0  0  0  0  0  0  0  0
  1  2  1  0
  3  2  1  0
  3  5  1  0
  3  4  1  1
  5  7  1  0
  5  6  1  6
  7  8  2  0
  7 13  1  0
 10  9  1  1
 10 11  1  0
 12 14  1  0
 12 10  1  0
 12 13  1  6
 14 15  2  0
 16 14  1  0
 16 17  1  0
 17 18  1  0
 18 20  1  0
 19 18  2  0
M  END
$$$$
