IVG.pdb
     RDKit          3D

 20 19  0  0  1  0  0  0  0  0999 V2000
   16.6419  -25.8643   -8.9064 C   0  0  0  0  0  0  0  0  0  0  0  0
   17.8329  -25.3620   -8.1295 C   0  0  0  0  0  0  0  0  0  0  0  0
   18.3587  -24.0887   -8.7355 C   0  0  2  0  0  0  0  0  0  0  0  0
   18.8061  -24.2710  -10.1614 C   0  0  0  0  0  0  0  0  0  0  0  0
   19.5567  -23.5985   -7.9475 C   0  0  2  0  0  0  0  0  0  0  0  0
   19.0676  -23.3939   -6.5851 N   0  0  0  0  0  0  0  0  0  0  0  0
   20.1012  -22.3368   -8.4945 C   0  0  0  0  0  0  0  0  0  0  0  0
   19.4204  -21.2965   -8.3878 O   0  0  0  0  0  0  0  0  0  0  0  0
   24.2278  -19.9839   -9.8742 C   0  0  0  0  0  0  0  0  0  0  0  0
   23.3726  -21.0563   -9.2967 C   0  0  1  0  0  0  0  0  0  0  0  0
   23.5371  -21.0152   -7.7709 C   0  0  0  0  0  0  0  0  0  0  0  0
   21.9292  -21.0222   -9.6492 C   0  0  2  0  0  0  0  0  0  0  0  0
   21.3604  -22.2759   -9.1292 N   0  0  0  0  0  0  0  0  0  0  0  0
   21.6028  -20.8908  -11.0681 C   0  0  0  0  0  0  0  0  0  0  0  0
   21.8323  -21.8594  -11.8590 O   0  0  0  0  0  0  0  0  0  0  0  0
   21.0310  -19.7286  -11.6452 N   0  0  0  0  0  0  0  0  0  0  0  0
   20.8492  -19.6992  -13.0833 C   0  0  0  0  0  0  0  0  0  0  0  0
   19.4494  -19.6893  -13.4896 C   0  0  0  0  0  0  0  0  0  0  0  0
   18.6786  -20.6002  -13.1272 O   0  0  0  0  0  0  0  0  0  0  0  0
   18.9640  -18.6711  -14.2797 O   0  0  0  0  0  0  0  0  0  0  0  0
  1  2  1  0
  3  2  1  0
  3  5  1  0
  3  4  1  6
  5  7  1  0
  5  6  1  1
  7  8  2  0
  7 13  1  0
 10  9  1  6
 10 11  1  0
 12 14  1  0
 12 10  1  0
 12 13  1  6
 14 15  2  0
 16 14  1  0
 16 17  1  0
 17 18  1  0
 18 20  1  0
 19 18  2  0
M  END
$$$$
