IVG.pdb
     RDKit          3D

 20 19  0  0  1  0  0  0  0  0999 V2000
   20.0360  -21.3029  -16.1198 C   0  0  0  0  0  0  0  0  0  0  0  0
   21.4396  -21.0388  -16.6042 C   0  0  0  0  0  0  0  0  0  0  0  0
   22.4426  -21.4333  -15.5538 C   0  0  2  0  0  0  0  0  0  0  0  0
   22.2279  -20.7095  -14.2513 C   0  0  0  0  0  0  0  0  0  0  0  0
   23.8433  -21.1011  -16.0273 C   0  0  2  0  0  0  0  0  0  0  0  0
   24.0625  -21.9367  -17.2068 N   0  0  0  0  0  0  0  0  0  0  0  0
   24.8610  -21.3910  -14.9940 C   0  0  0  0  0  0  0  0  0  0  0  0
   25.0355  -22.5758  -14.6432 O   0  0  0  0  0  0  0  0  0  0  0  0
   29.0083  -20.0541  -12.8162 C   0  0  0  0  0  0  0  0  0  0  0  0
   27.9131  -20.1727  -13.8168 C   0  0  1  0  0  0  0  0  0  0  0  0
   28.3997  -21.1057  -14.9346 C   0  0  0  0  0  0  0  0  0  0  0  0
   26.5942  -20.6358  -13.3121 C   0  0  2  0  0  0  0  0  0  0  0  0
   25.6355  -20.3731  -14.3974 N   0  0  0  0  0  0  0  0  0  0  0  0
   26.1115  -20.0215  -12.0765 C   0  0  0  0  0  0  0  0  0  0  0  0
   25.8829  -18.7713  -12.0428 O   0  0  0  0  0  0  0  0  0  0  0  0
   25.8712  -20.7382  -10.8768 N   0  0  0  0  0  0  0  0  0  0  0  0
   25.5501  -19.9818   -9.6824 C   0  0  0  0  0  0  0  0  0  0  0  0
   25.4419  -20.8074   -8.4860 C   0  0  0  0  0  0  0  0  0  0  0  0
   25.0873  -22.0000   -8.5699 O   0  0  0  0  0  0  0  0  0  0  0  0
   25.7312  -20.2764   -7.2488 O   0  0  0  0  0  0  0  0  0  0  0  0
  1  2  1  0
  3  2  1  0
  3  5  1  0
  3  4  1  1
  5  7  1  0
  5  6  1  6
  7  8  2  0
  7 13  1  0
 10  9  1  1
 10 11  1  0
 12 14  1  0
 12 10  1  0
 12 13  1  6
 14 15  2  0
 16 14  1  0
 16 17  1  0
 17 18  1  0
 18 20  1  0
 19 18  2  0
M  END
$$$$
