IVG.pdb
     RDKit          3D

 20 19  0  0  1  0  0  0  0  0999 V2000
   20.7702  -22.1921  -10.7465 C   0  0  0  0  0  0  0  0  0  0  0  0
   20.9844  -20.8364  -10.1214 C   0  0  0  0  0  0  0  0  0  0  0  0
   22.1557  -20.1405  -10.7607 C   0  0  2  0  0  0  0  0  0  0  0  0
   22.0734  -20.1365  -12.2640 C   0  0  0  0  0  0  0  0  0  0  0  0
   23.4433  -20.8444  -10.3827 C   0  0  2  0  0  0  0  0  0  0  0  0
   23.5197  -20.7574   -8.9253 N   0  0  0  0  0  0  0  0  0  0  0  0
   24.6260  -20.2057  -10.9998 C   0  0  0  0  0  0  0  0  0  0  0  0
   24.9812  -19.0825  -10.5881 O   0  0  0  0  0  0  0  0  0  0  0  0
   28.9488  -20.7435  -13.1180 C   0  0  0  0  0  0  0  0  0  0  0  0
   27.6545  -21.1254  -12.4905 C   0  0  1  0  0  0  0  0  0  0  0  0
   27.9067  -21.3407  -10.9916 C   0  0  0  0  0  0  0  0  0  0  0  0
   26.5172  -20.1877  -12.6808 C   0  0  2  0  0  0  0  0  0  0  0  0
   25.3597  -20.8258  -12.0338 N   0  0  0  0  0  0  0  0  0  0  0  0
   26.1753  -19.8416  -14.0593 C   0  0  0  0  0  0  0  0  0  0  0  0
   25.6454  -20.7161  -14.8148 O   0  0  0  0  0  0  0  0  0  0  0  0
   26.3964  -18.5641  -14.6335 N   0  0  0  0  0  0  0  0  0  0  0  0
   25.9068  -18.3255  -15.9771 C   0  0  0  0  0  0  0  0  0  0  0  0
   26.8848  -18.6345  -17.0129 C   0  0  0  0  0  0  0  0  0  0  0  0
   27.8797  -19.3403  -16.7537 O   0  0  0  0  0  0  0  0  0  0  0  0
   26.7185  -18.1484  -18.2906 O   0  0  0  0  0  0  0  0  0  0  0  0
  1  2  1  0
  3  2  1  0
  3  5  1  0
  3  4  1  6
  5  7  1  0
  5  6  1  1
  7  8  2  0
  7 13  1  0
 10  9  1  1
 10 11  1  0
 12 14  1  0
 12 10  1  0
 12 13  1  6
 14 15  2  0
 16 14  1  0
 16 17  1  0
 17 18  1  0
 18 20  1  0
 19 18  2  0
M  END
$$$$
