IVG.pdb
     RDKit          3D

 20 19  0  0  1  0  0  0  0  0999 V2000
   17.6015  -14.7402  -16.4784 C   0  0  0  0  0  0  0  0  0  0  0  0
   18.6350  -14.3598  -17.5087 C   0  0  0  0  0  0  0  0  0  0  0  0
   19.4621  -13.2002  -17.0223 C   0  0  2  0  0  0  0  0  0  0  0  0
   18.6241  -11.9957  -16.6856 C   0  0  0  0  0  0  0  0  0  0  0  0
   20.4430  -12.7792  -18.0979 C   0  0  2  0  0  0  0  0  0  0  0  0
   21.1921  -13.9886  -18.4348 N   0  0  0  0  0  0  0  0  0  0  0  0
   21.3606  -11.7191  -17.6268 C   0  0  0  0  0  0  0  0  0  0  0  0
   22.2606  -12.0241  -16.8179 O   0  0  0  0  0  0  0  0  0  0  0  0
   23.4736   -9.5464  -19.7999 C   0  0  0  0  0  0  0  0  0  0  0  0
   22.6719   -8.6893  -18.8847 C   0  0  1  0  0  0  0  0  0  0  0  0
   21.4883   -8.1287  -19.6856 C   0  0  0  0  0  0  0  0  0  0  0  0
   22.1791   -9.3247  -17.6349 C   0  0  2  0  0  0  0  0  0  0  0  0
   21.2486  -10.3815  -18.0630 N   0  0  0  0  0  0  0  0  0  0  0  0
   21.5126   -8.4496  -16.6720 C   0  0  0  0  0  0  0  0  0  0  0  0
   20.3028   -8.1089  -16.8636 O   0  0  0  0  0  0  0  0  0  0  0  0
   22.1335   -7.9378  -15.5045 N   0  0  0  0  0  0  0  0  0  0  0  0
   21.3409   -7.1098  -14.6168 C   0  0  0  0  0  0  0  0  0  0  0  0
   20.8026   -7.8369  -13.4739 C   0  0  0  0  0  0  0  0  0  0  0  0
   20.9061   -9.0779  -13.4074 O   0  0  0  0  0  0  0  0  0  0  0  0
   20.1730   -7.1582  -12.4544 O   0  0  0  0  0  0  0  0  0  0  0  0
  1  2  1  0
  3  2  1  0
  3  5  1  0
  3  4  1  6
  5  7  1  0
  5  6  1  1
  7  8  2  0
  7 13  1  0
 10  9  1  6
 10 11  1  0
 12 14  1  0
 12 10  1  0
 12 13  1  6
 14 15  2  0
 16 14  1  0
 16 17  1  0
 17 18  1  0
 18 20  1  0
 19 18  2  0
M  END
$$$$
