IVG.pdb
     RDKit          3D

 20 19  0  0  1  0  0  0  0  0999 V2000
   26.8286  -19.6191  -18.9828 C   0  0  0  0  0  0  0  0  0  0  0  0
   27.5236  -20.0016  -17.7002 C   0  0  0  0  0  0  0  0  0  0  0  0
   26.5248  -20.4851  -16.6835 C   0  0  2  0  0  0  0  0  0  0  0  0
   25.4343  -19.4802  -16.4238 C   0  0  0  0  0  0  0  0  0  0  0  0
   27.2191  -20.7469  -15.3622 C   0  0  2  0  0  0  0  0  0  0  0  0
   28.2067  -21.7879  -15.6423 N   0  0  0  0  0  0  0  0  0  0  0  0
   26.2733  -21.2009  -14.3196 C   0  0  0  0  0  0  0  0  0  0  0  0
   25.7515  -22.3284  -14.4365 O   0  0  0  0  0  0  0  0  0  0  0  0
   25.0043  -20.8072   -9.5967 C   0  0  0  0  0  0  0  0  0  0  0  0
   25.7420  -20.5174  -10.8564 C   0  0  1  0  0  0  0  0  0  0  0  0
   27.0949  -21.2391  -10.7828 C   0  0  0  0  0  0  0  0  0  0  0  0
   25.0547  -20.8632  -12.1279 C   0  0  2  0  0  0  0  0  0  0  0  0
   25.9465  -20.4012  -13.2035 N   0  0  0  0  0  0  0  0  0  0  0  0
   23.7199  -20.3010  -12.3266 C   0  0  0  0  0  0  0  0  0  0  0  0
   23.5487  -19.0436  -12.2489 O   0  0  0  0  0  0  0  0  0  0  0  0
   22.5674  -21.0772  -12.6091 N   0  0  0  0  0  0  0  0  0  0  0  0
   21.2866  -20.4006  -12.6696 C   0  0  0  0  0  0  0  0  0  0  0  0
   20.1684  -21.2402  -12.2583 C   0  0  0  0  0  0  0  0  0  0  0  0
   20.3532  -22.4346  -11.9510 O   0  0  0  0  0  0  0  0  0  0  0  0
   18.8941  -20.7207  -12.2052 O   0  0  0  0  0  0  0  0  0  0  0  0
  1  2  1  0
  3  2  1  0
  3  5  1  0
  3  4  1  1
  5  7  1  0
  5  6  1  6
  7  8  2  0
  7 13  1  0
 10  9  1  1
 10 11  1  0
 12 14  1  0
 12 10  1  0
 12 13  1  6
 14 15  2  0
 16 14  1  0
 16 17  1  0
 17 18  1  0
 18 20  1  0
 19 18  2  0
M  END
$$$$
