IVG.pdb
     RDKit          3D

 20 19  0  0  1  0  0  0  0  0999 V2000
   49.8263  -80.0817  -26.8178 C   0  0  0  0  0  0  0  0  0  0  0  0
   49.3532  -81.4720  -27.1606 C   0  0  0  0  0  0  0  0  0  0  0  0
   47.8493  -81.5286  -27.1738 C   0  0  2  0  0  0  0  0  0  0  0  0
   47.2421  -81.0191  -25.8938 C   0  0  0  0  0  0  0  0  0  0  0  0
   47.3885  -82.9613  -27.3512 C   0  0  2  0  0  0  0  0  0  0  0  0
   46.6724  -83.2937  -26.1208 N   0  0  0  0  0  0  0  0  0  0  0  0
   48.5237  -83.8876  -27.5531 C   0  0  0  0  0  0  0  0  0  0  0  0
   49.5704  -83.4461  -28.0696 O   0  0  0  0  0  0  0  0  0  0  0  0
   46.2165  -88.0859  -26.1990 C   0  0  0  0  0  0  0  0  0  0  0  0
   47.3930  -87.1912  -26.3734 C   0  0  1  0  0  0  0  0  0  0  0  0
   48.5805  -88.0598  -26.8114 C   0  0  0  0  0  0  0  0  0  0  0  0
   47.2308  -86.0492  -27.3105 C   0  0  2  0  0  0  0  0  0  0  0  0
   48.4580  -85.2473  -27.1806 N   0  0  0  0  0  0  0  0  0  0  0  0
   46.0646  -85.1918  -27.1053 C   0  0  0  0  0  0  0  0  0  0  0  0
   45.8642  -84.2055  -27.8820 O   0  0  0  0  0  0  0  0  0  0  0  0
   45.1111  -85.3849  -26.0737 N   0  0  0  0  0  0  0  0  0  0  0  0
   44.4543  -86.6743  -25.9838 C   0  0  0  0  0  0  0  0  0  0  0  0
   44.7191  -87.3727  -24.7322 C   0  0  0  0  0  0  0  0  0  0  0  0
   44.9850  -88.5912  -24.7313 O   0  0  0  0  0  0  0  0  0  0  0  0
   44.6780  -86.6917  -23.5360 O   0  0  0  0  0  0  0  0  0  0  0  0
  1  2  1  0
  3  2  1  0
  3  5  1  0
  3  4  1  1
  5  7  1  0
  5  6  1  1
  7  8  2  0
  7 13  1  0
 10  9  1  6
 10 11  1  0
 12 14  1  0
 12 10  1  0
 12 13  1  1
 14 15  2  0
 16 14  1  0
 16 17  1  0
 17 18  1  0
 18 20  1  0
 19 18  2  0
M  END
$$$$
