MEN.pdb
     RDKit          3D

 26 25  0  0  1  0  0  0  0  0999 V2000
    6.7932  -11.5473   19.2961 C   0  0  0  0  0  0  0  0  0  0  0  0
    7.5724  -12.4971   20.5824 S   0  0  0  0  0  0  0  0  0  0  0  0
    7.3684  -14.2455   20.4075 C   0  0  0  0  0  0  0  0  0  0  0  0
    7.8397  -15.1028   21.4989 C   0  0  0  0  0  0  0  0  0  0  0  0
    9.2902  -15.0820   21.8181 C   0  0  2  0  0  0  0  0  0  0  0  0
   10.1405  -15.2942   20.6871 N   0  0  0  0  0  0  0  0  0  0  0  0
    9.6220  -16.0630   22.9201 C   0  0  0  0  0  0  0  0  0  0  0  0
    8.8476  -16.1006   23.8875 O   0  0  0  0  0  0  0  0  0  0  0  0
   10.7536  -16.9037   22.8682 N   0  0  0  0  0  0  0  0  0  0  0  0
   11.1722  -17.7942   23.9495 C   0  0  1  0  0  0  0  0  0  0  0  0
   12.4366  -18.4954   23.6395 C   0  0  0  0  0  0  0  0  0  0  0  0
   12.3067  -19.4264   22.4813 C   0  0  0  0  0  0  0  0  0  0  0  0
   13.5873  -20.0476   22.0982 C   0  0  0  0  0  0  0  0  0  0  0  0
   14.6709  -19.7128   22.6006 O   0  0  0  0  0  0  0  0  0  0  0  0
   11.4119  -16.9187   25.1310 C   0  0  0  0  0  0  0  0  0  0  0  0
   11.8941  -15.7599   25.0781 O   0  0  0  0  0  0  0  0  0  0  0  0
   13.6207  -21.0590   21.1321 O   0  0  0  0  0  0  0  0  0  0  0  0
    8.6553  -13.5419   27.9514 N   0  0  0  0  0  0  0  0  0  0  0  0
    9.6973  -14.4677   28.2326 C   0  0  0  0  0  0  0  0  0  0  0  0
   10.2455  -14.3898   29.3491 O   0  0  0  0  0  0  0  0  0  0  0  0
   10.0548  -15.4375   27.2110 C   0  0  0  0  0  0  0  0  0  0  0  0
   11.0196  -16.5076   27.5824 C   0  0  2  0  0  0  0  0  0  0  0  0
   11.0817  -17.4034   26.4148 N   0  0  0  0  0  0  0  0  0  0  0  0
   10.7088  -17.2704   28.7891 C   0  0  0  0  0  0  0  0  0  0  0  0
   11.2693  -17.0473   29.8732 O   0  0  0  0  0  0  0  0  0  0  0  0
    9.7592  -18.2763   28.7289 O   0  0  0  0  0  0  0  0  0  0  0  0
  2  1  1  0
  3  4  1  0
  3  2  1  0
  4  5  1  0
  5  6  1  6
  7  9  1  0
  7  5  1  0
  8  7  2  0
 10  9  1  0
 10 11  1  6
 11 12  1  0
 13 17  1  0
 13 12  1  0
 14 13  2  0
 15 10  1  0
 16 15  2  0
 18 19  1  0
 19 20  2  0
 19 21  1  0
 22 21  1  6
 22 23  1  0
 23 15  1  0
 24 22  1  0
 25 24  2  0
 26 24  1  0
M  END
$$$$
