MEN.pdb
     RDKit          3D

 26 25  0  0  1  0  0  0  0  0999 V2000
    5.8747  -11.1009   26.1831 C   0  0  0  0  0  0  0  0  0  0  0  0
    6.8776  -12.3395   25.3934 S   0  0  0  0  0  0  0  0  0  0  0  0
    6.1263  -13.9398   25.3324 C   0  0  0  0  0  0  0  0  0  0  0  0
    6.9081  -15.0427   24.7663 C   0  0  0  0  0  0  0  0  0  0  0  0
    8.3216  -14.7716   24.3989 C   0  0  2  0  0  0  0  0  0  0  0  0
    8.4919  -14.2475   23.0785 N   0  0  0  0  0  0  0  0  0  0  0  0
    9.1829  -15.9989   24.5954 C   0  0  0  0  0  0  0  0  0  0  0  0
    8.9660  -16.6782   25.6096 O   0  0  0  0  0  0  0  0  0  0  0  0
   10.1900  -16.3700   23.6800 N   0  0  0  0  0  0  0  0  0  0  0  0
   11.0373  -17.5534   23.8179 C   0  0  1  0  0  0  0  0  0  0  0  0
   11.9783  -17.7030   22.6872 C   0  0  0  0  0  0  0  0  0  0  0  0
   11.2998  -18.1302   21.4293 C   0  0  0  0  0  0  0  0  0  0  0  0
   12.2256  -18.2436   20.2881 C   0  0  0  0  0  0  0  0  0  0  0  0
   13.4032  -18.6125   20.4150 O   0  0  0  0  0  0  0  0  0  0  0  0
   11.8389  -17.3409   25.0557 C   0  0  0  0  0  0  0  0  0  0  0  0
   12.4478  -16.2799   25.3417 O   0  0  0  0  0  0  0  0  0  0  0  0
   11.7940  -17.9309   18.9945 O   0  0  0  0  0  0  0  0  0  0  0  0
   11.7453  -17.3756   30.1291 N   0  0  0  0  0  0  0  0  0  0  0  0
   10.8273  -16.8383   29.1855 C   0  0  0  0  0  0  0  0  0  0  0  0
    9.9504  -16.0651   29.6173 O   0  0  0  0  0  0  0  0  0  0  0  0
   10.9671  -17.2200   27.7903 C   0  0  0  0  0  0  0  0  0  0  0  0
   12.0896  -18.1288   27.4324 C   0  0  2  0  0  0  0  0  0  0  0  0
   11.9372  -18.3930   25.9914 N   0  0  0  0  0  0  0  0  0  0  0  0
   12.1665  -19.3865   28.1718 C   0  0  0  0  0  0  0  0  0  0  0  0
   13.1271  -19.6618   28.9070 O   0  0  0  0  0  0  0  0  0  0  0  0
   11.1381  -20.3060   28.0533 O   0  0  0  0  0  0  0  0  0  0  0  0
  2  1  1  0
  3  4  1  0
  3  2  1  0
  4  5  1  0
  5  6  1  6
  7  9  1  0
  7  5  1  0
  8  7  2  0
 10  9  1  0
 10 11  1  6
 11 12  1  0
 13 17  1  0
 13 12  1  0
 14 13  2  0
 15 10  1  0
 16 15  2  0
 18 19  1  0
 19 20  2  0
 19 21  1  0
 22 21  1  1
 22 23  1  0
 23 15  1  0
 24 22  1  0
 25 24  2  0
 26 24  1  0
M  END
$$$$
