MEN.pdb
     RDKit          3D

 26 25  0  0  1  0  0  0  0  0999 V2000
    6.5694  -11.1615   24.7042 C   0  0  0  0  0  0  0  0  0  0  0  0
    6.9457  -12.2077   26.0926 S   0  0  0  0  0  0  0  0  0  0  0  0
    6.8154  -13.9371   25.7443 C   0  0  0  0  0  0  0  0  0  0  0  0
    6.8668  -14.3594   24.3417 C   0  0  0  0  0  0  0  0  0  0  0  0
    6.7438  -15.8109   24.0512 C   0  0  2  0  0  0  0  0  0  0  0  0
    5.6136  -16.4363   24.6665 N   0  0  0  0  0  0  0  0  0  0  0  0
    8.0147  -16.5495   24.4061 C   0  0  0  0  0  0  0  0  0  0  0  0
    8.0244  -17.1600   25.4850 O   0  0  0  0  0  0  0  0  0  0  0  0
    9.1459  -16.5555   23.5632 N   0  0  0  0  0  0  0  0  0  0  0  0
   10.3395  -17.3695   23.7872 C   0  0  1  0  0  0  0  0  0  0  0  0
   11.2415  -17.3747   22.6156 C   0  0  0  0  0  0  0  0  0  0  0  0
   11.9266  -16.0651   22.4138 C   0  0  0  0  0  0  0  0  0  0  0  0
   12.7843  -16.0449   21.2152 C   0  0  0  0  0  0  0  0  0  0  0  0
   13.6447  -16.9104   20.9927 O   0  0  0  0  0  0  0  0  0  0  0  0
   11.0646  -16.7293   24.9205 C   0  0  0  0  0  0  0  0  0  0  0  0
   10.9304  -15.5305   25.2712 O   0  0  0  0  0  0  0  0  0  0  0  0
   12.6508  -15.0238   20.2682 O   0  0  0  0  0  0  0  0  0  0  0  0
   11.6922  -15.9448   29.5518 N   0  0  0  0  0  0  0  0  0  0  0  0
   10.6100  -16.6675   28.9785 C   0  0  0  0  0  0  0  0  0  0  0  0
    9.5235  -16.6494   29.5887 O   0  0  0  0  0  0  0  0  0  0  0  0
   10.8358  -17.3751   27.7294 C   0  0  0  0  0  0  0  0  0  0  0  0
   12.1839  -17.2675   27.1090 C   0  0  2  0  0  0  0  0  0  0  0  0
   11.9746  -17.5048   25.6705 N   0  0  0  0  0  0  0  0  0  0  0  0
   13.2096  -18.1701   27.6265 C   0  0  0  0  0  0  0  0  0  0  0  0
   14.0035  -17.8259   28.5156 O   0  0  0  0  0  0  0  0  0  0  0  0
   13.3052  -19.4524   27.1131 O   0  0  0  0  0  0  0  0  0  0  0  0
  2  1  1  0
  3  4  1  0
  3  2  1  0
  4  5  1  0
  5  6  1  1
  7  9  1  0
  7  5  1  0
  8  7  2  0
 10  9  1  0
 10 11  1  6
 11 12  1  0
 13 17  1  0
 13 12  1  0
 14 13  2  0
 15 10  1  0
 16 15  2  0
 18 19  1  0
 19 20  2  0
 19 21  1  0
 22 21  1  1
 22 23  1  0
 23 15  1  0
 24 22  1  0
 25 24  2  0
 26 24  1  0
M  END
$$$$
