MEN.pdb
     RDKit          3D

 26 25  0  0  1  0  0  0  0  0999 V2000
    5.7064  -11.2615   26.7915 C   0  0  0  0  0  0  0  0  0  0  0  0
    6.8515  -11.5303   25.4573 S   0  0  0  0  0  0  0  0  0  0  0  0
    6.1867  -12.4799   24.1211 C   0  0  0  0  0  0  0  0  0  0  0  0
    6.6589  -13.8577   23.9582 C   0  0  0  0  0  0  0  0  0  0  0  0
    7.9393  -14.2322   24.6117 C   0  0  2  0  0  0  0  0  0  0  0  0
    9.0385  -13.3809   24.2738 N   0  0  0  0  0  0  0  0  0  0  0  0
    8.2886  -15.6786   24.3420 C   0  0  0  0  0  0  0  0  0  0  0  0
    7.4011  -16.5176   24.5552 O   0  0  0  0  0  0  0  0  0  0  0  0
    9.5578  -16.0743   23.8702 N   0  0  0  0  0  0  0  0  0  0  0  0
    9.9622  -17.4619   23.6503 C   0  0  1  0  0  0  0  0  0  0  0  0
   11.2919  -17.5630   23.0116 C   0  0  0  0  0  0  0  0  0  0  0  0
   11.7388  -18.9756   22.8384 C   0  0  0  0  0  0  0  0  0  0  0  0
   13.0056  -19.0893   22.0935 C   0  0  0  0  0  0  0  0  0  0  0  0
   13.9735  -19.7417   22.5137 O   0  0  0  0  0  0  0  0  0  0  0  0
   10.0557  -18.0803   25.0027 C   0  0  0  0  0  0  0  0  0  0  0  0
   10.5549  -17.5235   26.0121 O   0  0  0  0  0  0  0  0  0  0  0  0
   13.1590  -18.4493   20.8589 O   0  0  0  0  0  0  0  0  0  0  0  0
    8.4977  -20.9791   28.9929 N   0  0  0  0  0  0  0  0  0  0  0  0
    7.6793  -21.1478   27.8424 C   0  0  0  0  0  0  0  0  0  0  0  0
    6.5331  -21.6044   28.0180 O   0  0  0  0  0  0  0  0  0  0  0  0
    8.2247  -20.7809   26.5463 C   0  0  0  0  0  0  0  0  0  0  0  0
    9.4925  -20.0024   26.5260 C   0  0  2  0  0  0  0  0  0  0  0  0
    9.5541  -19.3863   25.1896 N   0  0  0  0  0  0  0  0  0  0  0  0
   10.7177  -20.7515   26.7945 C   0  0  0  0  0  0  0  0  0  0  0  0
   11.3669  -21.3002   25.8907 O   0  0  0  0  0  0  0  0  0  0  0  0
   11.1755  -20.8571   28.0969 O   0  0  0  0  0  0  0  0  0  0  0  0
  2  1  1  0
  3  4  1  0
  3  2  1  0
  4  5  1  0
  5  6  1  6
  7  9  1  0
  7  5  1  0
  8  7  2  0
 10  9  1  0
 10 11  1  1
 11 12  1  0
 13 17  1  0
 13 12  1  0
 14 13  2  0
 15 10  1  0
 16 15  2  0
 18 19  1  0
 19 20  2  0
 19 21  1  0
 22 21  1  6
 22 23  1  0
 23 15  1  0
 24 22  1  0
 25 24  2  0
 26 24  1  0
M  END
$$$$
