MEN.pdb
     RDKit          3D

 26 25  0  0  1  0  0  0  0  0999 V2000
    6.7769  -11.7517   19.7238 C   0  0  0  0  0  0  0  0  0  0  0  0
    7.5372  -13.0180   20.7148 S   0  0  0  0  0  0  0  0  0  0  0  0
    6.4406  -14.3298   21.1682 C   0  0  0  0  0  0  0  0  0  0  0  0
    6.9495  -15.3677   22.0691 C   0  0  0  0  0  0  0  0  0  0  0  0
    8.3030  -15.9164   21.7982 C   0  0  2  0  0  0  0  0  0  0  0  0
    8.3567  -16.8178   20.6884 N   0  0  0  0  0  0  0  0  0  0  0  0
    8.8884  -16.5633   23.0333 C   0  0  0  0  0  0  0  0  0  0  0  0
    8.4789  -17.6984   23.3180 O   0  0  0  0  0  0  0  0  0  0  0  0
    9.8551  -15.9224   23.8362 N   0  0  0  0  0  0  0  0  0  0  0  0
   10.6600  -16.5937   24.8555 C   0  0  1  0  0  0  0  0  0  0  0  0
    9.9820  -17.7855   25.4089 C   0  0  0  0  0  0  0  0  0  0  0  0
   10.8338  -18.5296   26.3815 C   0  0  0  0  0  0  0  0  0  0  0  0
   10.1446  -19.6872   26.9795 C   0  0  0  0  0  0  0  0  0  0  0  0
    9.8173  -20.6858   26.3202 O   0  0  0  0  0  0  0  0  0  0  0  0
   11.8978  -17.0511   24.1637 C   0  0  0  0  0  0  0  0  0  0  0  0
   11.9280  -17.8899   23.2289 O   0  0  0  0  0  0  0  0  0  0  0  0
    9.8305  -19.6953   28.3428 O   0  0  0  0  0  0  0  0  0  0  0  0
   17.3818  -15.1111   23.3725 N   0  0  0  0  0  0  0  0  0  0  0  0
   16.3031  -15.7959   22.7485 C   0  0  0  0  0  0  0  0  0  0  0  0
   16.5581  -16.4419   21.7136 O   0  0  0  0  0  0  0  0  0  0  0  0
   14.9836  -15.7012   23.3501 C   0  0  0  0  0  0  0  0  0  0  0  0
   14.4014  -16.9391   23.9356 C   0  0  2  0  0  0  0  0  0  0  0  0
   13.1402  -16.5184   24.5697 N   0  0  0  0  0  0  0  0  0  0  0  0
   15.2359  -17.6565   24.8965 C   0  0  0  0  0  0  0  0  0  0  0  0
   16.2492  -18.2835   24.5512 O   0  0  0  0  0  0  0  0  0  0  0  0
   14.8913  -17.6409   26.2374 O   0  0  0  0  0  0  0  0  0  0  0  0
  2  1  1  0
  3  4  1  0
  3  2  1  0
  4  5  1  0
  5  6  1  6
  7  9  1  0
  7  5  1  0
  8  7  2  0
 10  9  1  0
 10 11  1  6
 11 12  1  0
 13 17  1  0
 13 12  1  0
 14 13  2  0
 15 10  1  0
 16 15  2  0
 18 19  1  0
 19 20  2  0
 19 21  1  0
 22 21  1  1
 22 23  1  0
 23 15  1  0
 24 22  1  0
 25 24  2  0
 26 24  1  0
M  END
$$$$
