MEN.pdb
     RDKit          3D

 26 25  0  0  1  0  0  0  0  0999 V2000
    7.8567  -11.4826   25.7553 C   0  0  0  0  0  0  0  0  0  0  0  0
    6.3231  -12.2841   26.1671 S   0  0  0  0  0  0  0  0  0  0  0  0
    5.7165  -13.3648   24.9049 C   0  0  0  0  0  0  0  0  0  0  0  0
    6.3628  -14.6713   24.7527 C   0  0  0  0  0  0  0  0  0  0  0  0
    7.8265  -14.7514   24.9926 C   0  0  2  0  0  0  0  0  0  0  0  0
    8.6080  -13.9356   24.1146 N   0  0  0  0  0  0  0  0  0  0  0  0
    8.3098  -16.1837   24.9532 C   0  0  0  0  0  0  0  0  0  0  0  0
    7.6175  -17.0244   25.5456 O   0  0  0  0  0  0  0  0  0  0  0  0
    9.4892  -16.5652   24.2798 N   0  0  0  0  0  0  0  0  0  0  0  0
    9.9640  -17.9427   24.1599 C   0  0  1  0  0  0  0  0  0  0  0  0
   11.1575  -18.0501   23.2936 C   0  0  0  0  0  0  0  0  0  0  0  0
   10.8645  -17.7150   21.8698 C   0  0  0  0  0  0  0  0  0  0  0  0
   12.0829  -17.5386   21.0595 C   0  0  0  0  0  0  0  0  0  0  0  0
   13.2119  -17.8457   21.4718 O   0  0  0  0  0  0  0  0  0  0  0  0
   10.3571  -18.3612   25.5347 C   0  0  0  0  0  0  0  0  0  0  0  0
   10.7010  -17.5751   26.4523 O   0  0  0  0  0  0  0  0  0  0  0  0
   12.0016  -17.0062   19.7682 O   0  0  0  0  0  0  0  0  0  0  0  0
    8.7686  -20.1789   29.4684 N   0  0  0  0  0  0  0  0  0  0  0  0
    8.5878  -21.2149   28.5114 C   0  0  0  0  0  0  0  0  0  0  0  0
    7.6251  -21.9880   28.6807 O   0  0  0  0  0  0  0  0  0  0  0  0
    9.5270  -21.3068   27.4063 C   0  0  0  0  0  0  0  0  0  0  0  0
   10.5110  -20.2026   27.2429 C   0  0  2  0  0  0  0  0  0  0  0  0
   10.3511  -19.7358   25.8551 N   0  0  0  0  0  0  0  0  0  0  0  0
   11.9089  -20.5357   27.5065 C   0  0  0  0  0  0  0  0  0  0  0  0
   12.3278  -20.7646   28.6516 O   0  0  0  0  0  0  0  0  0  0  0  0
   12.8009  -20.5998   26.4496 O   0  0  0  0  0  0  0  0  0  0  0  0
  2  1  1  0
  3  4  1  0
  3  2  1  0
  4  5  1  0
  5  6  1  6
  7  9  1  0
  7  5  1  0
  8  7  2  0
 10  9  1  0
 10 11  1  6
 11 12  1  0
 13 17  1  0
 13 12  1  0
 14 13  2  0
 15 10  1  0
 16 15  2  0
 18 19  1  0
 19 20  2  0
 19 21  1  0
 22 21  1  6
 22 23  1  0
 23 15  1  0
 24 22  1  0
 25 24  2  0
 26 24  1  0
M  END
$$$$
