MEN.pdb
     RDKit          3D

 26 25  0  0  1  0  0  0  0  0999 V2000
    7.4635  -11.3788   20.5560 C   0  0  0  0  0  0  0  0  0  0  0  0
    7.3990  -12.4966   19.1739 S   0  0  0  0  0  0  0  0  0  0  0  0
    7.3021  -14.2019   19.6339 C   0  0  0  0  0  0  0  0  0  0  0  0
    8.0194  -14.6284   20.8387 C   0  0  0  0  0  0  0  0  0  0  0  0
    8.6117  -15.9906   20.8455 C   0  0  2  0  0  0  0  0  0  0  0  0
    7.9071  -16.9382   20.0376 N   0  0  0  0  0  0  0  0  0  0  0  0
    8.7685  -16.5119   22.2563 C   0  0  0  0  0  0  0  0  0  0  0  0
    9.3296  -15.7639   23.0702 O   0  0  0  0  0  0  0  0  0  0  0  0
    8.3049  -17.7856   22.6473 N   0  0  0  0  0  0  0  0  0  0  0  0
    8.5332  -18.3804   23.9632 C   0  0  1  0  0  0  0  0  0  0  0  0
    7.7697  -19.6326   24.1516 C   0  0  0  0  0  0  0  0  0  0  0  0
    8.0078  -20.2537   25.4868 C   0  0  0  0  0  0  0  0  0  0  0  0
    7.2690  -21.5156   25.6724 C   0  0  0  0  0  0  0  0  0  0  0  0
    6.0299  -21.5733   25.6677 O   0  0  0  0  0  0  0  0  0  0  0  0
    9.9838  -18.7167   24.0142 C   0  0  0  0  0  0  0  0  0  0  0  0
   10.6394  -19.2081   23.0618 O   0  0  0  0  0  0  0  0  0  0  0  0
    7.9599  -22.7170   25.8642 O   0  0  0  0  0  0  0  0  0  0  0  0
   14.8118  -17.4153   24.8238 N   0  0  0  0  0  0  0  0  0  0  0  0
   13.7928  -16.7250   24.1118 C   0  0  0  0  0  0  0  0  0  0  0  0
   14.1446  -15.7707   23.3916 O   0  0  0  0  0  0  0  0  0  0  0  0
   12.4182  -17.1707   24.2663 C   0  0  0  0  0  0  0  0  0  0  0  0
   12.1580  -18.2929   25.2081 C   0  0  2  0  0  0  0  0  0  0  0  0
   10.6964  -18.4751   25.2083 N   0  0  0  0  0  0  0  0  0  0  0  0
   12.6462  -18.1193   26.5741 C   0  0  0  0  0  0  0  0  0  0  0  0
   11.8953  -17.7946   27.5068 O   0  0  0  0  0  0  0  0  0  0  0  0
   13.9890  -18.3217   26.8445 O   0  0  0  0  0  0  0  0  0  0  0  0
  2  1  1  0
  3  4  1  0
  3  2  1  0
  4  5  1  0
  5  6  1  6
  7  9  1  0
  7  5  1  0
  8  7  2  0
 10  9  1  0
 10 11  1  6
 11 12  1  0
 13 17  1  0
 13 12  1  0
 14 13  2  0
 15 10  1  0
 16 15  2  0
 18 19  1  0
 19 20  2  0
 19 21  1  0
 22 21  1  6
 22 23  1  0
 23 15  1  0
 24 22  1  0
 25 24  2  0
 26 24  1  0
M  END
$$$$
