QPS.pdb
     RDKit          3D

 23 23  0  0  1  0  0  0  0  0999 V2000
   20.7342  -18.4185  -16.3230 N   0  0  0  0  0  0  0  0  0  0  0  0
   20.0967  -18.1397  -15.0900 C   0  0  0  0  0  0  0  0  0  0  0  0
   18.8824  -17.8508  -15.0949 O   0  0  0  0  0  0  0  0  0  0  0  0
   20.8145  -18.1773  -13.7935 C   0  0  0  0  0  0  0  0  0  0  0  0
   20.3490  -19.3508  -12.9712 C   0  0  0  0  0  0  0  0  0  0  0  0
   21.4321  -20.4038  -12.8346 C   0  0  2  0  0  0  0  0  0  0  0  0
   21.5124  -21.1975  -14.0572 N   0  0  0  0  0  0  0  0  0  0  0  0
   21.2577  -21.2661  -11.6485 C   0  0  0  0  0  0  0  0  0  0  0  0
   20.5104  -22.2899  -11.7860 O   0  0  0  0  0  0  0  0  0  0  0  0
   21.8463  -21.0505  -10.3926 N   0  0  0  0  0  0  0  0  0  0  0  0
   22.6959  -19.9117  -10.0630 C   0  0  0  0  0  0  0  0  0  0  0  0
   23.6664  -20.5631   -9.0540 C   0  0  0  0  0  0  0  0  0  0  0  0
   22.7104  -21.3711   -8.2346 C   0  0  0  0  0  0  0  0  0  0  0  0
   21.7324  -21.9046   -9.2220 C   0  0  1  0  0  0  0  0  0  0  0  0
   20.3408  -21.9390   -8.7068 C   0  0  0  0  0  0  0  0  0  0  0  0
   19.6656  -20.8807   -8.7644 O   0  0  0  0  0  0  0  0  0  0  0  0
   18.3043  -25.0973   -8.9954 O   0  0  0  0  0  0  0  0  0  0  0  0
   17.5813  -24.0105   -8.5511 C   0  0  0  0  0  0  0  0  0  0  0  0
   18.3971  -23.1237   -7.6080 C   0  0  2  0  0  0  0  0  0  0  0  0
   19.7336  -23.0786   -8.1600 N   0  0  0  0  0  0  0  0  0  0  0  0
   18.4520  -23.8349   -6.3143 C   0  0  0  0  0  0  0  0  0  0  0  0
   17.3589  -23.9858   -5.4707 O   0  0  0  0  0  0  0  0  0  0  0  0
   19.5376  -24.3364   -5.9414 O   0  0  0  0  0  0  0  0  0  0  0  0
  2  3  2  0
  2  1  1  0
  4  2  1  0
  5  4  1  0
  6  5  1  0
  6  7  1  6
  8  6  1  0
  9  8  2  0
 10  8  1  0
 10 14  1  0
 11 12  1  0
 11 10  1  0
 12 13  1  0
 13 14  1  0
 14 15  1  1
 15 16  2  0
 18 17  1  0
 19 18  1  6
 19 21  1  0
 20 19  1  0
 20 15  1  0
 21 23  2  0
 21 22  1  0
M  END
$$$$
