QPS.pdb
     RDKit          3D

 23 23  0  0  1  0  0  0  0  0999 V2000
   26.6851  -20.7158  -18.0122 N   0  0  0  0  0  0  0  0  0  0  0  0
   27.8234  -19.8862  -18.1551 C   0  0  0  0  0  0  0  0  0  0  0  0
   27.6723  -18.6480  -18.1079 O   0  0  0  0  0  0  0  0  0  0  0  0
   29.1874  -20.4299  -18.3586 C   0  0  0  0  0  0  0  0  0  0  0  0
   29.1393  -21.9304  -18.4858 C   0  0  0  0  0  0  0  0  0  0  0  0
   30.5174  -22.5166  -18.7262 C   0  0  2  0  0  0  0  0  0  0  0  0
   30.9867  -22.1554  -20.0606 N   0  0  0  0  0  0  0  0  0  0  0  0
   30.5716  -23.9776  -18.5183 C   0  0  0  0  0  0  0  0  0  0  0  0
   30.3585  -24.7124  -19.5381 O   0  0  0  0  0  0  0  0  0  0  0  0
   30.8389  -24.6160  -17.2971 N   0  0  0  0  0  0  0  0  0  0  0  0
   31.1996  -23.9240  -16.0649 C   0  0  0  0  0  0  0  0  0  0  0  0
   32.1479  -24.9604  -15.4236 C   0  0  0  0  0  0  0  0  0  0  0  0
   31.3881  -26.2236  -15.6785 C   0  0  0  0  0  0  0  0  0  0  0  0
   30.8186  -26.0469  -17.0425 C   0  0  1  0  0  0  0  0  0  0  0  0
   29.4504  -26.6052  -17.1818 C   0  0  0  0  0  0  0  0  0  0  0  0
   28.4800  -25.8684  -16.8738 O   0  0  0  0  0  0  0  0  0  0  0  0
   28.8914  -30.6201  -17.6105 O   0  0  0  0  0  0  0  0  0  0  0  0
   28.0525  -29.8572  -18.3950 C   0  0  0  0  0  0  0  0  0  0  0  0
   27.8490  -28.4529  -17.8223 C   0  0  2  0  0  0  0  0  0  0  0  0
   29.1739  -27.9029  -17.6354 N   0  0  0  0  0  0  0  0  0  0  0  0
   27.2285  -28.6330  -16.4938 C   0  0  0  0  0  0  0  0  0  0  0  0
   27.9103  -28.4643  -15.2954 O   0  0  0  0  0  0  0  0  0  0  0  0
   26.0202  -28.9560  -16.4254 O   0  0  0  0  0  0  0  0  0  0  0  0
  2  3  2  0
  2  1  1  0
  4  2  1  0
  5  4  1  0
  6  5  1  0
  6  7  1  6
  8  6  1  0
  9  8  2  0
 10  8  1  0
 10 14  1  0
 11 12  1  0
 11 10  1  0
 12 13  1  0
 13 14  1  0
 14 15  1  1
 15 16  2  0
 18 17  1  0
 19 18  1  1
 19 21  1  0
 20 19  1  0
 20 15  1  0
 21 23  2  0
 21 22  1  0
M  END
$$$$
