QPS.pdb
     RDKit          3D

 23 23  0  0  1  0  0  0  0  0999 V2000
   15.6168  -10.8253  -17.4942 N   0  0  0  0  0  0  0  0  0  0  0  0
   16.6953  -10.4137  -18.3140 C   0  0  0  0  0  0  0  0  0  0  0  0
   16.6406  -10.6482  -19.5387 O   0  0  0  0  0  0  0  0  0  0  0  0
   17.8866   -9.7152  -17.7751 C   0  0  0  0  0  0  0  0  0  0  0  0
   17.7118   -9.4408  -16.3040 C   0  0  0  0  0  0  0  0  0  0  0  0
   18.8453  -10.0294  -15.4859 C   0  0  2  0  0  0  0  0  0  0  0  0
   18.8365  -11.4850  -15.5972 N   0  0  0  0  0  0  0  0  0  0  0  0
   18.8249   -9.6016  -14.0727 C   0  0  0  0  0  0  0  0  0  0  0  0
   18.1483  -10.3185  -13.2641 O   0  0  0  0  0  0  0  0  0  0  0  0
   19.4876   -8.4786  -13.5532 N   0  0  0  0  0  0  0  0  0  0  0  0
   20.3926   -7.6270  -14.3168 C   0  0  0  0  0  0  0  0  0  0  0  0
   21.3930   -7.2149  -13.2150 C   0  0  0  0  0  0  0  0  0  0  0  0
   20.4552   -6.9234  -12.0865 C   0  0  0  0  0  0  0  0  0  0  0  0
   19.4074   -7.9757  -12.1918 C   0  0  1  0  0  0  0  0  0  0  0  0
   18.0454   -7.4785  -11.8745 C   0  0  0  0  0  0  0  0  0  0  0  0
   17.4347   -6.8293  -12.7605 O   0  0  0  0  0  0  0  0  0  0  0  0
   14.4198   -7.5729   -8.5947 O   0  0  0  0  0  0  0  0  0  0  0  0
   15.6989   -7.8928   -8.9980 C   0  0  0  0  0  0  0  0  0  0  0  0
   16.0739   -7.2110  -10.3156 C   0  0  2  0  0  0  0  0  0  0  0  0
   17.3985   -7.6882  -10.6482 N   0  0  0  0  0  0  0  0  0  0  0  0
   16.1600   -5.7652  -10.0242 C   0  0  0  0  0  0  0  0  0  0  0  0
   15.0809   -4.8953  -10.1142 O   0  0  0  0  0  0  0  0  0  0  0  0
   17.2605   -5.2795   -9.6749 O   0  0  0  0  0  0  0  0  0  0  0  0
  2  3  2  0
  2  1  1  0
  4  2  1  0
  5  4  1  0
  6  5  1  0
  6  7  1  1
  8  6  1  0
  9  8  2  0
 10  8  1  0
 10 14  1  0
 11 12  1  0
 11 10  1  0
 12 13  1  0
 13 14  1  0
 14 15  1  6
 15 16  2  0
 18 17  1  0
 19 18  1  1
 19 21  1  0
 20 19  1  0
 20 15  1  0
 21 23  2  0
 21 22  1  0
M  END
$$$$
