QPS.pdb
     RDKit          3D

 23 23  0  0  1  0  0  0  0  0999 V2000
   19.4668  -16.9949  -12.3917 N   0  0  0  0  0  0  0  0  0  0  0  0
   19.6605  -17.5457  -13.6815 C   0  0  0  0  0  0  0  0  0  0  0  0
   19.7318  -16.7726  -14.6589 O   0  0  0  0  0  0  0  0  0  0  0  0
   19.7820  -19.0043  -13.9169 C   0  0  0  0  0  0  0  0  0  0  0  0
   19.8056  -19.7460  -12.6057 C   0  0  0  0  0  0  0  0  0  0  0  0
   21.1356  -20.4387  -12.3780 C   0  0  2  0  0  0  0  0  0  0  0  0
   21.6316  -20.9908  -13.6351 N   0  0  0  0  0  0  0  0  0  0  0  0
   21.0792  -21.4732  -11.3257 C   0  0  0  0  0  0  0  0  0  0  0  0
   20.7888  -22.6575  -11.6979 O   0  0  0  0  0  0  0  0  0  0  0  0
   21.3200  -21.2579   -9.9598 N   0  0  0  0  0  0  0  0  0  0  0  0
   21.7331  -19.9827   -9.3847 C   0  0  0  0  0  0  0  0  0  0  0  0
   22.6244  -20.4704   -8.2218 C   0  0  0  0  0  0  0  0  0  0  0  0
   21.7885  -21.5886   -7.6844 C   0  0  0  0  0  0  0  0  0  0  0  0
   21.2173  -22.2413   -8.8942 C   0  0  1  0  0  0  0  0  0  0  0  0
   19.8170  -22.6967   -8.7070 C   0  0  0  0  0  0  0  0  0  0  0  0
   18.8940  -21.8885   -8.9794 O   0  0  0  0  0  0  0  0  0  0  0  0
   16.9336  -26.4856   -7.6135 O   0  0  0  0  0  0  0  0  0  0  0  0
   18.1765  -25.9296   -7.8315 C   0  0  0  0  0  0  0  0  0  0  0  0
   18.1096  -24.4069   -7.9664 C   0  0  2  0  0  0  0  0  0  0  0  0
   19.4609  -23.9720   -8.2454 N   0  0  0  0  0  0  0  0  0  0  0  0
   17.7193  -23.8899   -6.6387 C   0  0  0  0  0  0  0  0  0  0  0  0
   16.4043  -23.6508   -6.2607 O   0  0  0  0  0  0  0  0  0  0  0  0
   18.6118  -23.6480   -5.7937 O   0  0  0  0  0  0  0  0  0  0  0  0
  2  3  2  0
  2  1  1  0
  4  2  1  0
  5  4  1  0
  6  5  1  0
  6  7  1  6
  8  6  1  0
  9  8  2  0
 10  8  1  0
 10 14  1  0
 11 12  1  0
 11 10  1  0
 12 13  1  0
 13 14  1  0
 14 15  1  1
 15 16  2  0
 18 17  1  0
 19 18  1  1
 19 21  1  0
 20 19  1  0
 20 15  1  0
 21 23  2  0
 21 22  1  0
M  END
$$$$
