QPS.pdb
     RDKit          3D

 23 23  0  0  1  0  0  0  0  0999 V2000
   26.6621  -29.1881  -20.3215 N   0  0  0  0  0  0  0  0  0  0  0  0
   27.9448  -29.7837  -20.3879 C   0  0  0  0  0  0  0  0  0  0  0  0
   28.0764  -30.8547  -21.0154 O   0  0  0  0  0  0  0  0  0  0  0  0
   29.1374  -29.1858  -19.7416 C   0  0  0  0  0  0  0  0  0  0  0  0
   28.7623  -27.9150  -19.0244 C   0  0  0  0  0  0  0  0  0  0  0  0
   29.6947  -27.6316  -17.8622 C   0  0  2  0  0  0  0  0  0  0  0  0
   29.5145  -28.6395  -16.8216 N   0  0  0  0  0  0  0  0  0  0  0  0
   29.5449  -26.2677  -17.3164 C   0  0  0  0  0  0  0  0  0  0  0  0
   28.8548  -26.1466  -16.2511 O   0  0  0  0  0  0  0  0  0  0  0  0
   30.0992  -25.1039  -17.8718 N   0  0  0  0  0  0  0  0  0  0  0  0
   30.9600  -25.0795  -19.0490 C   0  0  0  0  0  0  0  0  0  0  0  0
   31.8868  -23.8949  -18.6993 C   0  0  0  0  0  0  0  0  0  0  0  0
   30.8911  -22.9146  -18.1649 C   0  0  0  0  0  0  0  0  0  0  0  0
   29.9335  -23.7447  -17.3840 C   0  0  1  0  0  0  0  0  0  0  0  0
   28.5266  -23.2890  -17.5100 C   0  0  0  0  0  0  0  0  0  0  0  0
   27.8382  -23.7578  -18.4511 O   0  0  0  0  0  0  0  0  0  0  0  0
   27.1126  -20.4109  -14.9396 O   0  0  0  0  0  0  0  0  0  0  0  0
   26.1904  -21.3374  -15.3780 C   0  0  0  0  0  0  0  0  0  0  0  0
   26.5529  -21.9036  -16.7526 C   0  0  2  0  0  0  0  0  0  0  0  0
   27.9186  -22.3683  -16.6446 N   0  0  0  0  0  0  0  0  0  0  0  0
   26.5224  -20.7634  -17.6915 C   0  0  0  0  0  0  0  0  0  0  0  0
   25.3536  -20.2334  -18.2228 O   0  0  0  0  0  0  0  0  0  0  0  0
   27.6025  -20.2324  -18.0389 O   0  0  0  0  0  0  0  0  0  0  0  0
  2  3  2  0
  2  1  1  0
  4  2  1  0
  5  4  1  0
  6  5  1  0
  6  7  1  1
  8  6  1  0
  9  8  2  0
 10  8  1  0
 10 14  1  0
 11 12  1  0
 11 10  1  0
 12 13  1  0
 13 14  1  0
 14 15  1  6
 15 16  2  0
 18 17  1  0
 19 18  1  1
 19 21  1  0
 20 19  1  0
 20 15  1  0
 21 23  2  0
 21 22  1  0
M  END
$$$$
