QPS.pdb
     RDKit          3D

 23 23  0  0  1  0  0  0  0  0999 V2000
   22.3931  -20.3051  -12.2094 N   0  0  0  0  0  0  0  0  0  0  0  0
   23.1104  -19.7879  -13.3150 C   0  0  0  0  0  0  0  0  0  0  0  0
   22.4810  -19.4875  -14.3502 O   0  0  0  0  0  0  0  0  0  0  0  0
   24.5793  -19.5891  -13.2917 C   0  0  0  0  0  0  0  0  0  0  0  0
   25.1199  -19.8424  -11.9084 C   0  0  0  0  0  0  0  0  0  0  0  0
   25.7283  -21.2267  -11.7896 C   0  0  2  0  0  0  0  0  0  0  0  0
   24.6912  -22.2420  -11.9470 N   0  0  0  0  0  0  0  0  0  0  0  0
   26.4829  -21.4240  -10.5357 C   0  0  0  0  0  0  0  0  0  0  0  0
   25.8196  -21.8178   -9.5206 O   0  0  0  0  0  0  0  0  0  0  0  0
   27.8617  -21.2159  -10.3748 N   0  0  0  0  0  0  0  0  0  0  0  0
   28.7713  -20.8392  -11.4509 C   0  0  0  0  0  0  0  0  0  0  0  0
   30.0595  -21.5620  -11.0008 C   0  0  0  0  0  0  0  0  0  0  0  0
   30.0536  -21.2498   -9.5377 C   0  0  0  0  0  0  0  0  0  0  0  0
   28.6216  -21.3452   -9.1424 C   0  0  1  0  0  0  0  0  0  0  0  0
   28.2205  -20.3211   -8.1457 C   0  0  0  0  0  0  0  0  0  0  0  0
   27.9045  -19.1805   -8.5685 O   0  0  0  0  0  0  0  0  0  0  0  0
   26.9896  -21.3549   -4.4816 O   0  0  0  0  0  0  0  0  0  0  0  0
   26.7674  -20.0622   -4.9070 C   0  0  0  0  0  0  0  0  0  0  0  0
   27.9196  -19.5325   -5.7632 C   0  0  2  0  0  0  0  0  0  0  0  0
   28.1726  -20.5474   -6.7627 N   0  0  0  0  0  0  0  0  0  0  0  0
   29.0956  -19.4535   -4.8725 C   0  0  0  0  0  0  0  0  0  0  0  0
   30.1637  -20.3398   -4.9259 O   0  0  0  0  0  0  0  0  0  0  0  0
   29.1490  -18.5421   -4.0149 O   0  0  0  0  0  0  0  0  0  0  0  0
  2  3  2  0
  2  1  1  0
  4  2  1  0
  5  4  1  0
  6  5  1  0
  6  7  1  1
  8  6  1  0
  9  8  2  0
 10  8  1  0
 10 14  1  0
 11 12  1  0
 11 10  1  0
 12 13  1  0
 13 14  1  0
 14 15  1  1
 15 16  2  0
 18 17  1  0
 19 18  1  1
 19 21  1  0
 20 19  1  0
 20 15  1  0
 21 23  2  0
 21 22  1  0
M  END
$$$$
