NKW.pdb
     RDKit          3D

 32 33  0  0  1  0  0  0  0  0999 V2000
   14.7616  -18.4699   18.9082 N   0  0  0  0  0  0  0  0  0  0  0  0
   13.4643  -18.9555   19.2214 C   0  0  0  0  0  0  0  0  0  0  0  0
   13.3358  -20.1833   19.4283 O   0  0  0  0  0  0  0  0  0  0  0  0
   12.2765  -18.0825   19.3117 C   0  0  0  0  0  0  0  0  0  0  0  0
   11.6866  -18.1978   20.6792 C   0  0  2  0  0  0  0  0  0  0  0  0
   10.8373  -19.3761   20.7203 N   0  0  0  0  0  0  0  0  0  0  0  0
   10.9183  -16.9757   21.0693 C   0  0  0  0  0  0  0  0  0  0  0  0
   11.4723  -15.8461   21.1087 O   0  0  0  0  0  0  0  0  0  0  0  0
    9.5434  -17.0347   21.4091 N   0  0  0  0  0  0  0  0  0  0  0  0
    8.7650  -15.8557   21.8069 C   0  0  1  0  0  0  0  0  0  0  0  0
    7.3064  -16.0661   21.5424 C   0  0  0  0  0  0  0  0  0  0  0  0
    6.9601  -17.0783   20.5135 C   0  0  0  0  0  0  0  0  0  0  0  0
    5.4487  -17.2023   20.4282 C   0  0  0  0  0  0  0  0  0  0  0  0
    5.1563  -18.2707   19.3929 C   0  0  0  0  0  0  0  0  0  0  0  0
    3.7130  -18.4451   19.3741 N   0  0  0  0  0  0  0  0  0  0  0  0
    8.9737  -15.5700   23.2492 C   0  0  0  0  0  0  0  0  0  0  0  0
    8.4727  -14.5287   23.7304 O   0  0  0  0  0  0  0  0  0  0  0  0
    9.7031  -16.4024   24.1080 N   0  0  0  0  0  0  0  0  0  0  0  0
   10.0975  -15.9692   25.4414 C   0  0  1  0  0  0  0  0  0  0  0  0
    8.9847  -16.1948   26.4187 C   0  0  0  0  0  0  0  0  0  0  0  0
    7.8131  -15.3668   26.1232 C   0  0  0  0  0  0  0  0  0  0  0  0
    6.6066  -15.8357   25.5839 C   0  0  0  0  0  0  0  0  0  0  0  0
    5.7617  -14.8081   25.3982 N   0  0  0  0  0  0  0  0  0  0  0  0
    6.3483  -13.6784   25.7889 C   0  0  0  0  0  0  0  0  0  0  0  0
    5.8821  -12.3728   25.8130 C   0  0  0  0  0  0  0  0  0  0  0  0
    6.6820  -11.3592   26.2948 C   0  0  0  0  0  0  0  0  0  0  0  0
    7.9613  -11.6879   26.7519 C   0  0  0  0  0  0  0  0  0  0  0  0
    8.4210  -12.9852   26.7257 C   0  0  0  0  0  0  0  0  0  0  0  0
    7.6124  -13.9924   26.2404 C   0  0  0  0  0  0  0  0  0  0  0  0
   11.3589  -16.5442   25.8906 C   0  0  0  0  0  0  0  0  0  0  0  0
   11.8465  -16.2838   27.0491 O   0  0  0  0  0  0  0  0  0  0  0  0
   12.1321  -17.4136   25.1321 O   0  0  0  0  0  0  0  0  0  0  0  0
  1  2  1  0
  2  3  2  0
  4  5  1  0
  4  2  1  0
  5  6  1  6
  7  5  1  0
  7  8  2  0
  9  7  1  0
 10  9  1  0
 10 11  1  1
 12 11  1  0
 12 13  1  0
 13 14  1  0
 15 14  1  0
 16 10  1  0
 17 16  2  0
 18 16  1  0
 19 30  1  0
 19 18  1  0
 20 21  1  0
 19 20  1  1
 21 22  2  0
 21 29  1  0
 22 23  1  0
 23 24  1  0
 24 25  2  0
 26 25  1  0
 27 26  2  0
 28 29  2  0
 28 27  1  0
 29 24  1  0
 30 32  1  0
 31 30  2  0
M  END
$$$$
