NKW.pdb
     RDKit          3D

 32 33  0  0  1  0  0  0  0  0999 V2000
    7.7244  -22.0796   20.8462 N   0  0  0  0  0  0  0  0  0  0  0  0
    8.8396  -21.7682   20.0237 C   0  0  0  0  0  0  0  0  0  0  0  0
    9.2174  -22.6336   19.2020 O   0  0  0  0  0  0  0  0  0  0  0  0
    9.5620  -20.4822   20.0974 C   0  0  0  0  0  0  0  0  0  0  0  0
    8.8927  -19.6011   21.1009 C   0  0  2  0  0  0  0  0  0  0  0  0
    7.5350  -19.3380   20.6551 N   0  0  0  0  0  0  0  0  0  0  0  0
    9.6374  -18.3228   21.3180 C   0  0  0  0  0  0  0  0  0  0  0  0
   10.8841  -18.2623   21.1547 O   0  0  0  0  0  0  0  0  0  0  0  0
    8.9778  -17.1323   21.7141 N   0  0  0  0  0  0  0  0  0  0  0  0
    9.6797  -15.8619   21.9322 C   0  0  1  0  0  0  0  0  0  0  0  0
    8.8839  -14.7139   21.3934 C   0  0  0  0  0  0  0  0  0  0  0  0
    8.7154  -14.6599   19.9196 C   0  0  0  0  0  0  0  0  0  0  0  0
    7.8656  -13.4530   19.5612 C   0  0  0  0  0  0  0  0  0  0  0  0
    7.6797  -13.4818   18.0567 C   0  0  0  0  0  0  0  0  0  0  0  0
    6.8962  -12.3060   17.7139 N   0  0  0  0  0  0  0  0  0  0  0  0
    9.9280  -15.6591   23.3823 C   0  0  0  0  0  0  0  0  0  0  0  0
   10.6007  -14.6659   23.7399 O   0  0  0  0  0  0  0  0  0  0  0  0
    9.4508  -16.5196   24.3795 N   0  0  0  0  0  0  0  0  0  0  0  0
    9.9423  -16.4514   25.7487 C   0  0  1  0  0  0  0  0  0  0  0  0
    8.8025  -16.4951   26.7199 C   0  0  0  0  0  0  0  0  0  0  0  0
    7.8069  -15.4549   26.4510 C   0  0  0  0  0  0  0  0  0  0  0  0
    6.5295  -15.6768   25.9167 C   0  0  0  0  0  0  0  0  0  0  0  0
    5.8934  -14.5045   25.7575 N   0  0  0  0  0  0  0  0  0  0  0  0
    6.6862  -13.5137   26.1610 C   0  0  0  0  0  0  0  0  0  0  0  0
    6.4761  -12.1442   26.2122 C   0  0  0  0  0  0  0  0  0  0  0  0
    7.4571  -11.3096   26.7026 C   0  0  0  0  0  0  0  0  0  0  0  0
    8.6542  -11.8830   27.1404 C   0  0  0  0  0  0  0  0  0  0  0  0
    8.8595  -13.2432   27.0873 C   0  0  0  0  0  0  0  0  0  0  0  0
    7.8711  -14.0698   26.5936 C   0  0  0  0  0  0  0  0  0  0  0  0
   10.9683  -17.4419   26.0486 C   0  0  0  0  0  0  0  0  0  0  0  0
   11.2910  -18.3570   25.2084 O   0  0  0  0  0  0  0  0  0  0  0  0
   11.6838  -17.4861   27.2382 O   0  0  0  0  0  0  0  0  0  0  0  0
  1  2  1  0
  2  3  2  0
  4  5  1  0
  4  2  1  0
  5  6  1  6
  7  5  1  0
  7  8  2  0
  9  7  1  0
 10  9  1  0
 10 11  1  1
 12 11  1  0
 12 13  1  0
 13 14  1  0
 15 14  1  0
 16 10  1  0
 17 16  2  0
 18 16  1  0
 19 30  1  0
 19 18  1  0
 20 21  1  0
 19 20  1  1
 21 22  2  0
 21 29  1  0
 22 23  1  0
 23 24  1  0
 24 25  2  0
 26 25  1  0
 27 26  2  0
 28 29  2  0
 28 27  1  0
 29 24  1  0
 30 32  1  0
 31 30  2  0
M  END
$$$$
