NKW.pdb
     RDKit          3D

 32 33  0  0  1  0  0  0  0  0999 V2000
    9.4411  -12.0513   18.9235 N   0  0  0  0  0  0  0  0  0  0  0  0
    8.2860  -12.8775   18.9414 C   0  0  0  0  0  0  0  0  0  0  0  0
    7.4915  -12.7894   17.9782 O   0  0  0  0  0  0  0  0  0  0  0  0
    7.9881  -13.8237   20.0356 C   0  0  0  0  0  0  0  0  0  0  0  0
    8.6829  -15.1183   19.7666 C   0  0  2  0  0  0  0  0  0  0  0  0
    8.0528  -15.7539   18.6219 N   0  0  0  0  0  0  0  0  0  0  0  0
    8.6669  -16.0270   20.9540 C   0  0  0  0  0  0  0  0  0  0  0  0
    7.6108  -16.2158   21.6124 O   0  0  0  0  0  0  0  0  0  0  0  0
    9.8308  -16.7104   21.3871 N   0  0  0  0  0  0  0  0  0  0  0  0
    9.8413  -17.6290   22.5319 C   0  0  1  0  0  0  0  0  0  0  0  0
   10.8589  -18.7100   22.3383 C   0  0  0  0  0  0  0  0  0  0  0  0
   10.9287  -19.7495   23.3957 C   0  0  0  0  0  0  0  0  0  0  0  0
   12.0172  -20.7472   23.0396 C   0  0  0  0  0  0  0  0  0  0  0  0
   12.2527  -21.5950   24.2744 C   0  0  0  0  0  0  0  0  0  0  0  0
   11.1872  -22.5837   24.3071 N   0  0  0  0  0  0  0  0  0  0  0  0
   10.1381  -16.8831   23.7812 C   0  0  0  0  0  0  0  0  0  0  0  0
   11.0478  -16.0234   23.7618 O   0  0  0  0  0  0  0  0  0  0  0  0
    9.4559  -17.0867   24.9877 N   0  0  0  0  0  0  0  0  0  0  0  0
    9.9227  -16.5046   26.2386 C   0  0  1  0  0  0  0  0  0  0  0  0
    8.7662  -16.1971   27.1399 C   0  0  0  0  0  0  0  0  0  0  0  0
    7.7304  -15.4136   26.4623 C   0  0  0  0  0  0  0  0  0  0  0  0
    6.6792  -15.9477   25.7033 C   0  0  0  0  0  0  0  0  0  0  0  0
    5.9394  -14.9523   25.1875 N   0  0  0  0  0  0  0  0  0  0  0  0
    6.4478  -13.7818   25.5679 C   0  0  0  0  0  0  0  0  0  0  0  0
    6.0322  -12.4839   25.3131 C   0  0  0  0  0  0  0  0  0  0  0  0
    6.7211  -11.4170   25.8482 C   0  0  0  0  0  0  0  0  0  0  0  0
    7.8375  -11.6845   26.6456 C   0  0  0  0  0  0  0  0  0  0  0  0
    8.2476  -12.9746   26.8958 C   0  0  0  0  0  0  0  0  0  0  0  0
    7.5513  -14.0355   26.3542 C   0  0  0  0  0  0  0  0  0  0  0  0
   10.9503  -17.2973   26.9013 C   0  0  0  0  0  0  0  0  0  0  0  0
   11.2853  -18.4614   26.4768 O   0  0  0  0  0  0  0  0  0  0  0  0
   11.6546  -16.8781   28.0226 O   0  0  0  0  0  0  0  0  0  0  0  0
  1  2  1  0
  2  3  2  0
  4  5  1  0
  4  2  1  0
  5  6  1  6
  7  5  1  0
  7  8  2  0
  9  7  1  0
 10  9  1  0
 10 11  1  6
 12 11  1  0
 12 13  1  0
 13 14  1  0
 15 14  1  0
 16 10  1  0
 17 16  2  0
 18 16  1  0
 19 30  1  0
 19 18  1  0
 20 21  1  0
 19 20  1  1
 21 22  2  0
 21 29  1  0
 22 23  1  0
 23 24  1  0
 24 25  2  0
 26 25  1  0
 27 26  2  0
 28 29  2  0
 28 27  1  0
 29 24  1  0
 30 32  1  0
 31 30  2  0
M  END
$$$$
