NKW.pdb
     RDKit          3D

 32 33  0  0  1  0  0  0  0  0999 V2000
    4.0126  -19.8931   22.2363 N   0  0  0  0  0  0  0  0  0  0  0  0
    5.3569  -20.3189   22.4058 C   0  0  0  0  0  0  0  0  0  0  0  0
    5.5715  -21.5487   22.4965 O   0  0  0  0  0  0  0  0  0  0  0  0
    6.4965  -19.3824   22.4787 C   0  0  0  0  0  0  0  0  0  0  0  0
    6.6379  -18.6799   21.1680 C   0  0  2  0  0  0  0  0  0  0  0  0
    6.9963  -19.6571   20.1542 N   0  0  0  0  0  0  0  0  0  0  0  0
    7.6462  -17.5770   21.2226 C   0  0  0  0  0  0  0  0  0  0  0  0
    8.8791  -17.8267   21.2672 O   0  0  0  0  0  0  0  0  0  0  0  0
    7.2613  -16.2128   21.2264 N   0  0  0  0  0  0  0  0  0  0  0  0
    8.2124  -15.1125   21.4234 C   0  0  1  0  0  0  0  0  0  0  0  0
    7.6270  -13.8133   20.9641 C   0  0  0  0  0  0  0  0  0  0  0  0
    7.1875  -13.7499   19.5477 C   0  0  0  0  0  0  0  0  0  0  0  0
    8.4114  -13.6763   18.6512 C   0  0  0  0  0  0  0  0  0  0  0  0
    7.9029  -13.5545   17.2280 C   0  0  0  0  0  0  0  0  0  0  0  0
    9.0761  -13.5360   16.3694 N   0  0  0  0  0  0  0  0  0  0  0  0
    8.5854  -15.0117   22.8573 C   0  0  0  0  0  0  0  0  0  0  0  0
    7.7198  -14.6232   23.6738 O   0  0  0  0  0  0  0  0  0  0  0  0
    9.8571  -15.3276   23.3528 N   0  0  0  0  0  0  0  0  0  0  0  0
   10.1411  -15.3379   24.7813 C   0  0  1  0  0  0  0  0  0  0  0  0
    9.1728  -16.2237   25.5039 C   0  0  0  0  0  0  0  0  0  0  0  0
    7.9075  -15.5428   25.7889 C   0  0  0  0  0  0  0  0  0  0  0  0
    6.6368  -16.1302   25.7077 C   0  0  0  0  0  0  0  0  0  0  0  0
    5.6943  -15.2159   25.9905 N   0  0  0  0  0  0  0  0  0  0  0  0
    6.2774  -14.0487   26.2566 C   0  0  0  0  0  0  0  0  0  0  0  0
    5.7376  -12.8238   26.6177 C   0  0  0  0  0  0  0  0  0  0  0  0
    6.5626  -11.7492   26.8702 C   0  0  0  0  0  0  0  0  0  0  0  0
    7.9430  -11.9340   26.7514 C   0  0  0  0  0  0  0  0  0  0  0  0
    8.4754  -13.1515   26.3919 C   0  0  0  0  0  0  0  0  0  0  0  0
    7.6403  -14.2207   26.1404 C   0  0  0  0  0  0  0  0  0  0  0  0
   11.5282  -15.6546   25.0964 C   0  0  0  0  0  0  0  0  0  0  0  0
   11.9760  -15.6093   26.2985 O   0  0  0  0  0  0  0  0  0  0  0  0
   12.4739  -16.0341   24.1527 O   0  0  0  0  0  0  0  0  0  0  0  0
  1  2  1  0
  2  3  2  0
  4  5  1  0
  4  2  1  0
  5  6  1  6
  7  5  1  0
  7  8  2  0
  9  7  1  0
 10  9  1  0
 10 11  1  1
 12 11  1  0
 12 13  1  0
 13 14  1  0
 15 14  1  0
 16 10  1  0
 17 16  2  0
 18 16  1  0
 19 30  1  0
 19 18  1  0
 20 21  1  0
 19 20  1  1
 21 22  2  0
 21 29  1  0
 22 23  1  0
 23 24  1  0
 24 25  2  0
 26 25  1  0
 27 26  2  0
 28 29  2  0
 28 27  1  0
 29 24  1  0
 30 32  1  0
 31 30  2  0
M  END
$$$$
