NKW.pdb
     RDKit          3D

 32 33  0  0  1  0  0  0  0  0999 V2000
   15.3564  -14.0153   18.3322 N   0  0  0  0  0  0  0  0  0  0  0  0
   14.6397  -15.1228   18.8586 C   0  0  0  0  0  0  0  0  0  0  0  0
   14.9598  -16.2659   18.4616 O   0  0  0  0  0  0  0  0  0  0  0  0
   13.5468  -14.9825   19.8419 C   0  0  0  0  0  0  0  0  0  0  0  0
   12.2376  -15.1826   19.1512 C   0  0  2  0  0  0  0  0  0  0  0  0
   12.0378  -14.0931   18.2108 N   0  0  0  0  0  0  0  0  0  0  0  0
   11.0968  -15.2689   20.1140 C   0  0  0  0  0  0  0  0  0  0  0  0
   10.5630  -14.2296   20.5824 O   0  0  0  0  0  0  0  0  0  0  0  0
   10.5702  -16.5147   20.5382 N   0  0  0  0  0  0  0  0  0  0  0  0
    9.4524  -16.6325   21.4821 C   0  0  1  0  0  0  0  0  0  0  0  0
    8.6348  -17.8523   21.1903 C   0  0  0  0  0  0  0  0  0  0  0  0
    8.0863  -17.9676   19.8159 C   0  0  0  0  0  0  0  0  0  0  0  0
    7.2732  -19.2463   19.7117 C   0  0  0  0  0  0  0  0  0  0  0  0
    6.6527  -19.2572   18.3283 C   0  0  0  0  0  0  0  0  0  0  0  0
    5.8262  -20.4510   18.2546 N   0  0  0  0  0  0  0  0  0  0  0  0
    9.9656  -16.6979   22.8742 C   0  0  0  0  0  0  0  0  0  0  0  0
   11.0110  -17.3497   23.0954 O   0  0  0  0  0  0  0  0  0  0  0  0
    9.3441  -16.0692   23.9610 N   0  0  0  0  0  0  0  0  0  0  0  0
    9.9032  -16.1334   25.3044 C   0  0  1  0  0  0  0  0  0  0  0  0
    9.6622  -14.8490   26.0367 C   0  0  0  0  0  0  0  0  0  0  0  0
    8.2382  -14.5139   26.1110 C   0  0  0  0  0  0  0  0  0  0  0  0
    7.1855  -15.4382   26.0490 C   0  0  0  0  0  0  0  0  0  0  0  0
    6.0092  -14.7920   26.1017 N   0  0  0  0  0  0  0  0  0  0  0  0
    6.2291  -13.4821   26.1967 C   0  0  0  0  0  0  0  0  0  0  0  0
    5.3475  -12.4170   26.2989 C   0  0  0  0  0  0  0  0  0  0  0  0
    5.8252  -11.1293   26.4132 C   0  0  0  0  0  0  0  0  0  0  0  0
    7.2095  -10.9367   26.4225 C   0  0  0  0  0  0  0  0  0  0  0  0
    8.0819  -11.9967   26.3200 C   0  0  0  0  0  0  0  0  0  0  0  0
    7.5930  -13.2818   26.2051 C   0  0  0  0  0  0  0  0  0  0  0  0
    9.4639  -17.2980   26.0623 C   0  0  0  0  0  0  0  0  0  0  0  0
    8.4615  -18.0083   25.6905 O   0  0  0  0  0  0  0  0  0  0  0  0
   10.0759  -17.7458   27.2259 O   0  0  0  0  0  0  0  0  0  0  0  0
  1  2  1  0
  2  3  2  0
  4  5  1  0
  4  2  1  0
  5  6  1  6
  7  5  1  0
  7  8  2  0
  9  7  1  0
 10  9  1  0
 10 11  1  6
 12 11  1  0
 12 13  1  0
 13 14  1  0
 15 14  1  0
 16 10  1  0
 17 16  2  0
 18 16  1  0
 19 30  1  0
 19 18  1  0
 20 21  1  0
 19 20  1  1
 21 22  2  0
 21 29  1  0
 22 23  1  0
 23 24  1  0
 24 25  2  0
 26 25  1  0
 27 26  2  0
 28 29  2  0
 28 27  1  0
 29 24  1  0
 30 32  1  0
 31 30  2  0
M  END
$$$$
