SAK.pdb
     RDKit          3D

 21 20  0  0  1  0  0  0  0  0999 V2000
   25.4756  -17.0973  -14.5488 O   0  0  0  0  0  0  0  0  0  0  0  0
   25.1464  -15.8123  -14.9709 C   0  0  0  0  0  0  0  0  0  0  0  0
   24.6544  -15.8365  -16.4025 C   0  0  2  0  0  0  0  0  0  0  0  0
   25.6518  -16.3914  -17.2655 N   0  0  0  0  0  0  0  0  0  0  0  0
   24.2061  -14.4881  -16.8451 C   0  0  0  0  0  0  0  0  0  0  0  0
   25.0664  -13.6843  -17.2672 O   0  0  0  0  0  0  0  0  0  0  0  0
   20.8966  -12.8394  -17.3705 C   0  0  0  0  0  0  0  0  0  0  0  0
   22.4065  -12.7789  -17.2725 C   0  0  2  0  0  0  0  0  0  0  0  0
   22.8540  -14.0789  -16.8088 N   0  0  0  0  0  0  0  0  0  0  0  0
   22.7938  -11.6922  -16.3188 C   0  0  0  0  0  0  0  0  0  0  0  0
   22.6951  -11.9222  -15.1091 O   0  0  0  0  0  0  0  0  0  0  0  0
   23.2567  -10.4449  -16.7677 N   0  0  0  0  0  0  0  0  0  0  0  0
   23.7246   -9.3362  -16.0358 C   0  0  1  0  0  0  0  0  0  0  0  0
   25.0668   -8.7578  -16.4633 C   0  0  0  0  0  0  0  0  0  0  0  0
   26.1367   -9.7908  -16.6248 C   0  0  0  0  0  0  0  0  0  0  0  0
   27.4807   -9.2645  -16.9958 C   0  0  0  0  0  0  0  0  0  0  0  0
   28.5537  -10.2706  -17.2064 C   0  0  0  0  0  0  0  0  0  0  0  0
   29.8008   -9.6837  -17.6429 N   0  0  0  0  0  0  0  0  0  0  0  0
   22.8031   -8.2568  -15.7333 C   0  0  0  0  0  0  0  0  0  0  0  0
   21.7667   -8.0111  -16.4005 O   0  0  0  0  0  0  0  0  0  0  0  0
   23.0654   -7.4363  -14.6461 O   0  0  0  0  0  0  0  0  0  0  0  0
  2  1  1  0
  3  2  1  0
  3  4  1  6
  5  3  1  0
  5  6  2  0
  8  7  1  1
  8  9  1  0
  8 10  1  0
  9  5  1  0
 10 12  1  0
 11 10  2  0
 12 13  1  0
 13 14  1  6
 14 15  1  0
 16 15  1  0
 16 17  1  0
 17 18  1  0
 19 21  1  0
 19 13  1  0
 20 19  2  0
M  END
$$$$
