SAK.pdb
     RDKit          3D

 21 20  0  0  1  0  0  0  0  0999 V2000
   18.3163   -5.8037  -14.5112 O   0  0  0  0  0  0  0  0  0  0  0  0
   17.5741   -6.4339  -13.5163 C   0  0  0  0  0  0  0  0  0  0  0  0
   18.4821   -6.9143  -12.4042 C   0  0  2  0  0  0  0  0  0  0  0  0
   19.3852   -7.9120  -12.8908 N   0  0  0  0  0  0  0  0  0  0  0  0
   17.6991   -7.3814  -11.2279 C   0  0  0  0  0  0  0  0  0  0  0  0
   17.3732   -8.5877  -11.1715 O   0  0  0  0  0  0  0  0  0  0  0  0
   16.3067   -5.7620   -8.1509 C   0  0  0  0  0  0  0  0  0  0  0  0
   16.4353   -6.9390   -9.0950 C   0  0  2  0  0  0  0  0  0  0  0  0
   17.3095   -6.5226  -10.1754 N   0  0  0  0  0  0  0  0  0  0  0  0
   15.0772   -7.3139   -9.6005 C   0  0  0  0  0  0  0  0  0  0  0  0
   14.5985   -6.6454  -10.5224 O   0  0  0  0  0  0  0  0  0  0  0  0
   14.3563   -8.3886   -9.0556 N   0  0  0  0  0  0  0  0  0  0  0  0
   13.0607   -8.8535   -9.3544 C   0  0  1  0  0  0  0  0  0  0  0  0
   12.7234  -10.2657   -8.8953 C   0  0  0  0  0  0  0  0  0  0  0  0
   11.3837  -10.7402   -9.3623 C   0  0  0  0  0  0  0  0  0  0  0  0
   10.9600  -12.0698   -8.8392 C   0  0  0  0  0  0  0  0  0  0  0  0
    9.6048  -12.5370   -9.2305 C   0  0  0  0  0  0  0  0  0  0  0  0
    9.2137  -13.7583   -8.5628 N   0  0  0  0  0  0  0  0  0  0  0  0
   11.9288   -7.9787   -9.1108 C   0  0  0  0  0  0  0  0  0  0  0  0
   11.7723   -7.3099   -8.0582 O   0  0  0  0  0  0  0  0  0  0  0  0
   10.9505   -7.8606  -10.0871 O   0  0  0  0  0  0  0  0  0  0  0  0
  2  1  1  0
  3  2  1  0
  3  4  1  6
  5  3  1  0
  5  6  2  0
  8  7  1  1
  8  9  1  0
  8 10  1  0
  9  5  1  0
 10 12  1  0
 11 10  2  0
 12 13  1  0
 13 14  1  1
 14 15  1  0
 16 15  1  0
 16 17  1  0
 17 18  1  0
 19 21  1  0
 19 13  1  0
 20 19  2  0
M  END
$$$$
