SAK.pdb
     RDKit          3D

 21 20  0  0  1  0  0  0  0  0999 V2000
   17.5477  -12.5005  -16.9111 O   0  0  0  0  0  0  0  0  0  0  0  0
   17.7161  -11.1624  -16.5662 C   0  0  0  0  0  0  0  0  0  0  0  0
   18.1899  -11.0419  -15.1334 C   0  0  2  0  0  0  0  0  0  0  0  0
   17.1952  -11.5401  -14.2334 N   0  0  0  0  0  0  0  0  0  0  0  0
   18.5994   -9.6475  -14.8126 C   0  0  0  0  0  0  0  0  0  0  0  0
   17.7099   -8.7731  -14.7195 O   0  0  0  0  0  0  0  0  0  0  0  0
   21.8413   -7.9315  -14.0638 C   0  0  0  0  0  0  0  0  0  0  0  0
   20.3584   -7.9006  -14.3688 C   0  0  2  0  0  0  0  0  0  0  0  0
   19.9462   -9.2708  -14.6096 N   0  0  0  0  0  0  0  0  0  0  0  0
   20.1214   -7.0368  -15.5680 C   0  0  0  0  0  0  0  0  0  0  0  0
   20.3051   -7.5336  -16.6840 O   0  0  0  0  0  0  0  0  0  0  0  0
   19.7033   -5.7019  -15.4465 N   0  0  0  0  0  0  0  0  0  0  0  0
   19.4739   -4.7312  -16.4410 C   0  0  1  0  0  0  0  0  0  0  0  0
   18.0376   -4.2524  -16.6041 C   0  0  0  0  0  0  0  0  0  0  0  0
   17.0455   -5.3674  -16.7059 C   0  0  0  0  0  0  0  0  0  0  0  0
   15.6274   -4.9453  -16.8837 C   0  0  0  0  0  0  0  0  0  0  0  0
   14.6278   -6.0305  -17.0594 C   0  0  0  0  0  0  0  0  0  0  0  0
   13.2729   -5.5382  -17.1694 N   0  0  0  0  0  0  0  0  0  0  0  0
   20.3784   -3.6006  -16.5385 C   0  0  0  0  0  0  0  0  0  0  0  0
   21.1428   -3.2314  -15.6117 O   0  0  0  0  0  0  0  0  0  0  0  0
   20.4154   -2.8714  -17.7179 O   0  0  0  0  0  0  0  0  0  0  0  0
  2  1  1  0
  3  2  1  0
  3  4  1  1
  5  3  1  0
  5  6  2  0
  8  7  1  6
  8  9  1  0
  8 10  1  0
  9  5  1  0
 10 12  1  0
 11 10  2  0
 12 13  1  0
 13 14  1  1
 14 15  1  0
 16 15  1  0
 16 17  1  0
 17 18  1  0
 19 21  1  0
 19 13  1  0
 20 19  2  0
M  END
$$$$
