SAK.pdb
     RDKit          3D

 21 20  0  0  1  0  0  0  0  0999 V2000
   13.9675  -14.7979  -14.9399 O   0  0  0  0  0  0  0  0  0  0  0  0
   14.5998  -13.7452  -15.5955 C   0  0  0  0  0  0  0  0  0  0  0  0
   15.4661  -12.9654  -14.6293 C   0  0  2  0  0  0  0  0  0  0  0  0
   14.7079  -12.5741  -13.4806 N   0  0  0  0  0  0  0  0  0  0  0  0
   16.1207  -11.8089  -15.2993 C   0  0  0  0  0  0  0  0  0  0  0  0
   16.8764  -12.0339  -16.2702 O   0  0  0  0  0  0  0  0  0  0  0  0
   15.6939   -8.1266  -15.2471 C   0  0  0  0  0  0  0  0  0  0  0  0
   16.5505   -9.3395  -15.5439 C   0  0  2  0  0  0  0  0  0  0  0  0
   15.9253  -10.4717  -14.8863 N   0  0  0  0  0  0  0  0  0  0  0  0
   17.9354   -9.1009  -15.0287 C   0  0  0  0  0  0  0  0  0  0  0  0
   18.1397   -9.2653  -13.8215 O   0  0  0  0  0  0  0  0  0  0  0  0
   18.9813   -8.7024  -15.8767 N   0  0  0  0  0  0  0  0  0  0  0  0
   20.3329   -8.4360  -15.5833 C   0  0  1  0  0  0  0  0  0  0  0  0
   21.3392   -8.7376  -16.6856 C   0  0  0  0  0  0  0  0  0  0  0  0
   22.7570   -8.4758  -16.2863 C   0  0  0  0  0  0  0  0  0  0  0  0
   23.7646   -8.6296  -17.3734 C   0  0  0  0  0  0  0  0  0  0  0  0
   25.1902   -8.4692  -16.9861 C   0  0  0  0  0  0  0  0  0  0  0  0
   26.0893   -8.4931  -18.1180 N   0  0  0  0  0  0  0  0  0  0  0  0
   20.6761   -7.1812  -14.9403 C   0  0  0  0  0  0  0  0  0  0  0  0
   21.5670   -7.0635  -14.0616 O   0  0  0  0  0  0  0  0  0  0  0  0
   19.9905   -6.0317  -15.3044 O   0  0  0  0  0  0  0  0  0  0  0  0
  2  1  1  0
  3  2  1  0
  3  4  1  1
  5  3  1  0
  5  6  2  0
  8  7  1  1
  8  9  1  0
  8 10  1  0
  9  5  1  0
 10 12  1  0
 11 10  2  0
 12 13  1  0
 13 14  1  6
 14 15  1  0
 16 15  1  0
 16 17  1  0
 17 18  1  0
 19 21  1  0
 19 13  1  0
 20 19  2  0
M  END
$$$$
