SAK.pdb
     RDKit          3D

 21 20  0  0  1  0  0  0  0  0999 V2000
   14.4653  -13.1420  -16.8816 O   0  0  0  0  0  0  0  0  0  0  0  0
   15.4726  -12.6178  -16.0765 C   0  0  0  0  0  0  0  0  0  0  0  0
   16.8333  -12.9308  -16.6618 C   0  0  2  0  0  0  0  0  0  0  0  0
   17.0793  -14.3401  -16.6315 N   0  0  0  0  0  0  0  0  0  0  0  0
   17.9067  -12.1517  -15.9867 C   0  0  0  0  0  0  0  0  0  0  0  0
   17.8629  -12.0337  -14.7423 O   0  0  0  0  0  0  0  0  0  0  0  0
   21.0737  -10.4890  -17.0761 C   0  0  0  0  0  0  0  0  0  0  0  0
   20.0010  -10.7539  -16.0406 C   0  0  2  0  0  0  0  0  0  0  0  0
   18.9699  -11.5416  -16.6899 N   0  0  0  0  0  0  0  0  0  0  0  0
   19.4639   -9.4479  -15.5443 C   0  0  0  0  0  0  0  0  0  0  0  0
   18.6159   -8.8720  -16.2336 O   0  0  0  0  0  0  0  0  0  0  0  0
   19.8991   -8.8810  -14.3357 N   0  0  0  0  0  0  0  0  0  0  0  0
   19.5358   -7.6656  -13.7234 C   0  0  1  0  0  0  0  0  0  0  0  0
   19.1570   -7.7342  -12.2501 C   0  0  0  0  0  0  0  0  0  0  0  0
   17.7090   -8.0313  -12.0202 C   0  0  0  0  0  0  0  0  0  0  0  0
   17.3264   -8.2807  -10.6016 C   0  0  0  0  0  0  0  0  0  0  0  0
   15.8814   -8.4957  -10.3307 C   0  0  0  0  0  0  0  0  0  0  0  0
   15.5906   -8.6763   -8.9260 N   0  0  0  0  0  0  0  0  0  0  0  0
   20.3511   -6.4893  -13.9626 C   0  0  0  0  0  0  0  0  0  0  0  0
   20.0069   -5.3215  -13.6506 O   0  0  0  0  0  0  0  0  0  0  0  0
   21.5880   -6.6433  -14.5712 O   0  0  0  0  0  0  0  0  0  0  0  0
  2  1  1  0
  3  2  1  0
  3  4  1  1
  5  3  1  0
  5  6  2  0
  8  7  1  6
  8  9  1  0
  8 10  1  0
  9  5  1  0
 10 12  1  0
 11 10  2  0
 12 13  1  0
 13 14  1  1
 14 15  1  0
 16 15  1  0
 16 17  1  0
 17 18  1  0
 19 21  1  0
 19 13  1  0
 20 19  2  0
M  END
$$$$
