SAK.pdb
     RDKit          3D

 21 20  0  0  1  0  0  0  0  0999 V2000
   17.3947   -9.3303  -12.6218 O   0  0  0  0  0  0  0  0  0  0  0  0
   17.7592   -9.7347  -11.3407 C   0  0  0  0  0  0  0  0  0  0  0  0
   16.5284   -9.9785  -10.4935 C   0  0  2  0  0  0  0  0  0  0  0  0
   15.6963  -10.9755  -11.0943 N   0  0  0  0  0  0  0  0  0  0  0  0
   15.7946   -8.7118  -10.2252 C   0  0  0  0  0  0  0  0  0  0  0  0
   14.8727   -8.3824  -11.0036 O   0  0  0  0  0  0  0  0  0  0  0  0
   15.9521   -6.0494   -7.5973 C   0  0  0  0  0  0  0  0  0  0  0  0
   15.4598   -6.5795   -8.9276 C   0  0  2  0  0  0  0  0  0  0  0  0
   16.0944   -7.8682   -9.1318 N   0  0  0  0  0  0  0  0  0  0  0  0
   15.8245   -5.6101  -10.0082 C   0  0  0  0  0  0  0  0  0  0  0  0
   16.9096   -5.7614  -10.5787 O   0  0  0  0  0  0  0  0  0  0  0  0
   14.9719   -4.5562  -10.3745 N   0  0  0  0  0  0  0  0  0  0  0  0
   15.1293   -3.5672  -11.3650 C   0  0  1  0  0  0  0  0  0  0  0  0
   14.3821   -3.7910  -12.6728 C   0  0  0  0  0  0  0  0  0  0  0  0
   14.7066   -2.7788  -13.7254 C   0  0  0  0  0  0  0  0  0  0  0  0
   14.0430   -2.9930  -15.0425 C   0  0  0  0  0  0  0  0  0  0  0  0
   14.4202   -2.0607  -16.1364 C   0  0  0  0  0  0  0  0  0  0  0  0
   13.7771   -2.3742  -17.3927 N   0  0  0  0  0  0  0  0  0  0  0  0
   15.0339   -2.1707  -10.9822 C   0  0  0  0  0  0  0  0  0  0  0  0
   14.1233   -1.7036  -10.2528 O   0  0  0  0  0  0  0  0  0  0  0  0
   15.9968   -1.2830  -11.4394 O   0  0  0  0  0  0  0  0  0  0  0  0
  2  1  1  0
  3  2  1  0
  3  4  1  6
  5  3  1  0
  5  6  2  0
  8  7  1  1
  8  9  1  0
  8 10  1  0
  9  5  1  0
 10 12  1  0
 11 10  2  0
 12 13  1  0
 13 14  1  6
 14 15  1  0
 16 15  1  0
 16 17  1  0
 17 18  1  0
 19 21  1  0
 19 13  1  0
 20 19  2  0
M  END
$$$$
