SAK.pdb
     RDKit          3D

 21 20  0  0  1  0  0  0  0  0999 V2000
   25.4285  -13.5291  -17.6135 O   0  0  0  0  0  0  0  0  0  0  0  0
   24.3972  -12.5976  -17.6940 C   0  0  0  0  0  0  0  0  0  0  0  0
   24.7544  -11.3460  -16.9207 C   0  0  2  0  0  0  0  0  0  0  0  0
   25.0924  -11.6718  -15.5690 N   0  0  0  0  0  0  0  0  0  0  0  0
   23.6724  -10.3278  -17.0065 C   0  0  0  0  0  0  0  0  0  0  0  0
   23.3938   -9.8492  -18.1279 O   0  0  0  0  0  0  0  0  0  0  0  0
   20.7198   -9.4722  -15.1377 C   0  0  0  0  0  0  0  0  0  0  0  0
   21.8641   -8.9202  -15.9617 C   0  0  2  0  0  0  0  0  0  0  0  0
   22.9488   -9.8802  -15.8781 N   0  0  0  0  0  0  0  0  0  0  0  0
   22.2666   -7.5872  -15.4127 C   0  0  0  0  0  0  0  0  0  0  0  0
   22.9331   -7.5675  -14.3728 O   0  0  0  0  0  0  0  0  0  0  0  0
   21.9066   -6.3872  -16.0468 N   0  0  0  0  0  0  0  0  0  0  0  0
   22.1397   -5.0533  -15.6590 C   0  0  1  0  0  0  0  0  0  0  0  0
   21.7637   -3.9771  -16.6686 C   0  0  0  0  0  0  0  0  0  0  0  0
   22.2618   -2.6152  -16.3013 C   0  0  0  0  0  0  0  0  0  0  0  0
   22.0007   -1.5476  -17.3078 C   0  0  0  0  0  0  0  0  0  0  0  0
   22.5636   -0.2043  -17.0133 C   0  0  0  0  0  0  0  0  0  0  0  0
   22.3847    0.1934  -15.6349 N   0  0  0  0  0  0  0  0  0  0  0  0
   21.7452   -4.6315  -14.3277 C   0  0  0  0  0  0  0  0  0  0  0  0
   20.5767   -4.7341  -13.8764 O   0  0  0  0  0  0  0  0  0  0  0  0
   22.7018   -4.0796  -13.4884 O   0  0  0  0  0  0  0  0  0  0  0  0
  2  1  1  0
  3  2  1  0
  3  4  1  1
  5  3  1  0
  5  6  2  0
  8  7  1  1
  8  9  1  0
  8 10  1  0
  9  5  1  0
 10 12  1  0
 11 10  2  0
 12 13  1  0
 13 14  1  6
 14 15  1  0
 16 15  1  0
 16 17  1  0
 17 18  1  0
 19 21  1  0
 19 13  1  0
 20 19  2  0
M  END
$$$$
