SAK.pdb
     RDKit          3D

 21 20  0  0  1  0  0  0  0  0999 V2000
   18.1253  -22.0346  -14.5596 O   0  0  0  0  0  0  0  0  0  0  0  0
   18.8191  -23.0288  -13.8756 C   0  0  0  0  0  0  0  0  0  0  0  0
   19.4506  -22.4643  -12.6208 C   0  0  2  0  0  0  0  0  0  0  0  0
   18.4547  -22.2324  -11.6198 N   0  0  0  0  0  0  0  0  0  0  0  0
   20.2528  -21.2464  -12.9175 C   0  0  0  0  0  0  0  0  0  0  0  0
   19.7527  -20.1285  -12.6636 O   0  0  0  0  0  0  0  0  0  0  0  0
   23.7268  -20.5435  -14.0883 C   0  0  0  0  0  0  0  0  0  0  0  0
   22.2889  -20.1176  -13.8782 C   0  0  2  0  0  0  0  0  0  0  0  0
   21.5514  -21.2994  -13.4723 N   0  0  0  0  0  0  0  0  0  0  0  0
   21.7538  -19.5476  -15.1545 C   0  0  0  0  0  0  0  0  0  0  0  0
   21.1861  -20.3158  -15.9378 O   0  0  0  0  0  0  0  0  0  0  0  0
   21.8842  -18.1850  -15.4676 N   0  0  0  0  0  0  0  0  0  0  0  0
   21.5235  -17.4862  -16.6361 C   0  0  1  0  0  0  0  0  0  0  0  0
   21.1671  -16.0156  -16.4652 C   0  0  0  0  0  0  0  0  0  0  0  0
   20.4383  -15.4388  -17.6374 C   0  0  0  0  0  0  0  0  0  0  0  0
   20.1011  -13.9912  -17.5295 C   0  0  0  0  0  0  0  0  0  0  0  0
   19.4132  -13.3801  -18.6962 C   0  0  0  0  0  0  0  0  0  0  0  0
   19.1847  -11.9613  -18.5378 N   0  0  0  0  0  0  0  0  0  0  0  0
   22.3288  -17.6566  -17.8313 C   0  0  0  0  0  0  0  0  0  0  0  0
   23.5856  -17.6671  -17.8351 O   0  0  0  0  0  0  0  0  0  0  0  0
   21.6906  -17.8190  -19.0521 O   0  0  0  0  0  0  0  0  0  0  0  0
  2  1  1  0
  3  2  1  0
  3  4  1  1
  5  3  1  0
  5  6  2  0
  8  7  1  6
  8  9  1  0
  8 10  1  0
  9  5  1  0
 10 12  1  0
 11 10  2  0
 12 13  1  0
 13 14  1  1
 14 15  1  0
 16 15  1  0
 16 17  1  0
 17 18  1  0
 19 21  1  0
 19 13  1  0
 20 19  2  0
M  END
$$$$
