SAK.pdb
     RDKit          3D

 21 20  0  0  1  0  0  0  0  0999 V2000
   15.6582  -12.1128  -16.6559 O   0  0  0  0  0  0  0  0  0  0  0  0
   16.8537  -11.8510  -17.3192 C   0  0  0  0  0  0  0  0  0  0  0  0
   18.0284  -12.3618  -16.5122 C   0  0  2  0  0  0  0  0  0  0  0  0
   17.9706  -13.7864  -16.3903 N   0  0  0  0  0  0  0  0  0  0  0  0
   18.1164  -11.6814  -15.1915 C   0  0  0  0  0  0  0  0  0  0  0  0
   17.6649  -12.2732  -14.1864 O   0  0  0  0  0  0  0  0  0  0  0  0
   19.5322   -8.4591  -13.9279 C   0  0  0  0  0  0  0  0  0  0  0  0
   18.6123   -9.6533  -13.7832 C   0  0  2  0  0  0  0  0  0  0  0  0
   18.6866  -10.3990  -15.0255 N   0  0  0  0  0  0  0  0  0  0  0  0
   17.2210   -9.1718  -13.5136 C   0  0  0  0  0  0  0  0  0  0  0  0
   16.5209   -8.8557  -14.4810 O   0  0  0  0  0  0  0  0  0  0  0  0
   16.7115   -9.0764  -12.2086 N   0  0  0  0  0  0  0  0  0  0  0  0
   15.4439   -8.6567  -11.7603 C   0  0  1  0  0  0  0  0  0  0  0  0
   14.7858   -9.5126  -10.6864 C   0  0  0  0  0  0  0  0  0  0  0  0
   13.3923   -9.0829  -10.3528 C   0  0  0  0  0  0  0  0  0  0  0  0
   12.7359   -9.8449   -9.2530 C   0  0  0  0  0  0  0  0  0  0  0  0
   11.3387   -9.4629   -8.9214 C   0  0  0  0  0  0  0  0  0  0  0  0
   10.7371  -10.3264   -7.9301 N   0  0  0  0  0  0  0  0  0  0  0  0
   15.2369   -7.2524  -11.4588 C   0  0  0  0  0  0  0  0  0  0  0  0
   16.0488   -6.5472  -10.8082 O   0  0  0  0  0  0  0  0  0  0  0  0
   14.0792   -6.6340  -11.9073 O   0  0  0  0  0  0  0  0  0  0  0  0
  2  1  1  0
  3  2  1  0
  3  4  1  1
  5  3  1  0
  5  6  2  0
  8  7  1  6
  8  9  1  0
  8 10  1  0
  9  5  1  0
 10 12  1  0
 11 10  2  0
 12 13  1  0
 13 14  1  1
 14 15  1  0
 16 15  1  0
 16 17  1  0
 17 18  1  0
 19 21  1  0
 19 13  1  0
 20 19  2  0
M  END
$$$$
