SAK.pdb
     RDKit          3D

 21 20  0  0  1  0  0  0  0  0999 V2000
   14.7517  -11.7750  -16.0661 O   0  0  0  0  0  0  0  0  0  0  0  0
   15.1683  -10.9861  -14.9975 C   0  0  0  0  0  0  0  0  0  0  0  0
   16.6801  -10.9488  -14.9264 C   0  0  2  0  0  0  0  0  0  0  0  0
   17.2055  -12.2670  -14.7426 N   0  0  0  0  0  0  0  0  0  0  0  0
   17.1510   -9.9984  -13.8824 C   0  0  0  0  0  0  0  0  0  0  0  0
   16.7864  -10.1849  -12.7006 O   0  0  0  0  0  0  0  0  0  0  0  0
   19.3438   -6.9651  -13.8303 C   0  0  0  0  0  0  0  0  0  0  0  0
   18.3063   -7.8681  -13.1969 C   0  0  2  0  0  0  0  0  0  0  0  0
   17.9899   -8.8979  -14.1689 N   0  0  0  0  0  0  0  0  0  0  0  0
   17.0991   -7.0570  -12.8432 C   0  0  0  0  0  0  0  0  0  0  0  0
   16.2400   -6.8883  -13.7147 O   0  0  0  0  0  0  0  0  0  0  0  0
   16.9323   -6.4980  -11.5660 N   0  0  0  0  0  0  0  0  0  0  0  0
   15.9196   -5.6519  -11.0735 C   0  0  1  0  0  0  0  0  0  0  0  0
   15.6196   -5.7478   -9.5836 C   0  0  0  0  0  0  0  0  0  0  0  0
   14.5005   -4.8585   -9.1425 C   0  0  0  0  0  0  0  0  0  0  0  0
   14.2232   -4.8607   -7.6782 C   0  0  0  0  0  0  0  0  0  0  0  0
   13.1662   -3.9321   -7.2004 C   0  0  0  0  0  0  0  0  0  0  0  0
   12.9694   -3.9885   -5.7692 N   0  0  0  0  0  0  0  0  0  0  0  0
   15.9080   -4.2601  -11.4842 C   0  0  0  0  0  0  0  0  0  0  0  0
   16.9332   -3.5348  -11.5350 O   0  0  0  0  0  0  0  0  0  0  0  0
   14.7021   -3.6780  -11.8461 O   0  0  0  0  0  0  0  0  0  0  0  0
  2  1  1  0
  3  2  1  0
  3  4  1  1
  5  3  1  0
  5  6  2  0
  8  7  1  6
  8  9  1  0
  8 10  1  0
  9  5  1  0
 10 12  1  0
 11 10  2  0
 12 13  1  0
 13 14  1  1
 14 15  1  0
 16 15  1  0
 16 17  1  0
 17 18  1  0
 19 21  1  0
 19 13  1  0
 20 19  2  0
M  END
$$$$
