SAK.pdb
     RDKit          3D

 21 20  0  0  1  0  0  0  0  0999 V2000
   21.0239  -12.6976  -20.2606 O   0  0  0  0  0  0  0  0  0  0  0  0
   21.0111  -11.7770  -19.2166 C   0  0  0  0  0  0  0  0  0  0  0  0
   20.9441  -12.4913  -17.8834 C   0  0  2  0  0  0  0  0  0  0  0  0
   19.7018  -13.1889  -17.7509 N   0  0  0  0  0  0  0  0  0  0  0  0
   21.1940  -11.5557  -16.7533 C   0  0  0  0  0  0  0  0  0  0  0  0
   20.2301  -10.9008  -16.2992 O   0  0  0  0  0  0  0  0  0  0  0  0
   24.1626  -10.6136  -14.6777 C   0  0  0  0  0  0  0  0  0  0  0  0
   22.7472  -10.3754  -15.1604 C   0  0  2  0  0  0  0  0  0  0  0  0
   22.4702  -11.3766  -16.1734 N   0  0  0  0  0  0  0  0  0  0  0  0
   22.6442   -8.9891  -15.7155 C   0  0  0  0  0  0  0  0  0  0  0  0
   23.0231   -8.8013  -16.8761 O   0  0  0  0  0  0  0  0  0  0  0  0
   22.1354   -7.9241  -14.9548 N   0  0  0  0  0  0  0  0  0  0  0  0
   21.9697   -6.5673  -15.2946 C   0  0  1  0  0  0  0  0  0  0  0  0
   20.5959   -6.1591  -15.8093 C   0  0  0  0  0  0  0  0  0  0  0  0
   20.5528   -4.7660  -16.3527 C   0  0  0  0  0  0  0  0  0  0  0  0
   19.2409   -4.3423  -16.9186 C   0  0  0  0  0  0  0  0  0  0  0  0
   19.1742   -2.9718  -17.4888 C   0  0  0  0  0  0  0  0  0  0  0  0
   17.9010   -2.6787  -18.1078 N   0  0  0  0  0  0  0  0  0  0  0  0
   22.4718   -5.5516  -14.3879 C   0  0  0  0  0  0  0  0  0  0  0  0
   23.0910   -4.5230  -14.7598 O   0  0  0  0  0  0  0  0  0  0  0  0
   22.2654   -5.7081  -13.0252 O   0  0  0  0  0  0  0  0  0  0  0  0
  2  1  1  0
  3  2  1  0
  3  4  1  1
  5  3  1  0
  5  6  2  0
  8  7  1  6
  8  9  1  0
  8 10  1  0
  9  5  1  0
 10 12  1  0
 11 10  2  0
 12 13  1  0
 13 14  1  1
 14 15  1  0
 16 15  1  0
 16 17  1  0
 17 18  1  0
 19 21  1  0
 19 13  1  0
 20 19  2  0
M  END
$$$$
