SAK.pdb
     RDKit          3D

 21 20  0  0  1  0  0  0  0  0999 V2000
   17.1026   -8.1547  -16.0205 O   0  0  0  0  0  0  0  0  0  0  0  0
   18.4671   -8.0345  -16.2688 C   0  0  0  0  0  0  0  0  0  0  0  0
   19.2343   -9.1152  -15.5370 C   0  0  2  0  0  0  0  0  0  0  0  0
   18.8235  -10.4110  -15.9839 N   0  0  0  0  0  0  0  0  0  0  0  0
   19.1175   -8.9593  -14.0615 C   0  0  0  0  0  0  0  0  0  0  0  0
   18.2887   -9.6706  -13.4522 O   0  0  0  0  0  0  0  0  0  0  0  0
   20.8583   -6.9109  -11.4564 C   0  0  0  0  0  0  0  0  0  0  0  0
   19.7494   -7.8450  -11.8931 C   0  0  2  0  0  0  0  0  0  0  0  0
   19.9009   -8.0444  -13.3223 N   0  0  0  0  0  0  0  0  0  0  0  0
   18.4271   -7.2267  -11.5618 C   0  0  0  0  0  0  0  0  0  0  0  0
   17.9726   -6.3819  -12.3401 O   0  0  0  0  0  0  0  0  0  0  0  0
   17.7125   -7.5839  -10.4071 N   0  0  0  0  0  0  0  0  0  0  0  0
   16.5503   -7.0157   -9.8500 C   0  0  1  0  0  0  0  0  0  0  0  0
   15.6430   -7.9556   -9.0676 C   0  0  0  0  0  0  0  0  0  0  0  0
   14.3137   -7.3577   -8.7308 C   0  0  0  0  0  0  0  0  0  0  0  0
   13.3473   -8.2813   -8.0719 C   0  0  0  0  0  0  0  0  0  0  0  0
   11.9813   -7.7502   -7.8274 C   0  0  0  0  0  0  0  0  0  0  0  0
   11.0565   -8.7609   -7.3653 N   0  0  0  0  0  0  0  0  0  0  0  0
   16.6554   -5.7474   -9.1526 C   0  0  0  0  0  0  0  0  0  0  0  0
   17.4826   -5.5175   -8.2348 O   0  0  0  0  0  0  0  0  0  0  0  0
   15.7995   -4.7149   -9.5067 O   0  0  0  0  0  0  0  0  0  0  0  0
  2  1  1  0
  3  2  1  0
  3  4  1  6
  5  3  1  0
  5  6  2  0
  8  7  1  6
  8  9  1  0
  8 10  1  0
  9  5  1  0
 10 12  1  0
 11 10  2  0
 12 13  1  0
 13 14  1  1
 14 15  1  0
 16 15  1  0
 16 17  1  0
 17 18  1  0
 19 21  1  0
 19 13  1  0
 20 19  2  0
M  END
$$$$
