ELV.pdb
     RDKit          3D

 25 24  0  0  1  0  0  0  0  0999 V2000
   27.2703  -21.7304  -16.1828 N   0  0  0  0  0  0  0  0  0  0  0  0
   26.1949  -20.7747  -16.0793 C   0  0  1  0  0  0  0  0  0  0  0  0
   25.5951  -20.5536  -17.4214 C   0  0  0  0  0  0  0  0  0  0  0  0
   25.3437  -19.1319  -17.8023 C   0  0  0  0  0  0  0  0  0  0  0  0
   26.5478  -18.3898  -18.2126 C   0  0  0  0  0  0  0  0  0  0  0  0
   27.0656  -18.4763  -19.3461 O   0  0  0  0  0  0  0  0  0  0  0  0
   25.2211  -21.2827  -15.0794 C   0  0  0  0  0  0  0  0  0  0  0  0
   24.6330  -22.3761  -15.2300 O   0  0  0  0  0  0  0  0  0  0  0  0
   27.1805  -17.5239  -17.3053 O   0  0  0  0  0  0  0  0  0  0  0  0
   25.7052  -22.3698  -10.8990 C   0  0  0  0  0  0  0  0  0  0  0  0
   25.5280  -20.8926  -10.9617 C   0  0  2  0  0  0  0  0  0  0  0  0
   25.6618  -20.3025   -9.5647 C   0  0  0  0  0  0  0  0  0  0  0  0
   24.1687  -20.5296  -11.5219 C   0  0  0  0  0  0  0  0  0  0  0  0
   23.9649  -21.0274  -12.9095 C   0  0  2  0  0  0  0  0  0  0  0  0
   24.8844  -20.5831  -13.8941 N   0  0  0  0  0  0  0  0  0  0  0  0
   22.5806  -20.7500  -13.3944 C   0  0  0  0  0  0  0  0  0  0  0  0
   22.2249  -19.5624  -13.7114 O   0  0  0  0  0  0  0  0  0  0  0  0
   20.7638  -22.5953  -16.1227 C   0  0  0  0  0  0  0  0  0  0  0  0
   19.7973  -22.5392  -14.9646 C   0  0  2  0  0  0  0  0  0  0  0  0
   18.4013  -22.3844  -15.4422 C   0  0  0  0  0  0  0  0  0  0  0  0
   20.2277  -21.5098  -13.9561 C   0  0  2  0  0  0  0  0  0  0  0  0
   21.5943  -21.7425  -13.5345 N   0  0  0  0  0  0  0  0  0  0  0  0
   19.3007  -21.3722  -12.8254 C   0  0  0  0  0  0  0  0  0  0  0  0
   18.2145  -20.4742  -12.8226 O   0  0  0  0  0  0  0  0  0  0  0  0
   19.4258  -22.0588  -11.7789 O   0  0  0  0  0  0  0  0  0  0  0  0
  2  1  1  6
  3  2  1  0
  4  3  1  0
  5  4  1  0
  5  6  2  0
  7  2  1  0
  7  8  2  0
  9  5  1  0
 11 10  1  1
 11 12  1  0
 11 13  1  0
 14 15  1  0
 14 13  1  1
 15  7  1  0
 16 14  1  0
 17 16  2  0
 19 18  1  6
 20 19  1  0
 21 19  1  0
 21 22  1  1
 22 16  1  0
 23 24  1  0
 23 21  1  0
 25 23  2  0
M  END
$$$$
