ELV.pdb
     RDKit          3D

 25 24  0  0  1  0  0  0  0  0999 V2000
   18.8527  -12.4250  -18.2039 N   0  0  0  0  0  0  0  0  0  0  0  0
   19.8157  -11.4860  -18.7250 C   0  0  1  0  0  0  0  0  0  0  0  0
   19.2470  -10.7988  -19.9142 C   0  0  0  0  0  0  0  0  0  0  0  0
   18.9992  -11.6556  -21.1117 C   0  0  0  0  0  0  0  0  0  0  0  0
   18.5155  -10.9233  -22.2944 C   0  0  0  0  0  0  0  0  0  0  0  0
   18.3041   -9.6923  -22.3118 O   0  0  0  0  0  0  0  0  0  0  0  0
   20.1878  -10.5523  -17.6315 C   0  0  0  0  0  0  0  0  0  0  0  0
   19.3765  -10.2318  -16.7352 O   0  0  0  0  0  0  0  0  0  0  0  0
   18.2653  -11.6134  -23.4920 O   0  0  0  0  0  0  0  0  0  0  0  0
   22.4943  -10.4842  -14.0188 C   0  0  0  0  0  0  0  0  0  0  0  0
   23.4140  -10.4200  -15.1883 C   0  0  2  0  0  0  0  0  0  0  0  0
   24.8568  -10.4941  -14.7079 C   0  0  0  0  0  0  0  0  0  0  0  0
   23.2188   -9.1352  -15.9657 C   0  0  0  0  0  0  0  0  0  0  0  0
   21.8496   -9.0074  -16.5345 C   0  0  2  0  0  0  0  0  0  0  0  0
   21.4691   -9.9586  -17.5158 N   0  0  0  0  0  0  0  0  0  0  0  0
   21.6079   -7.6396  -17.0816 C   0  0  0  0  0  0  0  0  0  0  0  0
   22.2779   -7.2085  -18.0829 O   0  0  0  0  0  0  0  0  0  0  0  0
   17.9400   -5.5445  -16.5635 C   0  0  0  0  0  0  0  0  0  0  0  0
   18.9769   -5.3730  -17.6469 C   0  0  2  0  0  0  0  0  0  0  0  0
   18.7373   -6.3144  -18.7682 C   0  0  0  0  0  0  0  0  0  0  0  0
   20.3662   -5.4290  -17.0736 C   0  0  2  0  0  0  0  0  0  0  0  0
   20.6554   -6.7502  -16.5536 N   0  0  0  0  0  0  0  0  0  0  0  0
   20.6437   -4.3635  -16.1018 C   0  0  0  0  0  0  0  0  0  0  0  0
   20.8031   -4.6000  -14.7216 O   0  0  0  0  0  0  0  0  0  0  0  0
   20.7565   -3.1605  -16.4517 O   0  0  0  0  0  0  0  0  0  0  0  0
  2  1  1  1
  3  2  1  0
  4  3  1  0
  5  4  1  0
  5  6  2  0
  7  2  1  0
  7  8  2  0
  9  5  1  0
 11 10  1  1
 11 12  1  0
 11 13  1  0
 14 15  1  0
 14 13  1  6
 15  7  1  0
 16 14  1  0
 17 16  2  0
 19 18  1  1
 20 19  1  0
 21 19  1  0
 21 22  1  1
 22 16  1  0
 23 24  1  0
 23 21  1  0
 25 23  2  0
M  END
$$$$
