ELV.pdb
     RDKit          3D

 25 24  0  0  1  0  0  0  0  0999 V2000
   19.6238  -12.0677  -18.1281 N   0  0  0  0  0  0  0  0  0  0  0  0
   18.6649  -11.5203  -17.2000 C   0  0  1  0  0  0  0  0  0  0  0  0
   18.2102  -12.5858  -16.2684 C   0  0  0  0  0  0  0  0  0  0  0  0
   17.4043  -13.6874  -16.8739 C   0  0  0  0  0  0  0  0  0  0  0  0
   16.1173  -13.9392  -16.2036 C   0  0  0  0  0  0  0  0  0  0  0  0
   15.0448  -13.3867  -16.5272 O   0  0  0  0  0  0  0  0  0  0  0  0
   19.2983  -10.3688  -16.5080 C   0  0  0  0  0  0  0  0  0  0  0  0
   18.6900   -9.7087  -15.6371 O   0  0  0  0  0  0  0  0  0  0  0  0
   16.0503  -14.8467  -15.1335 O   0  0  0  0  0  0  0  0  0  0  0  0
   22.4462   -9.9619  -13.6234 C   0  0  0  0  0  0  0  0  0  0  0  0
   23.0709  -10.1491  -14.9621 C   0  0  2  0  0  0  0  0  0  0  0  0
   24.5831  -10.2412  -14.8115 C   0  0  0  0  0  0  0  0  0  0  0  0
   22.7369   -8.9966  -15.8858 C   0  0  0  0  0  0  0  0  0  0  0  0
   21.2749   -8.8531  -16.1240 C   0  0  2  0  0  0  0  0  0  0  0  0
   20.6198   -9.9313  -16.7726 N   0  0  0  0  0  0  0  0  0  0  0  0
   20.9600   -7.5943  -16.8620 C   0  0  0  0  0  0  0  0  0  0  0  0
   21.3185   -7.4443  -18.0811 O   0  0  0  0  0  0  0  0  0  0  0  0
   17.7206   -5.0148  -16.0227 C   0  0  0  0  0  0  0  0  0  0  0  0
   18.5567   -5.0949  -17.2769 C   0  0  2  0  0  0  0  0  0  0  0  0
   18.0321   -6.1290  -18.2023 C   0  0  0  0  0  0  0  0  0  0  0  0
   20.0151   -5.2427  -16.9410 C   0  0  2  0  0  0  0  0  0  0  0  0
   20.2671   -6.5125  -16.2901 N   0  0  0  0  0  0  0  0  0  0  0  0
   20.5640   -4.1035  -16.1940 C   0  0  0  0  0  0  0  0  0  0  0  0
   20.8113   -2.8448  -16.7777 O   0  0  0  0  0  0  0  0  0  0  0  0
   20.8489   -4.1881  -14.9718 O   0  0  0  0  0  0  0  0  0  0  0  0
  2  1  1  6
  3  2  1  0
  4  3  1  0
  5  4  1  0
  5  6  2  0
  7  2  1  0
  7  8  2  0
  9  5  1  0
 11 10  1  1
 11 12  1  0
 11 13  1  0
 14 15  1  0
 14 13  1  6
 15  7  1  0
 16 14  1  0
 17 16  2  0
 19 18  1  1
 20 19  1  0
 21 19  1  0
 21 22  1  1
 22 16  1  0
 23 24  1  0
 23 21  1  0
 25 23  2  0
M  END
$$$$
