ELV.pdb
     RDKit          3D

 25 24  0  0  1  0  0  0  0  0999 V2000
   17.3837  -11.6694  -16.7997 N   0  0  0  0  0  0  0  0  0  0  0  0
   18.1519  -10.5860  -17.3624 C   0  0  1  0  0  0  0  0  0  0  0  0
   17.2488   -9.4490  -17.6810 C   0  0  0  0  0  0  0  0  0  0  0  0
   16.3314   -9.6446  -18.8429 C   0  0  0  0  0  0  0  0  0  0  0  0
   15.5738   -8.4423  -19.2293 C   0  0  0  0  0  0  0  0  0  0  0  0
   16.0133   -7.5600  -19.9966 O   0  0  0  0  0  0  0  0  0  0  0  0
   19.2230  -10.2301  -16.3970 C   0  0  0  0  0  0  0  0  0  0  0  0
   19.0037  -10.1575  -15.1679 O   0  0  0  0  0  0  0  0  0  0  0  0
   14.2778   -8.2392  -18.7270 O   0  0  0  0  0  0  0  0  0  0  0  0
   25.2630  -10.3670  -15.2952 C   0  0  0  0  0  0  0  0  0  0  0  0
   23.9443   -9.7138  -15.0671 C   0  0  2  0  0  0  0  0  0  0  0  0
   23.4799   -9.9845  -13.6427 C   0  0  0  0  0  0  0  0  0  0  0  0
   22.9021  -10.2372  -16.0331 C   0  0  0  0  0  0  0  0  0  0  0  0
   21.5958   -9.5351  -15.9085 C   0  0  2  0  0  0  0  0  0  0  0  0
   20.5573   -9.9485  -16.7820 N   0  0  0  0  0  0  0  0  0  0  0  0
   21.7544   -8.0555  -16.0277 C   0  0  0  0  0  0  0  0  0  0  0  0
   22.2917   -7.5374  -17.0670 O   0  0  0  0  0  0  0  0  0  0  0  0
   19.2421   -5.2124  -14.1847 C   0  0  0  0  0  0  0  0  0  0  0  0
   20.1725   -5.0399  -15.3607 C   0  0  2  0  0  0  0  0  0  0  0  0
   19.5145   -5.4492  -16.6257 C   0  0  0  0  0  0  0  0  0  0  0  0
   21.4941   -5.7094  -15.1018 C   0  0  2  0  0  0  0  0  0  0  0  0
   21.3379   -7.1486  -15.0371 N   0  0  0  0  0  0  0  0  0  0  0  0
   22.2116   -5.1639  -13.9424 C   0  0  0  0  0  0  0  0  0  0  0  0
   22.8159   -3.8906  -13.9377 O   0  0  0  0  0  0  0  0  0  0  0  0
   22.3293   -5.8123  -12.8710 O   0  0  0  0  0  0  0  0  0  0  0  0
  2  1  1  1
  3  2  1  0
  4  3  1  0
  5  4  1  0
  5  6  2  0
  7  2  1  0
  7  8  2  0
  9  5  1  0
 11 10  1  6
 11 12  1  0
 11 13  1  0
 14 15  1  0
 14 13  1  6
 15  7  1  0
 16 14  1  0
 17 16  2  0
 19 18  1  1
 20 19  1  0
 21 19  1  0
 21 22  1  1
 22 16  1  0
 23 24  1  0
 23 21  1  0
 25 23  2  0
M  END
$$$$
