ELV.pdb
     RDKit          3D

 25 24  0  0  1  0  0  0  0  0999 V2000
   20.5463  -13.3520  -17.7934 N   0  0  0  0  0  0  0  0  0  0  0  0
   21.0812  -12.2075  -18.4893 C   0  0  1  0  0  0  0  0  0  0  0  0
   20.1001  -11.7385  -19.5028 C   0  0  0  0  0  0  0  0  0  0  0  0
   19.9069  -12.6245  -20.6891 C   0  0  0  0  0  0  0  0  0  0  0  0
   21.0918  -12.7491  -21.5549 C   0  0  0  0  0  0  0  0  0  0  0  0
   21.7768  -11.7782  -21.9403 O   0  0  0  0  0  0  0  0  0  0  0  0
   21.4213  -11.1718  -17.4805 C   0  0  0  0  0  0  0  0  0  0  0  0
   20.6821  -10.9423  -16.4981 O   0  0  0  0  0  0  0  0  0  0  0  0
   21.5083  -14.0165  -21.9946 O   0  0  0  0  0  0  0  0  0  0  0  0
   24.0881  -10.3754  -14.0905 C   0  0  0  0  0  0  0  0  0  0  0  0
   24.8258  -10.3499  -15.3838 C   0  0  2  0  0  0  0  0  0  0  0  0
   26.3164  -10.1901  -15.1183 C   0  0  0  0  0  0  0  0  0  0  0  0
   24.3554   -9.2059  -16.2575 C   0  0  0  0  0  0  0  0  0  0  0  0
   22.9244   -9.3284  -16.6473 C   0  0  2  0  0  0  0  0  0  0  0  0
   22.5898  -10.3730  -17.5468 N   0  0  0  0  0  0  0  0  0  0  0  0
   22.3923   -8.0447  -17.1928 C   0  0  0  0  0  0  0  0  0  0  0  0
   22.8828   -7.5344  -18.2588 O   0  0  0  0  0  0  0  0  0  0  0  0
   18.7934   -5.0979  -18.2426 C   0  0  0  0  0  0  0  0  0  0  0  0
   19.3689   -6.3474  -17.6211 C   0  0  2  0  0  0  0  0  0  0  0  0
   18.4427   -6.9158  -16.6111 C   0  0  0  0  0  0  0  0  0  0  0  0
   20.7645   -6.1021  -17.1173 C   0  0  2  0  0  0  0  0  0  0  0  0
   21.3446   -7.3226  -16.5943 N   0  0  0  0  0  0  0  0  0  0  0  0
   20.8599   -4.9795  -16.1753 C   0  0  0  0  0  0  0  0  0  0  0  0
   20.8517   -3.6295  -16.5799 O   0  0  0  0  0  0  0  0  0  0  0  0
   20.9559   -5.1622  -14.9345 O   0  0  0  0  0  0  0  0  0  0  0  0
  2  1  1  1
  3  2  1  0
  4  3  1  0
  5  4  1  0
  5  6  2  0
  7  2  1  0
  7  8  2  0
  9  5  1  0
 11 10  1  1
 11 12  1  0
 11 13  1  0
 14 15  1  0
 14 13  1  6
 15  7  1  0
 16 14  1  0
 17 16  2  0
 19 18  1  1
 20 19  1  0
 21 19  1  0
 21 22  1  1
 22 16  1  0
 23 24  1  0
 23 21  1  0
 25 23  2  0
M  END
$$$$
