ELV.pdb
     RDKit          3D

 25 24  0  0  1  0  0  0  0  0999 V2000
   27.4943  -22.0373  -16.2021 N   0  0  0  0  0  0  0  0  0  0  0  0
   26.6284  -20.8923  -16.0619 C   0  0  1  0  0  0  0  0  0  0  0  0
   26.0905  -20.5095  -17.3938 C   0  0  0  0  0  0  0  0  0  0  0  0
   27.0678  -19.9060  -18.3479 C   0  0  0  0  0  0  0  0  0  0  0  0
   27.7284  -18.6866  -17.8525 C   0  0  0  0  0  0  0  0  0  0  0  0
   28.9252  -18.6389  -17.4978 O   0  0  0  0  0  0  0  0  0  0  0  0
   25.5687  -21.2332  -15.0785 C   0  0  0  0  0  0  0  0  0  0  0  0
   24.7636  -22.1695  -15.2766 O   0  0  0  0  0  0  0  0  0  0  0  0
   27.0045  -17.4864  -17.7583 O   0  0  0  0  0  0  0  0  0  0  0  0
   25.6600  -22.3786  -10.6826 C   0  0  0  0  0  0  0  0  0  0  0  0
   25.8215  -20.9082  -10.8542 C   0  0  2  0  0  0  0  0  0  0  0  0
   26.0233  -20.2545   -9.4941 C   0  0  0  0  0  0  0  0  0  0  0  0
   24.6039  -20.2997  -11.5177 C   0  0  0  0  0  0  0  0  0  0  0  0
   24.3801  -20.8145  -12.8960 C   0  0  2  0  0  0  0  0  0  0  0  0
   25.3860  -20.5382  -13.8573 N   0  0  0  0  0  0  0  0  0  0  0  0
   23.0657  -20.3654  -13.4430 C   0  0  0  0  0  0  0  0  0  0  0  0
   22.8609  -19.1339  -13.7234 O   0  0  0  0  0  0  0  0  0  0  0  0
   19.2679  -21.0157  -16.2777 C   0  0  0  0  0  0  0  0  0  0  0  0
   20.5502  -21.4774  -15.6289 C   0  0  2  0  0  0  0  0  0  0  0  0
   20.6510  -22.9574  -15.6410 C   0  0  0  0  0  0  0  0  0  0  0  0
   20.7193  -20.8533  -14.2711 C   0  0  2  0  0  0  0  0  0  0  0  0
   21.9876  -21.2356  -13.6835 N   0  0  0  0  0  0  0  0  0  0  0  0
   19.5831  -21.0888  -13.3709 C   0  0  0  0  0  0  0  0  0  0  0  0
   18.3446  -20.4292  -13.5024 O   0  0  0  0  0  0  0  0  0  0  0  0
   19.6520  -21.9053  -12.4166 O   0  0  0  0  0  0  0  0  0  0  0  0
  2  1  1  6
  3  2  1  0
  4  3  1  0
  5  4  1  0
  5  6  2  0
  7  2  1  0
  7  8  2  0
  9  5  1  0
 11 10  1  1
 11 12  1  0
 11 13  1  0
 14 15  1  0
 14 13  1  1
 15  7  1  0
 16 14  1  0
 17 16  2  0
 19 18  1  1
 20 19  1  0
 21 19  1  0
 21 22  1  1
 22 16  1  0
 23 24  1  0
 23 21  1  0
 25 23  2  0
M  END
$$$$
