ELV.pdb
     RDKit          3D

 25 24  0  0  1  0  0  0  0  0999 V2000
   18.5695  -20.9752  -10.7433 N   0  0  0  0  0  0  0  0  0  0  0  0
   19.2494  -21.6674  -11.8105 C   0  0  1  0  0  0  0  0  0  0  0  0
   18.3958  -21.6658  -13.0275 C   0  0  0  0  0  0  0  0  0  0  0  0
   17.2284  -22.5968  -13.0121 C   0  0  0  0  0  0  0  0  0  0  0  0
   17.5795  -24.0094  -12.7885 C   0  0  0  0  0  0  0  0  0  0  0  0
   17.0381  -24.7326  -11.9257 O   0  0  0  0  0  0  0  0  0  0  0  0
   20.5667  -21.0136  -12.0186 C   0  0  0  0  0  0  0  0  0  0  0  0
   20.6620  -19.7958  -12.2871 O   0  0  0  0  0  0  0  0  0  0  0  0
   18.5764  -24.6160  -13.5705 O   0  0  0  0  0  0  0  0  0  0  0  0
   26.6964  -21.8316  -11.1850 C   0  0  0  0  0  0  0  0  0  0  0  0
   25.5507  -21.0827  -11.7716 C   0  0  2  0  0  0  0  0  0  0  0  0
   25.5004  -19.6808  -11.1799 C   0  0  0  0  0  0  0  0  0  0  0  0
   24.2387  -21.7841  -11.4890 C   0  0  0  0  0  0  0  0  0  0  0  0
   23.0803  -21.1326  -12.1586 C   0  0  2  0  0  0  0  0  0  0  0  0
   21.8015  -21.7032  -11.9316 N   0  0  0  0  0  0  0  0  0  0  0  0
   23.2923  -21.0157  -13.6317 C   0  0  0  0  0  0  0  0  0  0  0  0
   23.1900  -22.0412  -14.3901 O   0  0  0  0  0  0  0  0  0  0  0  0
   21.6629  -19.2869  -16.9613 C   0  0  0  0  0  0  0  0  0  0  0  0
   22.8072  -18.6186  -16.2385 C   0  0  2  0  0  0  0  0  0  0  0  0
   23.4273  -17.5658  -17.0798 C   0  0  0  0  0  0  0  0  0  0  0  0
   23.7747  -19.6395  -15.7059 C   0  0  2  0  0  0  0  0  0  0  0  0
   23.6106  -19.8070  -14.2760 N   0  0  0  0  0  0  0  0  0  0  0  0
   25.1687  -19.3844  -16.0910 C   0  0  0  0  0  0  0  0  0  0  0  0
   25.7729  -19.9581  -17.2277 O   0  0  0  0  0  0  0  0  0  0  0  0
   25.9142  -18.6275  -15.4175 O   0  0  0  0  0  0  0  0  0  0  0  0
  2  1  1  1
  3  2  1  0
  4  3  1  0
  5  4  1  0
  5  6  2  0
  7  2  1  0
  7  8  2  0
  9  5  1  0
 11 10  1  1
 11 12  1  0
 11 13  1  0
 14 15  1  0
 14 13  1  6
 15  7  1  0
 16 14  1  0
 17 16  2  0
 19 18  1  6
 20 19  1  0
 21 19  1  0
 21 22  1  1
 22 16  1  0
 23 24  1  0
 23 21  1  0
 25 23  2  0
M  END
$$$$
