LAG.pdb
     RDKit          3D

 18 17  0  0  1  0  0  0  0  0999 V2000
    5.6724  -12.7164   26.0562 C   0  0  0  0  0  0  0  0  0  0  0  0
    7.1189  -13.1967   26.2160 C   0  0  1  0  0  0  0  0  0  0  0  0
    7.8277  -12.1928   27.0663 C   0  0  0  0  0  0  0  0  0  0  0  0
    7.1473  -14.5942   26.7512 C   0  0  0  0  0  0  0  0  0  0  0  0
    6.5886  -15.5615   25.7485 C   0  0  2  0  0  0  0  0  0  0  0  0
    6.3179  -16.8101   26.4207 N   0  0  0  0  0  0  0  0  0  0  0  0
    7.4815  -15.7409   24.5768 C   0  0  0  0  0  0  0  0  0  0  0  0
    8.5898  -16.3375   24.6905 O   0  0  0  0  0  0  0  0  0  0  0  0
    7.4412  -14.8241   20.8850 C   0  0  0  0  0  0  0  0  0  0  0  0
    8.0049  -15.4169   22.1346 C   0  0  2  0  0  0  0  0  0  0  0  0
    7.1527  -15.2626   23.2799 N   0  0  0  0  0  0  0  0  0  0  0  0
    9.3679  -14.8876   22.3577 C   0  0  0  0  0  0  0  0  0  0  0  0
    9.5293  -13.6543   22.5446 O   0  0  0  0  0  0  0  0  0  0  0  0
   10.4960  -15.7499   22.3640 N   0  0  0  0  0  0  0  0  0  0  0  0
   11.8453  -15.3021   22.5360 C   0  0  0  0  0  0  0  0  0  0  0  0
   12.8224  -16.4380   22.4992 C   0  0  0  0  0  0  0  0  0  0  0  0
   12.4012  -17.6430   23.0471 O   0  0  0  0  0  0  0  0  0  0  0  0
   13.9537  -16.3252   22.0082 O   0  0  0  0  0  0  0  0  0  0  0  0
  2  3  1  1
  2  1  1  0
  4  2  1  0
  5  7  1  0
  5  6  1  1
  5  4  1  0
  7  8  2  0
 10  9  1  6
 10 12  1  0
 11  7  1  0
 11 10  1  0
 12 13  2  0
 12 14  1  0
 14 15  1  0
 15 16  1  0
 16 18  2  0
 16 17  1  0
M  END
$$$$
