LAG.pdb
     RDKit          3D

 18 17  0  0  1  0  0  0  0  0999 V2000
    7.1261  -11.8421   27.4180 C   0  0  0  0  0  0  0  0  0  0  0  0
    6.4935  -12.9901   26.6239 C   0  0  1  0  0  0  0  0  0  0  0  0
    5.6985  -12.3776   25.5167 C   0  0  0  0  0  0  0  0  0  0  0  0
    7.5465  -13.9534   26.1729 C   0  0  0  0  0  0  0  0  0  0  0  0
    6.9474  -15.0461   25.3359 C   0  0  2  0  0  0  0  0  0  0  0  0
    6.2736  -15.9747   26.2122 N   0  0  0  0  0  0  0  0  0  0  0  0
    7.9545  -15.7189   24.4783 C   0  0  0  0  0  0  0  0  0  0  0  0
    8.8450  -16.4605   24.9826 O   0  0  0  0  0  0  0  0  0  0  0  0
    8.7291  -15.9723   20.7649 C   0  0  0  0  0  0  0  0  0  0  0  0
    8.9947  -16.1447   22.2244 C   0  0  2  0  0  0  0  0  0  0  0  0
    7.9800  -15.5741   23.0652 N   0  0  0  0  0  0  0  0  0  0  0  0
   10.3500  -15.6432   22.5394 C   0  0  0  0  0  0  0  0  0  0  0  0
   10.5931  -14.4132   22.4393 O   0  0  0  0  0  0  0  0  0  0  0  0
   11.3802  -16.5287   22.9528 N   0  0  0  0  0  0  0  0  0  0  0  0
   12.7272  -16.1217   23.2184 C   0  0  0  0  0  0  0  0  0  0  0  0
   13.6632  -17.2903   23.2878 C   0  0  0  0  0  0  0  0  0  0  0  0
   14.0070  -17.8884   22.0821 O   0  0  0  0  0  0  0  0  0  0  0  0
   14.1171  -17.7149   24.3590 O   0  0  0  0  0  0  0  0  0  0  0  0
  2  3  1  6
  2  1  1  0
  4  2  1  0
  5  7  1  0
  5  6  1  1
  5  4  1  0
  7  8  2  0
 10  9  1  6
 10 12  1  0
 11  7  1  0
 11 10  1  0
 12 13  2  0
 12 14  1  0
 14 15  1  0
 15 16  1  0
 16 18  2  0
 16 17  1  0
M  END
$$$$
