LAG.pdb
     RDKit          3D

 18 17  0  0  1  0  0  0  0  0999 V2000
    6.9125  -11.8765   27.4439 C   0  0  0  0  0  0  0  0  0  0  0  0
    6.4242  -13.0595   26.6009 C   0  0  1  0  0  0  0  0  0  0  0  0
    5.7181  -12.4943   25.4113 C   0  0  0  0  0  0  0  0  0  0  0  0
    7.5656  -13.9698   26.2708 C   0  0  0  0  0  0  0  0  0  0  0  0
    7.1015  -15.1262   25.4336 C   0  0  2  0  0  0  0  0  0  0  0  0
    6.3941  -16.0519   26.2862 N   0  0  0  0  0  0  0  0  0  0  0  0
    8.2162  -15.7799   24.7040 C   0  0  0  0  0  0  0  0  0  0  0  0
    9.1070  -16.4271   25.3245 O   0  0  0  0  0  0  0  0  0  0  0  0
    9.3324  -16.1740   21.0911 C   0  0  0  0  0  0  0  0  0  0  0  0
    9.4868  -16.2264   22.5757 C   0  0  2  0  0  0  0  0  0  0  0  0
    8.3489  -15.7204   23.2907 N   0  0  0  0  0  0  0  0  0  0  0  0
   10.7499  -15.5608   22.9618 C   0  0  0  0  0  0  0  0  0  0  0  0
   10.7497  -14.3264   23.2033 O   0  0  0  0  0  0  0  0  0  0  0  0
   11.9618  -16.2936   23.0639 N   0  0  0  0  0  0  0  0  0  0  0  0
   13.2134  -15.7204   23.4584 C   0  0  0  0  0  0  0  0  0  0  0  0
   14.3291  -16.7200   23.4079 C   0  0  0  0  0  0  0  0  0  0  0  0
   13.9962  -18.0090   23.0114 O   0  0  0  0  0  0  0  0  0  0  0  0
   15.4961  -16.4281   23.7020 O   0  0  0  0  0  0  0  0  0  0  0  0
  2  3  1  6
  2  1  1  0
  4  2  1  0
  5  7  1  0
  5  6  1  1
  5  4  1  0
  7  8  2  0
 10  9  1  6
 10 12  1  0
 11  7  1  0
 11 10  1  0
 12 13  2  0
 12 14  1  0
 14 15  1  0
 15 16  1  0
 16 18  2  0
 16 17  1  0
M  END
$$$$
