LAG.pdb
     RDKit          3D

 18 17  0  0  1  0  0  0  0  0999 V2000
    7.2253  -11.9557   19.6305 C   0  0  0  0  0  0  0  0  0  0  0  0
    7.2867  -13.4672   19.8755 C   0  0  1  0  0  0  0  0  0  0  0  0
    8.5744  -13.9579   19.2972 C   0  0  0  0  0  0  0  0  0  0  0  0
    7.1058  -13.7665   21.3308 C   0  0  0  0  0  0  0  0  0  0  0  0
    7.0409  -15.2475   21.5674 C   0  0  2  0  0  0  0  0  0  0  0  0
    5.9018  -15.7742   20.8539 N   0  0  0  0  0  0  0  0  0  0  0  0
    7.0015  -15.5887   23.0112 C   0  0  0  0  0  0  0  0  0  0  0  0
    6.2942  -14.9198   23.8172 O   0  0  0  0  0  0  0  0  0  0  0  0
    7.5011  -18.4030   25.2809 C   0  0  0  0  0  0  0  0  0  0  0  0
    7.7779  -16.9687   24.9697 C   0  0  2  0  0  0  0  0  0  0  0  0
    7.7414  -16.6671   23.5662 N   0  0  0  0  0  0  0  0  0  0  0  0
    9.0475  -16.5633   25.6112 C   0  0  0  0  0  0  0  0  0  0  0  0
    9.2136  -16.7720   26.8403 O   0  0  0  0  0  0  0  0  0  0  0  0
   10.0809  -15.9424   24.8609 N   0  0  0  0  0  0  0  0  0  0  0  0
   11.3854  -15.6573   25.3782 C   0  0  0  0  0  0  0  0  0  0  0  0
   12.3372  -16.7940   25.1579 C   0  0  0  0  0  0  0  0  0  0  0  0
   12.7518  -17.0179   23.8511 O   0  0  0  0  0  0  0  0  0  0  0  0
   12.7441  -17.5085   26.0840 O   0  0  0  0  0  0  0  0  0  0  0  0
  2  3  1  1
  2  1  1  0
  4  2  1  0
  5  7  1  0
  5  6  1  6
  5  4  1  0
  7  8  2  0
 10  9  1  6
 10 12  1  0
 11  7  1  0
 11 10  1  0
 12 13  2  0
 12 14  1  0
 14 15  1  0
 15 16  1  0
 16 18  2  0
 16 17  1  0
M  END
$$$$
