LAG.pdb
     RDKit          3D

 18 17  0  0  1  0  0  0  0  0999 V2000
    7.1576  -11.6289   27.3969 C   0  0  0  0  0  0  0  0  0  0  0  0
    6.5305  -12.9410   26.9134 C   0  0  1  0  0  0  0  0  0  0  0  0
    5.2551  -12.5923   26.2171 C   0  0  0  0  0  0  0  0  0  0  0  0
    7.5062  -13.7066   26.0755 C   0  0  0  0  0  0  0  0  0  0  0  0
    6.8696  -14.9428   25.5099 C   0  0  2  0  0  0  0  0  0  0  0  0
    6.7424  -15.9158   26.5688 N   0  0  0  0  0  0  0  0  0  0  0  0
    7.6148  -15.4806   24.3446 C   0  0  0  0  0  0  0  0  0  0  0  0
    8.6273  -16.2194   24.5063 O   0  0  0  0  0  0  0  0  0  0  0  0
    7.4178  -15.2078   20.5557 C   0  0  0  0  0  0  0  0  0  0  0  0
    7.9780  -15.6728   21.8598 C   0  0  2  0  0  0  0  0  0  0  0  0
    7.2438  -15.2039   23.0013 N   0  0  0  0  0  0  0  0  0  0  0  0
    9.4166  -15.3355   21.9244 C   0  0  0  0  0  0  0  0  0  0  0  0
    9.8262  -14.2698   21.3966 O   0  0  0  0  0  0  0  0  0  0  0  0
   10.3416  -16.1959   22.5727 N   0  0  0  0  0  0  0  0  0  0  0  0
   11.7401  -15.9163   22.7023 C   0  0  0  0  0  0  0  0  0  0  0  0
   12.5858  -16.9775   22.0660 C   0  0  0  0  0  0  0  0  0  0  0  0
   13.6634  -16.5447   21.3038 O   0  0  0  0  0  0  0  0  0  0  0  0
   12.3499  -18.1855   22.2028 O   0  0  0  0  0  0  0  0  0  0  0  0
  2  3  1  6
  2  1  1  0
  4  2  1  0
  5  7  1  0
  5  6  1  1
  5  4  1  0
  7  8  2  0
 10  9  1  6
 10 12  1  0
 11  7  1  0
 11 10  1  0
 12 13  2  0
 12 14  1  0
 14 15  1  0
 15 16  1  0
 16 18  2  0
 16 17  1  0
M  END
$$$$
