LAG.pdb
     RDKit          3D

 18 17  0  0  1  0  0  0  0  0999 V2000
    7.3632  -12.6367   18.9032 C   0  0  0  0  0  0  0  0  0  0  0  0
    8.2397  -13.5186   19.7991 C   0  0  1  0  0  0  0  0  0  0  0  0
    9.4918  -12.7543   20.0844 C   0  0  0  0  0  0  0  0  0  0  0  0
    7.4795  -13.9417   21.0169 C   0  0  0  0  0  0  0  0  0  0  0  0
    8.3214  -14.8239   21.8923 C   0  0  2  0  0  0  0  0  0  0  0  0
    8.8148  -15.9213   21.0945 N   0  0  0  0  0  0  0  0  0  0  0  0
    7.5886  -15.2934   23.0944 C   0  0  0  0  0  0  0  0  0  0  0  0
    6.9656  -14.4796   23.8338 O   0  0  0  0  0  0  0  0  0  0  0  0
    6.0659  -18.3693   24.4339 C   0  0  0  0  0  0  0  0  0  0  0  0
    6.8707  -17.1316   24.6594 C   0  0  2  0  0  0  0  0  0  0  0  0
    7.5427  -16.6597   23.4813 N   0  0  0  0  0  0  0  0  0  0  0  0
    7.7901  -17.3444   25.7983 C   0  0  0  0  0  0  0  0  0  0  0  0
    7.3301  -17.7469   26.8975 O   0  0  0  0  0  0  0  0  0  0  0  0
    9.1831  -17.1014   25.6696 N   0  0  0  0  0  0  0  0  0  0  0  0
   10.1224  -17.2384   26.7418 C   0  0  0  0  0  0  0  0  0  0  0  0
   10.5655  -18.6589   26.9215 C   0  0  0  0  0  0  0  0  0  0  0  0
   11.5464  -18.8916   27.8771 O   0  0  0  0  0  0  0  0  0  0  0  0
   10.0911  -19.5915   26.2590 O   0  0  0  0  0  0  0  0  0  0  0  0
  2  3  1  1
  2  1  1  0
  4  2  1  0
  5  7  1  0
  5  6  1  6
  5  4  1  0
  7  8  2  0
 10  9  1  6
 10 12  1  0
 11  7  1  0
 11 10  1  0
 12 13  2  0
 12 14  1  0
 14 15  1  0
 15 16  1  0
 16 18  2  0
 16 17  1  0
M  END
$$$$
