LAG.pdb
     RDKit          3D

 18 17  0  0  1  0  0  0  0  0999 V2000
    7.8009  -12.2891   27.0009 C   0  0  0  0  0  0  0  0  0  0  0  0
    7.0304  -13.4571   26.3757 C   0  0  1  0  0  0  0  0  0  0  0  0
    6.5936  -13.0218   25.0145 C   0  0  0  0  0  0  0  0  0  0  0  0
    7.8649  -14.6995   26.3922 C   0  0  0  0  0  0  0  0  0  0  0  0
    7.2053  -15.7963   25.6077 C   0  0  2  0  0  0  0  0  0  0  0  0
    6.3547  -16.5476   26.5001 N   0  0  0  0  0  0  0  0  0  0  0  0
    8.1878  -16.6636   24.9114 C   0  0  0  0  0  0  0  0  0  0  0  0
    8.8695  -17.5148   25.5501 O   0  0  0  0  0  0  0  0  0  0  0  0
    9.0102  -17.5364   21.3272 C   0  0  0  0  0  0  0  0  0  0  0  0
    9.2700  -17.5023   22.7975 C   0  0  2  0  0  0  0  0  0  0  0  0
    8.4186  -16.5926   23.5113 N   0  0  0  0  0  0  0  0  0  0  0  0
   10.7077  -17.2502   23.0363 C   0  0  0  0  0  0  0  0  0  0  0  0
   11.5513  -18.1245   22.7109 O   0  0  0  0  0  0  0  0  0  0  0  0
   11.1498  -16.0370   23.6271 N   0  0  0  0  0  0  0  0  0  0  0  0
   12.5244  -15.7213   23.8750 C   0  0  0  0  0  0  0  0  0  0  0  0
   13.2972  -15.5422   22.6034 C   0  0  0  0  0  0  0  0  0  0  0  0
   14.5911  -15.0511   22.7221 O   0  0  0  0  0  0  0  0  0  0  0  0
   12.8209  -15.8137   21.4930 O   0  0  0  0  0  0  0  0  0  0  0  0
  2  3  1  6
  2  1  1  0
  4  2  1  0
  5  7  1  0
  5  6  1  1
  5  4  1  0
  7  8  2  0
 10  9  1  6
 10 12  1  0
 11  7  1  0
 11 10  1  0
 12 13  2  0
 12 14  1  0
 14 15  1  0
 15 16  1  0
 16 18  2  0
 16 17  1  0
M  END
$$$$
