LAG.pdb
     RDKit          3D

 18 17  0  0  1  0  0  0  0  0999 V2000
    6.4464  -13.1401   20.8659 C   0  0  0  0  0  0  0  0  0  0  0  0
    7.7127  -13.8137   20.3262 C   0  0  1  0  0  0  0  0  0  0  0  0
    8.1164  -13.0741   19.0921 C   0  0  0  0  0  0  0  0  0  0  0  0
    8.7656  -13.8700   21.3886 C   0  0  0  0  0  0  0  0  0  0  0  0
    8.2911  -14.6670   22.5689 C   0  0  2  0  0  0  0  0  0  0  0  0
    6.9189  -15.0516   22.3380 N   0  0  0  0  0  0  0  0  0  0  0  0
    8.4577  -13.9357   23.8494 C   0  0  0  0  0  0  0  0  0  0  0  0
    9.5712  -13.4296   24.1678 O   0  0  0  0  0  0  0  0  0  0  0  0
    6.2137  -12.4982   26.5144 C   0  0  0  0  0  0  0  0  0  0  0  0
    7.5181  -13.0052   25.9929 C   0  0  2  0  0  0  0  0  0  0  0  0
    7.3971  -13.7622   24.7787 N   0  0  0  0  0  0  0  0  0  0  0  0
    8.2204  -13.7456   27.0634 C   0  0  0  0  0  0  0  0  0  0  0  0
    8.4823  -13.1648   28.1478 O   0  0  0  0  0  0  0  0  0  0  0  0
    8.6033  -15.1014   26.8856 N   0  0  0  0  0  0  0  0  0  0  0  0
    9.1930  -15.9081   27.9113 C   0  0  0  0  0  0  0  0  0  0  0  0
   10.5747  -16.3593   27.5454 C   0  0  0  0  0  0  0  0  0  0  0  0
   11.2159  -17.2018   28.4446 O   0  0  0  0  0  0  0  0  0  0  0  0
   11.1322  -16.0079   26.4969 O   0  0  0  0  0  0  0  0  0  0  0  0
  2  3  1  6
  2  1  1  0
  4  2  1  0
  5  7  1  0
  5  6  1  6
  5  4  1  0
  7  8  2  0
 10  9  1  1
 10 12  1  0
 11  7  1  0
 11 10  1  0
 12 13  2  0
 12 14  1  0
 14 15  1  0
 15 16  1  0
 16 18  2  0
 16 17  1  0
M  END
$$$$
