LAG.pdb
     RDKit          3D

 18 17  0  0  1  0  0  0  0  0999 V2000
    7.9076  -12.1779   27.5328 C   0  0  0  0  0  0  0  0  0  0  0  0
    6.9336  -13.2142   26.9619 C   0  0  1  0  0  0  0  0  0  0  0  0
    5.8101  -12.4625   26.3248 C   0  0  0  0  0  0  0  0  0  0  0  0
    7.6516  -14.1532   26.0437 C   0  0  0  0  0  0  0  0  0  0  0  0
    6.7040  -15.1635   25.4653 C   0  0  2  0  0  0  0  0  0  0  0  0
    6.5028  -16.2104   26.4388 N   0  0  0  0  0  0  0  0  0  0  0  0
    7.1715  -15.6964   24.1615 C   0  0  0  0  0  0  0  0  0  0  0  0
    7.3756  -16.9333   24.0014 O   0  0  0  0  0  0  0  0  0  0  0  0
    7.7725  -14.3333   20.6683 C   0  0  0  0  0  0  0  0  0  0  0  0
    7.8067  -15.3658   21.7469 C   0  0  2  0  0  0  0  0  0  0  0  0
    7.4139  -14.8660   23.0345 N   0  0  0  0  0  0  0  0  0  0  0  0
    9.1360  -16.0142   21.7639 C   0  0  0  0  0  0  0  0  0  0  0  0
    9.5299  -16.6440   20.7489 O   0  0  0  0  0  0  0  0  0  0  0  0
    9.9736  -15.9364   22.9078 N   0  0  0  0  0  0  0  0  0  0  0  0
   11.2487  -16.5798   23.0119 C   0  0  0  0  0  0  0  0  0  0  0  0
   12.3414  -15.7640   22.3899 C   0  0  0  0  0  0  0  0  0  0  0  0
   13.5824  -15.8026   23.0128 O   0  0  0  0  0  0  0  0  0  0  0  0
   12.1639  -15.0832   21.3707 O   0  0  0  0  0  0  0  0  0  0  0  0
  2  3  1  6
  2  1  1  0
  4  2  1  0
  5  7  1  0
  5  6  1  1
  5  4  1  0
  7  8  2  0
 10  9  1  6
 10 12  1  0
 11  7  1  0
 11 10  1  0
 12 13  2  0
 12 14  1  0
 14 15  1  0
 15 16  1  0
 16 18  2  0
 16 17  1  0
M  END
$$$$
