LAG.pdb
     RDKit          3D

 18 17  0  0  1  0  0  0  0  0999 V2000
    7.0094  -14.0889   19.1486 C   0  0  0  0  0  0  0  0  0  0  0  0
    8.1497  -13.4808   19.9723 C   0  0  1  0  0  0  0  0  0  0  0  0
    8.2686  -12.0457   19.5726 C   0  0  0  0  0  0  0  0  0  0  0  0
    7.9111  -13.7005   21.4334 C   0  0  0  0  0  0  0  0  0  0  0  0
    7.7918  -15.1650   21.7407 C   0  0  2  0  0  0  0  0  0  0  0  0
    6.4114  -15.5547   21.5769 N   0  0  0  0  0  0  0  0  0  0  0  0
    8.3111  -15.5046   23.0888 C   0  0  0  0  0  0  0  0  0  0  0  0
    7.7010  -15.1341   24.1318 O   0  0  0  0  0  0  0  0  0  0  0  0
    9.7802  -17.9907   24.9937 C   0  0  0  0  0  0  0  0  0  0  0  0
   10.0326  -16.5776   24.5816 C   0  0  2  0  0  0  0  0  0  0  0  0
    9.5028  -16.2523   23.2872 N   0  0  0  0  0  0  0  0  0  0  0  0
   11.4768  -16.2816   24.7017 C   0  0  0  0  0  0  0  0  0  0  0  0
   12.0648  -16.5025   25.7913 O   0  0  0  0  0  0  0  0  0  0  0  0
   12.2089  -15.7523   23.6062 N   0  0  0  0  0  0  0  0  0  0  0  0
   13.5761  -15.3335   23.6843 C   0  0  0  0  0  0  0  0  0  0  0  0
   14.5252  -16.4720   23.4619 C   0  0  0  0  0  0  0  0  0  0  0  0
   15.8114  -16.1429   23.0532 O   0  0  0  0  0  0  0  0  0  0  0  0
   14.1956  -17.6539   23.6298 O   0  0  0  0  0  0  0  0  0  0  0  0
  2  3  1  1
  2  1  1  0
  4  2  1  0
  5  7  1  0
  5  6  1  1
  5  4  1  0
  7  8  2  0
 10  9  1  6
 10 12  1  0
 11  7  1  0
 11 10  1  0
 12 13  2  0
 12 14  1  0
 14 15  1  0
 15 16  1  0
 16 18  2  0
 16 17  1  0
M  END
$$$$
