TNP.pdb
     RDKit          3D

 23 23  0  0  1  0  0  0  0  0999 V2000
   17.6867  -20.6558  -14.0779 C   0  0  0  0  0  0  0  0  0  0  0  0
   18.9986  -21.3519  -13.8737 C   0  0  1  0  0  0  0  0  0  0  0  0
   19.0807  -22.5691  -14.5536 O   0  0  0  0  0  0  0  0  0  0  0  0
   20.1947  -20.4889  -14.1360 C   0  0  2  0  0  0  0  0  0  0  0  0
   20.2181  -20.0615  -15.4967 N   0  0  0  0  0  0  0  0  0  0  0  0
   21.4705  -21.0869  -13.6821 C   0  0  0  0  0  0  0  0  0  0  0  0
   21.7242  -21.0923  -12.4506 O   0  0  0  0  0  0  0  0  0  0  0  0
   23.2705  -24.7496  -13.7506 N   0  0  0  0  0  0  0  0  0  0  0  0
   23.9742  -24.4271  -14.9306 C   0  0  0  0  0  0  0  0  0  0  0  0
   24.3383  -25.3673  -15.6768 O   0  0  0  0  0  0  0  0  0  0  0  0
   24.2461  -23.0203  -15.2293 C   0  0  0  0  0  0  0  0  0  0  0  0
   23.7677  -22.0487  -14.1770 C   0  0  2  0  0  0  0  0  0  0  0  0
   22.4181  -21.6533  -14.5745 N   0  0  0  0  0  0  0  0  0  0  0  0
   24.6871  -20.8794  -14.2067 C   0  0  0  0  0  0  0  0  0  0  0  0
   24.2950  -19.8715  -14.8699 O   0  0  0  0  0  0  0  0  0  0  0  0
   25.9207  -20.8181  -13.5689 N   0  0  0  0  0  0  0  0  0  0  0  0
   26.5118  -21.8369  -12.7270 C   0  0  0  0  0  0  0  0  0  0  0  0
   27.2769  -21.0617  -11.6538 C   0  0  0  0  0  0  0  0  0  0  0  0
   27.5796  -19.7292  -12.2791 C   0  0  0  0  0  0  0  0  0  0  0  0
   26.8621  -19.7267  -13.6083 C   0  0  1  0  0  0  0  0  0  0  0  0
   27.7919  -19.8783  -14.7466 C   0  0  0  0  0  0  0  0  0  0  0  0
   27.8548  -20.9875  -15.3235 O   0  0  0  0  0  0  0  0  0  0  0  0
   28.5546  -18.7924  -15.1300 O   0  0  0  0  0  0  0  0  0  0  0  0
  2  1  1  6
  2  3  1  0
  4  6  1  0
  4  2  1  0
  4  5  1  6
  6 13  1  0
  7  6  2  0
  8  9  1  0
  9 11  1  0
 10  9  2  0
 12 11  1  6
 12 13  1  0
 12 14  1  0
 14 16  1  0
 15 14  2  0
 16 20  1  0
 16 17  1  0
 17 18  1  0
 19 18  1  0
 20 21  1  6
 20 19  1  0
 21 23  1  0
 22 21  2  0
M  END
$$$$
