TNP.pdb
     RDKit          3D

 23 23  0  0  1  0  0  0  0  0999 V2000
   16.4015  -20.7135  -17.9103 C   0  0  0  0  0  0  0  0  0  0  0  0
   15.2743  -20.8409  -16.9304 C   0  0  1  0  0  0  0  0  0  0  0  0
   14.0635  -21.1860  -17.5350 O   0  0  0  0  0  0  0  0  0  0  0  0
   15.5803  -21.7238  -15.7595 C   0  0  2  0  0  0  0  0  0  0  0  0
   14.4337  -21.8652  -14.9227 N   0  0  0  0  0  0  0  0  0  0  0  0
   16.8044  -21.3336  -15.0243 C   0  0  0  0  0  0  0  0  0  0  0  0
   16.9812  -20.1172  -14.7594 O   0  0  0  0  0  0  0  0  0  0  0  0
   17.6731  -22.2872  -11.5020 N   0  0  0  0  0  0  0  0  0  0  0  0
   18.6758  -23.2303  -11.8129 C   0  0  0  0  0  0  0  0  0  0  0  0
   18.9019  -24.1463  -10.9863 O   0  0  0  0  0  0  0  0  0  0  0  0
   19.4021  -23.0989  -13.0768 C   0  0  0  0  0  0  0  0  0  0  0  0
   19.0128  -21.8983  -13.9056 C   0  0  2  0  0  0  0  0  0  0  0  0
   17.7854  -22.2706  -14.6061 N   0  0  0  0  0  0  0  0  0  0  0  0
   20.1160  -21.6549  -14.8736 C   0  0  0  0  0  0  0  0  0  0  0  0
   20.0105  -22.2243  -16.0025 O   0  0  0  0  0  0  0  0  0  0  0  0
   21.2308  -20.8611  -14.6297 N   0  0  0  0  0  0  0  0  0  0  0  0
   21.5822  -20.2228  -13.3787 C   0  0  0  0  0  0  0  0  0  0  0  0
   22.2318  -18.8992  -13.7841 C   0  0  0  0  0  0  0  0  0  0  0  0
   22.7524  -19.1321  -15.1742 C   0  0  0  0  0  0  0  0  0  0  0  0
   22.2622  -20.5044  -15.5719 C   0  0  1  0  0  0  0  0  0  0  0  0
   23.3457  -21.5090  -15.5670 C   0  0  0  0  0  0  0  0  0  0  0  0
   24.2765  -21.3885  -16.3953 O   0  0  0  0  0  0  0  0  0  0  0  0
   23.2902  -22.5408  -14.6503 O   0  0  0  0  0  0  0  0  0  0  0  0
  2  1  1  6
  2  3  1  0
  4  6  1  0
  4  2  1  0
  4  5  1  1
  6 13  1  0
  7  6  2  0
  8  9  1  0
  9 11  1  0
 10  9  2  0
 12 11  1  1
 12 13  1  0
 12 14  1  0
 14 16  1  0
 15 14  2  0
 16 20  1  0
 16 17  1  0
 17 18  1  0
 19 18  1  0
 20 21  1  1
 20 19  1  0
 21 23  1  0
 22 21  2  0
M  END
$$$$
