TNP.pdb
     RDKit          3D

 23 23  0  0  1  0  0  0  0  0999 V2000
   19.3289  -21.7435  -12.9156 C   0  0  0  0  0  0  0  0  0  0  0  0
   20.7234  -21.2380  -12.6984 C   0  0  1  0  0  0  0  0  0  0  0  0
   21.5323  -22.1487  -12.0149 O   0  0  0  0  0  0  0  0  0  0  0  0
   21.3887  -20.7295  -13.9405 C   0  0  2  0  0  0  0  0  0  0  0  0
   21.5288  -21.7753  -14.9004 N   0  0  0  0  0  0  0  0  0  0  0  0
   22.6458  -19.9917  -13.6823 C   0  0  0  0  0  0  0  0  0  0  0  0
   22.5791  -18.8851  -13.0888 O   0  0  0  0  0  0  0  0  0  0  0  0
   25.8477  -22.0597  -11.5939 N   0  0  0  0  0  0  0  0  0  0  0  0
   26.2542  -20.8080  -12.1032 C   0  0  0  0  0  0  0  0  0  0  0  0
   26.6178  -19.9279  -11.2866 O   0  0  0  0  0  0  0  0  0  0  0  0
   26.2338  -20.5935  -13.5509 C   0  0  0  0  0  0  0  0  0  0  0  0
   25.1399  -19.6729  -14.0362 C   0  0  2  0  0  0  0  0  0  0  0  0
   23.9206  -20.4777  -14.0746 N   0  0  0  0  0  0  0  0  0  0  0  0
   25.5159  -19.2249  -15.4042 C   0  0  0  0  0  0  0  0  0  0  0  0
   25.0286  -19.8902  -16.3684 O   0  0  0  0  0  0  0  0  0  0  0  0
   26.3471  -18.1481  -15.6908 N   0  0  0  0  0  0  0  0  0  0  0  0
   27.1216  -17.3758  -14.7424 C   0  0  0  0  0  0  0  0  0  0  0  0
   27.0998  -15.9484  -15.2902 C   0  0  0  0  0  0  0  0  0  0  0  0
   26.8586  -16.1024  -16.7653 C   0  0  0  0  0  0  0  0  0  0  0  0
   26.6041  -17.5745  -16.9884 C   0  0  1  0  0  0  0  0  0  0  0  0
   27.7461  -18.2476  -17.6412 C   0  0  0  0  0  0  0  0  0  0  0  0
   28.3561  -19.1388  -17.0083 O   0  0  0  0  0  0  0  0  0  0  0  0
   28.0962  -17.8682  -18.9224 O   0  0  0  0  0  0  0  0  0  0  0  0
  2  1  1  6
  2  3  1  0
  4  6  1  0
  4  2  1  0
  4  5  1  6
  6 13  1  0
  7  6  2  0
  8  9  1  0
  9 11  1  0
 10  9  2  0
 12 11  1  6
 12 13  1  0
 12 14  1  0
 14 16  1  0
 15 14  2  0
 16 20  1  0
 16 17  1  0
 17 18  1  0
 19 18  1  0
 20 21  1  1
 20 19  1  0
 21 23  1  0
 22 21  2  0
M  END
$$$$
