TNP.pdb
     RDKit          3D

 23 23  0  0  1  0  0  0  0  0999 V2000
   24.2926   -9.3350  -19.8116 C   0  0  0  0  0  0  0  0  0  0  0  0
   23.6632  -10.6777  -20.0305 C   0  0  1  0  0  0  0  0  0  0  0  0
   24.4836  -11.5537  -20.7450 O   0  0  0  0  0  0  0  0  0  0  0  0
   23.1290  -11.3122  -18.7830 C   0  0  2  0  0  0  0  0  0  0  0  0
   22.6860  -12.6426  -19.0451 N   0  0  0  0  0  0  0  0  0  0  0  0
   22.1263  -10.4835  -18.0768 C   0  0  0  0  0  0  0  0  0  0  0  0
   21.0057  -10.3078  -18.6196 O   0  0  0  0  0  0  0  0  0  0  0  0
   19.3044   -8.8570  -13.6215 N   0  0  0  0  0  0  0  0  0  0  0  0
   20.6456   -8.4732  -13.8346 C   0  0  0  0  0  0  0  0  0  0  0  0
   21.0550   -7.4246  -13.2810 O   0  0  0  0  0  0  0  0  0  0  0  0
   21.4933   -9.3092  -14.6858 C   0  0  0  0  0  0  0  0  0  0  0  0
   21.4376   -8.9716  -16.1565 C   0  0  2  0  0  0  0  0  0  0  0  0
   22.3738   -9.8794  -16.8162 N   0  0  0  0  0  0  0  0  0  0  0  0
   21.8852   -7.5602  -16.3017 C   0  0  0  0  0  0  0  0  0  0  0  0
   23.1377   -7.3606  -16.2710 O   0  0  0  0  0  0  0  0  0  0  0  0
   21.0407   -6.4684  -16.4663 N   0  0  0  0  0  0  0  0  0  0  0  0
   19.5945   -6.4940  -16.5292 C   0  0  0  0  0  0  0  0  0  0  0  0
   19.2269   -5.3936  -17.5253 C   0  0  0  0  0  0  0  0  0  0  0  0
   20.3876   -4.4398  -17.4957 C   0  0  0  0  0  0  0  0  0  0  0  0
   21.4297   -5.0880  -16.6150 C   0  0  1  0  0  0  0  0  0  0  0  0
   21.5365   -4.4295  -15.2966 C   0  0  0  0  0  0  0  0  0  0  0  0
   21.0739   -5.0196  -14.2943 O   0  0  0  0  0  0  0  0  0  0  0  0
   22.1418   -3.1902  -15.2207 O   0  0  0  0  0  0  0  0  0  0  0  0
  2  1  1  1
  2  3  1  0
  4  6  1  0
  4  2  1  0
  4  5  1  6
  6 13  1  0
  7  6  2  0
  8  9  1  0
  9 11  1  0
 10  9  2  0
 12 11  1  1
 12 13  1  0
 12 14  1  0
 14 16  1  0
 15 14  2  0
 16 20  1  0
 16 17  1  0
 17 18  1  0
 19 18  1  0
 20 21  1  1
 20 19  1  0
 21 23  1  0
 22 21  2  0
M  END
$$$$
