DAD.pdb
     RDKit          3D

 22 21  0  0  1  0  0  0  0  0999 V2000
   11.8443  -17.3427   17.9825 N   0  0  0  0  0  0  0  0  0  0  0  0
   11.7473  -18.1809   19.1347 C   0  0  1  0  0  0  0  0  0  0  0  0
   13.0190  -18.9933   19.2607 C   0  0  0  0  0  0  0  0  0  0  0  0
   13.2918  -19.7338   18.0105 C   0  0  0  0  0  0  0  0  0  0  0  0
   12.4050  -20.4750   17.5401 O   0  0  0  0  0  0  0  0  0  0  0  0
   11.4976  -17.4558   20.4079 C   0  0  0  0  0  0  0  0  0  0  0  0
   12.3875  -17.5429   21.2998 O   0  0  0  0  0  0  0  0  0  0  0  0
   14.5399  -19.5776   17.3949 O   0  0  0  0  0  0  0  0  0  0  0  0
    8.5280  -18.3261   20.7671 C   0  0  0  0  0  0  0  0  0  0  0  0
    9.1998  -17.1614   21.4020 C   0  0  2  0  0  0  0  0  0  0  0  0
   10.3691  -16.6928   20.6977 N   0  0  0  0  0  0  0  0  0  0  0  0
    9.5587  -17.4702   22.7994 C   0  0  0  0  0  0  0  0  0  0  0  0
    8.6566  -17.8964   23.5777 O   0  0  0  0  0  0  0  0  0  0  0  0
   10.8637  -17.3135   23.3152 N   0  0  0  0  0  0  0  0  0  0  0  0
   11.1950  -17.7316   24.6988 C   0  0  1  0  0  0  0  0  0  0  0  0
   12.6663  -17.9827   24.8081 C   0  0  0  0  0  0  0  0  0  0  0  0
   13.0669  -19.2028   24.0933 C   0  0  0  0  0  0  0  0  0  0  0  0
   12.7218  -20.3559   24.4062 O   0  0  0  0  0  0  0  0  0  0  0  0
   10.8321  -16.5941   25.5777 C   0  0  0  0  0  0  0  0  0  0  0  0
   10.5461  -15.4788   25.0237 O   0  0  0  0  0  0  0  0  0  0  0  0
   13.8998  -19.1119   22.9683 O   0  0  0  0  0  0  0  0  0  0  0  0
   10.7655  -16.5996   26.9448 O   0  0  0  0  0  0  0  0  0  0  0  0
  2  6  1  0
  2  1  1  6
  3  2  1  0
  3  4  1  0
  4  5  2  0
  6 11  1  0
  7  6  2  0
  8  4  1  0
 10 11  1  0
 10 12  1  0
 10  9  1  6
 12 13  2  0
 12 14  1  0
 14 15  1  0
 15 19  1  0
 16 17  1  0
 15 16  1  6
 17 18  2  0
 19 20  2  0
 19 22  1  0
 21 17  1  0
M  END
$$$$
