DAD.pdb
     RDKit          3D

 22 21  0  0  1  0  0  0  0  0999 V2000
    8.2894  -18.2941   18.6246 N   0  0  0  0  0  0  0  0  0  0  0  0
    9.2333  -17.2355   18.4577 C   0  0  1  0  0  0  0  0  0  0  0  0
    9.1325  -16.7047   17.0431 C   0  0  0  0  0  0  0  0  0  0  0  0
    9.1896  -17.8116   16.0646 C   0  0  0  0  0  0  0  0  0  0  0  0
   10.1345  -18.6243   16.1244 O   0  0  0  0  0  0  0  0  0  0  0  0
    9.0785  -16.1116   19.4180 C   0  0  0  0  0  0  0  0  0  0  0  0
    9.9365  -15.1868   19.3591 O   0  0  0  0  0  0  0  0  0  0  0  0
    8.1781  -17.9105   15.1011 O   0  0  0  0  0  0  0  0  0  0  0  0
    6.5916  -14.7271   21.8780 C   0  0  0  0  0  0  0  0  0  0  0  0
    7.9667  -14.9424   21.3549 C   0  0  2  0  0  0  0  0  0  0  0  0
    8.0713  -15.9947   20.3727 N   0  0  0  0  0  0  0  0  0  0  0  0
    8.9052  -15.2085   22.4620 C   0  0  0  0  0  0  0  0  0  0  0  0
    8.9532  -14.3909   23.4266 O   0  0  0  0  0  0  0  0  0  0  0  0
    9.7568  -16.3341   22.5001 N   0  0  0  0  0  0  0  0  0  0  0  0
   10.7170  -16.5298   23.6129 C   0  0  1  0  0  0  0  0  0  0  0  0
   10.6226  -17.9364   24.1152 C   0  0  0  0  0  0  0  0  0  0  0  0
   11.5917  -18.1995   25.1883 C   0  0  0  0  0  0  0  0  0  0  0  0
   11.9886  -17.3553   26.0107 O   0  0  0  0  0  0  0  0  0  0  0  0
   12.0680  -16.3095   23.0432 C   0  0  0  0  0  0  0  0  0  0  0  0
   12.2352  -16.5374   21.7972 O   0  0  0  0  0  0  0  0  0  0  0  0
   12.1383  -19.4828   25.3369 O   0  0  0  0  0  0  0  0  0  0  0  0
   13.1825  -15.8800   23.7117 O   0  0  0  0  0  0  0  0  0  0  0  0
  2  6  1  0
  2  1  1  1
  3  2  1  0
  3  4  1  0
  4  5  2  0
  6 11  1  0
  7  6  2  0
  8  4  1  0
 10 11  1  0
 10 12  1  0
 10  9  1  1
 12 13  2  0
 12 14  1  0
 14 15  1  0
 15 19  1  0
 16 17  1  0
 15 16  1  6
 17 18  2  0
 19 20  2  0
 19 22  1  0
 21 17  1  0
M  END
$$$$
