DAD.pdb
     RDKit          3D

 22 21  0  0  1  0  0  0  0  0999 V2000
   11.2630  -19.1660   21.4085 N   0  0  0  0  0  0  0  0  0  0  0  0
   12.3131  -18.2233   21.6276 C   0  0  1  0  0  0  0  0  0  0  0  0
   12.6128  -17.5090   20.3264 C   0  0  0  0  0  0  0  0  0  0  0  0
   13.1336  -18.4568   19.3182 C   0  0  0  0  0  0  0  0  0  0  0  0
   12.3302  -19.0325   18.5567 O   0  0  0  0  0  0  0  0  0  0  0  0
   12.0323  -17.2197   22.6874 C   0  0  0  0  0  0  0  0  0  0  0  0
   13.0014  -16.5064   23.0708 O   0  0  0  0  0  0  0  0  0  0  0  0
   14.5150  -18.6766   19.2522 O   0  0  0  0  0  0  0  0  0  0  0  0
    9.1410  -15.4525   24.2503 C   0  0  0  0  0  0  0  0  0  0  0  0
   10.5193  -16.0082   24.2991 C   0  0  2  0  0  0  0  0  0  0  0  0
   10.7957  -17.0023   23.2900 N   0  0  0  0  0  0  0  0  0  0  0  0
   10.8031  -16.5704   25.6335 C   0  0  0  0  0  0  0  0  0  0  0  0
   10.6656  -15.8260   26.6474 O   0  0  0  0  0  0  0  0  0  0  0  0
   11.2224  -17.9031   25.8378 N   0  0  0  0  0  0  0  0  0  0  0  0
   11.4745  -18.4253   27.2025 C   0  0  1  0  0  0  0  0  0  0  0  0
   10.4095  -19.4116   27.5667 C   0  0  0  0  0  0  0  0  0  0  0  0
   10.6229  -19.9762   28.9067 C   0  0  0  0  0  0  0  0  0  0  0  0
   11.5762  -19.6938   29.6537 O   0  0  0  0  0  0  0  0  0  0  0  0
   12.7816  -19.1231   27.1486 C   0  0  0  0  0  0  0  0  0  0  0  0
   13.5602  -19.0113   28.1554 O   0  0  0  0  0  0  0  0  0  0  0  0
    9.7110  -20.9070   29.4261 O   0  0  0  0  0  0  0  0  0  0  0  0
   13.2621  -19.8913   26.1227 O   0  0  0  0  0  0  0  0  0  0  0  0
  2  6  1  0
  2  1  1  6
  3  2  1  0
  3  4  1  0
  4  5  2  0
  6 11  1  0
  7  6  2  0
  8  4  1  0
 10 11  1  0
 10 12  1  0
 10  9  1  1
 12 13  2  0
 12 14  1  0
 14 15  1  0
 15 19  1  0
 16 17  1  0
 15 16  1  6
 17 18  2  0
 19 20  2  0
 19 22  1  0
 21 17  1  0
M  END
$$$$
