DAD.pdb
     RDKit          3D

 22 21  0  0  1  0  0  0  0  0999 V2000
    7.8719  -17.9882   19.4297 N   0  0  0  0  0  0  0  0  0  0  0  0
    8.9096  -17.0461   19.1555 C   0  0  1  0  0  0  0  0  0  0  0  0
    8.6478  -16.4034   17.8096 C   0  0  0  0  0  0  0  0  0  0  0  0
    8.5644  -17.4292   16.7483 C   0  0  0  0  0  0  0  0  0  0  0  0
    8.3498  -17.0686   15.5732 O   0  0  0  0  0  0  0  0  0  0  0  0
    9.0705  -15.9861   20.1849 C   0  0  0  0  0  0  0  0  0  0  0  0
   10.1260  -15.2944   20.1334 O   0  0  0  0  0  0  0  0  0  0  0  0
    8.7298  -18.7749   17.0990 O   0  0  0  0  0  0  0  0  0  0  0  0
    7.0262  -14.2069   22.7987 C   0  0  0  0  0  0  0  0  0  0  0  0
    8.3038  -14.6450   22.1769 C   0  0  2  0  0  0  0  0  0  0  0  0
    8.1590  -15.6942   21.1966 N   0  0  0  0  0  0  0  0  0  0  0  0
    9.2642  -15.0700   23.2134 C   0  0  0  0  0  0  0  0  0  0  0  0
    9.1657  -14.5722   24.3726 O   0  0  0  0  0  0  0  0  0  0  0  0
   10.2925  -16.0082   22.9767 N   0  0  0  0  0  0  0  0  0  0  0  0
   11.0320  -16.6326   24.1000 C   0  0  1  0  0  0  0  0  0  0  0  0
   10.1206  -17.5518   24.8511 C   0  0  0  0  0  0  0  0  0  0  0  0
   10.8031  -18.1922   25.9842 C   0  0  0  0  0  0  0  0  0  0  0  0
   11.9084  -17.8454   26.4368 O   0  0  0  0  0  0  0  0  0  0  0  0
   12.1252  -17.4275   23.4905 C   0  0  0  0  0  0  0  0  0  0  0  0
   12.9666  -17.9850   24.2739 O   0  0  0  0  0  0  0  0  0  0  0  0
   10.2039  -19.2797   26.6368 O   0  0  0  0  0  0  0  0  0  0  0  0
   12.3426  -17.6394   22.1559 O   0  0  0  0  0  0  0  0  0  0  0  0
  2  6  1  0
  2  1  1  1
  3  2  1  0
  3  4  1  0
  4  5  2  0
  6 11  1  0
  7  6  2  0
  8  4  1  0
 10 11  1  0
 10 12  1  0
 10  9  1  1
 12 13  2  0
 12 14  1  0
 14 15  1  0
 15 19  1  0
 16 17  1  0
 15 16  1  6
 17 18  2  0
 19 20  2  0
 19 22  1  0
 21 17  1  0
M  END
$$$$
