DAD.pdb
     RDKit          3D

 22 21  0  0  1  0  0  0  0  0999 V2000
    8.9430  -16.9145   17.2221 N   0  0  0  0  0  0  0  0  0  0  0  0
    8.7869  -17.5280   18.5022 C   0  0  1  0  0  0  0  0  0  0  0  0
    9.3928  -18.9152   18.4604 C   0  0  0  0  0  0  0  0  0  0  0  0
    8.7195  -19.7488   17.4418 C   0  0  0  0  0  0  0  0  0  0  0  0
    7.5245  -20.0651   17.6118 O   0  0  0  0  0  0  0  0  0  0  0  0
    9.3809  -16.7646   19.6306 C   0  0  0  0  0  0  0  0  0  0  0  0
   10.5780  -16.3852   19.4970 O   0  0  0  0  0  0  0  0  0  0  0  0
    9.4480  -20.1562   16.3173 O   0  0  0  0  0  0  0  0  0  0  0  0
    8.2898  -15.2177   22.9114 C   0  0  0  0  0  0  0  0  0  0  0  0
    9.2752  -15.6121   21.8701 C   0  0  2  0  0  0  0  0  0  0  0  0
    8.7304  -16.4353   20.8172 N   0  0  0  0  0  0  0  0  0  0  0  0
   10.4286  -16.2982   22.4833 C   0  0  0  0  0  0  0  0  0  0  0  0
   10.4256  -17.5626   22.5345 O   0  0  0  0  0  0  0  0  0  0  0  0
   11.5408  -15.6127   23.0187 N   0  0  0  0  0  0  0  0  0  0  0  0
   12.7163  -16.3511   23.5402 C   0  0  1  0  0  0  0  0  0  0  0  0
   13.9463  -15.5139   23.3788 C   0  0  0  0  0  0  0  0  0  0  0  0
   15.1447  -16.2016   23.8796 C   0  0  0  0  0  0  0  0  0  0  0  0
   16.0124  -15.6820   24.6035 O   0  0  0  0  0  0  0  0  0  0  0  0
   12.4661  -16.5691   24.9852 C   0  0  0  0  0  0  0  0  0  0  0  0
   13.3233  -17.2504   25.6436 O   0  0  0  0  0  0  0  0  0  0  0  0
   15.3716  -17.5444   23.5436 O   0  0  0  0  0  0  0  0  0  0  0  0
   11.3997  -16.1145   25.7130 O   0  0  0  0  0  0  0  0  0  0  0  0
  2  6  1  0
  2  1  1  6
  3  2  1  0
  3  4  1  0
  4  5  2  0
  6 11  1  0
  7  6  2  0
  8  4  1  0
 10 11  1  0
 10 12  1  0
 10  9  1  1
 12 13  2  0
 12 14  1  0
 14 15  1  0
 15 19  1  0
 16 17  1  0
 15 16  1  1
 17 18  2  0
 19 20  2  0
 19 22  1  0
 21 17  1  0
M  END
$$$$
