DAD.pdb
     RDKit          3D

 22 21  0  0  1  0  0  0  0  0999 V2000
   12.6181  -19.3936   18.7572 N   0  0  0  0  0  0  0  0  0  0  0  0
   13.2309  -18.1037   18.7452 C   0  0  1  0  0  0  0  0  0  0  0  0
   13.2025  -17.5583   17.3328 C   0  0  0  0  0  0  0  0  0  0  0  0
   14.1194  -18.3218   16.4596 C   0  0  0  0  0  0  0  0  0  0  0  0
   14.9482  -19.0951   16.9811 O   0  0  0  0  0  0  0  0  0  0  0  0
   12.6116  -17.1161   19.6673 C   0  0  0  0  0  0  0  0  0  0  0  0
   13.0156  -15.9225   19.5821 O   0  0  0  0  0  0  0  0  0  0  0  0
   14.0261  -18.1504   15.0729 O   0  0  0  0  0  0  0  0  0  0  0  0
    9.6060  -16.7474   21.8584 C   0  0  0  0  0  0  0  0  0  0  0  0
   11.0116  -16.4310   21.4908 C   0  0  2  0  0  0  0  0  0  0  0  0
   11.6284  -17.3964   20.6130 N   0  0  0  0  0  0  0  0  0  0  0  0
   11.8387  -16.2692   22.7020 C   0  0  0  0  0  0  0  0  0  0  0  0
   11.4590  -15.4533   23.5916 O   0  0  0  0  0  0  0  0  0  0  0  0
   13.0382  -16.9814   22.9199 N   0  0  0  0  0  0  0  0  0  0  0  0
   13.8174  -16.8038   24.1689 C   0  0  1  0  0  0  0  0  0  0  0  0
   13.7113  -18.0397   25.0063 C   0  0  0  0  0  0  0  0  0  0  0  0
   13.1597  -17.7518   26.3377 C   0  0  0  0  0  0  0  0  0  0  0  0
   12.8802  -16.6164   26.7613 O   0  0  0  0  0  0  0  0  0  0  0  0
   15.2298  -16.6181   23.7580 C   0  0  0  0  0  0  0  0  0  0  0  0
   15.5882  -17.0852   22.6240 O   0  0  0  0  0  0  0  0  0  0  0  0
   12.9126  -18.8023   27.2338 O   0  0  0  0  0  0  0  0  0  0  0  0
   16.2172  -15.9897   24.4677 O   0  0  0  0  0  0  0  0  0  0  0  0
  2  6  1  0
  2  1  1  6
  3  2  1  0
  3  4  1  0
  4  5  2  0
  6 11  1  0
  7  6  2  0
  8  4  1  0
 10 11  1  0
 10 12  1  0
 10  9  1  1
 12 13  2  0
 12 14  1  0
 14 15  1  0
 15 19  1  0
 16 17  1  0
 15 16  1  1
 17 18  2  0
 19 20  2  0
 19 22  1  0
 21 17  1  0
M  END
$$$$
