DAD.pdb
     RDKit          3D

 22 21  0  0  1  0  0  0  0  0999 V2000
    9.2914  -15.7583   15.0775 N   0  0  0  0  0  0  0  0  0  0  0  0
    8.6761  -15.8642   16.3620 C   0  0  1  0  0  0  0  0  0  0  0  0
    9.0578  -17.1917   16.9827 C   0  0  0  0  0  0  0  0  0  0  0  0
    8.5265  -18.3149   16.1815 C   0  0  0  0  0  0  0  0  0  0  0  0
    9.3191  -19.1709   15.7388 O   0  0  0  0  0  0  0  0  0  0  0  0
    9.0151  -14.7646   17.3028 C   0  0  0  0  0  0  0  0  0  0  0  0
   10.2229  -14.3977   17.3422 O   0  0  0  0  0  0  0  0  0  0  0  0
    7.1475  -18.3801   15.9462 O   0  0  0  0  0  0  0  0  0  0  0  0
    7.2701  -12.3532   19.6448 C   0  0  0  0  0  0  0  0  0  0  0  0
    8.4478  -13.0415   19.0531 C   0  0  2  0  0  0  0  0  0  0  0  0
    8.1161  -14.1093   18.1406 N   0  0  0  0  0  0  0  0  0  0  0  0
    9.3315  -13.5595   20.1153 C   0  0  0  0  0  0  0  0  0  0  0  0
    9.8150  -12.7442   20.9536 O   0  0  0  0  0  0  0  0  0  0  0  0
    9.6669  -14.9249   20.2444 N   0  0  0  0  0  0  0  0  0  0  0  0
   10.4573  -15.4126   21.4003 C   0  0  1  0  0  0  0  0  0  0  0  0
   10.0407  -16.8096   21.7390 C   0  0  0  0  0  0  0  0  0  0  0  0
   10.8107  -17.3509   22.8677 C   0  0  0  0  0  0  0  0  0  0  0  0
   11.1962  -16.6894   23.8478 O   0  0  0  0  0  0  0  0  0  0  0  0
   11.8741  -15.4232   20.9637 C   0  0  0  0  0  0  0  0  0  0  0  0
   12.7579  -15.7857   21.8122 O   0  0  0  0  0  0  0  0  0  0  0  0
   11.1615  -18.7089   22.8870 O   0  0  0  0  0  0  0  0  0  0  0  0
   12.3569  -15.0828   19.7289 O   0  0  0  0  0  0  0  0  0  0  0  0
  2  6  1  0
  2  1  1  6
  3  2  1  0
  3  4  1  0
  4  5  2  0
  6 11  1  0
  7  6  2  0
  8  4  1  0
 10 11  1  0
 10 12  1  0
 10  9  1  1
 12 13  2  0
 12 14  1  0
 14 15  1  0
 15 19  1  0
 16 17  1  0
 15 16  1  6
 17 18  2  0
 19 20  2  0
 19 22  1  0
 21 17  1  0
M  END
$$$$
