DAD.pdb
     RDKit          3D

 22 21  0  0  1  0  0  0  0  0999 V2000
    9.2485  -16.8139   16.5423 N   0  0  0  0  0  0  0  0  0  0  0  0
   10.4217  -16.0111   16.4058 C   0  0  1  0  0  0  0  0  0  0  0  0
   10.4697  -15.4442   15.0024 C   0  0  0  0  0  0  0  0  0  0  0  0
   10.2642  -16.5119   14.0005 C   0  0  0  0  0  0  0  0  0  0  0  0
   10.9036  -17.5776   14.1116 O   0  0  0  0  0  0  0  0  0  0  0  0
   10.5302  -14.9020   17.3893 C   0  0  0  0  0  0  0  0  0  0  0  0
   11.6714  -14.3832   17.5426 O   0  0  0  0  0  0  0  0  0  0  0  0
    9.3561  -16.2900   12.9578 O   0  0  0  0  0  0  0  0  0  0  0  0
    8.4420  -12.5596   19.4270 C   0  0  0  0  0  0  0  0  0  0  0  0
    9.6201  -13.4462   19.2351 C   0  0  2  0  0  0  0  0  0  0  0  0
    9.4833  -14.3906   18.1523 N   0  0  0  0  0  0  0  0  0  0  0  0
    9.9307  -14.1706   20.4825 C   0  0  0  0  0  0  0  0  0  0  0  0
    8.9771  -14.6699   21.1478 O   0  0  0  0  0  0  0  0  0  0  0  0
   11.2439  -14.3355   20.9743 N   0  0  0  0  0  0  0  0  0  0  0  0
   11.5747  -15.4274   21.9214 C   0  0  1  0  0  0  0  0  0  0  0  0
   11.1568  -16.7409   21.3383 C   0  0  0  0  0  0  0  0  0  0  0  0
   11.5125  -17.8657   22.2149 C   0  0  0  0  0  0  0  0  0  0  0  0
   11.3515  -17.8848   23.4479 O   0  0  0  0  0  0  0  0  0  0  0  0
   13.0492  -15.4144   22.0762 C   0  0  0  0  0  0  0  0  0  0  0  0
   13.7383  -14.8152   21.1826 O   0  0  0  0  0  0  0  0  0  0  0  0
   12.0787  -19.0264   21.6673 O   0  0  0  0  0  0  0  0  0  0  0  0
   13.7750  -15.9819   23.0885 O   0  0  0  0  0  0  0  0  0  0  0  0
  2  6  1  0
  2  1  1  1
  3  2  1  0
  3  4  1  0
  4  5  2  0
  6 11  1  0
  7  6  2  0
  8  4  1  0
 10 11  1  0
 10 12  1  0
 10  9  1  1
 12 13  2  0
 12 14  1  0
 14 15  1  0
 15 19  1  0
 16 17  1  0
 15 16  1  6
 17 18  2  0
 19 20  2  0
 19 22  1  0
 21 17  1  0
M  END
$$$$
