DAD.pdb
     RDKit          3D

 22 21  0  0  1  0  0  0  0  0999 V2000
    9.0487  -17.6849   18.0620 N   0  0  0  0  0  0  0  0  0  0  0  0
   10.2300  -17.6125   18.8611 C   0  0  1  0  0  0  0  0  0  0  0  0
   11.4291  -17.4392   17.9526 C   0  0  0  0  0  0  0  0  0  0  0  0
   11.5548  -18.5868   17.0290 C   0  0  0  0  0  0  0  0  0  0  0  0
   11.4159  -19.7429   17.4775 O   0  0  0  0  0  0  0  0  0  0  0  0
   10.2227  -16.5299   19.8794 C   0  0  0  0  0  0  0  0  0  0  0  0
   11.1325  -15.6582   19.7940 O   0  0  0  0  0  0  0  0  0  0  0  0
   11.8262  -18.3364   15.6782 O   0  0  0  0  0  0  0  0  0  0  0  0
    7.9352  -15.0480   22.4560 C   0  0  0  0  0  0  0  0  0  0  0  0
    9.2790  -15.3300   21.8855 C   0  0  2  0  0  0  0  0  0  0  0  0
    9.3009  -16.3980   20.9150 N   0  0  0  0  0  0  0  0  0  0  0  0
   10.2459  -15.6232   22.9608 C   0  0  0  0  0  0  0  0  0  0  0  0
   10.3832  -14.7849   23.8988 O   0  0  0  0  0  0  0  0  0  0  0  0
   11.0299  -16.7970   22.9968 N   0  0  0  0  0  0  0  0  0  0  0  0
   11.9004  -17.1005   24.1581 C   0  0  1  0  0  0  0  0  0  0  0  0
   11.3328  -18.2556   24.9220 C   0  0  0  0  0  0  0  0  0  0  0  0
   11.9506  -18.3896   26.2487 C   0  0  0  0  0  0  0  0  0  0  0  0
   12.8702  -17.6723   26.6807 O   0  0  0  0  0  0  0  0  0  0  0  0
   13.2187  -17.4895   23.6024 C   0  0  0  0  0  0  0  0  0  0  0  0
   13.2390  -18.3556   22.6632 O   0  0  0  0  0  0  0  0  0  0  0  0
   11.5046  -19.3858   27.1298 O   0  0  0  0  0  0  0  0  0  0  0  0
   14.4449  -17.0176   23.9864 O   0  0  0  0  0  0  0  0  0  0  0  0
  2  6  1  0
  2  1  1  6
  3  2  1  0
  3  4  1  0
  4  5  2  0
  6 11  1  0
  7  6  2  0
  8  4  1  0
 10 11  1  0
 10 12  1  0
 10  9  1  1
 12 13  2  0
 12 14  1  0
 14 15  1  0
 15 19  1  0
 16 17  1  0
 15 16  1  6
 17 18  2  0
 19 20  2  0
 19 22  1  0
 21 17  1  0
M  END
$$$$
