EVA.pdb
     RDKit          3D

 22 21  0  0  1  0  0  0  0  0999 V2000
   19.5941  -12.1378  -17.7190 N   0  0  0  0  0  0  0  0  0  0  0  0
   20.4902  -11.5337  -16.7586 C   0  0  1  0  0  0  0  0  0  0  0  0
   21.8837  -11.4176  -17.2820 C   0  0  0  0  0  0  0  0  0  0  0  0
   21.9884  -10.7105  -18.5809 C   0  0  0  0  0  0  0  0  0  0  0  0
   23.3645  -10.6561  -19.0730 C   0  0  0  0  0  0  0  0  0  0  0  0
   23.8255  -11.2499  -20.0667 O   0  0  0  0  0  0  0  0  0  0  0  0
   20.0516  -10.1674  -16.3754 C   0  0  0  0  0  0  0  0  0  0  0  0
   19.7695   -9.3796  -17.3153 O   0  0  0  0  0  0  0  0  0  0  0  0
   24.2627   -9.8528  -18.3540 O   0  0  0  0  0  0  0  0  0  0  0  0
   17.0699   -9.0647  -14.5618 C   0  0  0  0  0  0  0  0  0  0  0  0
   18.2244   -8.3941  -13.8672 C   0  0  2  0  0  0  0  0  0  0  0  0
   17.8113   -7.0113  -13.4725 C   0  0  0  0  0  0  0  0  0  0  0  0
   19.4690   -8.3841  -14.7401 C   0  0  2  0  0  0  0  0  0  0  0  0
   19.9384   -9.7195  -15.0358 N   0  0  0  0  0  0  0  0  0  0  0  0
   20.5108   -7.5573  -14.0835 C   0  0  0  0  0  0  0  0  0  0  0  0
   21.4540   -8.1928  -13.5132 O   0  0  0  0  0  0  0  0  0  0  0  0
   22.7987   -5.7005  -14.5928 C   0  0  0  0  0  0  0  0  0  0  0  0
   21.6270   -5.3313  -13.7123 C   0  0  2  0  0  0  0  0  0  0  0  0
   20.5084   -6.1370  -14.0603 N   0  0  0  0  0  0  0  0  0  0  0  0
   21.3778   -3.8780  -13.7622 C   0  0  0  0  0  0  0  0  0  0  0  0
   20.4502   -3.4784  -14.5134 O   0  0  0  0  0  0  0  0  0  0  0  0
   22.0786   -2.9304  -13.0536 O   0  0  0  0  0  0  0  0  0  0  0  0
  2  1  1  6
  2  7  1  0
  2  3  1  0
  4  5  1  0
  4  3  1  0
  5  9  1  0
  6  5  2  0
  7 14  1  0
  7  8  2  0
 11 10  1  6
 11 13  1  0
 12 11  1  0
 13 15  1  0
 13 14  1  1
 15 16  2  0
 15 19  1  0
 18 17  1  6
 19 18  1  0
 20 18  1  0
 20 22  1  0
 21 20  2  0
M  END
$$$$
