EVA.pdb
     RDKit          3D

 22 21  0  0  1  0  0  0  0  0999 V2000
   17.8283  -11.6915  -18.0276 N   0  0  0  0  0  0  0  0  0  0  0  0
   18.8694  -10.7137  -18.2524 C   0  0  1  0  0  0  0  0  0  0  0  0
   18.3687   -9.5151  -18.9884 C   0  0  0  0  0  0  0  0  0  0  0  0
   18.0304   -9.7713  -20.4090 C   0  0  0  0  0  0  0  0  0  0  0  0
   17.5587   -8.5674  -21.0922 C   0  0  0  0  0  0  0  0  0  0  0  0
   18.2611   -7.7024  -21.6501 O   0  0  0  0  0  0  0  0  0  0  0  0
   19.4589  -10.2298  -16.9779 C   0  0  0  0  0  0  0  0  0  0  0  0
   18.6929  -10.1883  -15.9804 O   0  0  0  0  0  0  0  0  0  0  0  0
   16.1712   -8.3607  -21.1253 O   0  0  0  0  0  0  0  0  0  0  0  0
   22.3035  -11.5056  -14.8941 C   0  0  0  0  0  0  0  0  0  0  0  0
   22.5578  -10.0390  -15.1161 C   0  0  2  0  0  0  0  0  0  0  0  0
   23.1105   -9.4502  -13.8566 C   0  0  0  0  0  0  0  0  0  0  0  0
   21.2987   -9.3187  -15.5711 C   0  0  2  0  0  0  0  0  0  0  0  0
   20.8086   -9.8228  -16.8349 N   0  0  0  0  0  0  0  0  0  0  0  0
   21.5680   -7.8609  -15.6167 C   0  0  0  0  0  0  0  0  0  0  0  0
   22.5176   -7.4895  -16.3777 O   0  0  0  0  0  0  0  0  0  0  0  0
   19.7870   -4.7487  -14.7226 C   0  0  0  0  0  0  0  0  0  0  0  0
   21.0897   -5.4899  -14.9175 C   0  0  2  0  0  0  0  0  0  0  0  0
   20.8419   -6.8894  -14.8771 N   0  0  0  0  0  0  0  0  0  0  0  0
   22.1049   -5.0169  -13.9572 C   0  0  0  0  0  0  0  0  0  0  0  0
   22.1943   -5.6334  -12.8635 O   0  0  0  0  0  0  0  0  0  0  0  0
   22.9576   -3.9580  -14.1648 O   0  0  0  0  0  0  0  0  0  0  0  0
  2  1  1  1
  2  7  1  0
  2  3  1  0
  4  5  1  0
  4  3  1  0
  5  9  1  0
  6  5  2  0
  7 14  1  0
  7  8  2  0
 11 10  1  1
 11 13  1  0
 12 11  1  0
 13 15  1  0
 13 14  1  6
 15 16  2  0
 15 19  1  0
 18 17  1  1
 19 18  1  0
 20 18  1  0
 20 22  1  0
 21 20  2  0
M  END
$$$$
