EVA.pdb
     RDKit          3D

 22 21  0  0  1  0  0  0  0  0999 V2000
   21.0284  -14.7207  -18.8802 N   0  0  0  0  0  0  0  0  0  0  0  0
   20.1210  -13.6700  -18.4765 C   0  0  1  0  0  0  0  0  0  0  0  0
   19.3299  -14.0416  -17.2660 C   0  0  0  0  0  0  0  0  0  0  0  0
   18.3775  -15.1573  -17.4809 C   0  0  0  0  0  0  0  0  0  0  0  0
   17.1263  -14.9669  -16.7480 C   0  0  0  0  0  0  0  0  0  0  0  0
   16.8477  -14.0269  -15.9790 O   0  0  0  0  0  0  0  0  0  0  0  0
   20.8396  -12.4095  -18.1595 C   0  0  0  0  0  0  0  0  0  0  0  0
   22.0230  -12.5217  -17.7464 O   0  0  0  0  0  0  0  0  0  0  0  0
   16.1334  -15.9422  -16.9264 O   0  0  0  0  0  0  0  0  0  0  0  0
   20.8587   -9.1019  -20.3967 C   0  0  0  0  0  0  0  0  0  0  0  0
   20.6520   -8.7741  -18.9425 C   0  0  2  0  0  0  0  0  0  0  0  0
   21.4115   -7.5266  -18.6175 C   0  0  0  0  0  0  0  0  0  0  0  0
   21.0604   -9.9330  -18.0474 C   0  0  2  0  0  0  0  0  0  0  0  0
   20.2709  -11.1188  -18.2964 N   0  0  0  0  0  0  0  0  0  0  0  0
   20.9849   -9.4976  -16.6316 C   0  0  0  0  0  0  0  0  0  0  0  0
   19.8539   -9.0697  -16.2360 O   0  0  0  0  0  0  0  0  0  0  0  0
   23.2991   -9.4490  -13.6699 C   0  0  0  0  0  0  0  0  0  0  0  0
   22.0434   -9.0252  -14.3965 C   0  0  2  0  0  0  0  0  0  0  0  0
   22.0771   -9.5334  -15.7239 N   0  0  0  0  0  0  0  0  0  0  0  0
   21.8563   -7.5648  -14.3014 C   0  0  0  0  0  0  0  0  0  0  0  0
   21.5246   -7.0986  -13.1803 O   0  0  0  0  0  0  0  0  0  0  0  0
   22.0158   -6.6775  -15.3400 O   0  0  0  0  0  0  0  0  0  0  0  0
  2  1  1  1
  2  7  1  0
  2  3  1  0
  4  5  1  0
  4  3  1  0
  5  9  1  0
  6  5  2  0
  7 14  1  0
  7  8  2  0
 11 10  1  6
 11 13  1  0
 12 11  1  0
 13 15  1  0
 13 14  1  1
 15 16  2  0
 15 19  1  0
 18 17  1  6
 19 18  1  0
 20 18  1  0
 20 22  1  0
 21 20  2  0
M  END
$$$$
