EVA.pdb
     RDKit          3D

 22 21  0  0  1  0  0  0  0  0999 V2000
   24.9063  -20.9677  -18.1988 N   0  0  0  0  0  0  0  0  0  0  0  0
   25.7789  -20.0576  -17.4913 C   0  0  1  0  0  0  0  0  0  0  0  0
   26.0896  -18.8363  -18.2919 C   0  0  0  0  0  0  0  0  0  0  0  0
   25.5358  -18.8536  -19.6671 C   0  0  0  0  0  0  0  0  0  0  0  0
   26.5062  -19.3356  -20.6493 C   0  0  0  0  0  0  0  0  0  0  0  0
   26.8474  -20.5183  -20.8428 O   0  0  0  0  0  0  0  0  0  0  0  0
   25.1813  -19.6008  -16.2106 C   0  0  0  0  0  0  0  0  0  0  0  0
   25.5808  -18.4947  -15.7629 O   0  0  0  0  0  0  0  0  0  0  0  0
   27.1194  -18.3687  -21.4606 O   0  0  0  0  0  0  0  0  0  0  0  0
   21.7611  -19.2443  -12.8069 C   0  0  0  0  0  0  0  0  0  0  0  0
   22.2260  -19.7749  -14.1362 C   0  0  2  0  0  0  0  0  0  0  0  0
   21.5761  -21.1005  -14.3794 C   0  0  0  0  0  0  0  0  0  0  0  0
   23.7420  -19.8695  -14.1981 C   0  0  2  0  0  0  0  0  0  0  0  0
   24.2073  -20.3324  -15.4867 N   0  0  0  0  0  0  0  0  0  0  0  0
   24.2162  -20.7326  -13.0889 C   0  0  0  0  0  0  0  0  0  0  0  0
   23.7842  -21.9293  -13.0855 O   0  0  0  0  0  0  0  0  0  0  0  0
   26.8303  -20.6709  -10.4533 C   0  0  0  0  0  0  0  0  0  0  0  0
   25.4520  -21.0765  -10.9225 C   0  0  2  0  0  0  0  0  0  0  0  0
   25.1001  -20.3037  -12.0629 N   0  0  0  0  0  0  0  0  0  0  0  0
   24.4843  -21.0085   -9.8110 C   0  0  0  0  0  0  0  0  0  0  0  0
   23.7634  -19.9793   -9.7372 O   0  0  0  0  0  0  0  0  0  0  0  0
   24.3104  -21.9798   -8.8530 O   0  0  0  0  0  0  0  0  0  0  0  0
  2  1  1  6
  2  7  1  0
  2  3  1  0
  4  5  1  0
  4  3  1  0
  5  9  1  0
  6  5  2  0
  7 14  1  0
  7  8  2  0
 11 10  1  1
 11 13  1  0
 12 11  1  0
 13 15  1  0
 13 14  1  6
 15 16  2  0
 15 19  1  0
 18 17  1  1
 19 18  1  0
 20 18  1  0
 20 22  1  0
 21 20  2  0
M  END
$$$$
