EVA.pdb
     RDKit          3D

 22 21  0  0  1  0  0  0  0  0999 V2000
    9.9304   14.6377  -74.6372 N   0  0  0  0  0  0  0  0  0  0  0  0
    9.0908   15.8144  -74.6124 C   0  0  1  0  0  0  0  0  0  0  0  0
    9.3001   16.6315  -73.3804 C   0  0  0  0  0  0  0  0  0  0  0  0
   10.7241   16.8747  -73.0467 C   0  0  0  0  0  0  0  0  0  0  0  0
   11.3387   15.7312  -72.3733 C   0  0  0  0  0  0  0  0  0  0  0  0
   10.7466   14.7922  -71.8072 O   0  0  0  0  0  0  0  0  0  0  0  0
    9.3475   16.7024  -75.7750 C   0  0  0  0  0  0  0  0  0  0  0  0
    9.1929   17.9372  -75.5884 O   0  0  0  0  0  0  0  0  0  0  0  0
   12.7410   15.6823  -72.3610 O   0  0  0  0  0  0  0  0  0  0  0  0
    9.2282   15.8933  -80.5175 C   0  0  0  0  0  0  0  0  0  0  0  0
    8.9288   16.7494  -79.3166 C   0  0  2  0  0  0  0  0  0  0  0  0
   10.0164   17.7660  -79.1668 C   0  0  0  0  0  0  0  0  0  0  0  0
    8.7653   15.9084  -78.0607 C   0  0  2  0  0  0  0  0  0  0  0  0
    9.7481   16.2375  -77.0522 N   0  0  0  0  0  0  0  0  0  0  0  0
    8.8053   14.4734  -78.4337 C   0  0  0  0  0  0  0  0  0  0  0  0
    9.9328   14.0244  -78.8155 O   0  0  0  0  0  0  0  0  0  0  0  0
    8.4342   12.0045  -76.7746 C   0  0  0  0  0  0  0  0  0  0  0  0
    7.2809   12.8618  -77.2428 C   0  0  2  0  0  0  0  0  0  0  0  0
    7.6836   13.6029  -78.3874 N   0  0  0  0  0  0  0  0  0  0  0  0
    6.7584   13.6807  -76.1324 C   0  0  0  0  0  0  0  0  0  0  0  0
    5.6836   14.3044  -76.3331 O   0  0  0  0  0  0  0  0  0  0  0  0
    7.3535   13.8142  -74.8998 O   0  0  0  0  0  0  0  0  0  0  0  0
  2  1  1  1
  2  7  1  0
  2  3  1  0
  4  5  1  0
  4  3  1  0
  5  9  1  0
  6  5  2  0
  7 14  1  0
  7  8  2  0
 11 10  1  6
 11 13  1  0
 12 11  1  0
 13 15  1  0
 13 14  1  1
 15 16  2  0
 15 19  1  0
 18 17  1  1
 19 18  1  0
 20 18  1  0
 20 22  1  0
 21 20  2  0
M  END
$$$$
