EVA.pdb
     RDKit          3D

 22 21  0  0  1  0  0  0  0  0999 V2000
   19.6851  -12.0942  -18.9060 N   0  0  0  0  0  0  0  0  0  0  0  0
   20.7939  -11.1667  -18.9333 C   0  0  1  0  0  0  0  0  0  0  0  0
   20.7898  -10.3180  -20.1617 C   0  0  0  0  0  0  0  0  0  0  0  0
   19.4361   -9.9647  -20.6522 C   0  0  0  0  0  0  0  0  0  0  0  0
   19.3473   -8.5679  -21.0762 C   0  0  0  0  0  0  0  0  0  0  0  0
   20.2771   -7.7393  -21.1147 O   0  0  0  0  0  0  0  0  0  0  0  0
   20.7758  -10.2478  -17.7666 C   0  0  0  0  0  0  0  0  0  0  0  0
   19.6452   -9.9305  -17.3142 O   0  0  0  0  0  0  0  0  0  0  0  0
   18.0852   -8.1088  -21.4830 O   0  0  0  0  0  0  0  0  0  0  0  0
   22.7018  -10.8756  -14.5631 C   0  0  0  0  0  0  0  0  0  0  0  0
   22.8698   -9.4172  -14.8947 C   0  0  2  0  0  0  0  0  0  0  0  0
   22.7726   -8.6219  -13.6311 C   0  0  0  0  0  0  0  0  0  0  0  0
   21.8530   -8.9611  -15.9286 C   0  0  2  0  0  0  0  0  0  0  0  0
   21.9413   -9.7242  -17.1538 N   0  0  0  0  0  0  0  0  0  0  0  0
   22.0231   -7.5063  -16.1620 C   0  0  0  0  0  0  0  0  0  0  0  0
   22.8030   -7.1782  -17.1122 O   0  0  0  0  0  0  0  0  0  0  0  0
   21.0265   -4.8381  -17.0920 C   0  0  0  0  0  0  0  0  0  0  0  0
   21.4693   -5.0998  -15.6708 C   0  0  2  0  0  0  0  0  0  0  0  0
   21.3796   -6.4931  -15.4022 N   0  0  0  0  0  0  0  0  0  0  0  0
   20.7247   -4.2426  -14.7289 C   0  0  0  0  0  0  0  0  0  0  0  0
   19.7626   -4.7675  -14.1097 O   0  0  0  0  0  0  0  0  0  0  0  0
   21.0002   -2.9190  -14.4766 O   0  0  0  0  0  0  0  0  0  0  0  0
  2  1  1  6
  2  7  1  0
  2  3  1  0
  4  5  1  0
  4  3  1  0
  5  9  1  0
  6  5  2  0
  7 14  1  0
  7  8  2  0
 11 10  1  1
 11 13  1  0
 12 11  1  0
 13 15  1  0
 13 14  1  6
 15 16  2  0
 15 19  1  0
 18 17  1  6
 19 18  1  0
 20 18  1  0
 20 22  1  0
 21 20  2  0
M  END
$$$$
