EVA.pdb
     RDKit          3D

 22 21  0  0  1  0  0  0  0  0999 V2000
   15.1988  -13.3126  -17.8041 N   0  0  0  0  0  0  0  0  0  0  0  0
   15.8313  -12.7776  -16.6191 C   0  0  1  0  0  0  0  0  0  0  0  0
   16.4495  -13.8454  -15.7783 C   0  0  0  0  0  0  0  0  0  0  0  0
   15.4848  -14.8422  -15.2551 C   0  0  0  0  0  0  0  0  0  0  0  0
   16.1437  -15.9097  -14.5034 C   0  0  0  0  0  0  0  0  0  0  0  0
   17.2780  -16.3803  -14.7145 O   0  0  0  0  0  0  0  0  0  0  0  0
   16.9053  -11.8082  -16.9546 C   0  0  0  0  0  0  0  0  0  0  0  0
   17.7436  -12.1702  -17.8205 O   0  0  0  0  0  0  0  0  0  0  0  0
   15.4275  -16.4647  -13.4320 O   0  0  0  0  0  0  0  0  0  0  0  0
   16.5396   -7.6434  -16.4173 C   0  0  0  0  0  0  0  0  0  0  0  0
   17.4473   -8.3345  -17.3988 C   0  0  2  0  0  0  0  0  0  0  0  0
   16.6778   -8.6156  -18.6508 C   0  0  0  0  0  0  0  0  0  0  0  0
   18.0453   -9.6008  -16.8072 C   0  0  2  0  0  0  0  0  0  0  0  0
   17.0284  -10.5273  -16.3613 N   0  0  0  0  0  0  0  0  0  0  0  0
   18.9797   -9.2283  -15.7172 C   0  0  0  0  0  0  0  0  0  0  0  0
   18.4479   -8.9280  -14.6010 O   0  0  0  0  0  0  0  0  0  0  0  0
   22.7101   -9.1022  -15.2664 C   0  0  0  0  0  0  0  0  0  0  0  0
   21.2954   -8.8109  -14.8214 C   0  0  2  0  0  0  0  0  0  0  0  0
   20.3932   -9.1912  -15.8525 N   0  0  0  0  0  0  0  0  0  0  0  0
   21.1684   -7.4092  -14.3791 C   0  0  0  0  0  0  0  0  0  0  0  0
   20.8005   -6.5655  -15.2377 O   0  0  0  0  0  0  0  0  0  0  0  0
   21.4205   -6.9557  -13.1054 O   0  0  0  0  0  0  0  0  0  0  0  0
  2  1  1  6
  2  7  1  0
  2  3  1  0
  4  5  1  0
  4  3  1  0
  5  9  1  0
  6  5  2  0
  7 14  1  0
  7  8  2  0
 11 10  1  1
 11 13  1  0
 12 11  1  0
 13 15  1  0
 13 14  1  1
 15 16  2  0
 15 19  1  0
 18 17  1  6
 19 18  1  0
 20 18  1  0
 20 22  1  0
 21 20  2  0
M  END
$$$$
