EVA.pdb
     RDKit          3D

 22 21  0  0  1  0  0  0  0  0999 V2000
   23.2847   -5.8771  -17.9791 N   0  0  0  0  0  0  0  0  0  0  0  0
   22.5952   -6.6073  -16.9391 C   0  0  1  0  0  0  0  0  0  0  0  0
   21.1973   -6.1219  -16.7403 C   0  0  0  0  0  0  0  0  0  0  0  0
   21.1030   -4.7528  -16.1792 C   0  0  0  0  0  0  0  0  0  0  0  0
   19.7195   -4.2903  -16.0757 C   0  0  0  0  0  0  0  0  0  0  0  0
   19.1313   -3.5161  -16.8550 O   0  0  0  0  0  0  0  0  0  0  0  0
   22.5152   -8.0591  -17.2419 C   0  0  0  0  0  0  0  0  0  0  0  0
   22.5842   -8.3885  -18.4545 O   0  0  0  0  0  0  0  0  0  0  0  0
   18.9729   -4.7656  -14.9868 O   0  0  0  0  0  0  0  0  0  0  0  0
   24.6987  -10.7688  -15.4970 C   0  0  0  0  0  0  0  0  0  0  0  0
   23.2756  -11.2519  -15.5778 C   0  0  2  0  0  0  0  0  0  0  0  0
   23.2810  -12.7169  -15.8818 C   0  0  0  0  0  0  0  0  0  0  0  0
   22.4785  -10.4649  -16.6056 C   0  0  2  0  0  0  0  0  0  0  0  0
   22.3686   -9.0660  -16.2557 N   0  0  0  0  0  0  0  0  0  0  0  0
   21.1514  -11.1045  -16.7781 C   0  0  0  0  0  0  0  0  0  0  0  0
   20.4141  -11.1546  -15.7424 O   0  0  0  0  0  0  0  0  0  0  0  0
   19.1880  -12.5770  -19.6260 C   0  0  0  0  0  0  0  0  0  0  0  0
   19.4524  -12.3521  -18.1550 C   0  0  2  0  0  0  0  0  0  0  0  0
   20.6774  -11.6466  -18.0026 N   0  0  0  0  0  0  0  0  0  0  0  0
   19.3796  -13.6256  -17.4138 C   0  0  0  0  0  0  0  0  0  0  0  0
   18.2376  -14.0256  -17.0672 O   0  0  0  0  0  0  0  0  0  0  0  0
   20.4599  -14.4059  -17.0737 O   0  0  0  0  0  0  0  0  0  0  0  0
  2  1  1  6
  2  7  1  0
  2  3  1  0
  4  5  1  0
  4  3  1  0
  5  9  1  0
  6  5  2  0
  7 14  1  0
  7  8  2  0
 11 10  1  6
 11 13  1  0
 12 11  1  0
 13 15  1  0
 13 14  1  1
 15 16  2  0
 15 19  1  0
 18 17  1  6
 19 18  1  0
 20 18  1  0
 20 22  1  0
 21 20  2  0
M  END
$$$$
