EVA.pdb
     RDKit          3D

 22 21  0  0  1  0  0  0  0  0999 V2000
   16.7624  -10.9779  -16.3272 N   0  0  0  0  0  0  0  0  0  0  0  0
   17.8920  -10.3942  -17.0154 C   0  0  1  0  0  0  0  0  0  0  0  0
   17.5078   -9.1908  -17.8113 C   0  0  0  0  0  0  0  0  0  0  0  0
   16.4723   -9.4479  -18.8407 C   0  0  0  0  0  0  0  0  0  0  0  0
   16.1017   -8.2350  -19.5689 C   0  0  0  0  0  0  0  0  0  0  0  0
   16.5612   -7.0900  -19.3942 O   0  0  0  0  0  0  0  0  0  0  0  0
   18.9577   -9.9721  -16.0709 C   0  0  0  0  0  0  0  0  0  0  0  0
   18.5906   -9.6508  -14.9110 O   0  0  0  0  0  0  0  0  0  0  0  0
   15.1273   -8.3701  -20.5696 O   0  0  0  0  0  0  0  0  0  0  0  0
   22.2686  -11.7989  -15.1684 C   0  0  0  0  0  0  0  0  0  0  0  0
   22.5710  -10.3575  -15.4781 C   0  0  2  0  0  0  0  0  0  0  0  0
   23.6155   -9.8691  -14.5246 C   0  0  0  0  0  0  0  0  0  0  0  0
   21.3153   -9.5021  -15.4266 C   0  0  2  0  0  0  0  0  0  0  0  0
   20.3336   -9.9151  -16.4049 N   0  0  0  0  0  0  0  0  0  0  0  0
   21.6965   -8.0774  -15.5835 C   0  0  0  0  0  0  0  0  0  0  0  0
   21.9525   -7.6926  -16.7689 O   0  0  0  0  0  0  0  0  0  0  0  0
   20.9978   -5.1500  -15.5571 C   0  0  0  0  0  0  0  0  0  0  0  0
   22.0508   -5.7614  -14.6617 C   0  0  2  0  0  0  0  0  0  0  0  0
   21.7873   -7.1504  -14.5109 N   0  0  0  0  0  0  0  0  0  0  0  0
   22.1525   -5.0133  -13.3942 C   0  0  0  0  0  0  0  0  0  0  0  0
   21.6939   -5.5666  -12.3607 O   0  0  0  0  0  0  0  0  0  0  0  0
   22.7076   -3.7627  -13.2559 O   0  0  0  0  0  0  0  0  0  0  0  0
  2  1  1  1
  2  7  1  0
  2  3  1  0
  4  5  1  0
  4  3  1  0
  5  9  1  0
  6  5  2  0
  7 14  1  0
  7  8  2  0
 11 10  1  1
 11 13  1  0
 12 11  1  0
 13 15  1  0
 13 14  1  6
 15 16  2  0
 15 19  1  0
 18 17  1  6
 19 18  1  0
 20 18  1  0
 20 22  1  0
 21 20  2  0
M  END
$$$$
