EVA.pdb
     RDKit          3D

 22 21  0  0  1  0  0  0  0  0999 V2000
   20.4870  -13.5815  -16.8701 N   0  0  0  0  0  0  0  0  0  0  0  0
   20.3174  -12.1946  -17.2417 C   0  0  1  0  0  0  0  0  0  0  0  0
   18.8859  -11.8459  -17.4833 C   0  0  0  0  0  0  0  0  0  0  0  0
   18.2660  -12.5728  -18.6170 C   0  0  0  0  0  0  0  0  0  0  0  0
   16.8839  -12.1568  -18.8528 C   0  0  0  0  0  0  0  0  0  0  0  0
   15.8663  -12.8721  -18.7782 O   0  0  0  0  0  0  0  0  0  0  0  0
   20.8204  -11.2742  -16.1901 C   0  0  0  0  0  0  0  0  0  0  0  0
   20.4315  -11.4934  -15.0136 O   0  0  0  0  0  0  0  0  0  0  0  0
   16.6776  -10.8128  -19.1993 O   0  0  0  0  0  0  0  0  0  0  0  0
   24.4188   -9.0421  -16.4428 C   0  0  0  0  0  0  0  0  0  0  0  0
   23.6994   -9.4846  -15.1972 C   0  0  2  0  0  0  0  0  0  0  0  0
   24.1209  -10.8821  -14.8685 C   0  0  0  0  0  0  0  0  0  0  0  0
   22.1917   -9.3722  -15.3559 C   0  0  2  0  0  0  0  0  0  0  0  0
   21.6953  -10.1883  -16.4417 N   0  0  0  0  0  0  0  0  0  0  0  0
   21.8301   -7.9430  -15.5196 C   0  0  0  0  0  0  0  0  0  0  0  0
   21.9945   -7.4526  -16.6820 O   0  0  0  0  0  0  0  0  0  0  0  0
   19.6443   -5.4981  -13.9669 C   0  0  0  0  0  0  0  0  0  0  0  0
   20.9830   -5.7484  -14.6222 C   0  0  2  0  0  0  0  0  0  0  0  0
   21.3254   -7.1207  -14.4770 N   0  0  0  0  0  0  0  0  0  0  0  0
   21.9955   -4.8044  -14.1121 C   0  0  0  0  0  0  0  0  0  0  0  0
   22.7304   -5.2016  -13.1705 O   0  0  0  0  0  0  0  0  0  0  0  0
   22.1969   -3.5287  -14.5846 O   0  0  0  0  0  0  0  0  0  0  0  0
  2  1  1  1
  2  7  1  0
  2  3  1  0
  4  5  1  0
  4  3  1  0
  5  9  1  0
  6  5  2  0
  7 14  1  0
  7  8  2  0
 11 10  1  6
 11 13  1  0
 12 11  1  0
 13 15  1  0
 13 14  1  6
 15 16  2  0
 15 19  1  0
 18 17  1  1
 19 18  1  0
 20 18  1  0
 20 22  1  0
 21 20  2  0
M  END
$$$$
