EVA.pdb
     RDKit          3D

 22 21  0  0  1  0  0  0  0  0999 V2000
   24.6257  -20.0481  -15.2547 N   0  0  0  0  0  0  0  0  0  0  0  0
   23.2759  -19.5353  -15.1811 C   0  0  1  0  0  0  0  0  0  0  0  0
   22.5612  -19.6373  -16.4881 C   0  0  0  0  0  0  0  0  0  0  0  0
   23.2526  -18.9637  -17.6134 C   0  0  0  0  0  0  0  0  0  0  0  0
   22.5572  -19.1555  -18.8856 C   0  0  0  0  0  0  0  0  0  0  0  0
   21.4748  -19.7470  -19.0625 O   0  0  0  0  0  0  0  0  0  0  0  0
   22.4599  -20.2661  -14.1781 C   0  0  0  0  0  0  0  0  0  0  0  0
   22.9269  -21.3550  -13.7543 O   0  0  0  0  0  0  0  0  0  0  0  0
   23.1691  -18.6190  -20.0287 O   0  0  0  0  0  0  0  0  0  0  0  0
   19.3638  -18.4131  -11.9592 C   0  0  0  0  0  0  0  0  0  0  0  0
   20.1387  -19.6113  -11.4810 C   0  0  2  0  0  0  0  0  0  0  0  0
   21.3387  -19.1376  -10.7232 C   0  0  0  0  0  0  0  0  0  0  0  0
   20.5235  -20.5221  -12.6358 C   0  0  2  0  0  0  0  0  0  0  0  0
   21.2121  -19.8075  -13.6878 N   0  0  0  0  0  0  0  0  0  0  0  0
   19.3072  -21.2116  -13.1310 C   0  0  0  0  0  0  0  0  0  0  0  0
   18.6870  -20.6397  -14.0834 O   0  0  0  0  0  0  0  0  0  0  0  0
   17.5914  -24.4875  -12.4552 C   0  0  0  0  0  0  0  0  0  0  0  0
   17.6679  -23.1222  -13.0990 C   0  0  2  0  0  0  0  0  0  0  0  0
   18.8159  -22.4393  -12.6120 N   0  0  0  0  0  0  0  0  0  0  0  0
   16.3975  -22.3931  -12.9225 C   0  0  0  0  0  0  0  0  0  0  0  0
   15.4270  -22.7444  -13.6432 O   0  0  0  0  0  0  0  0  0  0  0  0
   16.1933  -21.3630  -12.0345 O   0  0  0  0  0  0  0  0  0  0  0  0
  2  1  1  6
  2  7  1  0
  2  3  1  0
  4  5  1  0
  4  3  1  0
  5  9  1  0
  6  5  2  0
  7 14  1  0
  7  8  2  0
 11 10  1  6
 11 13  1  0
 12 11  1  0
 13 15  1  0
 13 14  1  6
 15 16  2  0
 15 19  1  0
 18 17  1  1
 19 18  1  0
 20 18  1  0
 20 22  1  0
 21 20  2  0
M  END
$$$$
