YHI.pdb
     RDKit          3D

 31 32  0  0  1  0  0  0  0  0999 V2000
    7.9019  -13.9798   13.9793 O   0  0  0  0  0  0  0  0  0  0  0  0
    7.6376  -14.1334   15.3366 C   0  0  0  0  0  0  0  0  0  0  0  0
    8.1583  -13.2597   16.2706 C   0  0  0  0  0  0  0  0  0  0  0  0
    7.8887  -13.4232   17.6126 C   0  0  0  0  0  0  0  0  0  0  0  0
    7.0972  -14.4523   18.0814 C   0  0  0  0  0  0  0  0  0  0  0  0
    6.8172  -14.6127   19.5347 C   0  0  0  0  0  0  0  0  0  0  0  0
    8.0640  -15.1220   20.2261 C   0  0  2  0  0  0  0  0  0  0  0  0
    8.5964  -16.2940   19.5606 N   0  0  0  0  0  0  0  0  0  0  0  0
    7.7744  -15.3973   21.6621 C   0  0  0  0  0  0  0  0  0  0  0  0
    7.1908  -14.5976   22.4065 O   0  0  0  0  0  0  0  0  0  0  0  0
    6.5765  -15.3259   17.1487 C   0  0  0  0  0  0  0  0  0  0  0  0
    6.8482  -15.1619   15.7916 C   0  0  0  0  0  0  0  0  0  0  0  0
    8.1904  -16.6421   22.2010 N   0  0  0  0  0  0  0  0  0  0  0  0
    8.0969  -17.0861   23.5373 C   0  0  1  0  0  0  0  0  0  0  0  0
    8.3684  -18.5548   23.7955 C   0  0  0  0  0  0  0  0  0  0  0  0
    8.1879  -18.9213   25.2205 C   0  0  0  0  0  0  0  0  0  0  0  0
    7.7904  -18.2121   26.3131 C   0  0  0  0  0  0  0  0  0  0  0  0
    7.7612  -18.9905   27.4302 N   0  0  0  0  0  0  0  0  0  0  0  0
    8.1456  -20.2076   27.0348 C   0  0  0  0  0  0  0  0  0  0  0  0
    8.4039  -20.1860   25.7222 N   0  0  0  0  0  0  0  0  0  0  0  0
    8.7028  -16.1726   24.5108 C   0  0  0  0  0  0  0  0  0  0  0  0
    9.7691  -15.5838   24.1217 O   0  0  0  0  0  0  0  0  0  0  0  0
    7.1399  -11.1088   26.6475 C   0  0  0  0  0  0  0  0  0  0  0  0
    8.0167  -12.2985   27.0016 C   0  0  0  0  0  0  0  0  0  0  0  0
    7.6742  -13.5059   26.1687 C   0  0  2  0  0  0  0  0  0  0  0  0
    6.1874  -13.8049   26.4578 C   0  0  0  0  0  0  0  0  0  0  0  0
    8.4431  -14.7488   26.5786 C   0  0  2  0  0  0  0  0  0  0  0  0
    8.2142  -15.9102   25.7868 N   0  0  0  0  0  0  0  0  0  0  0  0
    8.4393  -15.0019   28.0219 C   0  0  0  0  0  0  0  0  0  0  0  0
    9.0255  -14.1579   28.7848 O   0  0  0  0  0  0  0  0  0  0  0  0
    7.8600  -16.0741   28.6668 O   0  0  0  0  0  0  0  0  0  0  0  0
  2  1  1  0
  3  2  2  0
  4  3  1  0
  5  4  2  0
  5 11  1  0
  6  5  1  0
  7  6  1  0
  7  8  1  6
  9 10  2  0
  9  7  1  0
 11 12  2  0
 12  2  1  0
 13  9  1  0
 14 13  1  0
 14 15  1  6
 16 15  1  0
 16 17  2  0
 18 17  1  0
 19 18  1  0
 20 19  2  0
 20 16  1  0
 21 14  1  0
 22 21  2  0
 23 24  1  0
 25 26  1  1
 25 24  1  0
 25 27  1  0
 27 28  1  6
 28 21  1  0
 29 27  1  0
 29 31  1  0
 30 29  2  0
M  END
$$$$
