YHI.pdb
     RDKit          3D

 31 32  0  0  1  0  0  0  0  0999 V2000
    8.1705  -12.9659   15.8790 O   0  0  0  0  0  0  0  0  0  0  0  0
    8.0521  -13.4148   17.1905 C   0  0  0  0  0  0  0  0  0  0  0  0
    7.5941  -12.5831   18.1931 C   0  0  0  0  0  0  0  0  0  0  0  0
    7.4815  -13.0404   19.4887 C   0  0  0  0  0  0  0  0  0  0  0  0
    7.8158  -14.3321   19.8419 C   0  0  0  0  0  0  0  0  0  0  0  0
    7.6875  -14.8080   21.2467 C   0  0  0  0  0  0  0  0  0  0  0  0
    7.7836  -16.3187   21.2686 C   0  0  2  0  0  0  0  0  0  0  0  0
    6.6272  -16.9313   20.6461 N   0  0  0  0  0  0  0  0  0  0  0  0
    7.9644  -16.7979   22.6685 C   0  0  0  0  0  0  0  0  0  0  0  0
    7.0222  -17.0218   23.4406 O   0  0  0  0  0  0  0  0  0  0  0  0
    8.2736  -15.1641   18.8405 C   0  0  0  0  0  0  0  0  0  0  0  0
    8.3879  -14.7031   17.5303 C   0  0  0  0  0  0  0  0  0  0  0  0
    9.2870  -17.0073   23.1374 N   0  0  0  0  0  0  0  0  0  0  0  0
    9.7043  -17.3367   24.4447 C   0  0  1  0  0  0  0  0  0  0  0  0
   10.7194  -18.4538   24.5827 C   0  0  0  0  0  0  0  0  0  0  0  0
   10.2696  -19.7097   23.9363 C   0  0  0  0  0  0  0  0  0  0  0  0
    9.1300  -20.0499   23.2728 C   0  0  0  0  0  0  0  0  0  0  0  0
    9.1733  -21.3385   22.8340 N   0  0  0  0  0  0  0  0  0  0  0  0
   10.3578  -21.8161   23.2269 C   0  0  0  0  0  0  0  0  0  0  0  0
   11.0247  -20.8608   23.8848 N   0  0  0  0  0  0  0  0  0  0  0  0
    9.9578  -16.1723   25.2987 C   0  0  0  0  0  0  0  0  0  0  0  0
   10.8292  -15.3469   24.8575 O   0  0  0  0  0  0  0  0  0  0  0  0
    6.8483  -12.4643   26.6173 C   0  0  0  0  0  0  0  0  0  0  0  0
    8.2055  -13.1282   26.4527 C   0  0  0  0  0  0  0  0  0  0  0  0
    8.6298  -13.8396   27.7107 C   0  0  2  0  0  0  0  0  0  0  0  0
    9.3050  -12.7656   28.5907 C   0  0  0  0  0  0  0  0  0  0  0  0
    9.6808  -14.9068   27.4649 C   0  0  2  0  0  0  0  0  0  0  0  0
    9.3363  -15.9111   26.5157 N   0  0  0  0  0  0  0  0  0  0  0  0
   10.2958  -15.4294   28.6880 C   0  0  0  0  0  0  0  0  0  0  0  0
    9.9545  -16.5975   29.0844 O   0  0  0  0  0  0  0  0  0  0  0  0
   11.2247  -14.7879   29.4796 O   0  0  0  0  0  0  0  0  0  0  0  0
  2  1  1  0
  3  2  2  0
  4  3  1  0
  5  4  2  0
  5 11  1  0
  6  5  1  0
  7  6  1  0
  7  8  1  1
  9 10  2  0
  9  7  1  0
 11 12  2  0
 12  2  1  0
 13  9  1  0
 14 13  1  0
 14 15  1  6
 16 15  1  0
 16 17  2  0
 18 17  1  0
 19 18  1  0
 20 19  2  0
 20 16  1  0
 21 14  1  0
 22 21  2  0
 23 24  1  0
 25 26  1  1
 25 24  1  0
 25 27  1  0
 27 28  1  1
 28 21  1  0
 29 27  1  0
 29 31  1  0
 30 29  2  0
M  END
$$$$
