YHI.pdb
     RDKit          3D

 31 32  0  0  1  0  0  0  0  0999 V2000
    8.8010  -13.0507   15.9848 O   0  0  0  0  0  0  0  0  0  0  0  0
    8.4370  -13.3722   17.2887 C   0  0  0  0  0  0  0  0  0  0  0  0
    9.1153  -14.3396   18.0033 C   0  0  0  0  0  0  0  0  0  0  0  0
    8.7445  -14.6486   19.2945 C   0  0  0  0  0  0  0  0  0  0  0  0
    7.6932  -14.0159   19.9267 C   0  0  0  0  0  0  0  0  0  0  0  0
    7.3073  -14.3633   21.3221 C   0  0  0  0  0  0  0  0  0  0  0  0
    6.8202  -15.7962   21.3590 C   0  0  2  0  0  0  0  0  0  0  0  0
    5.5743  -15.9501   20.6352 N   0  0  0  0  0  0  0  0  0  0  0  0
    6.6878  -16.2534   22.7716 C   0  0  0  0  0  0  0  0  0  0  0  0
    5.8028  -15.8513   23.5393 O   0  0  0  0  0  0  0  0  0  0  0  0
    7.0147  -13.0489   19.2133 C   0  0  0  0  0  0  0  0  0  0  0  0
    7.3885  -12.7355   17.9078 C   0  0  0  0  0  0  0  0  0  0  0  0
    7.6266  -17.1991   23.2587 N   0  0  0  0  0  0  0  0  0  0  0  0
    7.7665  -17.6867   24.5756 C   0  0  1  0  0  0  0  0  0  0  0  0
    7.9069  -19.1865   24.7433 C   0  0  0  0  0  0  0  0  0  0  0  0
    8.0157  -19.5888   26.1659 C   0  0  0  0  0  0  0  0  0  0  0  0
    7.9646  -18.8853   27.3309 C   0  0  0  0  0  0  0  0  0  0  0  0
    8.1009  -19.7008   28.4132 N   0  0  0  0  0  0  0  0  0  0  0  0
    8.2395  -20.9356   27.9220 C   0  0  0  0  0  0  0  0  0  0  0  0
    8.1912  -20.8891   26.5857 N   0  0  0  0  0  0  0  0  0  0  0  0
    8.6718  -16.8914   25.4107 C   0  0  0  0  0  0  0  0  0  0  0  0
    9.8043  -16.6156   24.8846 O   0  0  0  0  0  0  0  0  0  0  0  0
    7.1837  -12.3689   27.7294 C   0  0  0  0  0  0  0  0  0  0  0  0
    7.9926  -13.4854   27.0899 C   0  0  0  0  0  0  0  0  0  0  0  0
    8.5904  -14.3997   28.1270 C   0  0  2  0  0  0  0  0  0  0  0  0
    9.7346  -13.5966   28.7824 C   0  0  0  0  0  0  0  0  0  0  0  0
    9.2320  -15.6385   27.5289 C   0  0  2  0  0  0  0  0  0  0  0  0
    8.3936  -16.4307   26.6936 N   0  0  0  0  0  0  0  0  0  0  0  0
   10.0279  -16.4159   28.4827 C   0  0  0  0  0  0  0  0  0  0  0  0
    9.4543  -17.3733   29.1091 O   0  0  0  0  0  0  0  0  0  0  0  0
   11.3590  -16.2273   28.7883 O   0  0  0  0  0  0  0  0  0  0  0  0
  2  1  1  0
  3  2  2  0
  4  3  1  0
  5  4  2  0
  5 11  1  0
  6  5  1  0
  7  6  1  0
  7  8  1  1
  9 10  2  0
  9  7  1  0
 11 12  2  0
 12  2  1  0
 13  9  1  0
 14 13  1  0
 14 15  1  6
 16 15  1  0
 16 17  2  0
 18 17  1  0
 19 18  1  0
 20 19  2  0
 20 16  1  0
 21 14  1  0
 22 21  2  0
 23 24  1  0
 25 26  1  6
 25 24  1  0
 25 27  1  0
 27 28  1  1
 28 21  1  0
 29 27  1  0
 29 31  1  0
 30 29  2  0
M  END
$$$$
