YHI.pdb
     RDKit          3D

 31 32  0  0  1  0  0  0  0  0999 V2000
    4.7480   -9.7400   25.6074 O   0  0  0  0  0  0  0  0  0  0  0  0
    5.4209  -10.9559   25.6754 C   0  0  0  0  0  0  0  0  0  0  0  0
    6.6339  -11.1392   25.0416 C   0  0  0  0  0  0  0  0  0  0  0  0
    7.2903  -12.3490   25.1169 C   0  0  0  0  0  0  0  0  0  0  0  0
    6.7752  -13.4202   25.8186 C   0  0  0  0  0  0  0  0  0  0  0  0
    7.4988  -14.7194   25.8885 C   0  0  0  0  0  0  0  0  0  0  0  0
    6.9782  -15.6353   24.8013 C   0  0  2  0  0  0  0  0  0  0  0  0
    5.8044  -16.3631   25.2400 N   0  0  0  0  0  0  0  0  0  0  0  0
    8.0571  -16.5624   24.3558 C   0  0  0  0  0  0  0  0  0  0  0  0
    8.1591  -17.7317   24.7515 O   0  0  0  0  0  0  0  0  0  0  0  0
    5.5629  -13.2380   26.4523 C   0  0  0  0  0  0  0  0  0  0  0  0
    4.8982  -12.0154   26.3771 C   0  0  0  0  0  0  0  0  0  0  0  0
    9.0156  -16.0763   23.4296 N   0  0  0  0  0  0  0  0  0  0  0  0
   10.2436  -16.6649   23.0593 C   0  0  1  0  0  0  0  0  0  0  0  0
   10.7663  -16.3524   21.6713 C   0  0  0  0  0  0  0  0  0  0  0  0
   11.9915  -17.1192   21.3424 C   0  0  0  0  0  0  0  0  0  0  0  0
   13.2627  -17.0824   21.8300 C   0  0  0  0  0  0  0  0  0  0  0  0
   14.0589  -18.0027   21.2186 N   0  0  0  0  0  0  0  0  0  0  0  0
   13.2774  -18.6280   20.3334 C   0  0  0  0  0  0  0  0  0  0  0  0
   12.0428  -18.1158   20.3926 N   0  0  0  0  0  0  0  0  0  0  0  0
   11.2597  -16.6344   24.1157 C   0  0  0  0  0  0  0  0  0  0  0  0
   12.0707  -15.6469   24.0694 O   0  0  0  0  0  0  0  0  0  0  0  0
   11.4268  -13.7537   27.9191 C   0  0  0  0  0  0  0  0  0  0  0  0
   12.0851  -14.9541   27.2593 C   0  0  0  0  0  0  0  0  0  0  0  0
   11.1276  -16.1100   27.1322 C   0  0  2  0  0  0  0  0  0  0  0  0
   10.7709  -16.5181   28.5779 C   0  0  0  0  0  0  0  0  0  0  0  0
   11.7547  -17.3340   26.4898 C   0  0  2  0  0  0  0  0  0  0  0  0
   11.3983  -17.5744   25.1321 N   0  0  0  0  0  0  0  0  0  0  0  0
   11.7240  -18.5310   27.3345 C   0  0  0  0  0  0  0  0  0  0  0  0
   12.6755  -18.7033   28.1730 O   0  0  0  0  0  0  0  0  0  0  0  0
   10.7605  -19.5173   27.3275 O   0  0  0  0  0  0  0  0  0  0  0  0
  2  1  1  0
  3  2  2  0
  4  3  1  0
  5  4  2  0
  5 11  1  0
  6  5  1  0
  7  6  1  0
  7  8  1  1
  9 10  2  0
  9  7  1  0
 11 12  2  0
 12  2  1  0
 13  9  1  0
 14 13  1  0
 14 15  1  6
 16 15  1  0
 16 17  2  0
 18 17  1  0
 19 18  1  0
 20 19  2  0
 20 16  1  0
 21 14  1  0
 22 21  2  0
 23 24  1  0
 25 26  1  1
 25 24  1  0
 25 27  1  0
 27 28  1  6
 28 21  1  0
 29 27  1  0
 29 31  1  0
 30 29  2  0
M  END
$$$$
