YHI.pdb
     RDKit          3D

 31 32  0  0  1  0  0  0  0  0999 V2000
    9.1730  -12.0745   15.4101 O   0  0  0  0  0  0  0  0  0  0  0  0
    8.6350  -12.7231   16.5172 C   0  0  0  0  0  0  0  0  0  0  0  0
    9.3089  -12.7615   17.7218 C   0  0  0  0  0  0  0  0  0  0  0  0
    8.7647  -13.4075   18.8111 C   0  0  0  0  0  0  0  0  0  0  0  0
    7.5383  -14.0381   18.7521 C   0  0  0  0  0  0  0  0  0  0  0  0
    6.9666  -14.7309   19.9394 C   0  0  0  0  0  0  0  0  0  0  0  0
    7.5275  -16.1353   20.0110 C   0  0  2  0  0  0  0  0  0  0  0  0
    7.0573  -16.9494   18.9082 N   0  0  0  0  0  0  0  0  0  0  0  0
    7.1894  -16.7529   21.3248 C   0  0  0  0  0  0  0  0  0  0  0  0
    6.0900  -17.2654   21.5757 O   0  0  0  0  0  0  0  0  0  0  0  0
    6.8640  -14.0003   17.5487 C   0  0  0  0  0  0  0  0  0  0  0  0
    7.4130  -13.3475   16.4466 C   0  0  0  0  0  0  0  0  0  0  0  0
    8.1819  -16.7519   22.3388 N   0  0  0  0  0  0  0  0  0  0  0  0
    8.0376  -17.1061   23.6972 C   0  0  1  0  0  0  0  0  0  0  0  0
    8.3863  -18.5312   24.0781 C   0  0  0  0  0  0  0  0  0  0  0  0
    8.2721  -18.7709   25.5364 C   0  0  0  0  0  0  0  0  0  0  0  0
    7.2914  -18.5021   26.4424 C   0  0  0  0  0  0  0  0  0  0  0  0
    7.6341  -18.9268   27.6902 N   0  0  0  0  0  0  0  0  0  0  0  0
    8.8482  -19.4711   27.5676 C   0  0  0  0  0  0  0  0  0  0  0  0
    9.2447  -19.3877   26.2925 N   0  0  0  0  0  0  0  0  0  0  0  0
    8.5253  -16.0874   24.6320 C   0  0  0  0  0  0  0  0  0  0  0  0
    9.7529  -15.7574   24.4933 O   0  0  0  0  0  0  0  0  0  0  0  0
    6.9602  -10.7362   26.8139 C   0  0  0  0  0  0  0  0  0  0  0  0
    7.6811  -12.0108   27.2205 C   0  0  0  0  0  0  0  0  0  0  0  0
    7.1626  -13.2054   26.4636 C   0  0  2  0  0  0  0  0  0  0  0  0
    5.9342  -13.7015   27.2564 C   0  0  0  0  0  0  0  0  0  0  0  0
    8.1435  -14.3634   26.4354 C   0  0  2  0  0  0  0  0  0  0  0  0
    7.7700  -15.4746   25.6268 N   0  0  0  0  0  0  0  0  0  0  0  0
    8.6638  -14.7348   27.7541 C   0  0  0  0  0  0  0  0  0  0  0  0
    9.2862  -13.8443   28.4307 O   0  0  0  0  0  0  0  0  0  0  0  0
    8.5550  -15.9668   28.3633 O   0  0  0  0  0  0  0  0  0  0  0  0
  2  1  1  0
  3  2  2  0
  4  3  1  0
  5  4  2  0
  5 11  1  0
  6  5  1  0
  7  6  1  0
  7  8  1  6
  9 10  2  0
  9  7  1  0
 11 12  2  0
 12  2  1  0
 13  9  1  0
 14 13  1  0
 14 15  1  6
 16 15  1  0
 16 17  2  0
 18 17  1  0
 19 18  1  0
 20 19  2  0
 20 16  1  0
 21 14  1  0
 22 21  2  0
 23 24  1  0
 25 26  1  1
 25 24  1  0
 25 27  1  0
 27 28  1  1
 28 21  1  0
 29 27  1  0
 29 31  1  0
 30 29  2  0
M  END
$$$$
