YHI.pdb
     RDKit          3D

 31 32  0  0  1  0  0  0  0  0999 V2000
    8.4939  -12.4863   15.8912 O   0  0  0  0  0  0  0  0  0  0  0  0
    8.2508  -13.0044   17.1594 C   0  0  0  0  0  0  0  0  0  0  0  0
    7.0619  -12.7585   17.8173 C   0  0  0  0  0  0  0  0  0  0  0  0
    6.8337  -13.2780   19.0736 C   0  0  0  0  0  0  0  0  0  0  0  0
    7.7679  -14.0573   19.7256 C   0  0  0  0  0  0  0  0  0  0  0  0
    7.5033  -14.6096   21.0826 C   0  0  0  0  0  0  0  0  0  0  0  0
    7.7402  -16.1047   21.0636 C   0  0  2  0  0  0  0  0  0  0  0  0
    6.8322  -16.7725   20.1528 N   0  0  0  0  0  0  0  0  0  0  0  0
    7.6282  -16.6562   22.4439 C   0  0  0  0  0  0  0  0  0  0  0  0
    6.5464  -16.8739   23.0065 O   0  0  0  0  0  0  0  0  0  0  0  0
    8.9563  -14.3036   19.0688 C   0  0  0  0  0  0  0  0  0  0  0  0
    9.1885  -13.7791   17.7987 C   0  0  0  0  0  0  0  0  0  0  0  0
    8.8261  -16.9460   23.1469 N   0  0  0  0  0  0  0  0  0  0  0  0
    8.9722  -17.3128   24.5018 C   0  0  1  0  0  0  0  0  0  0  0  0
    9.5052  -18.7031   24.7852 C   0  0  0  0  0  0  0  0  0  0  0  0
   10.5699  -19.1051   23.8353 C   0  0  0  0  0  0  0  0  0  0  0  0
   11.1798  -18.4578   22.8039 C   0  0  0  0  0  0  0  0  0  0  0  0
   12.1288  -19.2379   22.2160 N   0  0  0  0  0  0  0  0  0  0  0  0
   12.1161  -20.3930   22.8875 C   0  0  0  0  0  0  0  0  0  0  0  0
   11.1945  -20.3329   23.8555 N   0  0  0  0  0  0  0  0  0  0  0  0
    9.5410  -16.2571   25.3452 C   0  0  0  0  0  0  0  0  0  0  0  0
   10.5054  -15.5981   24.8247 O   0  0  0  0  0  0  0  0  0  0  0  0
    7.2462  -12.0598   26.7997 C   0  0  0  0  0  0  0  0  0  0  0  0
    8.4102  -13.0018   26.5398 C   0  0  0  0  0  0  0  0  0  0  0  0
    8.8096  -13.7454   27.7873 C   0  0  2  0  0  0  0  0  0  0  0  0
    9.6885  -12.7657   28.5944 C   0  0  0  0  0  0  0  0  0  0  0  0
    9.6779  -14.9579   27.5048 C   0  0  2  0  0  0  0  0  0  0  0  0
    9.1181  -15.9327   26.6303 N   0  0  0  0  0  0  0  0  0  0  0  0
   10.3161  -15.5235   28.6965 C   0  0  0  0  0  0  0  0  0  0  0  0
    9.8154  -16.5869   29.2029 O   0  0  0  0  0  0  0  0  0  0  0  0
   11.4239  -15.0264   29.3497 O   0  0  0  0  0  0  0  0  0  0  0  0
  2  1  1  0
  3  2  2  0
  4  3  1  0
  5  4  2  0
  5 11  1  0
  6  5  1  0
  7  6  1  0
  7  8  1  6
  9 10  2  0
  9  7  1  0
 11 12  2  0
 12  2  1  0
 13  9  1  0
 14 13  1  0
 14 15  1  6
 16 15  1  0
 16 17  2  0
 18 17  1  0
 19 18  1  0
 20 19  2  0
 20 16  1  0
 21 14  1  0
 22 21  2  0
 23 24  1  0
 25 26  1  1
 25 24  1  0
 25 27  1  0
 27 28  1  1
 28 21  1  0
 29 27  1  0
 29 31  1  0
 30 29  2  0
M  END
$$$$
