YHI.pdb
     RDKit          3D

 31 32  0  0  1  0  0  0  0  0999 V2000
    8.2853  -12.2019   16.2183 O   0  0  0  0  0  0  0  0  0  0  0  0
    7.9954  -12.7398   17.4682 C   0  0  0  0  0  0  0  0  0  0  0  0
    6.7082  -13.1053   17.8092 C   0  0  0  0  0  0  0  0  0  0  0  0
    6.4345  -13.6372   19.0511 C   0  0  0  0  0  0  0  0  0  0  0  0
    7.4185  -13.8277   20.0001 C   0  0  0  0  0  0  0  0  0  0  0  0
    7.1035  -14.4037   21.3364 C   0  0  0  0  0  0  0  0  0  0  0  0
    7.2886  -15.9054   21.2845 C   0  0  2  0  0  0  0  0  0  0  0  0
    6.1290  -16.5618   20.7148 N   0  0  0  0  0  0  0  0  0  0  0  0
    7.5946  -16.4287   22.6462 C   0  0  0  0  0  0  0  0  0  0  0  0
    6.7581  -16.4917   23.5575 O   0  0  0  0  0  0  0  0  0  0  0  0
    8.7052  -13.4628   19.6603 C   0  0  0  0  0  0  0  0  0  0  0  0
    8.9834  -12.9249   18.4050 C   0  0  0  0  0  0  0  0  0  0  0  0
    8.9148  -16.8776   22.9084 N   0  0  0  0  0  0  0  0  0  0  0  0
    9.4570  -17.3147   24.1358 C   0  0  1  0  0  0  0  0  0  0  0  0
   10.4481  -18.4602   24.0818 C   0  0  0  0  0  0  0  0  0  0  0  0
   10.9196  -18.8641   25.4279 C   0  0  0  0  0  0  0  0  0  0  0  0
   10.5820  -18.4606   26.6841 C   0  0  0  0  0  0  0  0  0  0  0  0
   11.2850  -19.1395   27.6326 N   0  0  0  0  0  0  0  0  0  0  0  0
   12.0765  -19.9828   26.9635 C   0  0  0  0  0  0  0  0  0  0  0  0
   11.8730  -19.8335   25.6495 N   0  0  0  0  0  0  0  0  0  0  0  0
    9.8323  -16.2246   25.0415 C   0  0  0  0  0  0  0  0  0  0  0  0
   10.6202  -15.3468   24.5476 O   0  0  0  0  0  0  0  0  0  0  0  0
    6.1832  -13.2094   27.1139 C   0  0  0  0  0  0  0  0  0  0  0  0
    7.5004  -13.7600   26.5928 C   0  0  0  0  0  0  0  0  0  0  0  0
    8.3724  -14.2625   27.7134 C   0  0  2  0  0  0  0  0  0  0  0  0
    8.8598  -13.0026   28.4609 C   0  0  0  0  0  0  0  0  0  0  0  0
    9.6210  -14.9727   27.2229 C   0  0  2  0  0  0  0  0  0  0  0  0
    9.4048  -16.0832   26.3579 N   0  0  0  0  0  0  0  0  0  0  0  0
   10.6160  -15.2187   28.2702 C   0  0  0  0  0  0  0  0  0  0  0  0
   10.7027  -16.3997   28.7558 O   0  0  0  0  0  0  0  0  0  0  0  0
   11.4918  -14.2974   28.8044 O   0  0  0  0  0  0  0  0  0  0  0  0
  2  1  1  0
  3  2  2  0
  4  3  1  0
  5  4  2  0
  5 11  1  0
  6  5  1  0
  7  6  1  0
  7  8  1  1
  9 10  2  0
  9  7  1  0
 11 12  2  0
 12  2  1  0
 13  9  1  0
 14 13  1  0
 14 15  1  6
 16 15  1  0
 16 17  2  0
 18 17  1  0
 19 18  1  0
 20 19  2  0
 20 16  1  0
 21 14  1  0
 22 21  2  0
 23 24  1  0
 25 26  1  1
 25 24  1  0
 25 27  1  0
 27 28  1  1
 28 21  1  0
 29 27  1  0
 29 31  1  0
 30 29  2  0
M  END
$$$$
