NGH.pdb
     RDKit          3D

 23 23  0  0  1  0  0  0  0  0999 V2000
    8.0007  -12.1251   17.9303 N   0  0  0  0  0  0  0  0  0  0  0  0
    7.7659  -13.4995   17.6794 C   0  0  0  0  0  0  0  0  0  0  0  0
    8.1136  -13.9702   16.5712 O   0  0  0  0  0  0  0  0  0  0  0  0
    7.1249  -14.3147   18.7267 C   0  0  0  0  0  0  0  0  0  0  0  0
    8.2033  -14.6902   19.7266 C   0  0  2  0  0  0  0  0  0  0  0  0
    9.2804  -15.3994   19.0824 N   0  0  0  0  0  0  0  0  0  0  0  0
    7.5851  -15.5598   20.7504 C   0  0  0  0  0  0  0  0  0  0  0  0
    6.6964  -15.0959   21.5437 O   0  0  0  0  0  0  0  0  0  0  0  0
    7.9875  -16.9097   20.8437 N   0  0  0  0  0  0  0  0  0  0  0  0
    7.4600  -17.7025   21.9115 C   0  0  0  0  0  0  0  0  0  0  0  0
    8.1171  -17.2885   23.1805 C   0  0  0  0  0  0  0  0  0  0  0  0
    7.4538  -17.1199   24.2371 O   0  0  0  0  0  0  0  0  0  0  0  0
    9.5365  -17.0621   23.2570 N   0  0  0  0  0  0  0  0  0  0  0  0
   10.3572  -17.7360   24.2285 C   0  0  1  0  0  0  0  0  0  0  0  0
   10.6961  -19.1446   23.7961 C   0  0  0  0  0  0  0  0  0  0  0  0
   11.6148  -19.8089   24.7451 C   0  0  0  0  0  0  0  0  0  0  0  0
   12.7709  -19.2289   25.2416 C   0  0  0  0  0  0  0  0  0  0  0  0
   13.3781  -20.0986   26.0818 N   0  0  0  0  0  0  0  0  0  0  0  0
   12.6198  -21.1941   26.1087 C   0  0  0  0  0  0  0  0  0  0  0  0
   11.5590  -21.0269   25.3081 N   0  0  0  0  0  0  0  0  0  0  0  0
   11.5445  -16.9405   24.5537 C   0  0  0  0  0  0  0  0  0  0  0  0
   12.0743  -16.2363   23.6597 O   0  0  0  0  0  0  0  0  0  0  0  0
   12.1236  -16.9224   25.8142 O   0  0  0  0  0  0  0  0  0  0  0  0
  2  1  1  0
  3  2  2  0
  4  2  1  0
  4  5  1  0
  5  7  1  0
  5  6  1  6
  7  9  1  0
  7  8  2  0
  9 10  1  0
 10 11  1  0
 11 12  2  0
 13 11  1  0
 13 14  1  0
 14 15  1  6
 15 16  1  0
 16 17  2  0
 17 18  1  0
 19 18  1  0
 20 16  1  0
 20 19  2  0
 21 14  1  0
 21 23  1  0
 22 21  2  0
M  END
$$$$
