NGH.pdb
     RDKit          3D

 23 23  0  0  1  0  0  0  0  0999 V2000
   13.5516  -16.4762   14.1751 N   0  0  0  0  0  0  0  0  0  0  0  0
   13.5050  -17.0272   15.4795 C   0  0  0  0  0  0  0  0  0  0  0  0
   14.4415  -17.7763   15.8430 O   0  0  0  0  0  0  0  0  0  0  0  0
   12.3622  -16.6986   16.3503 C   0  0  0  0  0  0  0  0  0  0  0  0
   11.4889  -17.9373   16.4319 C   0  0  2  0  0  0  0  0  0  0  0  0
   10.8177  -18.1793   15.1793 N   0  0  0  0  0  0  0  0  0  0  0  0
   10.4837  -17.7107   17.4925 C   0  0  0  0  0  0  0  0  0  0  0  0
    9.3755  -17.1335   17.2223 O   0  0  0  0  0  0  0  0  0  0  0  0
   10.7611  -18.1383   18.8089 N   0  0  0  0  0  0  0  0  0  0  0  0
    9.7178  -18.0516   19.7842 C   0  0  0  0  0  0  0  0  0  0  0  0
   10.0164  -16.9178   20.7002 C   0  0  0  0  0  0  0  0  0  0  0  0
   11.1079  -16.2937   20.6361 O   0  0  0  0  0  0  0  0  0  0  0  0
    9.0741  -16.4851   21.6984 N   0  0  0  0  0  0  0  0  0  0  0  0
    9.3691  -15.3979   22.5943 C   0  0  1  0  0  0  0  0  0  0  0  0
    8.3477  -14.2884   22.4854 C   0  0  0  0  0  0  0  0  0  0  0  0
    8.2532  -13.7563   21.1093 C   0  0  0  0  0  0  0  0  0  0  0  0
    7.0871  -13.7400   20.3614 C   0  0  0  0  0  0  0  0  0  0  0  0
    7.3429  -13.1889   19.1524 N   0  0  0  0  0  0  0  0  0  0  0  0
    8.6367  -12.8693   19.1460 C   0  0  0  0  0  0  0  0  0  0  0  0
    9.1895  -13.2073   20.3184 N   0  0  0  0  0  0  0  0  0  0  0  0
    9.5383  -15.8815   23.9674 C   0  0  0  0  0  0  0  0  0  0  0  0
    9.2557  -17.0747   24.2363 O   0  0  0  0  0  0  0  0  0  0  0  0
   10.0007  -15.0812   25.0020 O   0  0  0  0  0  0  0  0  0  0  0  0
  2  1  1  0
  3  2  2  0
  4  2  1  0
  4  5  1  0
  5  7  1  0
  5  6  1  6
  7  9  1  0
  7  8  2  0
  9 10  1  0
 10 11  1  0
 11 12  2  0
 13 11  1  0
 13 14  1  0
 14 15  1  1
 15 16  1  0
 16 17  2  0
 17 18  1  0
 19 18  1  0
 20 16  1  0
 20 19  2  0
 21 14  1  0
 21 23  1  0
 22 21  2  0
M  END
$$$$
