NGH.pdb
     RDKit          3D

 23 23  0  0  1  0  0  0  0  0999 V2000
    8.0499  -19.0346   16.9594 N   0  0  0  0  0  0  0  0  0  0  0  0
    7.3734  -18.3121   17.9729 C   0  0  0  0  0  0  0  0  0  0  0  0
    6.1944  -18.6355   18.2486 O   0  0  0  0  0  0  0  0  0  0  0  0
    8.0805  -17.2149   18.6574 C   0  0  0  0  0  0  0  0  0  0  0  0
    8.6802  -17.7903   19.9274 C   0  0  2  0  0  0  0  0  0  0  0  0
    7.6572  -18.0539   20.9083 N   0  0  0  0  0  0  0  0  0  0  0  0
    9.6333  -16.7963   20.4660 C   0  0  0  0  0  0  0  0  0  0  0  0
   10.7271  -16.5486   19.8524 O   0  0  0  0  0  0  0  0  0  0  0  0
    9.3229  -16.1229   21.6673 N   0  0  0  0  0  0  0  0  0  0  0  0
   10.2814  -15.2012   22.1953 C   0  0  0  0  0  0  0  0  0  0  0  0
   10.2799  -15.3116   23.6790 C   0  0  0  0  0  0  0  0  0  0  0  0
   11.0569  -14.6203   24.3883 O   0  0  0  0  0  0  0  0  0  0  0  0
    9.3930  -16.2117   24.3684 N   0  0  0  0  0  0  0  0  0  0  0  0
    9.3320  -16.2582   25.8056 C   0  0  1  0  0  0  0  0  0  0  0  0
    7.9215  -16.0631   26.3138 C   0  0  0  0  0  0  0  0  0  0  0  0
    7.3964  -14.7202   25.9874 C   0  0  0  0  0  0  0  0  0  0  0  0
    7.9476  -13.5369   26.4516 C   0  0  0  0  0  0  0  0  0  0  0  0
    7.2321  -12.4947   25.9691 N   0  0  0  0  0  0  0  0  0  0  0  0
    6.2585  -13.0148   25.2224 C   0  0  0  0  0  0  0  0  0  0  0  0
    6.3513  -14.3511   25.2290 N   0  0  0  0  0  0  0  0  0  0  0  0
    9.9561  -17.4817   26.3172 C   0  0  0  0  0  0  0  0  0  0  0  0
    9.2372  -18.4823   26.5577 O   0  0  0  0  0  0  0  0  0  0  0  0
   11.3182  -17.5966   26.5540 O   0  0  0  0  0  0  0  0  0  0  0  0
  2  1  1  0
  3  2  2  0
  4  2  1  0
  4  5  1  0
  5  7  1  0
  5  6  1  1
  7  9  1  0
  7  8  2  0
  9 10  1  0
 10 11  1  0
 11 12  2  0
 13 11  1  0
 13 14  1  0
 14 15  1  6
 15 16  1  0
 16 17  2  0
 17 18  1  0
 19 18  1  0
 20 16  1  0
 20 19  2  0
 21 14  1  0
 21 23  1  0
 22 21  2  0
M  END
$$$$
