NGH.pdb
     RDKit          3D

 23 23  0  0  1  0  0  0  0  0999 V2000
    8.0727  -12.0918   17.6112 N   0  0  0  0  0  0  0  0  0  0  0  0
    7.9039  -13.4900   17.7654 C   0  0  0  0  0  0  0  0  0  0  0  0
    8.2218  -14.2368   16.8106 O   0  0  0  0  0  0  0  0  0  0  0  0
    7.3636  -14.0056   19.0360 C   0  0  0  0  0  0  0  0  0  0  0  0
    8.5263  -14.1212   20.0047 C   0  0  2  0  0  0  0  0  0  0  0  0
    9.6181  -14.8555   19.4156 N   0  0  0  0  0  0  0  0  0  0  0  0
    8.0432  -14.8372   21.2049 C   0  0  0  0  0  0  0  0  0  0  0  0
    7.0832  -14.3601   21.9014 O   0  0  0  0  0  0  0  0  0  0  0  0
    8.6544  -16.0547   21.5750 N   0  0  0  0  0  0  0  0  0  0  0  0
    8.1226  -16.7674   22.6958 C   0  0  0  0  0  0  0  0  0  0  0  0
    8.8519  -16.3402   23.9202 C   0  0  0  0  0  0  0  0  0  0  0  0
   10.0858  -16.0921   23.8948 O   0  0  0  0  0  0  0  0  0  0  0  0
    8.1817  -16.1925   25.1855 N   0  0  0  0  0  0  0  0  0  0  0  0
    8.8749  -15.7245   26.3569 C   0  0  1  0  0  0  0  0  0  0  0  0
    7.9329  -15.0706   27.3423 C   0  0  0  0  0  0  0  0  0  0  0  0
    7.2644  -13.8849   26.7655 C   0  0  0  0  0  0  0  0  0  0  0  0
    7.9218  -12.7172   26.4136 C   0  0  0  0  0  0  0  0  0  0  0  0
    7.0239  -11.8345   25.9179 N   0  0  0  0  0  0  0  0  0  0  0  0
    5.8357  -12.4365   25.9596 C   0  0  0  0  0  0  0  0  0  0  0  0
    5.9728  -13.6683   26.4676 N   0  0  0  0  0  0  0  0  0  0  0  0
    9.6710  -16.7980   26.9585 C   0  0  0  0  0  0  0  0  0  0  0  0
    9.4488  -17.9873   26.6238 O   0  0  0  0  0  0  0  0  0  0  0  0
   10.6716  -16.5687   27.8916 O   0  0  0  0  0  0  0  0  0  0  0  0
  2  1  1  0
  3  2  2  0
  4  2  1  0
  4  5  1  0
  5  7  1  0
  5  6  1  6
  7  9  1  0
  7  8  2  0
  9 10  1  0
 10 11  1  0
 11 12  2  0
 13 11  1  0
 13 14  1  0
 14 15  1  1
 15 16  1  0
 16 17  2  0
 17 18  1  0
 19 18  1  0
 20 16  1  0
 20 19  2  0
 21 14  1  0
 21 23  1  0
 22 21  2  0
M  END
$$$$
