NGH.pdb
     RDKit          3D

 23 23  0  0  1  0  0  0  0  0999 V2000
    9.3782  -15.8757   15.1943 N   0  0  0  0  0  0  0  0  0  0  0  0
    8.3026  -16.7793   15.3776 C   0  0  0  0  0  0  0  0  0  0  0  0
    7.6373  -17.1245   14.3732 O   0  0  0  0  0  0  0  0  0  0  0  0
    8.0115  -17.2730   16.7355 C   0  0  0  0  0  0  0  0  0  0  0  0
    8.9518  -16.5544   17.6859 C   0  0  2  0  0  0  0  0  0  0  0  0
   10.1415  -17.3332   17.9224 N   0  0  0  0  0  0  0  0  0  0  0  0
    8.2341  -16.3529   18.9629 C   0  0  0  0  0  0  0  0  0  0  0  0
    7.4095  -15.3853   19.0972 O   0  0  0  0  0  0  0  0  0  0  0  0
    8.4697  -17.2411   20.0346 N   0  0  0  0  0  0  0  0  0  0  0  0
    7.7026  -17.0786   21.2314 C   0  0  0  0  0  0  0  0  0  0  0  0
    8.6182  -16.6713   22.3312 C   0  0  0  0  0  0  0  0  0  0  0  0
    9.8444  -16.4756   22.1242 O   0  0  0  0  0  0  0  0  0  0  0  0
    8.1449  -16.4839   23.6775 N   0  0  0  0  0  0  0  0  0  0  0  0
    9.0214  -16.0464   24.7320 C   0  0  1  0  0  0  0  0  0  0  0  0
    8.2512  -15.4748   25.9008 C   0  0  0  0  0  0  0  0  0  0  0  0
    7.4549  -14.2911   25.5130 C   0  0  0  0  0  0  0  0  0  0  0  0
    7.8408  -13.3789   24.5443 C   0  0  0  0  0  0  0  0  0  0  0  0
    6.8918  -12.4208   24.4336 N   0  0  0  0  0  0  0  0  0  0  0  0
    5.9374  -12.7275   25.3118 C   0  0  0  0  0  0  0  0  0  0  0  0
    6.2692  -13.8497   25.9634 N   0  0  0  0  0  0  0  0  0  0  0  0
    9.9412  -17.1170   25.1268 C   0  0  0  0  0  0  0  0  0  0  0  0
   10.8124  -16.8855   26.0004 O   0  0  0  0  0  0  0  0  0  0  0  0
    9.9015  -18.3913   24.5799 O   0  0  0  0  0  0  0  0  0  0  0  0
  2  1  1  0
  3  2  2  0
  4  2  1  0
  4  5  1  0
  5  7  1  0
  5  6  1  1
  7  9  1  0
  7  8  2  0
  9 10  1  0
 10 11  1  0
 11 12  2  0
 13 11  1  0
 13 14  1  0
 14 15  1  1
 15 16  1  0
 16 17  2  0
 17 18  1  0
 19 18  1  0
 20 16  1  0
 20 19  2  0
 21 14  1  0
 21 23  1  0
 22 21  2  0
M  END
$$$$
