NGH.pdb
     RDKit          3D

 23 23  0  0  1  0  0  0  0  0999 V2000
    9.9065  -17.0708   11.8410 N   0  0  0  0  0  0  0  0  0  0  0  0
   10.3360  -16.8678   13.1757 C   0  0  0  0  0  0  0  0  0  0  0  0
   11.4462  -16.3187   13.3667 O   0  0  0  0  0  0  0  0  0  0  0  0
    9.4639  -17.3091   14.2788 C   0  0  0  0  0  0  0  0  0  0  0  0
   10.1161  -18.5270   14.9074 C   0  0  2  0  0  0  0  0  0  0  0  0
    9.8392  -19.7152   14.1395 N   0  0  0  0  0  0  0  0  0  0  0  0
    9.5623  -18.6819   16.2696 C   0  0  0  0  0  0  0  0  0  0  0  0
    8.4432  -19.2728   16.4509 O   0  0  0  0  0  0  0  0  0  0  0  0
   10.2827  -18.1689   17.3700 N   0  0  0  0  0  0  0  0  0  0  0  0
    9.7295  -18.3337   18.6792 C   0  0  0  0  0  0  0  0  0  0  0  0
   10.2590  -17.2563   19.5580 C   0  0  0  0  0  0  0  0  0  0  0  0
   11.3819  -16.7288   19.3440 O   0  0  0  0  0  0  0  0  0  0  0  0
    9.5140  -16.7703   20.6897 N   0  0  0  0  0  0  0  0  0  0  0  0
   10.0880  -15.8444   21.6302 C   0  0  1  0  0  0  0  0  0  0  0  0
    9.0801  -14.8159   22.0912 C   0  0  0  0  0  0  0  0  0  0  0  0
    8.5551  -14.0128   20.9665 C   0  0  0  0  0  0  0  0  0  0  0  0
    8.9951  -14.1281   19.6579 C   0  0  0  0  0  0  0  0  0  0  0  0
    8.3127  -13.2550   18.8815 N   0  0  0  0  0  0  0  0  0  0  0  0
    7.4678  -12.6106   19.6859 C   0  0  0  0  0  0  0  0  0  0  0  0
    7.6081  -13.0608   20.9396 N   0  0  0  0  0  0  0  0  0  0  0  0
   10.7243  -16.5548   22.7431 C   0  0  0  0  0  0  0  0  0  0  0  0
   11.4173  -15.9087   23.5667 O   0  0  0  0  0  0  0  0  0  0  0  0
   10.6010  -17.9226   22.9395 O   0  0  0  0  0  0  0  0  0  0  0  0
  2  1  1  0
  3  2  2  0
  4  2  1  0
  4  5  1  0
  5  7  1  0
  5  6  1  6
  7  9  1  0
  7  8  2  0
  9 10  1  0
 10 11  1  0
 11 12  2  0
 13 11  1  0
 13 14  1  0
 14 15  1  1
 15 16  1  0
 16 17  2  0
 17 18  1  0
 19 18  1  0
 20 16  1  0
 20 19  2  0
 21 14  1  0
 21 23  1  0
 22 21  2  0
M  END
$$$$
