NGH.pdb
     RDKit          3D

 23 23  0  0  1  0  0  0  0  0999 V2000
    8.3597  -12.2363   17.8439 N   0  0  0  0  0  0  0  0  0  0  0  0
    9.1163  -13.0448   18.7276 C   0  0  0  0  0  0  0  0  0  0  0  0
   10.3521  -13.1358   18.5404 O   0  0  0  0  0  0  0  0  0  0  0  0
    8.4220  -13.7425   19.8246 C   0  0  0  0  0  0  0  0  0  0  0  0
    8.7473  -15.2193   19.6947 C   0  0  2  0  0  0  0  0  0  0  0  0
    8.0516  -15.8050   18.5762 N   0  0  0  0  0  0  0  0  0  0  0  0
    8.3198  -15.8862   20.9433 C   0  0  0  0  0  0  0  0  0  0  0  0
    7.1556  -15.6726   21.4262 O   0  0  0  0  0  0  0  0  0  0  0  0
    9.2123  -16.7621   21.5984 N   0  0  0  0  0  0  0  0  0  0  0  0
    8.7428  -17.4748   22.7467 C   0  0  0  0  0  0  0  0  0  0  0  0
    9.2951  -16.8270   23.9669 C   0  0  0  0  0  0  0  0  0  0  0  0
   10.2719  -16.0354   23.9034 O   0  0  0  0  0  0  0  0  0  0  0  0
    8.7397  -17.0758   25.2713 N   0  0  0  0  0  0  0  0  0  0  0  0
    9.3096  -16.4942   26.4581 C   0  0  1  0  0  0  0  0  0  0  0  0
    8.2539  -15.8578   27.3336 C   0  0  0  0  0  0  0  0  0  0  0  0
    7.5166  -14.7905   26.6245 C   0  0  0  0  0  0  0  0  0  0  0  0
    8.1218  -13.7951   25.8746 C   0  0  0  0  0  0  0  0  0  0  0  0
    7.1680  -12.9837   25.3618 N   0  0  0  0  0  0  0  0  0  0  0  0
    5.9967  -13.4610   25.7815 C   0  0  0  0  0  0  0  0  0  0  0  0
    6.1987  -14.5461   26.5403 N   0  0  0  0  0  0  0  0  0  0  0  0
   10.1312  -17.4714   27.1779 C   0  0  0  0  0  0  0  0  0  0  0  0
   10.6866  -17.1329   28.2516 O   0  0  0  0  0  0  0  0  0  0  0  0
   10.3318  -18.7694   26.7314 O   0  0  0  0  0  0  0  0  0  0  0  0
  2  1  1  0
  3  2  2  0
  4  2  1  0
  4  5  1  0
  5  7  1  0
  5  6  1  6
  7  9  1  0
  7  8  2  0
  9 10  1  0
 10 11  1  0
 11 12  2  0
 13 11  1  0
 13 14  1  0
 14 15  1  1
 15 16  1  0
 16 17  2  0
 17 18  1  0
 19 18  1  0
 20 16  1  0
 20 19  2  0
 21 14  1  0
 21 23  1  0
 22 21  2  0
M  END
$$$$
