HCC.pdb
     RDKit          3D

 23 23  0  0  1  0  0  0  0  0999 V2000
   24.2760  -20.3117  -15.0445 N   0  0  0  0  0  0  0  0  0  0  0  0
   22.8604  -20.5709  -15.0947 C   0  0  1  0  0  0  0  0  0  0  0  0
   22.5674  -21.5372  -16.2283 C   0  0  0  0  0  0  0  0  0  0  0  0
   22.8009  -20.7858  -17.5066 C   0  0  0  0  0  0  0  0  0  0  0  0
   21.8864  -20.0337  -18.2165 C   0  0  0  0  0  0  0  0  0  0  0  0
   22.5112  -19.5339  -19.2997 N   0  0  0  0  0  0  0  0  0  0  0  0
   23.7925  -19.9454  -19.2987 C   0  0  0  0  0  0  0  0  0  0  0  0
   23.9563  -20.7033  -18.2075 N   0  0  0  0  0  0  0  0  0  0  0  0
   22.4069  -21.0769  -13.7953 C   0  0  0  0  0  0  0  0  0  0  0  0
   23.0341  -21.9524  -13.1289 O   0  0  0  0  0  0  0  0  0  0  0  0
   21.2038  -20.5832  -13.2194 N   0  0  0  0  0  0  0  0  0  0  0  0
   20.7500  -20.9974  -11.9265 C   0  0  1  0  0  0  0  0  0  0  0  0
   20.0968  -19.8399  -11.1609 C   0  0  0  0  0  0  0  0  0  0  0  0
   21.1098  -19.3897   -9.7466 S   0  0  0  0  0  0  0  0  0  0  0  0
   19.6899  -22.0221  -12.0948 C   0  0  0  0  0  0  0  0  0  0  0  0
   18.9363  -21.9546  -13.0809 O   0  0  0  0  0  0  0  0  0  0  0  0
   19.4992  -23.0855  -11.1681 N   0  0  0  0  0  0  0  0  0  0  0  0
   18.4313  -24.0579  -11.3773 C   0  0  1  0  0  0  0  0  0  0  0  0
   18.6621  -25.2037  -10.3886 C   0  0  0  0  0  0  0  0  0  0  0  0
   19.1402  -26.6480  -11.3483 S   0  0  0  0  0  0  0  0  0  0  0  0
   17.1540  -23.3790  -11.0326 C   0  0  0  0  0  0  0  0  0  0  0  0
   17.1809  -22.5540  -10.0807 O   0  0  0  0  0  0  0  0  0  0  0  0
   15.9635  -23.5914  -11.6772 O   0  0  0  0  0  0  0  0  0  0  0  0
  2  1  1  1
  2  3  1  0
  4  5  2  0
  4  3  1  0
  6  5  1  0
  7  8  2  0
  7  6  1  0
  8  4  1  0
  9  2  1  0
 10  9  2  0
 11  9  1  0
 12 11  1  0
 12 13  1  6
 14 13  1  0
 15 17  1  0
 15 12  1  0
 16 15  2  0
 18 19  1  1
 18 17  1  0
 19 20  1  0
 21 18  1  0
 21 23  1  0
 22 21  2  0
M  END
$$$$
