HCC.pdb
     RDKit          3D

 23 23  0  0  1  0  0  0  0  0999 V2000
   16.4009  -11.8716  -10.3192 N   0  0  0  0  0  0  0  0  0  0  0  0
   15.8547  -10.6121  -10.7542 C   0  0  1  0  0  0  0  0  0  0  0  0
   14.4162  -10.4997  -10.2823 C   0  0  0  0  0  0  0  0  0  0  0  0
   13.6284  -11.5183  -11.0539 C   0  0  0  0  0  0  0  0  0  0  0  0
   12.9684  -12.6229  -10.5538 C   0  0  0  0  0  0  0  0  0  0  0  0
   12.3919  -13.2655  -11.5873 N   0  0  0  0  0  0  0  0  0  0  0  0
   12.6657  -12.6032  -12.7264 C   0  0  0  0  0  0  0  0  0  0  0  0
   13.4155  -11.5463  -12.3906 N   0  0  0  0  0  0  0  0  0  0  0  0
   16.6939   -9.5157  -10.2608 C   0  0  0  0  0  0  0  0  0  0  0  0
   17.1459   -9.4591   -9.0790 O   0  0  0  0  0  0  0  0  0  0  0  0
   17.0408   -8.4402  -11.1244 N   0  0  0  0  0  0  0  0  0  0  0  0
   17.7933   -7.3097  -10.6720 C   0  0  1  0  0  0  0  0  0  0  0  0
   18.8220   -6.8622  -11.7180 C   0  0  0  0  0  0  0  0  0  0  0  0
   20.4660   -6.8408  -10.9929 S   0  0  0  0  0  0  0  0  0  0  0  0
   16.8722   -6.1604  -10.4911 C   0  0  0  0  0  0  0  0  0  0  0  0
   16.1403   -5.8189  -11.4360 O   0  0  0  0  0  0  0  0  0  0  0  0
   16.7914   -5.4285   -9.2731 N   0  0  0  0  0  0  0  0  0  0  0  0
   15.8436   -4.3267   -9.1409 C   0  0  1  0  0  0  0  0  0  0  0  0
   15.5868   -4.1272   -7.6450 C   0  0  0  0  0  0  0  0  0  0  0  0
   14.5585   -2.6616   -7.4712 S   0  0  0  0  0  0  0  0  0  0  0  0
   16.5139   -3.1124   -9.6771 C   0  0  0  0  0  0  0  0  0  0  0  0
   17.7512   -2.9998   -9.4676 O   0  0  0  0  0  0  0  0  0  0  0  0
   15.8785   -2.1199  -10.3764 O   0  0  0  0  0  0  0  0  0  0  0  0
  2  1  1  1
  2  3  1  0
  4  5  2  0
  4  3  1  0
  6  5  1  0
  7  8  2  0
  7  6  1  0
  8  4  1  0
  9  2  1  0
 10  9  2  0
 11  9  1  0
 12 11  1  0
 12 13  1  6
 14 13  1  0
 15 17  1  0
 15 12  1  0
 16 15  2  0
 18 19  1  1
 18 17  1  0
 19 20  1  0
 21 18  1  0
 21 23  1  0
 22 21  2  0
M  END
$$$$
