HCC.pdb
     RDKit          3D

 23 23  0  0  1  0  0  0  0  0999 V2000
   22.5989  -11.7079  -18.1295 N   0  0  0  0  0  0  0  0  0  0  0  0
   22.4737  -11.1518  -16.8071 C   0  0  1  0  0  0  0  0  0  0  0  0
   23.8506  -10.7807  -16.2867 C   0  0  0  0  0  0  0  0  0  0  0  0
   24.6318  -12.0585  -16.1846 C   0  0  0  0  0  0  0  0  0  0  0  0
   24.2146  -13.2552  -15.6373 C   0  0  0  0  0  0  0  0  0  0  0  0
   25.2246  -14.1387  -15.7513 N   0  0  0  0  0  0  0  0  0  0  0  0
   26.2685  -13.5397  -16.3536 C   0  0  0  0  0  0  0  0  0  0  0  0
   25.8975  -12.2796  -16.6114 N   0  0  0  0  0  0  0  0  0  0  0  0
   21.5592  -10.0061  -16.8401 C   0  0  0  0  0  0  0  0  0  0  0  0
   21.5931   -9.1107  -17.7352 O   0  0  0  0  0  0  0  0  0  0  0  0
   20.5679   -9.8569  -15.8313 N   0  0  0  0  0  0  0  0  0  0  0  0
   19.6537   -8.7554  -15.8159 C   0  0  1  0  0  0  0  0  0  0  0  0
   18.2819   -9.1691  -15.2686 C   0  0  0  0  0  0  0  0  0  0  0  0
   17.5172  -10.3665  -16.3689 S   0  0  0  0  0  0  0  0  0  0  0  0
   20.1659   -7.7188  -14.8858 C   0  0  0  0  0  0  0  0  0  0  0  0
   20.9011   -8.0626  -13.9444 O   0  0  0  0  0  0  0  0  0  0  0  0
   19.8482   -6.3386  -15.0279 N   0  0  0  0  0  0  0  0  0  0  0  0
   20.6783   -5.3250  -14.3850 C   0  0  1  0  0  0  0  0  0  0  0  0
   22.0431   -5.3512  -15.0777 C   0  0  0  0  0  0  0  0  0  0  0  0
   23.0359   -4.0394  -14.3501 S   0  0  0  0  0  0  0  0  0  0  0  0
   20.0350   -4.0098  -14.6454 C   0  0  0  0  0  0  0  0  0  0  0  0
   19.5246   -3.8358  -15.7842 O   0  0  0  0  0  0  0  0  0  0  0  0
   19.9632   -2.9871  -13.7361 O   0  0  0  0  0  0  0  0  0  0  0  0
  2  1  1  6
  2  3  1  0
  4  5  2  0
  4  3  1  0
  6  5  1  0
  7  8  2  0
  7  6  1  0
  8  4  1  0
  9  2  1  0
 10  9  2  0
 11  9  1  0
 12 11  1  0
 12 13  1  1
 14 13  1  0
 15 17  1  0
 15 12  1  0
 16 15  2  0
 18 19  1  6
 18 17  1  0
 19 20  1  0
 21 18  1  0
 21 23  1  0
 22 21  2  0
M  END
$$$$
