HCC.pdb
     RDKit          3D

 23 23  0  0  1  0  0  0  0  0999 V2000
   28.1410  -23.4390  -16.4875 N   0  0  0  0  0  0  0  0  0  0  0  0
   27.6116  -22.1569  -16.1004 C   0  0  1  0  0  0  0  0  0  0  0  0
   27.0386  -21.4615  -17.3222 C   0  0  0  0  0  0  0  0  0  0  0  0
   28.2035  -21.0922  -18.1940 C   0  0  0  0  0  0  0  0  0  0  0  0
   28.4424  -21.4989  -19.4915 C   0  0  0  0  0  0  0  0  0  0  0  0
   29.5963  -20.9358  -19.8976 N   0  0  0  0  0  0  0  0  0  0  0  0
   30.0962  -20.1853  -18.8986 C   0  0  0  0  0  0  0  0  0  0  0  0
   29.2437  -20.2878  -17.8716 N   0  0  0  0  0  0  0  0  0  0  0  0
   26.6159  -22.3363  -15.0391 C   0  0  0  0  0  0  0  0  0  0  0  0
   25.6827  -23.1910  -15.0937 O   0  0  0  0  0  0  0  0  0  0  0  0
   26.6670  -21.5272  -13.8706 N   0  0  0  0  0  0  0  0  0  0  0  0
   25.6853  -21.6212  -12.8330 C   0  0  1  0  0  0  0  0  0  0  0  0
   26.2029  -21.0366  -11.5128 C   0  0  0  0  0  0  0  0  0  0  0  0
   24.9079  -21.0892  -10.2681 S   0  0  0  0  0  0  0  0  0  0  0  0
   24.5092  -20.7979  -13.2081 C   0  0  0  0  0  0  0  0  0  0  0  0
   24.6542  -19.5730  -13.3621 O   0  0  0  0  0  0  0  0  0  0  0  0
   23.2139  -21.3559  -13.4000 N   0  0  0  0  0  0  0  0  0  0  0  0
   22.0882  -20.4945  -13.7471 C   0  0  1  0  0  0  0  0  0  0  0  0
   21.3754  -21.1390  -14.9388 C   0  0  0  0  0  0  0  0  0  0  0  0
   22.6214  -21.4589  -16.1961 S   0  0  0  0  0  0  0  0  0  0  0  0
   21.1661  -20.4961  -12.5804 C   0  0  0  0  0  0  0  0  0  0  0  0
   20.2082  -19.6780  -12.6047 O   0  0  0  0  0  0  0  0  0  0  0  0
   21.2907  -21.3213  -11.4935 O   0  0  0  0  0  0  0  0  0  0  0  0
  2  1  1  6
  2  3  1  0
  4  5  2  0
  4  3  1  0
  6  5  1  0
  7  8  2  0
  7  6  1  0
  8  4  1  0
  9  2  1  0
 10  9  2  0
 11  9  1  0
 12 11  1  0
 12 13  1  1
 14 13  1  0
 15 17  1  0
 15 12  1  0
 16 15  2  0
 18 19  1  6
 18 17  1  0
 19 20  1  0
 21 18  1  0
 21 23  1  0
 22 21  2  0
M  END
$$$$
