VKF.pdb
     RDKit          3D

 28 28  0  0  1  0  0  0  0  0999 V2000
   26.3924  -17.4889  -15.0501 C   0  0  0  0  0  0  0  0  0  0  0  0
   27.8247  -17.9742  -15.1072 C   0  0  2  0  0  0  0  0  0  0  0  0
   28.2096  -18.1134  -16.5535 C   0  0  0  0  0  0  0  0  0  0  0  0
   27.8938  -19.2964  -14.3592 C   0  0  2  0  0  0  0  0  0  0  0  0
   27.3424  -20.3022  -15.2376 N   0  0  0  0  0  0  0  0  0  0  0  0
   27.0924  -19.2566  -13.1164 C   0  0  0  0  0  0  0  0  0  0  0  0
   27.2867  -18.3561  -12.2316 O   0  0  0  0  0  0  0  0  0  0  0  0
   26.0915  -20.1945  -12.8514 N   0  0  0  0  0  0  0  0  0  0  0  0
   25.3015  -20.2412  -11.6412 C   0  0  1  0  0  0  0  0  0  0  0  0
   23.9269  -20.7506  -12.0124 C   0  0  0  0  0  0  0  0  0  0  0  0
   23.1923  -19.8635  -12.9439 C   0  0  0  0  0  0  0  0  0  0  0  0
   21.8435  -20.4484  -13.2552 C   0  0  0  0  0  0  0  0  0  0  0  0
   21.1537  -19.6328  -14.3146 C   0  0  0  0  0  0  0  0  0  0  0  0
   19.8039  -20.1251  -14.5672 N   0  0  0  0  0  0  0  0  0  0  0  0
   25.9426  -20.9995  -10.5640 C   0  0  0  0  0  0  0  0  0  0  0  0
   26.3399  -22.2017  -10.6987 O   0  0  0  0  0  0  0  0  0  0  0  0
   26.1576  -20.4162   -9.2854 N   0  0  0  0  0  0  0  0  0  0  0  0
   26.6558  -21.2286   -8.1579 C   0  0  1  0  0  0  0  0  0  0  0  0
   28.0768  -20.8609   -7.8859 C   0  0  0  0  0  0  0  0  0  0  0  0
   28.2079  -20.1761   -6.5787 C   0  0  0  0  0  0  0  0  0  0  0  0
   28.8565  -20.8037   -5.5109 C   0  0  0  0  0  0  0  0  0  0  0  0
   28.9979  -20.1753   -4.2943 C   0  0  0  0  0  0  0  0  0  0  0  0
   28.4982  -18.8953   -4.0927 C   0  0  0  0  0  0  0  0  0  0  0  0
   27.8622  -18.2789   -5.1385 C   0  0  0  0  0  0  0  0  0  0  0  0
   27.7248  -18.9115   -6.3491 C   0  0  0  0  0  0  0  0  0  0  0  0
   25.7530  -21.0566   -7.0133 C   0  0  0  0  0  0  0  0  0  0  0  0
   24.7008  -20.1480   -7.0228 O   0  0  0  0  0  0  0  0  0  0  0  0
   25.9115  -21.7384   -5.9778 O   0  0  0  0  0  0  0  0  0  0  0  0
  2  1  1  6
  2  3  1  0
  4  2  1  0
  4  5  1  6
  6  8  1  0
  6  4  1  0
  7  6  2  0
  9  8  1  0
  9 10  1  6
 11 10  1  0
 12 11  1  0
 13 12  1  0
 14 13  1  0
 15  9  1  0
 15 16  2  0
 17 15  1  0
 18 17  1  0
 18 26  1  0
 19 20  1  0
 18 19  1  1
 20 25  2  0
 21 20  1  0
 22 21  2  0
 22 23  1  0
 23 24  2  0
 24 25  1  0
 26 28  2  0
 26 27  1  0
M  END
$$$$
