VKF.pdb
     RDKit          3D

 28 28  0  0  1  0  0  0  0  0999 V2000
   31.3429  -21.4314  -13.5559 C   0  0  0  0  0  0  0  0  0  0  0  0
   30.2909  -20.8869  -12.6141 C   0  0  2  0  0  0  0  0  0  0  0  0
   30.1928  -21.8199  -11.4397 C   0  0  0  0  0  0  0  0  0  0  0  0
   28.9853  -20.7894  -13.3876 C   0  0  2  0  0  0  0  0  0  0  0  0
   29.2277  -19.9075  -14.5059 N   0  0  0  0  0  0  0  0  0  0  0  0
   27.9049  -20.2178  -12.5542 C   0  0  0  0  0  0  0  0  0  0  0  0
   27.8708  -18.9712  -12.2780 O   0  0  0  0  0  0  0  0  0  0  0  0
   26.8771  -21.0071  -12.0325 N   0  0  0  0  0  0  0  0  0  0  0  0
   25.7845  -20.5134  -11.2243 C   0  0  1  0  0  0  0  0  0  0  0  0
   24.4972  -20.8418  -11.9467 C   0  0  0  0  0  0  0  0  0  0  0  0
   24.1897  -19.9230  -13.0673 C   0  0  0  0  0  0  0  0  0  0  0  0
   22.8884  -20.3130  -13.7098 C   0  0  0  0  0  0  0  0  0  0  0  0
   22.6237  -19.4519  -14.9148 C   0  0  0  0  0  0  0  0  0  0  0  0
   21.3947  -19.8514  -15.5918 N   0  0  0  0  0  0  0  0  0  0  0  0
   25.8269  -20.9965   -9.8417 C   0  0  0  0  0  0  0  0  0  0  0  0
   26.0403  -22.2137   -9.5348 O   0  0  0  0  0  0  0  0  0  0  0  0
   25.6271  -20.1086   -8.7494 N   0  0  0  0  0  0  0  0  0  0  0  0
   25.6466  -20.6043   -7.3589 C   0  0  1  0  0  0  0  0  0  0  0  0
   26.0060  -19.4778   -6.4476 C   0  0  0  0  0  0  0  0  0  0  0  0
   27.3598  -19.6675   -5.8764 C   0  0  0  0  0  0  0  0  0  0  0  0
   28.4199  -18.8488   -6.2772 C   0  0  0  0  0  0  0  0  0  0  0  0
   29.6803  -19.0039   -5.7459 C   0  0  0  0  0  0  0  0  0  0  0  0
   29.9352  -19.9818   -4.7933 C   0  0  0  0  0  0  0  0  0  0  0  0
   28.8968  -20.7849   -4.3994 C   0  0  0  0  0  0  0  0  0  0  0  0
   27.6424  -20.6246   -4.9333 C   0  0  0  0  0  0  0  0  0  0  0  0
   24.3564  -21.2385   -7.0628 C   0  0  0  0  0  0  0  0  0  0  0  0
   24.1863  -22.1265   -6.0066 O   0  0  0  0  0  0  0  0  0  0  0  0
   23.3555  -20.9904   -7.7692 O   0  0  0  0  0  0  0  0  0  0  0  0
  2  1  1  6
  2  3  1  0
  4  2  1  0
  4  5  1  6
  6  8  1  0
  6  4  1  0
  7  6  2  0
  9  8  1  0
  9 10  1  6
 11 10  1  0
 12 11  1  0
 13 12  1  0
 14 13  1  0
 15  9  1  0
 15 16  2  0
 17 15  1  0
 18 17  1  0
 18 26  1  0
 19 20  1  0
 18 19  1  1
 20 25  2  0
 21 20  1  0
 22 21  2  0
 22 23  1  0
 23 24  2  0
 24 25  1  0
 26 28  2  0
 26 27  1  0
M  END
$$$$
