VKF.pdb
     RDKit          3D

 28 28  0  0  1  0  0  0  0  0999 V2000
   26.7917  -11.9527  -16.1168 C   0  0  0  0  0  0  0  0  0  0  0  0
   26.3828  -13.1988  -15.3616 C   0  0  2  0  0  0  0  0  0  0  0  0
   27.5896  -14.0871  -15.2451 C   0  0  0  0  0  0  0  0  0  0  0  0
   25.2513  -13.8568  -16.1358 C   0  0  2  0  0  0  0  0  0  0  0  0
   25.8000  -14.2689  -17.4072 N   0  0  0  0  0  0  0  0  0  0  0  0
   24.1411  -12.9099  -16.3793 C   0  0  0  0  0  0  0  0  0  0  0  0
   24.1824  -12.0752  -17.3452 O   0  0  0  0  0  0  0  0  0  0  0  0
   23.0019  -12.8823  -15.5711 N   0  0  0  0  0  0  0  0  0  0  0  0
   21.8774  -11.9926  -15.7573 C   0  0  1  0  0  0  0  0  0  0  0  0
   20.6490  -12.6897  -15.2172 C   0  0  0  0  0  0  0  0  0  0  0  0
   19.4058  -11.8944  -15.3451 C   0  0  0  0  0  0  0  0  0  0  0  0
   18.5116  -12.5020  -16.3888 C   0  0  0  0  0  0  0  0  0  0  0  0
   17.2486  -11.6962  -16.5261 C   0  0  0  0  0  0  0  0  0  0  0  0
   16.4173  -12.1955  -17.6160 N   0  0  0  0  0  0  0  0  0  0  0  0
   22.0981  -10.6594  -15.1913 C   0  0  0  0  0  0  0  0  0  0  0  0
   22.7373  -10.4589  -14.1085 O   0  0  0  0  0  0  0  0  0  0  0  0
   21.5974   -9.4969  -15.8389 N   0  0  0  0  0  0  0  0  0  0  0  0
   21.8700   -8.1518  -15.2948 C   0  0  1  0  0  0  0  0  0  0  0  0
   22.6460   -7.3695  -16.3020 C   0  0  0  0  0  0  0  0  0  0  0  0
   21.8066   -7.0333  -17.4755 C   0  0  0  0  0  0  0  0  0  0  0  0
   21.8677   -7.8090  -18.6371 C   0  0  0  0  0  0  0  0  0  0  0  0
   21.0844   -7.5172  -19.7308 C   0  0  0  0  0  0  0  0  0  0  0  0
   20.2081   -6.4400  -19.7111 C   0  0  0  0  0  0  0  0  0  0  0  0
   20.1471   -5.6788  -18.5730 C   0  0  0  0  0  0  0  0  0  0  0  0
   20.9311   -5.9756  -17.4859 C   0  0  0  0  0  0  0  0  0  0  0  0
   20.5997   -7.5357  -14.8932 C   0  0  0  0  0  0  0  0  0  0  0  0
   20.5417   -6.3706  -14.1367 O   0  0  0  0  0  0  0  0  0  0  0  0
   19.5136   -8.0550  -15.2289 O   0  0  0  0  0  0  0  0  0  0  0  0
  2  1  1  6
  2  3  1  0
  4  2  1  0
  4  5  1  6
  6  8  1  0
  6  4  1  0
  7  6  2  0
  9  8  1  0
  9 10  1  1
 11 10  1  0
 12 11  1  0
 13 12  1  0
 14 13  1  0
 15  9  1  0
 15 16  2  0
 17 15  1  0
 18 17  1  0
 18 26  1  0
 19 20  1  0
 18 19  1  6
 20 25  2  0
 21 20  1  0
 22 21  2  0
 22 23  1  0
 23 24  2  0
 24 25  1  0
 26 28  2  0
 26 27  1  0
M  END
$$$$
