VKF.pdb
     RDKit          3D

 28 28  0  0  1  0  0  0  0  0999 V2000
   15.1033   -7.7786  -17.0861 C   0  0  0  0  0  0  0  0  0  0  0  0
   14.8506   -8.8809  -18.0917 C   0  0  2  0  0  0  0  0  0  0  0  0
   13.3634   -9.0419  -18.2389 C   0  0  0  0  0  0  0  0  0  0  0  0
   15.5216  -10.1426  -17.5715 C   0  0  2  0  0  0  0  0  0  0  0  0
   14.8126  -10.5286  -16.3733 N   0  0  0  0  0  0  0  0  0  0  0  0
   16.9399   -9.8983  -17.2292 C   0  0  0  0  0  0  0  0  0  0  0  0
   17.2893   -9.5792  -16.0428 O   0  0  0  0  0  0  0  0  0  0  0  0
   17.9587  -10.0038  -18.1792 N   0  0  0  0  0  0  0  0  0  0  0  0
   19.3663   -9.8164  -17.9063 C   0  0  1  0  0  0  0  0  0  0  0  0
   20.1379  -10.3833  -19.0767 C   0  0  0  0  0  0  0  0  0  0  0  0
   21.6020  -10.1780  -18.9830 C   0  0  0  0  0  0  0  0  0  0  0  0
   22.2718  -11.4471  -18.5371 C   0  0  0  0  0  0  0  0  0  0  0  0
   23.7632  -11.2570  -18.4806 C   0  0  0  0  0  0  0  0  0  0  0  0
   24.4227  -12.4143  -17.8856 N   0  0  0  0  0  0  0  0  0  0  0  0
   19.7111   -8.4288  -17.5866 C   0  0  0  0  0  0  0  0  0  0  0  0
   19.2843   -7.4327  -18.2551 O   0  0  0  0  0  0  0  0  0  0  0  0
   20.5593   -8.1195  -16.4883 N   0  0  0  0  0  0  0  0  0  0  0  0
   21.0097   -6.7343  -16.2477 C   0  0  1  0  0  0  0  0  0  0  0  0
   20.5962   -6.3217  -14.8739 C   0  0  0  0  0  0  0  0  0  0  0  0
   21.0759   -4.9551  -14.5623 C   0  0  0  0  0  0  0  0  0  0  0  0
   20.3499   -3.8359  -14.9805 C   0  0  0  0  0  0  0  0  0  0  0  0
   20.7756   -2.5600  -14.6874 C   0  0  0  0  0  0  0  0  0  0  0  0
   21.9427   -2.3480  -13.9652 C   0  0  0  0  0  0  0  0  0  0  0  0
   22.6553   -3.4443  -13.5545 C   0  0  0  0  0  0  0  0  0  0  0  0
   22.2249   -4.7138  -13.8503 C   0  0  0  0  0  0  0  0  0  0  0  0
   22.4538   -6.6543  -16.4981 C   0  0  0  0  0  0  0  0  0  0  0  0
   23.2695   -7.7798  -16.5284 O   0  0  0  0  0  0  0  0  0  0  0  0
   22.9988   -5.5468  -16.6950 O   0  0  0  0  0  0  0  0  0  0  0  0
  2  1  1  1
  2  3  1  0
  4  2  1  0
  4  5  1  1
  6  8  1  0
  6  4  1  0
  7  6  2  0
  9  8  1  0
  9 10  1  6
 11 10  1  0
 12 11  1  0
 13 12  1  0
 14 13  1  0
 15  9  1  0
 15 16  2  0
 17 15  1  0
 18 17  1  0
 18 26  1  0
 19 20  1  0
 18 19  1  1
 20 25  2  0
 21 20  1  0
 22 21  2  0
 22 23  1  0
 23 24  2  0
 24 25  1  0
 26 28  2  0
 26 27  1  0
M  END
$$$$
