VKF.pdb
     RDKit          3D

 28 28  0  0  1  0  0  0  0  0999 V2000
   26.4871  -20.9505  -18.9321 C   0  0  0  0  0  0  0  0  0  0  0  0
   27.7245  -20.3466  -18.3040 C   0  0  2  0  0  0  0  0  0  0  0  0
   28.8753  -20.5630  -19.2463 C   0  0  0  0  0  0  0  0  0  0  0  0
   27.9390  -21.0271  -16.9611 C   0  0  2  0  0  0  0  0  0  0  0  0
   28.1025  -22.4372  -17.2292 N   0  0  0  0  0  0  0  0  0  0  0  0
   26.7730  -20.8427  -16.0696 C   0  0  0  0  0  0  0  0  0  0  0  0
   26.4018  -19.6787  -15.6970 O   0  0  0  0  0  0  0  0  0  0  0  0
   26.0264  -21.9240  -15.5952 N   0  0  0  0  0  0  0  0  0  0  0  0
   24.9803  -21.8337  -14.6010 C   0  0  1  0  0  0  0  0  0  0  0  0
   23.8993  -22.8191  -14.9846 C   0  0  0  0  0  0  0  0  0  0  0  0
   22.7381  -22.8203  -14.0649 C   0  0  0  0  0  0  0  0  0  0  0  0
   21.7707  -23.9006  -14.4592 C   0  0  0  0  0  0  0  0  0  0  0  0
   20.3665  -23.5002  -14.0969 C   0  0  0  0  0  0  0  0  0  0  0  0
   20.1416  -23.5995  -12.6589 N   0  0  0  0  0  0  0  0  0  0  0  0
   25.4723  -21.9988  -13.2309 C   0  0  0  0  0  0  0  0  0  0  0  0
   26.1743  -22.9933  -12.8574 O   0  0  0  0  0  0  0  0  0  0  0  0
   25.1830  -21.0337  -12.2277 N   0  0  0  0  0  0  0  0  0  0  0  0
   25.7462  -21.1633  -10.8692 C   0  0  1  0  0  0  0  0  0  0  0  0
   26.8661  -20.1884  -10.7137 C   0  0  0  0  0  0  0  0  0  0  0  0
   27.3292  -20.1308   -9.3076 C   0  0  0  0  0  0  0  0  0  0  0  0
   26.6463  -19.3538   -8.3670 C   0  0  0  0  0  0  0  0  0  0  0  0
   27.0563  -19.3004   -7.0541 C   0  0  0  0  0  0  0  0  0  0  0  0
   28.1642  -20.0197   -6.6252 C   0  0  0  0  0  0  0  0  0  0  0  0
   28.8345  -20.7819   -7.5461 C   0  0  0  0  0  0  0  0  0  0  0  0
   28.4200  -20.8305   -8.8539 C   0  0  0  0  0  0  0  0  0  0  0  0
   24.6641  -21.0082   -9.8897 C   0  0  0  0  0  0  0  0  0  0  0  0
   24.6717  -21.6572   -8.6603 O   0  0  0  0  0  0  0  0  0  0  0  0
   23.6863  -20.2717  -10.1424 O   0  0  0  0  0  0  0  0  0  0  0  0
  2  1  1  6
  2  3  1  0
  4  2  1  0
  4  5  1  6
  6  8  1  0
  6  4  1  0
  7  6  2  0
  9  8  1  0
  9 10  1  6
 11 10  1  0
 12 11  1  0
 13 12  1  0
 14 13  1  0
 15  9  1  0
 15 16  2  0
 17 15  1  0
 18 17  1  0
 18 26  1  0
 19 20  1  0
 18 19  1  1
 20 25  2  0
 21 20  1  0
 22 21  2  0
 22 23  1  0
 23 24  2  0
 24 25  1  0
 26 28  2  0
 26 27  1  0
M  END
$$$$
