VKF.pdb
     RDKit          3D

 28 28  0  0  1  0  0  0  0  0999 V2000
   26.8882  -16.7215  -14.0889 C   0  0  0  0  0  0  0  0  0  0  0  0
   27.2513  -17.1687  -15.4884 C   0  0  2  0  0  0  0  0  0  0  0  0
   27.6483  -15.9514  -16.2756 C   0  0  0  0  0  0  0  0  0  0  0  0
   26.0374  -17.8699  -16.0780 C   0  0  2  0  0  0  0  0  0  0  0  0
   25.0119  -16.8649  -16.2381 N   0  0  0  0  0  0  0  0  0  0  0  0
   25.5328  -18.9274  -15.1750 C   0  0  0  0  0  0  0  0  0  0  0  0
   24.5281  -18.7237  -14.4131 O   0  0  0  0  0  0  0  0  0  0  0  0
   26.1256  -20.1908  -15.1117 N   0  0  0  0  0  0  0  0  0  0  0  0
   25.7063  -21.2576  -14.2302 C   0  0  1  0  0  0  0  0  0  0  0  0
   25.9620  -22.5664  -14.9432 C   0  0  0  0  0  0  0  0  0  0  0  0
   25.3625  -23.7413  -14.2689 C   0  0  0  0  0  0  0  0  0  0  0  0
   23.9259  -23.8942  -14.6826 C   0  0  0  0  0  0  0  0  0  0  0  0
   23.3004  -25.0630  -13.9713 C   0  0  0  0  0  0  0  0  0  0  0  0
   21.8727  -25.1547  -14.2567 N   0  0  0  0  0  0  0  0  0  0  0  0
   26.3166  -21.1791  -12.9005 C   0  0  0  0  0  0  0  0  0  0  0  0
   27.5570  -20.9600  -12.7146 O   0  0  0  0  0  0  0  0  0  0  0  0
   25.5348  -21.3479  -11.7250 N   0  0  0  0  0  0  0  0  0  0  0  0
   26.1476  -21.2334  -10.3867 C   0  0  1  0  0  0  0  0  0  0  0  0
   26.8384  -19.9143  -10.2811 C   0  0  0  0  0  0  0  0  0  0  0  0
   27.3385  -19.6848   -8.9055 C   0  0  0  0  0  0  0  0  0  0  0  0
   28.4861  -20.3401   -8.4493 C   0  0  0  0  0  0  0  0  0  0  0  0
   28.9707  -20.1273   -7.1785 C   0  0  0  0  0  0  0  0  0  0  0  0
   28.3306  -19.2523   -6.3106 C   0  0  0  0  0  0  0  0  0  0  0  0
   27.2054  -18.6092   -6.7565 C   0  0  0  0  0  0  0  0  0  0  0  0
   26.7278  -18.8261   -8.0251 C   0  0  0  0  0  0  0  0  0  0  0  0
   25.1139  -21.4621   -9.3700 C   0  0  0  0  0  0  0  0  0  0  0  0
   23.8613  -20.8619   -9.4311 O   0  0  0  0  0  0  0  0  0  0  0  0
   25.3393  -22.2195   -8.4016 O   0  0  0  0  0  0  0  0  0  0  0  0
  2  1  1  1
  2  3  1  0
  4  2  1  0
  4  5  1  1
  6  8  1  0
  6  4  1  0
  7  6  2  0
  9  8  1  0
  9 10  1  6
 11 10  1  0
 12 11  1  0
 13 12  1  0
 14 13  1  0
 15  9  1  0
 15 16  2  0
 17 15  1  0
 18 17  1  0
 18 26  1  0
 19 20  1  0
 18 19  1  1
 20 25  2  0
 21 20  1  0
 22 21  2  0
 22 23  1  0
 23 24  2  0
 24 25  1  0
 26 28  2  0
 26 27  1  0
M  END
$$$$
