VKF.pdb
     RDKit          3D

 28 28  0  0  1  0  0  0  0  0999 V2000
   19.1260  -13.8741  -15.7483 C   0  0  0  0  0  0  0  0  0  0  0  0
   18.2922  -13.8687  -17.0113 C   0  0  2  0  0  0  0  0  0  0  0  0
   17.8922  -15.2867  -17.3086 C   0  0  0  0  0  0  0  0  0  0  0  0
   19.1376  -13.2604  -18.1194 C   0  0  2  0  0  0  0  0  0  0  0  0
   20.2344  -14.1707  -18.3550 N   0  0  0  0  0  0  0  0  0  0  0  0
   19.6856  -11.9454  -17.7209 C   0  0  0  0  0  0  0  0  0  0  0  0
   20.8687  -11.8356  -17.2522 O   0  0  0  0  0  0  0  0  0  0  0  0
   18.9421  -10.7684  -17.8367 N   0  0  0  0  0  0  0  0  0  0  0  0
   19.4497   -9.4404  -17.5731 C   0  0  1  0  0  0  0  0  0  0  0  0
   18.6818   -8.4757  -18.4485 C   0  0  0  0  0  0  0  0  0  0  0  0
   19.4944   -7.8749  -19.5316 C   0  0  0  0  0  0  0  0  0  0  0  0
   19.2447   -8.5994  -20.8242 C   0  0  0  0  0  0  0  0  0  0  0  0
   20.1156   -8.0360  -21.9140 C   0  0  0  0  0  0  0  0  0  0  0  0
   19.9448   -8.7715  -23.1623 N   0  0  0  0  0  0  0  0  0  0  0  0
   19.4339   -9.0897  -16.1506 C   0  0  0  0  0  0  0  0  0  0  0  0
   18.5168   -9.4640  -15.3506 O   0  0  0  0  0  0  0  0  0  0  0  0
   20.4664   -8.2956  -15.5807 N   0  0  0  0  0  0  0  0  0  0  0  0
   20.4848   -8.0048  -14.1335 C   0  0  1  0  0  0  0  0  0  0  0  0
   21.9026   -7.9198  -13.6740 C   0  0  0  0  0  0  0  0  0  0  0  0
   22.6232   -6.8297  -14.3721 C   0  0  0  0  0  0  0  0  0  0  0  0
   23.4153   -7.1055  -15.4907 C   0  0  0  0  0  0  0  0  0  0  0  0
   24.0804   -6.1018  -16.1580 C   0  0  0  0  0  0  0  0  0  0  0  0
   23.9827   -4.7819  -15.7371 C   0  0  0  0  0  0  0  0  0  0  0  0
   23.2065   -4.5102  -14.6407 C   0  0  0  0  0  0  0  0  0  0  0  0
   22.5460   -5.5161  -13.9801 C   0  0  0  0  0  0  0  0  0  0  0  0
   19.6902   -6.7965  -13.8817 C   0  0  0  0  0  0  0  0  0  0  0  0
   19.3276   -6.3953  -12.6010 O   0  0  0  0  0  0  0  0  0  0  0  0
   19.3111   -6.0819  -14.8345 O   0  0  0  0  0  0  0  0  0  0  0  0
  2  1  1  1
  2  3  1  0
  4  2  1  0
  4  5  1  1
  6  8  1  0
  6  4  1  0
  7  6  2  0
  9  8  1  0
  9 10  1  6
 11 10  1  0
 12 11  1  0
 13 12  1  0
 14 13  1  0
 15  9  1  0
 15 16  2  0
 17 15  1  0
 18 17  1  0
 18 26  1  0
 19 20  1  0
 18 19  1  6
 20 25  2  0
 21 20  1  0
 22 21  2  0
 22 23  1  0
 23 24  2  0
 24 25  1  0
 26 28  2  0
 26 27  1  0
M  END
$$$$
