VKF.pdb
     RDKit          3D

 28 28  0  0  1  0  0  0  0  0999 V2000
   23.8641  -17.2850  -20.1785 C   0  0  0  0  0  0  0  0  0  0  0  0
   22.7650  -16.4584  -19.5469 C   0  0  2  0  0  0  0  0  0  0  0  0
   22.9115  -15.0437  -20.0331 C   0  0  0  0  0  0  0  0  0  0  0  0
   22.9126  -16.5710  -18.0376 C   0  0  2  0  0  0  0  0  0  0  0  0
   24.1394  -15.8935  -17.6866 N   0  0  0  0  0  0  0  0  0  0  0  0
   23.0073  -17.9833  -17.6078 C   0  0  0  0  0  0  0  0  0  0  0  0
   22.0401  -18.7974  -17.7904 O   0  0  0  0  0  0  0  0  0  0  0  0
   24.1502  -18.4921  -16.9861 N   0  0  0  0  0  0  0  0  0  0  0  0
   24.2441  -19.7960  -16.3680 C   0  0  1  0  0  0  0  0  0  0  0  0
   25.6898  -20.2333  -16.4417 C   0  0  0  0  0  0  0  0  0  0  0  0
   25.9532  -21.5384  -15.7922 C   0  0  0  0  0  0  0  0  0  0  0  0
   26.2707  -22.5757  -16.8321 C   0  0  0  0  0  0  0  0  0  0  0  0
   26.4833  -23.9162  -16.1830 C   0  0  0  0  0  0  0  0  0  0  0  0
   26.8840  -24.9211  -17.1616 N   0  0  0  0  0  0  0  0  0  0  0  0
   23.6827  -19.8338  -15.0153 C   0  0  0  0  0  0  0  0  0  0  0  0
   24.1425  -19.1421  -14.0502 O   0  0  0  0  0  0  0  0  0  0  0  0
   22.5708  -20.6644  -14.7069 N   0  0  0  0  0  0  0  0  0  0  0  0
   22.0619  -20.7639  -13.3247 C   0  0  1  0  0  0  0  0  0  0  0  0
   21.7469  -19.3932  -12.8241 C   0  0  0  0  0  0  0  0  0  0  0  0
   21.1219  -19.4479  -11.4820 C   0  0  0  0  0  0  0  0  0  0  0  0
   21.9133  -19.4305  -10.3296 C   0  0  0  0  0  0  0  0  0  0  0  0
   21.3469  -19.4675   -9.0755 C   0  0  0  0  0  0  0  0  0  0  0  0
   19.9680  -19.5234   -8.9192 C   0  0  0  0  0  0  0  0  0  0  0  0
   19.1911  -19.5405  -10.0481 C   0  0  0  0  0  0  0  0  0  0  0  0
   19.7627  -19.5033  -11.2956 C   0  0  0  0  0  0  0  0  0  0  0  0
   20.9277  -21.6953  -13.3021 C   0  0  0  0  0  0  0  0  0  0  0  0
   20.6564  -22.5146  -12.2121 O   0  0  0  0  0  0  0  0  0  0  0  0
   20.1598  -21.7770  -14.2849 O   0  0  0  0  0  0  0  0  0  0  0  0
  2  1  1  6
  2  3  1  0
  4  2  1  0
  4  5  1  6
  6  8  1  0
  6  4  1  0
  7  6  2  0
  9  8  1  0
  9 10  1  1
 11 10  1  0
 12 11  1  0
 13 12  1  0
 14 13  1  0
 15  9  1  0
 15 16  2  0
 17 15  1  0
 18 17  1  0
 18 26  1  0
 19 20  1  0
 18 19  1  6
 20 25  2  0
 21 20  1  0
 22 21  2  0
 22 23  1  0
 23 24  2  0
 24 25  1  0
 26 28  2  0
 26 27  1  0
M  END
$$$$
