VKF.pdb
     RDKit          3D

 28 28  0  0  1  0  0  0  0  0999 V2000
   15.8168  -21.2868    4.2617 C   0  0  0  0  0  0  0  0  0  0  0  0
   14.7401  -20.3218    3.8147 C   0  0  2  0  0  0  0  0  0  0  0  0
   13.6626  -21.1147    3.1294 C   0  0  0  0  0  0  0  0  0  0  0  0
   15.3882  -19.3038    2.8894 C   0  0  2  0  0  0  0  0  0  0  0  0
   15.7768  -20.0150    1.6934 N   0  0  0  0  0  0  0  0  0  0  0  0
   16.5945  -18.7069    3.5031 C   0  0  0  0  0  0  0  0  0  0  0  0
   17.7642  -19.1282    3.2100 O   0  0  0  0  0  0  0  0  0  0  0  0
   16.5145  -17.6614    4.4263 N   0  0  0  0  0  0  0  0  0  0  0  0
   17.6317  -17.1352    5.1784 C   0  0  1  0  0  0  0  0  0  0  0  0
   17.2875  -15.7173    5.5758 C   0  0  0  0  0  0  0  0  0  0  0  0
   18.3961  -14.9986    6.2458 C   0  0  0  0  0  0  0  0  0  0  0  0
   18.0503  -13.5439    6.3947 C   0  0  0  0  0  0  0  0  0  0  0  0
   19.1691  -12.8101    7.0829 C   0  0  0  0  0  0  0  0  0  0  0  0
   18.9080  -11.3758    7.1364 N   0  0  0  0  0  0  0  0  0  0  0  0
   18.0200  -17.9877    6.3049 C   0  0  0  0  0  0  0  0  0  0  0  0
   17.2306  -18.8247    6.8503 O   0  0  0  0  0  0  0  0  0  0  0  0
   19.3285  -17.9202    6.8572 N   0  0  0  0  0  0  0  0  0  0  0  0
   19.8030  -18.9482    7.8045 C   0  0  1  0  0  0  0  0  0  0  0  0
   19.6886  -20.2904    7.1610 C   0  0  0  0  0  0  0  0  0  0  0  0
   20.1181  -21.3629    8.0884 C   0  0  0  0  0  0  0  0  0  0  0  0
   19.2022  -21.9509    8.9659 C   0  0  0  0  0  0  0  0  0  0  0  0
   19.5829  -22.9575    9.8242 C   0  0  0  0  0  0  0  0  0  0  0  0
   20.8926  -23.4191    9.8426 C   0  0  0  0  0  0  0  0  0  0  0  0
   21.7915  -22.8436    8.9829 C   0  0  0  0  0  0  0  0  0  0  0  0
   21.4049  -21.8402    8.1295 C   0  0  0  0  0  0  0  0  0  0  0  0
   21.1587  -18.5983    8.2451 C   0  0  0  0  0  0  0  0  0  0  0  0
   22.0950  -18.0230    7.3934 O   0  0  0  0  0  0  0  0  0  0  0  0
   21.5134  -18.8138    9.4241 O   0  0  0  0  0  0  0  0  0  0  0  0
  2  1  1  6
  2  3  1  0
  4  2  1  0
  4  5  1  6
  6  8  1  0
  6  4  1  0
  7  6  2  0
  9  8  1  0
  9 10  1  1
 11 10  1  0
 12 11  1  0
 13 12  1  0
 14 13  1  0
 15  9  1  0
 15 16  2  0
 17 15  1  0
 18 17  1  0
 18 26  1  0
 19 20  1  0
 18 19  1  6
 20 25  2  0
 21 20  1  0
 22 21  2  0
 22 23  1  0
 23 24  2  0
 24 25  1  0
 26 28  2  0
 26 27  1  0
M  END
$$$$
