KIH.pdb
     RDKit          3D

 28 28  0  0  1  0  0  0  0  0999 V2000
    8.6864  -15.0580   20.1222 N   0  0  0  0  0  0  0  0  0  0  0  0
    7.8509  -15.5118   21.1914 C   0  0  1  0  0  0  0  0  0  0  0  0
    7.5671  -16.9955   21.1053 C   0  0  0  0  0  0  0  0  0  0  0  0
    7.1934  -17.4401   19.7354 C   0  0  0  0  0  0  0  0  0  0  0  0
    7.7769  -18.7394   19.3126 C   0  0  0  0  0  0  0  0  0  0  0  0
    7.3016  -19.2088   17.9594 C   0  0  0  0  0  0  0  0  0  0  0  0
    7.9568  -20.5066   17.7286 N   0  0  0  0  0  0  0  0  0  0  0  0
    8.4111  -15.1941   22.5307 C   0  0  0  0  0  0  0  0  0  0  0  0
    9.6705  -15.2391   22.6611 O   0  0  0  0  0  0  0  0  0  0  0  0
    5.7997  -11.6209   25.7411 C   0  0  0  0  0  0  0  0  0  0  0  0
    6.8637  -12.4098   24.9335 C   0  0  0  0  0  0  0  0  0  0  0  0
    7.2201  -13.6269   25.6931 C   0  0  2  0  0  0  0  0  0  0  0  0
    7.8975  -13.2653   27.0147 C   0  0  0  0  0  0  0  0  0  0  0  0
    8.1534  -14.5505   24.9740 C   0  0  2  0  0  0  0  0  0  0  0  0
    7.6071  -14.8504   23.6424 N   0  0  0  0  0  0  0  0  0  0  0  0
    8.2554  -15.8288   25.7046 C   0  0  0  0  0  0  0  0  0  0  0  0
    7.7141  -16.8595   25.1825 O   0  0  0  0  0  0  0  0  0  0  0  0
    8.9100  -16.0272   26.9437 N   0  0  0  0  0  0  0  0  0  0  0  0
   10.0489  -16.9397   27.0059 C   0  0  1  0  0  0  0  0  0  0  0  0
   11.1721  -16.4377   26.1173 C   0  0  0  0  0  0  0  0  0  0  0  0
   11.3379  -17.3068   24.9273 C   0  0  0  0  0  0  0  0  0  0  0  0
   10.6098  -18.4130   24.5841 C   0  0  0  0  0  0  0  0  0  0  0  0
   11.1124  -18.8727   23.4368 N   0  0  0  0  0  0  0  0  0  0  0  0
   12.1272  -18.0687   23.0806 C   0  0  0  0  0  0  0  0  0  0  0  0
   12.2805  -17.0927   23.9935 N   0  0  0  0  0  0  0  0  0  0  0  0
   10.6098  -17.0641   28.3648 C   0  0  0  0  0  0  0  0  0  0  0  0
   10.9281  -15.9211   29.0681 O   0  0  0  0  0  0  0  0  0  0  0  0
   10.8120  -18.1780   28.9142 O   0  0  0  0  0  0  0  0  0  0  0  0
  2  1  1  6
  2  3  1  0
  3  4  1  0
  4  5  1  0
  5  6  1  0
  7  6  1  0
  8  2  1  0
  9  8  2  0
 10 11  1  0
 11 12  1  0
 12 14  1  0
 12 13  1  1
 14 15  1  6
 15  8  1  0
 16 14  1  0
 16 18  1  0
 17 16  2  0
 19 18  1  0
 19 26  1  0
 19 20  1  6
 20 21  1  0
 21 25  1  0
 22 21  2  0
 22 23  1  0
 23 24  1  0
 25 24  2  0
 26 27  1  0
 28 26  2  0
M  END
$$$$
