KIH.pdb
     RDKit          3D

 28 28  0  0  1  0  0  0  0  0999 V2000
    7.3938  -14.6362   20.1496 N   0  0  0  0  0  0  0  0  0  0  0  0
    6.9601  -15.1922   21.3945 C   0  0  1  0  0  0  0  0  0  0  0  0
    6.8368  -16.6991   21.3358 C   0  0  0  0  0  0  0  0  0  0  0  0
    7.1758  -17.2612   20.0005 C   0  0  0  0  0  0  0  0  0  0  0  0
    6.8577  -18.7016   19.8231 C   0  0  0  0  0  0  0  0  0  0  0  0
    7.1635  -19.2271   18.4418 C   0  0  0  0  0  0  0  0  0  0  0  0
    6.7922  -20.6514   18.4597 N   0  0  0  0  0  0  0  0  0  0  0  0
    7.8421  -14.8138   22.5291 C   0  0  0  0  0  0  0  0  0  0  0  0
    9.0812  -14.6993   22.2911 O   0  0  0  0  0  0  0  0  0  0  0  0
    6.0460  -11.4813   26.4956 C   0  0  0  0  0  0  0  0  0  0  0  0
    6.9731  -12.1286   25.4334 C   0  0  0  0  0  0  0  0  0  0  0  0
    7.4554  -13.4232   25.9598 C   0  0  2  0  0  0  0  0  0  0  0  0
    8.3710  -13.2136   27.1656 C   0  0  0  0  0  0  0  0  0  0  0  0
    8.2300  -14.2394   24.9725 C   0  0  2  0  0  0  0  0  0  0  0  0
    7.3595  -14.5814   23.8382 N   0  0  0  0  0  0  0  0  0  0  0  0
    8.6571  -15.5073   25.5958 C   0  0  0  0  0  0  0  0  0  0  0  0
    7.7530  -16.2773   26.0622 O   0  0  0  0  0  0  0  0  0  0  0  0
    9.9913  -15.9620   25.7231 N   0  0  0  0  0  0  0  0  0  0  0  0
   10.2410  -17.2663   26.3316 C   0  0  1  0  0  0  0  0  0  0  0  0
   11.5947  -17.7971   25.8972 C   0  0  0  0  0  0  0  0  0  0  0  0
   11.6501  -17.9726   24.4257 C   0  0  0  0  0  0  0  0  0  0  0  0
   10.6049  -18.1118   23.5541 C   0  0  0  0  0  0  0  0  0  0  0  0
   11.1272  -18.2420   22.3333 N   0  0  0  0  0  0  0  0  0  0  0  0
   12.4637  -18.1845   22.4492 C   0  0  0  0  0  0  0  0  0  0  0  0
   12.8049  -18.0177   23.7397 N   0  0  0  0  0  0  0  0  0  0  0  0
   10.2611  -17.2162   27.8060 C   0  0  0  0  0  0  0  0  0  0  0  0
   10.4235  -18.3872   28.5165 O   0  0  0  0  0  0  0  0  0  0  0  0
   10.1350  -16.1415   28.4484 O   0  0  0  0  0  0  0  0  0  0  0  0
  2  1  1  6
  2  3  1  0
  3  4  1  0
  4  5  1  0
  5  6  1  0
  7  6  1  0
  8  2  1  0
  9  8  2  0
 10 11  1  0
 11 12  1  0
 12 14  1  0
 12 13  1  1
 14 15  1  6
 15  8  1  0
 16 14  1  0
 16 18  1  0
 17 16  2  0
 19 18  1  0
 19 26  1  0
 19 20  1  6
 20 21  1  0
 21 25  1  0
 22 21  2  0
 22 23  1  0
 23 24  1  0
 25 24  2  0
 26 27  1  0
 28 26  2  0
M  END
$$$$
