KIH.pdb
     RDKit          3D

 28 28  0  0  1  0  0  0  0  0999 V2000
    7.3694  -15.5856   20.0815 N   0  0  0  0  0  0  0  0  0  0  0  0
    7.2407  -16.0341   21.4341 C   0  0  1  0  0  0  0  0  0  0  0  0
    7.5799  -17.5008   21.5849 C   0  0  0  0  0  0  0  0  0  0  0  0
    7.2618  -18.3016   20.3719 C   0  0  0  0  0  0  0  0  0  0  0  0
    7.3954  -19.7724   20.5338 C   0  0  0  0  0  0  0  0  0  0  0  0
    6.9730  -20.5599   19.3177 C   0  0  0  0  0  0  0  0  0  0  0  0
    7.2474  -21.9710   19.6343 N   0  0  0  0  0  0  0  0  0  0  0  0
    8.0629  -15.2381   22.3822 C   0  0  0  0  0  0  0  0  0  0  0  0
    9.2017  -14.8517   21.9837 O   0  0  0  0  0  0  0  0  0  0  0  0
    5.6315  -11.9462   26.0786 C   0  0  0  0  0  0  0  0  0  0  0  0
    6.6333  -12.4278   24.9965 C   0  0  0  0  0  0  0  0  0  0  0  0
    7.5320  -13.4319   25.6045 C   0  0  2  0  0  0  0  0  0  0  0  0
    8.4322  -12.7892   26.6594 C   0  0  0  0  0  0  0  0  0  0  0  0
    8.4387  -14.1173   24.6301 C   0  0  2  0  0  0  0  0  0  0  0  0
    7.6301  -14.9027   23.6863 N   0  0  0  0  0  0  0  0  0  0  0  0
    9.3201  -15.0615   25.3443 C   0  0  0  0  0  0  0  0  0  0  0  0
    8.8069  -16.1469   25.7761 O   0  0  0  0  0  0  0  0  0  0  0  0
   10.7011  -14.8805   25.5955 N   0  0  0  0  0  0  0  0  0  0  0  0
   11.4559  -15.9631   26.2215 C   0  0  1  0  0  0  0  0  0  0  0  0
   10.5467  -16.7892   27.1125 C   0  0  0  0  0  0  0  0  0  0  0  0
   10.3231  -16.1158   28.4147 C   0  0  0  0  0  0  0  0  0  0  0  0
   10.4983  -14.7939   28.7205 C   0  0  0  0  0  0  0  0  0  0  0  0
   10.1768  -14.6431   30.0066 N   0  0  0  0  0  0  0  0  0  0  0  0
    9.8118  -15.8442   30.4831 C   0  0  0  0  0  0  0  0  0  0  0  0
    9.8967  -16.7685   29.5094 N   0  0  0  0  0  0  0  0  0  0  0  0
   12.0434  -16.8943   25.2395 C   0  0  0  0  0  0  0  0  0  0  0  0
   13.1262  -17.6651   25.6079 O   0  0  0  0  0  0  0  0  0  0  0  0
   11.5950  -17.0161   24.0700 O   0  0  0  0  0  0  0  0  0  0  0  0
  2  1  1  6
  2  3  1  0
  3  4  1  0
  4  5  1  0
  5  6  1  0
  7  6  1  0
  8  2  1  0
  9  8  2  0
 10 11  1  0
 11 12  1  0
 12 14  1  0
 12 13  1  1
 14 15  1  6
 15  8  1  0
 16 14  1  0
 16 18  1  0
 17 16  2  0
 19 18  1  0
 19 26  1  0
 19 20  1  1
 20 21  1  0
 21 25  1  0
 22 21  2  0
 22 23  1  0
 23 24  1  0
 25 24  2  0
 26 27  1  0
 28 26  2  0
M  END
$$$$
