KIH.pdb
     RDKit          3D

 28 28  0  0  1  0  0  0  0  0999 V2000
    8.4788  -12.9263   20.0037 N   0  0  0  0  0  0  0  0  0  0  0  0
    7.8132  -13.9149   20.7953 C   0  0  1  0  0  0  0  0  0  0  0  0
    7.9315  -15.3001   20.1984 C   0  0  0  0  0  0  0  0  0  0  0  0
    7.5553  -15.3502   18.7597 C   0  0  0  0  0  0  0  0  0  0  0  0
    7.4979  -16.7125   18.1696 C   0  0  0  0  0  0  0  0  0  0  0  0
    7.0184  -16.7367   16.7388 C   0  0  0  0  0  0  0  0  0  0  0  0
    6.9806  -18.1556   16.3490 N   0  0  0  0  0  0  0  0  0  0  0  0
    8.2935  -13.9415   22.2014 C   0  0  0  0  0  0  0  0  0  0  0  0
    9.5433  -13.8585   22.3919 O   0  0  0  0  0  0  0  0  0  0  0  0
    5.6494  -11.2304   26.0202 C   0  0  0  0  0  0  0  0  0  0  0  0
    6.7539  -11.8687   25.1375 C   0  0  0  0  0  0  0  0  0  0  0  0
    6.9249  -13.2784   25.5484 C   0  0  2  0  0  0  0  0  0  0  0  0
    7.4318  -13.3685   26.9876 C   0  0  0  0  0  0  0  0  0  0  0  0
    7.8910  -14.0526   24.7066 C   0  0  2  0  0  0  0  0  0  0  0  0
    7.4251  -14.0536   23.3122 N   0  0  0  0  0  0  0  0  0  0  0  0
    7.9334  -15.4577   25.1561 C   0  0  0  0  0  0  0  0  0  0  0  0
    7.0606  -16.2612   24.6867 O   0  0  0  0  0  0  0  0  0  0  0  0
    8.8657  -16.0106   26.0663 N   0  0  0  0  0  0  0  0  0  0  0  0
    9.6320  -17.1888   25.6683 C   0  0  1  0  0  0  0  0  0  0  0  0
   10.3610  -16.9242   24.3639 C   0  0  0  0  0  0  0  0  0  0  0  0
   11.0115  -18.1573   23.8584 C   0  0  0  0  0  0  0  0  0  0  0  0
   10.4898  -19.0998   23.0152 C   0  0  0  0  0  0  0  0  0  0  0  0
   11.4303  -20.0291   22.8360 N   0  0  0  0  0  0  0  0  0  0  0  0
   12.5072  -19.6681   23.5522 C   0  0  0  0  0  0  0  0  0  0  0  0
   12.2647  -18.5100   24.1922 N   0  0  0  0  0  0  0  0  0  0  0  0
   10.6604  -17.5643   26.6574 C   0  0  0  0  0  0  0  0  0  0  0  0
   10.8540  -16.7630   27.7633 O   0  0  0  0  0  0  0  0  0  0  0  0
   11.3746  -18.5930   26.5340 O   0  0  0  0  0  0  0  0  0  0  0  0
  2  1  1  6
  2  3  1  0
  3  4  1  0
  4  5  1  0
  5  6  1  0
  7  6  1  0
  8  2  1  0
  9  8  2  0
 10 11  1  0
 11 12  1  0
 12 14  1  0
 12 13  1  1
 14 15  1  6
 15  8  1  0
 16 14  1  0
 16 18  1  0
 17 16  2  0
 19 18  1  0
 19 26  1  0
 19 20  1  6
 20 21  1  0
 21 25  1  0
 22 21  2  0
 22 23  1  0
 23 24  1  0
 25 24  2  0
 26 27  1  0
 28 26  2  0
M  END
$$$$
