KIH.pdb
     RDKit          3D

 28 28  0  0  1  0  0  0  0  0999 V2000
    9.3235  -18.2152   16.5327 N   0  0  0  0  0  0  0  0  0  0  0  0
    8.5302  -17.9973   17.7032 C   0  0  1  0  0  0  0  0  0  0  0  0
    8.2078  -19.2879   18.4240 C   0  0  0  0  0  0  0  0  0  0  0  0
    7.9019  -20.4127   17.4991 C   0  0  0  0  0  0  0  0  0  0  0  0
    7.5544  -21.6968   18.1606 C   0  0  0  0  0  0  0  0  0  0  0  0
    7.3335  -22.8376   17.1976 C   0  0  0  0  0  0  0  0  0  0  0  0
    7.0544  -24.0200   18.0288 N   0  0  0  0  0  0  0  0  0  0  0  0
    9.1618  -17.0462   18.6545 C   0  0  0  0  0  0  0  0  0  0  0  0
   10.4268  -17.0447   18.7235 O   0  0  0  0  0  0  0  0  0  0  0  0
    6.7506  -12.1878   20.0425 C   0  0  0  0  0  0  0  0  0  0  0  0
    7.8124  -13.2309   19.6053 C   0  0  0  0  0  0  0  0  0  0  0  0
    8.0786  -14.1337   20.7452 C   0  0  2  0  0  0  0  0  0  0  0  0
    8.6697  -13.3619   21.9247 C   0  0  0  0  0  0  0  0  0  0  0  0
    9.0343  -15.2451   20.4407 C   0  0  2  0  0  0  0  0  0  0  0  0
    8.4183  -16.1605   19.4690 N   0  0  0  0  0  0  0  0  0  0  0  0
    9.3055  -16.0228   21.6654 C   0  0  0  0  0  0  0  0  0  0  0  0
    8.3172  -16.5779   22.2510 O   0  0  0  0  0  0  0  0  0  0  0  0
   10.5748  -16.2207   22.2594 N   0  0  0  0  0  0  0  0  0  0  0  0
   10.6721  -17.0301   23.4714 C   0  0  1  0  0  0  0  0  0  0  0  0
   11.8582  -17.9723   23.3790 C   0  0  0  0  0  0  0  0  0  0  0  0
   11.6595  -18.9737   22.3035 C   0  0  0  0  0  0  0  0  0  0  0  0
   10.5177  -19.6599   21.9920 C   0  0  0  0  0  0  0  0  0  0  0  0
   10.8054  -20.4498   20.9559 N   0  0  0  0  0  0  0  0  0  0  0  0
   12.0949  -20.2554   20.6357 C   0  0  0  0  0  0  0  0  0  0  0  0
   12.6394  -19.3434   21.4613 N   0  0  0  0  0  0  0  0  0  0  0  0
   10.8718  -16.2188   24.6875 C   0  0  0  0  0  0  0  0  0  0  0  0
   10.9033  -16.8451   25.9160 O   0  0  0  0  0  0  0  0  0  0  0  0
   11.0156  -14.9692   24.6514 O   0  0  0  0  0  0  0  0  0  0  0  0
  2  1  1  6
  2  3  1  0
  3  4  1  0
  4  5  1  0
  5  6  1  0
  7  6  1  0
  8  2  1  0
  9  8  2  0
 10 11  1  0
 11 12  1  0
 12 14  1  0
 12 13  1  1
 14 15  1  6
 15  8  1  0
 16 14  1  0
 16 18  1  0
 17 16  2  0
 19 18  1  0
 19 26  1  0
 19 20  1  6
 20 21  1  0
 21 25  1  0
 22 21  2  0
 22 23  1  0
 23 24  1  0
 25 24  2  0
 26 27  1  0
 28 26  2  0
M  END
$$$$
