KIH.pdb
     RDKit          3D

 28 28  0  0  1  0  0  0  0  0999 V2000
    7.8007  -15.0060   20.2823 N   0  0  0  0  0  0  0  0  0  0  0  0
    7.0913  -15.3290   21.4821 C   0  0  1  0  0  0  0  0  0  0  0  0
    6.6493  -16.7756   21.5133 C   0  0  0  0  0  0  0  0  0  0  0  0
    6.2360  -17.2890   20.1793 C   0  0  0  0  0  0  0  0  0  0  0  0
    5.7779  -18.7022   20.1613 C   0  0  0  0  0  0  0  0  0  0  0  0
    5.3106  -19.1737   18.8060 C   0  0  0  0  0  0  0  0  0  0  0  0
    4.8284  -20.5507   19.0011 N   0  0  0  0  0  0  0  0  0  0  0  0
    7.8731  -15.0259   22.7091 C   0  0  0  0  0  0  0  0  0  0  0  0
    9.1362  -15.0671   22.6201 O   0  0  0  0  0  0  0  0  0  0  0  0
    5.6897  -11.3702   26.1185 C   0  0  0  0  0  0  0  0  0  0  0  0
    6.5951  -12.1960   25.1671 C   0  0  0  0  0  0  0  0  0  0  0  0
    7.1749  -13.3205   25.9319 C   0  0  2  0  0  0  0  0  0  0  0  0
    8.0500  -12.8075   27.0754 C   0  0  0  0  0  0  0  0  0  0  0  0
    8.0312  -14.2413   25.1194 C   0  0  2  0  0  0  0  0  0  0  0  0
    7.2718  -14.7000   23.9471 N   0  0  0  0  0  0  0  0  0  0  0  0
    8.3762  -15.4363   25.9138 C   0  0  0  0  0  0  0  0  0  0  0  0
    8.2253  -15.3758   27.1793 O   0  0  0  0  0  0  0  0  0  0  0  0
    8.8599  -16.6634   25.4006 N   0  0  0  0  0  0  0  0  0  0  0  0
   10.2340  -17.0627   25.6945 C   0  0  1  0  0  0  0  0  0  0  0  0
   11.2051  -16.0129   25.1866 C   0  0  0  0  0  0  0  0  0  0  0  0
   11.8135  -16.4291   23.8999 C   0  0  0  0  0  0  0  0  0  0  0  0
   11.5300  -17.5409   23.1548 C   0  0  0  0  0  0  0  0  0  0  0  0
   12.3193  -17.5040   22.0797 N   0  0  0  0  0  0  0  0  0  0  0  0
   13.0722  -16.3950   22.1598 C   0  0  0  0  0  0  0  0  0  0  0  0
   12.7714  -15.7171   23.2821 N   0  0  0  0  0  0  0  0  0  0  0  0
   10.4908  -17.2105   27.1398 C   0  0  0  0  0  0  0  0  0  0  0  0
   11.7332  -17.6354   27.5621 O   0  0  0  0  0  0  0  0  0  0  0  0
    9.6171  -16.9637   28.0112 O   0  0  0  0  0  0  0  0  0  0  0  0
  2  1  1  6
  2  3  1  0
  3  4  1  0
  4  5  1  0
  5  6  1  0
  7  6  1  0
  8  2  1  0
  9  8  2  0
 10 11  1  0
 11 12  1  0
 12 14  1  0
 12 13  1  1
 14 15  1  6
 15  8  1  0
 16 14  1  0
 16 18  1  0
 17 16  2  0
 19 18  1  0
 19 26  1  0
 19 20  1  1
 20 21  1  0
 21 25  1  0
 22 21  2  0
 22 23  1  0
 23 24  1  0
 25 24  2  0
 26 27  1  0
 28 26  2  0
M  END
$$$$
