KIH.pdb
     RDKit          3D

 28 28  0  0  1  0  0  0  0  0999 V2000
    8.0381  -14.0875   19.6687 N   0  0  0  0  0  0  0  0  0  0  0  0
    7.3251  -14.6057   20.7957 C   0  0  1  0  0  0  0  0  0  0  0  0
    6.9512  -16.0607   20.6160 C   0  0  0  0  0  0  0  0  0  0  0  0
    7.1134  -16.5368   19.2157 C   0  0  0  0  0  0  0  0  0  0  0  0
    6.7842  -17.9685   18.9939 C   0  0  0  0  0  0  0  0  0  0  0  0
    7.0586  -18.4459   17.5888 C   0  0  0  0  0  0  0  0  0  0  0  0
    6.6852  -19.8695   17.5653 N   0  0  0  0  0  0  0  0  0  0  0  0
    8.0715  -14.4425   22.0703 C   0  0  0  0  0  0  0  0  0  0  0  0
    9.3305  -14.5790   22.0299 O   0  0  0  0  0  0  0  0  0  0  0  0
    7.5230  -11.3523   27.2865 C   0  0  0  0  0  0  0  0  0  0  0  0
    8.2900  -12.4985   26.5761 C   0  0  0  0  0  0  0  0  0  0  0  0
    7.5404  -12.8799   25.3603 C   0  0  2  0  0  0  0  0  0  0  0  0
    6.1321  -13.3559   25.7157 C   0  0  0  0  0  0  0  0  0  0  0  0
    8.1742  -13.9788   24.5653 C   0  0  2  0  0  0  0  0  0  0  0  0
    7.4417  -14.1465   23.3017 N   0  0  0  0  0  0  0  0  0  0  0  0
    8.0741  -15.2532   25.3030 C   0  0  0  0  0  0  0  0  0  0  0  0
    7.2668  -16.1368   24.8610 O   0  0  0  0  0  0  0  0  0  0  0  0
    8.8015  -15.5982   26.4670 N   0  0  0  0  0  0  0  0  0  0  0  0
    9.6547  -16.7837   26.4446 C   0  0  1  0  0  0  0  0  0  0  0  0
   10.7702  -16.6078   25.4308 C   0  0  0  0  0  0  0  0  0  0  0  0
   10.6048  -17.5414   24.2906 C   0  0  0  0  0  0  0  0  0  0  0  0
    9.6036  -18.4508   24.0849 C   0  0  0  0  0  0  0  0  0  0  0  0
    9.8656  -19.0680   22.9313 N   0  0  0  0  0  0  0  0  0  0  0  0
   11.0021  -18.5513   22.4369 C   0  0  0  0  0  0  0  0  0  0  0  0
   11.4737  -17.6036   23.2671 N   0  0  0  0  0  0  0  0  0  0  0  0
   10.3031  -17.0474   27.7434 C   0  0  0  0  0  0  0  0  0  0  0  0
   10.8253  -15.9917   28.4610 O   0  0  0  0  0  0  0  0  0  0  0  0
   10.4009  -18.2045   28.2284 O   0  0  0  0  0  0  0  0  0  0  0  0
  2  1  1  6
  2  3  1  0
  3  4  1  0
  4  5  1  0
  5  6  1  0
  7  6  1  0
  8  2  1  0
  9  8  2  0
 10 11  1  0
 11 12  1  0
 12 14  1  0
 12 13  1  1
 14 15  1  6
 15  8  1  0
 16 14  1  0
 16 18  1  0
 17 16  2  0
 19 18  1  0
 19 26  1  0
 19 20  1  6
 20 21  1  0
 21 25  1  0
 22 21  2  0
 22 23  1  0
 23 24  1  0
 25 24  2  0
 26 27  1  0
 28 26  2  0
M  END
$$$$
