DFD.pdb
     RDKit          3D

 28 28  0  0  1  0  0  0  0  0999 V2000
   10.6645  -16.7952   19.6212 N   0  0  0  0  0  0  0  0  0  0  0  0
    9.4955  -16.9779   20.4122 C   0  0  1  0  0  0  0  0  0  0  0  0
    9.0465  -18.3980   20.5990 C   0  0  0  0  0  0  0  0  0  0  0  0
    8.6712  -19.0713   19.3400 C   0  0  0  0  0  0  0  0  0  0  0  0
    8.0006  -18.5008   18.4692 O   0  0  0  0  0  0  0  0  0  0  0  0
    9.4996  -16.2497   21.7097 C   0  0  0  0  0  0  0  0  0  0  0  0
   10.5639  -16.2497   22.3718 O   0  0  0  0  0  0  0  0  0  0  0  0
    9.0800  -20.3825   19.1206 O   0  0  0  0  0  0  0  0  0  0  0  0
    8.4030  -15.5640   22.2482 N   0  0  0  0  0  0  0  0  0  0  0  0
    8.4625  -14.9580   23.5730 C   0  0  1  0  0  0  0  0  0  0  0  0
    7.4270  -13.8970   23.6214 C   0  0  0  0  0  0  0  0  0  0  0  0
    7.2903  -13.2216   24.9343 C   0  0  0  0  0  0  0  0  0  0  0  0
    8.3625  -12.5246   25.4852 C   0  0  0  0  0  0  0  0  0  0  0  0
    8.2448  -11.8856   26.7016 C   0  0  0  0  0  0  0  0  0  0  0  0
    7.0327  -11.9562   27.3590 C   0  0  0  0  0  0  0  0  0  0  0  0
    5.9473  -12.6483   26.8247 C   0  0  0  0  0  0  0  0  0  0  0  0
    6.0921  -13.2829   25.5986 C   0  0  0  0  0  0  0  0  0  0  0  0
    8.4117  -15.9676   24.6425 C   0  0  0  0  0  0  0  0  0  0  0  0
    7.5142  -16.8700   24.5256 O   0  0  0  0  0  0  0  0  0  0  0  0
    9.2735  -15.9871   25.7518 N   0  0  0  0  0  0  0  0  0  0  0  0
    9.5322  -17.2627   26.4294 C   0  0  1  0  0  0  0  0  0  0  0  0
   10.2679  -18.2012   25.5204 C   0  0  0  0  0  0  0  0  0  0  0  0
   10.6007  -19.4487   26.2151 C   0  0  0  0  0  0  0  0  0  0  0  0
    9.7938  -20.1032   26.9062 O   0  0  0  0  0  0  0  0  0  0  0  0
   10.4294  -16.9674   27.5931 C   0  0  0  0  0  0  0  0  0  0  0  0
   10.8149  -17.8371   28.3588 O   0  0  0  0  0  0  0  0  0  0  0  0
   11.8960  -19.9502   26.1097 O   0  0  0  0  0  0  0  0  0  0  0  0
   10.8255  -15.6575   27.7910 O   0  0  0  0  0  0  0  0  0  0  0  0
  2  1  1  1
  2  6  1  0
  3  2  1  0
  4  3  1  0
  5  4  2  0
  6  7  2  0
  6  9  1  0
  8  4  1  0
  9 10  1  0
 10 11  1  1
 11 12  1  0
 12 13  2  0
 12 17  1  0
 13 14  1  0
 14 15  2  0
 16 15  1  0
 17 16  2  0
 18 20  1  0
 18 10  1  0
 19 18  2  0
 21 20  1  0
 21 25  1  0
 22 23  1  0
 21 22  1  6
 23 24  2  0
 25 28  1  0
 26 25  2  0
 27 23  1  0
M  END
$$$$
