DFD.pdb
     RDKit          3D

 28 28  0  0  1  0  0  0  0  0999 V2000
    8.5687  -16.2450   20.7236 N   0  0  0  0  0  0  0  0  0  0  0  0
    9.7821  -16.0672   21.4460 C   0  0  1  0  0  0  0  0  0  0  0  0
   10.6812  -14.9696   20.9560 C   0  0  0  0  0  0  0  0  0  0  0  0
   10.9736  -15.0441   19.5109 C   0  0  0  0  0  0  0  0  0  0  0  0
   10.5536  -15.9719   18.8066 O   0  0  0  0  0  0  0  0  0  0  0  0
    9.6246  -16.0014   22.9240 C   0  0  0  0  0  0  0  0  0  0  0  0
   10.6286  -15.6771   23.6008 O   0  0  0  0  0  0  0  0  0  0  0  0
   11.7415  -14.0467   18.9191 O   0  0  0  0  0  0  0  0  0  0  0  0
    8.4384  -16.2755   23.6173 N   0  0  0  0  0  0  0  0  0  0  0  0
    8.3593  -16.1459   25.0675 C   0  0  1  0  0  0  0  0  0  0  0  0
    7.0284  -15.5753   25.3890 C   0  0  0  0  0  0  0  0  0  0  0  0
    7.0155  -14.1072   25.5966 C   0  0  0  0  0  0  0  0  0  0  0  0
    7.1411  -13.5737   26.8766 C   0  0  0  0  0  0  0  0  0  0  0  0
    7.1386  -12.2099   27.0813 C   0  0  0  0  0  0  0  0  0  0  0  0
    7.0079  -11.3871   25.9803 C   0  0  0  0  0  0  0  0  0  0  0  0
    6.8812  -11.9010   24.6909 C   0  0  0  0  0  0  0  0  0  0  0  0
    6.8867  -13.2775   24.5123 C   0  0  0  0  0  0  0  0  0  0  0  0
    8.7135  -17.3997   25.7519 C   0  0  0  0  0  0  0  0  0  0  0  0
    8.2387  -18.4732   25.2463 O   0  0  0  0  0  0  0  0  0  0  0  0
    9.5218  -17.4723   26.8986 N   0  0  0  0  0  0  0  0  0  0  0  0
   10.4485  -18.6005   27.0456 C   0  0  1  0  0  0  0  0  0  0  0  0
   11.4745  -18.5841   25.9524 C   0  0  0  0  0  0  0  0  0  0  0  0
   12.4824  -19.6274   26.1653 C   0  0  0  0  0  0  0  0  0  0  0  0
   12.2261  -20.7752   26.5823 O   0  0  0  0  0  0  0  0  0  0  0  0
   11.1714  -18.4083   28.3443 C   0  0  0  0  0  0  0  0  0  0  0  0
   11.9494  -19.2381   28.7887 O   0  0  0  0  0  0  0  0  0  0  0  0
   13.8169  -19.3366   25.8914 O   0  0  0  0  0  0  0  0  0  0  0  0
   10.9374  -17.2430   29.0510 O   0  0  0  0  0  0  0  0  0  0  0  0
  2  1  1  6
  2  6  1  0
  3  2  1  0
  4  3  1  0
  5  4  2  0
  6  7  2  0
  6  9  1  0
  8  4  1  0
  9 10  1  0
 10 11  1  6
 11 12  1  0
 12 13  2  0
 12 17  1  0
 13 14  1  0
 14 15  2  0
 16 15  1  0
 17 16  2  0
 18 20  1  0
 18 10  1  0
 19 18  2  0
 21 20  1  0
 21 25  1  0
 22 23  1  0
 21 22  1  6
 23 24  2  0
 25 28  1  0
 26 25  2  0
 27 23  1  0
M  END
$$$$
