DFD.pdb
     RDKit          3D

 28 28  0  0  1  0  0  0  0  0999 V2000
    9.7435  -16.5686   19.1713 N   0  0  0  0  0  0  0  0  0  0  0  0
    9.1291  -17.0217   20.3726 C   0  0  1  0  0  0  0  0  0  0  0  0
    9.5138  -18.4003   20.8252 C   0  0  0  0  0  0  0  0  0  0  0  0
    9.3189  -19.4385   19.7939 C   0  0  0  0  0  0  0  0  0  0  0  0
    8.2307  -19.5971   19.2246 O   0  0  0  0  0  0  0  0  0  0  0  0
    9.1864  -16.0583   21.5049 C   0  0  0  0  0  0  0  0  0  0  0  0
   10.2098  -15.3416   21.6059 O   0  0  0  0  0  0  0  0  0  0  0  0
   10.3839  -20.2635   19.4481 O   0  0  0  0  0  0  0  0  0  0  0  0
    8.1827  -15.8918   22.4680 N   0  0  0  0  0  0  0  0  0  0  0  0
    8.3513  -14.9759   23.5899 C   0  0  1  0  0  0  0  0  0  0  0  0
    7.0040  -14.4806   23.9634 C   0  0  0  0  0  0  0  0  0  0  0  0
    6.9900  -13.4885   25.0653 C   0  0  0  0  0  0  0  0  0  0  0  0
    7.6129  -12.2527   24.9111 C   0  0  0  0  0  0  0  0  0  0  0  0
    7.5996  -11.3189   25.9258 C   0  0  0  0  0  0  0  0  0  0  0  0
    6.9505  -11.6437   27.1004 C   0  0  0  0  0  0  0  0  0  0  0  0
    6.3208  -12.8748   27.2746 C   0  0  0  0  0  0  0  0  0  0  0  0
    6.3489  -13.7972   26.2377 C   0  0  0  0  0  0  0  0  0  0  0  0
    9.1495  -15.5732   24.6725 C   0  0  0  0  0  0  0  0  0  0  0  0
    9.3797  -14.8257   25.6833 O   0  0  0  0  0  0  0  0  0  0  0  0
    9.6560  -16.8833   24.6498 N   0  0  0  0  0  0  0  0  0  0  0  0
   10.4344  -17.3651   25.7966 C   0  0  1  0  0  0  0  0  0  0  0  0
    9.9507  -18.7166   26.2299 C   0  0  0  0  0  0  0  0  0  0  0  0
    9.0056  -18.6011   27.3449 C   0  0  0  0  0  0  0  0  0  0  0  0
    9.1140  -17.7743   28.2732 O   0  0  0  0  0  0  0  0  0  0  0  0
   11.8504  -17.5218   25.3312 C   0  0  0  0  0  0  0  0  0  0  0  0
   12.1357  -18.0677   24.2766 O   0  0  0  0  0  0  0  0  0  0  0  0
    7.9113  -19.4619   27.3885 O   0  0  0  0  0  0  0  0  0  0  0  0
   12.8573  -17.0235   26.1374 O   0  0  0  0  0  0  0  0  0  0  0  0
  2  1  1  6
  2  6  1  0
  3  2  1  0
  4  3  1  0
  5  4  2  0
  6  7  2  0
  6  9  1  0
  8  4  1  0
  9 10  1  0
 10 11  1  1
 11 12  1  0
 12 13  2  0
 12 17  1  0
 13 14  1  0
 14 15  2  0
 16 15  1  0
 17 16  2  0
 18 20  1  0
 18 10  1  0
 19 18  2  0
 21 20  1  0
 21 25  1  0
 22 23  1  0
 21 22  1  6
 23 24  2  0
 25 28  1  0
 26 25  2  0
 27 23  1  0
M  END
$$$$
