DFD.pdb
     RDKit          3D

 28 28  0  0  1  0  0  0  0  0999 V2000
    9.9202  -16.2187   19.2106 N   0  0  0  0  0  0  0  0  0  0  0  0
    9.8144  -16.9423   20.4317 C   0  0  1  0  0  0  0  0  0  0  0  0
   10.7764  -18.0818   20.6030 C   0  0  0  0  0  0  0  0  0  0  0  0
   10.8069  -19.0092   19.4548 C   0  0  0  0  0  0  0  0  0  0  0  0
   11.8678  -19.4812   19.0247 O   0  0  0  0  0  0  0  0  0  0  0  0
    9.7717  -16.0978   21.6559 C   0  0  0  0  0  0  0  0  0  0  0  0
   10.8138  -15.4750   21.9680 O   0  0  0  0  0  0  0  0  0  0  0  0
    9.6136  -19.3662   18.8357 O   0  0  0  0  0  0  0  0  0  0  0  0
    8.6543  -15.9465   22.4873 N   0  0  0  0  0  0  0  0  0  0  0  0
    8.6962  -15.0910   23.6674 C   0  0  1  0  0  0  0  0  0  0  0  0
    7.3501  -14.4886   23.8255 C   0  0  0  0  0  0  0  0  0  0  0  0
    7.1653  -13.6970   25.0656 C   0  0  0  0  0  0  0  0  0  0  0  0
    6.3742  -14.1836   26.1030 C   0  0  0  0  0  0  0  0  0  0  0  0
    6.2015  -13.4602   27.2643 C   0  0  0  0  0  0  0  0  0  0  0  0
    6.8357  -12.2383   27.3699 C   0  0  0  0  0  0  0  0  0  0  0  0
    7.6319  -11.7335   26.3434 C   0  0  0  0  0  0  0  0  0  0  0  0
    7.7893  -12.4816   25.1848 C   0  0  0  0  0  0  0  0  0  0  0  0
    9.2360  -15.7976   24.8401 C   0  0  0  0  0  0  0  0  0  0  0  0
    8.6966  -16.9219   25.1201 O   0  0  0  0  0  0  0  0  0  0  0  0
   10.2817  -15.3117   25.6426 N   0  0  0  0  0  0  0  0  0  0  0  0
   10.8047  -16.1597   26.7199 C   0  0  1  0  0  0  0  0  0  0  0  0
   12.2236  -15.7924   27.0363 C   0  0  0  0  0  0  0  0  0  0  0  0
   13.0504  -16.9922   27.1998 C   0  0  0  0  0  0  0  0  0  0  0  0
   12.6137  -18.1591   27.1328 O   0  0  0  0  0  0  0  0  0  0  0  0
    9.9832  -15.8751   27.9406 C   0  0  0  0  0  0  0  0  0  0  0  0
    9.8900  -14.7557   28.4199 O   0  0  0  0  0  0  0  0  0  0  0  0
   14.4126  -16.8393   27.4479 O   0  0  0  0  0  0  0  0  0  0  0  0
    9.3127  -16.9300   28.5319 O   0  0  0  0  0  0  0  0  0  0  0  0
  2  1  1  6
  2  6  1  0
  3  2  1  0
  4  3  1  0
  5  4  2  0
  6  7  2  0
  6  9  1  0
  8  4  1  0
  9 10  1  0
 10 11  1  1
 11 12  1  0
 12 13  2  0
 12 17  1  0
 13 14  1  0
 14 15  2  0
 16 15  1  0
 17 16  2  0
 18 20  1  0
 18 10  1  0
 19 18  2  0
 21 20  1  0
 21 25  1  0
 22 23  1  0
 21 22  1  1
 23 24  2  0
 25 28  1  0
 26 25  2  0
 27 23  1  0
M  END
$$$$
