DFD.pdb
     RDKit          3D

 28 28  0  0  1  0  0  0  0  0999 V2000
    7.2213  -16.5937   20.9659 N   0  0  0  0  0  0  0  0  0  0  0  0
    8.4142  -15.8188   21.0154 C   0  0  1  0  0  0  0  0  0  0  0  0
    8.4673  -14.6386   20.0893 C   0  0  0  0  0  0  0  0  0  0  0  0
    8.1015  -14.9618   18.6961 C   0  0  0  0  0  0  0  0  0  0  0  0
    7.7688  -16.1053   18.3568 O   0  0  0  0  0  0  0  0  0  0  0  0
    8.8540  -15.4368   22.3844 C   0  0  0  0  0  0  0  0  0  0  0  0
    9.9130  -14.7747   22.4902 O   0  0  0  0  0  0  0  0  0  0  0  0
    8.1294  -13.9576   17.7341 O   0  0  0  0  0  0  0  0  0  0  0  0
    8.1741  -15.7622   23.5654 N   0  0  0  0  0  0  0  0  0  0  0  0
    8.7030  -15.3919   24.8727 C   0  0  1  0  0  0  0  0  0  0  0  0
    7.5444  -15.1494   25.7666 C   0  0  0  0  0  0  0  0  0  0  0  0
    7.3198  -13.7273   26.1209 C   0  0  0  0  0  0  0  0  0  0  0  0
    6.2074  -13.0453   25.6348 C   0  0  0  0  0  0  0  0  0  0  0  0
    5.9837  -11.7250   25.9641 C   0  0  0  0  0  0  0  0  0  0  0  0
    6.8945  -11.0971   26.7902 C   0  0  0  0  0  0  0  0  0  0  0  0
    8.0140  -11.7619   27.2876 C   0  0  0  0  0  0  0  0  0  0  0  0
    8.2160  -13.0907   26.9409 C   0  0  0  0  0  0  0  0  0  0  0  0
    9.7065  -16.3553   25.3531 C   0  0  0  0  0  0  0  0  0  0  0  0
   10.0388  -16.2589   26.5834 O   0  0  0  0  0  0  0  0  0  0  0  0
   10.2996  -17.3440   24.5505 N   0  0  0  0  0  0  0  0  0  0  0  0
   11.2220  -18.3033   25.1687 C   0  0  1  0  0  0  0  0  0  0  0  0
   10.5746  -19.6500   25.2931 C   0  0  0  0  0  0  0  0  0  0  0  0
   11.5265  -20.6431   25.8003 C   0  0  0  0  0  0  0  0  0  0  0  0
   12.6123  -20.9182   25.2505 O   0  0  0  0  0  0  0  0  0  0  0  0
   12.3900  -18.4495   24.2409 C   0  0  0  0  0  0  0  0  0  0  0  0
   12.2659  -18.4361   23.0261 O   0  0  0  0  0  0  0  0  0  0  0  0
   11.2153  -21.3349   26.9687 O   0  0  0  0  0  0  0  0  0  0  0  0
   13.6460  -18.6032   24.7983 O   0  0  0  0  0  0  0  0  0  0  0  0
  2  1  1  1
  2  6  1  0
  3  2  1  0
  4  3  1  0
  5  4  2  0
  6  7  2  0
  6  9  1  0
  8  4  1  0
  9 10  1  0
 10 11  1  1
 11 12  1  0
 12 13  2  0
 12 17  1  0
 13 14  1  0
 14 15  2  0
 16 15  1  0
 17 16  2  0
 18 20  1  0
 18 10  1  0
 19 18  2  0
 21 20  1  0
 21 25  1  0
 22 23  1  0
 21 22  1  6
 23 24  2  0
 25 28  1  0
 26 25  2  0
 27 23  1  0
M  END
$$$$
