DFD.pdb
     RDKit          3D

 28 28  0  0  1  0  0  0  0  0999 V2000
   10.4648  -17.2079   20.4136 N   0  0  0  0  0  0  0  0  0  0  0  0
    9.3742  -17.3325   21.3196 C   0  0  1  0  0  0  0  0  0  0  0  0
    9.1281  -18.7102   21.8627 C   0  0  0  0  0  0  0  0  0  0  0  0
    9.6558  -19.7886   21.0037 C   0  0  0  0  0  0  0  0  0  0  0  0
    9.5425  -20.9828   21.3111 O   0  0  0  0  0  0  0  0  0  0  0  0
    9.3510  -16.3219   22.4113 C   0  0  0  0  0  0  0  0  0  0  0  0
   10.4522  -15.8871   22.8231 O   0  0  0  0  0  0  0  0  0  0  0  0
   10.2984  -19.4596   19.8148 O   0  0  0  0  0  0  0  0  0  0  0  0
    8.1908  -15.8197   23.0150 N   0  0  0  0  0  0  0  0  0  0  0  0
    8.2594  -14.8605   24.1110 C   0  0  1  0  0  0  0  0  0  0  0  0
    6.9634  -14.1402   24.1507 C   0  0  0  0  0  0  0  0  0  0  0  0
    6.8437  -13.1357   25.2348 C   0  0  0  0  0  0  0  0  0  0  0  0
    7.6812  -12.0236   25.2631 C   0  0  0  0  0  0  0  0  0  0  0  0
    7.5738  -11.0786   26.2616 C   0  0  0  0  0  0  0  0  0  0  0  0
    6.6116  -11.2659   27.2339 C   0  0  0  0  0  0  0  0  0  0  0  0
    5.7634  -12.3718   27.2236 C   0  0  0  0  0  0  0  0  0  0  0  0
    5.8922  -13.3085   26.2072 C   0  0  0  0  0  0  0  0  0  0  0  0
    8.6932  -15.4915   25.3678 C   0  0  0  0  0  0  0  0  0  0  0  0
    8.9948  -14.6984   26.3236 O   0  0  0  0  0  0  0  0  0  0  0  0
    8.7904  -16.8794   25.5623 N   0  0  0  0  0  0  0  0  0  0  0  0
    9.0253  -17.3934   26.9164 C   0  0  1  0  0  0  0  0  0  0  0  0
    7.9822  -18.4063   27.2827 C   0  0  0  0  0  0  0  0  0  0  0  0
    8.0724  -19.5864   26.4173 C   0  0  0  0  0  0  0  0  0  0  0  0
    7.5275  -20.6812   26.6654 O   0  0  0  0  0  0  0  0  0  0  0  0
   10.3483  -18.0972   26.8954 C   0  0  0  0  0  0  0  0  0  0  0  0
   10.8051  -18.6606   27.8780 O   0  0  0  0  0  0  0  0  0  0  0  0
    8.8106  -19.4993   25.2391 O   0  0  0  0  0  0  0  0  0  0  0  0
   11.0635  -18.0992   25.7120 O   0  0  0  0  0  0  0  0  0  0  0  0
  2  1  1  1
  2  6  1  0
  3  2  1  0
  4  3  1  0
  5  4  2  0
  6  7  2  0
  6  9  1  0
  8  4  1  0
  9 10  1  0
 10 11  1  1
 11 12  1  0
 12 13  2  0
 12 17  1  0
 13 14  1  0
 14 15  2  0
 16 15  1  0
 17 16  2  0
 18 20  1  0
 18 10  1  0
 19 18  2  0
 21 20  1  0
 21 25  1  0
 22 23  1  0
 21 22  1  6
 23 24  2  0
 25 28  1  0
 26 25  2  0
 27 23  1  0
M  END
$$$$
