RLR.pdb
     RDKit          3D

 31 30  0  0  1  0  0  0  0  0999 V2000
    9.4862  -12.9946   16.5895 N   0  0  0  0  0  0  0  0  0  0  0  0
    8.3817  -13.3601   15.7439 C   0  0  0  0  0  0  0  0  0  0  0  0
    8.2140  -12.7603   14.6275 N   0  0  0  0  0  0  0  0  0  0  0  0
    7.4653  -14.3727   16.1128 N   0  0  0  0  0  0  0  0  0  0  0  0
    7.4168  -14.9735   17.4284 C   0  0  0  0  0  0  0  0  0  0  0  0
    7.2605  -13.9611   18.5146 C   0  0  0  0  0  0  0  0  0  0  0  0
    8.1357  -14.1494   19.7050 C   0  0  0  0  0  0  0  0  0  0  0  0
    7.4962  -14.8797   20.8554 C   0  0  2  0  0  0  0  0  0  0  0  0
    6.0689  -15.0416   20.7226 N   0  0  0  0  0  0  0  0  0  0  0  0
    7.8743  -14.2964   22.1625 C   0  0  0  0  0  0  0  0  0  0  0  0
    8.5778  -13.2828   22.2067 O   0  0  0  0  0  0  0  0  0  0  0  0
    7.4999  -13.0862   13.9416 C   0  0  0  0  0  0  0  0  0  0  0  0
    8.2364  -11.9514   26.2942 C   0  0  2  0  0  0  0  0  0  0  0  0
    7.3193  -13.1041   26.6245 C   0  0  0  0  0  0  0  0  0  0  0  0
    6.0661  -12.4641   27.2489 C   0  0  0  0  0  0  0  0  0  0  0  0
    6.9305  -13.8189   25.3998 C   0  0  2  0  0  0  0  0  0  0  0  0
    7.9470  -14.6070   24.6687 N   0  0  0  0  0  0  0  0  0  0  0  0
    7.4438  -14.8801   23.3479 C   0  0  0  0  0  0  0  0  0  0  0  0
    8.5926  -15.7129   25.3450 O   0  0  0  0  0  0  0  0  0  0  0  0
    7.9820  -16.5264   26.1270 N   0  0  0  0  0  0  0  0  0  0  0  0
   14.0912  -14.1331   20.5416 C   0  0  0  0  0  0  0  0  0  0  0  0
   14.0805  -15.5094   20.8542 N   0  0  0  0  0  0  0  0  0  0  0  0
   14.3343  -16.3583   19.9317 N   0  0  0  0  0  0  0  0  0  0  0  0
   13.7921  -15.9095   22.1727 C   0  0  0  0  0  0  0  0  0  0  0  0
   12.6041  -16.7219   22.4174 C   0  0  0  0  0  0  0  0  0  0  0  0
   12.5373  -17.1536   23.8445 C   0  0  0  0  0  0  0  0  0  0  0  0
   11.2956  -17.8603   24.2038 C   0  0  1  0  0  0  0  0  0  0  0  0
   10.5010  -17.3820   25.3545 N   0  0  0  0  0  0  0  0  0  0  0  0
    9.9734  -16.0380   25.2288 C   0  0  0  0  0  0  0  0  0  0  0  0
   11.1680  -17.5502   26.6552 O   0  0  0  0  0  0  0  0  0  0  0  0
   11.2757  -16.5481   27.4226 O   0  0  0  0  0  0  0  0  0  0  0  0
  2  1  1  0
  2  3  2  0
  4  2  1  0
  5  4  1  0
  6  5  1  0
  7  6  1  0
  8  7  1  0
  8  9  1  6
 10  8  1  0
 10 11  2  0
 13 12  1  1
 14 13  1  0
 16 15  1  6
 15 13  1  0
 17 16  1  0
 17 10  1  0
 18 16  1  0
 19 18  2  0
 21 20  1  0
 21 22  2  0
 23 21  1  0
 24 23  1  0
 25 24  1  0
 25 26  1  0
 27 26  1  6
 27 28  1  0
 28 18  1  0
 29 31  1  0
 29 27  1  0
 30 29  2  0
M  END
$$$$
