RLR.pdb
     RDKit          3D

 31 30  0  0  1  0  0  0  0  0999 V2000
    8.4407  -12.2121   16.5607 N   0  0  0  0  0  0  0  0  0  0  0  0
    8.4445  -13.6366   16.7595 C   0  0  0  0  0  0  0  0  0  0  0  0
    8.3848  -14.4166   15.7485 N   0  0  0  0  0  0  0  0  0  0  0  0
    8.5125  -14.2075   18.0520 N   0  0  0  0  0  0  0  0  0  0  0  0
    9.1844  -13.5848   19.1722 C   0  0  0  0  0  0  0  0  0  0  0  0
    8.2481  -13.2455   20.2846 C   0  0  0  0  0  0  0  0  0  0  0  0
    7.2359  -14.2860   20.6180 C   0  0  0  0  0  0  0  0  0  0  0  0
    7.7359  -15.4011   21.4967 C   0  0  2  0  0  0  0  0  0  0  0  0
    6.7635  -16.4408   21.7300 N   0  0  0  0  0  0  0  0  0  0  0  0
    8.3261  -14.8937   22.7561 C   0  0  0  0  0  0  0  0  0  0  0  0
    9.4998  -14.5113   22.7785 O   0  0  0  0  0  0  0  0  0  0  0  0
    8.4372  -15.4516   15.8613 C   0  0  0  0  0  0  0  0  0  0  0  0
    5.2201  -12.2201   26.3334 C   0  0  1  0  0  0  0  0  0  0  0  0
    6.3754  -12.6636   25.4687 C   0  0  0  0  0  0  0  0  0  0  0  0
    7.4082  -11.5248   25.5501 C   0  0  0  0  0  0  0  0  0  0  0  0
    6.9772  -13.8931   26.0058 C   0  0  2  0  0  0  0  0  0  0  0  0
    8.0563  -14.5617   25.2460 N   0  0  0  0  0  0  0  0  0  0  0  0
    7.5695  -14.8426   23.9207 C   0  0  0  0  0  0  0  0  0  0  0  0
    8.8076  -15.6216   25.8859 O   0  0  0  0  0  0  0  0  0  0  0  0
    9.2239  -15.5704   27.0984 N   0  0  0  0  0  0  0  0  0  0  0  0
    6.8433  -20.6994   28.8845 C   0  0  0  0  0  0  0  0  0  0  0  0
    7.1918  -21.8103   28.0868 N   0  0  0  0  0  0  0  0  0  0  0  0
    7.4691  -22.9217   28.6558 N   0  0  0  0  0  0  0  0  0  0  0  0
    7.2233  -21.6646   26.6869 C   0  0  0  0  0  0  0  0  0  0  0  0
    7.0196  -20.3378   26.1130 C   0  0  0  0  0  0  0  0  0  0  0  0
    7.9706  -19.3498   26.7019 C   0  0  0  0  0  0  0  0  0  0  0  0
    9.2376  -19.2165   25.9618 C   0  0  2  0  0  0  0  0  0  0  0  0
    9.9135  -17.9029   25.9206 N   0  0  0  0  0  0  0  0  0  0  0  0
    9.1755  -16.8454   25.2591 C   0  0  0  0  0  0  0  0  0  0  0  0
   11.2951  -17.9548   25.4171 O   0  0  0  0  0  0  0  0  0  0  0  0
   11.6333  -17.1784   24.4749 O   0  0  0  0  0  0  0  0  0  0  0  0
  2  1  1  0
  2  3  2  0
  4  2  1  0
  5  4  1  0
  6  5  1  0
  7  6  1  0
  8  7  1  0
  8  9  1  1
 10  8  1  0
 10 11  2  0
 13 12  1  6
 14 13  1  0
 16 15  1  6
 15 13  1  0
 17 16  1  0
 17 10  1  0
 18 16  1  0
 19 18  2  0
 21 20  1  0
 21 22  2  0
 23 21  1  0
 24 23  1  0
 25 24  1  0
 25 26  1  0
 27 26  1  1
 27 28  1  0
 28 18  1  0
 29 31  1  0
 29 27  1  0
 30 29  2  0
M  END
$$$$
