RLR.pdb
     RDKit          3D

 31 30  0  0  1  0  0  0  0  0999 V2000
    7.4506  -19.9523   12.9468 N   0  0  0  0  0  0  0  0  0  0  0  0
    7.3822  -18.5617   12.5860 C   0  0  0  0  0  0  0  0  0  0  0  0
    6.5540  -18.1806   11.6899 N   0  0  0  0  0  0  0  0  0  0  0  0
    8.2115  -17.5925   13.1975 N   0  0  0  0  0  0  0  0  0  0  0  0
    9.2075  -17.9032   14.2004 C   0  0  0  0  0  0  0  0  0  0  0  0
    9.0102  -17.1296   15.4620 C   0  0  0  0  0  0  0  0  0  0  0  0
   10.0489  -17.3273   16.5109 C   0  0  0  0  0  0  0  0  0  0  0  0
    9.5379  -17.8737   17.8171 C   0  0  2  0  0  0  0  0  0  0  0  0
    8.1390  -18.2253   17.7950 N   0  0  0  0  0  0  0  0  0  0  0  0
    9.8759  -16.9928   18.9579 C   0  0  0  0  0  0  0  0  0  0  0  0
   11.0508  -16.6769   19.1679 O   0  0  0  0  0  0  0  0  0  0  0  0
    6.4563  -17.1738   11.4383 C   0  0  0  0  0  0  0  0  0  0  0  0
    6.1369  -13.3145   20.3495 C   0  0  1  0  0  0  0  0  0  0  0  0
    7.4666  -13.9596   20.0417 C   0  0  0  0  0  0  0  0  0  0  0  0
    8.4703  -12.7972   19.9342 C   0  0  0  0  0  0  0  0  0  0  0  0
    7.8763  -14.8436   21.1430 C   0  0  2  0  0  0  0  0  0  0  0  0
    9.0685  -15.7034   20.9749 N   0  0  0  0  0  0  0  0  0  0  0  0
    8.8797  -16.5140   19.8004 C   0  0  0  0  0  0  0  0  0  0  0  0
    9.6107  -16.3801   22.1348 O   0  0  0  0  0  0  0  0  0  0  0  0
    9.1051  -17.4448   22.6417 N   0  0  0  0  0  0  0  0  0  0  0  0
   18.0072  -16.7547   23.6906 C   0  0  0  0  0  0  0  0  0  0  0  0
   17.1118  -17.1363   22.6686 N   0  0  0  0  0  0  0  0  0  0  0  0
   17.5489  -17.2584   21.4727 N   0  0  0  0  0  0  0  0  0  0  0  0
   15.7628  -17.3732   22.9939 C   0  0  0  0  0  0  0  0  0  0  0  0
   15.3262  -17.1738   24.3727 C   0  0  0  0  0  0  0  0  0  0  0  0
   13.8690  -17.4615   24.5179 C   0  0  0  0  0  0  0  0  0  0  0  0
   13.0027  -16.6416   23.6531 C   0  0  1  0  0  0  0  0  0  0  0  0
   11.5374  -16.8210   23.7227 N   0  0  0  0  0  0  0  0  0  0  0  0
   10.7641  -15.9569   22.8533 C   0  0  0  0  0  0  0  0  0  0  0  0
   10.9937  -16.7901   25.0897 O   0  0  0  0  0  0  0  0  0  0  0  0
   11.5496  -17.4916   25.9861 O   0  0  0  0  0  0  0  0  0  0  0  0
  2  1  1  0
  2  3  2  0
  4  2  1  0
  5  4  1  0
  6  5  1  0
  7  6  1  0
  8  7  1  0
  8  9  1  6
 10  8  1  0
 10 11  2  0
 13 12  1  6
 14 13  1  0
 16 15  1  6
 15 13  1  0
 17 16  1  0
 17 10  1  0
 18 16  1  0
 19 18  2  0
 21 20  1  0
 21 22  2  0
 23 21  1  0
 24 23  1  0
 25 24  1  0
 25 26  1  0
 27 26  1  6
 27 28  1  0
 28 18  1  0
 29 31  1  0
 29 27  1  0
 30 29  2  0
M  END
$$$$
