RLR.pdb
     RDKit          3D

 31 30  0  0  1  0  0  0  0  0999 V2000
    6.9166  -12.5191   16.8861 N   0  0  0  0  0  0  0  0  0  0  0  0
    7.5156  -13.7138   16.3545 C   0  0  0  0  0  0  0  0  0  0  0  0
    7.3660  -14.0001   15.1176 N   0  0  0  0  0  0  0  0  0  0  0  0
    8.2724  -14.5913   17.1657 N   0  0  0  0  0  0  0  0  0  0  0  0
    8.4641  -14.4078   18.5883 C   0  0  0  0  0  0  0  0  0  0  0  0
    7.4748  -13.4599   19.1816 C   0  0  0  0  0  0  0  0  0  0  0  0
    7.5469  -13.2913   20.6597 C   0  0  0  0  0  0  0  0  0  0  0  0
    8.3554  -14.3366   21.3804 C   0  0  2  0  0  0  0  0  0  0  0  0
    7.8552  -15.6792   21.2127 N   0  0  0  0  0  0  0  0  0  0  0  0
    8.5662  -13.9914   22.8045 C   0  0  0  0  0  0  0  0  0  0  0  0
    8.5479  -12.8102   23.1634 O   0  0  0  0  0  0  0  0  0  0  0  0
    7.7686  -14.8722   14.7128 C   0  0  0  0  0  0  0  0  0  0  0  0
    5.9665  -12.1124   25.7021 C   0  0  1  0  0  0  0  0  0  0  0  0
    7.3000  -12.6779   25.2768 C   0  0  0  0  0  0  0  0  0  0  0  0
    8.3228  -12.1123   26.2789 C   0  0  0  0  0  0  0  0  0  0  0  0
    7.2925  -14.1447   25.3790 C   0  0  2  0  0  0  0  0  0  0  0  0
    8.5521  -14.8911   25.1653 N   0  0  0  0  0  0  0  0  0  0  0  0
    8.7857  -14.9878   23.7481 C   0  0  0  0  0  0  0  0  0  0  0  0
    8.7889  -16.0959   25.9330 O   0  0  0  0  0  0  0  0  0  0  0  0
    8.6820  -16.1617   27.2099 N   0  0  0  0  0  0  0  0  0  0  0  0
   14.5106  -14.7855   20.5246 C   0  0  0  0  0  0  0  0  0  0  0  0
   14.5554  -15.7285   21.5737 N   0  0  0  0  0  0  0  0  0  0  0  0
   15.6567  -16.3294   21.8229 N   0  0  0  0  0  0  0  0  0  0  0  0
   13.3870  -15.9809   22.3174 C   0  0  0  0  0  0  0  0  0  0  0  0
   12.5046  -17.0645   21.8951 C   0  0  0  0  0  0  0  0  0  0  0  0
   12.0164  -17.8440   23.0704 C   0  0  0  0  0  0  0  0  0  0  0  0
   11.2178  -17.0576   24.0267 C   0  0  2  0  0  0  0  0  0  0  0  0
   10.5374  -17.7518   25.1399 N   0  0  0  0  0  0  0  0  0  0  0  0
    9.1648  -17.3503   25.3755 C   0  0  0  0  0  0  0  0  0  0  0  0
   11.2950  -17.7485   26.4013 O   0  0  0  0  0  0  0  0  0  0  0  0
   11.3557  -18.8149   27.0822 O   0  0  0  0  0  0  0  0  0  0  0  0
  2  1  1  0
  2  3  2  0
  4  2  1  0
  5  4  1  0
  6  5  1  0
  7  6  1  0
  8  7  1  0
  8  9  1  1
 10  8  1  0
 10 11  2  0
 13 12  1  6
 14 13  1  0
 16 15  1  1
 15 13  1  0
 17 16  1  0
 17 10  1  0
 18 16  1  0
 19 18  2  0
 21 20  1  0
 21 22  2  0
 23 21  1  0
 24 23  1  0
 25 24  1  0
 25 26  1  0
 27 26  1  6
 27 28  1  0
 28 18  1  0
 29 31  1  0
 29 27  1  0
 30 29  2  0
M  END
$$$$
