RLR.pdb
     RDKit          3D

 31 30  0  0  1  0  0  0  0  0999 V2000
   10.2036  -14.0780   17.2106 N   0  0  0  0  0  0  0  0  0  0  0  0
    8.8897  -13.7648   16.7165 C   0  0  0  0  0  0  0  0  0  0  0  0
    8.7146  -13.5676   15.4656 N   0  0  0  0  0  0  0  0  0  0  0  0
    7.7737  -13.6666   17.5801 N   0  0  0  0  0  0  0  0  0  0  0  0
    7.7793  -12.9212   18.8205 C   0  0  0  0  0  0  0  0  0  0  0  0
    7.5436  -13.7902   20.0115 C   0  0  0  0  0  0  0  0  0  0  0  0
    8.7381  -14.5119   20.5319 C   0  0  0  0  0  0  0  0  0  0  0  0
    8.4471  -15.5450   21.5872 C   0  0  2  0  0  0  0  0  0  0  0  0
    7.0831  -16.0146   21.5836 N   0  0  0  0  0  0  0  0  0  0  0  0
    8.8839  -15.1042   22.9313 C   0  0  0  0  0  0  0  0  0  0  0  0
   10.0663  -14.8111   23.1317 O   0  0  0  0  0  0  0  0  0  0  0  0
    7.7871  -13.2762   15.0897 C   0  0  0  0  0  0  0  0  0  0  0  0
    5.2747  -12.4799   26.0580 C   0  0  1  0  0  0  0  0  0  0  0  0
    6.5485  -12.8913   25.3599 C   0  0  0  0  0  0  0  0  0  0  0  0
    7.5279  -11.7227   25.5733 C   0  0  0  0  0  0  0  0  0  0  0  0
    7.1071  -14.1016   25.9806 C   0  0  2  0  0  0  0  0  0  0  0  0
    8.2786  -14.7580   25.3596 N   0  0  0  0  0  0  0  0  0  0  0  0
    7.9725  -15.0158   23.9768 C   0  0  0  0  0  0  0  0  0  0  0  0
    8.9399  -15.8293   26.0755 O   0  0  0  0  0  0  0  0  0  0  0  0
    9.2369  -15.7780   27.3226 N   0  0  0  0  0  0  0  0  0  0  0  0
    6.0584  -22.6305   28.3149 C   0  0  0  0  0  0  0  0  0  0  0  0
    7.3077  -22.6119   28.9712 N   0  0  0  0  0  0  0  0  0  0  0  0
    7.3412  -22.6979   30.2469 N   0  0  0  0  0  0  0  0  0  0  0  0
    8.4825  -22.5003   28.2035 C   0  0  0  0  0  0  0  0  0  0  0  0
    8.4696  -21.6490   27.0175 C   0  0  0  0  0  0  0  0  0  0  0  0
    9.2114  -20.3779   27.2649 C   0  0  0  0  0  0  0  0  0  0  0  0
    9.2328  -19.4578   26.1144 C   0  0  2  0  0  0  0  0  0  0  0  0
    9.9261  -18.1589   26.2430 N   0  0  0  0  0  0  0  0  0  0  0  0
    9.3395  -17.0654   25.4942 C   0  0  0  0  0  0  0  0  0  0  0  0
   11.3757  -18.2261   25.9996 O   0  0  0  0  0  0  0  0  0  0  0  0
   11.8271  -17.8442   24.8793 O   0  0  0  0  0  0  0  0  0  0  0  0
  2  1  1  0
  2  3  2  0
  4  2  1  0
  5  4  1  0
  6  5  1  0
  7  6  1  0
  8  7  1  0
  8  9  1  1
 10  8  1  0
 10 11  2  0
 13 12  1  6
 14 13  1  0
 16 15  1  6
 15 13  1  0
 17 16  1  0
 17 10  1  0
 18 16  1  0
 19 18  2  0
 21 20  1  0
 21 22  2  0
 23 21  1  0
 24 23  1  0
 25 24  1  0
 25 26  1  0
 27 26  1  1
 27 28  1  0
 28 18  1  0
 29 31  1  0
 29 27  1  0
 30 29  2  0
M  END
$$$$
