IKQ.pdb
     RDKit          3D

 27 26  0  0  1  0  0  0  0  0999 V2000
   28.4223  -13.1785  -16.2648 C   0  0  0  0  0  0  0  0  0  0  0  0
   27.1101  -13.2191  -16.9636 C   0  0  0  0  0  0  0  0  0  0  0  0
   26.4505  -14.5897  -17.0084 C   0  0  2  0  0  0  0  0  0  0  0  0
   26.0749  -14.8750  -15.5524 C   0  0  0  0  0  0  0  0  0  0  0  0
   27.4249  -15.5590  -17.5693 C   0  0  2  0  0  0  0  0  0  0  0  0
   27.6987  -15.1352  -18.9531 N   0  0  0  0  0  0  0  0  0  0  0  0
   27.0273  -16.9622  -17.6216 C   0  0  0  0  0  0  0  0  0  0  0  0
   25.9912  -17.2936  -18.3036 O   0  0  0  0  0  0  0  0  0  0  0  0
   27.6570  -18.0632  -16.9963 N   0  0  0  0  0  0  0  0  0  0  0  0
   27.0825  -19.4014  -16.9882 C   0  0  1  0  0  0  0  0  0  0  0  0
   28.1714  -20.4271  -16.7924 C   0  0  0  0  0  0  0  0  0  0  0  0
   27.7232  -21.8412  -16.8424 C   0  0  0  0  0  0  0  0  0  0  0  0
   28.8487  -22.8279  -16.6178 C   0  0  0  0  0  0  0  0  0  0  0  0
   28.3772  -24.2471  -16.7795 C   0  0  0  0  0  0  0  0  0  0  0  0
   29.3935  -25.2058  -16.3496 N   0  0  0  0  0  0  0  0  0  0  0  0
   26.0631  -19.5718  -15.9518 C   0  0  0  0  0  0  0  0  0  0  0  0
   26.3181  -19.2225  -14.7722 O   0  0  0  0  0  0  0  0  0  0  0  0
   19.9960  -18.3943  -16.0820 N   0  0  0  0  0  0  0  0  0  0  0  0
   20.2326  -18.8923  -14.7813 C   0  0  0  0  0  0  0  0  0  0  0  0
   19.2921  -18.8434  -13.9383 O   0  0  0  0  0  0  0  0  0  0  0  0
   21.5237  -19.4689  -14.3518 C   0  0  0  0  0  0  0  0  0  0  0  0
   22.5673  -19.3163  -15.4362 C   0  0  0  0  0  0  0  0  0  0  0  0
   23.7730  -20.1756  -15.0946 C   0  0  2  0  0  0  0  0  0  0  0  0
   24.7589  -20.1149  -16.1516 N   0  0  0  0  0  0  0  0  0  0  0  0
   23.4019  -21.5825  -14.8750 C   0  0  0  0  0  0  0  0  0  0  0  0
   22.8253  -21.9789  -13.6921 O   0  0  0  0  0  0  0  0  0  0  0  0
   23.6116  -22.4260  -15.7694 O   0  0  0  0  0  0  0  0  0  0  0  0
  2  3  1  0
  2  1  1  0
  3  5  1  0
  3  4  1  1
  5  6  1  6
  7  5  1  0
  8  7  2  0
  9  7  1  0
 10  9  1  0
 10 11  1  1
 11 12  1  0
 12 13  1  0
 13 14  1  0
 14 15  1  0
 16 10  1  0
 17 16  2  0
 18 19  1  0
 19 21  1  0
 20 19  2  0
 22 21  1  0
 23 22  1  6
 23 24  1  0
 24 16  1  0
 25 23  1  0
 25 26  1  0
 27 25  2  0
M  END
$$$$
