IKQ.pdb
     RDKit          3D

 27 26  0  0  1  0  0  0  0  0999 V2000
   14.4319  -14.7422  -15.7113 C   0  0  0  0  0  0  0  0  0  0  0  0
   14.1747  -13.3187  -15.3661 C   0  0  0  0  0  0  0  0  0  0  0  0
   15.2222  -12.6785  -14.4669 C   0  0  2  0  0  0  0  0  0  0  0  0
   15.2392  -13.5637  -13.2186 C   0  0  0  0  0  0  0  0  0  0  0  0
   14.8112  -11.2784  -14.1944 C   0  0  2  0  0  0  0  0  0  0  0  0
   14.6053  -10.6327  -15.5021 N   0  0  0  0  0  0  0  0  0  0  0  0
   15.7368  -10.4374  -13.4422 C   0  0  0  0  0  0  0  0  0  0  0  0
   16.0762  -10.7880  -12.2547 O   0  0  0  0  0  0  0  0  0  0  0  0
   16.3441   -9.2309  -13.8608 N   0  0  0  0  0  0  0  0  0  0  0  0
   17.2224   -8.4493  -13.0014 C   0  0  1  0  0  0  0  0  0  0  0  0
   18.2509   -7.7283  -13.8372 C   0  0  0  0  0  0  0  0  0  0  0  0
   19.2815   -8.5971  -14.4585 C   0  0  0  0  0  0  0  0  0  0  0  0
   20.2358   -7.8370  -15.3542 C   0  0  0  0  0  0  0  0  0  0  0  0
   21.1659   -8.7676  -16.0832 C   0  0  0  0  0  0  0  0  0  0  0  0
   21.9631   -8.0598  -17.0833 N   0  0  0  0  0  0  0  0  0  0  0  0
   16.4942   -7.4782  -12.1836 C   0  0  0  0  0  0  0  0  0  0  0  0
   15.5463   -6.8300  -12.6933 O   0  0  0  0  0  0  0  0  0  0  0  0
   12.1975   -6.0259   -7.0835 N   0  0  0  0  0  0  0  0  0  0  0  0
   12.6280   -6.0690   -8.4283 C   0  0  0  0  0  0  0  0  0  0  0  0
   11.8376   -6.5335   -9.2983 O   0  0  0  0  0  0  0  0  0  0  0  0
   13.9563   -5.5989   -8.8741 C   0  0  0  0  0  0  0  0  0  0  0  0
   14.6924   -6.6931   -9.6151 C   0  0  0  0  0  0  0  0  0  0  0  0
   16.0362   -6.1622  -10.0855 C   0  0  2  0  0  0  0  0  0  0  0  0
   16.7607   -7.1806  -10.8139 N   0  0  0  0  0  0  0  0  0  0  0  0
   16.8692   -5.7009   -8.9636 C   0  0  0  0  0  0  0  0  0  0  0  0
   16.4776   -4.6329   -8.1924 O   0  0  0  0  0  0  0  0  0  0  0  0
   17.9421   -6.2830   -8.7076 O   0  0  0  0  0  0  0  0  0  0  0  0
  2  3  1  0
  2  1  1  0
  3  5  1  0
  3  4  1  1
  5  6  1  6
  7  5  1  0
  8  7  2  0
  9  7  1  0
 10  9  1  0
 10 11  1  6
 11 12  1  0
 12 13  1  0
 13 14  1  0
 14 15  1  0
 16 10  1  0
 17 16  2  0
 18 19  1  0
 19 21  1  0
 20 19  2  0
 22 21  1  0
 23 22  1  1
 23 24  1  0
 24 16  1  0
 25 23  1  0
 25 26  1  0
 27 25  2  0
M  END
$$$$
