IKQ.pdb
     RDKit          3D

 27 26  0  0  1  0  0  0  0  0999 V2000
   26.1878  -13.4131  -15.4245 C   0  0  0  0  0  0  0  0  0  0  0  0
   24.7807  -13.8126  -15.6935 C   0  0  0  0  0  0  0  0  0  0  0  0
   23.7664  -12.6816  -15.6074 C   0  0  2  0  0  0  0  0  0  0  0  0
   23.8244  -12.2337  -14.1451 C   0  0  0  0  0  0  0  0  0  0  0  0
   22.4402  -13.2117  -16.0121 C   0  0  2  0  0  0  0  0  0  0  0  0
   22.5957  -13.7551  -17.3722 N   0  0  0  0  0  0  0  0  0  0  0  0
   21.3217  -12.2750  -16.0502 C   0  0  0  0  0  0  0  0  0  0  0  0
   21.3934  -11.2463  -16.8151 O   0  0  0  0  0  0  0  0  0  0  0  0
   20.1084  -12.3471  -15.3275 N   0  0  0  0  0  0  0  0  0  0  0  0
   19.0763  -11.3233  -15.4131 C   0  0  1  0  0  0  0  0  0  0  0  0
   17.7471  -11.8965  -14.9876 C   0  0  0  0  0  0  0  0  0  0  0  0
   16.6070  -10.9471  -15.0313 C   0  0  0  0  0  0  0  0  0  0  0  0
   15.6065  -11.2721  -16.1194 C   0  0  0  0  0  0  0  0  0  0  0  0
   14.5271  -10.2280  -16.2045 C   0  0  0  0  0  0  0  0  0  0  0  0
   13.5061  -10.5860  -17.1875 N   0  0  0  0  0  0  0  0  0  0  0  0
   19.3801  -10.1458  -14.5986 C   0  0  0  0  0  0  0  0  0  0  0  0
   19.8382  -10.2994  -13.4389 O   0  0  0  0  0  0  0  0  0  0  0  0
   23.3262   -5.8029  -15.1939 N   0  0  0  0  0  0  0  0  0  0  0  0
   22.5956   -5.3890  -14.0579 C   0  0  0  0  0  0  0  0  0  0  0  0
   23.1011   -4.5079  -13.3058 O   0  0  0  0  0  0  0  0  0  0  0  0
   21.2685   -5.9320  -13.7002 C   0  0  0  0  0  0  0  0  0  0  0  0
   20.8720   -7.0461  -14.6435 C   0  0  0  0  0  0  0  0  0  0  0  0
   19.5752   -7.6733  -14.1600 C   0  0  2  0  0  0  0  0  0  0  0  0
   19.2026   -8.7888  -15.0023 N   0  0  0  0  0  0  0  0  0  0  0  0
   18.4680   -6.7041  -14.1425 C   0  0  0  0  0  0  0  0  0  0  0  0
   18.4412   -5.6870  -13.2186 O   0  0  0  0  0  0  0  0  0  0  0  0
   17.5431   -6.8042  -14.9731 O   0  0  0  0  0  0  0  0  0  0  0  0
  2  3  1  0
  2  1  1  0
  3  5  1  0
  3  4  1  1
  5  6  1  6
  7  5  1  0
  8  7  2  0
  9  7  1  0
 10  9  1  0
 10 11  1  1
 11 12  1  0
 12 13  1  0
 13 14  1  0
 14 15  1  0
 16 10  1  0
 17 16  2  0
 18 19  1  0
 19 21  1  0
 20 19  2  0
 22 21  1  0
 23 22  1  6
 23 24  1  0
 24 16  1  0
 25 23  1  0
 25 26  1  0
 27 25  2  0
M  END
$$$$
