IKQ.pdb
     RDKit          3D

 27 26  0  0  1  0  0  0  0  0999 V2000
   21.0030  -10.8319  -24.9840 C   0  0  0  0  0  0  0  0  0  0  0  0
   20.9187  -11.8476  -23.9010 C   0  0  0  0  0  0  0  0  0  0  0  0
   20.2253  -11.3745  -22.6318 C   0  0  2  0  0  0  0  0  0  0  0  0
   21.1418  -10.2758  -22.0886 C   0  0  0  0  0  0  0  0  0  0  0  0
   20.0845  -12.5345  -21.7162 C   0  0  2  0  0  0  0  0  0  0  0  0
   19.2588  -13.5327  -22.4172 N   0  0  0  0  0  0  0  0  0  0  0  0
   19.4610  -12.2981  -20.4181 C   0  0  0  0  0  0  0  0  0  0  0  0
   18.2150  -11.9925  -20.3693 O   0  0  0  0  0  0  0  0  0  0  0  0
   20.0678  -12.3641  -19.1425 N   0  0  0  0  0  0  0  0  0  0  0  0
   19.3567  -12.0448  -17.9124 C   0  0  1  0  0  0  0  0  0  0  0  0
   19.1562  -13.2968  -17.0947 C   0  0  0  0  0  0  0  0  0  0  0  0
   18.4342  -13.1045  -15.8122 C   0  0  0  0  0  0  0  0  0  0  0  0
   18.2958  -14.3822  -15.0127 C   0  0  0  0  0  0  0  0  0  0  0  0
   17.3878  -14.1949  -13.8283 C   0  0  0  0  0  0  0  0  0  0  0  0
   17.1333  -15.4580  -13.1381 N   0  0  0  0  0  0  0  0  0  0  0  0
   20.0511  -11.0424  -17.1028 C   0  0  0  0  0  0  0  0  0  0  0  0
   21.2869  -11.1559  -16.9068 O   0  0  0  0  0  0  0  0  0  0  0  0
   20.1918   -4.9450  -17.3916 N   0  0  0  0  0  0  0  0  0  0  0  0
   20.8457   -5.2211  -16.1702 C   0  0  0  0  0  0  0  0  0  0  0  0
   21.4476   -4.2772  -15.5834 O   0  0  0  0  0  0  0  0  0  0  0  0
   20.8642   -6.5575  -15.5396 C   0  0  0  0  0  0  0  0  0  0  0  0
   20.1122   -7.5610  -16.3857 C   0  0  0  0  0  0  0  0  0  0  0  0
   20.2053   -8.9319  -15.7369 C   0  0  2  0  0  0  0  0  0  0  0  0
   19.4450   -9.9055  -16.4897 N   0  0  0  0  0  0  0  0  0  0  0  0
   19.7144   -8.9191  -14.3498 C   0  0  0  0  0  0  0  0  0  0  0  0
   20.4790   -8.3849  -13.3404 O   0  0  0  0  0  0  0  0  0  0  0  0
   18.5934   -9.3970  -14.0844 O   0  0  0  0  0  0  0  0  0  0  0  0
  2  3  1  0
  2  1  1  0
  3  5  1  0
  3  4  1  1
  5  6  1  6
  7  5  1  0
  8  7  2  0
  9  7  1  0
 10  9  1  0
 10 11  1  1
 11 12  1  0
 12 13  1  0
 13 14  1  0
 14 15  1  0
 16 10  1  0
 17 16  2  0
 18 19  1  0
 19 21  1  0
 20 19  2  0
 22 21  1  0
 23 22  1  6
 23 24  1  0
 24 16  1  0
 25 23  1  0
 25 26  1  0
 27 25  2  0
M  END
$$$$
