IKQ.pdb
     RDKit          3D

 27 26  0  0  1  0  0  0  0  0999 V2000
   28.1904  -19.6572  -17.7411 C   0  0  0  0  0  0  0  0  0  0  0  0
   28.2650  -20.4415  -16.4797 C   0  0  0  0  0  0  0  0  0  0  0  0
   26.9710  -20.4941  -15.6808 C   0  0  2  0  0  0  0  0  0  0  0  0
   26.6946  -19.0341  -15.3144 C   0  0  0  0  0  0  0  0  0  0  0  0
   27.1852  -21.3702  -14.5018 C   0  0  2  0  0  0  0  0  0  0  0  0
   27.4846  -22.7160  -15.0200 N   0  0  0  0  0  0  0  0  0  0  0  0
   26.0826  -21.5107  -13.5560 C   0  0  0  0  0  0  0  0  0  0  0  0
   25.0680  -22.2275  -13.8804 O   0  0  0  0  0  0  0  0  0  0  0  0
   25.9714  -20.9407  -12.2667 N   0  0  0  0  0  0  0  0  0  0  0  0
   24.7453  -20.9940  -11.4828 C   0  0  1  0  0  0  0  0  0  0  0  0
   24.9187  -20.2134  -10.2034 C   0  0  0  0  0  0  0  0  0  0  0  0
   23.7044  -20.1119   -9.3560 C   0  0  0  0  0  0  0  0  0  0  0  0
   23.3418  -21.4172   -8.6812 C   0  0  0  0  0  0  0  0  0  0  0  0
   22.1243  -21.2675   -7.8108 C   0  0  0  0  0  0  0  0  0  0  0  0
   21.8148  -22.5054   -7.0978 N   0  0  0  0  0  0  0  0  0  0  0  0
   23.5859  -20.4785  -12.2125 C   0  0  0  0  0  0  0  0  0  0  0  0
   23.6117  -19.3058  -12.6626 O   0  0  0  0  0  0  0  0  0  0  0  0
   19.4485  -23.2656  -15.7149 N   0  0  0  0  0  0  0  0  0  0  0  0
   19.1824  -21.8931  -15.9175 C   0  0  0  0  0  0  0  0  0  0  0  0
   18.1613  -21.5711  -16.5892 O   0  0  0  0  0  0  0  0  0  0  0  0
   20.0358  -20.8104  -15.3852 C   0  0  0  0  0  0  0  0  0  0  0  0
   21.1971  -21.3787  -14.5999 C   0  0  0  0  0  0  0  0  0  0  0  0
   21.3069  -20.6499  -13.2711 C   0  0  2  0  0  0  0  0  0  0  0  0
   22.3828  -21.1992  -12.4751 N   0  0  0  0  0  0  0  0  0  0  0  0
   20.0585  -20.7274  -12.4959 C   0  0  0  0  0  0  0  0  0  0  0  0
   19.0543  -19.8096  -12.6905 O   0  0  0  0  0  0  0  0  0  0  0  0
   19.9074  -21.6341  -11.6529 O   0  0  0  0  0  0  0  0  0  0  0  0
  2  3  1  0
  2  1  1  0
  3  5  1  0
  3  4  1  1
  5  6  1  6
  7  5  1  0
  8  7  2  0
  9  7  1  0
 10  9  1  0
 10 11  1  1
 11 12  1  0
 12 13  1  0
 13 14  1  0
 14 15  1  0
 16 10  1  0
 17 16  2  0
 18 19  1  0
 19 21  1  0
 20 19  2  0
 22 21  1  0
 23 22  1  6
 23 24  1  0
 24 16  1  0
 25 23  1  0
 25 26  1  0
 27 25  2  0
M  END
$$$$
