IKQ.pdb
     RDKit          3D

 27 26  0  0  1  0  0  0  0  0999 V2000
   17.4232  -18.5450  -27.0514 C   0  0  0  0  0  0  0  0  0  0  0  0
   17.8207  -18.9380  -25.6733 C   0  0  0  0  0  0  0  0  0  0  0  0
   17.6495  -17.8506  -24.6227 C   0  0  2  0  0  0  0  0  0  0  0  0
   18.5646  -16.7197  -25.0980 C   0  0  0  0  0  0  0  0  0  0  0  0
   18.0363  -18.4105  -23.3035 C   0  0  2  0  0  0  0  0  0  0  0  0
   17.1619  -19.5705  -23.0600 N   0  0  0  0  0  0  0  0  0  0  0  0
   17.9230  -17.5369  -22.1399 C   0  0  0  0  0  0  0  0  0  0  0  0
   16.7568  -17.2333  -21.6971 O   0  0  0  0  0  0  0  0  0  0  0  0
   18.9712  -16.9506  -21.3934 N   0  0  0  0  0  0  0  0  0  0  0  0
   18.7364  -16.0133  -20.3040 C   0  0  1  0  0  0  0  0  0  0  0  0
   19.6677  -16.3155  -19.1561 C   0  0  0  0  0  0  0  0  0  0  0  0
   19.0112  -16.4685  -17.8337 C   0  0  0  0  0  0  0  0  0  0  0  0
   18.3261  -17.8073  -17.6636 C   0  0  0  0  0  0  0  0  0  0  0  0
   17.5631  -17.8748  -16.3691 C   0  0  0  0  0  0  0  0  0  0  0  0
   16.7353  -19.0771  -16.2925 N   0  0  0  0  0  0  0  0  0  0  0  0
   18.9067  -14.6182  -20.7128 C   0  0  0  0  0  0  0  0  0  0  0  0
   19.7313  -14.3370  -21.6181 O   0  0  0  0  0  0  0  0  0  0  0  0
   17.2015   -7.4707  -19.8801 N   0  0  0  0  0  0  0  0  0  0  0  0
   17.0207   -8.8643  -19.7355 C   0  0  0  0  0  0  0  0  0  0  0  0
   16.4258   -9.2899  -18.7048 O   0  0  0  0  0  0  0  0  0  0  0  0
   17.4907   -9.8542  -20.7271 C   0  0  0  0  0  0  0  0  0  0  0  0
   17.2361  -11.2639  -20.2410 C   0  0  0  0  0  0  0  0  0  0  0  0
   18.3989  -12.1521  -20.6509 C   0  0  2  0  0  0  0  0  0  0  0  0
   18.2052  -13.5018  -20.1676 N   0  0  0  0  0  0  0  0  0  0  0  0
   19.6837  -11.6474  -20.1408 C   0  0  0  0  0  0  0  0  0  0  0  0
   20.3381  -10.6224  -20.7809 O   0  0  0  0  0  0  0  0  0  0  0  0
   20.1862  -12.1531  -19.1175 O   0  0  0  0  0  0  0  0  0  0  0  0
  2  3  1  0
  2  1  1  0
  3  5  1  0
  3  4  1  6
  5  6  1  1
  7  5  1  0
  8  7  2  0
  9  7  1  0
 10  9  1  0
 10 11  1  1
 11 12  1  0
 12 13  1  0
 13 14  1  0
 14 15  1  0
 16 10  1  0
 17 16  2  0
 18 19  1  0
 19 21  1  0
 20 19  2  0
 22 21  1  0
 23 22  1  1
 23 24  1  0
 24 16  1  0
 25 23  1  0
 25 26  1  0
 27 25  2  0
M  END
$$$$
