FYV.pdb
     RDKit          3D

 31 32  0  0  1  0  0  0  0  0999 V2000
   23.7892  -11.8387  -17.5817 N   0  0  0  0  0  0  0  0  0  0  0  0
   23.4519  -11.0790  -18.7556 C   0  0  1  0  0  0  0  0  0  0  0  0
   23.0290  -11.9774  -19.9036 C   0  0  0  0  0  0  0  0  0  0  0  0
   24.1084  -12.9532  -20.2107 C   0  0  0  0  0  0  0  0  0  0  0  0
   23.9285  -14.3104  -19.9411 C   0  0  0  0  0  0  0  0  0  0  0  0
   24.9216  -15.2126  -20.2227 C   0  0  0  0  0  0  0  0  0  0  0  0
   26.1185  -14.8176  -20.7753 C   0  0  0  0  0  0  0  0  0  0  0  0
   26.3250  -13.4992  -21.0504 C   0  0  0  0  0  0  0  0  0  0  0  0
   25.3201  -12.6011  -20.7632 C   0  0  0  0  0  0  0  0  0  0  0  0
   22.4000  -10.0858  -18.4986 C   0  0  0  0  0  0  0  0  0  0  0  0
   21.9741   -9.3706  -19.4248 O   0  0  0  0  0  0  0  0  0  0  0  0
   15.1324   -6.1472  -16.1919 O   0  0  0  0  0  0  0  0  0  0  0  0
   16.2145   -7.0240  -16.3631 C   0  0  0  0  0  0  0  0  0  0  0  0
   16.8805   -7.1208  -17.5637 C   0  0  0  0  0  0  0  0  0  0  0  0
   17.9366   -7.9836  -17.7131 C   0  0  0  0  0  0  0  0  0  0  0  0
   18.3882   -8.7959  -16.6811 C   0  0  0  0  0  0  0  0  0  0  0  0
   19.5369   -9.7092  -16.9060 C   0  0  0  0  0  0  0  0  0  0  0  0
   20.8579   -8.9490  -16.9538 C   0  0  2  0  0  0  0  0  0  0  0  0
   21.8717   -9.9453  -17.1972 N   0  0  0  0  0  0  0  0  0  0  0  0
   21.0702   -8.1380  -15.7526 C   0  0  0  0  0  0  0  0  0  0  0  0
   21.3168   -8.6266  -14.6227 O   0  0  0  0  0  0  0  0  0  0  0  0
   17.7245   -8.7017  -15.4794 C   0  0  0  0  0  0  0  0  0  0  0  0
   16.6480   -7.8223  -15.3263 C   0  0  0  0  0  0  0  0  0  0  0  0
   22.3226   -3.7686  -14.0929 C   0  0  0  0  0  0  0  0  0  0  0  0
   22.1993   -4.7817  -15.1880 C   0  0  1  0  0  0  0  0  0  0  0  0
   23.5494   -5.3902  -15.4492 C   0  0  0  0  0  0  0  0  0  0  0  0
   21.1837   -5.8369  -14.7351 C   0  0  2  0  0  0  0  0  0  0  0  0
   20.9980   -6.7265  -15.8556 N   0  0  0  0  0  0  0  0  0  0  0  0
   19.9217   -5.0949  -14.5094 C   0  0  0  0  0  0  0  0  0  0  0  0
   19.5581   -4.6633  -13.2461 O   0  0  0  0  0  0  0  0  0  0  0  0
   19.1250   -4.8258  -15.4598 O   0  0  0  0  0  0  0  0  0  0  0  0
  2  1  1  1
  2  3  1  0
  2 10  1  0
  3  4  1  0
  4  9  1  0
  4  5  2  0
  5  6  1  0
  6  7  2  0
  8  7  1  0
  9  8  2  0
 10 11  2  0
 13 12  1  0
 13 14  2  0
 15 14  1  0
 16 15  2  0
 17 16  1  0
 18 17  1  1
 19 18  1  0
 19 10  1  0
 20 28  1  0
 20 18  1  0
 21 20  2  0
 22 23  2  0
 22 16  1  0
 23 13  1  0
 25 24  1  1
 26 25  1  0
 27 28  1  6
 27 25  1  0
 29 27  1  0
 30 29  1  0
 31 29  2  0
M  END
$$$$
