FYV.pdb
     RDKit          3D

 31 32  0  0  1  0  0  0  0  0999 V2000
   25.6106  -21.3790   -7.7024 N   0  0  0  0  0  0  0  0  0  0  0  0
   26.1428  -20.2027   -8.3364 C   0  0  1  0  0  0  0  0  0  0  0  0
   27.6592  -20.1706   -8.2781 C   0  0  0  0  0  0  0  0  0  0  0  0
   28.1102  -19.9436   -6.8793 C   0  0  0  0  0  0  0  0  0  0  0  0
   29.4702  -19.8347   -6.5867 C   0  0  0  0  0  0  0  0  0  0  0  0
   29.8893  -19.6256   -5.2983 C   0  0  0  0  0  0  0  0  0  0  0  0
   28.9947  -19.5167   -4.2582 C   0  0  0  0  0  0  0  0  0  0  0  0
   27.6598  -19.6186   -4.5113 C   0  0  0  0  0  0  0  0  0  0  0  0
   27.2496  -19.8288   -5.8099 C   0  0  0  0  0  0  0  0  0  0  0  0
   25.7040  -20.0700   -9.7325 C   0  0  0  0  0  0  0  0  0  0  0  0
   26.1173  -19.1263  -10.4319 O   0  0  0  0  0  0  0  0  0  0  0  0
   29.7765  -20.7474  -15.1648 O   0  0  0  0  0  0  0  0  0  0  0  0
   28.5985  -21.0775  -14.4778 C   0  0  0  0  0  0  0  0  0  0  0  0
   27.3592  -20.9205  -15.0556 C   0  0  0  0  0  0  0  0  0  0  0  0
   26.2177  -21.2484  -14.3688 C   0  0  0  0  0  0  0  0  0  0  0  0
   26.2440  -21.7491  -13.0737 C   0  0  0  0  0  0  0  0  0  0  0  0
   24.9731  -22.0852  -12.3837 C   0  0  0  0  0  0  0  0  0  0  0  0
   24.3945  -20.8783  -11.6530 C   0  0  2  0  0  0  0  0  0  0  0  0
   24.8124  -21.0175  -10.2799 N   0  0  0  0  0  0  0  0  0  0  0  0
   22.9471  -20.7602  -11.8453 C   0  0  0  0  0  0  0  0  0  0  0  0
   22.1024  -21.2214  -11.0392 O   0  0  0  0  0  0  0  0  0  0  0  0
   27.4814  -21.9073  -12.4929 C   0  0  0  0  0  0  0  0  0  0  0  0
   28.6454  -21.5732  -13.1923 C   0  0  0  0  0  0  0  0  0  0  0  0
   21.5595  -17.5519  -13.8781 C   0  0  0  0  0  0  0  0  0  0  0  0
   20.9881  -18.8385  -14.3868 C   0  0  1  0  0  0  0  0  0  0  0  0
   21.7788  -19.2885  -15.5840 C   0  0  0  0  0  0  0  0  0  0  0  0
   21.0578  -19.8624  -13.2480 C   0  0  2  0  0  0  0  0  0  0  0  0
   22.4597  -20.0917  -12.9958 N   0  0  0  0  0  0  0  0  0  0  0  0
   20.4701  -21.1045  -13.8010 C   0  0  0  0  0  0  0  0  0  0  0  0
   19.1123  -21.3566  -13.7162 O   0  0  0  0  0  0  0  0  0  0  0  0
   21.1832  -21.9851  -14.3723 O   0  0  0  0  0  0  0  0  0  0  0  0
  2  1  1  6
  2  3  1  0
  2 10  1  0
  3  4  1  0
  4  9  1  0
  4  5  2  0
  5  6  1  0
  6  7  2  0
  8  7  1  0
  9  8  2  0
 10 11  2  0
 13 12  1  0
 13 14  2  0
 15 14  1  0
 16 15  2  0
 17 16  1  0
 18 17  1  6
 19 18  1  0
 19 10  1  0
 20 28  1  0
 20 18  1  0
 21 20  2  0
 22 23  2  0
 22 16  1  0
 23 13  1  0
 25 24  1  1
 26 25  1  0
 27 28  1  6
 27 25  1  0
 29 27  1  0
 30 29  1  0
 31 29  2  0
M  END
$$$$
