FYV.pdb
     RDKit          3D

 31 32  0  0  1  0  0  0  0  0999 V2000
   34.2758  -30.1134  -18.8471 N   0  0  0  0  0  0  0  0  0  0  0  0
   33.6680  -28.8303  -19.0784 C   0  0  1  0  0  0  0  0  0  0  0  0
   33.8976  -28.3482  -20.4992 C   0  0  0  0  0  0  0  0  0  0  0  0
   35.3477  -28.1098  -20.7277 C   0  0  0  0  0  0  0  0  0  0  0  0
   36.0663  -28.9262  -21.6019 C   0  0  0  0  0  0  0  0  0  0  0  0
   37.4031  -28.7094  -21.8148 C   0  0  0  0  0  0  0  0  0  0  0  0
   38.0777  -27.6905  -21.1816 C   0  0  0  0  0  0  0  0  0  0  0  0
   37.4041  -26.8759  -20.3219 C   0  0  0  0  0  0  0  0  0  0  0  0
   36.0607  -27.1029  -20.1154 C   0  0  0  0  0  0  0  0  0  0  0  0
   32.2274  -28.8311  -18.7888 C   0  0  0  0  0  0  0  0  0  0  0  0
   31.5733  -29.8878  -18.8677 O   0  0  0  0  0  0  0  0  0  0  0  0
   24.3945  -26.2178  -15.7056 O   0  0  0  0  0  0  0  0  0  0  0  0
   25.7567  -26.3837  -15.9982 C   0  0  0  0  0  0  0  0  0  0  0  0
   26.5475  -25.3219  -16.3745 C   0  0  0  0  0  0  0  0  0  0  0  0
   27.8777  -25.5026  -16.6569 C   0  0  0  0  0  0  0  0  0  0  0  0
   28.4945  -26.7446  -16.5813 C   0  0  0  0  0  0  0  0  0  0  0  0
   29.9388  -26.8749  -16.8997 C   0  0  0  0  0  0  0  0  0  0  0  0
   30.1601  -27.6298  -18.2060 C   0  0  2  0  0  0  0  0  0  0  0  0
   31.5863  -27.6292  -18.4191 N   0  0  0  0  0  0  0  0  0  0  0  0
   29.3746  -27.0671  -19.3070 C   0  0  0  0  0  0  0  0  0  0  0  0
   29.6494  -25.9771  -19.8662 O   0  0  0  0  0  0  0  0  0  0  0  0
   27.7069  -27.8085  -16.2053 C   0  0  0  0  0  0  0  0  0  0  0  0
   26.3508  -27.6250  -15.9173 C   0  0  0  0  0  0  0  0  0  0  0  0
   26.0189  -28.0730  -22.7035 C   0  0  0  0  0  0  0  0  0  0  0  0
   27.0534  -28.5010  -21.7098 C   0  0  1  0  0  0  0  0  0  0  0  0
   28.2711  -28.9871  -22.4460 C   0  0  0  0  0  0  0  0  0  0  0  0
   27.3760  -27.2931  -20.8227 C   0  0  2  0  0  0  0  0  0  0  0  0
   28.2435  -27.7793  -19.7775 N   0  0  0  0  0  0  0  0  0  0  0  0
   26.0845  -26.8965  -20.2155 C   0  0  0  0  0  0  0  0  0  0  0  0
   25.4590  -25.7131  -20.5661 O   0  0  0  0  0  0  0  0  0  0  0  0
   25.5007  -27.6210  -19.3526 O   0  0  0  0  0  0  0  0  0  0  0  0
  2  1  1  6
  2  3  1  0
  2 10  1  0
  3  4  1  0
  4  9  1  0
  4  5  2  0
  5  6  1  0
  6  7  2  0
  8  7  1  0
  9  8  2  0
 10 11  2  0
 13 12  1  0
 13 14  2  0
 15 14  1  0
 16 15  2  0
 17 16  1  0
 18 17  1  1
 19 18  1  0
 19 10  1  0
 20 28  1  0
 20 18  1  0
 21 20  2  0
 22 23  2  0
 22 16  1  0
 23 13  1  0
 25 24  1  6
 26 25  1  0
 27 28  1  1
 27 25  1  0
 29 27  1  0
 30 29  1  0
 31 29  2  0
M  END
$$$$
