FYV.pdb
     RDKit          3D

 31 32  0  0  1  0  0  0  0  0999 V2000
   27.4222  -20.8789  -17.1357 N   0  0  0  0  0  0  0  0  0  0  0  0
   27.5975  -20.1594  -15.9025 C   0  0  1  0  0  0  0  0  0  0  0  0
   27.2066  -18.6995  -16.0438 C   0  0  0  0  0  0  0  0  0  0  0  0
   28.1394  -18.0106  -16.9749 C   0  0  0  0  0  0  0  0  0  0  0  0
   29.5172  -18.0676  -16.7615 C   0  0  0  0  0  0  0  0  0  0  0  0
   30.3799  -17.4335  -17.6177 C   0  0  0  0  0  0  0  0  0  0  0  0
   29.9242  -16.7257  -18.7065 C   0  0  0  0  0  0  0  0  0  0  0  0
   28.5843  -16.6513  -18.9422 C   0  0  0  0  0  0  0  0  0  0  0  0
   27.7262  -17.2923  -18.0752 C   0  0  0  0  0  0  0  0  0  0  0  0
   26.8490  -20.7609  -14.7902 C   0  0  0  0  0  0  0  0  0  0  0  0
   25.7890  -21.3766  -15.0092 O   0  0  0  0  0  0  0  0  0  0  0  0
   24.0521  -20.8379   -6.4228 O   0  0  0  0  0  0  0  0  0  0  0  0
   24.8540  -20.8211   -7.5741 C   0  0  0  0  0  0  0  0  0  0  0  0
   24.9488  -21.9163   -8.4023 C   0  0  0  0  0  0  0  0  0  0  0  0
   25.7379  -21.8821   -9.5240 C   0  0  0  0  0  0  0  0  0  0  0  0
   26.4744  -20.7612   -9.8842 C   0  0  0  0  0  0  0  0  0  0  0  0
   27.3101  -20.7870  -11.1111 C   0  0  0  0  0  0  0  0  0  0  0  0
   26.4590  -20.9414  -12.3671 C   0  0  2  0  0  0  0  0  0  0  0  0
   27.3364  -20.6398  -13.4711 N   0  0  0  0  0  0  0  0  0  0  0  0
   25.2416  -20.1288  -12.3106 C   0  0  0  0  0  0  0  0  0  0  0  0
   25.2493  -18.8758  -12.2332 O   0  0  0  0  0  0  0  0  0  0  0  0
   26.3820  -19.6644   -9.0584 C   0  0  0  0  0  0  0  0  0  0  0  0
   25.5779  -19.6985   -7.9148 C   0  0  0  0  0  0  0  0  0  0  0  0
   22.1906  -21.3539  -14.3838 C   0  0  0  0  0  0  0  0  0  0  0  0
   22.3209  -19.9630  -13.8460 C   0  0  1  0  0  0  0  0  0  0  0  0
   21.0086  -19.2473  -14.0100 C   0  0  0  0  0  0  0  0  0  0  0  0
   22.7245  -20.0691  -12.3709 C   0  0  2  0  0  0  0  0  0  0  0  0
   23.9817  -20.7764  -12.3456 N   0  0  0  0  0  0  0  0  0  0  0  0
   21.6911  -20.9240  -11.7422 C   0  0  0  0  0  0  0  0  0  0  0  0
   21.9354  -22.2561  -11.4592 O   0  0  0  0  0  0  0  0  0  0  0  0
   20.5443  -20.4732  -11.4387 O   0  0  0  0  0  0  0  0  0  0  0  0
  2  1  1  6
  2  3  1  0
  2 10  1  0
  3  4  1  0
  4  9  1  0
  4  5  2  0
  5  6  1  0
  6  7  2  0
  8  7  1  0
  9  8  2  0
 10 11  2  0
 13 12  1  0
 13 14  2  0
 15 14  1  0
 16 15  2  0
 17 16  1  0
 18 17  1  1
 19 18  1  0
 19 10  1  0
 20 28  1  0
 20 18  1  0
 21 20  2  0
 22 23  2  0
 22 16  1  0
 23 13  1  0
 25 24  1  1
 26 25  1  0
 27 28  1  6
 27 25  1  0
 29 27  1  0
 30 29  1  0
 31 29  2  0
M  END
$$$$
