FYV.pdb
     RDKit          3D

 31 32  0  0  1  0  0  0  0  0999 V2000
   25.9788  -19.5763  -14.7572 N   0  0  0  0  0  0  0  0  0  0  0  0
   26.9596  -19.3029  -13.7412 C   0  0  1  0  0  0  0  0  0  0  0  0
   27.5803  -17.9287  -13.9152 C   0  0  0  0  0  0  0  0  0  0  0  0
   28.2335  -17.8302  -15.2476 C   0  0  0  0  0  0  0  0  0  0  0  0
   29.3905  -18.5610  -15.5204 C   0  0  0  0  0  0  0  0  0  0  0  0
   29.9953  -18.4724  -16.7475 C   0  0  0  0  0  0  0  0  0  0  0  0
   29.4895  -17.6690  -17.7439 C   0  0  0  0  0  0  0  0  0  0  0  0
   28.3609  -16.9428  -17.5087 C   0  0  0  0  0  0  0  0  0  0  0  0
   27.7613  -17.0394  -16.2718 C   0  0  0  0  0  0  0  0  0  0  0  0
   26.4103  -19.4232  -12.3836 C   0  0  0  0  0  0  0  0  0  0  0  0
   25.7065  -18.5117  -11.9098 O   0  0  0  0  0  0  0  0  0  0  0  0
   20.5095  -20.0128  -13.3615 O   0  0  0  0  0  0  0  0  0  0  0  0
   21.6284  -20.4516  -12.6375 C   0  0  0  0  0  0  0  0  0  0  0  0
   21.8131  -20.1073  -11.3177 C   0  0  0  0  0  0  0  0  0  0  0  0
   22.9133  -20.5454  -10.6252 C   0  0  0  0  0  0  0  0  0  0  0  0
   23.8883  -21.3475  -11.2036 C   0  0  0  0  0  0  0  0  0  0  0  0
   25.0564  -21.7891  -10.4006 C   0  0  0  0  0  0  0  0  0  0  0  0
   26.1132  -20.6945  -10.2975 C   0  0  2  0  0  0  0  0  0  0  0  0
   26.6818  -20.5772  -11.6175 N   0  0  0  0  0  0  0  0  0  0  0  0
   27.0828  -20.9639   -9.2331 C   0  0  0  0  0  0  0  0  0  0  0  0
   28.0276  -21.7824   -9.3489 O   0  0  0  0  0  0  0  0  0  0  0  0
   23.7069  -21.6936  -12.5230 C   0  0  0  0  0  0  0  0  0  0  0  0
   22.5857  -21.2474  -13.2296 C   0  0  0  0  0  0  0  0  0  0  0  0
   29.6205  -19.2632   -7.6279 C   0  0  0  0  0  0  0  0  0  0  0  0
   28.6061  -19.3730   -6.5326 C   0  0  1  0  0  0  0  0  0  0  0  0
   27.7913  -18.1099   -6.4883 C   0  0  0  0  0  0  0  0  0  0  0  0
   27.7320  -20.5974   -6.8273 C   0  0  2  0  0  0  0  0  0  0  0  0
   26.9620  -20.2709   -8.0029 N   0  0  0  0  0  0  0  0  0  0  0  0
   26.8078  -20.7060   -5.6750 C   0  0  0  0  0  0  0  0  0  0  0  0
   25.4544  -20.4538   -5.8131 O   0  0  0  0  0  0  0  0  0  0  0  0
   27.2162  -21.0326   -4.5187 O   0  0  0  0  0  0  0  0  0  0  0  0
  2  1  1  6
  2  3  1  0
  2 10  1  0
  3  4  1  0
  4  9  1  0
  4  5  2  0
  5  6  1  0
  6  7  2  0
  8  7  1  0
  9  8  2  0
 10 11  2  0
 13 12  1  0
 13 14  2  0
 15 14  1  0
 16 15  2  0
 17 16  1  0
 18 17  1  6
 19 18  1  0
 19 10  1  0
 20 28  1  0
 20 18  1  0
 21 20  2  0
 22 23  2  0
 22 16  1  0
 23 13  1  0
 25 24  1  6
 26 25  1  0
 27 28  1  6
 27 25  1  0
 29 27  1  0
 30 29  1  0
 31 29  2  0
M  END
$$$$
