FYV.pdb
     RDKit          3D

 31 32  0  0  1  0  0  0  0  0999 V2000
   28.4748  -21.0093   -8.5442 N   0  0  0  0  0  0  0  0  0  0  0  0
   27.1536  -20.4416   -8.5107 C   0  0  1  0  0  0  0  0  0  0  0  0
   27.1218  -19.1389   -7.7322 C   0  0  0  0  0  0  0  0  0  0  0  0
   27.6283  -19.3586   -6.3513 C   0  0  0  0  0  0  0  0  0  0  0  0
   28.9028  -18.9197   -5.9906 C   0  0  0  0  0  0  0  0  0  0  0  0
   29.3729  -19.1207   -4.7185 C   0  0  0  0  0  0  0  0  0  0  0  0
   28.6141  -19.7554   -3.7617 C   0  0  0  0  0  0  0  0  0  0  0  0
   27.3653  -20.1958   -4.0828 C   0  0  0  0  0  0  0  0  0  0  0  0
   26.9028  -19.9884   -5.3642 C   0  0  0  0  0  0  0  0  0  0  0  0
   26.6027  -20.2217   -9.8550 C   0  0  0  0  0  0  0  0  0  0  0  0
   27.2843  -19.6480  -10.7250 O   0  0  0  0  0  0  0  0  0  0  0  0
   24.7715  -23.2545  -17.4998 O   0  0  0  0  0  0  0  0  0  0  0  0
   25.0308  -22.9508  -16.1546 C   0  0  0  0  0  0  0  0  0  0  0  0
   25.7296  -21.8217  -15.7925 C   0  0  0  0  0  0  0  0  0  0  0  0
   25.9739  -21.5406  -14.4722 C   0  0  0  0  0  0  0  0  0  0  0  0
   25.5389  -22.3631  -13.4413 C   0  0  0  0  0  0  0  0  0  0  0  0
   25.8354  -22.0036  -12.0316 C   0  0  0  0  0  0  0  0  0  0  0  0
   24.9305  -20.8805  -11.5362 C   0  0  2  0  0  0  0  0  0  0  0  0
   25.2972  -20.6645  -10.1584 N   0  0  0  0  0  0  0  0  0  0  0  0
   23.5131  -21.1785  -11.7548 C   0  0  0  0  0  0  0  0  0  0  0  0
   22.8993  -22.0970  -11.1583 O   0  0  0  0  0  0  0  0  0  0  0  0
   24.8399  -23.4929  -13.7997 C   0  0  0  0  0  0  0  0  0  0  0  0
   24.5905  -23.7802  -15.1453 C   0  0  0  0  0  0  0  0  0  0  0  0
   21.1243  -18.1271  -12.3517 C   0  0  0  0  0  0  0  0  0  0  0  0
   20.8870  -19.1542  -13.4146 C   0  0  1  0  0  0  0  0  0  0  0  0
   21.6461  -18.7648  -14.6530 C   0  0  0  0  0  0  0  0  0  0  0  0
   21.3560  -20.5076  -12.8684 C   0  0  2  0  0  0  0  0  0  0  0  0
   22.7826  -20.3968  -12.6841 N   0  0  0  0  0  0  0  0  0  0  0  0
   21.0962  -21.4802  -13.9549 C   0  0  0  0  0  0  0  0  0  0  0  0
   19.8769  -22.1247  -14.0659 O   0  0  0  0  0  0  0  0  0  0  0  0
   21.9763  -21.7622  -14.8246 O   0  0  0  0  0  0  0  0  0  0  0  0
  2  1  1  6
  2  3  1  0
  2 10  1  0
  3  4  1  0
  4  9  1  0
  4  5  2  0
  5  6  1  0
  6  7  2  0
  8  7  1  0
  9  8  2  0
 10 11  2  0
 13 12  1  0
 13 14  2  0
 15 14  1  0
 16 15  2  0
 17 16  1  0
 18 17  1  1
 19 18  1  0
 19 10  1  0
 20 28  1  0
 20 18  1  0
 21 20  2  0
 22 23  2  0
 22 16  1  0
 23 13  1  0
 25 24  1  1
 26 25  1  0
 27 28  1  6
 27 25  1  0
 29 27  1  0
 30 29  1  0
 31 29  2  0
M  END
$$$$
