VYK.pdb
     RDKit          3D

 29 29  0  0  1  0  0  0  0  0999 V2000
    6.7591  -14.1098   18.4571 C   0  0  0  0  0  0  0  0  0  0  0  0
    7.4632  -14.5123   19.7062 C   0  0  2  0  0  0  0  0  0  0  0  0
    6.6955  -15.5884   20.4095 C   0  0  0  0  0  0  0  0  0  0  0  0
    7.7615  -13.3765   20.6410 C   0  0  2  0  0  0  0  0  0  0  0  0
    8.4573  -12.3536   19.8823 N   0  0  0  0  0  0  0  0  0  0  0  0
    8.5117  -13.7878   21.8426 C   0  0  0  0  0  0  0  0  0  0  0  0
    9.7383  -14.0290   21.7036 O   0  0  0  0  0  0  0  0  0  0  0  0
   10.6056  -15.4519   30.3655 O   0  0  0  0  0  0  0  0  0  0  0  0
    9.9731  -15.0599   29.1934 C   0  0  0  0  0  0  0  0  0  0  0  0
   10.0592  -13.7792   28.7214 C   0  0  0  0  0  0  0  0  0  0  0  0
    9.3998  -13.4439   27.5341 C   0  0  0  0  0  0  0  0  0  0  0  0
    8.6603  -14.3609   26.8146 C   0  0  0  0  0  0  0  0  0  0  0  0
    8.0040  -13.9341   25.5845 C   0  0  0  0  0  0  0  0  0  0  0  0
    8.7009  -14.3166   24.3088 C   0  0  2  0  0  0  0  0  0  0  0  0
    7.9329  -13.9256   23.1348 N   0  0  0  0  0  0  0  0  0  0  0  0
    8.9841  -15.7684   24.1911 C   0  0  0  0  0  0  0  0  0  0  0  0
    8.1145  -16.5592   23.7518 O   0  0  0  0  0  0  0  0  0  0  0  0
    8.6043  -15.6386   27.3323 C   0  0  0  0  0  0  0  0  0  0  0  0
    9.2426  -15.9832   28.4911 C   0  0  0  0  0  0  0  0  0  0  0  0
   10.2394  -16.3318   24.5645 N   0  0  0  0  0  0  0  0  0  0  0  0
   10.5892  -17.7244   24.3298 C   0  0  1  0  0  0  0  0  0  0  0  0
   11.1493  -17.9289   22.9684 C   0  0  0  0  0  0  0  0  0  0  0  0
   10.1992  -18.5984   22.0434 C   0  0  0  0  0  0  0  0  0  0  0  0
   10.7514  -18.6996   20.6242 C   0  0  0  0  0  0  0  0  0  0  0  0
    9.6515  -19.2620   19.7501 C   0  0  0  0  0  0  0  0  0  0  0  0
   10.0676  -19.4510   18.3907 N   0  0  0  0  0  0  0  0  0  0  0  0
   11.5222  -18.2288   25.3573 C   0  0  0  0  0  0  0  0  0  0  0  0
   11.8429  -19.4651   25.3035 O   0  0  0  0  0  0  0  0  0  0  0  0
   12.0855  -17.5035   26.3698 O   0  0  0  0  0  0  0  0  0  0  0  0
  2  3  1  1
  2  1  1  0
  4  2  1  0
  4  5  1  6
  6 15  1  0
  6  4  1  0
  7  6  2  0
  8  9  1  0
  9 19  2  0
  9 10  1  0
 10 11  2  0
 11 12  1  0
 12 13  1  0
 14 13  1  1
 14 16  1  0
 14 15  1  0
 16 20  1  0
 17 16  2  0
 18 12  2  0
 19 18  1  0
 20 21  1  0
 21 27  1  0
 21 22  1  6
 23 22  1  0
 24 25  1  0
 24 23  1  0
 26 25  1  0
 27 28  2  0
 27 29  1  0
M  END
$$$$
