VYK.pdb
     RDKit          3D

 29 29  0  0  1  0  0  0  0  0999 V2000
    9.1505  -19.4528   18.0686 C   0  0  0  0  0  0  0  0  0  0  0  0
    9.3014  -18.6980   19.3436 C   0  0  2  0  0  0  0  0  0  0  0  0
    8.4593  -19.3184   20.4152 C   0  0  0  0  0  0  0  0  0  0  0  0
    9.0166  -17.2288   19.2296 C   0  0  2  0  0  0  0  0  0  0  0  0
    9.8655  -16.6965   18.1799 N   0  0  0  0  0  0  0  0  0  0  0  0
    9.1780  -16.5000   20.5017 C   0  0  0  0  0  0  0  0  0  0  0  0
   10.3416  -16.4060   20.9703 O   0  0  0  0  0  0  0  0  0  0  0  0
    7.3081  -11.9376   27.9442 O   0  0  0  0  0  0  0  0  0  0  0  0
    7.2632  -12.5291   26.6890 C   0  0  0  0  0  0  0  0  0  0  0  0
    7.9229  -11.9954   25.6165 C   0  0  0  0  0  0  0  0  0  0  0  0
    7.8402  -12.6370   24.3762 C   0  0  0  0  0  0  0  0  0  0  0  0
    7.1139  -13.7961   24.1903 C   0  0  0  0  0  0  0  0  0  0  0  0
    7.0785  -14.4063   22.8665 C   0  0  0  0  0  0  0  0  0  0  0  0
    8.2875  -15.2167   22.4912 C   0  0  2  0  0  0  0  0  0  0  0  0
    8.1046  -15.9042   21.2205 N   0  0  0  0  0  0  0  0  0  0  0  0
    8.6623  -16.2388   23.4995 C   0  0  0  0  0  0  0  0  0  0  0  0
    7.9735  -17.2771   23.6484 O   0  0  0  0  0  0  0  0  0  0  0  0
    6.4668  -14.2942   25.3025 C   0  0  0  0  0  0  0  0  0  0  0  0
    6.5371  -13.6799   26.5217 C   0  0  0  0  0  0  0  0  0  0  0  0
    9.8065  -16.0972   24.3380 N   0  0  0  0  0  0  0  0  0  0  0  0
   10.2119  -17.1018   25.3092 C   0  0  1  0  0  0  0  0  0  0  0  0
   11.4949  -17.7484   24.9288 C   0  0  0  0  0  0  0  0  0  0  0  0
   11.9523  -18.7586   25.9174 C   0  0  0  0  0  0  0  0  0  0  0  0
   13.2610  -19.4228   25.4987 C   0  0  0  0  0  0  0  0  0  0  0  0
   13.6117  -20.4408   26.5621 C   0  0  0  0  0  0  0  0  0  0  0  0
   14.7776  -21.2074   26.2308 N   0  0  0  0  0  0  0  0  0  0  0  0
   10.2983  -16.5353   26.6702 C   0  0  0  0  0  0  0  0  0  0  0  0
   10.6328  -15.3059   26.7746 O   0  0  0  0  0  0  0  0  0  0  0  0
   10.0542  -17.1951   27.8422 O   0  0  0  0  0  0  0  0  0  0  0  0
  2  3  1  1
  2  1  1  0
  4  2  1  0
  4  5  1  6
  6 15  1  0
  6  4  1  0
  7  6  2  0
  8  9  1  0
  9 19  2  0
  9 10  1  0
 10 11  2  0
 11 12  1  0
 12 13  1  0
 14 13  1  1
 14 16  1  0
 14 15  1  0
 16 20  1  0
 17 16  2  0
 18 12  2  0
 19 18  1  0
 20 21  1  0
 21 27  1  0
 21 22  1  6
 23 22  1  0
 24 25  1  0
 24 23  1  0
 26 25  1  0
 27 28  2  0
 27 29  1  0
M  END
$$$$
