VYK.pdb
     RDKit          3D

 29 29  0  0  1  0  0  0  0  0999 V2000
    6.7751  -12.9713   19.4661 C   0  0  0  0  0  0  0  0  0  0  0  0
    7.7400  -13.1772   20.5817 C   0  0  2  0  0  0  0  0  0  0  0  0
    8.9767  -12.3644   20.3532 C   0  0  0  0  0  0  0  0  0  0  0  0
    8.0899  -14.6139   20.8391 C   0  0  2  0  0  0  0  0  0  0  0  0
    6.8764  -15.3956   20.6894 N   0  0  0  0  0  0  0  0  0  0  0  0
    8.7384  -14.8342   22.1455 C   0  0  0  0  0  0  0  0  0  0  0  0
    9.9085  -14.3961   22.2911 O   0  0  0  0  0  0  0  0  0  0  0  0
    6.6403  -10.2281   27.1157 O   0  0  0  0  0  0  0  0  0  0  0  0
    6.9197  -11.5395   26.7559 C   0  0  0  0  0  0  0  0  0  0  0  0
    5.9621  -12.3627   26.2308 C   0  0  0  0  0  0  0  0  0  0  0  0
    6.3040  -13.6749   25.8872 C   0  0  0  0  0  0  0  0  0  0  0  0
    7.5789  -14.1758   26.0582 C   0  0  0  0  0  0  0  0  0  0  0  0
    7.8569  -15.5544   25.6733 C   0  0  0  0  0  0  0  0  0  0  0  0
    8.7935  -15.7290   24.5107 C   0  0  2  0  0  0  0  0  0  0  0  0
    8.1224  -15.5066   23.2375 N   0  0  0  0  0  0  0  0  0  0  0  0
    9.4313  -17.0674   24.4489 C   0  0  0  0  0  0  0  0  0  0  0  0
    8.7505  -18.0929   24.2054 O   0  0  0  0  0  0  0  0  0  0  0  0
    8.5083  -13.3063   26.5911 C   0  0  0  0  0  0  0  0  0  0  0  0
    8.1911  -12.0211   26.9324 C   0  0  0  0  0  0  0  0  0  0  0  0
   10.8288  -17.2550   24.6591 N   0  0  0  0  0  0  0  0  0  0  0  0
   11.5966  -18.3107   24.0166 C   0  0  1  0  0  0  0  0  0  0  0  0
   11.4418  -18.2819   22.5387 C   0  0  0  0  0  0  0  0  0  0  0  0
   12.2079  -19.3541   21.8529 C   0  0  0  0  0  0  0  0  0  0  0  0
   12.1052  -19.2538   20.3335 C   0  0  0  0  0  0  0  0  0  0  0  0
   12.8921  -20.4073   19.7501 C   0  0  0  0  0  0  0  0  0  0  0  0
   14.1999  -20.0176   19.3091 N   0  0  0  0  0  0  0  0  0  0  0  0
   13.0235  -18.2472   24.3914 C   0  0  0  0  0  0  0  0  0  0  0  0
   13.5755  -19.3299   24.7882 O   0  0  0  0  0  0  0  0  0  0  0  0
   13.8244  -17.1400   24.3568 O   0  0  0  0  0  0  0  0  0  0  0  0
  2  3  1  6
  2  1  1  0
  4  2  1  0
  4  5  1  1
  6 15  1  0
  6  4  1  0
  7  6  2  0
  8  9  1  0
  9 19  2  0
  9 10  1  0
 10 11  2  0
 11 12  1  0
 12 13  1  0
 14 13  1  1
 14 16  1  0
 14 15  1  0
 16 20  1  0
 17 16  2  0
 18 12  2  0
 19 18  1  0
 20 21  1  0
 21 27  1  0
 21 22  1  6
 23 22  1  0
 24 25  1  0
 24 23  1  0
 26 25  1  0
 27 28  2  0
 27 29  1  0
M  END
$$$$
