VYK.pdb
     RDKit          3D

 29 29  0  0  1  0  0  0  0  0999 V2000
    8.5854  -19.0624   19.9531 C   0  0  0  0  0  0  0  0  0  0  0  0
    7.7670  -17.9755   19.3472 C   0  0  2  0  0  0  0  0  0  0  0  0
    7.2737  -18.3910   17.9958 C   0  0  0  0  0  0  0  0  0  0  0  0
    8.4616  -16.6471   19.2727 C   0  0  2  0  0  0  0  0  0  0  0  0
    9.6427  -16.8142   18.4461 N   0  0  0  0  0  0  0  0  0  0  0  0
    8.7817  -16.0779   20.5953 C   0  0  0  0  0  0  0  0  0  0  0  0
    9.9225  -16.3189   21.0674 O   0  0  0  0  0  0  0  0  0  0  0  0
    7.9163  -12.1603   28.5363 O   0  0  0  0  0  0  0  0  0  0  0  0
    7.7481  -12.5745   27.2219 C   0  0  0  0  0  0  0  0  0  0  0  0
    8.7972  -13.0210   26.4668 C   0  0  0  0  0  0  0  0  0  0  0  0
    8.5654  -13.4252   25.1478 C   0  0  0  0  0  0  0  0  0  0  0  0
    7.3104  -13.3912   24.5738 C   0  0  0  0  0  0  0  0  0  0  0  0
    7.1498  -13.8316   23.1931 C   0  0  0  0  0  0  0  0  0  0  0  0
    8.2097  -14.7664   22.6810 C   0  0  2  0  0  0  0  0  0  0  0  0
    7.8835  -15.2811   21.3583 N   0  0  0  0  0  0  0  0  0  0  0  0
    8.4584  -15.9335   23.5631 C   0  0  0  0  0  0  0  0  0  0  0  0
    7.5707  -16.8013   23.7460 O   0  0  0  0  0  0  0  0  0  0  0  0
    6.2859  -12.9331   25.3764 C   0  0  0  0  0  0  0  0  0  0  0  0
    6.4950  -12.5342   26.6672 C   0  0  0  0  0  0  0  0  0  0  0  0
    9.6993  -16.1270   24.2376 N   0  0  0  0  0  0  0  0  0  0  0  0
    9.9898  -17.2977   25.0513 C   0  0  1  0  0  0  0  0  0  0  0  0
   11.2025  -18.0122   24.5741 C   0  0  0  0  0  0  0  0  0  0  0  0
   11.5161  -19.2237   25.3744 C   0  0  0  0  0  0  0  0  0  0  0  0
   12.7654  -19.9403   24.8694 C   0  0  0  0  0  0  0  0  0  0  0  0
   12.9848  -21.1462   25.7570 C   0  0  0  0  0  0  0  0  0  0  0  0
   14.2033  -21.8400   25.4560 N   0  0  0  0  0  0  0  0  0  0  0  0
   10.1221  -16.9451   26.4792 C   0  0  0  0  0  0  0  0  0  0  0  0
    9.9187  -17.8730   27.3347 O   0  0  0  0  0  0  0  0  0  0  0  0
   10.4438  -15.7173   26.9867 O   0  0  0  0  0  0  0  0  0  0  0  0
  2  3  1  6
  2  1  1  0
  4  2  1  0
  4  5  1  6
  6 15  1  0
  6  4  1  0
  7  6  2  0
  8  9  1  0
  9 19  2  0
  9 10  1  0
 10 11  2  0
 11 12  1  0
 12 13  1  0
 14 13  1  1
 14 16  1  0
 14 15  1  0
 16 20  1  0
 17 16  2  0
 18 12  2  0
 19 18  1  0
 20 21  1  0
 21 27  1  0
 21 22  1  6
 23 22  1  0
 24 25  1  0
 24 23  1  0
 26 25  1  0
 27 28  2  0
 27 29  1  0
M  END
$$$$
