VYK.pdb
     RDKit          3D

 29 29  0  0  1  0  0  0  0  0999 V2000
    6.1786  -16.1342   18.2560 C   0  0  0  0  0  0  0  0  0  0  0  0
    7.0130  -16.0878   19.4887 C   0  0  2  0  0  0  0  0  0  0  0  0
    6.6581  -17.2239   20.3972 C   0  0  0  0  0  0  0  0  0  0  0  0
    6.9549  -14.7816   20.2257 C   0  0  2  0  0  0  0  0  0  0  0  0
    7.2510  -13.7264   19.2744 N   0  0  0  0  0  0  0  0  0  0  0  0
    7.8391  -14.7343   21.4053 C   0  0  0  0  0  0  0  0  0  0  0  0
    9.0774  -14.6616   21.1968 O   0  0  0  0  0  0  0  0  0  0  0  0
   10.6112  -14.6283   29.8995 O   0  0  0  0  0  0  0  0  0  0  0  0
    9.8550  -14.5824   28.7360 C   0  0  0  0  0  0  0  0  0  0  0  0
    9.2840  -15.7047   28.2025 C   0  0  0  0  0  0  0  0  0  0  0  0
    8.5328  -15.5954   27.0276 C   0  0  0  0  0  0  0  0  0  0  0  0
    8.3433  -14.3909   26.3804 C   0  0  0  0  0  0  0  0  0  0  0  0
    7.5448  -14.3589   25.1608 C   0  0  0  0  0  0  0  0  0  0  0  0
    8.2719  -14.7255   23.8974 C   0  0  2  0  0  0  0  0  0  0  0  0
    7.3759  -14.7659   22.7501 N   0  0  0  0  0  0  0  0  0  0  0  0
    8.9685  -16.0340   23.9634 C   0  0  0  0  0  0  0  0  0  0  0  0
    8.3187  -17.1069   23.9980 O   0  0  0  0  0  0  0  0  0  0  0  0
    8.9395  -13.2888   26.9582 C   0  0  0  0  0  0  0  0  0  0  0  0
    9.6769  -13.3779   28.1059 C   0  0  0  0  0  0  0  0  0  0  0  0
   10.3900  -16.1391   23.9899 N   0  0  0  0  0  0  0  0  0  0  0  0
   11.0926  -17.4013   24.1632 C   0  0  1  0  0  0  0  0  0  0  0  0
   12.0335  -17.6655   23.0435 C   0  0  0  0  0  0  0  0  0  0  0  0
   11.3447  -18.0366   21.7807 C   0  0  0  0  0  0  0  0  0  0  0  0
   12.2617  -18.7962   20.8261 C   0  0  0  0  0  0  0  0  0  0  0  0
   11.4989  -19.0036   19.5356 C   0  0  0  0  0  0  0  0  0  0  0  0
   12.2899  -19.6382   18.5215 N   0  0  0  0  0  0  0  0  0  0  0  0
   11.7985  -17.4544   25.4593 C   0  0  0  0  0  0  0  0  0  0  0  0
   12.3920  -18.5458   25.7608 O   0  0  0  0  0  0  0  0  0  0  0  0
   11.8855  -16.4470   26.3792 O   0  0  0  0  0  0  0  0  0  0  0  0
  2  3  1  1
  2  1  1  0
  4  2  1  0
  4  5  1  6
  6 15  1  0
  6  4  1  0
  7  6  2  0
  8  9  1  0
  9 19  2  0
  9 10  1  0
 10 11  2  0
 11 12  1  0
 12 13  1  0
 14 13  1  1
 14 16  1  0
 14 15  1  0
 16 20  1  0
 17 16  2  0
 18 12  2  0
 19 18  1  0
 20 21  1  0
 21 27  1  0
 21 22  1  6
 23 22  1  0
 24 25  1  0
 24 23  1  0
 26 25  1  0
 27 28  2  0
 27 29  1  0
M  END
$$$$
