VYK.pdb
     RDKit          3D

 29 29  0  0  1  0  0  0  0  0999 V2000
    8.0611  -21.6253   23.0853 C   0  0  0  0  0  0  0  0  0  0  0  0
    6.9527  -21.7205   24.0754 C   0  0  2  0  0  0  0  0  0  0  0  0
    6.4653  -23.1331   24.1726 C   0  0  0  0  0  0  0  0  0  0  0  0
    5.8102  -20.7822   23.8165 C   0  0  2  0  0  0  0  0  0  0  0  0
    5.1749  -21.1939   22.5783 N   0  0  0  0  0  0  0  0  0  0  0  0
    6.2110  -19.3629   23.7933 C   0  0  0  0  0  0  0  0  0  0  0  0
    6.4783  -18.8561   22.6735 O   0  0  0  0  0  0  0  0  0  0  0  0
    8.0365  -10.9805   26.2194 O   0  0  0  0  0  0  0  0  0  0  0  0
    7.5791  -12.2899   26.1577 C   0  0  0  0  0  0  0  0  0  0  0  0
    7.9143  -13.2161   27.1063 C   0  0  0  0  0  0  0  0  0  0  0  0
    7.4224  -14.5205   26.9903 C   0  0  0  0  0  0  0  0  0  0  0  0
    6.6060  -14.9129   25.9486 C   0  0  0  0  0  0  0  0  0  0  0  0
    6.1322  -16.2910   25.8992 C   0  0  0  0  0  0  0  0  0  0  0  0
    6.8378  -17.1868   24.9200 C   0  0  2  0  0  0  0  0  0  0  0  0
    6.3113  -18.5443   24.9524 N   0  0  0  0  0  0  0  0  0  0  0  0
    8.3037  -17.2736   25.1336 C   0  0  0  0  0  0  0  0  0  0  0  0
    8.7756  -17.9347   26.0900 O   0  0  0  0  0  0  0  0  0  0  0  0
    6.2971  -13.9421   25.0181 C   0  0  0  0  0  0  0  0  0  0  0  0
    6.7692  -12.6630   25.1164 C   0  0  0  0  0  0  0  0  0  0  0  0
    9.2377  -16.6211   24.2767 N   0  0  0  0  0  0  0  0  0  0  0  0
   10.6794  -16.7429   24.4299 C   0  0  1  0  0  0  0  0  0  0  0  0
   11.4091  -16.0574   23.3314 C   0  0  0  0  0  0  0  0  0  0  0  0
   12.8765  -16.2840   23.3781 C   0  0  0  0  0  0  0  0  0  0  0  0
   13.5990  -15.6236   22.2072 C   0  0  0  0  0  0  0  0  0  0  0  0
   15.0767  -15.9063   22.3703 C   0  0  0  0  0  0  0  0  0  0  0  0
   15.8701  -15.3201   21.3293 N   0  0  0  0  0  0  0  0  0  0  0  0
   11.1284  -16.2419   25.7445 C   0  0  0  0  0  0  0  0  0  0  0  0
   10.5363  -15.2106   26.2136 O   0  0  0  0  0  0  0  0  0  0  0  0
   12.1207  -16.7724   26.5207 O   0  0  0  0  0  0  0  0  0  0  0  0
  2  3  1  6
  2  1  1  0
  4  2  1  0
  4  5  1  6
  6 15  1  0
  6  4  1  0
  7  6  2  0
  8  9  1  0
  9 19  2  0
  9 10  1  0
 10 11  2  0
 11 12  1  0
 12 13  1  0
 14 13  1  1
 14 16  1  0
 14 15  1  0
 16 20  1  0
 17 16  2  0
 18 12  2  0
 19 18  1  0
 20 21  1  0
 21 27  1  0
 21 22  1  6
 23 22  1  0
 24 25  1  0
 24 23  1  0
 26 25  1  0
 27 28  2  0
 27 29  1  0
M  END
$$$$
