VYK.pdb
     RDKit          3D

 29 29  0  0  1  0  0  0  0  0999 V2000
    6.3534  -15.9267   18.8749 C   0  0  0  0  0  0  0  0  0  0  0  0
    7.1392  -15.9919   20.1383 C   0  0  2  0  0  0  0  0  0  0  0  0
    6.5556  -17.0189   21.0586 C   0  0  0  0  0  0  0  0  0  0  0  0
    7.2897  -14.6744   20.8414 C   0  0  2  0  0  0  0  0  0  0  0  0
    7.7592  -13.7070   19.8669 N   0  0  0  0  0  0  0  0  0  0  0  0
    8.1627  -14.7398   22.0286 C   0  0  0  0  0  0  0  0  0  0  0  0
    9.3974  -14.8768   21.8311 O   0  0  0  0  0  0  0  0  0  0  0  0
   11.0126  -14.5453   30.4855 O   0  0  0  0  0  0  0  0  0  0  0  0
   10.2456  -14.4875   29.3298 C   0  0  0  0  0  0  0  0  0  0  0  0
    9.5231  -15.5620   28.8895 C   0  0  0  0  0  0  0  0  0  0  0  0
    8.7688  -15.4430   27.7175 C   0  0  0  0  0  0  0  0  0  0  0  0
    8.7243  -14.2757   26.9820 C   0  0  0  0  0  0  0  0  0  0  0  0
    7.9122  -14.2303   25.7719 C   0  0  0  0  0  0  0  0  0  0  0  0
    8.5750  -14.7433   24.5241 C   0  0  2  0  0  0  0  0  0  0  0  0
    7.6925  -14.6578   23.3688 N   0  0  0  0  0  0  0  0  0  0  0  0
    9.0398  -16.1489   24.6252 C   0  0  0  0  0  0  0  0  0  0  0  0
    8.2175  -17.0955   24.6745 O   0  0  0  0  0  0  0  0  0  0  0  0
    9.4700  -13.2212   27.4677 C   0  0  0  0  0  0  0  0  0  0  0  0
   10.2125  -13.3204   28.6112 C   0  0  0  0  0  0  0  0  0  0  0  0
   10.4228  -16.4919   24.6703 N   0  0  0  0  0  0  0  0  0  0  0  0
   10.9004  -17.8591   24.8104 C   0  0  1  0  0  0  0  0  0  0  0  0
   11.7424  -18.2686   23.6561 C   0  0  0  0  0  0  0  0  0  0  0  0
   10.9874  -18.3287   22.3782 C   0  0  0  0  0  0  0  0  0  0  0  0
   11.8895  -18.6532   21.1908 C   0  0  0  0  0  0  0  0  0  0  0  0
   11.0207  -18.6612   19.9517 C   0  0  0  0  0  0  0  0  0  0  0  0
   11.7757  -18.8563   18.7482 N   0  0  0  0  0  0  0  0  0  0  0  0
   11.6299  -18.0502   26.0801 C   0  0  0  0  0  0  0  0  0  0  0  0
   11.9424  -17.0019   26.7416 O   0  0  0  0  0  0  0  0  0  0  0  0
   12.0087  -19.2439   26.6280 O   0  0  0  0  0  0  0  0  0  0  0  0
  2  3  1  1
  2  1  1  0
  4  2  1  0
  4  5  1  6
  6 15  1  0
  6  4  1  0
  7  6  2  0
  8  9  1  0
  9 19  2  0
  9 10  1  0
 10 11  2  0
 11 12  1  0
 12 13  1  0
 14 13  1  1
 14 16  1  0
 14 15  1  0
 16 20  1  0
 17 16  2  0
 18 12  2  0
 19 18  1  0
 20 21  1  0
 21 27  1  0
 21 22  1  6
 23 22  1  0
 24 25  1  0
 24 23  1  0
 26 25  1  0
 27 28  2  0
 27 29  1  0
M  END
$$$$
