SLI.pdb
     RDKit          3D

 23 22  0  0  1  0  0  0  0  0999 V2000
    8.7068  -19.4027   24.0978 O   0  0  0  0  0  0  0  0  0  0  0  0
    7.4066  -19.1654   23.7277 C   0  0  0  0  0  0  0  0  0  0  0  0
    7.2508  -18.0170   22.7646 C   0  0  2  0  0  0  0  0  0  0  0  0
    7.8208  -18.3568   21.4746 N   0  0  0  0  0  0  0  0  0  0  0  0
    7.8031  -16.7571   23.2458 C   0  0  0  0  0  0  0  0  0  0  0  0
    8.8729  -16.3074   22.7619 O   0  0  0  0  0  0  0  0  0  0  0  0
    6.0771  -12.0537   27.1046 C   0  0  0  0  0  0  0  0  0  0  0  0
    7.0327  -12.6959   26.1616 C   0  0  2  0  0  0  0  0  0  0  0  0
    7.2603  -11.6950   25.0124 C   0  0  0  0  0  0  0  0  0  0  0  0
    6.6188  -13.9617   25.5302 C   0  0  0  0  0  0  0  0  0  0  0  0
    7.6113  -14.7515   24.7723 C   0  0  2  0  0  0  0  0  0  0  0  0
    7.1322  -16.0295   24.2675 N   0  0  0  0  0  0  0  0  0  0  0  0
    8.9229  -14.8926   25.4293 C   0  0  0  0  0  0  0  0  0  0  0  0
    9.7017  -13.9284   25.5064 O   0  0  0  0  0  0  0  0  0  0  0  0
    9.9557  -13.4486   29.3207 C   0  0  0  0  0  0  0  0  0  0  0  0
   10.1606  -14.1300   27.9883 C   0  0  0  0  0  0  0  0  0  0  0  0
   10.2189  -15.6128   28.0935 C   0  0  2  0  0  0  0  0  0  0  0  0
   11.1293  -16.0908   29.2013 C   0  0  0  0  0  0  0  0  0  0  0  0
   10.4793  -16.3362   26.7957 C   0  0  2  0  0  0  0  0  0  0  0  0
    9.2906  -16.1384   25.9742 N   0  0  0  0  0  0  0  0  0  0  0  0
   10.8278  -17.7478   26.9268 C   0  0  0  0  0  0  0  0  0  0  0  0
    9.9845  -18.7401   26.4617 O   0  0  0  0  0  0  0  0  0  0  0  0
   11.8993  -18.1401   27.4634 O   0  0  0  0  0  0  0  0  0  0  0  0
  2  1  1  0
  3  2  1  0
  3  4  1  6
  5  6  2  0
  5  3  1  0
  8  7  1  1
  8 10  1  0
  9  8  1  0
 11 10  1  1
 11 12  1  0
 12  5  1  0
 13 11  1  0
 13 20  1  0
 14 13  2  0
 16 15  1  0
 17 19  1  0
 17 16  1  0
 17 18  1  1
 19 20  1  6
 19 21  1  0
 21 23  2  0
 21 22  1  0
M  END
$$$$
