SLI.pdb
     RDKit          3D

 23 22  0  0  1  0  0  0  0  0999 V2000
    9.1727  -18.3933   21.6780 O   0  0  0  0  0  0  0  0  0  0  0  0
    8.1522  -17.6706   21.1123 C   0  0  0  0  0  0  0  0  0  0  0  0
    8.3938  -16.1832   21.1067 C   0  0  2  0  0  0  0  0  0  0  0  0
    9.3821  -15.8344   20.1037 N   0  0  0  0  0  0  0  0  0  0  0  0
    8.7740  -15.6368   22.4031 C   0  0  0  0  0  0  0  0  0  0  0  0
    9.9665  -15.3082   22.6281 O   0  0  0  0  0  0  0  0  0  0  0  0
    7.5134  -11.8916   25.2339 C   0  0  0  0  0  0  0  0  0  0  0  0
    6.5114  -12.9875   25.1347 C   0  0  2  0  0  0  0  0  0  0  0  0
    5.3858  -12.6493   26.1311 C   0  0  0  0  0  0  0  0  0  0  0  0
    6.9597  -14.3518   25.4662 C   0  0  0  0  0  0  0  0  0  0  0  0
    8.1053  -14.9348   24.7376 C   0  0  2  0  0  0  0  0  0  0  0  0
    7.7946  -15.4727   23.4216 N   0  0  0  0  0  0  0  0  0  0  0  0
    8.9237  -15.8767   25.5218 C   0  0  0  0  0  0  0  0  0  0  0  0
    8.7726  -17.1033   25.3998 O   0  0  0  0  0  0  0  0  0  0  0  0
   10.8001  -14.9614   30.3610 C   0  0  0  0  0  0  0  0  0  0  0  0
   10.8974  -14.3988   28.9626 C   0  0  0  0  0  0  0  0  0  0  0  0
   11.6309  -15.2900   28.0243 C   0  0  2  0  0  0  0  0  0  0  0  0
   12.6227  -14.5477   27.1584 C   0  0  0  0  0  0  0  0  0  0  0  0
   10.7622  -16.2224   27.2170 C   0  0  2  0  0  0  0  0  0  0  0  0
    9.8865  -15.3728   26.4180 N   0  0  0  0  0  0  0  0  0  0  0  0
   10.0140  -17.2071   27.9927 C   0  0  0  0  0  0  0  0  0  0  0  0
    8.6442  -17.1036   28.1510 O   0  0  0  0  0  0  0  0  0  0  0  0
   10.5622  -18.1931   28.5559 O   0  0  0  0  0  0  0  0  0  0  0  0
  2  1  1  0
  3  2  1  0
  3  4  1  6
  5  6  2  0
  5  3  1  0
  8  7  1  1
  8 10  1  0
  9  8  1  0
 11 10  1  1
 11 12  1  0
 12  5  1  0
 13 11  1  0
 13 20  1  0
 14 13  2  0
 16 15  1  0
 17 19  1  0
 17 16  1  0
 17 18  1  6
 19 20  1  1
 19 21  1  0
 21 23  2  0
 21 22  1  0
M  END
$$$$
