SLI.pdb
     RDKit          3D

 23 22  0  0  1  0  0  0  0  0999 V2000
    8.4545  -18.3528   21.6180 O   0  0  0  0  0  0  0  0  0  0  0  0
    9.1178  -17.5676   20.7085 C   0  0  0  0  0  0  0  0  0  0  0  0
    8.8725  -16.0919   20.8892 C   0  0  2  0  0  0  0  0  0  0  0  0
    9.6312  -15.3294   19.9159 N   0  0  0  0  0  0  0  0  0  0  0  0
    9.1421  -15.6039   22.2357 C   0  0  0  0  0  0  0  0  0  0  0  0
   10.3037  -15.2497   22.5615 O   0  0  0  0  0  0  0  0  0  0  0  0
    7.4903  -12.0206   25.0517 C   0  0  0  0  0  0  0  0  0  0  0  0
    6.5592  -13.1666   24.8651 C   0  0  2  0  0  0  0  0  0  0  0  0
    5.3536  -12.9122   25.7902 C   0  0  0  0  0  0  0  0  0  0  0  0
    7.0598  -14.5116   25.2003 C   0  0  0  0  0  0  0  0  0  0  0  0
    8.2808  -15.0158   24.5384 C   0  0  2  0  0  0  0  0  0  0  0  0
    8.0893  -15.5262   23.1891 N   0  0  0  0  0  0  0  0  0  0  0  0
    9.0891  -15.9416   25.3517 C   0  0  0  0  0  0  0  0  0  0  0  0
    9.3052  -17.1023   24.9665 O   0  0  0  0  0  0  0  0  0  0  0  0
   10.7529  -13.1928   29.6349 C   0  0  0  0  0  0  0  0  0  0  0  0
   10.9287  -14.0499   28.4036 C   0  0  0  0  0  0  0  0  0  0  0  0
   10.7397  -15.5011   28.6705 C   0  0  2  0  0  0  0  0  0  0  0  0
   11.8534  -16.0991   29.4991 C   0  0  0  0  0  0  0  0  0  0  0  0
   10.4259  -16.3391   27.4560 C   0  0  2  0  0  0  0  0  0  0  0  0
    9.6197  -15.4979   26.5787 N   0  0  0  0  0  0  0  0  0  0  0  0
    9.7834  -17.6208   27.7308 C   0  0  0  0  0  0  0  0  0  0  0  0
   10.5238  -18.7829   27.8472 O   0  0  0  0  0  0  0  0  0  0  0  0
    8.5367  -17.7433   27.8749 O   0  0  0  0  0  0  0  0  0  0  0  0
  2  1  1  0
  3  2  1  0
  3  4  1  6
  5  6  2  0
  5  3  1  0
  8  7  1  1
  8 10  1  0
  9  8  1  0
 11 10  1  1
 11 12  1  0
 12  5  1  0
 13 11  1  0
 13 20  1  0
 14 13  2  0
 16 15  1  0
 17 19  1  0
 17 16  1  0
 17 18  1  6
 19 20  1  6
 19 21  1  0
 21 23  2  0
 21 22  1  0
M  END
$$$$
