SLI.pdb
     RDKit          3D

 23 22  0  0  1  0  0  0  0  0999 V2000
    9.3774  -20.3497   23.0361 O   0  0  0  0  0  0  0  0  0  0  0  0
    8.6417  -19.3641   23.6455 C   0  0  0  0  0  0  0  0  0  0  0  0
    8.1337  -18.3115   22.6944 C   0  0  2  0  0  0  0  0  0  0  0  0
    8.6119  -18.5707   21.3496 N   0  0  0  0  0  0  0  0  0  0  0  0
    8.4540  -16.9462   23.0910 C   0  0  0  0  0  0  0  0  0  0  0  0
    9.4032  -16.3319   22.5411 O   0  0  0  0  0  0  0  0  0  0  0  0
    6.0446  -12.5580   26.9203 C   0  0  0  0  0  0  0  0  0  0  0  0
    7.1062  -13.0231   25.9868 C   0  0  2  0  0  0  0  0  0  0  0  0
    7.2949  -11.9078   24.9405 C   0  0  0  0  0  0  0  0  0  0  0  0
    6.8514  -14.2611   25.2287 C   0  0  0  0  0  0  0  0  0  0  0  0
    7.9798  -14.9546   24.5738 C   0  0  2  0  0  0  0  0  0  0  0  0
    7.6917  -16.3016   24.1044 N   0  0  0  0  0  0  0  0  0  0  0  0
    9.2516  -14.9067   25.3167 C   0  0  0  0  0  0  0  0  0  0  0  0
    9.9690  -13.8935   25.2832 O   0  0  0  0  0  0  0  0  0  0  0  0
   10.0746  -14.4921   30.2633 C   0  0  0  0  0  0  0  0  0  0  0  0
    9.7126  -15.1600   28.9578 C   0  0  0  0  0  0  0  0  0  0  0  0
   10.7179  -14.9300   27.8857 C   0  0  2  0  0  0  0  0  0  0  0  0
   10.5615  -13.5882   27.2077 C   0  0  0  0  0  0  0  0  0  0  0  0
   10.8590  -16.0540   26.8895 C   0  0  2  0  0  0  0  0  0  0  0  0
    9.6517  -16.0266   26.0717 N   0  0  0  0  0  0  0  0  0  0  0  0
   11.1018  -17.3728   27.4665 C   0  0  0  0  0  0  0  0  0  0  0  0
   10.1741  -18.3907   27.3428 O   0  0  0  0  0  0  0  0  0  0  0  0
   12.1530  -17.6577   28.1019 O   0  0  0  0  0  0  0  0  0  0  0  0
  2  1  1  0
  3  2  1  0
  3  4  1  6
  5  6  2  0
  5  3  1  0
  8  7  1  1
  8 10  1  0
  9  8  1  0
 11 10  1  1
 11 12  1  0
 12  5  1  0
 13 11  1  0
 13 20  1  0
 14 13  2  0
 16 15  1  0
 17 19  1  0
 17 16  1  0
 17 18  1  6
 19 20  1  1
 19 21  1  0
 21 23  2  0
 21 22  1  0
M  END
$$$$
