SLI.pdb
     RDKit          3D

 23 22  0  0  1  0  0  0  0  0999 V2000
    8.1128  -20.1137   22.1122 O   0  0  0  0  0  0  0  0  0  0  0  0
    8.5881  -18.9581   22.6802 C   0  0  0  0  0  0  0  0  0  0  0  0
    8.1890  -17.7092   21.9375 C   0  0  2  0  0  0  0  0  0  0  0  0
    8.7649  -17.7060   20.6060 N   0  0  0  0  0  0  0  0  0  0  0  0
    8.5174  -16.4717   22.6338 C   0  0  0  0  0  0  0  0  0  0  0  0
    9.5913  -15.8682   22.3827 O   0  0  0  0  0  0  0  0  0  0  0  0
    8.0283  -12.0632   25.5460 C   0  0  0  0  0  0  0  0  0  0  0  0
    6.6835  -12.6793   25.3824 C   0  0  2  0  0  0  0  0  0  0  0  0
    6.0391  -12.7127   26.7816 C   0  0  0  0  0  0  0  0  0  0  0  0
    6.6251  -14.0593   24.8683 C   0  0  0  0  0  0  0  0  0  0  0  0
    7.8277  -14.6525   24.2476 C   0  0  2  0  0  0  0  0  0  0  0  0
    7.6215  -15.9407   23.6028 N   0  0  0  0  0  0  0  0  0  0  0  0
    9.0244  -14.6692   25.1075 C   0  0  0  0  0  0  0  0  0  0  0  0
    9.6071  -13.6138   25.4057 O   0  0  0  0  0  0  0  0  0  0  0  0
    9.6889  -13.3556   29.2290 C   0  0  0  0  0  0  0  0  0  0  0  0
   10.1319  -13.9151   27.8978 C   0  0  0  0  0  0  0  0  0  0  0  0
   10.0781  -15.4007   27.8416 C   0  0  2  0  0  0  0  0  0  0  0  0
   10.6754  -16.0598   29.0636 C   0  0  0  0  0  0  0  0  0  0  0  0
   10.5922  -16.0112   26.5615 C   0  0  2  0  0  0  0  0  0  0  0  0
    9.5071  -15.9000   25.5934 N   0  0  0  0  0  0  0  0  0  0  0  0
   11.0871  -17.3798   26.6772 C   0  0  0  0  0  0  0  0  0  0  0  0
   10.3891  -18.4424   26.1332 O   0  0  0  0  0  0  0  0  0  0  0  0
   12.1611  -17.6702   27.2707 O   0  0  0  0  0  0  0  0  0  0  0  0
  2  1  1  0
  3  2  1  0
  3  4  1  6
  5  6  2  0
  5  3  1  0
  8  7  1  1
  8 10  1  0
  9  8  1  0
 11 10  1  1
 11 12  1  0
 12  5  1  0
 13 11  1  0
 13 20  1  0
 14 13  2  0
 16 15  1  0
 17 19  1  0
 17 16  1  0
 17 18  1  1
 19 20  1  6
 19 21  1  0
 21 23  2  0
 21 22  1  0
M  END
$$$$
