SLI.pdb
     RDKit          3D

 23 22  0  0  1  0  0  0  0  0999 V2000
    8.0764  -18.4269   20.0390 O   0  0  0  0  0  0  0  0  0  0  0  0
    8.5776  -17.8200   21.1634 C   0  0  0  0  0  0  0  0  0  0  0  0
    8.5293  -16.3148   21.1122 C   0  0  2  0  0  0  0  0  0  0  0  0
    9.3828  -15.8166   20.0502 N   0  0  0  0  0  0  0  0  0  0  0  0
    8.8603  -15.6651   22.3740 C   0  0  0  0  0  0  0  0  0  0  0  0
   10.0284  -15.2520   22.5878 O   0  0  0  0  0  0  0  0  0  0  0  0
    7.5019  -11.9117   25.1918 C   0  0  0  0  0  0  0  0  0  0  0  0
    6.5344  -13.0324   25.0396 C   0  0  2  0  0  0  0  0  0  0  0  0
    5.3422  -12.7160   25.9631 C   0  0  0  0  0  0  0  0  0  0  0  0
    6.9943  -14.3833   25.4078 C   0  0  0  0  0  0  0  0  0  0  0  0
    8.1484  -14.9738   24.6990 C   0  0  2  0  0  0  0  0  0  0  0  0
    7.8602  -15.4954   23.3713 N   0  0  0  0  0  0  0  0  0  0  0  0
    8.9376  -15.9331   25.4918 C   0  0  0  0  0  0  0  0  0  0  0  0
    8.8635  -17.1528   25.2702 O   0  0  0  0  0  0  0  0  0  0  0  0
   10.8349  -14.2316   30.6070 C   0  0  0  0  0  0  0  0  0  0  0  0
   10.1890  -14.9917   29.4727 C   0  0  0  0  0  0  0  0  0  0  0  0
   11.1627  -15.4410   28.4417 C   0  0  2  0  0  0  0  0  0  0  0  0
   11.9834  -14.3075   27.8707 C   0  0  0  0  0  0  0  0  0  0  0  0
   10.5886  -16.3235   27.3614 C   0  0  2  0  0  0  0  0  0  0  0  0
    9.7839  -15.4540   26.5108 N   0  0  0  0  0  0  0  0  0  0  0  0
    9.8338  -17.4799   27.8352 C   0  0  0  0  0  0  0  0  0  0  0  0
   10.4737  -18.5815   28.3729 O   0  0  0  0  0  0  0  0  0  0  0  0
    8.5756  -17.5430   27.7825 O   0  0  0  0  0  0  0  0  0  0  0  0
  2  1  1  0
  3  2  1  0
  3  4  1  6
  5  6  2  0
  5  3  1  0
  8  7  1  1
  8 10  1  0
  9  8  1  0
 11 10  1  1
 11 12  1  0
 12  5  1  0
 13 11  1  0
 13 20  1  0
 14 13  2  0
 16 15  1  0
 17 19  1  0
 17 16  1  0
 17 18  1  6
 19 20  1  6
 19 21  1  0
 21 23  2  0
 21 22  1  0
M  END
$$$$
