SLI.pdb
     RDKit          3D

 23 22  0  0  1  0  0  0  0  0999 V2000
    8.1265  -17.8496   21.3695 O   0  0  0  0  0  0  0  0  0  0  0  0
    7.3273  -16.7759   21.0659 C   0  0  0  0  0  0  0  0  0  0  0  0
    8.0049  -15.4433   21.2553 C   0  0  2  0  0  0  0  0  0  0  0  0
    9.0179  -15.2410   20.2368 N   0  0  0  0  0  0  0  0  0  0  0  0
    8.5755  -15.2486   22.5821 C   0  0  0  0  0  0  0  0  0  0  0  0
    9.8135  -15.3700   22.7644 O   0  0  0  0  0  0  0  0  0  0  0  0
    8.1903  -11.7138   25.8927 C   0  0  0  0  0  0  0  0  0  0  0  0
    7.0753  -12.6820   25.7078 C   0  0  2  0  0  0  0  0  0  0  0  0
    5.9588  -12.2623   26.6833 C   0  0  0  0  0  0  0  0  0  0  0  0
    7.3539  -14.1022   25.9861 C   0  0  0  0  0  0  0  0  0  0  0  0
    8.2056  -14.8694   25.0538 C   0  0  2  0  0  0  0  0  0  0  0  0
    7.7315  -14.9196   23.6789 N   0  0  0  0  0  0  0  0  0  0  0  0
    8.6014  -16.2055   25.5332 C   0  0  0  0  0  0  0  0  0  0  0  0
    7.7955  -17.1503   25.5179 O   0  0  0  0  0  0  0  0  0  0  0  0
   13.0260  -18.1265   23.7426 C   0  0  0  0  0  0  0  0  0  0  0  0
   11.6753  -17.8857   24.3746 C   0  0  0  0  0  0  0  0  0  0  0  0
   11.7060  -17.9499   25.8605 C   0  0  2  0  0  0  0  0  0  0  0  0
   12.3666  -19.2046   26.3838 C   0  0  0  0  0  0  0  0  0  0  0  0
   10.3863  -17.6802   26.5396 C   0  0  2  0  0  0  0  0  0  0  0  0
    9.9106  -16.4062   26.0126 N   0  0  0  0  0  0  0  0  0  0  0  0
   10.4211  -17.6924   27.9990 C   0  0  0  0  0  0  0  0  0  0  0  0
   10.2869  -16.5254   28.7286 O   0  0  0  0  0  0  0  0  0  0  0  0
   10.5742  -18.7489   28.6701 O   0  0  0  0  0  0  0  0  0  0  0  0
  2  1  1  0
  3  2  1  0
  3  4  1  6
  5  6  2  0
  5  3  1  0
  8  7  1  1
  8 10  1  0
  9  8  1  0
 11 10  1  1
 11 12  1  0
 12  5  1  0
 13 11  1  0
 13 20  1  0
 14 13  2  0
 16 15  1  0
 17 19  1  0
 17 16  1  0
 17 18  1  6
 19 20  1  1
 19 21  1  0
 21 23  2  0
 21 22  1  0
M  END
$$$$
