SLI.pdb
     RDKit          3D

 23 22  0  0  1  0  0  0  0  0999 V2000
    7.8110  -19.3182   25.3043 O   0  0  0  0  0  0  0  0  0  0  0  0
    6.5289  -19.1295   24.8521 C   0  0  0  0  0  0  0  0  0  0  0  0
    6.4507  -18.3783   23.5482 C   0  0  2  0  0  0  0  0  0  0  0  0
    6.6377  -19.2836   22.4301 N   0  0  0  0  0  0  0  0  0  0  0  0
    7.3756  -17.2563   23.4508 C   0  0  0  0  0  0  0  0  0  0  0  0
    8.4134  -17.3487   22.7471 O   0  0  0  0  0  0  0  0  0  0  0  0
    6.0915  -13.0761   26.5436 C   0  0  0  0  0  0  0  0  0  0  0  0
    7.3812  -13.0866   25.8008 C   0  0  2  0  0  0  0  0  0  0  0  0
    7.8520  -11.6222   25.7113 C   0  0  0  0  0  0  0  0  0  0  0  0
    7.3669  -13.6005   24.4196 C   0  0  0  0  0  0  0  0  0  0  0  0
    8.0016  -14.9016   24.1243 C   0  0  2  0  0  0  0  0  0  0  0  0
    7.1070  -16.0491   24.1536 N   0  0  0  0  0  0  0  0  0  0  0  0
    9.2419  -15.1700   24.8735 C   0  0  0  0  0  0  0  0  0  0  0  0
   10.2832  -14.5407   24.6245 O   0  0  0  0  0  0  0  0  0  0  0  0
    9.1832  -13.7455   29.4228 C   0  0  0  0  0  0  0  0  0  0  0  0
    9.7249  -14.2819   28.1188 C   0  0  0  0  0  0  0  0  0  0  0  0
    9.9065  -15.7583   28.1251 C   0  0  2  0  0  0  0  0  0  0  0  0
   10.7536  -16.2441   29.2787 C   0  0  0  0  0  0  0  0  0  0  0  0
   10.3458  -16.3542   26.8107 C   0  0  2  0  0  0  0  0  0  0  0  0
    9.2389  -16.1528   25.8826 N   0  0  0  0  0  0  0  0  0  0  0  0
   10.7675  -17.7507   26.8681 C   0  0  0  0  0  0  0  0  0  0  0  0
   12.0145  -18.1032   27.3505 O   0  0  0  0  0  0  0  0  0  0  0  0
   10.0333  -18.7023   26.4869 O   0  0  0  0  0  0  0  0  0  0  0  0
  2  1  1  0
  3  2  1  0
  3  4  1  6
  5  6  2  0
  5  3  1  0
  8  7  1  6
  8 10  1  0
  9  8  1  0
 11 10  1  1
 11 12  1  0
 12  5  1  0
 13 11  1  0
 13 20  1  0
 14 13  2  0
 16 15  1  0
 17 19  1  0
 17 16  1  0
 17 18  1  1
 19 20  1  6
 19 21  1  0
 21 23  2  0
 21 22  1  0
M  END
$$$$
