SLI.pdb
     RDKit          3D

 23 22  0  0  1  0  0  0  0  0999 V2000
    6.5264  -18.5220   24.5940 O   0  0  0  0  0  0  0  0  0  0  0  0
    5.7017  -18.0352   23.6109 C   0  0  0  0  0  0  0  0  0  0  0  0
    6.3136  -18.0700   22.2344 C   0  0  2  0  0  0  0  0  0  0  0  0
    6.6274  -19.4343   21.8540 N   0  0  0  0  0  0  0  0  0  0  0  0
    7.4876  -17.2198   22.0829 C   0  0  0  0  0  0  0  0  0  0  0  0
    8.6396  -17.7233   22.0803 O   0  0  0  0  0  0  0  0  0  0  0  0
    8.3073  -14.1373   18.6885 C   0  0  0  0  0  0  0  0  0  0  0  0
    7.5261  -13.6559   19.8602 C   0  0  2  0  0  0  0  0  0  0  0  0
    7.1197  -12.2016   19.5536 C   0  0  0  0  0  0  0  0  0  0  0  0
    8.2071  -13.6272   21.1669 C   0  0  0  0  0  0  0  0  0  0  0  0
    8.4628  -14.8966   21.8784 C   0  0  2  0  0  0  0  0  0  0  0  0
    7.3339  -15.8131   21.9369 N   0  0  0  0  0  0  0  0  0  0  0  0
    9.1022  -14.7492   23.1979 C   0  0  0  0  0  0  0  0  0  0  0  0
   10.2818  -14.3727   23.2936 O   0  0  0  0  0  0  0  0  0  0  0  0
    7.1502  -11.6409   27.5990 C   0  0  0  0  0  0  0  0  0  0  0  0
    8.0847  -12.7985   27.3374 C   0  0  0  0  0  0  0  0  0  0  0  0
    7.7392  -13.5615   26.1080 C   0  0  2  0  0  0  0  0  0  0  0  0
    6.3348  -14.1197   26.1346 C   0  0  0  0  0  0  0  0  0  0  0  0
    8.7525  -14.5994   25.6936 C   0  0  2  0  0  0  0  0  0  0  0  0
    8.3609  -15.0403   24.3597 N   0  0  0  0  0  0  0  0  0  0  0  0
    8.9133  -15.7187   26.6170 C   0  0  0  0  0  0  0  0  0  0  0  0
    8.5736  -17.0070   26.2471 O   0  0  0  0  0  0  0  0  0  0  0  0
    9.3626  -15.5801   27.7870 O   0  0  0  0  0  0  0  0  0  0  0  0
  2  1  1  0
  3  2  1  0
  3  4  1  1
  5  6  2  0
  5  3  1  0
  8  7  1  6
  8 10  1  0
  9  8  1  0
 11 10  1  1
 11 12  1  0
 12  5  1  0
 13 11  1  0
 13 20  1  0
 14 13  2  0
 16 15  1  0
 17 19  1  0
 17 16  1  0
 17 18  1  1
 19 20  1  6
 19 21  1  0
 21 23  2  0
 21 22  1  0
M  END
$$$$
