SLI.pdb
     RDKit          3D

 23 22  0  0  1  0  0  0  0  0999 V2000
    9.4421  -18.1252   21.4086 O   0  0  0  0  0  0  0  0  0  0  0  0
    8.4355  -17.3952   20.8276 C   0  0  0  0  0  0  0  0  0  0  0  0
    8.6456  -15.9051   20.9043 C   0  0  2  0  0  0  0  0  0  0  0  0
    9.6820  -15.4913   19.9774 N   0  0  0  0  0  0  0  0  0  0  0  0
    8.9396  -15.4133   22.2444 C   0  0  0  0  0  0  0  0  0  0  0  0
   10.1130  -15.0881   22.5576 O   0  0  0  0  0  0  0  0  0  0  0  0
    7.4264  -11.8490   25.1492 C   0  0  0  0  0  0  0  0  0  0  0  0
    6.4661  -12.9709   24.9643 C   0  0  2  0  0  0  0  0  0  0  0  0
    5.2820  -12.7004   25.9123 C   0  0  0  0  0  0  0  0  0  0  0  0
    6.9408  -14.3312   25.2748 C   0  0  0  0  0  0  0  0  0  0  0  0
    8.1285  -14.8614   24.5740 C   0  0  2  0  0  0  0  0  0  0  0  0
    7.8973  -15.2993   23.2056 N   0  0  0  0  0  0  0  0  0  0  0  0
    8.9007  -15.8611   25.3331 C   0  0  0  0  0  0  0  0  0  0  0  0
    9.0725  -17.0060   24.8837 O   0  0  0  0  0  0  0  0  0  0  0  0
   10.6753  -13.2971   29.5165 C   0  0  0  0  0  0  0  0  0  0  0  0
   11.0788  -14.2209   28.3916 C   0  0  0  0  0  0  0  0  0  0  0  0
   10.6624  -15.6312   28.6163 C   0  0  2  0  0  0  0  0  0  0  0  0
   11.6283  -16.4004   29.4881 C   0  0  0  0  0  0  0  0  0  0  0  0
   10.2945  -16.3958   27.3690 C   0  0  2  0  0  0  0  0  0  0  0  0
    9.4476  -15.5068   26.5820 N   0  0  0  0  0  0  0  0  0  0  0  0
    9.6672  -17.6946   27.5950 C   0  0  0  0  0  0  0  0  0  0  0  0
   10.4226  -18.8495   27.6820 O   0  0  0  0  0  0  0  0  0  0  0  0
    8.4209  -17.8388   27.7210 O   0  0  0  0  0  0  0  0  0  0  0  0
  2  1  1  0
  3  2  1  0
  3  4  1  6
  5  6  2  0
  5  3  1  0
  8  7  1  1
  8 10  1  0
  9  8  1  0
 11 10  1  1
 11 12  1  0
 12  5  1  0
 13 11  1  0
 13 20  1  0
 14 13  2  0
 16 15  1  0
 17 19  1  0
 17 16  1  0
 17 18  1  6
 19 20  1  6
 19 21  1  0
 21 23  2  0
 21 22  1  0
M  END
$$$$
