DFI.pdb
     RDKit          3D

 28 28  0  0  1  0  0  0  0  0999 V2000
   11.5923  -16.6216   19.3782 N   0  0  0  0  0  0  0  0  0  0  0  0
   10.8477  -17.3871   20.3589 C   0  0  1  0  0  0  0  0  0  0  0  0
   11.5733  -18.6318   20.7529 C   0  0  0  0  0  0  0  0  0  0  0  0
   11.7465  -19.5454   19.5938 C   0  0  0  0  0  0  0  0  0  0  0  0
   12.7819  -20.2602   19.5353 O   0  0  0  0  0  0  0  0  0  0  0  0
   10.4863  -16.5116   21.4904 C   0  0  0  0  0  0  0  0  0  0  0  0
   11.3871  -15.6968   21.8694 O   0  0  0  0  0  0  0  0  0  0  0  0
   10.8306  -19.6619   18.5617 O   0  0  0  0  0  0  0  0  0  0  0  0
    9.2612  -16.5013   22.1689 N   0  0  0  0  0  0  0  0  0  0  0  0
    8.9494  -15.5820   23.2474 C   0  0  1  0  0  0  0  0  0  0  0  0
    7.6029  -14.9946   23.1670 C   0  0  0  0  0  0  0  0  0  0  0  0
    7.1457  -14.1054   24.2160 C   0  0  0  0  0  0  0  0  0  0  0  0
    6.4332  -14.5464   25.3125 C   0  0  0  0  0  0  0  0  0  0  0  0
    5.9820  -13.7068   26.3030 C   0  0  0  0  0  0  0  0  0  0  0  0
    6.2481  -12.3544   26.2079 C   0  0  0  0  0  0  0  0  0  0  0  0
    6.9468  -11.8801   25.1436 C   0  0  0  0  0  0  0  0  0  0  0  0
    7.3948  -12.7545   24.1497 C   0  0  0  0  0  0  0  0  0  0  0  0
    9.3634  -16.1405   24.5674 C   0  0  0  0  0  0  0  0  0  0  0  0
    9.3292  -17.3947   24.7311 O   0  0  0  0  0  0  0  0  0  0  0  0
   10.9467  -14.0124   30.2814 C   0  0  0  0  0  0  0  0  0  0  0  0
   10.9651  -15.0986   29.2701 C   0  0  0  0  0  0  0  0  0  0  0  0
   10.5621  -14.7348   27.8759 C   0  0  2  0  0  0  0  0  0  0  0  0
    9.6579  -13.5285   27.9573 C   0  0  0  0  0  0  0  0  0  0  0  0
   10.1843  -15.8089   26.9642 C   0  0  2  0  0  0  0  0  0  0  0  0
    9.7922  -15.3418   25.6313 N   0  0  0  0  0  0  0  0  0  0  0  0
    9.2913  -16.8785   27.4389 C   0  0  0  0  0  0  0  0  0  0  0  0
    8.0973  -17.0426   27.1467 O   0  0  0  0  0  0  0  0  0  0  0  0
    9.8002  -17.8534   28.3318 O   0  0  0  0  0  0  0  0  0  0  0  0
  2  1  1  6
  2  6  1  0
  3  2  1  0
  4  3  1  0
  5  4  2  0
  6  9  1  0
  6  7  2  0
  8  4  1  0
  9 10  1  0
 10 18  1  0
 10 11  1  1
 11 12  1  0
 12 17  2  0
 13 12  1  0
 13 14  2  0
 14 15  1  0
 15 16  2  0
 17 16  1  0
 18 19  2  0
 21 20  1  0
 22 21  1  0
 22 23  1  1
 24 22  1  0
 24 25  1  6
 25 18  1  0
 26 28  1  0
 26 24  1  0
 27 26  2  0
M  END
$$$$
