DFI.pdb
     RDKit          3D

 28 28  0  0  1  0  0  0  0  0999 V2000
   11.1900  -17.3219   19.7069 N   0  0  0  0  0  0  0  0  0  0  0  0
   10.3445  -17.8679   20.7506 C   0  0  1  0  0  0  0  0  0  0  0  0
   10.8716  -19.1683   21.2627 C   0  0  0  0  0  0  0  0  0  0  0  0
   10.9868  -20.1710   20.1721 C   0  0  0  0  0  0  0  0  0  0  0  0
   12.1338  -20.5560   19.8218 O   0  0  0  0  0  0  0  0  0  0  0  0
   10.1339  -16.8456   21.7937 C   0  0  0  0  0  0  0  0  0  0  0  0
   11.1314  -16.0963   22.0437 O   0  0  0  0  0  0  0  0  0  0  0  0
    9.9000  -20.7153   19.5087 O   0  0  0  0  0  0  0  0  0  0  0  0
    8.9536  -16.6343   22.5173 N   0  0  0  0  0  0  0  0  0  0  0  0
    8.8019  -15.5951   23.5187 C   0  0  1  0  0  0  0  0  0  0  0  0
    7.5428  -14.8409   23.4170 C   0  0  0  0  0  0  0  0  0  0  0  0
    7.2250  -13.8402   24.4157 C   0  0  0  0  0  0  0  0  0  0  0  0
    6.3594  -14.0781   25.4639 C   0  0  0  0  0  0  0  0  0  0  0  0
    6.0403  -13.1289   26.4055 C   0  0  0  0  0  0  0  0  0  0  0  0
    6.6067  -11.8724   26.3091 C   0  0  0  0  0  0  0  0  0  0  0  0
    7.4641  -11.5979   25.2916 C   0  0  0  0  0  0  0  0  0  0  0  0
    7.7725  -12.5804   24.3469 C   0  0  0  0  0  0  0  0  0  0  0  0
    9.1821  -16.0927   24.8728 C   0  0  0  0  0  0  0  0  0  0  0  0
    8.4241  -16.9289   25.4447 O   0  0  0  0  0  0  0  0  0  0  0  0
    9.2683  -12.8838   28.6950 C   0  0  0  0  0  0  0  0  0  0  0  0
    9.9936  -13.6966   27.6871 C   0  0  0  0  0  0  0  0  0  0  0  0
   10.0437  -15.1744   27.9154 C   0  0  2  0  0  0  0  0  0  0  0  0
   10.3858  -15.4051   29.3676 C   0  0  0  0  0  0  0  0  0  0  0  0
   10.7104  -16.0046   26.9184 C   0  0  2  0  0  0  0  0  0  0  0  0
   10.3407  -15.6810   25.5375 N   0  0  0  0  0  0  0  0  0  0  0  0
   10.7849  -17.4603   27.1238 C   0  0  0  0  0  0  0  0  0  0  0  0
   11.1059  -18.0549   28.1637 O   0  0  0  0  0  0  0  0  0  0  0  0
   10.4674  -18.3239   26.0466 O   0  0  0  0  0  0  0  0  0  0  0  0
  2  1  1  6
  2  6  1  0
  3  2  1  0
  4  3  1  0
  5  4  2  0
  6  9  1  0
  6  7  2  0
  8  4  1  0
  9 10  1  0
 10 18  1  0
 10 11  1  1
 11 12  1  0
 12 17  2  0
 13 12  1  0
 13 14  2  0
 14 15  1  0
 15 16  2  0
 17 16  1  0
 18 19  2  0
 21 20  1  0
 22 21  1  0
 22 23  1  1
 24 22  1  0
 24 25  1  6
 25 18  1  0
 26 28  1  0
 26 24  1  0
 27 26  2  0
M  END
$$$$
