DFI.pdb
     RDKit          3D

 28 28  0  0  1  0  0  0  0  0999 V2000
   11.4052  -16.9568   19.5127 N   0  0  0  0  0  0  0  0  0  0  0  0
   10.9007  -17.7131   20.6421 C   0  0  1  0  0  0  0  0  0  0  0  0
   11.8564  -18.7820   21.0606 C   0  0  0  0  0  0  0  0  0  0  0  0
   12.1958  -19.6775   19.9245 C   0  0  0  0  0  0  0  0  0  0  0  0
   13.2538  -20.3584   19.9848 O   0  0  0  0  0  0  0  0  0  0  0  0
   10.5200  -16.7828   21.7224 C   0  0  0  0  0  0  0  0  0  0  0  0
   11.3822  -15.8948   22.0175 O   0  0  0  0  0  0  0  0  0  0  0  0
   11.4132  -19.8124   18.7900 O   0  0  0  0  0  0  0  0  0  0  0  0
    9.3150  -16.7938   22.4361 N   0  0  0  0  0  0  0  0  0  0  0  0
    8.9965  -15.8449   23.4867 C   0  0  1  0  0  0  0  0  0  0  0  0
    7.6289  -15.3070   23.4172 C   0  0  0  0  0  0  0  0  0  0  0  0
    7.1938  -14.3284   24.3934 C   0  0  0  0  0  0  0  0  0  0  0  0
    6.4670  -14.6649   25.5172 C   0  0  0  0  0  0  0  0  0  0  0  0
    6.0368  -13.7404   26.4389 C   0  0  0  0  0  0  0  0  0  0  0  0
    6.3400  -12.4069   26.2423 C   0  0  0  0  0  0  0  0  0  0  0  0
    7.0539  -12.0343   25.1481 C   0  0  0  0  0  0  0  0  0  0  0  0
    7.4800  -12.9937   24.2256 C   0  0  0  0  0  0  0  0  0  0  0  0
    9.4601  -16.3381   24.8162 C   0  0  0  0  0  0  0  0  0  0  0  0
    9.1460  -17.5119   25.1690 O   0  0  0  0  0  0  0  0  0  0  0  0
   10.1860  -12.3831   28.5824 C   0  0  0  0  0  0  0  0  0  0  0  0
   10.6170  -13.4453   27.6397 C   0  0  0  0  0  0  0  0  0  0  0  0
   10.3281  -14.8597   28.0328 C   0  0  2  0  0  0  0  0  0  0  0  0
   10.8231  -15.0558   29.4455 C   0  0  0  0  0  0  0  0  0  0  0  0
   10.6004  -15.9149   27.0631 C   0  0  2  0  0  0  0  0  0  0  0  0
   10.2303  -15.5642   25.6890 N   0  0  0  0  0  0  0  0  0  0  0  0
   10.2230  -17.3019   27.3801 C   0  0  0  0  0  0  0  0  0  0  0  0
   10.9855  -18.2613   27.5700 O   0  0  0  0  0  0  0  0  0  0  0  0
    8.8499  -17.6330   27.4897 O   0  0  0  0  0  0  0  0  0  0  0  0
  2  1  1  6
  2  6  1  0
  3  2  1  0
  4  3  1  0
  5  4  2  0
  6  9  1  0
  6  7  2  0
  8  4  1  0
  9 10  1  0
 10 18  1  0
 10 11  1  1
 11 12  1  0
 12 17  2  0
 13 12  1  0
 13 14  2  0
 14 15  1  0
 15 16  2  0
 17 16  1  0
 18 19  2  0
 21 20  1  0
 22 21  1  0
 22 23  1  1
 24 22  1  0
 24 25  1  6
 25 18  1  0
 26 28  1  0
 26 24  1  0
 27 26  2  0
M  END
$$$$
