DFI.pdb
     RDKit          3D

 28 28  0  0  1  0  0  0  0  0999 V2000
   10.1618  -17.9873   19.8823 N   0  0  0  0  0  0  0  0  0  0  0  0
   11.3089  -17.3749   20.5237 C   0  0  1  0  0  0  0  0  0  0  0  0
   12.1183  -16.5740   19.5570 C   0  0  0  0  0  0  0  0  0  0  0  0
   12.6277  -17.4213   18.4477 C   0  0  0  0  0  0  0  0  0  0  0  0
   12.5972  -16.9654   17.2739 O   0  0  0  0  0  0  0  0  0  0  0  0
   10.8606  -16.6210   21.7104 C   0  0  0  0  0  0  0  0  0  0  0  0
   11.7626  -15.9642   22.3220 O   0  0  0  0  0  0  0  0  0  0  0  0
   13.1402  -18.6955   18.6249 O   0  0  0  0  0  0  0  0  0  0  0  0
    9.5536  -16.5681   22.2106 N   0  0  0  0  0  0  0  0  0  0  0  0
    9.1576  -15.7384   23.3333 C   0  0  1  0  0  0  0  0  0  0  0  0
    7.7785  -15.2325   23.2506 C   0  0  0  0  0  0  0  0  0  0  0  0
    7.2952  -14.3039   24.2526 C   0  0  0  0  0  0  0  0  0  0  0  0
    6.6161  -14.7101   25.3832 C   0  0  0  0  0  0  0  0  0  0  0  0
    6.1402  -13.8343   26.3296 C   0  0  0  0  0  0  0  0  0  0  0  0
    6.3451  -12.4795   26.1522 C   0  0  0  0  0  0  0  0  0  0  0  0
    7.0093  -12.0386   25.0521 C   0  0  0  0  0  0  0  0  0  0  0  0
    7.4835  -12.9496   24.1043 C   0  0  0  0  0  0  0  0  0  0  0  0
    9.5745  -16.3504   24.6285 C   0  0  0  0  0  0  0  0  0  0  0  0
    9.8290  -17.5894   24.6578 O   0  0  0  0  0  0  0  0  0  0  0  0
   10.4082  -12.6599   28.8012 C   0  0  0  0  0  0  0  0  0  0  0  0
   10.5320  -13.6973   27.7470 C   0  0  0  0  0  0  0  0  0  0  0  0
   10.2393  -15.1091   28.1464 C   0  0  2  0  0  0  0  0  0  0  0  0
   11.0513  -15.4166   29.3815 C   0  0  0  0  0  0  0  0  0  0  0  0
   10.1799  -16.1241   27.1004 C   0  0  2  0  0  0  0  0  0  0  0  0
    9.7016  -15.6165   25.8113 N   0  0  0  0  0  0  0  0  0  0  0  0
    9.5974  -17.4414   27.4045 C   0  0  0  0  0  0  0  0  0  0  0  0
    8.4082  -17.7771   27.2999 O   0  0  0  0  0  0  0  0  0  0  0  0
   10.4439  -18.4756   27.8743 O   0  0  0  0  0  0  0  0  0  0  0  0
  2  1  1  6
  2  6  1  0
  3  2  1  0
  4  3  1  0
  5  4  2  0
  6  9  1  0
  6  7  2  0
  8  4  1  0
  9 10  1  0
 10 18  1  0
 10 11  1  1
 11 12  1  0
 12 17  2  0
 13 12  1  0
 13 14  2  0
 14 15  1  0
 15 16  2  0
 17 16  1  0
 18 19  2  0
 21 20  1  0
 22 21  1  0
 22 23  1  1
 24 22  1  0
 24 25  1  6
 25 18  1  0
 26 28  1  0
 26 24  1  0
 27 26  2  0
M  END
$$$$
