WPS.pdb
     RDKit          3D

 28 30  0  0  1  0  0  0  0  0999 V2000
   24.4567  -19.7522   -9.2648 N   0  0  0  0  0  0  0  0  0  0  0  0
   25.7346  -20.1496   -9.8479 C   0  0  1  0  0  0  0  0  0  0  0  0
   26.3218  -21.2388   -9.0094 C   0  0  0  0  0  0  0  0  0  0  0  0
   27.5494  -20.8293   -8.3303 C   0  0  0  0  0  0  0  0  0  0  0  0
   28.8548  -20.9249   -8.7949 C   0  0  0  0  0  0  0  0  0  0  0  0
   29.6948  -20.4630   -7.8526 N   0  0  0  0  0  0  0  0  0  0  0  0
   28.9880  -20.0668   -6.7892 C   0  0  0  0  0  0  0  0  0  0  0  0
   29.3630  -19.5053   -5.5728 C   0  0  0  0  0  0  0  0  0  0  0  0
   28.4141  -19.1673   -4.6505 C   0  0  0  0  0  0  0  0  0  0  0  0
   27.0770  -19.3689   -4.8964 C   0  0  0  0  0  0  0  0  0  0  0  0
   26.7157  -19.9277   -6.1062 C   0  0  0  0  0  0  0  0  0  0  0  0
   27.6431  -20.2803   -7.0543 C   0  0  0  0  0  0  0  0  0  0  0  0
   25.5588  -20.4656  -11.2796 C   0  0  0  0  0  0  0  0  0  0  0  0
   24.4286  -20.9049  -11.6412 O   0  0  0  0  0  0  0  0  0  0  0  0
   26.5724  -20.2937  -12.2425 N   0  0  0  0  0  0  0  0  0  0  0  0
   27.9050  -19.8075  -11.9793 C   0  0  0  0  0  0  0  0  0  0  0  0
   28.3429  -19.1039  -13.2544 C   0  0  0  0  0  0  0  0  0  0  0  0
   27.4250  -19.5700  -14.3239 C   0  0  0  0  0  0  0  0  0  0  0  0
   26.4508  -20.5005  -13.6396 C   0  0  1  0  0  0  0  0  0  0  0  0
   26.6265  -21.8387  -14.1723 C   0  0  0  0  0  0  0  0  0  0  0  0
   27.8029  -22.3362  -14.0896 O   0  0  0  0  0  0  0  0  0  0  0  0
   23.5918  -24.5901  -14.9947 O   0  0  0  0  0  0  0  0  0  0  0  0
   24.8465  -25.0177  -14.6236 C   0  0  0  0  0  0  0  0  0  0  0  0
   25.8940  -24.0558  -15.1054 C   0  0  2  0  0  0  0  0  0  0  0  0
   25.6665  -22.6824  -14.7800 N   0  0  0  0  0  0  0  0  0  0  0  0
   26.0779  -24.2964  -16.5725 C   0  0  0  0  0  0  0  0  0  0  0  0
   26.0355  -23.2816  -17.5096 O   0  0  0  0  0  0  0  0  0  0  0  0
   26.2783  -25.4792  -16.9428 O   0  0  0  0  0  0  0  0  0  0  0  0
  2  1  1  1
  3  4  1  0
  3  2  1  0
  4  5  2  0
  5  6  1  0
  7  8  2  0
  7  6  1  0
  9  8  1  0
 10  9  2  0
 11 10  1  0
 11 12  2  0
 12  4  1  0
 12  7  1  0
 13  2  1  0
 14 13  2  0
 15 13  1  0
 16 15  1  0
 17 16  1  0
 18 17  1  0
 18 19  1  0
 19 15  1  0
 19 20  1  1
 20 25  1  0
 20 21  2  0
 23 22  1  0
 24 23  1  6
 25 24  1  0
 26 24  1  0
 26 27  1  0
 28 26  2  0
M  END
$$$$
