WPS.pdb
     RDKit          3D

 28 30  0  0  1  0  0  0  0  0999 V2000
   20.5557  -10.0998  -17.1295 N   0  0  0  0  0  0  0  0  0  0  0  0
   20.4752   -8.8386  -16.3989 C   0  0  1  0  0  0  0  0  0  0  0  0
   20.8186   -7.7243  -17.3341 C   0  0  0  0  0  0  0  0  0  0  0  0
   22.0664   -7.0521  -16.9778 C   0  0  0  0  0  0  0  0  0  0  0  0
   23.3515   -7.3515  -17.4113 C   0  0  0  0  0  0  0  0  0  0  0  0
   24.2228   -6.5117  -16.8259 N   0  0  0  0  0  0  0  0  0  0  0  0
   23.5560   -5.6727  -16.0267 C   0  0  0  0  0  0  0  0  0  0  0  0
   23.9728   -4.6185  -15.2203 C   0  0  0  0  0  0  0  0  0  0  0  0
   23.0591   -3.8951  -14.5081 C   0  0  0  0  0  0  0  0  0  0  0  0
   21.7169   -4.1846  -14.5689 C   0  0  0  0  0  0  0  0  0  0  0  0
   21.3139   -5.2333  -15.3715 C   0  0  0  0  0  0  0  0  0  0  0  0
   22.2053   -5.9814  -16.0988 C   0  0  0  0  0  0  0  0  0  0  0  0
   19.1663   -8.7298  -15.7240 C   0  0  0  0  0  0  0  0  0  0  0  0
   18.1338   -8.9344  -16.4262 O   0  0  0  0  0  0  0  0  0  0  0  0
   19.0211   -8.4232  -14.3569 N   0  0  0  0  0  0  0  0  0  0  0  0
   20.0721   -8.4750  -13.3699 C   0  0  0  0  0  0  0  0  0  0  0  0
   19.3835   -8.8112  -12.0563 C   0  0  0  0  0  0  0  0  0  0  0  0
   17.9399   -8.5298  -12.2586 C   0  0  0  0  0  0  0  0  0  0  0  0
   17.8167   -8.0764  -13.6947 C   0  0  1  0  0  0  0  0  0  0  0  0
   17.3736   -6.6948  -13.7145 C   0  0  0  0  0  0  0  0  0  0  0  0
   18.2309   -5.8258  -14.0996 O   0  0  0  0  0  0  0  0  0  0  0  0
   15.5525   -3.4233  -15.7246 O   0  0  0  0  0  0  0  0  0  0  0  0
   16.2108   -4.5187  -15.2130 C   0  0  0  0  0  0  0  0  0  0  0  0
   15.5131   -5.0249  -13.9836 C   0  0  2  0  0  0  0  0  0  0  0  0
   16.1093   -6.1657  -13.3617 N   0  0  0  0  0  0  0  0  0  0  0  0
   14.0726   -5.2280  -14.3413 C   0  0  0  0  0  0  0  0  0  0  0  0
   13.1047   -4.2644  -14.1298 O   0  0  0  0  0  0  0  0  0  0  0  0
   13.7549   -6.3289  -14.8544 O   0  0  0  0  0  0  0  0  0  0  0  0
  2  1  1  6
  3  4  1  0
  3  2  1  0
  4  5  2  0
  5  6  1  0
  7  8  2  0
  7  6  1  0
  9  8  1  0
 10  9  2  0
 11 10  1  0
 11 12  2  0
 12  4  1  0
 12  7  1  0
 13  2  1  0
 14 13  2  0
 15 13  1  0
 16 15  1  0
 17 16  1  0
 18 17  1  0
 18 19  1  0
 19 15  1  0
 19 20  1  1
 20 25  1  0
 20 21  2  0
 23 22  1  0
 24 23  1  6
 25 24  1  0
 26 24  1  0
 26 27  1  0
 28 26  2  0
M  END
$$$$
