WPS.pdb
     RDKit          3D

 28 30  0  0  1  0  0  0  0  0999 V2000
   20.3886  -18.6861  -15.2710 N   0  0  0  0  0  0  0  0  0  0  0  0
   21.0526  -19.8701  -14.7344 C   0  0  1  0  0  0  0  0  0  0  0  0
   21.0239  -20.9439  -15.7738 C   0  0  0  0  0  0  0  0  0  0  0  0
   19.6779  -21.4579  -16.0180 C   0  0  0  0  0  0  0  0  0  0  0  0
   18.6499  -20.8547  -16.7311 C   0  0  0  0  0  0  0  0  0  0  0  0
   17.5632  -21.6451  -16.6949 N   0  0  0  0  0  0  0  0  0  0  0  0
   17.8418  -22.7441  -15.9863 C   0  0  0  0  0  0  0  0  0  0  0  0
   17.0862  -23.8672  -15.6656 C   0  0  0  0  0  0  0  0  0  0  0  0
   17.6355  -24.8773  -14.9284 C   0  0  0  0  0  0  0  0  0  0  0  0
   18.9361  -24.8134  -14.4890 C   0  0  0  0  0  0  0  0  0  0  0  0
   19.6770  -23.6939  -14.8119 C   0  0  0  0  0  0  0  0  0  0  0  0
   19.1560  -22.6605  -15.5493 C   0  0  0  0  0  0  0  0  0  0  0  0
   22.3892  -19.5092  -14.2210 C   0  0  0  0  0  0  0  0  0  0  0  0
   22.9969  -18.5634  -14.8020 O   0  0  0  0  0  0  0  0  0  0  0  0
   23.0010  -20.1537  -13.1281 N   0  0  0  0  0  0  0  0  0  0  0  0
   22.3896  -21.1672  -12.3032 C   0  0  0  0  0  0  0  0  0  0  0  0
   23.0266  -21.0164  -10.9305 C   0  0  0  0  0  0  0  0  0  0  0  0
   24.2591  -20.2131  -11.1290 C   0  0  0  0  0  0  0  0  0  0  0  0
   24.2891  -19.8812  -12.6028 C   0  0  1  0  0  0  0  0  0  0  0  0
   25.4454  -20.5190  -13.2043 C   0  0  0  0  0  0  0  0  0  0  0  0
   25.3687  -21.7833  -13.3883 O   0  0  0  0  0  0  0  0  0  0  0  0
   28.5718  -18.6117  -15.2100 O   0  0  0  0  0  0  0  0  0  0  0  0
   28.2404  -19.9076  -15.5348 C   0  0  0  0  0  0  0  0  0  0  0  0
   27.6877  -20.6251  -14.3371 C   0  0  2  0  0  0  0  0  0  0  0  0
   26.6635  -19.9312  -13.6208 N   0  0  0  0  0  0  0  0  0  0  0  0
   28.8505  -21.0193  -13.4789 C   0  0  0  0  0  0  0  0  0  0  0  0
   29.8799  -21.8215  -13.9336 O   0  0  0  0  0  0  0  0  0  0  0  0
   28.8689  -20.5900  -12.2992 O   0  0  0  0  0  0  0  0  0  0  0  0
  2  1  1  6
  3  4  1  0
  3  2  1  0
  4  5  2  0
  5  6  1  0
  7  8  2  0
  7  6  1  0
  9  8  1  0
 10  9  2  0
 11 10  1  0
 11 12  2  0
 12  4  1  0
 12  7  1  0
 13  2  1  0
 14 13  2  0
 15 13  1  0
 16 15  1  0
 17 16  1  0
 18 17  1  0
 18 19  1  0
 19 15  1  0
 19 20  1  6
 20 25  1  0
 20 21  2  0
 23 22  1  0
 24 23  1  6
 25 24  1  0
 26 24  1  0
 26 27  1  0
 28 26  2  0
M  END
$$$$
