WPS.pdb
     RDKit          3D

 28 30  0  0  1  0  0  0  0  0999 V2000
   27.5377  -19.9098  -15.8543 N   0  0  0  0  0  0  0  0  0  0  0  0
   26.8504  -20.5041  -14.7118 C   0  0  1  0  0  0  0  0  0  0  0  0
   26.9758  -19.5768  -13.5462 C   0  0  0  0  0  0  0  0  0  0  0  0
   27.6316  -20.1986  -12.3977 C   0  0  0  0  0  0  0  0  0  0  0  0
   28.9311  -20.6819  -12.3148 C   0  0  0  0  0  0  0  0  0  0  0  0
   29.1325  -21.2024  -11.0919 N   0  0  0  0  0  0  0  0  0  0  0  0
   28.0141  -21.0763  -10.3704 C   0  0  0  0  0  0  0  0  0  0  0  0
   27.7001  -21.4285   -9.0617 C   0  0  0  0  0  0  0  0  0  0  0  0
   26.4600  -21.1597   -8.5565 C   0  0  0  0  0  0  0  0  0  0  0  0
   25.4988  -20.5394   -9.3183 C   0  0  0  0  0  0  0  0  0  0  0  0
   25.8204  -20.1949  -10.6161 C   0  0  0  0  0  0  0  0  0  0  0  0
   27.0558  -20.4516  -11.1556 C   0  0  0  0  0  0  0  0  0  0  0  0
   25.4726  -20.8765  -15.0903 C   0  0  0  0  0  0  0  0  0  0  0  0
   24.9501  -20.2542  -16.0604 O   0  0  0  0  0  0  0  0  0  0  0  0
   24.7328  -21.8814  -14.4367 N   0  0  0  0  0  0  0  0  0  0  0  0
   25.2018  -22.6843  -13.3337 C   0  0  0  0  0  0  0  0  0  0  0  0
   24.4753  -24.0146  -13.4582 C   0  0  0  0  0  0  0  0  0  0  0  0
   23.3253  -23.7779  -14.3666 C   0  0  0  0  0  0  0  0  0  0  0  0
   23.4326  -22.3289  -14.7811 C   0  0  1  0  0  0  0  0  0  0  0  0
   22.2808  -21.6083  -14.2716 C   0  0  0  0  0  0  0  0  0  0  0  0
   22.4445  -20.9748  -13.1715 O   0  0  0  0  0  0  0  0  0  0  0  0
   18.8227  -20.7029  -16.4001 O   0  0  0  0  0  0  0  0  0  0  0  0
   19.1920  -19.8773  -15.3624 C   0  0  0  0  0  0  0  0  0  0  0  0
   19.9580  -20.6467  -14.3251 C   0  0  2  0  0  0  0  0  0  0  0  0
   20.9833  -21.5070  -14.8276 N   0  0  0  0  0  0  0  0  0  0  0  0
   18.9557  -21.3552  -13.4664 C   0  0  0  0  0  0  0  0  0  0  0  0
   17.9827  -20.6894  -12.7451 O   0  0  0  0  0  0  0  0  0  0  0  0
   19.0218  -22.6079  -13.4156 O   0  0  0  0  0  0  0  0  0  0  0  0
  2  1  1  6
  3  4  1  0
  3  2  1  0
  4  5  2  0
  5  6  1  0
  7  8  2  0
  7  6  1  0
  9  8  1  0
 10  9  2  0
 11 10  1  0
 11 12  2  0
 12  4  1  0
 12  7  1  0
 13  2  1  0
 14 13  2  0
 15 13  1  0
 16 15  1  0
 17 16  1  0
 18 17  1  0
 18 19  1  0
 19 15  1  0
 19 20  1  1
 20 25  1  0
 20 21  2  0
 23 22  1  0
 24 23  1  6
 25 24  1  0
 26 24  1  0
 26 27  1  0
 28 26  2  0
M  END
$$$$
