WPS.pdb
     RDKit          3D

 28 30  0  0  1  0  0  0  0  0999 V2000
   23.4677  -21.2343  -17.4103 N   0  0  0  0  0  0  0  0  0  0  0  0
   23.6910  -20.2036  -16.4011 C   0  0  1  0  0  0  0  0  0  0  0  0
   22.4416  -20.0479  -15.5955 C   0  0  0  0  0  0  0  0  0  0  0  0
   21.5887  -18.9645  -16.0796 C   0  0  0  0  0  0  0  0  0  0  0  0
   20.3915  -19.0666  -16.7763 C   0  0  0  0  0  0  0  0  0  0  0  0
   19.9382  -17.8333  -17.0603 N   0  0  0  0  0  0  0  0  0  0  0  0
   20.7930  -16.9276  -16.5741 C   0  0  0  0  0  0  0  0  0  0  0  0
   20.7857  -15.5365  -16.5795 C   0  0  0  0  0  0  0  0  0  0  0  0
   21.7959  -14.8416  -15.9779 C   0  0  0  0  0  0  0  0  0  0  0  0
   22.8357  -15.4904  -15.3560 C   0  0  0  0  0  0  0  0  0  0  0  0
   22.8339  -16.8711  -15.3572 C   0  0  0  0  0  0  0  0  0  0  0  0
   21.8358  -17.6001  -15.9534 C   0  0  0  0  0  0  0  0  0  0  0  0
   24.9159  -20.5064  -15.6339 C   0  0  0  0  0  0  0  0  0  0  0  0
   25.2658  -21.7200  -15.5567 O   0  0  0  0  0  0  0  0  0  0  0  0
   25.7010  -19.5207  -15.0045 N   0  0  0  0  0  0  0  0  0  0  0  0
   25.5922  -18.0984  -15.2200 C   0  0  0  0  0  0  0  0  0  0  0  0
   26.9876  -17.5411  -14.9850 C   0  0  0  0  0  0  0  0  0  0  0  0
   27.7360  -18.5892  -14.2467 C   0  0  0  0  0  0  0  0  0  0  0  0
   26.7736  -19.7455  -14.1054 C   0  0  1  0  0  0  0  0  0  0  0  0
   26.4837  -19.9458  -12.6978 C   0  0  0  0  0  0  0  0  0  0  0  0
   25.4233  -19.3874  -12.2482 O   0  0  0  0  0  0  0  0  0  0  0  0
   28.5599  -20.7979   -9.2293 O   0  0  0  0  0  0  0  0  0  0  0  0
   27.6421  -21.7719   -9.5516 C   0  0  0  0  0  0  0  0  0  0  0  0
   26.6544  -21.2522  -10.5560 C   0  0  2  0  0  0  0  0  0  0  0  0
   27.2197  -20.6813  -11.7385 N   0  0  0  0  0  0  0  0  0  0  0  0
   25.7296  -20.3230   -9.8310 C   0  0  0  0  0  0  0  0  0  0  0  0
   24.8801  -20.7444   -8.8257 O   0  0  0  0  0  0  0  0  0  0  0  0
   25.7449  -19.1138  -10.1685 O   0  0  0  0  0  0  0  0  0  0  0  0
  2  1  1  6
  3  4  1  0
  3  2  1  0
  4  5  2  0
  5  6  1  0
  7  8  2  0
  7  6  1  0
  9  8  1  0
 10  9  2  0
 11 10  1  0
 11 12  2  0
 12  4  1  0
 12  7  1  0
 13  2  1  0
 14 13  2  0
 15 13  1  0
 16 15  1  0
 17 16  1  0
 18 17  1  0
 18 19  1  0
 19 15  1  0
 19 20  1  1
 20 25  1  0
 20 21  2  0
 23 22  1  0
 24 23  1  1
 25 24  1  0
 26 24  1  0
 26 27  1  0
 28 26  2  0
M  END
$$$$
