AFA.pdb
     RDKit          3D

 22 22  0  0  1  0  0  0  0  0999 V2000
   27.9347  -22.3111  -18.0903 C   0  0  0  0  0  0  0  0  0  0  0  0
   27.2534  -23.0610  -16.9393 C   0  0  2  0  0  0  0  0  0  0  0  0
   25.9054  -23.3123  -17.3210 N   0  0  0  0  0  0  0  0  0  0  0  0
   27.3807  -22.1916  -15.7478 C   0  0  0  0  0  0  0  0  0  0  0  0
   28.5272  -22.0013  -15.2677 O   0  0  0  0  0  0  0  0  0  0  0  0
   26.2879  -21.5611  -15.1163 N   0  0  0  0  0  0  0  0  0  0  0  0
   26.3803  -20.6502  -14.0187 C   0  0  1  0  0  0  0  0  0  0  0  0
   25.8251  -19.2789  -14.3547 C   0  0  0  0  0  0  0  0  0  0  0  0
   26.6854  -18.6099  -15.3799 C   0  0  0  0  0  0  0  0  0  0  0  0
   26.1979  -18.3599  -16.6488 C   0  0  0  0  0  0  0  0  0  0  0  0
   26.9497  -17.7493  -17.6206 C   0  0  0  0  0  0  0  0  0  0  0  0
   28.2468  -17.3551  -17.3591 C   0  0  0  0  0  0  0  0  0  0  0  0
   28.7525  -17.6024  -16.0784 C   0  0  0  0  0  0  0  0  0  0  0  0
   27.9813  -18.2177  -15.1138 C   0  0  0  0  0  0  0  0  0  0  0  0
   25.5751  -21.1718  -12.8847 C   0  0  0  0  0  0  0  0  0  0  0  0
   24.5695  -21.9209  -13.1130 O   0  0  0  0  0  0  0  0  0  0  0  0
   25.7837  -20.7433   -9.1341 C   0  0  0  0  0  0  0  0  0  0  0  0
   25.0863  -21.2461  -10.4043 C   0  0  2  0  0  0  0  0  0  0  0  0
   25.9043  -20.8510  -11.5323 N   0  0  0  0  0  0  0  0  0  0  0  0
   23.7468  -20.6182  -10.5330 C   0  0  0  0  0  0  0  0  0  0  0  0
   22.6600  -21.0647   -9.7941 O   0  0  0  0  0  0  0  0  0  0  0  0
   23.5647  -19.6689  -11.3127 O   0  0  0  0  0  0  0  0  0  0  0  0
  2  1  1  6
  2  3  1  0
  4  6  1  0
  4  2  1  0
  5  4  2  0
  7  6  1  0
  7 15  1  0
  7  8  1  6
  9  8  1  0
  9 14  2  0
 10  9  1  0
 11 10  2  0
 11 12  1  0
 12 13  2  0
 13 14  1  0
 15 19  1  0
 16 15  2  0
 18 17  1  1
 18 20  1  0
 19 18  1  0
 20 21  1  0
 22 20  2  0
M  END
$$$$
