AFA.pdb
     RDKit          3D

 22 22  0  0  1  0  0  0  0  0999 V2000
   29.9122  -31.1546  -20.8646 C   0  0  0  0  0  0  0  0  0  0  0  0
   30.6013  -30.5098  -19.6560 C   0  0  2  0  0  0  0  0  0  0  0  0
   31.9058  -31.0692  -19.5491 N   0  0  0  0  0  0  0  0  0  0  0  0
   29.7364  -30.7932  -18.4883 C   0  0  0  0  0  0  0  0  0  0  0  0
   29.9420  -31.8482  -17.8356 O   0  0  0  0  0  0  0  0  0  0  0  0
   28.6910  -29.9469  -18.0624 N   0  0  0  0  0  0  0  0  0  0  0  0
   27.9272  -30.1141  -16.8660 C   0  0  1  0  0  0  0  0  0  0  0  0
   28.3131  -29.1194  -15.7876 C   0  0  0  0  0  0  0  0  0  0  0  0
   28.3190  -27.7303  -16.3437 C   0  0  0  0  0  0  0  0  0  0  0  0
   27.1813  -26.9475  -16.2862 C   0  0  0  0  0  0  0  0  0  0  0  0
   27.1399  -25.6693  -16.7827 C   0  0  0  0  0  0  0  0  0  0  0  0
   28.2568  -25.1086  -17.3695 C   0  0  0  0  0  0  0  0  0  0  0  0
   29.4151  -25.8904  -17.4342 C   0  0  0  0  0  0  0  0  0  0  0  0
   29.4379  -27.1743  -16.9293 C   0  0  0  0  0  0  0  0  0  0  0  0
   26.4917  -29.8815  -17.1690 C   0  0  0  0  0  0  0  0  0  0  0  0
   26.1629  -29.1891  -18.1874 O   0  0  0  0  0  0  0  0  0  0  0  0
   23.8587  -28.8591  -17.2159 C   0  0  0  0  0  0  0  0  0  0  0  0
   24.0512  -30.2614  -16.6249 C   0  0  2  0  0  0  0  0  0  0  0  0
   25.4619  -30.4203  -16.3386 N   0  0  0  0  0  0  0  0  0  0  0  0
   23.6374  -31.2915  -17.6113 C   0  0  0  0  0  0  0  0  0  0  0  0
   23.2488  -32.5636  -17.2150 O   0  0  0  0  0  0  0  0  0  0  0  0
   23.6290  -31.0371  -18.8268 O   0  0  0  0  0  0  0  0  0  0  0  0
  2  1  1  6
  2  3  1  0
  4  6  1  0
  4  2  1  0
  5  4  2  0
  7  6  1  0
  7 15  1  0
  7  8  1  1
  9  8  1  0
  9 14  2  0
 10  9  1  0
 11 10  2  0
 11 12  1  0
 12 13  2  0
 13 14  1  0
 15 19  1  0
 16 15  2  0
 18 17  1  6
 18 20  1  0
 19 18  1  0
 20 21  1  0
 22 20  2  0
M  END
$$$$
