AFA.pdb
     RDKit          3D

 22 22  0  0  1  0  0  0  0  0999 V2000
   26.7328  -22.7264  -18.2627 C   0  0  0  0  0  0  0  0  0  0  0  0
   27.7088  -22.9204  -17.0961 C   0  0  2  0  0  0  0  0  0  0  0  0
   28.3464  -24.1815  -17.2672 N   0  0  0  0  0  0  0  0  0  0  0  0
   26.8985  -22.8279  -15.8605 C   0  0  0  0  0  0  0  0  0  0  0  0
   26.2410  -23.8378  -15.5011 O   0  0  0  0  0  0  0  0  0  0  0  0
   26.8195  -21.6696  -15.0589 N   0  0  0  0  0  0  0  0  0  0  0  0
   26.1047  -21.5647  -13.8257 C   0  0  1  0  0  0  0  0  0  0  0  0
   26.7296  -20.5595  -12.8768 C   0  0  0  0  0  0  0  0  0  0  0  0
   26.0132  -20.5739  -11.5632 C   0  0  0  0  0  0  0  0  0  0  0  0
   26.4792  -21.3507  -10.5193 C   0  0  0  0  0  0  0  0  0  0  0  0
   25.8557  -21.3955   -9.2980 C   0  0  0  0  0  0  0  0  0  0  0  0
   24.7170  -20.6503   -9.0645 C   0  0  0  0  0  0  0  0  0  0  0  0
   24.2349  -19.8596  -10.1131 C   0  0  0  0  0  0  0  0  0  0  0  0
   24.8755  -19.8273  -11.3347 C   0  0  0  0  0  0  0  0  0  0  0  0
   24.7242  -21.0912  -14.1024 C   0  0  0  0  0  0  0  0  0  0  0  0
   24.5434  -19.9965  -14.7298 O   0  0  0  0  0  0  0  0  0  0  0  0
   21.4969  -22.6226  -14.5769 C   0  0  0  0  0  0  0  0  0  0  0  0
   22.2224  -21.4274  -13.9462 C   0  0  2  0  0  0  0  0  0  0  0  0
   23.5845  -21.8405  -13.6783 N   0  0  0  0  0  0  0  0  0  0  0  0
   21.5690  -21.0517  -12.6668 C   0  0  0  0  0  0  0  0  0  0  0  0
   20.4548  -20.2246  -12.6344 O   0  0  0  0  0  0  0  0  0  0  0  0
   22.0080  -21.4725  -11.5840 O   0  0  0  0  0  0  0  0  0  0  0  0
  2  1  1  6
  2  3  1  0
  4  6  1  0
  4  2  1  0
  5  4  2  0
  7  6  1  0
  7 15  1  0
  7  8  1  1
  9  8  1  0
  9 14  2  0
 10  9  1  0
 11 10  2  0
 11 12  1  0
 12 13  2  0
 13 14  1  0
 15 19  1  0
 16 15  2  0
 18 17  1  1
 18 20  1  0
 19 18  1  0
 20 21  1  0
 22 20  2  0
M  END
$$$$
