AFA.pdb
     RDKit          3D

 22 22  0  0  1  0  0  0  0  0999 V2000
   16.6731  -12.7478  -20.0378 C   0  0  0  0  0  0  0  0  0  0  0  0
   17.1325  -12.8592  -18.5791 C   0  0  2  0  0  0  0  0  0  0  0  0
   16.0299  -12.5131  -17.7479 N   0  0  0  0  0  0  0  0  0  0  0  0
   18.2899  -11.9467  -18.4402 C   0  0  0  0  0  0  0  0  0  0  0  0
   19.3468  -12.2245  -19.0623 O   0  0  0  0  0  0  0  0  0  0  0  0
   18.2780  -10.7791  -17.6482 N   0  0  0  0  0  0  0  0  0  0  0  0
   19.3238   -9.8064  -17.5935 C   0  0  1  0  0  0  0  0  0  0  0  0
   18.8653   -8.4354  -18.0536 C   0  0  0  0  0  0  0  0  0  0  0  0
   19.0430   -8.3004  -19.5331 C   0  0  0  0  0  0  0  0  0  0  0  0
   20.2686   -7.9418  -20.0620 C   0  0  0  0  0  0  0  0  0  0  0  0
   20.4783   -7.8061  -21.4110 C   0  0  0  0  0  0  0  0  0  0  0  0
   19.4506   -8.0276  -22.3059 C   0  0  0  0  0  0  0  0  0  0  0  0
   18.2047   -8.3911  -21.7836 C   0  0  0  0  0  0  0  0  0  0  0  0
   18.0127   -8.5228  -20.4236 C   0  0  0  0  0  0  0  0  0  0  0  0
   19.7757   -9.6568  -16.1865 C   0  0  0  0  0  0  0  0  0  0  0  0
   18.9223   -9.4301  -15.2673 O   0  0  0  0  0  0  0  0  0  0  0  0
   23.0999  -10.0699  -14.4557 C   0  0  0  0  0  0  0  0  0  0  0  0
   21.6447   -9.5858  -14.4841 C   0  0  2  0  0  0  0  0  0  0  0  0
   21.1565   -9.7620  -15.8361 N   0  0  0  0  0  0  0  0  0  0  0  0
   21.5796   -8.1455  -14.1286 C   0  0  0  0  0  0  0  0  0  0  0  0
   21.4461   -7.7264  -12.8122 O   0  0  0  0  0  0  0  0  0  0  0  0
   21.6437   -7.2724  -15.0094 O   0  0  0  0  0  0  0  0  0  0  0  0
  2  1  1  6
  2  3  1  0
  4  6  1  0
  4  2  1  0
  5  4  2  0
  7  6  1  0
  7 15  1  0
  7  8  1  1
  9  8  1  0
  9 14  2  0
 10  9  1  0
 11 10  2  0
 11 12  1  0
 12 13  2  0
 13 14  1  0
 15 19  1  0
 16 15  2  0
 18 17  1  6
 18 20  1  0
 19 18  1  0
 20 21  1  0
 22 20  2  0
M  END
$$$$
