AFA.pdb
     RDKit          3D

 22 22  0  0  1  0  0  0  0  0999 V2000
   24.0326  -10.5871  -21.6104 C   0  0  0  0  0  0  0  0  0  0  0  0
   24.9590   -9.7131  -20.7564 C   0  0  2  0  0  0  0  0  0  0  0  0
   26.2079  -10.3862  -20.6408 N   0  0  0  0  0  0  0  0  0  0  0  0
   24.2667   -9.5202  -19.4621 C   0  0  0  0  0  0  0  0  0  0  0  0
   23.7209  -10.5166  -18.9230 O   0  0  0  0  0  0  0  0  0  0  0  0
   24.1823   -8.2801  -18.7946 N   0  0  0  0  0  0  0  0  0  0  0  0
   23.5827   -8.0692  -17.5144 C   0  0  1  0  0  0  0  0  0  0  0  0
   24.5653   -7.5207  -16.4970 C   0  0  0  0  0  0  0  0  0  0  0  0
   25.5995   -8.5511  -16.1695 C   0  0  0  0  0  0  0  0  0  0  0  0
   25.3527   -9.5101  -15.2051 C   0  0  0  0  0  0  0  0  0  0  0  0
   26.2703  -10.4739  -14.8717 C   0  0  0  0  0  0  0  0  0  0  0  0
   27.4982  -10.5204  -15.5013 C   0  0  0  0  0  0  0  0  0  0  0  0
   27.7608   -9.5553  -16.4795 C   0  0  0  0  0  0  0  0  0  0  0  0
   26.8253   -8.5935  -16.8015 C   0  0  0  0  0  0  0  0  0  0  0  0
   22.4967   -7.0643  -17.6456 C   0  0  0  0  0  0  0  0  0  0  0  0
   22.6789   -6.0236  -18.3586 O   0  0  0  0  0  0  0  0  0  0  0  0
   18.8696   -6.9874  -16.6918 C   0  0  0  0  0  0  0  0  0  0  0  0
   20.1734   -6.2627  -17.0487 C   0  0  2  0  0  0  0  0  0  0  0  0
   21.2419   -7.2384  -16.9858 N   0  0  0  0  0  0  0  0  0  0  0  0
   20.4430   -5.1840  -16.0644 C   0  0  0  0  0  0  0  0  0  0  0  0
   19.9194   -3.9082  -16.2215 O   0  0  0  0  0  0  0  0  0  0  0  0
   21.1505   -5.3994  -15.0667 O   0  0  0  0  0  0  0  0  0  0  0  0
  2  1  1  6
  2  3  1  0
  4  6  1  0
  4  2  1  0
  5  4  2  0
  7  6  1  0
  7 15  1  0
  7  8  1  1
  9  8  1  0
  9 14  2  0
 10  9  1  0
 11 10  2  0
 11 12  1  0
 12 13  2  0
 13 14  1  0
 15 19  1  0
 16 15  2  0
 18 17  1  1
 18 20  1  0
 19 18  1  0
 20 21  1  0
 22 20  2  0
M  END
$$$$
