CEM.pdb
     RDKit          3D

 24 23  0  0  1  0  0  0  0  0999 V2000
    7.1798  -15.3089   18.2950 N   0  0  0  0  0  0  0  0  0  0  0  0
    8.3079  -14.7899   19.0344 C   0  0  1  0  0  0  0  0  0  0  0  0
    8.0906  -13.3359   19.4144 C   0  0  0  0  0  0  0  0  0  0  0  0
    8.1164  -12.3656   17.8900 S   0  0  0  0  0  0  0  0  0  0  0  0
    8.4828  -15.6136   20.2606 C   0  0  0  0  0  0  0  0  0  0  0  0
    7.4550  -15.8967   20.9191 O   0  0  0  0  0  0  0  0  0  0  0  0
    9.7783  -16.0647   20.6706 N   0  0  0  0  0  0  0  0  0  0  0  0
    9.9420  -16.8774   21.8961 C   0  0  1  0  0  0  0  0  0  0  0  0
   11.1994  -17.6481   21.7357 C   0  0  0  0  0  0  0  0  0  0  0  0
   11.7081  -18.4058   22.8976 C   0  0  0  0  0  0  0  0  0  0  0  0
   12.9535  -19.1683   22.6664 C   0  0  0  0  0  0  0  0  0  0  0  0
   12.9151  -20.4090   22.5354 O   0  0  0  0  0  0  0  0  0  0  0  0
    9.8607  -15.9789   23.0515 C   0  0  0  0  0  0  0  0  0  0  0  0
   10.4557  -14.8390   22.9985 O   0  0  0  0  0  0  0  0  0  0  0  0
   14.1798  -18.5338   22.5902 O   0  0  0  0  0  0  0  0  0  0  0  0
    6.3292  -11.1805   27.7603 C   0  0  0  0  0  0  0  0  0  0  0  0
    6.3334  -12.4810   26.5146 S   0  0  0  0  0  0  0  0  0  0  0  0
    7.8334  -13.4528   26.5052 C   0  0  0  0  0  0  0  0  0  0  0  0
    7.8633  -14.4659   25.3810 C   0  0  0  0  0  0  0  0  0  0  0  0
    9.1396  -15.2363   25.3375 C   0  0  2  0  0  0  0  0  0  0  0  0
    9.1836  -16.2104   24.2656 N   0  0  0  0  0  0  0  0  0  0  0  0
    9.2978  -15.9365   26.6543 C   0  0  0  0  0  0  0  0  0  0  0  0
    8.9597  -17.1370   26.7468 O   0  0  0  0  0  0  0  0  0  0  0  0
    9.8085  -15.2902   27.7726 O   0  0  0  0  0  0  0  0  0  0  0  0
  2  1  1  1
  2  5  1  0
  3  2  1  0
  4  3  1  0
  5  6  2  0
  7  5  1  0
  7  8  1  0
  8  9  1  6
 10  9  1  0
 10 11  1  0
 11 15  1  0
 11 12  2  0
 13  8  1  0
 13 21  1  0
 14 13  2  0
 16 17  1  0
 18 17  1  0
 19 18  1  0
 20 21  1  0
 20 19  1  1
 22 24  1  0
 22 20  1  0
 23 22  2  0
M  END
$$$$
