CEM.pdb
     RDKit          3D

 24 23  0  0  1  0  0  0  0  0999 V2000
    6.5677  -16.5325   20.5282 N   0  0  0  0  0  0  0  0  0  0  0  0
    7.8781  -15.9405   20.6731 C   0  0  1  0  0  0  0  0  0  0  0  0
    7.8109  -14.4280   20.5562 C   0  0  0  0  0  0  0  0  0  0  0  0
    6.8851  -13.8128   21.9810 S   0  0  0  0  0  0  0  0  0  0  0  0
    8.4195  -16.3223   22.0049 C   0  0  0  0  0  0  0  0  0  0  0  0
    7.5953  -16.5639   22.9172 O   0  0  0  0  0  0  0  0  0  0  0  0
    9.8304  -16.4099   22.2328 N   0  0  0  0  0  0  0  0  0  0  0  0
   10.3578  -16.9766   23.4938 C   0  0  1  0  0  0  0  0  0  0  0  0
   11.7152  -17.4961   23.1966 C   0  0  0  0  0  0  0  0  0  0  0  0
   12.5214  -18.0262   24.3155 C   0  0  0  0  0  0  0  0  0  0  0  0
   13.8468  -18.5677   23.9464 C   0  0  0  0  0  0  0  0  0  0  0  0
   14.1086  -19.7728   24.1390 O   0  0  0  0  0  0  0  0  0  0  0  0
   10.2573  -15.9466   24.5319 C   0  0  0  0  0  0  0  0  0  0  0  0
   10.5530  -14.7299   24.2344 O   0  0  0  0  0  0  0  0  0  0  0  0
   14.8201  -17.7619   23.3846 O   0  0  0  0  0  0  0  0  0  0  0  0
    6.9025  -11.4399   26.1321 C   0  0  0  0  0  0  0  0  0  0  0  0
    7.1693  -12.0991   27.7865 S   0  0  0  0  0  0  0  0  0  0  0  0
    8.5913  -13.1755   27.9031 C   0  0  0  0  0  0  0  0  0  0  0  0
    8.6422  -14.1955   26.7859 C   0  0  0  0  0  0  0  0  0  0  0  0
    9.8665  -15.0454   26.8412 C   0  0  2  0  0  0  0  0  0  0  0  0
    9.8591  -16.1228   25.8722 N   0  0  0  0  0  0  0  0  0  0  0  0
    9.9649  -15.6187   28.2235 C   0  0  0  0  0  0  0  0  0  0  0  0
    9.7665  -16.8425   28.3876 O   0  0  0  0  0  0  0  0  0  0  0  0
   10.2698  -14.8299   29.3253 O   0  0  0  0  0  0  0  0  0  0  0  0
  2  1  1  1
  2  5  1  0
  3  2  1  0
  4  3  1  0
  5  6  2  0
  7  5  1  0
  7  8  1  0
  8  9  1  6
 10  9  1  0
 10 11  1  0
 11 15  1  0
 11 12  2  0
 13  8  1  0
 13 21  1  0
 14 13  2  0
 16 17  1  0
 18 17  1  0
 19 18  1  0
 20 21  1  0
 20 19  1  1
 22 24  1  0
 22 20  1  0
 23 22  2  0
M  END
$$$$
