CEM.pdb
     RDKit          3D

 24 23  0  0  1  0  0  0  0  0999 V2000
    6.9019  -16.8850   18.8445 N   0  0  0  0  0  0  0  0  0  0  0  0
    7.8499  -15.9761   19.4475 C   0  0  1  0  0  0  0  0  0  0  0  0
    7.1832  -14.6680   19.8349 C   0  0  0  0  0  0  0  0  0  0  0  0
    5.9051  -15.0491   21.0545 S   0  0  0  0  0  0  0  0  0  0  0  0
    8.4226  -16.6301   20.6546 C   0  0  0  0  0  0  0  0  0  0  0  0
    7.6494  -17.3160   21.3630 O   0  0  0  0  0  0  0  0  0  0  0  0
    9.8060  -16.4797   20.9917 N   0  0  0  0  0  0  0  0  0  0  0  0
   10.3587  -17.1096   22.2112 C   0  0  1  0  0  0  0  0  0  0  0  0
   11.7873  -17.3991   21.9352 C   0  0  0  0  0  0  0  0  0  0  0  0
   12.1280  -18.6816   21.2855 C   0  0  0  0  0  0  0  0  0  0  0  0
   13.5702  -18.9226   21.0666 C   0  0  0  0  0  0  0  0  0  0  0  0
   14.1006  -18.6146   19.9795 O   0  0  0  0  0  0  0  0  0  0  0  0
   10.0705  -16.2298   23.3477 C   0  0  0  0  0  0  0  0  0  0  0  0
   10.4470  -15.0002   23.2961 O   0  0  0  0  0  0  0  0  0  0  0  0
   14.3603  -19.4894   22.0498 O   0  0  0  0  0  0  0  0  0  0  0  0
    6.9051  -11.0547   26.0751 C   0  0  0  0  0  0  0  0  0  0  0  0
    6.4160  -12.7535   26.4179 S   0  0  0  0  0  0  0  0  0  0  0  0
    7.8002  -13.8567   26.6652 C   0  0  0  0  0  0  0  0  0  0  0  0
    7.9509  -14.8618   25.5435 C   0  0  0  0  0  0  0  0  0  0  0  0
    9.2232  -15.6346   25.6336 C   0  0  2  0  0  0  0  0  0  0  0  0
    9.4031  -16.5698   24.5414 N   0  0  0  0  0  0  0  0  0  0  0  0
    9.2148  -16.3822   26.9337 C   0  0  0  0  0  0  0  0  0  0  0  0
    9.2418  -17.6323   26.9141 O   0  0  0  0  0  0  0  0  0  0  0  0
    9.1779  -15.7262   28.1574 O   0  0  0  0  0  0  0  0  0  0  0  0
  2  1  1  1
  2  5  1  0
  3  2  1  0
  4  3  1  0
  5  6  2  0
  7  5  1  0
  7  8  1  0
  8  9  1  6
 10  9  1  0
 10 11  1  0
 11 15  1  0
 11 12  2  0
 13  8  1  0
 13 21  1  0
 14 13  2  0
 16 17  1  0
 18 17  1  0
 19 18  1  0
 20 21  1  0
 20 19  1  6
 22 24  1  0
 22 20  1  0
 23 22  2  0
M  END
$$$$
