CEM.pdb
     RDKit          3D

 24 23  0  0  1  0  0  0  0  0999 V2000
    7.3230  -14.3612   18.9061 N   0  0  0  0  0  0  0  0  0  0  0  0
    8.6663  -14.3063   19.4364 C   0  0  1  0  0  0  0  0  0  0  0  0
    8.9500  -12.9551   20.0684 C   0  0  0  0  0  0  0  0  0  0  0  0
    7.7075  -11.7955   19.4540 S   0  0  0  0  0  0  0  0  0  0  0  0
    8.8124  -15.3821   20.4532 C   0  0  0  0  0  0  0  0  0  0  0  0
    7.7719  -15.7843   21.0239 O   0  0  0  0  0  0  0  0  0  0  0  0
   10.0953  -15.9356   20.7659 N   0  0  0  0  0  0  0  0  0  0  0  0
   10.2230  -17.0432   21.7386 C   0  0  1  0  0  0  0  0  0  0  0  0
   11.3634  -17.8794   21.2901 C   0  0  0  0  0  0  0  0  0  0  0  0
   11.8131  -18.9783   22.1694 C   0  0  0  0  0  0  0  0  0  0  0  0
   12.9244  -19.8007   21.6454 C   0  0  0  0  0  0  0  0  0  0  0  0
   14.1024  -19.3998   21.7427 O   0  0  0  0  0  0  0  0  0  0  0  0
   10.3184  -16.4609   23.0805 C   0  0  0  0  0  0  0  0  0  0  0  0
   11.0487  -15.4160   23.2568 O   0  0  0  0  0  0  0  0  0  0  0  0
   12.6901  -21.0219   21.0405 O   0  0  0  0  0  0  0  0  0  0  0  0
    9.9393  -13.0016   29.1687 C   0  0  0  0  0  0  0  0  0  0  0  0
    9.7263  -13.7483   27.5439 S   0  0  0  0  0  0  0  0  0  0  0  0
    8.8302  -15.2942   27.5829 C   0  0  0  0  0  0  0  0  0  0  0  0
    8.6107  -15.8745   26.2023 C   0  0  0  0  0  0  0  0  0  0  0  0
    9.8839  -16.2902   25.5461 C   0  0  2  0  0  0  0  0  0  0  0  0
    9.6842  -16.9152   24.2541 N   0  0  0  0  0  0  0  0  0  0  0  0
   10.5796  -17.2518   26.4629 C   0  0  0  0  0  0  0  0  0  0  0  0
   11.2425  -16.8019   27.4232 O   0  0  0  0  0  0  0  0  0  0  0  0
   10.5087  -18.6263   26.2759 O   0  0  0  0  0  0  0  0  0  0  0  0
  2  1  1  1
  2  5  1  0
  3  2  1  0
  4  3  1  0
  5  6  2  0
  7  5  1  0
  7  8  1  0
  8  9  1  6
 10  9  1  0
 10 11  1  0
 11 15  1  0
 11 12  2  0
 13  8  1  0
 13 21  1  0
 14 13  2  0
 16 17  1  0
 18 17  1  0
 19 18  1  0
 20 21  1  0
 20 19  1  1
 22 24  1  0
 22 20  1  0
 23 22  2  0
M  END
$$$$
