CEM.pdb
     RDKit          3D

 24 23  0  0  1  0  0  0  0  0999 V2000
    8.0994  -14.4862   17.3360 N   0  0  0  0  0  0  0  0  0  0  0  0
    9.0086  -14.3257   18.4478 C   0  0  1  0  0  0  0  0  0  0  0  0
    9.0143  -12.8917   18.9472 C   0  0  0  0  0  0  0  0  0  0  0  0
    7.4676  -12.6211   19.8419 S   0  0  0  0  0  0  0  0  0  0  0  0
    8.5794  -15.2408   19.5392 C   0  0  0  0  0  0  0  0  0  0  0  0
    7.3819  -15.6097   19.5479 O   0  0  0  0  0  0  0  0  0  0  0  0
    9.5024  -15.6820   20.5409 N   0  0  0  0  0  0  0  0  0  0  0  0
    9.1106  -16.7131   21.5270 C   0  0  1  0  0  0  0  0  0  0  0  0
    9.9623  -17.9000   21.2689 C   0  0  0  0  0  0  0  0  0  0  0  0
   11.4252  -17.7569   21.4191 C   0  0  0  0  0  0  0  0  0  0  0  0
   12.2196  -18.9645   21.1090 C   0  0  0  0  0  0  0  0  0  0  0  0
   12.4392  -19.8164   21.9945 O   0  0  0  0  0  0  0  0  0  0  0  0
    9.1942  -16.1183   22.8642 C   0  0  0  0  0  0  0  0  0  0  0  0
   10.1061  -15.2418   23.1013 O   0  0  0  0  0  0  0  0  0  0  0  0
   12.7345  -19.1794   19.8437 O   0  0  0  0  0  0  0  0  0  0  0  0
    7.1118  -10.7896   27.0755 C   0  0  0  0  0  0  0  0  0  0  0  0
    6.5722  -12.4304   26.5660 S   0  0  0  0  0  0  0  0  0  0  0  0
    7.9168  -13.5034   26.0815 C   0  0  0  0  0  0  0  0  0  0  0  0
    7.4432  -14.8822   25.6743 C   0  0  0  0  0  0  0  0  0  0  0  0
    8.5654  -15.7773   25.2695 C   0  0  2  0  0  0  0  0  0  0  0  0
    8.3676  -16.3919   23.9723 N   0  0  0  0  0  0  0  0  0  0  0  0
    8.6984  -16.8466   26.3127 C   0  0  0  0  0  0  0  0  0  0  0  0
    8.2408  -17.9859   26.0746 O   0  0  0  0  0  0  0  0  0  0  0  0
    9.3146  -16.6077   27.5344 O   0  0  0  0  0  0  0  0  0  0  0  0
  2  1  1  6
  2  5  1  0
  3  2  1  0
  4  3  1  0
  5  6  2  0
  7  5  1  0
  7  8  1  0
  8  9  1  1
 10  9  1  0
 10 11  1  0
 11 15  1  0
 11 12  2  0
 13  8  1  0
 13 21  1  0
 14 13  2  0
 16 17  1  0
 18 17  1  0
 19 18  1  0
 20 21  1  0
 20 19  1  1
 22 24  1  0
 22 20  1  0
 23 22  2  0
M  END
$$$$
