CEM.pdb
     RDKit          3D

 24 23  0  0  1  0  0  0  0  0999 V2000
    6.5723  -15.6311   20.4526 N   0  0  0  0  0  0  0  0  0  0  0  0
    7.8983  -15.1071   20.6889 C   0  0  1  0  0  0  0  0  0  0  0  0
    7.8375  -13.7554   21.3780 C   0  0  0  0  0  0  0  0  0  0  0  0
    6.8825  -13.9622   22.8982 S   0  0  0  0  0  0  0  0  0  0  0  0
    8.6400  -16.0765   21.5391 C   0  0  0  0  0  0  0  0  0  0  0  0
    7.9659  -16.8424   22.2665 O   0  0  0  0  0  0  0  0  0  0  0  0
   10.0707  -16.1302   21.5245 N   0  0  0  0  0  0  0  0  0  0  0  0
   10.7963  -17.1455   22.3196 C   0  0  1  0  0  0  0  0  0  0  0  0
   12.0993  -17.3676   21.6461 C   0  0  0  0  0  0  0  0  0  0  0  0
   13.0616  -18.2963   22.2741 C   0  0  0  0  0  0  0  0  0  0  0  0
   14.3422  -18.4702   21.5559 C   0  0  0  0  0  0  0  0  0  0  0  0
   15.3597  -17.8497   21.9270 O   0  0  0  0  0  0  0  0  0  0  0  0
   10.8415  -16.6859   23.7109 C   0  0  0  0  0  0  0  0  0  0  0  0
   11.2106  -15.4779   23.9572 O   0  0  0  0  0  0  0  0  0  0  0  0
   14.4448  -19.3154   20.4662 O   0  0  0  0  0  0  0  0  0  0  0  0
   10.2062  -13.2442   29.3951 C   0  0  0  0  0  0  0  0  0  0  0  0
   10.0829  -14.1908   27.8681 S   0  0  0  0  0  0  0  0  0  0  0  0
    9.3466  -15.8043   28.0884 C   0  0  0  0  0  0  0  0  0  0  0  0
    9.2534  -16.5831   26.7938 C   0  0  0  0  0  0  0  0  0  0  0  0
   10.5911  -16.8716   26.2008 C   0  0  2  0  0  0  0  0  0  0  0  0
   10.5168  -17.4272   24.8646 N   0  0  0  0  0  0  0  0  0  0  0  0
   11.2943  -17.8397   27.1050 C   0  0  0  0  0  0  0  0  0  0  0  0
   11.2083  -19.0643   26.8659 O   0  0  0  0  0  0  0  0  0  0  0  0
   12.0377  -17.4154   28.1988 O   0  0  0  0  0  0  0  0  0  0  0  0
  2  1  1  1
  2  5  1  0
  3  2  1  0
  4  3  1  0
  5  6  2  0
  7  5  1  0
  7  8  1  0
  8  9  1  6
 10  9  1  0
 10 11  1  0
 11 15  1  0
 11 12  2  0
 13  8  1  0
 13 21  1  0
 14 13  2  0
 16 17  1  0
 18 17  1  0
 19 18  1  0
 20 21  1  0
 20 19  1  1
 22 24  1  0
 22 20  1  0
 23 22  2  0
M  END
$$$$
