CEM.pdb
     RDKit          3D

 24 23  0  0  1  0  0  0  0  0999 V2000
    6.5803  -15.4048   20.1070 N   0  0  0  0  0  0  0  0  0  0  0  0
    7.8974  -15.0185   20.5594 C   0  0  1  0  0  0  0  0  0  0  0  0
    7.9240  -13.5610   20.9845 C   0  0  0  0  0  0  0  0  0  0  0  0
    6.9390  -13.4161   22.4927 S   0  0  0  0  0  0  0  0  0  0  0  0
    8.2719  -15.8880   21.7067 C   0  0  0  0  0  0  0  0  0  0  0  0
    7.3421  -16.4053   22.3686 O   0  0  0  0  0  0  0  0  0  0  0  0
    9.6444  -16.1234   22.0397 N   0  0  0  0  0  0  0  0  0  0  0  0
   10.0070  -17.0384   23.1446 C   0  0  1  0  0  0  0  0  0  0  0  0
   11.1607  -17.8437   22.6741 C   0  0  0  0  0  0  0  0  0  0  0  0
   12.1037  -17.2238   21.7206 C   0  0  0  0  0  0  0  0  0  0  0  0
   13.2029  -18.0949   21.2527 C   0  0  0  0  0  0  0  0  0  0  0  0
   14.0310  -17.6694   20.4213 O   0  0  0  0  0  0  0  0  0  0  0  0
   10.2119  -16.2336   24.3525 C   0  0  0  0  0  0  0  0  0  0  0  0
   11.3677  -15.7088   24.5640 O   0  0  0  0  0  0  0  0  0  0  0  0
   13.3407  -19.3894   21.7190 O   0  0  0  0  0  0  0  0  0  0  0  0
    6.3111  -11.5835   25.9252 C   0  0  0  0  0  0  0  0  0  0  0  0
    6.7879  -13.3082   26.1280 S   0  0  0  0  0  0  0  0  0  0  0  0
    8.1874  -13.5367   27.2158 C   0  0  0  0  0  0  0  0  0  0  0  0
    8.4851  -14.9966   27.4822 C   0  0  0  0  0  0  0  0  0  0  0  0
    9.6389  -15.5014   26.6834 C   0  0  2  0  0  0  0  0  0  0  0  0
    9.2650  -15.9451   25.3556 N   0  0  0  0  0  0  0  0  0  0  0  0
   10.2532  -16.6438   27.4362 C   0  0  0  0  0  0  0  0  0  0  0  0
   11.2309  -16.4211   28.1836 O   0  0  0  0  0  0  0  0  0  0  0  0
    9.7677  -17.9405   27.3271 O   0  0  0  0  0  0  0  0  0  0  0  0
  2  1  1  1
  2  5  1  0
  3  2  1  0
  4  3  1  0
  5  6  2  0
  7  5  1  0
  7  8  1  0
  8  9  1  6
 10  9  1  0
 10 11  1  0
 11 15  1  0
 11 12  2  0
 13  8  1  0
 13 21  1  0
 14 13  2  0
 16 17  1  0
 18 17  1  0
 19 18  1  0
 20 21  1  0
 20 19  1  1
 22 24  1  0
 22 20  1  0
 23 22  2  0
M  END
$$$$
