CEM.pdb
     RDKit          3D

 24 23  0  0  1  0  0  0  0  0999 V2000
    7.2065  -14.8626   18.4553 N   0  0  0  0  0  0  0  0  0  0  0  0
    8.3330  -14.4094   19.2389 C   0  0  1  0  0  0  0  0  0  0  0  0
    8.1328  -12.9792   19.7083 C   0  0  0  0  0  0  0  0  0  0  0  0
    8.6246  -11.8884   18.3541 S   0  0  0  0  0  0  0  0  0  0  0  0
    8.4805  -15.3120   20.4121 C   0  0  0  0  0  0  0  0  0  0  0  0
    7.4320  -15.7267   20.9587 O   0  0  0  0  0  0  0  0  0  0  0  0
    9.7735  -15.6910   20.8963 N   0  0  0  0  0  0  0  0  0  0  0  0
    9.9100  -16.6608   22.0054 C   0  0  1  0  0  0  0  0  0  0  0  0
   11.2093  -17.3510   21.8150 C   0  0  0  0  0  0  0  0  0  0  0  0
   11.1946  -18.7515   21.3446 C   0  0  0  0  0  0  0  0  0  0  0  0
   12.3049  -19.5990   21.8293 C   0  0  0  0  0  0  0  0  0  0  0  0
   13.2025  -19.9678   21.0442 O   0  0  0  0  0  0  0  0  0  0  0  0
    9.7248  -15.9375   23.2669 C   0  0  0  0  0  0  0  0  0  0  0  0
   10.3960  -14.8588   23.4720 O   0  0  0  0  0  0  0  0  0  0  0  0
   12.3770  -20.0009   23.1505 O   0  0  0  0  0  0  0  0  0  0  0  0
    5.7010  -11.6768   25.9857 C   0  0  0  0  0  0  0  0  0  0  0  0
    7.2355  -12.4175   26.5686 S   0  0  0  0  0  0  0  0  0  0  0  0
    7.0905  -14.1610   26.9339 C   0  0  0  0  0  0  0  0  0  0  0  0
    7.2669  -15.0293   25.7068 C   0  0  0  0  0  0  0  0  0  0  0  0
    8.6842  -15.4431   25.4962 C   0  0  2  0  0  0  0  0  0  0  0  0
    8.8675  -16.2840   24.3304 N   0  0  0  0  0  0  0  0  0  0  0  0
    9.1324  -16.1840   26.7208 C   0  0  0  0  0  0  0  0  0  0  0  0
    9.2307  -17.4298   26.6732 O   0  0  0  0  0  0  0  0  0  0  0  0
    9.4410  -15.5265   27.9047 O   0  0  0  0  0  0  0  0  0  0  0  0
  2  1  1  1
  2  5  1  0
  3  2  1  0
  4  3  1  0
  5  6  2  0
  7  5  1  0
  7  8  1  0
  8  9  1  1
 10  9  1  0
 10 11  1  0
 11 15  1  0
 11 12  2  0
 13  8  1  0
 13 21  1  0
 14 13  2  0
 16 17  1  0
 18 17  1  0
 19 18  1  0
 20 21  1  0
 20 19  1  1
 22 24  1  0
 22 20  1  0
 23 22  2  0
M  END
$$$$
