CEM.pdb
     RDKit          3D

 24 23  0  0  1  0  0  0  0  0999 V2000
    7.4841  -15.0614   18.0897 N   0  0  0  0  0  0  0  0  0  0  0  0
    8.3761  -14.4943   19.0753 C   0  0  1  0  0  0  0  0  0  0  0  0
    7.8709  -13.1466   19.5592 C   0  0  0  0  0  0  0  0  0  0  0  0
    8.8758  -11.8718   18.7648 S   0  0  0  0  0  0  0  0  0  0  0  0
    8.4717  -15.4403   20.2193 C   0  0  0  0  0  0  0  0  0  0  0  0
    7.4004  -15.8271   20.7416 O   0  0  0  0  0  0  0  0  0  0  0  0
    9.7419  -15.8904   20.7032 N   0  0  0  0  0  0  0  0  0  0  0  0
    9.8291  -16.7713   21.8889 C   0  0  1  0  0  0  0  0  0  0  0  0
   11.0956  -17.5339   21.7651 C   0  0  0  0  0  0  0  0  0  0  0  0
   11.4581  -18.4682   22.8507 C   0  0  0  0  0  0  0  0  0  0  0  0
   12.7456  -19.1750   22.6809 C   0  0  0  0  0  0  0  0  0  0  0  0
   13.6117  -19.1266   23.5784 O   0  0  0  0  0  0  0  0  0  0  0  0
    9.6732  -15.9393   23.0856 C   0  0  0  0  0  0  0  0  0  0  0  0
   10.4236  -14.9034   23.2275 O   0  0  0  0  0  0  0  0  0  0  0  0
   13.0207  -19.8999   21.5359 O   0  0  0  0  0  0  0  0  0  0  0  0
    6.6874  -10.7869   26.8233 C   0  0  0  0  0  0  0  0  0  0  0  0
    6.0308  -12.4356   26.5170 S   0  0  0  0  0  0  0  0  0  0  0  0
    7.2546  -13.7290   26.6702 C   0  0  0  0  0  0  0  0  0  0  0  0
    7.3519  -14.5882   25.4279 C   0  0  0  0  0  0  0  0  0  0  0  0
    8.6862  -15.2387   25.2839 C   0  0  2  0  0  0  0  0  0  0  0  0
    8.7667  -16.1336   24.1470 N   0  0  0  0  0  0  0  0  0  0  0  0
    8.9605  -16.0062   26.5428 C   0  0  0  0  0  0  0  0  0  0  0  0
    9.0129  -17.2547   26.4922 O   0  0  0  0  0  0  0  0  0  0  0  0
    9.1579  -15.3705   27.7619 O   0  0  0  0  0  0  0  0  0  0  0  0
  2  1  1  6
  2  5  1  0
  3  2  1  0
  4  3  1  0
  5  6  2  0
  7  5  1  0
  7  8  1  0
  8  9  1  1
 10  9  1  0
 10 11  1  0
 11 15  1  0
 11 12  2  0
 13  8  1  0
 13 21  1  0
 14 13  2  0
 16 17  1  0
 18 17  1  0
 19 18  1  0
 20 21  1  0
 20 19  1  1
 22 24  1  0
 22 20  1  0
 23 22  2  0
M  END
$$$$
