CEM.pdb
     RDKit          3D

 24 23  0  0  1  0  0  0  0  0999 V2000
    7.1022  -15.5923   18.9291 N   0  0  0  0  0  0  0  0  0  0  0  0
    8.1961  -14.9314   19.6038 C   0  0  1  0  0  0  0  0  0  0  0  0
    7.8068  -13.5273   20.0311 C   0  0  0  0  0  0  0  0  0  0  0  0
    8.2149  -12.4114   18.6694 S   0  0  0  0  0  0  0  0  0  0  0  0
    8.5672  -15.7395   20.7962 C   0  0  0  0  0  0  0  0  0  0  0  0
    7.6376  -16.1511   21.5287 O   0  0  0  0  0  0  0  0  0  0  0  0
    9.9364  -16.0346   21.0932 N   0  0  0  0  0  0  0  0  0  0  0  0
   10.2899  -16.9147   22.2289 C   0  0  1  0  0  0  0  0  0  0  0  0
   11.6242  -17.4893   21.9280 C   0  0  0  0  0  0  0  0  0  0  0  0
   12.3245  -18.2288   22.9983 C   0  0  0  0  0  0  0  0  0  0  0  0
   13.6804  -18.7106   22.6589 C   0  0  0  0  0  0  0  0  0  0  0  0
   14.2898  -19.4718   23.4381 O   0  0  0  0  0  0  0  0  0  0  0  0
   10.1702  -16.1337   23.4636 C   0  0  0  0  0  0  0  0  0  0  0  0
   10.5813  -14.9142   23.4728 O   0  0  0  0  0  0  0  0  0  0  0  0
   14.3020  -18.3346   21.4822 O   0  0  0  0  0  0  0  0  0  0  0  0
    6.7903  -11.3596   27.6298 C   0  0  0  0  0  0  0  0  0  0  0  0
    7.1243  -12.4602   26.2441 S   0  0  0  0  0  0  0  0  0  0  0  0
    7.5747  -14.1162   26.7430 C   0  0  0  0  0  0  0  0  0  0  0  0
    7.9666  -14.9907   25.5713 C   0  0  0  0  0  0  0  0  0  0  0  0
    9.2925  -15.6459   25.7634 C   0  0  2  0  0  0  0  0  0  0  0  0
    9.6376  -16.5628   24.6957 N   0  0  0  0  0  0  0  0  0  0  0  0
    9.2525  -16.3891   27.0654 C   0  0  0  0  0  0  0  0  0  0  0  0
    8.9502  -15.7686   28.1084 O   0  0  0  0  0  0  0  0  0  0  0  0
    9.5413  -17.7453   27.1457 O   0  0  0  0  0  0  0  0  0  0  0  0
  2  1  1  1
  2  5  1  0
  3  2  1  0
  4  3  1  0
  5  6  2  0
  7  5  1  0
  7  8  1  0
  8  9  1  6
 10  9  1  0
 10 11  1  0
 11 15  1  0
 11 12  2  0
 13  8  1  0
 13 21  1  0
 14 13  2  0
 16 17  1  0
 18 17  1  0
 19 18  1  0
 20 21  1  0
 20 19  1  6
 22 24  1  0
 22 20  1  0
 23 22  2  0
M  END
$$$$
