CEM.pdb
     RDKit          3D

 24 23  0  0  1  0  0  0  0  0999 V2000
    5.1706  -14.4083   25.4667 N   0  0  0  0  0  0  0  0  0  0  0  0
    6.3615  -13.9134   24.8145 C   0  0  1  0  0  0  0  0  0  0  0  0
    7.0077  -12.8035   25.6246 C   0  0  0  0  0  0  0  0  0  0  0  0
    5.8530  -11.4138   25.6614 S   0  0  0  0  0  0  0  0  0  0  0  0
    7.3133  -15.0455   24.6562 C   0  0  0  0  0  0  0  0  0  0  0  0
    7.3953  -15.8686   25.5975 O   0  0  0  0  0  0  0  0  0  0  0  0
    8.1046  -15.1870   23.4714 N   0  0  0  0  0  0  0  0  0  0  0  0
    9.0612  -16.3071   23.3316 C   0  0  1  0  0  0  0  0  0  0  0  0
    9.6191  -16.2267   21.9593 C   0  0  0  0  0  0  0  0  0  0  0  0
   10.6812  -17.1809   21.5794 C   0  0  0  0  0  0  0  0  0  0  0  0
   11.2508  -16.9966   20.2276 C   0  0  0  0  0  0  0  0  0  0  0  0
   12.4842  -17.0701   20.0503 O   0  0  0  0  0  0  0  0  0  0  0  0
   10.0180  -16.2285   24.4394 C   0  0  0  0  0  0  0  0  0  0  0  0
   10.7327  -15.1666   24.5724 O   0  0  0  0  0  0  0  0  0  0  0  0
   10.4409  -16.7406   19.1363 O   0  0  0  0  0  0  0  0  0  0  0  0
   11.0516  -13.3698   28.5545 C   0  0  0  0  0  0  0  0  0  0  0  0
   11.1300  -14.7864   29.6636 S   0  0  0  0  0  0  0  0  0  0  0  0
   11.6132  -16.3021   28.8492 C   0  0  0  0  0  0  0  0  0  0  0  0
   10.6070  -16.7514   27.8114 C   0  0  0  0  0  0  0  0  0  0  0  0
   11.2337  -17.0235   26.4857 C   0  0  2  0  0  0  0  0  0  0  0  0
   10.2663  -17.2071   25.4225 N   0  0  0  0  0  0  0  0  0  0  0  0
   12.0692  -18.2619   26.6188 C   0  0  0  0  0  0  0  0  0  0  0  0
   12.7686  -18.4136   27.6445 O   0  0  0  0  0  0  0  0  0  0  0  0
   12.0882  -19.2437   25.6366 O   0  0  0  0  0  0  0  0  0  0  0  0
  2  1  1  1
  2  5  1  0
  3  2  1  0
  4  3  1  0
  5  6  2  0
  7  5  1  0
  7  8  1  0
  8  9  1  6
 10  9  1  0
 10 11  1  0
 11 15  1  0
 11 12  2  0
 13  8  1  0
 13 21  1  0
 14 13  2  0
 16 17  1  0
 18 17  1  0
 19 18  1  0
 20 21  1  0
 20 19  1  1
 22 24  1  0
 22 20  1  0
 23 22  2  0
M  END
$$$$
