QWF.pdb
     RDKit          3D

 35 37  0  0  1  0  0  0  0  0999 V2000
   27.6719  -17.0273  -15.0725 N   0  0  0  0  0  0  0  0  0  0  0  0
   27.9708  -17.6975  -16.3028 C   0  0  0  0  0  0  0  0  0  0  0  0
   28.5562  -17.0258  -17.1949 O   0  0  0  0  0  0  0  0  0  0  0  0
   27.5817  -19.1139  -16.4443 C   0  0  0  0  0  0  0  0  0  0  0  0
   26.9611  -19.7282  -15.2541 C   0  0  0  0  0  0  0  0  0  0  0  0
   27.7099  -20.7530  -14.4971 C   0  0  2  0  0  0  0  0  0  0  0  0
   28.2594  -21.8141  -15.3151 N   0  0  0  0  0  0  0  0  0  0  0  0
   27.0740  -21.2584  -13.2578 C   0  0  0  0  0  0  0  0  0  0  0  0
   26.0814  -22.0231  -13.2313 O   0  0  0  0  0  0  0  0  0  0  0  0
   27.6097  -20.8688  -12.0028 N   0  0  0  0  0  0  0  0  0  0  0  0
   26.9334  -21.0926  -10.7494 C   0  0  1  0  0  0  0  0  0  0  0  0
   27.8594  -20.7331   -9.6342 C   0  0  0  0  0  0  0  0  0  0  0  0
   27.2434  -20.8154   -8.2770 C   0  0  0  0  0  0  0  0  0  0  0  0
   26.0418  -21.3279   -7.9007 C   0  0  0  0  0  0  0  0  0  0  0  0
   25.8933  -21.2090   -6.5720 N   0  0  0  0  0  0  0  0  0  0  0  0
   27.0061  -20.6110   -6.0499 C   0  0  0  0  0  0  0  0  0  0  0  0
   27.3338  -20.2604   -4.7573 C   0  0  0  0  0  0  0  0  0  0  0  0
   28.5628  -19.6363   -4.5318 C   0  0  0  0  0  0  0  0  0  0  0  0
   29.3837  -19.4031   -5.6115 C   0  0  0  0  0  0  0  0  0  0  0  0
   29.0509  -19.7586   -6.9179 C   0  0  0  0  0  0  0  0  0  0  0  0
   27.8488  -20.3650   -7.1096 C   0  0  0  0  0  0  0  0  0  0  0  0
   25.6328  -20.3635  -10.6367 C   0  0  0  0  0  0  0  0  0  0  0  0
   25.6729  -19.1414  -10.3517 O   0  0  0  0  0  0  0  0  0  0  0  0
   24.3650  -20.9716  -10.8340 N   0  0  0  0  0  0  0  0  0  0  0  0
   23.0949  -20.2422  -10.7788 C   0  0  1  0  0  0  0  0  0  0  0  0
   23.1076  -19.0793  -11.7094 C   0  0  0  0  0  0  0  0  0  0  0  0
   23.1892  -19.4754  -13.1153 C   0  0  0  0  0  0  0  0  0  0  0  0
   24.2389  -19.1335  -13.9351 C   0  0  0  0  0  0  0  0  0  0  0  0
   24.3388  -19.5133  -15.2457 C   0  0  0  0  0  0  0  0  0  0  0  0
   23.3157  -20.3006  -15.8023 C   0  0  0  0  0  0  0  0  0  0  0  0
   22.2674  -20.6518  -15.0115 C   0  0  0  0  0  0  0  0  0  0  0  0
   22.2047  -20.2447  -13.6866 C   0  0  0  0  0  0  0  0  0  0  0  0
   21.9615  -21.1403  -11.0779 C   0  0  0  0  0  0  0  0  0  0  0  0
   22.0538  -22.3480  -11.3911 O   0  0  0  0  0  0  0  0  0  0  0  0
   20.6634  -20.5936  -10.9996 O   0  0  0  0  0  0  0  0  0  0  0  0
  2  1  1  0
  3  2  2  0
  4  2  1  0
  5  4  1  0
  6  5  1  0
  6  7  1  6
  8  9  2  0
  8  6  1  0
 10  8  1  0
 11 10  1  0
 11 12  1  1
 12 13  1  0
 13 14  2  0
 13 21  1  0
 14 15  1  0
 15 16  1  0
 16 17  2  0
 18 17  1  0
 19 18  2  0
 20 19  1  0
 21 20  2  0
 21 16  1  0
 22 11  1  0
 23 22  2  0
 24 22  1  0
 25 26  1  6
 25 24  1  0
 26 27  1  0
 27 32  1  0
 28 27  2  0
 28 29  1  0
 29 30  2  0
 30 31  1  0
 32 31  2  0
 33 35  1  0
 33 25  1  0
 34 33  2  0
M  END
$$$$
