QWF.pdb
     RDKit          3D

 35 37  0  0  1  0  0  0  0  0999 V2000
   27.3589  -25.1649  -15.3710 N   0  0  0  0  0  0  0  0  0  0  0  0
   27.8487  -24.0762  -16.1628 C   0  0  0  0  0  0  0  0  0  0  0  0
   28.8130  -24.3185  -16.9380 O   0  0  0  0  0  0  0  0  0  0  0  0
   27.1996  -22.7582  -16.0240 C   0  0  0  0  0  0  0  0  0  0  0  0
   28.0901  -21.6442  -15.6429 C   0  0  0  0  0  0  0  0  0  0  0  0
   27.6502  -20.6920  -14.6020 C   0  0  2  0  0  0  0  0  0  0  0  0
   28.6307  -19.6798  -14.2685 N   0  0  0  0  0  0  0  0  0  0  0  0
   26.9993  -21.2730  -13.4042 C   0  0  0  0  0  0  0  0  0  0  0  0
   26.0900  -22.1346  -13.4392 O   0  0  0  0  0  0  0  0  0  0  0  0
   27.4201  -20.8450  -12.1182 N   0  0  0  0  0  0  0  0  0  0  0  0
   26.7250  -21.1885  -10.9028 C   0  0  1  0  0  0  0  0  0  0  0  0
   27.6082  -20.8743   -9.7402 C   0  0  0  0  0  0  0  0  0  0  0  0
   26.8755  -20.6405   -8.4610 C   0  0  0  0  0  0  0  0  0  0  0  0
   25.5671  -20.8546   -8.1605 C   0  0  0  0  0  0  0  0  0  0  0  0
   25.3338  -20.5187   -6.8821 N   0  0  0  0  0  0  0  0  0  0  0  0
   26.4968  -20.0748   -6.3174 C   0  0  0  0  0  0  0  0  0  0  0  0
   26.7783  -19.6099   -5.0502 C   0  0  0  0  0  0  0  0  0  0  0  0
   28.0851  -19.2056   -4.7683 C   0  0  0  0  0  0  0  0  0  0  0  0
   29.0249  -19.2919   -5.7700 C   0  0  0  0  0  0  0  0  0  0  0  0
   28.7387  -19.7625   -7.0507 C   0  0  0  0  0  0  0  0  0  0  0  0
   27.4588  -20.1498   -7.2986 C   0  0  0  0  0  0  0  0  0  0  0  0
   25.3917  -20.5243  -10.7718 C   0  0  0  0  0  0  0  0  0  0  0  0
   25.3736  -19.3182  -10.4233 O   0  0  0  0  0  0  0  0  0  0  0  0
   24.1550  -21.1764  -11.0191 N   0  0  0  0  0  0  0  0  0  0  0  0
   22.8511  -20.5148  -10.9167 C   0  0  1  0  0  0  0  0  0  0  0  0
   22.8254  -19.2613  -11.7208 C   0  0  0  0  0  0  0  0  0  0  0  0
   23.0160  -19.4982  -13.1518 C   0  0  0  0  0  0  0  0  0  0  0  0
   22.2522  -20.3815  -13.8780 C   0  0  0  0  0  0  0  0  0  0  0  0
   22.4055  -20.5986  -15.2201 C   0  0  0  0  0  0  0  0  0  0  0  0
   23.3983  -19.8837  -15.9126 C   0  0  0  0  0  0  0  0  0  0  0  0
   24.1661  -19.0043  -15.2164 C   0  0  0  0  0  0  0  0  0  0  0  0
   23.9779  -18.8143  -13.8549 C   0  0  0  0  0  0  0  0  0  0  0  0
   21.7668  -21.4267  -11.3330 C   0  0  0  0  0  0  0  0  0  0  0  0
   20.5418  -21.1899  -11.2403 O   0  0  0  0  0  0  0  0  0  0  0  0
   22.1416  -22.6686  -11.8872 O   0  0  0  0  0  0  0  0  0  0  0  0
  2  1  1  0
  3  2  2  0
  4  2  1  0
  5  4  1  0
  6  5  1  0
  6  7  1  1
  8  9  2  0
  8  6  1  0
 10  8  1  0
 11 10  1  0
 11 12  1  1
 12 13  1  0
 13 14  2  0
 13 21  1  0
 14 15  1  0
 15 16  1  0
 16 17  2  0
 18 17  1  0
 19 18  2  0
 20 19  1  0
 21 20  2  0
 21 16  1  0
 22 11  1  0
 23 22  2  0
 24 22  1  0
 25 26  1  6
 25 24  1  0
 26 27  1  0
 27 32  1  0
 28 27  2  0
 28 29  1  0
 29 30  2  0
 30 31  1  0
 32 31  2  0
 33 35  1  0
 33 25  1  0
 34 33  2  0
M  END
$$$$
