QWF.pdb
     RDKit          3D

 35 37  0  0  1  0  0  0  0  0999 V2000
   29.6779  -18.9352  -18.5227 N   0  0  0  0  0  0  0  0  0  0  0  0
   29.9035  -20.3360  -18.3256 C   0  0  0  0  0  0  0  0  0  0  0  0
   30.4559  -20.9665  -19.2674 O   0  0  0  0  0  0  0  0  0  0  0  0
   29.4827  -20.9430  -17.0481 C   0  0  0  0  0  0  0  0  0  0  0  0
   28.2006  -21.6739  -17.0794 C   0  0  0  0  0  0  0  0  0  0  0  0
   26.9903  -21.0328  -16.5245 C   0  0  2  0  0  0  0  0  0  0  0  0
   26.8544  -19.6298  -16.8564 N   0  0  0  0  0  0  0  0  0  0  0  0
   26.6828  -21.3155  -15.1027 C   0  0  0  0  0  0  0  0  0  0  0  0
   26.5791  -22.4652  -14.6149 O   0  0  0  0  0  0  0  0  0  0  0  0
   26.4936  -20.2276  -14.2114 N   0  0  0  0  0  0  0  0  0  0  0  0
   26.1289  -20.3929  -12.8265 C   0  0  1  0  0  0  0  0  0  0  0  0
   26.9925  -19.5034  -11.9939 C   0  0  0  0  0  0  0  0  0  0  0  0
   27.8941  -20.2320  -11.0534 C   0  0  0  0  0  0  0  0  0  0  0  0
   28.8519  -21.1603  -11.3159 C   0  0  0  0  0  0  0  0  0  0  0  0
   29.4359  -21.5467  -10.1707 N   0  0  0  0  0  0  0  0  0  0  0  0
   28.8654  -20.8711   -9.1282 C   0  0  0  0  0  0  0  0  0  0  0  0
   29.1005  -20.9187   -7.7705 C   0  0  0  0  0  0  0  0  0  0  0  0
   28.3317  -20.1038   -6.9364 C   0  0  0  0  0  0  0  0  0  0  0  0
   27.3786  -19.2954   -7.5126 C   0  0  0  0  0  0  0  0  0  0  0  0
   27.1423  -19.2484   -8.8858 C   0  0  0  0  0  0  0  0  0  0  0  0
   27.9049  -20.0515   -9.6752 C   0  0  0  0  0  0  0  0  0  0  0  0
   24.6775  -20.1507  -12.5604 C   0  0  0  0  0  0  0  0  0  0  0  0
   24.1907  -19.0567  -12.9382 O   0  0  0  0  0  0  0  0  0  0  0  0
   23.8258  -21.0825  -11.9107 N   0  0  0  0  0  0  0  0  0  0  0  0
   22.3999  -20.8483  -11.6651 C   0  0  1  0  0  0  0  0  0  0  0  0
   21.5599  -21.7226  -12.5303 C   0  0  0  0  0  0  0  0  0  0  0  0
   21.6744  -21.3967  -13.9518 C   0  0  0  0  0  0  0  0  0  0  0  0
   22.5213  -22.0571  -14.8107 C   0  0  0  0  0  0  0  0  0  0  0  0
   22.6246  -21.7772  -16.1459 C   0  0  0  0  0  0  0  0  0  0  0  0
   21.8238  -20.7566  -16.6877 C   0  0  0  0  0  0  0  0  0  0  0  0
   20.9782  -20.0895  -15.8586 C   0  0  0  0  0  0  0  0  0  0  0  0
   20.9047  -20.4048  -14.5093 C   0  0  0  0  0  0  0  0  0  0  0  0
   22.0733  -21.0526  -10.2396 C   0  0  0  0  0  0  0  0  0  0  0  0
   22.8653  -21.4672   -9.3643 O   0  0  0  0  0  0  0  0  0  0  0  0
   20.7589  -20.7503   -9.8262 O   0  0  0  0  0  0  0  0  0  0  0  0
  2  1  1  0
  3  2  2  0
  4  2  1  0
  5  4  1  0
  6  5  1  0
  6  7  1  1
  8  9  2  0
  8  6  1  0
 10  8  1  0
 11 10  1  0
 11 12  1  1
 12 13  1  0
 13 14  2  0
 13 21  1  0
 14 15  1  0
 15 16  1  0
 16 17  2  0
 18 17  1  0
 19 18  2  0
 20 19  1  0
 21 20  2  0
 21 16  1  0
 22 11  1  0
 23 22  2  0
 24 22  1  0
 25 26  1  6
 25 24  1  0
 26 27  1  0
 27 32  1  0
 28 27  2  0
 28 29  1  0
 29 30  2  0
 30 31  1  0
 32 31  2  0
 33 35  1  0
 33 25  1  0
 34 33  2  0
M  END
$$$$
