QWF.pdb
     RDKit          3D

 35 37  0  0  1  0  0  0  0  0999 V2000
   26.3805  -24.6766  -16.9510 N   0  0  0  0  0  0  0  0  0  0  0  0
   27.5438  -23.9362  -17.3391 C   0  0  0  0  0  0  0  0  0  0  0  0
   27.9111  -24.0330  -18.5413 O   0  0  0  0  0  0  0  0  0  0  0  0
   28.2273  -23.1160  -16.3205 C   0  0  0  0  0  0  0  0  0  0  0  0
   27.5914  -23.0904  -14.9885 C   0  0  0  0  0  0  0  0  0  0  0  0
   26.8318  -21.8925  -14.5740 C   0  0  2  0  0  0  0  0  0  0  0  0
   27.5306  -20.6419  -14.7853 N   0  0  0  0  0  0  0  0  0  0  0  0
   26.1618  -21.9562  -13.2538 C   0  0  0  0  0  0  0  0  0  0  0  0
   25.6085  -22.9798  -12.7883 O   0  0  0  0  0  0  0  0  0  0  0  0
   26.1357  -20.7939  -12.4400 N   0  0  0  0  0  0  0  0  0  0  0  0
   25.3395  -20.6830  -11.2433 C   0  0  1  0  0  0  0  0  0  0  0  0
   26.0383  -19.7755  -10.2849 C   0  0  0  0  0  0  0  0  0  0  0  0
   27.2331  -20.3828   -9.6279 C   0  0  0  0  0  0  0  0  0  0  0  0
   28.2130  -21.1602  -10.1604 C   0  0  0  0  0  0  0  0  0  0  0  0
   29.1073  -21.4775   -9.2110 N   0  0  0  0  0  0  0  0  0  0  0  0
   28.7250  -20.9075   -8.0288 C   0  0  0  0  0  0  0  0  0  0  0  0
   29.2910  -20.9430   -6.7720 C   0  0  0  0  0  0  0  0  0  0  0  0
   28.6484  -20.2601   -5.7369 C   0  0  0  0  0  0  0  0  0  0  0  0
   27.4829  -19.5871   -6.0245 C   0  0  0  0  0  0  0  0  0  0  0  0
   26.9121  -19.5521   -7.2959 C   0  0  0  0  0  0  0  0  0  0  0  0
   27.5581  -20.2250   -8.2856 C   0  0  0  0  0  0  0  0  0  0  0  0
   23.9377  -20.2310  -11.5012 C   0  0  0  0  0  0  0  0  0  0  0  0
   23.7784  -19.1713  -12.1555 O   0  0  0  0  0  0  0  0  0  0  0  0
   22.7858  -20.9290  -11.0518 N   0  0  0  0  0  0  0  0  0  0  0  0
   21.5504  -21.0482  -11.8315 C   0  0  1  0  0  0  0  0  0  0  0  0
   21.8299  -21.5808  -13.1941 C   0  0  0  0  0  0  0  0  0  0  0  0
   21.8645  -20.5366  -14.2181 C   0  0  0  0  0  0  0  0  0  0  0  0
   20.9799  -19.4844  -14.2520 C   0  0  0  0  0  0  0  0  0  0  0  0
   21.0124  -18.4900  -15.1911 C   0  0  0  0  0  0  0  0  0  0  0  0
   22.0033  -18.5317  -16.1874 C   0  0  0  0  0  0  0  0  0  0  0  0
   22.8898  -19.5621  -16.1747 C   0  0  0  0  0  0  0  0  0  0  0  0
   22.8213  -20.5510  -15.2039 C   0  0  0  0  0  0  0  0  0  0  0  0
   20.5671  -21.8966  -11.1288 C   0  0  0  0  0  0  0  0  0  0  0  0
   20.7887  -23.0396  -10.6709 O   0  0  0  0  0  0  0  0  0  0  0  0
   19.2687  -21.3741  -10.9531 O   0  0  0  0  0  0  0  0  0  0  0  0
  2  1  1  0
  3  2  2  0
  4  2  1  0
  5  4  1  0
  6  5  1  0
  6  7  1  1
  8  9  2  0
  8  6  1  0
 10  8  1  0
 11 10  1  0
 11 12  1  1
 12 13  1  0
 13 14  2  0
 13 21  1  0
 14 15  1  0
 15 16  1  0
 16 17  2  0
 18 17  1  0
 19 18  2  0
 20 19  1  0
 21 20  2  0
 21 16  1  0
 22 11  1  0
 23 22  2  0
 24 22  1  0
 25 26  1  6
 25 24  1  0
 26 27  1  0
 27 32  1  0
 28 27  2  0
 28 29  1  0
 29 30  2  0
 30 31  1  0
 32 31  2  0
 33 35  1  0
 33 25  1  0
 34 33  2  0
M  END
$$$$
