QWF.pdb
     RDKit          3D

 35 37  0  0  1  0  0  0  0  0999 V2000
   29.6679  -31.7024  -21.1608 N   0  0  0  0  0  0  0  0  0  0  0  0
   29.9558  -33.1038  -21.2318 C   0  0  0  0  0  0  0  0  0  0  0  0
   29.1233  -33.8885  -20.7018 O   0  0  0  0  0  0  0  0  0  0  0  0
   31.1912  -33.5341  -21.9146 C   0  0  0  0  0  0  0  0  0  0  0  0
   32.1464  -34.2968  -21.0869 C   0  0  0  0  0  0  0  0  0  0  0  0
   33.1189  -33.5658  -20.2479 C   0  0  2  0  0  0  0  0  0  0  0  0
   34.2458  -33.0236  -20.9780 N   0  0  0  0  0  0  0  0  0  0  0  0
   33.5206  -34.2164  -18.9786 C   0  0  0  0  0  0  0  0  0  0  0  0
   34.5967  -34.8357  -18.8090 O   0  0  0  0  0  0  0  0  0  0  0  0
   32.6469  -34.1431  -17.8627 N   0  0  0  0  0  0  0  0  0  0  0  0
   32.9547  -34.7181  -16.5770 C   0  0  1  0  0  0  0  0  0  0  0  0
   32.7756  -33.6704  -15.5280 C   0  0  0  0  0  0  0  0  0  0  0  0
   31.4912  -32.9166  -15.6293 C   0  0  0  0  0  0  0  0  0  0  0  0
   30.2436  -33.2723  -15.2231 C   0  0  0  0  0  0  0  0  0  0  0  0
   29.3776  -32.2842  -15.4976 N   0  0  0  0  0  0  0  0  0  0  0  0
   30.0496  -31.2539  -16.0939 C   0  0  0  0  0  0  0  0  0  0  0  0
   29.6166  -30.0348  -16.5705 C   0  0  0  0  0  0  0  0  0  0  0  0
   30.5552  -29.1805  -17.1536 C   0  0  0  0  0  0  0  0  0  0  0  0
   31.8642  -29.5996  -17.2227 C   0  0  0  0  0  0  0  0  0  0  0  0
   32.3005  -30.8327  -16.7401 C   0  0  0  0  0  0  0  0  0  0  0  0
   31.3664  -31.6451  -16.1770 C   0  0  0  0  0  0  0  0  0  0  0  0
   32.1568  -35.9442  -16.2672 C   0  0  0  0  0  0  0  0  0  0  0  0
   30.9858  -36.0059  -16.7160 O   0  0  0  0  0  0  0  0  0  0  0  0
   32.6465  -37.0344  -15.5008 N   0  0  0  0  0  0  0  0  0  0  0  0
   31.9038  -38.2804  -15.2904 C   0  0  1  0  0  0  0  0  0  0  0  0
   31.4883  -38.8785  -16.5897 C   0  0  0  0  0  0  0  0  0  0  0  0
   32.5355  -39.6965  -17.2014 C   0  0  0  0  0  0  0  0  0  0  0  0
   32.9045  -40.9312  -16.7213 C   0  0  0  0  0  0  0  0  0  0  0  0
   33.8675  -41.7161  -17.2943 C   0  0  0  0  0  0  0  0  0  0  0  0
   34.5285  -41.2470  -18.4429 C   0  0  0  0  0  0  0  0  0  0  0  0
   34.1809  -40.0292  -18.9367 C   0  0  0  0  0  0  0  0  0  0  0  0
   33.1984  -39.2644  -18.3244 C   0  0  0  0  0  0  0  0  0  0  0  0
   32.7035  -39.2406  -14.5036 C   0  0  0  0  0  0  0  0  0  0  0  0
   33.9040  -39.0959  -14.1824 O   0  0  0  0  0  0  0  0  0  0  0  0
   32.0598  -40.4193  -14.0719 O   0  0  0  0  0  0  0  0  0  0  0  0
  2  1  1  0
  3  2  2  0
  4  2  1  0
  5  4  1  0
  6  5  1  0
  6  7  1  6
  8  9  2  0
  8  6  1  0
 10  8  1  0
 11 10  1  0
 11 12  1  1
 12 13  1  0
 13 14  2  0
 13 21  1  0
 14 15  1  0
 15 16  1  0
 16 17  2  0
 18 17  1  0
 19 18  2  0
 20 19  1  0
 21 20  2  0
 21 16  1  0
 22 11  1  0
 23 22  2  0
 24 22  1  0
 25 26  1  6
 25 24  1  0
 26 27  1  0
 27 32  1  0
 28 27  2  0
 28 29  1  0
 29 30  2  0
 30 31  1  0
 32 31  2  0
 33 35  1  0
 33 25  1  0
 34 33  2  0
M  END
$$$$
