QWF.pdb
     RDKit          3D

 35 37  0  0  1  0  0  0  0  0999 V2000
   28.3266  -15.3641  -15.4737 N   0  0  0  0  0  0  0  0  0  0  0  0
   27.7617  -15.9373  -16.6587 C   0  0  0  0  0  0  0  0  0  0  0  0
   28.2879  -15.6165  -17.7586 O   0  0  0  0  0  0  0  0  0  0  0  0
   26.6163  -16.8570  -16.5177 C   0  0  0  0  0  0  0  0  0  0  0  0
   26.2911  -17.2657  -15.1369 C   0  0  0  0  0  0  0  0  0  0  0  0
   27.0292  -18.3896  -14.5238 C   0  0  2  0  0  0  0  0  0  0  0  0
   27.1983  -19.5354  -15.3930 N   0  0  0  0  0  0  0  0  0  0  0  0
   26.6336  -18.7704  -13.1474 C   0  0  0  0  0  0  0  0  0  0  0  0
   26.2687  -17.9593  -12.2647 O   0  0  0  0  0  0  0  0  0  0  0  0
   26.6561  -20.1412  -12.7808 N   0  0  0  0  0  0  0  0  0  0  0  0
   25.9138  -20.6748  -11.6662 C   0  0  1  0  0  0  0  0  0  0  0  0
   25.2749  -21.9578  -12.0859 C   0  0  0  0  0  0  0  0  0  0  0  0
   24.1530  -21.7935  -13.0567 C   0  0  0  0  0  0  0  0  0  0  0  0
   24.0858  -22.1398  -14.3696 C   0  0  0  0  0  0  0  0  0  0  0  0
   22.8780  -21.8224  -14.8618 N   0  0  0  0  0  0  0  0  0  0  0  0
   22.1258  -21.2576  -13.8700 C   0  0  0  0  0  0  0  0  0  0  0  0
   20.8404  -20.7588  -13.8694 C   0  0  0  0  0  0  0  0  0  0  0  0
   20.3396  -20.2202  -12.6820 C   0  0  0  0  0  0  0  0  0  0  0  0
   21.1550  -20.2148  -11.5734 C   0  0  0  0  0  0  0  0  0  0  0  0
   22.4545  -20.7198  -11.5756 C   0  0  0  0  0  0  0  0  0  0  0  0
   22.9173  -21.2385  -12.7445 C   0  0  0  0  0  0  0  0  0  0  0  0
   26.7394  -20.8532  -10.4322 C   0  0  0  0  0  0  0  0  0  0  0  0
   27.7911  -21.5322  -10.5282 O   0  0  0  0  0  0  0  0  0  0  0  0
   26.4032  -20.3005   -9.1684 N   0  0  0  0  0  0  0  0  0  0  0  0
   27.1636  -20.5531   -7.9411 C   0  0  1  0  0  0  0  0  0  0  0  0
   27.9641  -19.3579   -7.5550 C   0  0  0  0  0  0  0  0  0  0  0  0
   28.6118  -19.5026   -6.2513 C   0  0  0  0  0  0  0  0  0  0  0  0
   28.0826  -18.9984   -5.0865 C   0  0  0  0  0  0  0  0  0  0  0  0
   28.6663  -19.1432   -3.8577 C   0  0  0  0  0  0  0  0  0  0  0  0
   29.8796  -19.8470   -3.7631 C   0  0  0  0  0  0  0  0  0  0  0  0
   30.4224  -20.3554   -4.9008 C   0  0  0  0  0  0  0  0  0  0  0  0
   29.7976  -20.1853   -6.1280 C   0  0  0  0  0  0  0  0  0  0  0  0
   26.2648  -20.9591   -6.8421 C   0  0  0  0  0  0  0  0  0  0  0  0
   25.0245  -20.7970   -6.8195 O   0  0  0  0  0  0  0  0  0  0  0  0
   26.8516  -21.5879   -5.7239 O   0  0  0  0  0  0  0  0  0  0  0  0
  2  1  1  0
  3  2  2  0
  4  2  1  0
  5  4  1  0
  6  5  1  0
  6  7  1  6
  8  9  2  0
  8  6  1  0
 10  8  1  0
 11 10  1  0
 11 12  1  6
 12 13  1  0
 13 14  2  0
 13 21  1  0
 14 15  1  0
 15 16  1  0
 16 17  2  0
 18 17  1  0
 19 18  2  0
 20 19  1  0
 21 20  2  0
 21 16  1  0
 22 11  1  0
 23 22  2  0
 24 22  1  0
 25 26  1  1
 25 24  1  0
 26 27  1  0
 27 32  1  0
 28 27  2  0
 28 29  1  0
 29 30  2  0
 30 31  1  0
 32 31  2  0
 33 35  1  0
 33 25  1  0
 34 33  2  0
M  END
$$$$
