QWF.pdb
     RDKit          3D

 35 37  0  0  1  0  0  0  0  0999 V2000
   30.4810  -20.6776  -16.8699 N   0  0  0  0  0  0  0  0  0  0  0  0
   29.8639  -21.6071  -17.7683 C   0  0  0  0  0  0  0  0  0  0  0  0
   30.3705  -21.7173  -18.9176 O   0  0  0  0  0  0  0  0  0  0  0  0
   28.6914  -22.3686  -17.2961 C   0  0  0  0  0  0  0  0  0  0  0  0
   28.3058  -22.1410  -15.8895 C   0  0  0  0  0  0  0  0  0  0  0  0
   26.9876  -21.5439  -15.5897 C   0  0  2  0  0  0  0  0  0  0  0  0
   26.8536  -20.1612  -15.9986 N   0  0  0  0  0  0  0  0  0  0  0  0
   26.4381  -21.7950  -14.2366 C   0  0  0  0  0  0  0  0  0  0  0  0
   26.4440  -22.9101  -13.6648 O   0  0  0  0  0  0  0  0  0  0  0  0
   25.8655  -20.7145  -13.5165 N   0  0  0  0  0  0  0  0  0  0  0  0
   25.1475  -20.8810  -12.2775 C   0  0  1  0  0  0  0  0  0  0  0  0
   25.8177  -20.0646  -11.2216 C   0  0  0  0  0  0  0  0  0  0  0  0
   27.1036  -20.6398  -10.7279 C   0  0  0  0  0  0  0  0  0  0  0  0
   28.0635  -21.3235  -11.4056 C   0  0  0  0  0  0  0  0  0  0  0  0
   29.0655  -21.6456  -10.5724 N   0  0  0  0  0  0  0  0  0  0  0  0
   28.7765  -21.1735   -9.3226 C   0  0  0  0  0  0  0  0  0  0  0  0
   29.4688  -21.2532   -8.1329 C   0  0  0  0  0  0  0  0  0  0  0  0
   28.9002  -20.6749   -6.9958 C   0  0  0  0  0  0  0  0  0  0  0  0
   27.6778  -20.0553   -7.1211 C   0  0  0  0  0  0  0  0  0  0  0  0
   26.9790  -19.9755   -8.3249 C   0  0  0  0  0  0  0  0  0  0  0  0
   27.5551  -20.5464   -9.4166 C   0  0  0  0  0  0  0  0  0  0  0  0
   23.6931  -20.5501  -12.3836 C   0  0  0  0  0  0  0  0  0  0  0  0
   23.3848  -19.4080  -12.8042 O   0  0  0  0  0  0  0  0  0  0  0  0
   22.6498  -21.4492  -12.0390 N   0  0  0  0  0  0  0  0  0  0  0  0
   21.2899  -21.3638  -12.5791 C   0  0  1  0  0  0  0  0  0  0  0  0
   21.2794  -21.6434  -14.0421 C   0  0  0  0  0  0  0  0  0  0  0  0
   21.4515  -20.4386  -14.8538 C   0  0  0  0  0  0  0  0  0  0  0  0
   22.4259  -20.3104  -15.8156 C   0  0  0  0  0  0  0  0  0  0  0  0
   22.5863  -19.1982  -16.5960 C   0  0  0  0  0  0  0  0  0  0  0  0
   21.7106  -18.1131  -16.4165 C   0  0  0  0  0  0  0  0  0  0  0  0
   20.7387  -18.2161  -15.4719 C   0  0  0  0  0  0  0  0  0  0  0  0
   20.6110  -19.3627  -14.7010 C   0  0  0  0  0  0  0  0  0  0  0  0
   20.3831  -22.2834  -11.8634 C   0  0  0  0  0  0  0  0  0  0  0  0
   20.4850  -23.5301  -11.8358 O   0  0  0  0  0  0  0  0  0  0  0  0
   19.3133  -21.7097  -11.1447 O   0  0  0  0  0  0  0  0  0  0  0  0
  2  1  1  0
  3  2  2  0
  4  2  1  0
  5  4  1  0
  6  5  1  0
  6  7  1  1
  8  9  2  0
  8  6  1  0
 10  8  1  0
 11 10  1  0
 11 12  1  1
 12 13  1  0
 13 14  2  0
 13 21  1  0
 14 15  1  0
 15 16  1  0
 16 17  2  0
 18 17  1  0
 19 18  2  0
 20 19  1  0
 21 20  2  0
 21 16  1  0
 22 11  1  0
 23 22  2  0
 24 22  1  0
 25 26  1  6
 25 24  1  0
 26 27  1  0
 27 32  1  0
 28 27  2  0
 28 29  1  0
 29 30  2  0
 30 31  1  0
 32 31  2  0
 33 35  1  0
 33 25  1  0
 34 33  2  0
M  END
$$$$
