QWF.pdb
     RDKit          3D

 35 37  0  0  1  0  0  0  0  0999 V2000
   27.0569  -16.3369  -15.2625 N   0  0  0  0  0  0  0  0  0  0  0  0
   28.0972  -16.9805  -16.0078 C   0  0  0  0  0  0  0  0  0  0  0  0
   28.5911  -16.3399  -16.9750 O   0  0  0  0  0  0  0  0  0  0  0  0
   28.5207  -18.3338  -15.5993 C   0  0  0  0  0  0  0  0  0  0  0  0
   27.7906  -18.9137  -14.4549 C   0  0  0  0  0  0  0  0  0  0  0  0
   28.0946  -20.2961  -14.0302 C   0  0  2  0  0  0  0  0  0  0  0  0
   28.2111  -21.2418  -15.1206 N   0  0  0  0  0  0  0  0  0  0  0  0
   27.3069  -20.8290  -12.8938 C   0  0  0  0  0  0  0  0  0  0  0  0
   26.3491  -21.6290  -13.0085 O   0  0  0  0  0  0  0  0  0  0  0  0
   27.6435  -20.4255  -11.5756 N   0  0  0  0  0  0  0  0  0  0  0  0
   26.8343  -20.7326  -10.4226 C   0  0  1  0  0  0  0  0  0  0  0  0
   27.5268  -20.2231   -9.2014 C   0  0  0  0  0  0  0  0  0  0  0  0
   26.7838  -20.4674   -7.9301 C   0  0  0  0  0  0  0  0  0  0  0  0
   25.5424  -20.9872   -7.7384 C   0  0  0  0  0  0  0  0  0  0  0  0
   25.2712  -21.0433   -6.4250 N   0  0  0  0  0  0  0  0  0  0  0  0
   26.3410  -20.5568   -5.7269 C   0  0  0  0  0  0  0  0  0  0  0  0
   26.5517  -20.3937   -4.3741 C   0  0  0  0  0  0  0  0  0  0  0  0
   27.7656  -19.8451   -3.9544 C   0  0  0  0  0  0  0  0  0  0  0  0
   28.6893  -19.4953   -4.9127 C   0  0  0  0  0  0  0  0  0  0  0  0
   28.4747  -19.6611   -6.2803 C   0  0  0  0  0  0  0  0  0  0  0  0
   27.2847  -20.1975   -6.6618 C   0  0  0  0  0  0  0  0  0  0  0  0
   25.4378  -20.2067  -10.5187 C   0  0  0  0  0  0  0  0  0  0  0  0
   25.2725  -18.9678  -10.3999 O   0  0  0  0  0  0  0  0  0  0  0  0
   24.2976  -21.0242  -10.7366 N   0  0  0  0  0  0  0  0  0  0  0  0
   22.9713  -20.4986  -11.0728 C   0  0  1  0  0  0  0  0  0  0  0  0
   22.4749  -21.0830  -12.3497 C   0  0  0  0  0  0  0  0  0  0  0  0
   22.9463  -20.3578  -13.5296 C   0  0  0  0  0  0  0  0  0  0  0  0
   23.5091  -19.1046  -13.4691 C   0  0  0  0  0  0  0  0  0  0  0  0
   23.9727  -18.4227  -14.5609 C   0  0  0  0  0  0  0  0  0  0  0  0
   23.8753  -19.0255  -15.8272 C   0  0  0  0  0  0  0  0  0  0  0  0
   23.3229  -20.2645  -15.9126 C   0  0  0  0  0  0  0  0  0  0  0  0
   22.8644  -20.9215  -14.7797 C   0  0  0  0  0  0  0  0  0  0  0  0
   22.0152  -20.7485   -9.9756 C   0  0  0  0  0  0  0  0  0  0  0  0
   20.8308  -20.3472   -9.9377 O   0  0  0  0  0  0  0  0  0  0  0  0
   22.4722  -21.5083   -8.8783 O   0  0  0  0  0  0  0  0  0  0  0  0
  2  1  1  0
  3  2  2  0
  4  2  1  0
  5  4  1  0
  6  5  1  0
  6  7  1  6
  8  9  2  0
  8  6  1  0
 10  8  1  0
 11 10  1  0
 11 12  1  1
 12 13  1  0
 13 14  2  0
 13 21  1  0
 14 15  1  0
 15 16  1  0
 16 17  2  0
 18 17  1  0
 19 18  2  0
 20 19  1  0
 21 20  2  0
 21 16  1  0
 22 11  1  0
 23 22  2  0
 24 22  1  0
 25 26  1  6
 25 24  1  0
 26 27  1  0
 27 32  1  0
 28 27  2  0
 28 29  1  0
 29 30  2  0
 30 31  1  0
 32 31  2  0
 33 35  1  0
 33 25  1  0
 34 33  2  0
M  END
$$$$
