REL.pdb
     RDKit          3D

 29 28  0  0  1  0  0  0  0  0999 V2000
   28.3971  -23.2929  -16.2425 N   0  0  0  0  0  0  0  0  0  0  0  0
   28.9517  -24.4522  -16.8378 C   0  0  0  0  0  0  0  0  0  0  0  0
   30.2389  -24.5980  -16.9109 N   0  0  0  0  0  0  0  0  0  0  0  0
   28.1111  -25.4901  -17.3728 N   0  0  0  0  0  0  0  0  0  0  0  0
   26.6749  -25.4075  -17.3021 C   0  0  0  0  0  0  0  0  0  0  0  0
   26.2147  -25.1252  -15.8919 C   0  0  0  0  0  0  0  0  0  0  0  0
   24.7261  -25.0214  -15.8684 C   0  0  0  0  0  0  0  0  0  0  0  0
   24.0503  -26.3753  -15.7669 C   0  0  2  0  0  0  0  0  0  0  0  0
   24.1690  -27.1307  -16.9745 N   0  0  0  0  0  0  0  0  0  0  0  0
   22.6223  -26.1434  -15.3817 C   0  0  0  0  0  0  0  0  0  0  0  0
   21.7810  -25.8718  -16.2756 O   0  0  0  0  0  0  0  0  0  0  0  0
   30.6563  -25.3625  -17.4819 N   0  0  0  0  0  0  0  0  0  0  0  0
   22.1616  -26.2146  -14.0451 C   0  0  2  0  0  0  0  0  0  0  0  0
   20.7922  -25.9033  -13.6649 C   0  0  0  0  0  0  0  0  0  0  0  0
   20.5772  -26.2118  -12.1780 C   0  0  0  0  0  0  0  0  0  0  0  0
   20.5471  -27.6999  -11.9585 C   0  0  0  0  0  0  0  0  0  0  0  0
   20.3557  -27.9665  -10.5179 O   0  0  0  0  0  0  0  0  0  0  0  0
   21.1286  -28.7657   -9.9366 C   0  0  0  0  0  0  0  0  0  0  0  0
   20.5329  -24.4600  -13.8897 O   0  0  0  0  0  0  0  0  0  0  0  0
   21.4795  -23.6510  -13.9343 O   0  0  0  0  0  0  0  0  0  0  0  0
   19.3322  -27.3311   -9.8453 C   0  0  0  0  0  0  0  0  0  0  0  0
   20.6913  -20.3600  -16.2834 C   0  0  2  0  0  0  0  0  0  0  0  0
   19.3722  -21.1602  -16.5363 C   0  0  0  0  0  0  0  0  0  0  0  0
   19.2855  -21.2251  -18.0459 C   0  0  0  0  0  0  0  0  0  0  0  0
   19.5967  -22.4479  -15.8423 C   0  0  1  0  0  0  0  0  0  0  0  0
   18.8817  -22.6695  -14.5819 N   0  0  0  0  0  0  0  0  0  0  0  0
   19.2048  -24.0142  -14.0520 C   0  0  0  0  0  0  0  0  0  0  0  0
   17.4465  -22.5550  -14.5632 O   0  0  0  0  0  0  0  0  0  0  0  0
   16.8042  -21.5166  -14.2635 O   0  0  0  0  0  0  0  0  0  0  0  0
  2  1  1  0
  2  3  2  0
  4  2  1  0
  5  4  1  0
  6  5  1  0
  7  6  1  0
  8  7  1  0
  8  9  1  6
 10  8  1  0
 10 12  1  0
 11 10  2  0
 13 12  1  0
 13 14  1  6
 15 14  1  0
 16 15  1  0
 17 16  2  0
 18 19  2  0
 18 13  1  0
 20 16  1  0
 22 21  1  6
 22 24  1  0
 23 22  1  0
 25 24  1  1
 25 26  1  0
 25 27  1  0
 26 18  1  0
 27 29  1  0
 28 27  2  0
M  END
$$$$
