REL.pdb
     RDKit          3D

 29 28  0  0  1  0  0  0  0  0999 V2000
   28.3348  -19.6437   -5.5382 N   0  0  0  0  0  0  0  0  0  0  0  0
   27.0681  -20.2519   -5.7161 C   0  0  0  0  0  0  0  0  0  0  0  0
   26.4020  -20.6874   -4.6914 N   0  0  0  0  0  0  0  0  0  0  0  0
   26.4908  -20.4021   -7.0253 N   0  0  0  0  0  0  0  0  0  0  0  0
   27.1385  -19.8754   -8.1991 C   0  0  0  0  0  0  0  0  0  0  0  0
   26.4916  -18.5860   -8.6454 C   0  0  0  0  0  0  0  0  0  0  0  0
   26.3794  -18.5776  -10.1335 C   0  0  0  0  0  0  0  0  0  0  0  0
   25.3528  -19.5697  -10.6449 C   0  0  2  0  0  0  0  0  0  0  0  0
   25.4991  -20.8579  -10.0430 N   0  0  0  0  0  0  0  0  0  0  0  0
   25.4756  -19.6238  -12.1360 C   0  0  0  0  0  0  0  0  0  0  0  0
   25.3908  -18.5587  -12.7986 O   0  0  0  0  0  0  0  0  0  0  0  0
   25.4615  -21.1183   -4.8121 N   0  0  0  0  0  0  0  0  0  0  0  0
   25.6852  -20.8276  -12.8507 C   0  0  1  0  0  0  0  0  0  0  0  0
   25.7954  -20.8756  -14.3005 C   0  0  0  0  0  0  0  0  0  0  0  0
   26.3903  -22.2200  -14.7376 C   0  0  0  0  0  0  0  0  0  0  0  0
   26.6493  -22.2125  -16.2197 C   0  0  0  0  0  0  0  0  0  0  0  0
   27.2337  -23.5125  -16.6090 O   0  0  0  0  0  0  0  0  0  0  0  0
   26.5611  -24.5586  -16.4436 C   0  0  0  0  0  0  0  0  0  0  0  0
   24.4468  -20.7381  -14.9034 O   0  0  0  0  0  0  0  0  0  0  0  0
   23.4401  -21.1403  -14.2893 O   0  0  0  0  0  0  0  0  0  0  0  0
   28.5046  -23.5464  -17.1451 C   0  0  0  0  0  0  0  0  0  0  0  0
   20.3754  -18.4156  -15.9749 C   0  0  2  0  0  0  0  0  0  0  0  0
   21.4042  -17.8796  -17.0229 C   0  0  0  0  0  0  0  0  0  0  0  0
   21.2161  -16.3790  -16.9630 C   0  0  0  0  0  0  0  0  0  0  0  0
   22.7062  -18.3911  -16.5397 C   0  0  1  0  0  0  0  0  0  0  0  0
   22.9987  -19.8103  -16.7617 N   0  0  0  0  0  0  0  0  0  0  0  0
   24.3171  -20.1478  -16.1776 C   0  0  0  0  0  0  0  0  0  0  0  0
   23.0037  -20.3204  -18.1082 O   0  0  0  0  0  0  0  0  0  0  0  0
   23.9971  -20.3280  -18.8788 O   0  0  0  0  0  0  0  0  0  0  0  0
  2  1  1  0
  2  3  2  0
  4  2  1  0
  5  4  1  0
  6  5  1  0
  7  6  1  0
  8  7  1  0
  8  9  1  1
 10  8  1  0
 10 12  1  0
 11 10  2  0
 13 12  1  0
 13 14  1  1
 15 14  1  0
 16 15  1  0
 17 16  2  0
 18 19  2  0
 18 13  1  0
 20 16  1  0
 22 21  1  6
 22 24  1  0
 23 22  1  0
 25 24  1  1
 25 26  1  0
 25 27  1  0
 26 18  1  0
 27 29  1  0
 28 27  2  0
M  END
$$$$
