REL.pdb
     RDKit          3D

 29 28  0  0  1  0  0  0  0  0999 V2000
   19.4050  -20.1613  -19.4799 N   0  0  0  0  0  0  0  0  0  0  0  0
   18.2140  -20.3708  -18.7424 C   0  0  0  0  0  0  0  0  0  0  0  0
   17.2743  -21.1279  -19.2189 N   0  0  0  0  0  0  0  0  0  0  0  0
   18.0155  -19.7557  -17.4570 N   0  0  0  0  0  0  0  0  0  0  0  0
   19.0488  -18.9734  -16.8286 C   0  0  0  0  0  0  0  0  0  0  0  0
   20.3998  -19.6291  -16.9864 C   0  0  0  0  0  0  0  0  0  0  0  0
   20.8199  -20.2179  -15.6810 C   0  0  0  0  0  0  0  0  0  0  0  0
   21.7637  -19.3136  -14.9120 C   0  0  2  0  0  0  0  0  0  0  0  0
   22.3153  -18.2829  -15.7345 N   0  0  0  0  0  0  0  0  0  0  0  0
   22.8223  -20.1766  -14.2989 C   0  0  0  0  0  0  0  0  0  0  0  0
   22.4946  -21.0346  -13.4403 O   0  0  0  0  0  0  0  0  0  0  0  0
   16.4128  -21.3187  -18.6656 N   0  0  0  0  0  0  0  0  0  0  0  0
   24.1928  -20.0771  -14.6391 C   0  0  1  0  0  0  0  0  0  0  0  0
   25.2251  -20.8765  -13.9973 C   0  0  0  0  0  0  0  0  0  0  0  0
   26.4419  -21.0032  -14.9222 C   0  0  0  0  0  0  0  0  0  0  0  0
   26.0767  -21.7912  -16.1507 C   0  0  0  0  0  0  0  0  0  0  0  0
   27.2794  -21.9437  -16.9955 O   0  0  0  0  0  0  0  0  0  0  0  0
   27.8578  -23.0561  -17.0396 C   0  0  0  0  0  0  0  0  0  0  0  0
   25.6541  -20.2133  -12.7414 O   0  0  0  0  0  0  0  0  0  0  0  0
   25.3080  -19.0411  -12.4998 O   0  0  0  0  0  0  0  0  0  0  0  0
   27.7385  -20.8601  -17.7158 C   0  0  0  0  0  0  0  0  0  0  0  0
   25.5579  -21.1706   -7.6177 C   0  0  2  0  0  0  0  0  0  0  0  0
   25.2831  -19.8400   -8.3913 C   0  0  0  0  0  0  0  0  0  0  0  0
   26.4028  -18.9305   -7.9331 C   0  0  0  0  0  0  0  0  0  0  0  0
   25.3135  -20.2416   -9.8154 C   0  0  2  0  0  0  0  0  0  0  0  0
   26.6261  -20.4886  -10.4195 N   0  0  0  0  0  0  0  0  0  0  0  0
   26.4572  -20.9236  -11.8251 C   0  0  0  0  0  0  0  0  0  0  0  0
   27.5131  -21.4384   -9.7997 O   0  0  0  0  0  0  0  0  0  0  0  0
   27.4159  -22.6888   -9.8887 O   0  0  0  0  0  0  0  0  0  0  0  0
  2  1  1  0
  2  3  2  0
  4  2  1  0
  5  4  1  0
  6  5  1  0
  7  6  1  0
  8  7  1  0
  8  9  1  6
 10  8  1  0
 10 12  1  0
 11 10  2  0
 13 12  1  0
 13 14  1  1
 15 14  1  0
 16 15  1  0
 17 16  2  0
 18 19  2  0
 18 13  1  0
 20 16  1  0
 22 21  1  1
 22 24  1  0
 23 22  1  0
 25 24  1  6
 25 26  1  0
 25 27  1  0
 26 18  1  0
 27 29  1  0
 28 27  2  0
M  END
$$$$
