REL.pdb
     RDKit          3D

 29 28  0  0  1  0  0  0  0  0999 V2000
   23.6873  -29.3552  -16.4653 N   0  0  0  0  0  0  0  0  0  0  0  0
   23.4275  -30.0401  -17.6775 C   0  0  0  0  0  0  0  0  0  0  0  0
   23.1443  -29.3767  -18.7559 N   0  0  0  0  0  0  0  0  0  0  0  0
   23.4702  -31.4766  -17.7457 N   0  0  0  0  0  0  0  0  0  0  0  0
   23.6980  -32.2800  -16.5721 C   0  0  0  0  0  0  0  0  0  0  0  0
   23.6184  -33.7526  -16.8967 C   0  0  0  0  0  0  0  0  0  0  0  0
   23.8197  -34.5462  -15.6490 C   0  0  0  0  0  0  0  0  0  0  0  0
   25.1768  -34.3027  -15.0174 C   0  0  2  0  0  0  0  0  0  0  0  0
   26.2293  -34.9592  -15.7277 N   0  0  0  0  0  0  0  0  0  0  0  0
   25.0987  -34.7407  -13.5880 C   0  0  0  0  0  0  0  0  0  0  0  0
   25.2623  -35.9553  -13.3075 O   0  0  0  0  0  0  0  0  0  0  0  0
   23.0697  -29.8614  -19.6748 N   0  0  0  0  0  0  0  0  0  0  0  0
   24.8467  -33.8474  -12.5191 C   0  0  2  0  0  0  0  0  0  0  0  0
   24.7995  -34.2737  -11.1289 C   0  0  0  0  0  0  0  0  0  0  0  0
   25.0754  -33.0814  -10.2045 C   0  0  0  0  0  0  0  0  0  0  0  0
   25.1541  -33.5439   -8.7750 C   0  0  0  0  0  0  0  0  0  0  0  0
   25.5504  -32.4022   -7.9247 O   0  0  0  0  0  0  0  0  0  0  0  0
   25.6219  -32.5617   -6.6824 C   0  0  0  0  0  0  0  0  0  0  0  0
   23.4496  -34.8069  -10.8212 O   0  0  0  0  0  0  0  0  0  0  0  0
   22.4367  -34.2760  -11.3157 O   0  0  0  0  0  0  0  0  0  0  0  0
   25.8326  -31.1879   -8.5160 C   0  0  0  0  0  0  0  0  0  0  0  0
   20.3475  -39.0080  -10.5170 C   0  0  2  0  0  0  0  0  0  0  0  0
   20.9544  -38.7432   -9.1007 C   0  0  0  0  0  0  0  0  0  0  0  0
   21.1707  -40.1348   -8.5463 C   0  0  0  0  0  0  0  0  0  0  0  0
   22.1771  -37.9565   -9.3771 C   0  0  1  0  0  0  0  0  0  0  0  0
   22.0135  -36.5230   -9.6363 N   0  0  0  0  0  0  0  0  0  0  0  0
   23.3258  -35.9198   -9.9639 C   0  0  0  0  0  0  0  0  0  0  0  0
   21.4223  -35.6920   -8.6198 O   0  0  0  0  0  0  0  0  0  0  0  0
   20.1897  -35.5805   -8.3985 O   0  0  0  0  0  0  0  0  0  0  0  0
  2  1  1  0
  2  3  2  0
  4  2  1  0
  5  4  1  0
  6  5  1  0
  7  6  1  0
  8  7  1  0
  8  9  1  6
 10  8  1  0
 10 12  1  0
 11 10  2  0
 13 12  1  0
 13 14  1  6
 15 14  1  0
 16 15  1  0
 17 16  2  0
 18 19  2  0
 18 13  1  0
 20 16  1  0
 22 21  1  1
 22 24  1  0
 23 22  1  0
 25 24  1  6
 25 26  1  0
 25 27  1  0
 26 18  1  0
 27 29  1  0
 28 27  2  0
M  END
$$$$
