REL.pdb
     RDKit          3D

 29 28  0  0  1  0  0  0  0  0999 V2000
   21.3650  -27.3038  -12.2288 N   0  0  0  0  0  0  0  0  0  0  0  0
   20.6415  -28.3637  -11.6294 C   0  0  0  0  0  0  0  0  0  0  0  0
   20.9495  -29.5964  -11.8919 N   0  0  0  0  0  0  0  0  0  0  0  0
   19.5557  -28.1051  -10.7215 N   0  0  0  0  0  0  0  0  0  0  0  0
   19.1741  -26.7623  -10.3667 C   0  0  0  0  0  0  0  0  0  0  0  0
   17.9504  -26.7600   -9.4820 C   0  0  0  0  0  0  0  0  0  0  0  0
   18.3566  -26.4673   -8.0761 C   0  0  0  0  0  0  0  0  0  0  0  0
   18.0449  -25.0410   -7.6657 C   0  0  2  0  0  0  0  0  0  0  0  0
   19.0492  -24.1215   -8.1004 N   0  0  0  0  0  0  0  0  0  0  0  0
   17.8662  -25.0239   -6.1794 C   0  0  0  0  0  0  0  0  0  0  0  0
   18.8818  -25.0180   -5.4383 O   0  0  0  0  0  0  0  0  0  0  0  0
   20.3636  -30.3793  -11.5332 N   0  0  0  0  0  0  0  0  0  0  0  0
   16.5962  -25.0139   -5.5541 C   0  0  2  0  0  0  0  0  0  0  0  0
   16.4279  -24.9476   -4.1106 C   0  0  0  0  0  0  0  0  0  0  0  0
   14.9888  -24.5430   -3.7679 C   0  0  0  0  0  0  0  0  0  0  0  0
   14.8386  -24.3806   -2.2797 C   0  0  0  0  0  0  0  0  0  0  0  0
   13.4857  -23.8620   -1.9899 O   0  0  0  0  0  0  0  0  0  0  0  0
   13.1552  -22.7359   -2.4335 C   0  0  0  0  0  0  0  0  0  0  0  0
   16.6962  -26.2819   -3.5201 O   0  0  0  0  0  0  0  0  0  0  0  0
   16.4279  -27.3173   -4.1590 O   0  0  0  0  0  0  0  0  0  0  0  0
   12.6174  -24.6273   -1.2388 C   0  0  0  0  0  0  0  0  0  0  0  0
   20.3319  -29.2465   -1.0655 C   0  0  2  0  0  0  0  0  0  0  0  0
   19.3166  -28.6612   -0.0306 C   0  0  0  0  0  0  0  0  0  0  0  0
   20.1712  -28.4036    1.1917 C   0  0  0  0  0  0  0  0  0  0  0  0
   18.7692  -27.4630   -0.7052 C   0  0  1  0  0  0  0  0  0  0  0  0
   17.6352  -27.6582   -1.6134 N   0  0  0  0  0  0  0  0  0  0  0  0
   17.2577  -26.3653   -2.2290 C   0  0  0  0  0  0  0  0  0  0  0  0
   16.4213  -28.2386   -1.1008 O   0  0  0  0  0  0  0  0  0  0  0  0
   15.5465  -27.6260   -0.4374 O   0  0  0  0  0  0  0  0  0  0  0  0
  2  1  1  0
  2  3  2  0
  4  2  1  0
  5  4  1  0
  6  5  1  0
  7  6  1  0
  8  7  1  0
  8  9  1  1
 10  8  1  0
 10 12  1  0
 11 10  2  0
 13 12  1  0
 13 14  1  6
 15 14  1  0
 16 15  1  0
 17 16  2  0
 18 19  2  0
 18 13  1  0
 20 16  1  0
 22 21  1  1
 22 24  1  0
 23 22  1  0
 25 24  1  6
 25 26  1  0
 25 27  1  0
 26 18  1  0
 27 29  1  0
 28 27  2  0
M  END
$$$$
