REL.pdb
     RDKit          3D

 29 28  0  0  1  0  0  0  0  0999 V2000
   20.5407  -25.2054  -12.8886 N   0  0  0  0  0  0  0  0  0  0  0  0
   19.1338  -25.0708  -12.9817 C   0  0  0  0  0  0  0  0  0  0  0  0
   18.5524  -25.0678  -14.1416 N   0  0  0  0  0  0  0  0  0  0  0  0
   18.3186  -24.9349  -11.8040 N   0  0  0  0  0  0  0  0  0  0  0  0
   18.8903  -24.9805  -10.4828 C   0  0  0  0  0  0  0  0  0  0  0  0
   18.1755  -25.9885   -9.6149 C   0  0  0  0  0  0  0  0  0  0  0  0
   19.1772  -26.7468   -8.8094 C   0  0  0  0  0  0  0  0  0  0  0  0
   18.5441  -27.8491   -7.9824 C   0  0  2  0  0  0  0  0  0  0  0  0
   17.9070  -28.8371   -8.7954 N   0  0  0  0  0  0  0  0  0  0  0  0
   17.5929  -27.2073   -7.0207 C   0  0  0  0  0  0  0  0  0  0  0  0
   16.3672  -27.1740   -7.2986 O   0  0  0  0  0  0  0  0  0  0  0  0
   17.5402  -24.8382  -14.2289 N   0  0  0  0  0  0  0  0  0  0  0  0
   18.0055  -26.6273   -5.7971 C   0  0  2  0  0  0  0  0  0  0  0  0
   17.0665  -26.1314   -4.8027 C   0  0  0  0  0  0  0  0  0  0  0  0
   17.6843  -26.2296   -3.4023 C   0  0  0  0  0  0  0  0  0  0  0  0
   17.5771  -27.6396   -2.8885 C   0  0  0  0  0  0  0  0  0  0  0  0
   18.1858  -27.7055   -1.5437 O   0  0  0  0  0  0  0  0  0  0  0  0
   18.7103  -26.6738   -1.0595 C   0  0  0  0  0  0  0  0  0  0  0  0
   16.7562  -24.7079   -5.0828 O   0  0  0  0  0  0  0  0  0  0  0  0
   17.6765  -23.8896   -5.2719 O   0  0  0  0  0  0  0  0  0  0  0  0
   18.1636  -28.8991   -0.8519 C   0  0  0  0  0  0  0  0  0  0  0  0
   13.2430  -23.1517   -8.5430 C   0  0  2  0  0  0  0  0  0  0  0  0
   14.8000  -23.0936   -8.6725 C   0  0  0  0  0  0  0  0  0  0  0  0
   15.0969  -21.6095   -8.6696 C   0  0  0  0  0  0  0  0  0  0  0  0
   15.2849  -23.8557   -7.5001 C   0  0  2  0  0  0  0  0  0  0  0  0
   14.9069  -23.3642   -6.1718 N   0  0  0  0  0  0  0  0  0  0  0  0
   15.4096  -24.2917   -5.1324 C   0  0  0  0  0  0  0  0  0  0  0  0
   13.5152  -23.1370   -5.8807 O   0  0  0  0  0  0  0  0  0  0  0  0
   12.6805  -24.0283   -5.5812 O   0  0  0  0  0  0  0  0  0  0  0  0
  2  1  1  0
  2  3  2  0
  4  2  1  0
  5  4  1  0
  6  5  1  0
  7  6  1  0
  8  7  1  0
  8  9  1  6
 10  8  1  0
 10 12  1  0
 11 10  2  0
 13 12  1  0
 13 14  1  6
 15 14  1  0
 16 15  1  0
 17 16  2  0
 18 19  2  0
 18 13  1  0
 20 16  1  0
 22 21  1  6
 22 24  1  0
 23 22  1  0
 25 24  1  1
 25 26  1  0
 25 27  1  0
 26 18  1  0
 27 29  1  0
 28 27  2  0
M  END
$$$$
