REL.pdb
     RDKit          3D

 29 28  0  0  1  0  0  0  0  0999 V2000
   26.9077  -27.2052  -17.4790 N   0  0  0  0  0  0  0  0  0  0  0  0
   27.9052  -26.4026  -16.8733 C   0  0  0  0  0  0  0  0  0  0  0  0
   29.0890  -26.8859  -16.6531 N   0  0  0  0  0  0  0  0  0  0  0  0
   27.6359  -25.0425  -16.4891 N   0  0  0  0  0  0  0  0  0  0  0  0
   26.3144  -24.6153  -16.1070 C   0  0  0  0  0  0  0  0  0  0  0  0
   25.3383  -24.7799  -17.2473 C   0  0  0  0  0  0  0  0  0  0  0  0
   24.0849  -24.0313  -16.9379 C   0  0  0  0  0  0  0  0  0  0  0  0
   23.5380  -24.3565  -15.5613 C   0  0  2  0  0  0  0  0  0  0  0  0
   23.5137  -25.7630  -15.3076 N   0  0  0  0  0  0  0  0  0  0  0  0
   22.1790  -23.7377  -15.4537 C   0  0  0  0  0  0  0  0  0  0  0  0
   22.0355  -22.5187  -15.7258 O   0  0  0  0  0  0  0  0  0  0  0  0
   29.8274  -26.3026  -16.2066 N   0  0  0  0  0  0  0  0  0  0  0  0
   21.0297  -24.4622  -15.0560 C   0  0  1  0  0  0  0  0  0  0  0  0
   19.7215  -23.8445  -14.9028 C   0  0  0  0  0  0  0  0  0  0  0  0
   18.6207  -24.8503  -15.2620 C   0  0  0  0  0  0  0  0  0  0  0  0
   18.8373  -25.3773  -16.6545 C   0  0  0  0  0  0  0  0  0  0  0  0
   17.7657  -26.3440  -16.9714 O   0  0  0  0  0  0  0  0  0  0  0  0
   16.9184  -26.6271  -16.0905 C   0  0  0  0  0  0  0  0  0  0  0  0
   19.5353  -23.4251  -13.4920 O   0  0  0  0  0  0  0  0  0  0  0  0
   20.2416  -23.9176  -12.5916 O   0  0  0  0  0  0  0  0  0  0  0  0
   17.7214  -26.9129  -18.2276 C   0  0  0  0  0  0  0  0  0  0  0  0
   20.5414  -20.3607  -10.0069 C   0  0  2  0  0  0  0  0  0  0  0  0
   20.7489  -19.8889  -11.4829 C   0  0  0  0  0  0  0  0  0  0  0  0
   22.2316  -19.5929  -11.5512 C   0  0  0  0  0  0  0  0  0  0  0  0
   20.2767  -21.0334  -12.2937 C   0  0  1  0  0  0  0  0  0  0  0  0
   18.8341  -21.2926  -12.3206 N   0  0  0  0  0  0  0  0  0  0  0  0
   18.5511  -22.4638  -13.1817 C   0  0  0  0  0  0  0  0  0  0  0  0
   17.9437  -20.2447  -12.7474 O   0  0  0  0  0  0  0  0  0  0  0  0
   17.2910  -19.4894  -11.9830 O   0  0  0  0  0  0  0  0  0  0  0  0
  2  1  1  0
  2  3  2  0
  4  2  1  0
  5  4  1  0
  6  5  1  0
  7  6  1  0
  8  7  1  0
  8  9  1  6
 10  8  1  0
 10 12  1  0
 11 10  2  0
 13 12  1  0
 13 14  1  6
 15 14  1  0
 16 15  1  0
 17 16  2  0
 18 19  2  0
 18 13  1  0
 20 16  1  0
 22 21  1  1
 22 24  1  0
 23 22  1  0
 25 24  1  1
 25 26  1  0
 25 27  1  0
 26 18  1  0
 27 29  1  0
 28 27  2  0
M  END
$$$$
