REL.pdb
     RDKit          3D

 29 28  0  0  1  0  0  0  0  0999 V2000
   18.9516  -25.1041   -8.0715 N   0  0  0  0  0  0  0  0  0  0  0  0
   17.6872  -24.4842   -8.2234 C   0  0  0  0  0  0  0  0  0  0  0  0
   16.7129  -24.7803   -7.4194 N   0  0  0  0  0  0  0  0  0  0  0  0
   17.4507  -23.5184   -9.2633 N   0  0  0  0  0  0  0  0  0  0  0  0
   18.4610  -23.1997  -10.2391 C   0  0  0  0  0  0  0  0  0  0  0  0
   18.6096  -24.3103  -11.2514 C   0  0  0  0  0  0  0  0  0  0  0  0
   19.5752  -23.8902  -12.3089 C   0  0  0  0  0  0  0  0  0  0  0  0
   19.9089  -22.4126  -12.2381 C   0  0  2  0  0  0  0  0  0  0  0  0
   18.7608  -21.5881  -12.4511 N   0  0  0  0  0  0  0  0  0  0  0  0
   20.9931  -22.1426  -13.2345 C   0  0  0  0  0  0  0  0  0  0  0  0
   22.0468  -22.8274  -13.1969 O   0  0  0  0  0  0  0  0  0  0  0  0
   15.7706  -24.3550   -7.5459 N   0  0  0  0  0  0  0  0  0  0  0  0
   20.8942  -21.1428  -14.2318 C   0  0  1  0  0  0  0  0  0  0  0  0
   21.9247  -20.9246  -15.2353 C   0  0  0  0  0  0  0  0  0  0  0  0
   21.2845  -20.4887  -16.5590 C   0  0  0  0  0  0  0  0  0  0  0  0
   20.5034  -21.6283  -17.1546 C   0  0  0  0  0  0  0  0  0  0  0  0
   19.8556  -21.1646  -18.3991 O   0  0  0  0  0  0  0  0  0  0  0  0
   20.5559  -20.9974  -19.4265 C   0  0  0  0  0  0  0  0  0  0  0  0
   22.8404  -19.8507  -14.7778 O   0  0  0  0  0  0  0  0  0  0  0  0
   22.6591  -19.2973  -13.6764 O   0  0  0  0  0  0  0  0  0  0  0  0
   18.4966  -20.9262  -18.4028 C   0  0  0  0  0  0  0  0  0  0  0  0
   27.8870  -21.2074  -13.9181 C   0  0  2  0  0  0  0  0  0  0  0  0
   26.9686  -20.0365  -13.4386 C   0  0  0  0  0  0  0  0  0  0  0  0
   27.7633  -18.7989  -13.7957 C   0  0  0  0  0  0  0  0  0  0  0  0
   25.7095  -20.2393  -14.1894 C   0  0  2  0  0  0  0  0  0  0  0  0
   25.2568  -19.1475  -15.0565 N   0  0  0  0  0  0  0  0  0  0  0  0
   23.9170  -19.4636  -15.6025 C   0  0  0  0  0  0  0  0  0  0  0  0
   26.0750  -18.7592  -16.1759 O   0  0  0  0  0  0  0  0  0  0  0  0
   26.2619  -19.4460  -17.2123 O   0  0  0  0  0  0  0  0  0  0  0  0
  2  1  1  0
  2  3  2  0
  4  2  1  0
  5  4  1  0
  6  5  1  0
  7  6  1  0
  8  7  1  0
  8  9  1  6
 10  8  1  0
 10 12  1  0
 11 10  2  0
 13 12  1  0
 13 14  1  6
 15 14  1  0
 16 15  1  0
 17 16  2  0
 18 19  2  0
 18 13  1  0
 20 16  1  0
 22 21  1  1
 22 24  1  0
 23 22  1  0
 25 24  1  1
 25 26  1  0
 25 27  1  0
 26 18  1  0
 27 29  1  0
 28 27  2  0
M  END
$$$$
