REL.pdb
     RDKit          3D

 29 28  0  0  1  0  0  0  0  0999 V2000
   28.0711  -25.0304  -17.3508 N   0  0  0  0  0  0  0  0  0  0  0  0
   27.6396  -26.1716  -16.6314 C   0  0  0  0  0  0  0  0  0  0  0  0
   28.4521  -27.1625  -16.4282 N   0  0  0  0  0  0  0  0  0  0  0  0
   26.3013  -26.2626  -16.1112 N   0  0  0  0  0  0  0  0  0  0  0  0
   25.2602  -25.3693  -16.5501 C   0  0  0  0  0  0  0  0  0  0  0  0
   25.7584  -23.9455  -16.6202 C   0  0  0  0  0  0  0  0  0  0  0  0
   24.6399  -23.0130  -16.2942 C   0  0  0  0  0  0  0  0  0  0  0  0
   24.5993  -22.6451  -14.8235 C   0  0  2  0  0  0  0  0  0  0  0  0
   24.5843  -23.7976  -13.9781 N   0  0  0  0  0  0  0  0  0  0  0  0
   23.4058  -21.7677  -14.6066 C   0  0  0  0  0  0  0  0  0  0  0  0
   22.5207  -22.1253  -13.7885 O   0  0  0  0  0  0  0  0  0  0  0  0
   28.1473  -27.9982  -15.8865 N   0  0  0  0  0  0  0  0  0  0  0  0
   23.2176  -20.5386  -15.2832 C   0  0  2  0  0  0  0  0  0  0  0  0
   22.0771  -19.6693  -15.0377 C   0  0  0  0  0  0  0  0  0  0  0  0
   22.2541  -18.3455  -15.7916 C   0  0  0  0  0  0  0  0  0  0  0  0
   21.0653  -17.4540  -15.5556 C   0  0  0  0  0  0  0  0  0  0  0  0
   21.2873  -16.1683  -16.2490 O   0  0  0  0  0  0  0  0  0  0  0  0
   20.3626  -15.3209  -16.2753 C   0  0  0  0  0  0  0  0  0  0  0  0
   20.8400  -20.3279  -15.5245 O   0  0  0  0  0  0  0  0  0  0  0  0
   20.8986  -21.1895  -16.4226 O   0  0  0  0  0  0  0  0  0  0  0  0
   22.5054  -15.9292  -16.8513 C   0  0  0  0  0  0  0  0  0  0  0  0
   17.5332  -23.1829  -17.1582 C   0  0  2  0  0  0  0  0  0  0  0  0
   17.2765  -22.8807  -15.6459 C   0  0  0  0  0  0  0  0  0  0  0  0
   17.1797  -24.2576  -15.0248 C   0  0  0  0  0  0  0  0  0  0  0  0
   18.4436  -22.0658  -15.2410 C   0  0  1  0  0  0  0  0  0  0  0  0
   18.3285  -20.6101  -15.3704 N   0  0  0  0  0  0  0  0  0  0  0  0
   19.5986  -19.9684  -14.9602 C   0  0  0  0  0  0  0  0  0  0  0  0
   17.2764  -19.9268  -14.6637 O   0  0  0  0  0  0  0  0  0  0  0  0
   16.0462  -20.1453  -14.8032 O   0  0  0  0  0  0  0  0  0  0  0  0
  2  1  1  0
  2  3  2  0
  4  2  1  0
  5  4  1  0
  6  5  1  0
  7  6  1  0
  8  7  1  0
  8  9  1  1
 10  8  1  0
 10 12  1  0
 11 10  2  0
 13 12  1  0
 13 14  1  1
 15 14  1  0
 16 15  1  0
 17 16  2  0
 18 19  2  0
 18 13  1  0
 20 16  1  0
 22 21  1  6
 22 24  1  0
 23 22  1  0
 25 24  1  6
 25 26  1  0
 25 27  1  0
 26 18  1  0
 27 29  1  0
 28 27  2  0
M  END
$$$$
