REL.pdb
     RDKit          3D

 29 28  0  0  1  0  0  0  0  0999 V2000
   16.7609  -15.2978  -16.3780 N   0  0  0  0  0  0  0  0  0  0  0  0
   15.9260  -14.9507  -17.4681 C   0  0  0  0  0  0  0  0  0  0  0  0
   15.3782  -15.8767  -18.1932 N   0  0  0  0  0  0  0  0  0  0  0  0
   15.6648  -13.5749  -17.7982 N   0  0  0  0  0  0  0  0  0  0  0  0
   16.3288  -12.4965  -17.1121 C   0  0  0  0  0  0  0  0  0  0  0  0
   17.4098  -11.8876  -17.9729 C   0  0  0  0  0  0  0  0  0  0  0  0
   18.0289  -10.7378  -17.2504 C   0  0  0  0  0  0  0  0  0  0  0  0
   19.4525  -11.0241  -16.8132 C   0  0  2  0  0  0  0  0  0  0  0  0
   19.5190  -12.0644  -15.8352 N   0  0  0  0  0  0  0  0  0  0  0  0
   20.0429   -9.7411  -16.3167 C   0  0  0  0  0  0  0  0  0  0  0  0
   19.6278   -9.2514  -15.2357 O   0  0  0  0  0  0  0  0  0  0  0  0
   14.7381  -15.6300  -18.9769 N   0  0  0  0  0  0  0  0  0  0  0  0
   21.0585   -9.0391  -17.0093 C   0  0  1  0  0  0  0  0  0  0  0  0
   21.6415   -7.8019  -16.5132 C   0  0  0  0  0  0  0  0  0  0  0  0
   23.1432   -7.7679  -16.8230 C   0  0  0  0  0  0  0  0  0  0  0  0
   23.7557   -6.5093  -16.2715 C   0  0  0  0  0  0  0  0  0  0  0  0
   25.2014   -6.5079  -16.5772 O   0  0  0  0  0  0  0  0  0  0  0  0
   25.8785   -7.5351  -16.3316 C   0  0  0  0  0  0  0  0  0  0  0  0
   20.9950   -6.6473  -17.1841 O   0  0  0  0  0  0  0  0  0  0  0  0
   20.8610   -6.6346  -18.4227 O   0  0  0  0  0  0  0  0  0  0  0  0
   25.7730   -5.3781  -17.1253 C   0  0  0  0  0  0  0  0  0  0  0  0
   17.4881   -2.3497  -16.2811 C   0  0  2  0  0  0  0  0  0  0  0  0
   17.6236   -3.3792  -17.4498 C   0  0  0  0  0  0  0  0  0  0  0  0
   18.2786   -2.5744  -18.5517 C   0  0  0  0  0  0  0  0  0  0  0  0
   18.4373   -4.4717  -16.8714 C   0  0  2  0  0  0  0  0  0  0  0  0
   19.8936   -4.3742  -17.0079 N   0  0  0  0  0  0  0  0  0  0  0  0
   20.5344   -5.5655  -16.4052 C   0  0  0  0  0  0  0  0  0  0  0  0
   20.5709   -3.2252  -16.4654 O   0  0  0  0  0  0  0  0  0  0  0  0
   21.0731   -3.1537  -15.3150 O   0  0  0  0  0  0  0  0  0  0  0  0
  2  1  1  0
  2  3  2  0
  4  2  1  0
  5  4  1  0
  6  5  1  0
  7  6  1  0
  8  7  1  0
  8  9  1  1
 10  8  1  0
 10 12  1  0
 11 10  2  0
 13 12  1  0
 13 14  1  1
 15 14  1  0
 16 15  1  0
 17 16  2  0
 18 19  2  0
 18 13  1  0
 20 16  1  0
 22 21  1  6
 22 24  1  0
 23 22  1  0
 25 24  1  6
 25 26  1  0
 25 27  1  0
 26 18  1  0
 27 29  1  0
 28 27  2  0
M  END
$$$$
