REL.pdb
     RDKit          3D

 29 28  0  0  1  0  0  0  0  0999 V2000
   19.5229  -23.4020  -13.9741 N   0  0  0  0  0  0  0  0  0  0  0  0
   18.6307  -23.5205  -12.8806 C   0  0  0  0  0  0  0  0  0  0  0  0
   18.0661  -24.6586  -12.6174 N   0  0  0  0  0  0  0  0  0  0  0  0
   18.3286  -22.3928  -12.0396 N   0  0  0  0  0  0  0  0  0  0  0  0
   19.0211  -21.1382  -12.1845 C   0  0  0  0  0  0  0  0  0  0  0  0
   20.4956  -21.3552  -12.4275 C   0  0  0  0  0  0  0  0  0  0  0  0
   21.2007  -21.4750  -11.1176 C   0  0  0  0  0  0  0  0  0  0  0  0
   22.0750  -20.2732  -10.8157 C   0  0  2  0  0  0  0  0  0  0  0  0
   22.2407  -19.4253  -11.9544 N   0  0  0  0  0  0  0  0  0  0  0  0
   23.3824  -20.7815  -10.2926 C   0  0  0  0  0  0  0  0  0  0  0  0
   23.3857  -21.6106   -9.3475 O   0  0  0  0  0  0  0  0  0  0  0  0
   17.4140  -24.7553  -11.8111 N   0  0  0  0  0  0  0  0  0  0  0  0
   24.6339  -20.3727  -10.8128 C   0  0  1  0  0  0  0  0  0  0  0  0
   25.9021  -20.8577  -10.2902 C   0  0  0  0  0  0  0  0  0  0  0  0
   27.0123  -20.6466  -11.3270 C   0  0  0  0  0  0  0  0  0  0  0  0
   26.7889  -21.5451  -12.5129 C   0  0  0  0  0  0  0  0  0  0  0  0
   27.8684  -21.3164  -13.4955 O   0  0  0  0  0  0  0  0  0  0  0  0
   28.5623  -20.2747  -13.4092 C   0  0  0  0  0  0  0  0  0  0  0  0
   26.2525  -20.1013   -9.0629 O   0  0  0  0  0  0  0  0  0  0  0  0
   25.7448  -18.9843   -8.8469 O   0  0  0  0  0  0  0  0  0  0  0  0
   28.0886  -22.2527  -14.4848 C   0  0  0  0  0  0  0  0  0  0  0  0
   28.9349  -22.5839   -4.5903 C   0  0  2  0  0  0  0  0  0  0  0  0
   27.7745  -21.7675   -5.2468 C   0  0  0  0  0  0  0  0  0  0  0  0
   27.0411  -21.1832   -4.0588 C   0  0  0  0  0  0  0  0  0  0  0  0
   28.4702  -20.7979   -6.1221 C   0  0  2  0  0  0  0  0  0  0  0  0
   27.6396  -19.9206   -6.9523 N   0  0  0  0  0  0  0  0  0  0  0  0
   27.1655  -20.6601   -8.1446 C   0  0  0  0  0  0  0  0  0  0  0  0
   28.1945  -18.6815   -7.4318 O   0  0  0  0  0  0  0  0  0  0  0  0
   28.7078  -18.5057   -8.5659 O   0  0  0  0  0  0  0  0  0  0  0  0
  2  1  1  0
  2  3  2  0
  4  2  1  0
  5  4  1  0
  6  5  1  0
  7  6  1  0
  8  7  1  0
  8  9  1  6
 10  8  1  0
 10 12  1  0
 11 10  2  0
 13 12  1  0
 13 14  1  1
 15 14  1  0
 16 15  1  0
 17 16  2  0
 18 19  2  0
 18 13  1  0
 20 16  1  0
 22 21  1  1
 22 24  1  0
 23 22  1  0
 25 24  1  1
 25 26  1  0
 25 27  1  0
 26 18  1  0
 27 29  1  0
 28 27  2  0
M  END
$$$$
