REL.pdb
     RDKit          3D

 29 28  0  0  1  0  0  0  0  0999 V2000
   25.5733  -21.8104  -12.8440 N   0  0  0  0  0  0  0  0  0  0  0  0
   26.0447  -22.6301  -13.8985 C   0  0  0  0  0  0  0  0  0  0  0  0
   25.5805  -23.8321  -14.0501 N   0  0  0  0  0  0  0  0  0  0  0  0
   27.0416  -22.1569  -14.8217 N   0  0  0  0  0  0  0  0  0  0  0  0
   27.5245  -20.8005  -14.7789 C   0  0  0  0  0  0  0  0  0  0  0  0
   27.5590  -20.1913  -16.1601 C   0  0  0  0  0  0  0  0  0  0  0  0
   26.2237  -19.6044  -16.4758 C   0  0  0  0  0  0  0  0  0  0  0  0
   25.4025  -20.4883  -17.3946 C   0  0  2  0  0  0  0  0  0  0  0  0
   25.8572  -20.4313  -18.7485 N   0  0  0  0  0  0  0  0  0  0  0  0
   23.9692  -20.0770  -17.2604 C   0  0  0  0  0  0  0  0  0  0  0  0
   23.5172  -19.1719  -18.0068 O   0  0  0  0  0  0  0  0  0  0  0  0
   25.9854  -24.4727  -14.7646 N   0  0  0  0  0  0  0  0  0  0  0  0
   23.0823  -20.6611  -16.3244 C   0  0  2  0  0  0  0  0  0  0  0  0
   21.6803  -20.2856  -16.2252 C   0  0  0  0  0  0  0  0  0  0  0  0
   20.9227  -21.3068  -15.3676 C   0  0  0  0  0  0  0  0  0  0  0  0
   19.4511  -20.9938  -15.3717 C   0  0  0  0  0  0  0  0  0  0  0  0
   18.7319  -22.0700  -14.6589 O   0  0  0  0  0  0  0  0  0  0  0  0
   18.6871  -23.2158  -15.1679 C   0  0  0  0  0  0  0  0  0  0  0  0
   21.5698  -18.9538  -15.5809 O   0  0  0  0  0  0  0  0  0  0  0  0
   22.2758  -18.6731  -14.5934 O   0  0  0  0  0  0  0  0  0  0  0  0
   18.1266  -21.7904  -13.4509 C   0  0  0  0  0  0  0  0  0  0  0  0
   23.1520  -13.9508  -16.0013 C   0  0  2  0  0  0  0  0  0  0  0  0
   21.6644  -14.3741  -15.7729 C   0  0  0  0  0  0  0  0  0  0  0  0
   20.8921  -13.4483  -16.6879 C   0  0  0  0  0  0  0  0  0  0  0  0
   21.6422  -15.8097  -16.1318 C   0  0  1  0  0  0  0  0  0  0  0  0
   20.5649  -16.6297  -15.5698 N   0  0  0  0  0  0  0  0  0  0  0  0
   20.6580  -18.0102  -16.0979 C   0  0  0  0  0  0  0  0  0  0  0  0
   19.1995  -16.2112  -15.7538 O   0  0  0  0  0  0  0  0  0  0  0  0
   18.6891  -15.1661  -15.2764 O   0  0  0  0  0  0  0  0  0  0  0  0
  2  1  1  0
  2  3  2  0
  4  2  1  0
  5  4  1  0
  6  5  1  0
  7  6  1  0
  8  7  1  0
  8  9  1  6
 10  8  1  0
 10 12  1  0
 11 10  2  0
 13 12  1  0
 13 14  1  6
 15 14  1  0
 16 15  1  0
 17 16  2  0
 18 19  2  0
 18 13  1  0
 20 16  1  0
 22 21  1  1
 22 24  1  0
 23 22  1  0
 25 24  1  1
 25 26  1  0
 25 27  1  0
 26 18  1  0
 27 29  1  0
 28 27  2  0
M  END
$$$$
