RNE.pdb
     RDKit          3D

 29 28  0  0  1  0  0  0  0  0999 V2000
   17.5965  -24.2199  -13.1097 N   0  0  0  0  0  0  0  0  0  0  0  0
   17.3070  -23.5068  -11.9237 C   0  0  0  0  0  0  0  0  0  0  0  0
   16.9059  -24.1797  -10.8767 N   0  0  0  0  0  0  0  0  0  0  0  0
   17.4273  -22.1068  -11.8088 N   0  0  0  0  0  0  0  0  0  0  0  0
   18.6736  -21.4356  -12.2022 C   0  0  0  0  0  0  0  0  0  0  0  0
   19.4918  -21.0995  -10.9691 C   0  0  0  0  0  0  0  0  0  0  0  0
   20.7149  -20.3232  -11.2894 C   0  0  0  0  0  0  0  0  0  0  0  0
   21.4289  -20.7211  -12.5603 C   0  0  2  0  0  0  0  0  0  0  0  0
   21.4547  -22.1814  -12.5435 N   0  0  0  0  0  0  0  0  0  0  0  0
   22.8051  -20.1796  -12.6614 C   0  0  0  0  0  0  0  0  0  0  0  0
   23.0054  -18.9127  -12.6650 O   0  0  0  0  0  0  0  0  0  0  0  0
   16.6311  -23.7052  -10.0116 N   0  0  0  0  0  0  0  0  0  0  0  0
   28.1421  -19.7307  -12.8873 C   0  0  0  0  0  0  0  0  0  0  0  0
   27.6721  -20.8397  -12.0775 O   0  0  0  0  0  0  0  0  0  0  0  0
   28.5603  -21.3913  -11.4131 C   0  0  0  0  0  0  0  0  0  0  0  0
   26.2669  -21.1718  -12.1297 C   0  0  2  0  0  0  0  0  0  0  0  0
   25.3185  -20.3270  -12.9193 N   0  0  0  0  0  0  0  0  0  0  0  0
   23.9564  -20.9674  -12.7558 C   0  0  0  0  0  0  0  0  0  0  0  0
   25.5762  -20.2164  -14.3555 O   0  0  0  0  0  0  0  0  0  0  0  0
   25.5002  -21.3124  -15.0503 N   0  0  0  0  0  0  0  0  0  0  0  0
   25.8950  -19.0653  -15.1055 C   0  0  1  0  0  0  0  0  0  0  0  0
   26.0997  -19.1577  -16.5598 C   0  0  0  0  0  0  0  0  0  0  0  0
   25.6311  -17.8785  -17.1645 C   0  0  0  0  0  0  0  0  0  0  0  0
   25.7468  -17.7577  -18.6395 C   0  0  0  0  0  0  0  0  0  0  0  0
   25.3167  -16.4527  -19.1658 O   0  0  0  0  0  0  0  0  0  0  0  0
   25.0290  -15.5281  -18.3865 C   0  0  0  0  0  0  0  0  0  0  0  0
   27.5188  -19.3842  -16.8707 O   0  0  0  0  0  0  0  0  0  0  0  0
   28.4537  -18.9668  -16.1440 O   0  0  0  0  0  0  0  0  0  0  0  0
   25.2243  -16.2295  -20.5289 O   0  0  0  0  0  0  0  0  0  0  0  0
  1  2  1  0
  2  3  2  0
  4  5  1  0
  4  2  1  0
  6  5  1  0
  7  6  1  0
  8 10  1  0
  8  7  1  0
  8  9  1  1
 10 11  2  0
 12 13  1  0
 13 14  2  0
 15 13  1  0
 16 15  1  1
 17 16  1  0
 17 10  1  0
 18 16  1  0
 18 19  2  0
 20 18  1  0
 21 20  1  0
 21 22  1  6
 22 23  1  0
 23 24  1  0
 24 28  1  0
 25 24  2  0
 26 21  1  0
 27 26  2  0
 29 26  1  0
M  END
$$$$
