RNE.pdb
     RDKit          3D

 29 28  0  0  1  0  0  0  0  0999 V2000
   20.6715  -23.1568  -12.4582 N   0  0  0  0  0  0  0  0  0  0  0  0
   19.4244  -23.5864  -12.9674 C   0  0  0  0  0  0  0  0  0  0  0  0
   19.3493  -23.9147  -14.2308 N   0  0  0  0  0  0  0  0  0  0  0  0
   18.2553  -23.6797  -12.1850 N   0  0  0  0  0  0  0  0  0  0  0  0
   18.3178  -23.4720  -10.7319 C   0  0  0  0  0  0  0  0  0  0  0  0
   18.7633  -24.7499  -10.0454 C   0  0  0  0  0  0  0  0  0  0  0  0
   17.9077  -25.1035   -8.8860 C   0  0  0  0  0  0  0  0  0  0  0  0
   18.3733  -26.2830   -8.0642 C   0  0  2  0  0  0  0  0  0  0  0  0
   18.1902  -27.4469   -8.9274 N   0  0  0  0  0  0  0  0  0  0  0  0
   17.6242  -26.4548   -6.7966 C   0  0  0  0  0  0  0  0  0  0  0  0
   16.5080  -27.0866   -6.7829 O   0  0  0  0  0  0  0  0  0  0  0  0
   18.4570  -24.1737  -14.6619 N   0  0  0  0  0  0  0  0  0  0  0  0
   18.2053  -28.6507   -3.6819 C   0  0  0  0  0  0  0  0  0  0  0  0
   18.5965  -27.5275   -2.8501 O   0  0  0  0  0  0  0  0  0  0  0  0
   19.3731  -27.8257   -1.9323 C   0  0  0  0  0  0  0  0  0  0  0  0
   18.0576  -26.2254   -3.1691 C   0  0  2  0  0  0  0  0  0  0  0  0
   17.1491  -26.0495   -4.3440 N   0  0  0  0  0  0  0  0  0  0  0  0
   18.0503  -25.9665   -5.5577 C   0  0  0  0  0  0  0  0  0  0  0  0
   16.3042  -24.8547   -4.3485 O   0  0  0  0  0  0  0  0  0  0  0  0
   16.9135  -23.7066   -4.3659 N   0  0  0  0  0  0  0  0  0  0  0  0
   14.8962  -24.7735   -4.3431 C   0  0  1  0  0  0  0  0  0  0  0  0
   14.2264  -23.4636   -4.3104 C   0  0  0  0  0  0  0  0  0  0  0  0
   13.0598  -23.5291   -5.2358 C   0  0  0  0  0  0  0  0  0  0  0  0
   13.3602  -23.7654   -6.6701 C   0  0  0  0  0  0  0  0  0  0  0  0
   12.4744  -24.7508   -7.3098 O   0  0  0  0  0  0  0  0  0  0  0  0
   11.6336  -25.3678   -6.6335 C   0  0  0  0  0  0  0  0  0  0  0  0
   13.7833  -23.1413   -2.9461 O   0  0  0  0  0  0  0  0  0  0  0  0
   13.9764  -23.9020   -1.9661 O   0  0  0  0  0  0  0  0  0  0  0  0
   12.5582  -25.0090   -8.6673 O   0  0  0  0  0  0  0  0  0  0  0  0
  1  2  1  0
  2  3  2  0
  4  5  1  0
  4  2  1  0
  6  5  1  0
  7  6  1  0
  8 10  1  0
  8  7  1  0
  8  9  1  6
 10 11  2  0
 12 13  1  0
 13 14  2  0
 15 13  1  0
 16 15  1  6
 17 16  1  0
 17 10  1  0
 18 16  1  0
 18 19  2  0
 20 18  1  0
 21 20  1  0
 21 22  1  1
 22 23  1  0
 23 24  1  0
 24 28  1  0
 25 24  2  0
 26 21  1  0
 27 26  2  0
 29 26  1  0
M  END
$$$$
