RNE.pdb
     RDKit          3D

 29 28  0  0  1  0  0  0  0  0999 V2000
   18.5149  -17.8673  -18.3557 N   0  0  0  0  0  0  0  0  0  0  0  0
   17.1875  -17.3848  -18.2885 C   0  0  0  0  0  0  0  0  0  0  0  0
   16.2109  -18.2542  -18.2709 N   0  0  0  0  0  0  0  0  0  0  0  0
   16.8594  -16.0146  -18.2397 N   0  0  0  0  0  0  0  0  0  0  0  0
   17.8696  -14.9989  -18.5662 C   0  0  0  0  0  0  0  0  0  0  0  0
   18.2765  -14.2513  -17.3099 C   0  0  0  0  0  0  0  0  0  0  0  0
   19.2410  -13.1576  -17.5833 C   0  0  0  0  0  0  0  0  0  0  0  0
   20.6853  -13.4624  -17.2605 C   0  0  2  0  0  0  0  0  0  0  0  0
   20.6541  -14.7181  -16.5151 N   0  0  0  0  0  0  0  0  0  0  0  0
   21.3510  -12.4037  -16.4646 C   0  0  0  0  0  0  0  0  0  0  0  0
   20.8795  -12.0565  -15.3234 O   0  0  0  0  0  0  0  0  0  0  0  0
   15.2328  -17.9557  -18.2141 N   0  0  0  0  0  0  0  0  0  0  0  0
   24.9631   -8.8218  -14.7325 C   0  0  0  0  0  0  0  0  0  0  0  0
   25.5262   -9.8939  -15.5326 O   0  0  0  0  0  0  0  0  0  0  0  0
   26.7640   -9.8909  -15.5808 C   0  0  0  0  0  0  0  0  0  0  0  0
   24.6155  -10.8193  -16.1665 C   0  0  1  0  0  0  0  0  0  0  0  0
   23.1392  -10.6823  -15.9704 N   0  0  0  0  0  0  0  0  0  0  0  0
   22.5023  -11.7210  -16.8689 C   0  0  0  0  0  0  0  0  0  0  0  0
   22.5476   -9.3891  -16.3151 O   0  0  0  0  0  0  0  0  0  0  0  0
   22.5303   -9.0701  -17.5751 N   0  0  0  0  0  0  0  0  0  0  0  0
   21.9776   -8.4261  -15.4566 C   0  0  1  0  0  0  0  0  0  0  0  0
   21.3959   -7.1910  -16.0057 C   0  0  0  0  0  0  0  0  0  0  0  0
   20.0781   -6.9781  -15.3425 C   0  0  0  0  0  0  0  0  0  0  0  0
   19.3232   -5.7623  -15.7366 C   0  0  0  0  0  0  0  0  0  0  0  0
   18.0586   -5.5836  -15.0062 O   0  0  0  0  0  0  0  0  0  0  0  0
   17.5927   -4.4445  -14.8317 C   0  0  0  0  0  0  0  0  0  0  0  0
   22.2853   -6.0458  -15.7622 O   0  0  0  0  0  0  0  0  0  0  0  0
   22.8353   -5.8297  -14.6545 O   0  0  0  0  0  0  0  0  0  0  0  0
   17.3669   -6.6717  -14.5022 O   0  0  0  0  0  0  0  0  0  0  0  0
  1  2  1  0
  2  3  2  0
  4  5  1  0
  4  2  1  0
  6  5  1  0
  7  6  1  0
  8 10  1  0
  8  7  1  0
  8  9  1  1
 10 11  2  0
 12 13  1  0
 13 14  2  0
 15 13  1  0
 16 15  1  1
 17 16  1  0
 17 10  1  0
 18 16  1  0
 18 19  2  0
 20 18  1  0
 21 20  1  0
 21 22  1  6
 22 23  1  0
 23 24  1  0
 24 28  1  0
 25 24  2  0
 26 21  1  0
 27 26  2  0
 29 26  1  0
M  END
$$$$
