RNE.pdb
     RDKit          3D

 29 28  0  0  1  0  0  0  0  0999 V2000
   26.9277  -16.7547  -19.0644 N   0  0  0  0  0  0  0  0  0  0  0  0
   28.2630  -17.0822  -18.7347 C   0  0  0  0  0  0  0  0  0  0  0  0
   29.2127  -16.7186  -19.5568 N   0  0  0  0  0  0  0  0  0  0  0  0
   28.6266  -17.7813  -17.5656 N   0  0  0  0  0  0  0  0  0  0  0  0
   27.6003  -18.1864  -16.5954 C   0  0  0  0  0  0  0  0  0  0  0  0
   28.2489  -18.9009  -15.4243 C   0  0  0  0  0  0  0  0  0  0  0  0
   28.4593  -20.3467  -15.6828 C   0  0  0  0  0  0  0  0  0  0  0  0
   27.2120  -21.1997  -15.6853 C   0  0  2  0  0  0  0  0  0  0  0  0
   26.3213  -20.5722  -16.6580 N   0  0  0  0  0  0  0  0  0  0  0  0
   26.5524  -21.2892  -14.3608 C   0  0  0  0  0  0  0  0  0  0  0  0
   27.0995  -21.9491  -13.4067 O   0  0  0  0  0  0  0  0  0  0  0  0
   30.1981  -16.9041  -19.3480 N   0  0  0  0  0  0  0  0  0  0  0  0
   24.1166  -20.9929   -9.8649 C   0  0  0  0  0  0  0  0  0  0  0  0
   25.4346  -20.5418  -10.2726 O   0  0  0  0  0  0  0  0  0  0  0  0
   26.1823  -20.2503   -9.3290 C   0  0  0  0  0  0  0  0  0  0  0  0
   25.7253  -20.4824  -11.6866 C   0  0  1  0  0  0  0  0  0  0  0  0
   24.6941  -20.8928  -12.6891 N   0  0  0  0  0  0  0  0  0  0  0  0
   25.3300  -20.6872  -14.0476 C   0  0  0  0  0  0  0  0  0  0  0  0
   23.4361  -20.1454  -12.6815 O   0  0  0  0  0  0  0  0  0  0  0  0
   23.4860  -18.9103  -13.0836 N   0  0  0  0  0  0  0  0  0  0  0  0
   22.1529  -20.5878  -12.2981 C   0  0  1  0  0  0  0  0  0  0  0  0
   20.9501  -20.0063  -12.9149 C   0  0  0  0  0  0  0  0  0  0  0  0
   21.0246  -20.2635  -14.3812 C   0  0  0  0  0  0  0  0  0  0  0  0
   19.9046  -19.7447  -15.2058 C   0  0  0  0  0  0  0  0  0  0  0  0
   20.0491  -20.0155  -16.6448 O   0  0  0  0  0  0  0  0  0  0  0  0
   20.2529  -19.0818  -17.4395 C   0  0  0  0  0  0  0  0  0  0  0  0
   19.7340  -20.6077  -12.3483 O   0  0  0  0  0  0  0  0  0  0  0  0
   18.6050  -20.0628  -12.4173 O   0  0  0  0  0  0  0  0  0  0  0  0
   19.9620  -21.3056  -17.1393 O   0  0  0  0  0  0  0  0  0  0  0  0
  1  2  1  0
  2  3  2  0
  4  5  1  0
  4  2  1  0
  6  5  1  0
  7  6  1  0
  8 10  1  0
  8  7  1  0
  8  9  1  6
 10 11  2  0
 12 13  1  0
 13 14  2  0
 15 13  1  0
 16 15  1  1
 17 16  1  0
 17 10  1  0
 18 16  1  0
 18 19  2  0
 20 18  1  0
 21 20  1  0
 21 22  1  1
 22 23  1  0
 23 24  1  0
 24 28  1  0
 25 24  2  0
 26 21  1  0
 27 26  2  0
 29 26  1  0
M  END
$$$$
