RNE.pdb
     RDKit          3D

 29 28  0  0  1  0  0  0  0  0999 V2000
   21.6586  -26.3484  -13.9557 N   0  0  0  0  0  0  0  0  0  0  0  0
   21.1429  -25.0350  -14.0466 C   0  0  0  0  0  0  0  0  0  0  0  0
   21.2674  -24.3960  -15.1805 N   0  0  0  0  0  0  0  0  0  0  0  0
   20.5008  -24.3759  -12.9784 N   0  0  0  0  0  0  0  0  0  0  0  0
   19.9103  -25.1499  -11.8780 C   0  0  0  0  0  0  0  0  0  0  0  0
   18.4383  -25.3976  -12.1512 C   0  0  0  0  0  0  0  0  0  0  0  0
   17.7752  -26.1565  -11.0625 C   0  0  0  0  0  0  0  0  0  0  0  0
   18.6877  -26.6729   -9.9743 C   0  0  2  0  0  0  0  0  0  0  0  0
   19.1513  -27.9740  -10.4492 N   0  0  0  0  0  0  0  0  0  0  0  0
   18.0214  -26.8093   -8.6572 C   0  0  0  0  0  0  0  0  0  0  0  0
   17.1148  -27.6987   -8.4774 O   0  0  0  0  0  0  0  0  0  0  0  0
   20.9931  -23.4133  -15.2713 N   0  0  0  0  0  0  0  0  0  0  0  0
   16.5859  -26.3123   -3.5407 C   0  0  0  0  0  0  0  0  0  0  0  0
   18.0043  -26.1165   -3.7783 O   0  0  0  0  0  0  0  0  0  0  0  0
   18.6910  -26.0995   -2.7475 C   0  0  0  0  0  0  0  0  0  0  0  0
   18.4502  -25.9672   -5.1445 C   0  0  2  0  0  0  0  0  0  0  0  0
   17.4880  -26.1341   -6.2772 N   0  0  0  0  0  0  0  0  0  0  0  0
   18.3108  -26.0164   -7.5425 C   0  0  0  0  0  0  0  0  0  0  0  0
   16.4061  -25.1531   -6.3704 O   0  0  0  0  0  0  0  0  0  0  0  0
   16.7472  -23.9295   -6.6463 N   0  0  0  0  0  0  0  0  0  0  0  0
   15.0199  -25.3547   -6.2062 C   0  0  2  0  0  0  0  0  0  0  0  0
   14.0764  -24.2454   -6.4177 C   0  0  0  0  0  0  0  0  0  0  0  0
   14.0319  -23.4439   -5.1618 C   0  0  0  0  0  0  0  0  0  0  0  0
   13.6095  -24.1581   -3.9310 C   0  0  0  0  0  0  0  0  0  0  0  0
   14.3942  -23.8039   -2.7379 O   0  0  0  0  0  0  0  0  0  0  0  0
   15.2729  -22.9273   -2.8047 C   0  0  0  0  0  0  0  0  0  0  0  0
   14.5051  -23.4078   -7.5475 O   0  0  0  0  0  0  0  0  0  0  0  0
   15.5679  -23.6098   -8.1847 O   0  0  0  0  0  0  0  0  0  0  0  0
   14.1720  -24.4346   -1.5257 O   0  0  0  0  0  0  0  0  0  0  0  0
  1  2  1  0
  2  3  2  0
  4  5  1  0
  4  2  1  0
  6  5  1  0
  7  6  1  0
  8 10  1  0
  8  7  1  0
  8  9  1  6
 10 11  2  0
 12 13  1  0
 13 14  2  0
 15 13  1  0
 16 15  1  1
 17 16  1  0
 17 10  1  0
 18 16  1  0
 18 19  2  0
 20 18  1  0
 21 20  1  0
 21 22  1  1
 22 23  1  0
 23 24  1  0
 24 28  1  0
 25 24  2  0
 26 21  1  0
 27 26  2  0
 29 26  1  0
M  END
$$$$
