RNE.pdb
     RDKit          3D

 29 28  0  0  1  0  0  0  0  0999 V2000
   16.8411  -13.5238  -15.0047 N   0  0  0  0  0  0  0  0  0  0  0  0
   16.9798  -14.8653  -15.4291 C   0  0  0  0  0  0  0  0  0  0  0  0
   16.3984  -15.8023  -14.7264 N   0  0  0  0  0  0  0  0  0  0  0  0
   17.7129  -15.2481  -16.5709 N   0  0  0  0  0  0  0  0  0  0  0  0
   18.1118  -14.2437  -17.5662 C   0  0  0  0  0  0  0  0  0  0  0  0
   19.6242  -14.1256  -17.6046 C   0  0  0  0  0  0  0  0  0  0  0  0
   20.1242  -12.9471  -16.8547 C   0  0  0  0  0  0  0  0  0  0  0  0
   21.5966  -12.6468  -17.0130 C   0  0  2  0  0  0  0  0  0  0  0  0
   22.2862  -13.7959  -16.4321 N   0  0  0  0  0  0  0  0  0  0  0  0
   22.0215  -11.3945  -16.3431 C   0  0  0  0  0  0  0  0  0  0  0  0
   21.8204  -11.2299  -15.0871 O   0  0  0  0  0  0  0  0  0  0  0  0
   16.3696  -16.7727  -15.0526 N   0  0  0  0  0  0  0  0  0  0  0  0
   24.0448   -6.4758  -15.5199 C   0  0  0  0  0  0  0  0  0  0  0  0
   24.9419   -7.4702  -16.0792 O   0  0  0  0  0  0  0  0  0  0  0  0
   26.1252   -7.1081  -16.1345 C   0  0  0  0  0  0  0  0  0  0  0  0
   24.3798   -8.7337  -16.4979 C   0  0  1  0  0  0  0  0  0  0  0  0
   22.9348   -9.0357  -16.2580 N   0  0  0  0  0  0  0  0  0  0  0  0
   22.6530  -10.3293  -16.9924 C   0  0  0  0  0  0  0  0  0  0  0  0
   21.9684   -8.0463  -16.7358 O   0  0  0  0  0  0  0  0  0  0  0  0
   21.8199   -7.9467  -18.0233 N   0  0  0  0  0  0  0  0  0  0  0  0
   21.1563   -7.1746  -15.9809 C   0  0  1  0  0  0  0  0  0  0  0  0
   20.2479   -6.2332  -16.6547 C   0  0  0  0  0  0  0  0  0  0  0  0
   19.0544   -6.0523  -15.7803 C   0  0  0  0  0  0  0  0  0  0  0  0
   18.0098   -5.1156  -16.2650 C   0  0  0  0  0  0  0  0  0  0  0  0
   16.8513   -4.9982  -15.3657 O   0  0  0  0  0  0  0  0  0  0  0  0
   16.8301   -5.6185  -14.2888 C   0  0  0  0  0  0  0  0  0  0  0  0
   20.9156   -4.9440  -16.8869 O   0  0  0  0  0  0  0  0  0  0  0  0
   21.9261   -4.5707  -16.2422 O   0  0  0  0  0  0  0  0  0  0  0  0
   15.7694   -4.2008  -15.6976 O   0  0  0  0  0  0  0  0  0  0  0  0
  1  2  1  0
  2  3  2  0
  4  5  1  0
  4  2  1  0
  6  5  1  0
  7  6  1  0
  8 10  1  0
  8  7  1  0
  8  9  1  1
 10 11  2  0
 12 13  1  0
 13 14  2  0
 15 13  1  0
 16 15  1  1
 17 16  1  0
 17 10  1  0
 18 16  1  0
 18 19  2  0
 20 18  1  0
 21 20  1  0
 21 22  1  6
 22 23  1  0
 23 24  1  0
 24 28  1  0
 25 24  2  0
 26 21  1  0
 27 26  2  0
 29 26  1  0
M  END
$$$$
