RNE.pdb
     RDKit          3D

 29 28  0  0  1  0  0  0  0  0999 V2000
   30.0645  -22.4024  -10.7267 N   0  0  0  0  0  0  0  0  0  0  0  0
   31.1694  -21.5259  -10.8277 C   0  0  0  0  0  0  0  0  0  0  0  0
   32.3018  -21.8889  -10.2838 N   0  0  0  0  0  0  0  0  0  0  0  0
   31.1159  -20.2793  -11.4839 N   0  0  0  0  0  0  0  0  0  0  0  0
   30.2814  -20.1074  -12.6809 C   0  0  0  0  0  0  0  0  0  0  0  0
   29.6364  -21.4288  -13.0561 C   0  0  0  0  0  0  0  0  0  0  0  0
   28.3390  -21.2532  -13.7539 C   0  0  0  0  0  0  0  0  0  0  0  0
   27.5665  -20.0049  -13.3957 C   0  0  2  0  0  0  0  0  0  0  0  0
   27.9884  -19.6701  -12.0381 N   0  0  0  0  0  0  0  0  0  0  0  0
   26.0957  -20.1811  -13.4528 C   0  0  0  0  0  0  0  0  0  0  0  0
   25.5344  -20.6084  -14.5240 O   0  0  0  0  0  0  0  0  0  0  0  0
   33.1013  -21.2502  -10.2411 N   0  0  0  0  0  0  0  0  0  0  0  0
   25.5266  -20.7800   -8.6734 C   0  0  0  0  0  0  0  0  0  0  0  0
   25.1503  -21.4614   -9.8985 O   0  0  0  0  0  0  0  0  0  0  0  0
   25.8856  -22.4142  -10.1921 C   0  0  0  0  0  0  0  0  0  0  0  0
   23.9982  -20.9737  -10.6211 C   0  0  2  0  0  0  0  0  0  0  0  0
   24.0482  -20.8159  -12.1075 N   0  0  0  0  0  0  0  0  0  0  0  0
   25.2284  -19.9107  -12.3900 C   0  0  0  0  0  0  0  0  0  0  0  0
   22.8768  -20.2128  -12.7443 O   0  0  0  0  0  0  0  0  0  0  0  0
   22.6117  -18.9787  -12.4337 N   0  0  0  0  0  0  0  0  0  0  0  0
   21.9832  -20.7917  -13.6692 C   0  0  1  0  0  0  0  0  0  0  0  0
   20.8236  -20.0304  -14.1601 C   0  0  0  0  0  0  0  0  0  0  0  0
   20.9126  -19.9796  -15.6471 C   0  0  0  0  0  0  0  0  0  0  0  0
   21.3283  -21.2292  -16.3322 C   0  0  0  0  0  0  0  0  0  0  0  0
   21.3888  -21.1131  -17.7977 O   0  0  0  0  0  0  0  0  0  0  0  0
   21.0518  -20.0549  -18.3557 C   0  0  0  0  0  0  0  0  0  0  0  0
   19.5678  -20.6703  -13.7416 O   0  0  0  0  0  0  0  0  0  0  0  0
   19.5161  -21.8326  -13.2696 O   0  0  0  0  0  0  0  0  0  0  0  0
   21.8189  -22.1719  -18.5791 O   0  0  0  0  0  0  0  0  0  0  0  0
  1  2  1  0
  2  3  2  0
  4  5  1  0
  4  2  1  0
  6  5  1  0
  7  6  1  0
  8 10  1  0
  8  7  1  0
  8  9  1  1
 10 11  2  0
 12 13  1  0
 13 14  2  0
 15 13  1  0
 16 15  1  6
 17 16  1  0
 17 10  1  0
 18 16  1  0
 18 19  2  0
 20 18  1  0
 21 20  1  0
 21 22  1  1
 22 23  1  0
 23 24  1  0
 24 28  1  0
 25 24  2  0
 26 21  1  0
 27 26  2  0
 29 26  1  0
M  END
$$$$
