RNE.pdb
     RDKit          3D

 29 28  0  0  1  0  0  0  0  0999 V2000
   24.0352  -11.5923  -15.1995 N   0  0  0  0  0  0  0  0  0  0  0  0
   23.5719  -10.7270  -16.2172 C   0  0  0  0  0  0  0  0  0  0  0  0
   23.6051  -11.1494  -17.4543 N   0  0  0  0  0  0  0  0  0  0  0  0
   23.0754   -9.4309  -15.9699 N   0  0  0  0  0  0  0  0  0  0  0  0
   22.4600   -9.1079  -14.6755 C   0  0  0  0  0  0  0  0  0  0  0  0
   21.9916   -7.6645  -14.6711 C   0  0  0  0  0  0  0  0  0  0  0  0
   21.4672   -7.2382  -13.3503 C   0  0  0  0  0  0  0  0  0  0  0  0
   20.1187   -7.8027  -12.9679 C   0  0  2  0  0  0  0  0  0  0  0  0
   19.2541   -7.5387  -14.1152 N   0  0  0  0  0  0  0  0  0  0  0  0
   19.5495   -7.1981  -11.7400 C   0  0  0  0  0  0  0  0  0  0  0  0
   20.1182   -7.3778  -10.6044 O   0  0  0  0  0  0  0  0  0  0  0  0
   23.2951  -10.5552  -18.2288 N   0  0  0  0  0  0  0  0  0  0  0  0
   19.1734   -4.5891   -8.1877 C   0  0  0  0  0  0  0  0  0  0  0  0
   18.7797   -3.7670   -9.3173 O   0  0  0  0  0  0  0  0  0  0  0  0
   19.0823   -2.5714   -9.2010 C   0  0  0  0  0  0  0  0  0  0  0  0
   18.1001   -4.4075  -10.4198 C   0  0  2  0  0  0  0  0  0  0  0  0
   17.8517   -5.8822  -10.4017 N   0  0  0  0  0  0  0  0  0  0  0  0
   18.3940   -6.4113  -11.7124 C   0  0  0  0  0  0  0  0  0  0  0  0
   16.4564   -6.3125  -10.3043 O   0  0  0  0  0  0  0  0  0  0  0  0
   15.7473   -6.2514  -11.3919 N   0  0  0  0  0  0  0  0  0  0  0  0
   15.7631   -6.7990   -9.1765 C   0  0  1  0  0  0  0  0  0  0  0  0
   14.3174   -7.0638   -9.2488 C   0  0  0  0  0  0  0  0  0  0  0  0
   14.0580   -8.3526   -8.5464 C   0  0  0  0  0  0  0  0  0  0  0  0
   12.6391   -8.7714   -8.4261 C   0  0  0  0  0  0  0  0  0  0  0  0
   12.3500  -10.0783   -9.0369 O   0  0  0  0  0  0  0  0  0  0  0  0
   13.2703  -10.7611   -9.5182 C   0  0  0  0  0  0  0  0  0  0  0  0
   13.5580   -5.9732   -8.6197 O   0  0  0  0  0  0  0  0  0  0  0  0
   14.0573   -5.1903   -7.7747 O   0  0  0  0  0  0  0  0  0  0  0  0
   11.0571  -10.5707   -9.0879 O   0  0  0  0  0  0  0  0  0  0  0  0
  1  2  1  0
  2  3  2  0
  4  5  1  0
  4  2  1  0
  6  5  1  0
  7  6  1  0
  8 10  1  0
  8  7  1  0
  8  9  1  6
 10 11  2  0
 12 13  1  0
 13 14  2  0
 15 13  1  0
 16 15  1  1
 17 16  1  0
 17 10  1  0
 18 16  1  0
 18 19  2  0
 20 18  1  0
 21 20  1  0
 21 22  1  1
 22 23  1  0
 23 24  1  0
 24 28  1  0
 25 24  2  0
 26 21  1  0
 27 26  2  0
 29 26  1  0
M  END
$$$$
