RNE.pdb
     RDKit          3D

 29 28  0  0  1  0  0  0  0  0999 V2000
   26.1971  -33.8491   -4.8790 N   0  0  0  0  0  0  0  0  0  0  0  0
   25.9543  -33.0301   -6.0057 C   0  0  0  0  0  0  0  0  0  0  0  0
   25.4773  -31.8286   -5.8090 N   0  0  0  0  0  0  0  0  0  0  0  0
   26.1988  -33.4399   -7.3324 N   0  0  0  0  0  0  0  0  0  0  0  0
   26.6676  -34.8040   -7.6119 C   0  0  0  0  0  0  0  0  0  0  0  0
   28.1511  -34.9129   -7.3117 C   0  0  0  0  0  0  0  0  0  0  0  0
   28.6674  -36.2939   -7.4773 C   0  0  0  0  0  0  0  0  0  0  0  0
   30.1269  -36.4922   -7.1401 C   0  0  2  0  0  0  0  0  0  0  0  0
   30.5394  -37.6681   -7.9020 N   0  0  0  0  0  0  0  0  0  0  0  0
   30.3786  -36.6973   -5.6937 C   0  0  0  0  0  0  0  0  0  0  0  0
   29.8591  -37.6967   -5.0800 O   0  0  0  0  0  0  0  0  0  0  0  0
   25.3334  -31.1784   -6.5872 N   0  0  0  0  0  0  0  0  0  0  0  0
   33.8520  -36.5743   -1.2187 C   0  0  0  0  0  0  0  0  0  0  0  0
   33.0489  -35.4455   -1.6518 O   0  0  0  0  0  0  0  0  0  0  0  0
   32.8339  -34.6089   -0.7639 C   0  0  0  0  0  0  0  0  0  0  0  0
   32.6004  -35.4177   -3.0250 C   0  0  1  0  0  0  0  0  0  0  0  0
   31.3458  -36.1262   -3.4258 N   0  0  0  0  0  0  0  0  0  0  0  0
   31.1711  -35.8575   -4.9054 C   0  0  0  0  0  0  0  0  0  0  0  0
   30.1123  -35.7060   -2.7601 O   0  0  0  0  0  0  0  0  0  0  0  0
   29.5931  -34.5786   -3.1462 N   0  0  0  0  0  0  0  0  0  0  0  0
   29.3918  -36.3681   -1.7444 C   0  0  1  0  0  0  0  0  0  0  0  0
   28.1984  -35.7444   -1.1508 C   0  0  0  0  0  0  0  0  0  0  0  0
   27.1858  -36.8173   -0.9383 C   0  0  0  0  0  0  0  0  0  0  0  0
   25.9056  -36.6802   -1.6770 C   0  0  0  0  0  0  0  0  0  0  0  0
   24.9135  -37.7153   -1.3466 O   0  0  0  0  0  0  0  0  0  0  0  0
   25.2471  -38.9120   -1.3090 C   0  0  0  0  0  0  0  0  0  0  0  0
   28.5332  -35.0932    0.1241 O   0  0  0  0  0  0  0  0  0  0  0  0
   29.6272  -35.2671    0.7150 O   0  0  0  0  0  0  0  0  0  0  0  0
   23.5984  -37.3803   -1.0730 O   0  0  0  0  0  0  0  0  0  0  0  0
  1  2  1  0
  2  3  2  0
  4  5  1  0
  4  2  1  0
  6  5  1  0
  7  6  1  0
  8 10  1  0
  8  7  1  0
  8  9  1  6
 10 11  2  0
 12 13  1  0
 13 14  2  0
 15 13  1  0
 16 15  1  6
 17 16  1  0
 17 10  1  0
 18 16  1  0
 18 19  2  0
 20 18  1  0
 21 20  1  0
 21 22  1  1
 22 23  1  0
 23 24  1  0
 24 28  1  0
 25 24  2  0
 26 21  1  0
 27 26  2  0
 29 26  1  0
M  END
$$$$
