RNE.pdb
     RDKit          3D

 29 28  0  0  1  0  0  0  0  0999 V2000
   17.5981  -11.5364  -19.9817 N   0  0  0  0  0  0  0  0  0  0  0  0
   17.6485  -12.5564  -19.0039 C   0  0  0  0  0  0  0  0  0  0  0  0
   17.6253  -13.8013  -19.4033 N   0  0  0  0  0  0  0  0  0  0  0  0
   17.7223  -12.3033  -17.6189 N   0  0  0  0  0  0  0  0  0  0  0  0
   17.8163  -10.9239  -17.1219 C   0  0  0  0  0  0  0  0  0  0  0  0
   17.7825  -10.9172  -15.6048 C   0  0  0  0  0  0  0  0  0  0  0  0
   17.9180   -9.5534  -15.0365 C   0  0  0  0  0  0  0  0  0  0  0  0
   17.8570   -9.4629  -13.5294 C   0  0  2  0  0  0  0  0  0  0  0  0
   16.6227  -10.1480  -13.1546 N   0  0  0  0  0  0  0  0  0  0  0  0
   17.8529   -8.0713  -13.0188 C   0  0  0  0  0  0  0  0  0  0  0  0
   18.9157   -7.3555  -13.0770 O   0  0  0  0  0  0  0  0  0  0  0  0
   17.6918  -14.5761  -18.7368 N   0  0  0  0  0  0  0  0  0  0  0  0
   14.8099   -7.7970   -9.7000 C   0  0  0  0  0  0  0  0  0  0  0  0
   16.1882   -8.0780   -9.3421 O   0  0  0  0  0  0  0  0  0  0  0  0
   16.3128   -8.8644   -8.3932 C   0  0  0  0  0  0  0  0  0  0  0  0
   17.2331   -7.4332  -10.1037 C   0  0  2  0  0  0  0  0  0  0  0  0
   16.8903   -6.5372  -11.2511 N   0  0  0  0  0  0  0  0  0  0  0  0
   16.7386   -7.4427  -12.4548 C   0  0  0  0  0  0  0  0  0  0  0  0
   17.8739   -5.5117  -11.6008 O   0  0  0  0  0  0  0  0  0  0  0  0
   18.1275   -4.6114  -10.6982 N   0  0  0  0  0  0  0  0  0  0  0  0
   18.6029   -5.3650  -12.7992 C   0  0  1  0  0  0  0  0  0  0  0  0
   19.4624   -4.1890  -13.0083 C   0  0  0  0  0  0  0  0  0  0  0  0
   20.8214   -4.6812  -13.3725 C   0  0  0  0  0  0  0  0  0  0  0  0
   20.9389   -5.4267  -14.6507 C   0  0  0  0  0  0  0  0  0  0  0  0
   22.2956   -5.9244  -14.9274 O   0  0  0  0  0  0  0  0  0  0  0  0
   23.2426   -5.6018  -14.1898 C   0  0  0  0  0  0  0  0  0  0  0  0
   18.9217   -3.3343  -14.0755 O   0  0  0  0  0  0  0  0  0  0  0  0
   18.0445   -3.7229  -14.8852 O   0  0  0  0  0  0  0  0  0  0  0  0
   22.5434   -6.7557  -16.0063 O   0  0  0  0  0  0  0  0  0  0  0  0
  1  2  1  0
  2  3  2  0
  4  5  1  0
  4  2  1  0
  6  5  1  0
  7  6  1  0
  8 10  1  0
  8  7  1  0
  8  9  1  6
 10 11  2  0
 12 13  1  0
 13 14  2  0
 15 13  1  0
 16 15  1  1
 17 16  1  0
 17 10  1  0
 18 16  1  0
 18 19  2  0
 20 18  1  0
 21 20  1  0
 21 22  1  6
 22 23  1  0
 23 24  1  0
 24 28  1  0
 25 24  2  0
 26 21  1  0
 27 26  2  0
 29 26  1  0
M  END
$$$$
