RNE.pdb
     RDKit          3D

 29 28  0  0  1  0  0  0  0  0999 V2000
   16.1371  -14.8292  -12.4023 N   0  0  0  0  0  0  0  0  0  0  0  0
   16.8066  -14.4261  -13.5806 C   0  0  0  0  0  0  0  0  0  0  0  0
   17.8884  -15.0711  -13.9319 N   0  0  0  0  0  0  0  0  0  0  0  0
   16.3701  -13.3639  -14.3986 N   0  0  0  0  0  0  0  0  0  0  0  0
   16.6337  -11.9721  -14.0088 C   0  0  0  0  0  0  0  0  0  0  0  0
   15.6797  -11.5544  -12.9051 C   0  0  0  0  0  0  0  0  0  0  0  0
   15.9013  -10.1574  -12.4571 C   0  0  0  0  0  0  0  0  0  0  0  0
   14.9895   -9.6709  -11.3548 C   0  0  2  0  0  0  0  0  0  0  0  0
   13.6366   -9.8119  -11.8870 N   0  0  0  0  0  0  0  0  0  0  0  0
   15.2440   -8.2674  -10.9512 C   0  0  0  0  0  0  0  0  0  0  0  0
   14.7887   -7.2968  -11.6555 O   0  0  0  0  0  0  0  0  0  0  0  0
   18.4439  -14.7789  -14.7413 N   0  0  0  0  0  0  0  0  0  0  0  0
   13.5790   -5.5193   -8.7522 C   0  0  0  0  0  0  0  0  0  0  0  0
   14.5115   -5.8515   -7.6907 O   0  0  0  0  0  0  0  0  0  0  0  0
   14.0373   -5.7460   -6.5512 C   0  0  0  0  0  0  0  0  0  0  0  0
   15.8479   -6.2562   -8.0620 C   0  0  2  0  0  0  0  0  0  0  0  0
   16.2126   -6.4328   -9.5017 N   0  0  0  0  0  0  0  0  0  0  0  0
   15.9695   -7.8936   -9.8159 C   0  0  0  0  0  0  0  0  0  0  0  0
   17.5969   -6.1342   -9.8705 O   0  0  0  0  0  0  0  0  0  0  0  0
   18.5249   -6.6030   -9.0904 N   0  0  0  0  0  0  0  0  0  0  0  0
   18.0734   -5.4014  -10.9773 C   0  0  1  0  0  0  0  0  0  0  0  0
   19.5184   -5.2024  -11.1717 C   0  0  0  0  0  0  0  0  0  0  0  0
   19.9950   -6.2477  -12.1214 C   0  0  0  0  0  0  0  0  0  0  0  0
   21.4270   -6.1922  -12.5086 C   0  0  0  0  0  0  0  0  0  0  0  0
   21.8133   -7.2008  -13.5077 O   0  0  0  0  0  0  0  0  0  0  0  0
   21.7709   -8.4102  -13.2243 C   0  0  0  0  0  0  0  0  0  0  0  0
   19.7900   -3.8598  -11.7058 O   0  0  0  0  0  0  0  0  0  0  0  0
   18.9027   -3.1351  -12.2195 O   0  0  0  0  0  0  0  0  0  0  0  0
   22.2288   -6.8265  -14.7742 O   0  0  0  0  0  0  0  0  0  0  0  0
  1  2  1  0
  2  3  2  0
  4  5  1  0
  4  2  1  0
  6  5  1  0
  7  6  1  0
  8 10  1  0
  8  7  1  0
  8  9  1  6
 10 11  2  0
 12 13  1  0
 13 14  2  0
 15 13  1  0
 16 15  1  6
 17 16  1  0
 17 10  1  0
 18 16  1  0
 18 19  2  0
 20 18  1  0
 21 20  1  0
 21 22  1  1
 22 23  1  0
 23 24  1  0
 24 28  1  0
 25 24  2  0
 26 21  1  0
 27 26  2  0
 29 26  1  0
M  END
$$$$
