RNE.pdb
     RDKit          3D

 29 28  0  0  1  0  0  0  0  0999 V2000
   26.0738  -20.6709  -11.0258 N   0  0  0  0  0  0  0  0  0  0  0  0
   26.8130  -21.7029  -11.6485 C   0  0  0  0  0  0  0  0  0  0  0  0
   26.6692  -22.9244  -11.2049 N   0  0  0  0  0  0  0  0  0  0  0  0
   27.6989  -21.4854  -12.7235 N   0  0  0  0  0  0  0  0  0  0  0  0
   27.8521  -20.1414  -13.2969 C   0  0  0  0  0  0  0  0  0  0  0  0
   26.8892  -19.9605  -14.4557 C   0  0  0  0  0  0  0  0  0  0  0  0
   27.0147  -18.6300  -15.1001 C   0  0  0  0  0  0  0  0  0  0  0  0
   27.6437  -18.6246  -16.4740 C   0  0  2  0  0  0  0  0  0  0  0  0
   29.0784  -18.4866  -16.2375 N   0  0  0  0  0  0  0  0  0  0  0  0
   27.1545  -17.5299  -17.3456 C   0  0  0  0  0  0  0  0  0  0  0  0
   27.5401  -16.3225  -17.1493 O   0  0  0  0  0  0  0  0  0  0  0  0
   27.2147  -23.6998  -11.5925 N   0  0  0  0  0  0  0  0  0  0  0  0
   26.4507  -14.3574  -21.8595 C   0  0  0  0  0  0  0  0  0  0  0  0
   25.5220  -15.2329  -21.1684 O   0  0  0  0  0  0  0  0  0  0  0  0
   24.3297  -14.9743  -21.3831 C   0  0  0  0  0  0  0  0  0  0  0  0
   26.0670  -16.2773  -20.3319 C   0  0  1  0  0  0  0  0  0  0  0  0
   25.4921  -16.5383  -18.9761 N   0  0  0  0  0  0  0  0  0  0  0  0
   26.2696  -17.7091  -18.4133 C   0  0  0  0  0  0  0  0  0  0  0  0
   24.0735  -16.8929  -18.9208 O   0  0  0  0  0  0  0  0  0  0  0  0
   23.7634  -18.1174  -19.2274 N   0  0  0  0  0  0  0  0  0  0  0  0
   22.9768  -16.0789  -18.5688 C   0  0  1  0  0  0  0  0  0  0  0  0
   21.6073  -16.6155  -18.6125 C   0  0  0  0  0  0  0  0  0  0  0  0
   21.2319  -17.0099  -17.2249 C   0  0  0  0  0  0  0  0  0  0  0  0
   19.8474  -17.5070  -17.0258 C   0  0  0  0  0  0  0  0  0  0  0  0
   19.5284  -17.8369  -15.6278 O   0  0  0  0  0  0  0  0  0  0  0  0
   19.5940  -16.9615  -14.7480 C   0  0  0  0  0  0  0  0  0  0  0  0
   20.6714  -15.6076  -19.1318 O   0  0  0  0  0  0  0  0  0  0  0  0
   20.9933  -14.4094  -19.3242 O   0  0  0  0  0  0  0  0  0  0  0  0
   19.1515  -19.1191  -15.2665 O   0  0  0  0  0  0  0  0  0  0  0  0
  1  2  1  0
  2  3  2  0
  4  5  1  0
  4  2  1  0
  6  5  1  0
  7  6  1  0
  8 10  1  0
  8  7  1  0
  8  9  1  1
 10 11  2  0
 12 13  1  0
 13 14  2  0
 15 13  1  0
 16 15  1  1
 17 16  1  0
 17 10  1  0
 18 16  1  0
 18 19  2  0
 20 18  1  0
 21 20  1  0
 21 22  1  6
 22 23  1  0
 23 24  1  0
 24 28  1  0
 25 24  2  0
 26 21  1  0
 27 26  2  0
 29 26  1  0
M  END
$$$$
