RNE.pdb
     RDKit          3D

 29 28  0  0  1  0  0  0  0  0999 V2000
   21.6343  -10.6477  -15.4381 N   0  0  0  0  0  0  0  0  0  0  0  0
   20.5424  -11.2463  -16.1078 C   0  0  0  0  0  0  0  0  0  0  0  0
   20.7101  -12.4323  -16.6323 N   0  0  0  0  0  0  0  0  0  0  0  0
   19.2804  -10.6321  -16.2413 N   0  0  0  0  0  0  0  0  0  0  0  0
   18.7964   -9.7024  -15.2117 C   0  0  0  0  0  0  0  0  0  0  0  0
   17.9885  -10.4568  -14.1720 C   0  0  0  0  0  0  0  0  0  0  0  0
   17.3673   -9.5575  -13.1687 C   0  0  0  0  0  0  0  0  0  0  0  0
   16.5925  -10.2420  -12.0666 C   0  0  2  0  0  0  0  0  0  0  0  0
   15.8904  -11.3437  -12.7198 N   0  0  0  0  0  0  0  0  0  0  0  0
   15.6299   -9.3504  -11.3768 C   0  0  0  0  0  0  0  0  0  0  0  0
   14.6189   -8.8752  -12.0071 O   0  0  0  0  0  0  0  0  0  0  0  0
   19.9643  -12.8897  -17.1649 N   0  0  0  0  0  0  0  0  0  0  0  0
   12.2051   -7.2972   -8.1659 C   0  0  0  0  0  0  0  0  0  0  0  0
   12.9234   -8.4315   -7.6145 O   0  0  0  0  0  0  0  0  0  0  0  0
   12.3382   -8.9924   -6.6778 C   0  0  0  0  0  0  0  0  0  0  0  0
   14.2008   -8.7748   -8.1960 C   0  0  2  0  0  0  0  0  0  0  0  0
   14.6962   -8.0579   -9.4115 N   0  0  0  0  0  0  0  0  0  0  0  0
   15.7333   -8.9666  -10.0363 C   0  0  0  0  0  0  0  0  0  0  0  0
   15.3326   -6.7582   -9.1943 O   0  0  0  0  0  0  0  0  0  0  0  0
   16.4597   -6.7589   -8.5469 N   0  0  0  0  0  0  0  0  0  0  0  0
   14.8892   -5.4830   -9.6021 C   0  0  1  0  0  0  0  0  0  0  0  0
   15.5950   -4.2715   -9.1552 C   0  0  0  0  0  0  0  0  0  0  0  0
   16.0323   -3.5286  -10.3711 C   0  0  0  0  0  0  0  0  0  0  0  0
   16.6927   -2.2179  -10.1488 C   0  0  0  0  0  0  0  0  0  0  0  0
   17.1711   -1.5750  -11.3828 O   0  0  0  0  0  0  0  0  0  0  0  0
   17.0203   -2.1383  -12.4804 C   0  0  0  0  0  0  0  0  0  0  0  0
   14.7142   -3.4329   -8.3290 O   0  0  0  0  0  0  0  0  0  0  0  0
   13.4740   -3.6119   -8.2514 O   0  0  0  0  0  0  0  0  0  0  0  0
   17.7941   -0.3392  -11.3471 O   0  0  0  0  0  0  0  0  0  0  0  0
  1  2  1  0
  2  3  2  0
  4  5  1  0
  4  2  1  0
  6  5  1  0
  7  6  1  0
  8 10  1  0
  8  7  1  0
  8  9  1  6
 10 11  2  0
 12 13  1  0
 13 14  2  0
 15 13  1  0
 16 15  1  6
 17 16  1  0
 17 10  1  0
 18 16  1  0
 18 19  2  0
 20 18  1  0
 21 20  1  0
 21 22  1  1
 22 23  1  0
 23 24  1  0
 24 28  1  0
 25 24  2  0
 26 21  1  0
 27 26  2  0
 29 26  1  0
M  END
$$$$
