GGY.pdb
     RDKit          3D

 21 21  0  0  1  0  0  0  0  0999 V2000
    9.5752  -20.6925   24.5436 N   0  0  0  0  0  0  0  0  0  0  0  0
    8.3970  -20.7759   23.7375 C   0  0  0  0  0  0  0  0  0  0  0  0
    7.3227  -19.8490   24.2220 C   0  0  0  0  0  0  0  0  0  0  0  0
    6.4554  -20.3362   24.9970 O   0  0  0  0  0  0  0  0  0  0  0  0
    7.2617  -18.4981   23.8459 N   0  0  0  0  0  0  0  0  0  0  0  0
    6.2050  -17.6442   24.3098 C   0  0  0  0  0  0  0  0  0  0  0  0
    6.8063  -16.3498   24.7471 C   0  0  0  0  0  0  0  0  0  0  0  0
    6.0565  -15.4189   25.1381 O   0  0  0  0  0  0  0  0  0  0  0  0
   10.6319  -16.9779   30.8041 O   0  0  0  0  0  0  0  0  0  0  0  0
   10.0828  -16.3260   29.7089 C   0  0  0  0  0  0  0  0  0  0  0  0
   10.5663  -15.0640   29.3800 C   0  0  0  0  0  0  0  0  0  0  0  0
   10.0108  -14.4407   28.2974 C   0  0  0  0  0  0  0  0  0  0  0  0
    9.0081  -14.9937   27.5254 C   0  0  0  0  0  0  0  0  0  0  0  0
    8.4213  -14.3116   26.3653 C   0  0  0  0  0  0  0  0  0  0  0  0
    8.8859  -14.9337   25.0934 C   0  0  2  0  0  0  0  0  0  0  0  0
    8.2146  -16.1530   24.7284 N   0  0  0  0  0  0  0  0  0  0  0  0
   10.3724  -15.1217   25.0410 C   0  0  0  0  0  0  0  0  0  0  0  0
   11.2586  -14.0712   25.1218 O   0  0  0  0  0  0  0  0  0  0  0  0
    8.5327  -16.2533   27.8620 C   0  0  0  0  0  0  0  0  0  0  0  0
    9.0791  -16.9104   28.9578 C   0  0  0  0  0  0  0  0  0  0  0  0
   10.8184  -16.2909   24.9206 O   0  0  0  0  0  0  0  0  0  0  0  0
  2  1  1  0
  3  2  1  0
  4  3  2  0
  5  3  1  0
  6  5  1  0
  7 16  1  0
  7  6  1  0
  8  7  2  0
  9 10  1  0
 10 11  2  0
 10 20  1  0
 11 12  1  0
 12 13  2  0
 13 14  1  0
 15 14  1  1
 15 16  1  0
 15 17  1  0
 17 18  1  0
 19 13  1  0
 20 19  2  0
 21 17  2  0
M  END
$$$$
