GGY.pdb
     RDKit          3D

 21 21  0  0  1  0  0  0  0  0999 V2000
    9.7728  -20.0539   13.2549 N   0  0  0  0  0  0  0  0  0  0  0  0
   10.5706  -18.9669   13.7311 C   0  0  0  0  0  0  0  0  0  0  0  0
   10.3059  -18.6719   15.1771 C   0  0  0  0  0  0  0  0  0  0  0  0
    9.1285  -18.3428   15.4862 O   0  0  0  0  0  0  0  0  0  0  0  0
   11.3038  -18.7508   16.1611 N   0  0  0  0  0  0  0  0  0  0  0  0
   11.0560  -18.3191   17.5075 C   0  0  0  0  0  0  0  0  0  0  0  0
   12.2987  -18.5358   18.3055 C   0  0  0  0  0  0  0  0  0  0  0  0
   12.4005  -18.0179   19.4470 O   0  0  0  0  0  0  0  0  0  0  0  0
   10.5624  -22.8218   22.3004 O   0  0  0  0  0  0  0  0  0  0  0  0
   11.5793  -22.4073   21.4519 C   0  0  0  0  0  0  0  0  0  0  0  0
   11.3441  -22.4226   20.0811 C   0  0  0  0  0  0  0  0  0  0  0  0
   12.3600  -22.0101   19.2645 C   0  0  0  0  0  0  0  0  0  0  0  0
   13.5902  -21.5852   19.7261 C   0  0  0  0  0  0  0  0  0  0  0  0
   14.6718  -21.1450   18.8362 C   0  0  0  0  0  0  0  0  0  0  0  0
   14.5489  -19.6917   18.5306 C   0  0  2  0  0  0  0  0  0  0  0  0
   13.3698  -19.3194   17.7945 N   0  0  0  0  0  0  0  0  0  0  0  0
   15.7725  -19.1245   17.8758 C   0  0  0  0  0  0  0  0  0  0  0  0
   15.7182  -18.3644   16.7291 O   0  0  0  0  0  0  0  0  0  0  0  0
   13.8148  -21.5737   21.0956 C   0  0  0  0  0  0  0  0  0  0  0  0
   12.7998  -21.9878   21.9495 C   0  0  0  0  0  0  0  0  0  0  0  0
   16.8893  -19.3558   18.4046 O   0  0  0  0  0  0  0  0  0  0  0  0
  2  1  1  0
  3  2  1  0
  4  3  2  0
  5  3  1  0
  6  5  1  0
  7 16  1  0
  7  6  1  0
  8  7  2  0
  9 10  1  0
 10 11  2  0
 10 20  1  0
 11 12  1  0
 12 13  2  0
 13 14  1  0
 15 14  1  6
 15 16  1  0
 15 17  1  0
 17 18  1  0
 19 13  1  0
 20 19  2  0
 21 17  2  0
M  END
$$$$
