GGY.pdb
     RDKit          3D

 21 21  0  0  1  0  0  0  0  0999 V2000
    8.6859  -18.8671   17.1639 N   0  0  0  0  0  0  0  0  0  0  0  0
    7.8233  -18.5677   18.2644 C   0  0  0  0  0  0  0  0  0  0  0  0
    7.9554  -17.1406   18.7049 C   0  0  0  0  0  0  0  0  0  0  0  0
    8.8347  -16.4445   18.1283 O   0  0  0  0  0  0  0  0  0  0  0  0
    7.1510  -16.5806   19.7096 N   0  0  0  0  0  0  0  0  0  0  0  0
    7.3374  -15.2242   20.1413 C   0  0  0  0  0  0  0  0  0  0  0  0
    8.3803  -15.2113   21.2092 C   0  0  0  0  0  0  0  0  0  0  0  0
    9.4856  -14.6530   20.9893 O   0  0  0  0  0  0  0  0  0  0  0  0
    6.8165  -11.3599   28.6438 O   0  0  0  0  0  0  0  0  0  0  0  0
    6.8628  -12.0128   27.4202 C   0  0  0  0  0  0  0  0  0  0  0  0
    5.7011  -12.0706   26.6573 C   0  0  0  0  0  0  0  0  0  0  0  0
    5.7700  -12.7188   25.4556 C   0  0  0  0  0  0  0  0  0  0  0  0
    6.9188  -13.3104   24.9685 C   0  0  0  0  0  0  0  0  0  0  0  0
    6.9771  -14.0032   23.6753 C   0  0  0  0  0  0  0  0  0  0  0  0
    7.9687  -15.1149   23.7134 C   0  0  2  0  0  0  0  0  0  0  0  0
    8.1432  -15.8211   22.4719 N   0  0  0  0  0  0  0  0  0  0  0  0
    7.7231  -16.0818   24.8326 C   0  0  0  0  0  0  0  0  0  0  0  0
    8.6311  -16.2939   25.8455 O   0  0  0  0  0  0  0  0  0  0  0  0
    8.0725  -13.2472   25.7373 C   0  0  0  0  0  0  0  0  0  0  0  0
    8.0316  -12.5945   26.9634 C   0  0  0  0  0  0  0  0  0  0  0  0
    6.6393  -16.7188   24.8388 O   0  0  0  0  0  0  0  0  0  0  0  0
  2  1  1  0
  3  2  1  0
  4  3  2  0
  5  3  1  0
  6  5  1  0
  7 16  1  0
  7  6  1  0
  8  7  2  0
  9 10  1  0
 10 11  2  0
 10 20  1  0
 11 12  1  0
 12 13  2  0
 13 14  1  0
 15 14  1  6
 15 16  1  0
 15 17  1  0
 17 18  1  0
 19 13  1  0
 20 19  2  0
 21 17  2  0
M  END
$$$$
