GGY.pdb
     RDKit          3D

 21 21  0  0  1  0  0  0  0  0999 V2000
    6.1853  -20.1701   23.7748 N   0  0  0  0  0  0  0  0  0  0  0  0
    5.6141  -19.8932   22.4934 C   0  0  0  0  0  0  0  0  0  0  0  0
    6.4967  -19.0044   21.6692 C   0  0  0  0  0  0  0  0  0  0  0  0
    5.9706  -17.9627   21.1912 O   0  0  0  0  0  0  0  0  0  0  0  0
    7.8482  -19.2946   21.4257 N   0  0  0  0  0  0  0  0  0  0  0  0
    8.6482  -18.4546   20.5799 C   0  0  0  0  0  0  0  0  0  0  0  0
    9.1912  -17.3374   21.4075 C   0  0  0  0  0  0  0  0  0  0  0  0
   10.1395  -16.6410   20.9631 O   0  0  0  0  0  0  0  0  0  0  0  0
    7.2170  -12.6002   18.6004 O   0  0  0  0  0  0  0  0  0  0  0  0
    7.4681  -13.1450   19.8517 C   0  0  0  0  0  0  0  0  0  0  0  0
    6.5104  -13.9839   20.4118 C   0  0  0  0  0  0  0  0  0  0  0  0
    6.7790  -14.5092   21.6452 C   0  0  0  0  0  0  0  0  0  0  0  0
    7.9369  -14.2519   22.3523 C   0  0  0  0  0  0  0  0  0  0  0  0
    8.2111  -14.8237   23.6764 C   0  0  0  0  0  0  0  0  0  0  0  0
    9.1139  -16.0043   23.5678 C   0  0  2  0  0  0  0  0  0  0  0  0
    8.6524  -17.0481   22.6915 N   0  0  0  0  0  0  0  0  0  0  0  0
    9.4969  -16.5744   24.9005 C   0  0  0  0  0  0  0  0  0  0  0  0
    9.2250  -17.8756   25.2591 O   0  0  0  0  0  0  0  0  0  0  0  0
    8.8862  -13.4135   21.7847 C   0  0  0  0  0  0  0  0  0  0  0  0
    8.6396  -12.8654   20.5318 C   0  0  0  0  0  0  0  0  0  0  0  0
   10.0927  -15.8263   25.7165 O   0  0  0  0  0  0  0  0  0  0  0  0
  2  1  1  0
  3  2  1  0
  4  3  2  0
  5  3  1  0
  6  5  1  0
  7 16  1  0
  7  6  1  0
  8  7  2  0
  9 10  1  0
 10 11  2  0
 10 20  1  0
 11 12  1  0
 12 13  2  0
 13 14  1  0
 15 14  1  1
 15 16  1  0
 15 17  1  0
 17 18  1  0
 19 13  1  0
 20 19  2  0
 21 17  2  0
M  END
$$$$
