GGY.pdb
     RDKit          3D

 21 21  0  0  1  0  0  0  0  0999 V2000
    4.7489  -19.9247   21.7339 N   0  0  0  0  0  0  0  0  0  0  0  0
    5.5697  -19.1740   22.6325 C   0  0  0  0  0  0  0  0  0  0  0  0
    6.3530  -18.1132   21.9190 C   0  0  0  0  0  0  0  0  0  0  0  0
    7.2437  -18.5041   21.1165 O   0  0  0  0  0  0  0  0  0  0  0  0
    6.1259  -16.7422   22.1166 N   0  0  0  0  0  0  0  0  0  0  0  0
    6.9373  -15.7529   21.4655 C   0  0  0  0  0  0  0  0  0  0  0  0
    8.0508  -15.3796   22.3868 C   0  0  0  0  0  0  0  0  0  0  0  0
    8.9409  -14.5834   21.9926 O   0  0  0  0  0  0  0  0  0  0  0  0
    5.5177  -10.9366   26.6153 O   0  0  0  0  0  0  0  0  0  0  0  0
    6.3145  -12.0643   26.4771 C   0  0  0  0  0  0  0  0  0  0  0  0
    7.6862  -11.8901   26.3255 C   0  0  0  0  0  0  0  0  0  0  0  0
    8.4515  -13.0149   26.1910 C   0  0  0  0  0  0  0  0  0  0  0  0
    7.9380  -14.2968   26.1981 C   0  0  0  0  0  0  0  0  0  0  0  0
    8.7731  -15.4955   26.0525 C   0  0  0  0  0  0  0  0  0  0  0  0
    9.1936  -15.6801   24.6349 C   0  0  2  0  0  0  0  0  0  0  0  0
    8.1207  -15.9108   23.7042 N   0  0  0  0  0  0  0  0  0  0  0  0
   10.2592  -16.7218   24.4699 C   0  0  0  0  0  0  0  0  0  0  0  0
   10.1128  -17.8114   23.6411 O   0  0  0  0  0  0  0  0  0  0  0  0
    6.5681  -14.4599   26.3500 C   0  0  0  0  0  0  0  0  0  0  0  0
    5.7657  -13.3338   26.4888 C   0  0  0  0  0  0  0  0  0  0  0  0
   11.3280  -16.5845   25.1175 O   0  0  0  0  0  0  0  0  0  0  0  0
  2  1  1  0
  3  2  1  0
  4  3  2  0
  5  3  1  0
  6  5  1  0
  7 16  1  0
  7  6  1  0
  8  7  2  0
  9 10  1  0
 10 11  2  0
 10 20  1  0
 11 12  1  0
 12 13  2  0
 13 14  1  0
 15 14  1  1
 15 16  1  0
 15 17  1  0
 17 18  1  0
 19 13  1  0
 20 19  2  0
 21 17  2  0
M  END
$$$$
