GGY.pdb
     RDKit          3D

 21 21  0  0  1  0  0  0  0  0999 V2000
    8.1451  -18.9855   17.1569 N   0  0  0  0  0  0  0  0  0  0  0  0
    8.5516  -17.7344   17.7176 C   0  0  0  0  0  0  0  0  0  0  0  0
    9.9974  -17.7442   18.1146 C   0  0  0  0  0  0  0  0  0  0  0  0
   10.3670  -18.6579   18.9012 O   0  0  0  0  0  0  0  0  0  0  0  0
   10.9175  -16.7928   17.6474 N   0  0  0  0  0  0  0  0  0  0  0  0
   12.2753  -16.7802   18.1135 C   0  0  0  0  0  0  0  0  0  0  0  0
   12.3352  -15.9619   19.3604 C   0  0  0  0  0  0  0  0  0  0  0  0
   13.1759  -15.0308   19.4509 O   0  0  0  0  0  0  0  0  0  0  0  0
    7.5385  -12.4799   17.6678 O   0  0  0  0  0  0  0  0  0  0  0  0
    8.1568  -13.0918   18.7490 C   0  0  0  0  0  0  0  0  0  0  0  0
    9.4267  -12.6590   19.1163 C   0  0  0  0  0  0  0  0  0  0  0  0
   10.0165  -13.2760   20.1843 C   0  0  0  0  0  0  0  0  0  0  0  0
    9.4229  -14.2927   20.9060 C   0  0  0  0  0  0  0  0  0  0  0  0
   10.0693  -14.9458   22.0511 C   0  0  0  0  0  0  0  0  0  0  0  0
   11.4133  -15.4678   21.6747 C   0  0  2  0  0  0  0  0  0  0  0  0
   11.4558  -16.2189   20.4481 N   0  0  0  0  0  0  0  0  0  0  0  0
   12.0745  -16.2363   22.7792 C   0  0  0  0  0  0  0  0  0  0  0  0
   12.4484  -17.5549   22.6481 O   0  0  0  0  0  0  0  0  0  0  0  0
    8.1558  -14.7172   20.5315 C   0  0  0  0  0  0  0  0  0  0  0  0
    7.5322  -14.1078   19.4495 C   0  0  0  0  0  0  0  0  0  0  0  0
   12.2947  -15.6428   23.8654 O   0  0  0  0  0  0  0  0  0  0  0  0
  2  1  1  0
  3  2  1  0
  4  3  2  0
  5  3  1  0
  6  5  1  0
  7 16  1  0
  7  6  1  0
  8  7  2  0
  9 10  1  0
 10 11  2  0
 10 20  1  0
 11 12  1  0
 12 13  2  0
 13 14  1  0
 15 14  1  1
 15 16  1  0
 15 17  1  0
 17 18  1  0
 19 13  1  0
 20 19  2  0
 21 17  2  0
M  END
$$$$
