GGY.pdb
     RDKit          3D

 21 21  0  0  1  0  0  0  0  0999 V2000
    4.6305  -19.4029   21.1279 N   0  0  0  0  0  0  0  0  0  0  0  0
    5.5295  -19.1803   22.2174 C   0  0  0  0  0  0  0  0  0  0  0  0
    6.5472  -18.1275   21.8952 C   0  0  0  0  0  0  0  0  0  0  0  0
    7.6029  -18.5108   21.3217 O   0  0  0  0  0  0  0  0  0  0  0  0
    6.3589  -16.7718   22.2061 N   0  0  0  0  0  0  0  0  0  0  0  0
    7.3125  -15.7772   21.8032 C   0  0  0  0  0  0  0  0  0  0  0  0
    8.2240  -15.5082   22.9542 C   0  0  0  0  0  0  0  0  0  0  0  0
    9.1185  -14.6310   22.8447 O   0  0  0  0  0  0  0  0  0  0  0  0
    5.9728  -10.6699   26.5386 O   0  0  0  0  0  0  0  0  0  0  0  0
    6.5474  -11.9330   26.5562 C   0  0  0  0  0  0  0  0  0  0  0  0
    5.7478  -13.0274   26.2437 C   0  0  0  0  0  0  0  0  0  0  0  0
    6.3349  -14.2619   26.2673 C   0  0  0  0  0  0  0  0  0  0  0  0
    7.6629  -14.4732   26.5814 C   0  0  0  0  0  0  0  0  0  0  0  0
    8.2793  -15.8056   26.6025 C   0  0  0  0  0  0  0  0  0  0  0  0
    8.9662  -16.0928   25.3117 C   0  0  2  0  0  0  0  0  0  0  0  0
    8.0963  -16.2290   24.1735 N   0  0  0  0  0  0  0  0  0  0  0  0
    9.9039  -17.2597   25.3932 C   0  0  0  0  0  0  0  0  0  0  0  0
   10.9765  -17.2936   26.2558 O   0  0  0  0  0  0  0  0  0  0  0  0
    8.4522  -13.3746   26.8916 C   0  0  0  0  0  0  0  0  0  0  0  0
    7.8818  -12.1076   26.8755 C   0  0  0  0  0  0  0  0  0  0  0  0
    9.6925  -18.2441   24.6404 O   0  0  0  0  0  0  0  0  0  0  0  0
  2  1  1  0
  3  2  1  0
  4  3  2  0
  5  3  1  0
  6  5  1  0
  7 16  1  0
  7  6  1  0
  8  7  2  0
  9 10  1  0
 10 11  2  0
 10 20  1  0
 11 12  1  0
 12 13  2  0
 13 14  1  0
 15 14  1  1
 15 16  1  0
 15 17  1  0
 17 18  1  0
 19 13  1  0
 20 19  2  0
 21 17  2  0
M  END
$$$$
