QAM.pdb
     RDKit          3D

 23 22  0  0  1  0  0  0  0  0999 V2000
   12.1487  -19.0599   16.0746 N   0  0  0  0  0  0  0  0  0  0  0  0
   10.7281  -18.8020   16.2571 C   0  0  0  0  0  0  0  0  0  0  0  0
   10.0156  -18.8752   15.2242 O   0  0  0  0  0  0  0  0  0  0  0  0
   10.2391  -18.4797   17.5895 C   0  0  0  0  0  0  0  0  0  0  0  0
   11.2473  -18.4934   18.6937 C   0  0  0  0  0  0  0  0  0  0  0  0
   10.6066  -18.9049   19.9870 C   0  0  2  0  0  0  0  0  0  0  0  0
    9.8825  -20.1151   19.8370 N   0  0  0  0  0  0  0  0  0  0  0  0
    9.6714  -17.8304   20.4827 C   0  0  0  0  0  0  0  0  0  0  0  0
   10.0595  -16.6359   20.5423 O   0  0  0  0  0  0  0  0  0  0  0  0
    6.0561  -17.5637   21.3109 C   0  0  0  0  0  0  0  0  0  0  0  0
    7.4711  -17.0239   21.3012 C   0  0  2  0  0  0  0  0  0  0  0  0
    8.3423  -18.1126   20.8940 N   0  0  0  0  0  0  0  0  0  0  0  0
    7.8600  -16.4409   22.5894 C   0  0  0  0  0  0  0  0  0  0  0  0
    8.7897  -16.9700   23.2657 O   0  0  0  0  0  0  0  0  0  0  0  0
    6.7397  -10.5465   27.7449 C   0  0  0  0  0  0  0  0  0  0  0  0
    6.1067  -11.3587   26.2663 S   0  0  0  0  0  0  0  0  0  0  0  0
    7.1296  -12.8758   25.9965 C   0  0  0  0  0  0  0  0  0  0  0  0
    6.7373  -13.5270   24.7029 C   0  0  0  0  0  0  0  0  0  0  0  0
    7.5940  -14.7031   24.4004 C   0  0  2  0  0  0  0  0  0  0  0  0
    7.2350  -15.3031   23.1125 N   0  0  0  0  0  0  0  0  0  0  0  0
    7.4537  -15.7372   25.4224 C   0  0  0  0  0  0  0  0  0  0  0  0
    8.3686  -15.8123   26.4576 O   0  0  0  0  0  0  0  0  0  0  0  0
    6.5348  -16.5764   25.4148 O   0  0  0  0  0  0  0  0  0  0  0  0
  1  2  1  0
  2  4  1  0
  3  2  2  0
  4  5  1  0
  5  6  1  0
  6  8  1  0
  6  7  1  6
  8  9  2  0
 11 10  1  1
 11 13  1  0
 12  8  1  0
 12 11  1  0
 13 14  2  0
 16 15  1  0
 17 16  1  0
 17 18  1  0
 19 18  1  1
 19 21  1  0
 20 19  1  0
 20 13  1  0
 21 23  2  0
 21 22  1  0
M  END
$$$$
