QAM.pdb
     RDKit          3D

 23 22  0  0  1  0  0  0  0  0999 V2000
   10.1734  -13.3389   18.1355 N   0  0  0  0  0  0  0  0  0  0  0  0
    8.9701  -13.1834   17.3319 C   0  0  0  0  0  0  0  0  0  0  0  0
    9.1295  -12.6890   16.1873 O   0  0  0  0  0  0  0  0  0  0  0  0
    7.6927  -13.5959   17.8943 C   0  0  0  0  0  0  0  0  0  0  0  0
    7.7203  -14.1476   19.2839 C   0  0  0  0  0  0  0  0  0  0  0  0
    8.0952  -15.6008   19.2663 C   0  0  2  0  0  0  0  0  0  0  0  0
    7.1294  -16.3700   18.5685 N   0  0  0  0  0  0  0  0  0  0  0  0
    8.2262  -16.1332   20.6714 C   0  0  0  0  0  0  0  0  0  0  0  0
    7.2658  -16.0297   21.4764 O   0  0  0  0  0  0  0  0  0  0  0  0
   10.6200  -18.2443   22.5653 C   0  0  0  0  0  0  0  0  0  0  0  0
    9.4706  -17.2602   22.4998 C   0  0  2  0  0  0  0  0  0  0  0  0
    9.4114  -16.7608   21.1369 N   0  0  0  0  0  0  0  0  0  0  0  0
    9.5924  -16.1856   23.4902 C   0  0  0  0  0  0  0  0  0  0  0  0
   10.3848  -15.2213   23.2800 O   0  0  0  0  0  0  0  0  0  0  0  0
    6.4680  -10.9573   28.0624 C   0  0  0  0  0  0  0  0  0  0  0  0
    6.2769  -12.2190   26.7904 S   0  0  0  0  0  0  0  0  0  0  0  0
    7.8028  -13.2637   26.8241 C   0  0  0  0  0  0  0  0  0  0  0  0
    7.7377  -14.2897   25.7313 C   0  0  0  0  0  0  0  0  0  0  0  0
    8.9640  -15.1285   25.6943 C   0  0  2  0  0  0  0  0  0  0  0  0
    8.8559  -16.1809   24.6804 N   0  0  0  0  0  0  0  0  0  0  0  0
    9.1997  -15.7787   26.9807 C   0  0  0  0  0  0  0  0  0  0  0  0
    9.6371  -15.0325   28.0608 O   0  0  0  0  0  0  0  0  0  0  0  0
    9.0255  -16.9969   27.1657 O   0  0  0  0  0  0  0  0  0  0  0  0
  1  2  1  0
  2  4  1  0
  3  2  2  0
  4  5  1  0
  5  6  1  0
  6  8  1  0
  6  7  1  6
  8  9  2  0
 11 10  1  6
 11 13  1  0
 12  8  1  0
 12 11  1  0
 13 14  2  0
 16 15  1  0
 17 16  1  0
 17 18  1  0
 19 18  1  1
 19 21  1  0
 20 19  1  0
 20 13  1  0
 21 23  2  0
 21 22  1  0
M  END
$$$$
