QAM.pdb
     RDKit          3D

 23 22  0  0  1  0  0  0  0  0999 V2000
    8.6803  -13.2000   16.8313 N   0  0  0  0  0  0  0  0  0  0  0  0
    8.1441  -13.1212   18.1819 C   0  0  0  0  0  0  0  0  0  0  0  0
    7.4317  -12.1174   18.4364 O   0  0  0  0  0  0  0  0  0  0  0  0
    8.4639  -14.1811   19.1267 C   0  0  0  0  0  0  0  0  0  0  0  0
    9.3264  -15.2921   18.6191 C   0  0  0  0  0  0  0  0  0  0  0  0
    8.7191  -16.6240   18.9504 C   0  0  2  0  0  0  0  0  0  0  0  0
    7.4009  -16.7271   18.4376 N   0  0  0  0  0  0  0  0  0  0  0  0
    8.6840  -16.8359   20.4433 C   0  0  0  0  0  0  0  0  0  0  0  0
    7.7830  -16.2969   21.1351 O   0  0  0  0  0  0  0  0  0  0  0  0
   10.4834  -18.9853   22.8999 C   0  0  0  0  0  0  0  0  0  0  0  0
    9.4747  -17.9167   22.5334 C   0  0  2  0  0  0  0  0  0  0  0  0
    9.6437  -17.6350   21.1184 N   0  0  0  0  0  0  0  0  0  0  0  0
    9.5984  -16.7163   23.3669 C   0  0  0  0  0  0  0  0  0  0  0  0
   10.4265  -15.8126   23.0517 O   0  0  0  0  0  0  0  0  0  0  0  0
    6.3576  -11.2947   27.8277 C   0  0  0  0  0  0  0  0  0  0  0  0
    6.1751  -12.5915   26.5902 S   0  0  0  0  0  0  0  0  0  0  0  0
    7.7672  -13.5316   26.5456 C   0  0  0  0  0  0  0  0  0  0  0  0
    7.6906  -14.6072   25.5023 C   0  0  0  0  0  0  0  0  0  0  0  0
    8.9656  -15.3641   25.4019 C   0  0  2  0  0  0  0  0  0  0  0  0
    8.8252  -16.5241   24.5176 N   0  0  0  0  0  0  0  0  0  0  0  0
    9.3937  -15.8559   26.7089 C   0  0  0  0  0  0  0  0  0  0  0  0
    9.9756  -14.9878   27.6157 O   0  0  0  0  0  0  0  0  0  0  0  0
    9.2620  -17.0418   27.0625 O   0  0  0  0  0  0  0  0  0  0  0  0
  1  2  1  0
  2  4  1  0
  3  2  2  0
  4  5  1  0
  5  6  1  0
  6  8  1  0
  6  7  1  1
  8  9  2  0
 11 10  1  1
 11 13  1  0
 12  8  1  0
 12 11  1  0
 13 14  2  0
 16 15  1  0
 17 16  1  0
 17 18  1  0
 19 18  1  1
 19 21  1  0
 20 19  1  0
 20 13  1  0
 21 23  2  0
 21 22  1  0
M  END
$$$$
