QAM.pdb
     RDKit          3D

 23 22  0  0  1  0  0  0  0  0999 V2000
   11.8787  -20.2437   17.9069 N   0  0  0  0  0  0  0  0  0  0  0  0
   10.4269  -20.3095   17.8284 C   0  0  0  0  0  0  0  0  0  0  0  0
    9.9543  -21.1502   17.0223 O   0  0  0  0  0  0  0  0  0  0  0  0
    9.6379  -19.4167   18.6642 C   0  0  0  0  0  0  0  0  0  0  0  0
   10.3958  -18.4106   19.4701 C   0  0  0  0  0  0  0  0  0  0  0  0
    9.6459  -18.0673   20.7240 C   0  0  2  0  0  0  0  0  0  0  0  0
    8.3611  -18.6678   20.7326 N   0  0  0  0  0  0  0  0  0  0  0  0
    9.4914  -16.5731   20.8590 C   0  0  0  0  0  0  0  0  0  0  0  0
   10.5093  -15.8385   20.9317 O   0  0  0  0  0  0  0  0  0  0  0  0
    6.7699  -14.0813   20.5464 C   0  0  0  0  0  0  0  0  0  0  0  0
    8.1391  -14.4994   21.0407 C   0  0  2  0  0  0  0  0  0  0  0  0
    8.2198  -15.9438   20.9083 N   0  0  0  0  0  0  0  0  0  0  0  0
    8.4081  -14.0416   22.4077 C   0  0  0  0  0  0  0  0  0  0  0  0
    8.3764  -12.8052   22.6761 O   0  0  0  0  0  0  0  0  0  0  0  0
    7.6273  -11.5590   27.4188 C   0  0  0  0  0  0  0  0  0  0  0  0
    6.2487  -12.4336   26.6565 S   0  0  0  0  0  0  0  0  0  0  0  0
    6.7161  -14.2211   26.5717 C   0  0  0  0  0  0  0  0  0  0  0  0
    6.9904  -14.6052   25.1475 C   0  0  0  0  0  0  0  0  0  0  0  0
    8.4482  -14.6366   24.8601 C   0  0  2  0  0  0  0  0  0  0  0  0
    8.7038  -14.9305   23.4475 N   0  0  0  0  0  0  0  0  0  0  0  0
    9.1220  -15.6621   25.6524 C   0  0  0  0  0  0  0  0  0  0  0  0
    9.3682  -15.4443   26.9964 O   0  0  0  0  0  0  0  0  0  0  0  0
    9.4973  -16.7484   25.1753 O   0  0  0  0  0  0  0  0  0  0  0  0
  1  2  1  0
  2  4  1  0
  3  2  2  0
  4  5  1  0
  5  6  1  0
  6  8  1  0
  6  7  1  6
  8  9  2  0
 11 10  1  1
 11 13  1  0
 12  8  1  0
 12 11  1  0
 13 14  2  0
 16 15  1  0
 17 16  1  0
 17 18  1  0
 19 18  1  6
 19 21  1  0
 20 19  1  0
 20 13  1  0
 21 23  2  0
 21 22  1  0
M  END
$$$$
