QAM.pdb
     RDKit          3D

 23 22  0  0  1  0  0  0  0  0999 V2000
    6.0083  -20.4916   16.0735 N   0  0  0  0  0  0  0  0  0  0  0  0
    7.0525  -19.6583   16.6509 C   0  0  0  0  0  0  0  0  0  0  0  0
    7.9073  -19.2070   15.8475 O   0  0  0  0  0  0  0  0  0  0  0  0
    7.0409  -19.4125   18.0854 C   0  0  0  0  0  0  0  0  0  0  0  0
    8.1666  -18.5949   18.6333 C   0  0  0  0  0  0  0  0  0  0  0  0
    7.8930  -18.2093   20.0577 C   0  0  2  0  0  0  0  0  0  0  0  0
    6.4997  -18.1767   20.3204 N   0  0  0  0  0  0  0  0  0  0  0  0
    8.4832  -16.8558   20.3650 C   0  0  0  0  0  0  0  0  0  0  0  0
    9.7219  -16.7345   20.5435 O   0  0  0  0  0  0  0  0  0  0  0  0
    7.2619  -13.3384   20.5791 C   0  0  0  0  0  0  0  0  0  0  0  0
    8.3162  -14.4107   20.7592 C   0  0  2  0  0  0  0  0  0  0  0  0
    7.6856  -15.6856   20.4637 N   0  0  0  0  0  0  0  0  0  0  0  0
    8.9293  -14.3792   22.0910 C   0  0  0  0  0  0  0  0  0  0  0  0
   10.0292  -13.7775   22.2646 O   0  0  0  0  0  0  0  0  0  0  0  0
    7.1906  -10.6963   27.1539 C   0  0  0  0  0  0  0  0  0  0  0  0
    6.4340  -12.3312   27.1881 S   0  0  0  0  0  0  0  0  0  0  0  0
    7.7154  -13.5378   26.6198 C   0  0  0  0  0  0  0  0  0  0  0  0
    7.4445  -13.9311   25.1974 C   0  0  0  0  0  0  0  0  0  0  0  0
    8.6159  -14.6102   24.5847 C   0  0  2  0  0  0  0  0  0  0  0  0
    8.3389  -14.9978   23.1990 N   0  0  0  0  0  0  0  0  0  0  0  0
    8.9689  -15.8224   25.3191 C   0  0  0  0  0  0  0  0  0  0  0  0
    9.4195  -15.7316   26.6242 O   0  0  0  0  0  0  0  0  0  0  0  0
    8.8859  -16.9616   24.8252 O   0  0  0  0  0  0  0  0  0  0  0  0
  1  2  1  0
  2  4  1  0
  3  2  2  0
  4  5  1  0
  5  6  1  0
  6  8  1  0
  6  7  1  6
  8  9  2  0
 11 10  1  1
 11 13  1  0
 12  8  1  0
 12 11  1  0
 13 14  2  0
 16 15  1  0
 17 16  1  0
 17 18  1  0
 19 18  1  1
 19 21  1  0
 20 19  1  0
 20 13  1  0
 21 23  2  0
 21 22  1  0
M  END
$$$$
