QAM.pdb
     RDKit          3D

 23 22  0  0  1  0  0  0  0  0999 V2000
    9.9298  -13.6840   18.3553 N   0  0  0  0  0  0  0  0  0  0  0  0
    8.6965  -13.1382   17.8084 C   0  0  0  0  0  0  0  0  0  0  0  0
    8.7500  -12.7346   16.6192 O   0  0  0  0  0  0  0  0  0  0  0  0
    7.5134  -13.0926   18.6548 C   0  0  0  0  0  0  0  0  0  0  0  0
    7.6490  -13.6730   20.0262 C   0  0  0  0  0  0  0  0  0  0  0  0
    7.7073  -15.1713   19.9607 C   0  0  2  0  0  0  0  0  0  0  0  0
    6.5254  -15.7047   19.3862 N   0  0  0  0  0  0  0  0  0  0  0  0
    7.8924  -15.7570   21.3381 C   0  0  0  0  0  0  0  0  0  0  0  0
    6.9380  -15.7557   22.1567 O   0  0  0  0  0  0  0  0  0  0  0  0
   10.1644  -18.1489   22.8956 C   0  0  0  0  0  0  0  0  0  0  0  0
    9.1993  -16.9919   23.0495 C   0  0  2  0  0  0  0  0  0  0  0  0
    9.1232  -16.3232   21.7621 N   0  0  0  0  0  0  0  0  0  0  0  0
    9.5787  -16.0832   24.1363 C   0  0  0  0  0  0  0  0  0  0  0  0
   10.5668  -15.3057   23.9918 O   0  0  0  0  0  0  0  0  0  0  0  0
    5.6448  -11.1588   26.3522 C   0  0  0  0  0  0  0  0  0  0  0  0
    7.0832  -11.9247   27.1209 S   0  0  0  0  0  0  0  0  0  0  0  0
    7.4926  -13.4329   26.1316 C   0  0  0  0  0  0  0  0  0  0  0  0
    8.0361  -14.4992   27.0365 C   0  0  0  0  0  0  0  0  0  0  0  0
    9.2406  -15.1480   26.4560 C   0  0  2  0  0  0  0  0  0  0  0  0
    8.8816  -16.0385   25.3491 N   0  0  0  0  0  0  0  0  0  0  0  0
    9.9440  -15.9484   27.4549 C   0  0  0  0  0  0  0  0  0  0  0  0
    9.8886  -17.3297   27.3956 O   0  0  0  0  0  0  0  0  0  0  0  0
   10.6072  -15.4462   28.3805 O   0  0  0  0  0  0  0  0  0  0  0  0
  1  2  1  0
  2  4  1  0
  3  2  2  0
  4  5  1  0
  5  6  1  0
  6  8  1  0
  6  7  1  1
  8  9  2  0
 11 10  1  6
 11 13  1  0
 12  8  1  0
 12 11  1  0
 13 14  2  0
 16 15  1  0
 17 16  1  0
 17 18  1  0
 19 18  1  1
 19 21  1  0
 20 19  1  0
 20 13  1  0
 21 23  2  0
 21 22  1  0
M  END
$$$$
