QAM.pdb
     RDKit          3D

 23 22  0  0  1  0  0  0  0  0999 V2000
   12.2745  -13.8411   19.7244 N   0  0  0  0  0  0  0  0  0  0  0  0
   11.7442  -13.5176   18.4083 C   0  0  0  0  0  0  0  0  0  0  0  0
   12.3978  -13.9523   17.4265 O   0  0  0  0  0  0  0  0  0  0  0  0
   10.5251  -12.7277   18.3178 C   0  0  0  0  0  0  0  0  0  0  0  0
    9.4394  -13.0591   19.2912 C   0  0  0  0  0  0  0  0  0  0  0  0
    8.8429  -14.4003   18.9786 C   0  0  2  0  0  0  0  0  0  0  0  0
    7.7474  -14.2776   18.0862 N   0  0  0  0  0  0  0  0  0  0  0  0
    8.3755  -15.0817   20.2403 C   0  0  0  0  0  0  0  0  0  0  0  0
    7.3474  -14.6692   20.8353 O   0  0  0  0  0  0  0  0  0  0  0  0
    9.1914  -18.1628   22.1431 C   0  0  0  0  0  0  0  0  0  0  0  0
    8.5784  -16.7819   22.0375 C   0  0  2  0  0  0  0  0  0  0  0  0
    9.0589  -16.1933   20.7994 N   0  0  0  0  0  0  0  0  0  0  0  0
    8.8661  -15.9472   23.2085 C   0  0  0  0  0  0  0  0  0  0  0  0
    9.9626  -15.3194   23.2811 O   0  0  0  0  0  0  0  0  0  0  0  0
    6.0847  -10.7566   27.6425 C   0  0  0  0  0  0  0  0  0  0  0  0
    5.5804  -12.4729   27.4270 S   0  0  0  0  0  0  0  0  0  0  0  0
    7.1103  -13.4517   27.0771 C   0  0  0  0  0  0  0  0  0  0  0  0
    6.9418  -14.2128   25.7951 C   0  0  0  0  0  0  0  0  0  0  0  0
    8.1876  -14.9290   25.4161 C   0  0  2  0  0  0  0  0  0  0  0  0
    7.9628  -15.8130   24.2692 N   0  0  0  0  0  0  0  0  0  0  0  0
    8.6806  -15.7526   26.5170 C   0  0  0  0  0  0  0  0  0  0  0  0
    9.3146  -15.1575   27.5933 O   0  0  0  0  0  0  0  0  0  0  0  0
    8.5602  -16.9910   26.5428 O   0  0  0  0  0  0  0  0  0  0  0  0
  1  2  1  0
  2  4  1  0
  3  2  2  0
  4  5  1  0
  5  6  1  0
  6  8  1  0
  6  7  1  6
  8  9  2  0
 11 10  1  1
 11 13  1  0
 12  8  1  0
 12 11  1  0
 13 14  2  0
 16 15  1  0
 17 16  1  0
 17 18  1  0
 19 18  1  1
 19 21  1  0
 20 19  1  0
 20 13  1  0
 21 23  2  0
 21 22  1  0
M  END
$$$$
