NNT.pdb
     RDKit          3D

 24 23  0  0  1  0  0  0  0  0999 V2000
   16.0724  -14.9412  -14.5313 N   0  0  0  0  0  0  0  0  0  0  0  0
   17.4360  -14.7442  -14.8471 C   0  0  0  0  0  0  0  0  0  0  0  0
   18.2987  -15.6202  -14.5809 O   0  0  0  0  0  0  0  0  0  0  0  0
   17.9146  -13.5050  -15.5028 C   0  0  0  0  0  0  0  0  0  0  0  0
   16.7634  -12.5446  -15.5975 C   0  0  2  0  0  0  0  0  0  0  0  0
   15.7704  -13.1104  -16.4613 N   0  0  0  0  0  0  0  0  0  0  0  0
   17.2385  -11.2247  -16.1006 C   0  0  0  0  0  0  0  0  0  0  0  0
   17.8425  -11.1475  -17.1918 O   0  0  0  0  0  0  0  0  0  0  0  0
   16.4007   -5.2791  -15.2951 N   0  0  0  0  0  0  0  0  0  0  0  0
   16.6721   -6.4114  -16.1049 C   0  0  0  0  0  0  0  0  0  0  0  0
   17.2212   -6.2685  -17.2254 O   0  0  0  0  0  0  0  0  0  0  0  0
   16.2807   -7.7420  -15.5676 C   0  0  0  0  0  0  0  0  0  0  0  0
   17.3721   -8.7692  -15.7773 C   0  0  2  0  0  0  0  0  0  0  0  0
   16.9809  -10.0755  -15.3020 N   0  0  0  0  0  0  0  0  0  0  0  0
   18.5793   -8.3365  -15.0447 C   0  0  0  0  0  0  0  0  0  0  0  0
   18.6097   -8.3360  -13.7939 O   0  0  0  0  0  0  0  0  0  0  0  0
   22.1712   -9.6265  -15.6548 C   0  0  0  0  0  0  0  0  0  0  0  0
   22.0986   -8.1547  -15.8989 C   0  0  1  0  0  0  0  0  0  0  0  0
   21.9055   -7.8213  -17.2390 O   0  0  0  0  0  0  0  0  0  0  0  0
   20.9534   -7.5416  -15.1147 C   0  0  2  0  0  0  0  0  0  0  0  0
   19.7184   -7.9161  -15.7746 N   0  0  0  0  0  0  0  0  0  0  0  0
   21.0700   -6.0874  -14.9937 C   0  0  0  0  0  0  0  0  0  0  0  0
   22.1342   -5.5203  -14.3165 O   0  0  0  0  0  0  0  0  0  0  0  0
   20.2125   -5.3304  -15.4985 O   0  0  0  0  0  0  0  0  0  0  0  0
  2  1  1  0
  2  3  2  0
  4  5  1  0
  4  2  1  0
  5  6  1  6
  7  5  1  0
  8  7  2  0
  9 10  1  0
 10 12  1  0
 11 10  2  0
 13 12  1  1
 13 15  1  0
 13 14  1  0
 14  7  1  0
 15 21  1  0
 16 15  2  0
 18 19  1  0
 18 17  1  6
 20 18  1  0
 20 22  1  0
 20 21  1  6
 22 24  2  0
 22 23  1  0
M  END
$$$$
