NNT.pdb
     RDKit          3D

 24 23  0  0  1  0  0  0  0  0999 V2000
   16.1702  -13.4039  -15.4060 N   0  0  0  0  0  0  0  0  0  0  0  0
   17.1796  -12.7222  -16.1230 C   0  0  0  0  0  0  0  0  0  0  0  0
   17.1235  -12.6060  -17.3744 O   0  0  0  0  0  0  0  0  0  0  0  0
   18.3464  -12.1143  -15.4419 C   0  0  0  0  0  0  0  0  0  0  0  0
   18.7623  -10.8943  -16.2135 C   0  0  2  0  0  0  0  0  0  0  0  0
   19.3684  -11.3183  -17.4404 N   0  0  0  0  0  0  0  0  0  0  0  0
   19.6968  -10.0676  -15.3985 C   0  0  0  0  0  0  0  0  0  0  0  0
   19.4016   -9.7566  -14.2248 O   0  0  0  0  0  0  0  0  0  0  0  0
   23.9931  -11.7583  -15.6180 N   0  0  0  0  0  0  0  0  0  0  0  0
   23.5807  -10.6716  -14.8053 C   0  0  0  0  0  0  0  0  0  0  0  0
   23.4664  -10.8205  -13.5635 O   0  0  0  0  0  0  0  0  0  0  0  0
   23.2988   -9.3803  -15.4874 C   0  0  0  0  0  0  0  0  0  0  0  0
   21.8840   -8.9107  -15.2258 C   0  0  2  0  0  0  0  0  0  0  0  0
   20.9179   -9.6538  -16.0004 N   0  0  0  0  0  0  0  0  0  0  0  0
   21.7839   -7.4811  -15.5826 C   0  0  0  0  0  0  0  0  0  0  0  0
   22.0287   -7.0872  -16.7447 O   0  0  0  0  0  0  0  0  0  0  0  0
   18.9900   -5.4780  -15.7901 C   0  0  0  0  0  0  0  0  0  0  0  0
   19.7976   -4.7753  -14.7485 C   0  0  1  0  0  0  0  0  0  0  0  0
   19.4164   -5.0870  -13.4439 O   0  0  0  0  0  0  0  0  0  0  0  0
   21.2661   -5.1323  -14.8840 C   0  0  2  0  0  0  0  0  0  0  0  0
   21.4043   -6.5447  -14.5895 N   0  0  0  0  0  0  0  0  0  0  0  0
   22.1237   -4.3234  -14.0160 C   0  0  0  0  0  0  0  0  0  0  0  0
   22.3240   -2.9804  -14.2782 O   0  0  0  0  0  0  0  0  0  0  0  0
   22.6908   -4.8286  -13.0229 O   0  0  0  0  0  0  0  0  0  0  0  0
  2  1  1  0
  2  3  2  0
  4  5  1  0
  4  2  1  0
  5  6  1  6
  7  5  1  0
  8  7  2  0
  9 10  1  0
 10 12  1  0
 11 10  2  0
 13 12  1  6
 13 15  1  0
 13 14  1  0
 14  7  1  0
 15 21  1  0
 16 15  2  0
 18 19  1  0
 18 17  1  6
 20 18  1  0
 20 22  1  0
 20 21  1  1
 22 24  2  0
 22 23  1  0
M  END
$$$$
