NNT.pdb
     RDKit          3D

 24 23  0  0  1  0  0  0  0  0999 V2000
   12.6401  -11.1766  -11.5122 N   0  0  0  0  0  0  0  0  0  0  0  0
   13.7021  -11.3385  -10.5935 C   0  0  0  0  0  0  0  0  0  0  0  0
   13.5791  -12.0728   -9.5795 O   0  0  0  0  0  0  0  0  0  0  0  0
   15.0043  -10.6564  -10.7772 C   0  0  0  0  0  0  0  0  0  0  0  0
   14.9400   -9.8457  -12.0403 C   0  0  2  0  0  0  0  0  0  0  0  0
   14.7865  -10.7419  -13.1474 N   0  0  0  0  0  0  0  0  0  0  0  0
   16.1683   -9.0129  -12.1766 C   0  0  0  0  0  0  0  0  0  0  0  0
   16.4487   -8.1582  -11.3091 O   0  0  0  0  0  0  0  0  0  0  0  0
   20.3942   -6.9326  -13.8823 N   0  0  0  0  0  0  0  0  0  0  0  0
   20.4953   -8.2795  -14.3150 C   0  0  0  0  0  0  0  0  0  0  0  0
   21.5837   -8.7181  -14.7627 O   0  0  0  0  0  0  0  0  0  0  0  0
   19.2733   -9.1211  -14.2118 C   0  0  0  0  0  0  0  0  0  0  0  0
   18.1404   -8.3761  -13.5395 C   0  0  2  0  0  0  0  0  0  0  0  0
   16.9949   -9.2264  -13.3149 N   0  0  0  0  0  0  0  0  0  0  0  0
   17.7355   -7.2477  -14.4020 C   0  0  0  0  0  0  0  0  0  0  0  0
   17.5294   -7.4118  -15.6252 O   0  0  0  0  0  0  0  0  0  0  0  0
   14.7488   -5.1372  -14.1486 C   0  0  0  0  0  0  0  0  0  0  0  0
   15.9235   -4.2346  -13.9578 C   0  0  1  0  0  0  0  0  0  0  0  0
   16.2414   -4.0096  -12.6188 O   0  0  0  0  0  0  0  0  0  0  0  0
   17.1571   -4.8205  -14.6192 C   0  0  2  0  0  0  0  0  0  0  0  0
   17.5793   -5.9608  -13.8304 N   0  0  0  0  0  0  0  0  0  0  0  0
   18.2379   -3.8431  -14.7589 C   0  0  0  0  0  0  0  0  0  0  0  0
   19.4123   -3.9848  -14.0426 O   0  0  0  0  0  0  0  0  0  0  0  0
   18.1217   -2.8630  -15.5265 O   0  0  0  0  0  0  0  0  0  0  0  0
  2  1  1  0
  2  3  2  0
  4  5  1  0
  4  2  1  0
  5  6  1  6
  7  5  1  0
  8  7  2  0
  9 10  1  0
 10 12  1  0
 11 10  2  0
 13 12  1  6
 13 15  1  0
 13 14  1  0
 14  7  1  0
 15 21  1  0
 16 15  2  0
 18 19  1  0
 18 17  1  1
 20 18  1  0
 20 22  1  0
 20 21  1  1
 22 24  2  0
 22 23  1  0
M  END
$$$$
