NNT.pdb
     RDKit          3D

 24 23  0  0  1  0  0  0  0  0999 V2000
   15.5968  -11.4556  -17.4238 N   0  0  0  0  0  0  0  0  0  0  0  0
   16.8563  -10.8484  -17.6313 C   0  0  0  0  0  0  0  0  0  0  0  0
   17.4232  -10.8927  -18.7534 O   0  0  0  0  0  0  0  0  0  0  0  0
   17.5673  -10.1341  -16.5453 C   0  0  0  0  0  0  0  0  0  0  0  0
   19.0118  -10.5453  -16.5749 C   0  0  2  0  0  0  0  0  0  0  0  0
   19.0943  -11.9370  -16.2453 N   0  0  0  0  0  0  0  0  0  0  0  0
   19.8008   -9.7104  -15.6253 C   0  0  0  0  0  0  0  0  0  0  0  0
   19.4772   -9.6525  -14.4197 O   0  0  0  0  0  0  0  0  0  0  0  0
   23.7934  -11.1360  -14.9681 N   0  0  0  0  0  0  0  0  0  0  0  0
   23.2191   -9.9937  -14.3544 C   0  0  0  0  0  0  0  0  0  0  0  0
   22.7915  -10.0590  -13.1753 O   0  0  0  0  0  0  0  0  0  0  0  0
   23.1532   -8.7473  -15.1634 C   0  0  0  0  0  0  0  0  0  0  0  0
   21.7400   -8.2116  -15.2450 C   0  0  2  0  0  0  0  0  0  0  0  0
   20.9182   -8.9942  -16.1381 N   0  0  0  0  0  0  0  0  0  0  0  0
   21.7869   -6.8196  -15.7360 C   0  0  0  0  0  0  0  0  0  0  0  0
   22.3273   -6.5385  -16.8290 O   0  0  0  0  0  0  0  0  0  0  0  0
   18.8489   -4.6675  -16.2177 C   0  0  0  0  0  0  0  0  0  0  0  0
   19.7422   -3.9245  -15.2791 C   0  0  1  0  0  0  0  0  0  0  0  0
   19.3789   -4.0600  -13.9397 O   0  0  0  0  0  0  0  0  0  0  0  0
   21.1728   -4.4138  -15.4074 C   0  0  2  0  0  0  0  0  0  0  0  0
   21.2094   -5.7896  -14.9532 N   0  0  0  0  0  0  0  0  0  0  0  0
   22.1199   -3.5836  -14.6611 C   0  0  0  0  0  0  0  0  0  0  0  0
   22.3802   -2.2840  -15.0560 O   0  0  0  0  0  0  0  0  0  0  0  0
   22.7110   -4.0311  -13.6544 O   0  0  0  0  0  0  0  0  0  0  0  0
  2  1  1  0
  2  3  2  0
  4  5  1  0
  4  2  1  0
  5  6  1  1
  7  5  1  0
  8  7  2  0
  9 10  1  0
 10 12  1  0
 11 10  2  0
 13 12  1  6
 13 15  1  0
 13 14  1  0
 14  7  1  0
 15 21  1  0
 16 15  2  0
 18 19  1  0
 18 17  1  6
 20 18  1  0
 20 22  1  0
 20 21  1  1
 22 24  2  0
 22 23  1  0
M  END
$$$$
