NNT.pdb
     RDKit          3D

 24 23  0  0  1  0  0  0  0  0999 V2000
   13.5383   -8.2540  -15.5187 N   0  0  0  0  0  0  0  0  0  0  0  0
   14.2552   -9.2770  -14.8573 C   0  0  0  0  0  0  0  0  0  0  0  0
   13.9933  -10.4907  -15.0599 O   0  0  0  0  0  0  0  0  0  0  0  0
   15.3435   -8.9737  -13.8989 C   0  0  0  0  0  0  0  0  0  0  0  0
   16.6513   -9.3568  -14.5311 C   0  0  2  0  0  0  0  0  0  0  0  0
   16.8481  -10.7641  -14.3493 N   0  0  0  0  0  0  0  0  0  0  0  0
   17.7617   -8.5666  -13.9281 C   0  0  0  0  0  0  0  0  0  0  0  0
   17.7870   -8.3548  -12.6968 O   0  0  0  0  0  0  0  0  0  0  0  0
   22.2212   -6.6813  -12.6431 N   0  0  0  0  0  0  0  0  0  0  0  0
   22.3557   -7.4717  -13.8130 C   0  0  0  0  0  0  0  0  0  0  0  0
   23.4503   -7.5074  -14.4277 O   0  0  0  0  0  0  0  0  0  0  0  0
   21.1601   -8.2356  -14.2594 C   0  0  0  0  0  0  0  0  0  0  0  0
   19.9144   -7.3763  -14.2457 C   0  0  2  0  0  0  0  0  0  0  0  0
   18.7745   -8.0714  -14.7962 N   0  0  0  0  0  0  0  0  0  0  0  0
   20.1658   -6.1619  -15.0476 C   0  0  0  0  0  0  0  0  0  0  0  0
   20.3935   -6.2349  -16.2757 O   0  0  0  0  0  0  0  0  0  0  0  0
   17.9736   -3.3355  -15.5861 C   0  0  0  0  0  0  0  0  0  0  0  0
   19.1865   -2.7639  -14.9279 C   0  0  1  0  0  0  0  0  0  0  0  0
   19.0441   -2.5911  -13.5516 O   0  0  0  0  0  0  0  0  0  0  0  0
   20.3851   -3.6688  -15.1446 C   0  0  2  0  0  0  0  0  0  0  0  0
   20.1478   -4.8962  -14.4112 N   0  0  0  0  0  0  0  0  0  0  0  0
   21.6436   -3.0421  -14.7364 C   0  0  0  0  0  0  0  0  0  0  0  0
   22.1589   -1.9713  -15.4438 O   0  0  0  0  0  0  0  0  0  0  0  0
   22.2765   -3.4609  -13.7428 O   0  0  0  0  0  0  0  0  0  0  0  0
  2  1  1  0
  2  3  2  0
  4  5  1  0
  4  2  1  0
  5  6  1  1
  7  5  1  0
  8  7  2  0
  9 10  1  0
 10 12  1  0
 11 10  2  0
 13 12  1  6
 13 15  1  0
 13 14  1  0
 14  7  1  0
 15 21  1  0
 16 15  2  0
 18 19  1  0
 18 17  1  1
 20 18  1  0
 20 22  1  0
 20 21  1  1
 22 24  2  0
 22 23  1  0
M  END
$$$$
