NNT.pdb
     RDKit          3D

 24 23  0  0  1  0  0  0  0  0999 V2000
   16.4109  -13.2735  -17.9174 N   0  0  0  0  0  0  0  0  0  0  0  0
   15.4763  -12.8363  -16.9512 C   0  0  0  0  0  0  0  0  0  0  0  0
   14.3012  -13.2849  -16.9329 O   0  0  0  0  0  0  0  0  0  0  0  0
   15.8311  -11.8348  -15.9187 C   0  0  0  0  0  0  0  0  0  0  0  0
   17.2632  -11.4304  -16.1240 C   0  0  2  0  0  0  0  0  0  0  0  0
   18.1052  -12.5013  -15.6808 N   0  0  0  0  0  0  0  0  0  0  0  0
   17.5490  -10.1680  -15.3853 C   0  0  0  0  0  0  0  0  0  0  0  0
   16.9482   -9.9125  -14.3198 O   0  0  0  0  0  0  0  0  0  0  0  0
   20.2110   -9.0077  -13.0926 N   0  0  0  0  0  0  0  0  0  0  0  0
   21.0240   -8.3469  -14.0486 C   0  0  0  0  0  0  0  0  0  0  0  0
   22.2613   -8.2427  -13.8600 O   0  0  0  0  0  0  0  0  0  0  0  0
   20.3478   -7.7989  -15.2547 C   0  0  0  0  0  0  0  0  0  0  0  0
   18.8587   -8.0676  -15.2274 C   0  0  2  0  0  0  0  0  0  0  0  0
   18.5171   -9.2805  -15.9328 N   0  0  0  0  0  0  0  0  0  0  0  0
   18.1592   -6.9327  -15.8628 C   0  0  0  0  0  0  0  0  0  0  0  0
   18.2444   -6.7298  -17.0945 O   0  0  0  0  0  0  0  0  0  0  0  0
   14.4198   -6.0031  -15.4506 C   0  0  0  0  0  0  0  0  0  0  0  0
   15.2913   -4.8953  -14.9562 C   0  0  1  0  0  0  0  0  0  0  0  0
   15.5115   -4.9319  -13.5798 O   0  0  0  0  0  0  0  0  0  0  0  0
   16.6502   -4.9473  -15.6293 C   0  0  2  0  0  0  0  0  0  0  0  0
   17.3804   -6.0626  -15.0605 N   0  0  0  0  0  0  0  0  0  0  0  0
   17.3968   -3.6963  -15.4857 C   0  0  0  0  0  0  0  0  0  0  0  0
   18.5735   -3.6579  -14.7600 O   0  0  0  0  0  0  0  0  0  0  0  0
   16.9873   -2.6400  -16.0146 O   0  0  0  0  0  0  0  0  0  0  0  0
  2  1  1  0
  2  3  2  0
  4  5  1  0
  4  2  1  0
  5  6  1  1
  7  5  1  0
  8  7  2  0
  9 10  1  0
 10 12  1  0
 11 10  2  0
 13 12  1  6
 13 15  1  0
 13 14  1  0
 14  7  1  0
 15 21  1  0
 16 15  2  0
 18 19  1  0
 18 17  1  6
 20 18  1  0
 20 22  1  0
 20 21  1  1
 22 24  2  0
 22 23  1  0
M  END
$$$$
