NNT.pdb
     RDKit          3D

 24 23  0  0  1  0  0  0  0  0999 V2000
   20.1267  -12.3868  -16.0725 N   0  0  0  0  0  0  0  0  0  0  0  0
   20.6063  -11.1872  -16.6460 C   0  0  0  0  0  0  0  0  0  0  0  0
   21.4498  -11.2039  -17.5792 O   0  0  0  0  0  0  0  0  0  0  0  0
   20.1431   -9.8593  -16.1805 C   0  0  0  0  0  0  0  0  0  0  0  0
   19.1144  -10.0669  -15.1056 C   0  0  2  0  0  0  0  0  0  0  0  0
   17.9211  -10.5771  -15.7120 N   0  0  0  0  0  0  0  0  0  0  0  0
   18.8589   -8.7860  -14.3879 C   0  0  0  0  0  0  0  0  0  0  0  0
   18.0905   -7.9317  -14.8792 O   0  0  0  0  0  0  0  0  0  0  0  0
   18.8953   -5.1222  -10.9487 N   0  0  0  0  0  0  0  0  0  0  0  0
   19.0042   -6.3103  -10.1818 C   0  0  0  0  0  0  0  0  0  0  0  0
   18.9395   -6.2602   -8.9285 O   0  0  0  0  0  0  0  0  0  0  0  0
   19.1943   -7.5848  -10.9246 C   0  0  0  0  0  0  0  0  0  0  0  0
   19.3014   -7.3485  -12.4156 C   0  0  2  0  0  0  0  0  0  0  0  0
   19.5140   -8.5785  -13.1420 N   0  0  0  0  0  0  0  0  0  0  0  0
   20.4370   -6.4400  -12.6726 C   0  0  0  0  0  0  0  0  0  0  0  0
   21.5778   -6.6895  -12.2234 O   0  0  0  0  0  0  0  0  0  0  0  0
   20.5927   -4.8515  -16.1995 C   0  0  0  0  0  0  0  0  0  0  0  0
   21.7478   -4.9016  -15.2538 C   0  0  1  0  0  0  0  0  0  0  0  0
   22.8253   -4.1094  -15.6484 O   0  0  0  0  0  0  0  0  0  0  0  0
   21.3263   -4.4305  -13.8744 C   0  0  2  0  0  0  0  0  0  0  0  0
   20.2260   -5.2683  -13.4407 N   0  0  0  0  0  0  0  0  0  0  0  0
   20.9550   -3.0146  -13.8531 C   0  0  0  0  0  0  0  0  0  0  0  0
   21.9202   -2.0317  -13.9753 O   0  0  0  0  0  0  0  0  0  0  0  0
   19.7613   -2.6659  -13.7244 O   0  0  0  0  0  0  0  0  0  0  0  0
  2  1  1  0
  2  3  2  0
  4  5  1  0
  4  2  1  0
  5  6  1  6
  7  5  1  0
  8  7  2  0
  9 10  1  0
 10 12  1  0
 11 10  2  0
 13 12  1  1
 13 15  1  0
 13 14  1  0
 14  7  1  0
 15 21  1  0
 16 15  2  0
 18 19  1  0
 18 17  1  6
 20 18  1  0
 20 22  1  0
 20 21  1  6
 22 24  2  0
 22 23  1  0
M  END
$$$$
