NNT.pdb
     RDKit          3D

 24 23  0  0  1  0  0  0  0  0999 V2000
   22.6972  -10.3180  -20.0500 N   0  0  0  0  0  0  0  0  0  0  0  0
   21.3340   -9.9482  -20.1039 C   0  0  0  0  0  0  0  0  0  0  0  0
   20.5170  -10.5774  -20.8244 O   0  0  0  0  0  0  0  0  0  0  0  0
   20.8024   -8.8090  -19.3200 C   0  0  0  0  0  0  0  0  0  0  0  0
   20.0385   -9.3563  -18.1480 C   0  0  2  0  0  0  0  0  0  0  0  0
   18.7938   -9.8825  -18.6234 N   0  0  0  0  0  0  0  0  0  0  0  0
   19.8281   -8.2879  -17.1306 C   0  0  0  0  0  0  0  0  0  0  0  0
   19.3122   -7.1983  -17.4597 O   0  0  0  0  0  0  0  0  0  0  0  0
   17.8071   -8.9026  -14.1781 N   0  0  0  0  0  0  0  0  0  0  0  0
   18.7337   -8.8119  -13.1081 C   0  0  0  0  0  0  0  0  0  0  0  0
   18.4464   -9.2900  -11.9828 O   0  0  0  0  0  0  0  0  0  0  0  0
   20.0298   -8.1371  -13.3855 C   0  0  0  0  0  0  0  0  0  0  0  0
   20.0599   -7.5416  -14.7766 C   0  0  2  0  0  0  0  0  0  0  0  0
   20.2314   -8.5538  -15.7922 N   0  0  0  0  0  0  0  0  0  0  0  0
   21.1829   -6.5861  -14.8605 C   0  0  0  0  0  0  0  0  0  0  0  0
   22.3504   -6.9798  -15.0784 O   0  0  0  0  0  0  0  0  0  0  0  0
   21.0761   -3.4790  -17.0238 C   0  0  0  0  0  0  0  0  0  0  0  0
   21.4009   -3.0505  -15.6303 C   0  0  1  0  0  0  0  0  0  0  0  0
   20.2979   -2.5736  -14.9230 O   0  0  0  0  0  0  0  0  0  0  0  0
   21.9748   -4.2101  -14.8376 C   0  0  2  0  0  0  0  0  0  0  0  0
   20.9289   -5.2027  -14.6908 N   0  0  0  0  0  0  0  0  0  0  0  0
   22.4992   -3.7958  -13.5352 C   0  0  0  0  0  0  0  0  0  0  0  0
   21.9062   -4.2346  -12.3654 O   0  0  0  0  0  0  0  0  0  0  0  0
   23.4911   -3.0390  -13.4539 O   0  0  0  0  0  0  0  0  0  0  0  0
  2  1  1  0
  2  3  2  0
  4  5  1  0
  4  2  1  0
  5  6  1  6
  7  5  1  0
  8  7  2  0
  9 10  1  0
 10 12  1  0
 11 10  2  0
 13 12  1  1
 13 15  1  0
 13 14  1  0
 14  7  1  0
 15 21  1  0
 16 15  2  0
 18 19  1  0
 18 17  1  6
 20 18  1  0
 20 22  1  0
 20 21  1  1
 22 24  2  0
 22 23  1  0
M  END
$$$$
