NNT.pdb
     RDKit          3D

 24 23  0  0  1  0  0  0  0  0999 V2000
   23.3272  -13.3106  -18.8710 N   0  0  0  0  0  0  0  0  0  0  0  0
   22.1635  -12.8561  -19.5322 C   0  0  0  0  0  0  0  0  0  0  0  0
   21.8684  -13.2649  -20.6848 O   0  0  0  0  0  0  0  0  0  0  0  0
   21.2393  -11.8824  -18.9057 C   0  0  0  0  0  0  0  0  0  0  0  0
   21.7925  -11.5016  -17.5620 C   0  0  2  0  0  0  0  0  0  0  0  0
   21.4479  -12.5267  -16.6224 N   0  0  0  0  0  0  0  0  0  0  0  0
   21.2565  -10.1749  -17.1455 C   0  0  0  0  0  0  0  0  0  0  0  0
   21.4417   -9.1682  -17.8623 O   0  0  0  0  0  0  0  0  0  0  0  0
   17.1788  -10.9388  -14.9596 N   0  0  0  0  0  0  0  0  0  0  0  0
   17.6027   -9.6388  -15.3361 C   0  0  0  0  0  0  0  0  0  0  0  0
   17.0106   -9.0246  -16.2579 O   0  0  0  0  0  0  0  0  0  0  0  0
   18.7566   -9.0588  -14.5983 C   0  0  0  0  0  0  0  0  0  0  0  0
   19.9489   -8.8496  -15.5067 C   0  0  2  0  0  0  0  0  0  0  0  0
   20.5377  -10.1019  -15.9197 N   0  0  0  0  0  0  0  0  0  0  0  0
   20.9654   -8.0600  -14.7827 C   0  0  0  0  0  0  0  0  0  0  0  0
   21.6004   -8.5504  -13.8226 O   0  0  0  0  0  0  0  0  0  0  0  0
   23.9032   -6.4825  -16.3652 C   0  0  0  0  0  0  0  0  0  0  0  0
   23.1366   -5.3837  -15.7049 C   0  0  1  0  0  0  0  0  0  0  0  0
   22.2898   -4.6957  -16.5732 O   0  0  0  0  0  0  0  0  0  0  0  0
   22.2765   -5.9353  -14.5831 C   0  0  2  0  0  0  0  0  0  0  0  0
   21.2219   -6.7261  -15.1856 N   0  0  0  0  0  0  0  0  0  0  0  0
   21.7268   -4.8829  -13.7269 C   0  0  0  0  0  0  0  0  0  0  0  0
   22.5530   -4.1470  -12.8970 O   0  0  0  0  0  0  0  0  0  0  0  0
   20.5027   -4.6283  -13.7282 O   0  0  0  0  0  0  0  0  0  0  0  0
  2  1  1  0
  2  3  2  0
  4  5  1  0
  4  2  1  0
  5  6  1  1
  7  5  1  0
  8  7  2  0
  9 10  1  0
 10 12  1  0
 11 10  2  0
 13 12  1  1
 13 15  1  0
 13 14  1  0
 14  7  1  0
 15 21  1  0
 16 15  2  0
 18 19  1  0
 18 17  1  6
 20 18  1  0
 20 22  1  0
 20 21  1  6
 22 24  2  0
 22 23  1  0
M  END
$$$$
