NNT.pdb
     RDKit          3D

 24 23  0  0  1  0  0  0  0  0999 V2000
   14.4462  -13.1721  -15.5115 N   0  0  0  0  0  0  0  0  0  0  0  0
   15.5842  -13.8456  -15.0122 C   0  0  0  0  0  0  0  0  0  0  0  0
   15.4866  -14.6864  -14.0815 O   0  0  0  0  0  0  0  0  0  0  0  0
   16.9398  -13.5971  -15.5559 C   0  0  0  0  0  0  0  0  0  0  0  0
   16.8352  -12.5497  -16.6277 C   0  0  2  0  0  0  0  0  0  0  0  0
   16.5952  -13.2038  -17.8794 N   0  0  0  0  0  0  0  0  0  0  0  0
   18.0808  -11.7324  -16.6673 C   0  0  0  0  0  0  0  0  0  0  0  0
   18.9875  -11.9260  -15.8294 O   0  0  0  0  0  0  0  0  0  0  0  0
   22.0398   -9.1690  -19.6374 N   0  0  0  0  0  0  0  0  0  0  0  0
   20.8141   -8.5566  -19.2710 C   0  0  0  0  0  0  0  0  0  0  0  0
   20.7717   -7.3247  -19.0304 O   0  0  0  0  0  0  0  0  0  0  0  0
   19.6138   -9.4312  -19.1899 C   0  0  0  0  0  0  0  0  0  0  0  0
   19.4035   -9.9578  -17.7867 C   0  0  2  0  0  0  0  0  0  0  0  0
   18.1941  -10.7396  -17.6803 N   0  0  0  0  0  0  0  0  0  0  0  0
   19.3153   -8.8132  -16.8576 C   0  0  0  0  0  0  0  0  0  0  0  0
   18.2572   -8.1554  -16.7424 O   0  0  0  0  0  0  0  0  0  0  0  0
   20.0708   -8.7519  -13.1618 C   0  0  0  0  0  0  0  0  0  0  0  0
   21.0145   -7.8195  -13.8483 C   0  0  1  0  0  0  0  0  0  0  0  0
   22.2534   -8.3918  -14.1343 O   0  0  0  0  0  0  0  0  0  0  0  0
   20.4271   -7.3415  -15.1631 C   0  0  2  0  0  0  0  0  0  0  0  0
   20.4498   -8.4582  -16.0867 N   0  0  0  0  0  0  0  0  0  0  0  0
   21.1403   -6.1862  -15.7104 C   0  0  0  0  0  0  0  0  0  0  0  0
   21.1763   -4.9888  -15.0193 O   0  0  0  0  0  0  0  0  0  0  0  0
   21.7298   -6.2580  -16.8107 O   0  0  0  0  0  0  0  0  0  0  0  0
  2  1  1  0
  2  3  2  0
  4  5  1  0
  4  2  1  0
  5  6  1  6
  7  5  1  0
  8  7  2  0
  9 10  1  0
 10 12  1  0
 11 10  2  0
 13 12  1  6
 13 15  1  0
 13 14  1  0
 14  7  1  0
 15 21  1  0
 16 15  2  0
 18 19  1  0
 18 17  1  6
 20 18  1  0
 20 22  1  0
 20 21  1  6
 22 24  2  0
 22 23  1  0
M  END
$$$$
