NNT.pdb
     RDKit          3D

 24 23  0  0  1  0  0  0  0  0999 V2000
   22.9044  -19.7984  -19.8656 N   0  0  0  0  0  0  0  0  0  0  0  0
   22.2463  -20.0245  -18.6352 C   0  0  0  0  0  0  0  0  0  0  0  0
   21.7070  -21.1319  -18.3796 O   0  0  0  0  0  0  0  0  0  0  0  0
   22.1592  -18.9762  -17.5920 C   0  0  0  0  0  0  0  0  0  0  0  0
   22.8880  -17.7579  -18.0832 C   0  0  2  0  0  0  0  0  0  0  0  0
   24.2941  -17.9692  -17.9085 N   0  0  0  0  0  0  0  0  0  0  0  0
   22.4203  -16.5502  -17.3458 C   0  0  0  0  0  0  0  0  0  0  0  0
   22.4256  -16.5344  -16.0963 O   0  0  0  0  0  0  0  0  0  0  0  0
   22.1625  -11.4105  -16.0025 N   0  0  0  0  0  0  0  0  0  0  0  0
   21.6901  -11.7740  -17.2894 C   0  0  0  0  0  0  0  0  0  0  0  0
   20.8312  -11.0647  -17.8696 O   0  0  0  0  0  0  0  0  0  0  0  0
   22.2534  -13.0090  -17.8974 C   0  0  0  0  0  0  0  0  0  0  0  0
   21.5108  -14.2444  -17.4359 C   0  0  2  0  0  0  0  0  0  0  0  0
   21.9751  -15.4348  -18.1089 N   0  0  0  0  0  0  0  0  0  0  0  0
   20.0720  -14.0672  -17.7177 C   0  0  0  0  0  0  0  0  0  0  0  0
   19.6360  -14.0922  -18.8903 O   0  0  0  0  0  0  0  0  0  0  0  0
   17.3515  -16.0158  -16.0463 C   0  0  0  0  0  0  0  0  0  0  0  0
   17.0357  -14.5725  -15.8263 C   0  0  1  0  0  0  0  0  0  0  0  0
   17.4067  -14.1072  -14.5653 O   0  0  0  0  0  0  0  0  0  0  0  0
   17.7497  -13.7100  -16.8504 C   0  0  2  0  0  0  0  0  0  0  0  0
   19.1751  -13.8660  -16.6396 N   0  0  0  0  0  0  0  0  0  0  0  0
   17.3532  -12.3029  -16.7745 C   0  0  0  0  0  0  0  0  0  0  0  0
   16.0633  -11.9167  -17.0900 O   0  0  0  0  0  0  0  0  0  0  0  0
   18.1703  -11.4238  -16.4238 O   0  0  0  0  0  0  0  0  0  0  0  0
  2  1  1  0
  2  3  2  0
  4  5  1  0
  4  2  1  0
  5  6  1  1
  7  5  1  0
  8  7  2  0
  9 10  1  0
 10 12  1  0
 11 10  2  0
 13 12  1  6
 13 15  1  0
 13 14  1  0
 14  7  1  0
 15 21  1  0
 16 15  2  0
 18 19  1  0
 18 17  1  1
 20 18  1  0
 20 22  1  0
 20 21  1  1
 22 24  2  0
 22 23  1  0
M  END
$$$$
