LNM.pdb
     RDKit          3D

 25 24  0  0  1  0  0  0  0  0999 V2000
   28.9454  -19.0079  -16.7598 C   0  0  0  0  0  0  0  0  0  0  0  0
   27.7983  -18.0282  -16.6176 C   0  0  2  0  0  0  0  0  0  0  0  0
   28.1833  -16.6532  -17.1296 C   0  0  0  0  0  0  0  0  0  0  0  0
   27.1786  -18.0023  -15.2750 C   0  0  0  0  0  0  0  0  0  0  0  0
   27.1828  -19.2605  -14.4888 C   0  0  2  0  0  0  0  0  0  0  0  0
   26.8034  -20.4400  -15.1493 N   0  0  0  0  0  0  0  0  0  0  0  0
   26.4652  -19.1617  -13.1860 C   0  0  0  0  0  0  0  0  0  0  0  0
   26.5765  -18.0401  -12.5646 O   0  0  0  0  0  0  0  0  0  0  0  0
   22.0791  -20.8429  -13.6921 N   0  0  0  0  0  0  0  0  0  0  0  0
   22.5959  -20.2261  -12.4799 C   0  0  0  0  0  0  0  0  0  0  0  0
   22.0455  -19.1607  -12.1778 O   0  0  0  0  0  0  0  0  0  0  0  0
   23.6669  -20.8584  -11.7346 C   0  0  0  0  0  0  0  0  0  0  0  0
   24.8958  -20.0315  -11.4222 C   0  0  2  0  0  0  0  0  0  0  0  0
   25.7076  -20.2149  -12.6518 N   0  0  0  0  0  0  0  0  0  0  0  0
   25.6722  -20.5210  -10.2783 C   0  0  0  0  0  0  0  0  0  0  0  0
   26.1753  -21.7099  -10.3861 O   0  0  0  0  0  0  0  0  0  0  0  0
   29.2343  -19.5286   -3.3406 C   0  0  0  0  0  0  0  0  0  0  0  0
   28.5725  -18.7719   -4.8485 S   0  0  0  0  0  0  0  0  0  0  0  0
   27.7426  -20.0860   -5.7819 C   0  0  0  0  0  0  0  0  0  0  0  0
   27.2255  -19.6063   -7.0939 C   0  0  0  0  0  0  0  0  0  0  0  0
   26.4593  -20.6443   -7.8873 C   0  0  2  0  0  0  0  0  0  0  0  0
   25.9705  -19.8983   -9.0666 N   0  0  0  0  0  0  0  0  0  0  0  0
   25.3514  -21.1483   -7.0790 C   0  0  0  0  0  0  0  0  0  0  0  0
   24.1393  -20.8284   -7.3201 O   0  0  0  0  0  0  0  0  0  0  0  0
   25.5364  -22.0036   -6.0020 O   0  0  0  0  0  0  0  0  0  0  0  0
  2  1  1  1
  3  2  1  0
  4  2  1  0
  5  4  1  0
  5  6  1  6
  7  8  2  0
  7  5  1  0
 10  9  1  0
 10 12  1  0
 11 10  2  0
 13 12  1  6
 13 14  1  0
 14  7  1  0
 15 16  2  0
 15 13  1  0
 17 18  1  0
 19 20  1  0
 19 18  1  0
 21 22  1  0
 21 20  1  1
 22 15  1  0
 23 21  1  0
 24 23  2  0
 25 23  1  0
M  END
$$$$
