LNM.pdb
     RDKit          3D

 25 24  0  0  1  0  0  0  0  0999 V2000
   17.3390   -8.6380  -17.5454 C   0  0  0  0  0  0  0  0  0  0  0  0
   16.4766   -9.5498  -16.6966 C   0  0  2  0  0  0  0  0  0  0  0  0
   15.0105   -9.4169  -17.0624 C   0  0  0  0  0  0  0  0  0  0  0  0
   16.7299   -9.4529  -15.2427 C   0  0  0  0  0  0  0  0  0  0  0  0
   18.1359   -9.5515  -14.7792 C   0  0  2  0  0  0  0  0  0  0  0  0
   18.7686  -10.8003  -14.8860 N   0  0  0  0  0  0  0  0  0  0  0  0
   18.3648   -8.9876  -13.4185 C   0  0  0  0  0  0  0  0  0  0  0  0
   18.3381   -9.8311  -12.4467 O   0  0  0  0  0  0  0  0  0  0  0  0
   22.1733   -6.8839  -11.3866 N   0  0  0  0  0  0  0  0  0  0  0  0
   21.2582   -6.4563  -12.4338 C   0  0  0  0  0  0  0  0  0  0  0  0
   21.7378   -6.4918  -13.5731 O   0  0  0  0  0  0  0  0  0  0  0  0
   19.9105   -6.0359  -12.1031 C   0  0  0  0  0  0  0  0  0  0  0  0
   18.8821   -7.1112  -11.8240 C   0  0  2  0  0  0  0  0  0  0  0  0
   18.5983   -7.6234  -13.1885 N   0  0  0  0  0  0  0  0  0  0  0  0
   17.6301   -6.6079  -11.2496 C   0  0  0  0  0  0  0  0  0  0  0  0
   16.8332   -5.9818  -12.0565 O   0  0  0  0  0  0  0  0  0  0  0  0
   11.6149   -7.6002   -6.4492 C   0  0  0  0  0  0  0  0  0  0  0  0
   13.2239   -8.1725   -7.0558 S   0  0  0  0  0  0  0  0  0  0  0  0
   13.9430   -6.8137   -8.0167 C   0  0  0  0  0  0  0  0  0  0  0  0
   15.2468   -7.1864   -8.6332 C   0  0  0  0  0  0  0  0  0  0  0  0
   15.8400   -6.1293   -9.5412 C   0  0  2  0  0  0  0  0  0  0  0  0
   17.1419   -6.7012   -9.9465 N   0  0  0  0  0  0  0  0  0  0  0  0
   16.0140   -4.8892   -8.7886 C   0  0  0  0  0  0  0  0  0  0  0  0
   17.1183   -4.5932   -8.2205 O   0  0  0  0  0  0  0  0  0  0  0  0
   15.0006   -3.9530   -8.6399 O   0  0  0  0  0  0  0  0  0  0  0  0
  2  1  1  6
  3  2  1  0
  4  2  1  0
  5  4  1  0
  5  6  1  1
  7  8  2  0
  7  5  1  0
 10  9  1  0
 10 12  1  0
 11 10  2  0
 13 12  1  6
 13 14  1  0
 14  7  1  0
 15 16  2  0
 15 13  1  0
 17 18  1  0
 19 20  1  0
 19 18  1  0
 21 22  1  0
 21 20  1  1
 22 15  1  0
 23 21  1  0
 24 23  2  0
 25 23  1  0
M  END
$$$$
