LNM.pdb
     RDKit          3D

 25 24  0  0  1  0  0  0  0  0999 V2000
   25.6539  -34.1467  -15.0696 C   0  0  0  0  0  0  0  0  0  0  0  0
   26.4474  -33.0654  -14.3647 C   0  0  2  0  0  0  0  0  0  0  0  0
   27.7346  -32.7568  -15.1056 C   0  0  0  0  0  0  0  0  0  0  0  0
   26.6444  -33.2961  -12.9171 C   0  0  0  0  0  0  0  0  0  0  0  0
   25.4707  -33.7346  -12.1224 C   0  0  2  0  0  0  0  0  0  0  0  0
   24.3228  -32.9270  -12.1602 N   0  0  0  0  0  0  0  0  0  0  0  0
   25.7933  -34.0826  -10.7093 C   0  0  0  0  0  0  0  0  0  0  0  0
   26.7280  -34.9515  -10.5419 O   0  0  0  0  0  0  0  0  0  0  0  0
   26.3461  -33.7686   -5.4644 N   0  0  0  0  0  0  0  0  0  0  0  0
   26.0594  -32.5295   -6.1710 C   0  0  0  0  0  0  0  0  0  0  0  0
   26.2845  -31.5063   -5.5139 O   0  0  0  0  0  0  0  0  0  0  0  0
   25.5542  -32.5602   -7.5298 C   0  0  0  0  0  0  0  0  0  0  0  0
   25.4645  -33.9039   -8.2213 C   0  0  2  0  0  0  0  0  0  0  0  0
   25.1315  -33.5089   -9.6133 N   0  0  0  0  0  0  0  0  0  0  0  0
   24.3916  -34.7668   -7.7164 C   0  0  0  0  0  0  0  0  0  0  0  0
   23.1779  -34.3729   -7.9400 O   0  0  0  0  0  0  0  0  0  0  0  0
   22.3577  -41.0943   -7.9617 C   0  0  0  0  0  0  0  0  0  0  0  0
   23.5604  -40.1675   -8.9511 S   0  0  0  0  0  0  0  0  0  0  0  0
   23.3597  -38.4163   -8.5273 C   0  0  0  0  0  0  0  0  0  0  0  0
   23.5795  -38.1577   -7.0769 C   0  0  0  0  0  0  0  0  0  0  0  0
   23.2646  -36.7441   -6.6337 C   0  0  2  0  0  0  0  0  0  0  0  0
   24.4657  -35.9751   -7.0239 N   0  0  0  0  0  0  0  0  0  0  0  0
   23.0669  -36.7250   -5.1862 C   0  0  0  0  0  0  0  0  0  0  0  0
   23.9847  -37.0835   -4.3744 O   0  0  0  0  0  0  0  0  0  0  0  0
   21.8784  -36.3188   -4.5962 O   0  0  0  0  0  0  0  0  0  0  0  0
  2  1  1  6
  3  2  1  0
  4  2  1  0
  5  4  1  0
  5  6  1  1
  7  8  2  0
  7  5  1  0
 10  9  1  0
 10 12  1  0
 11 10  2  0
 13 12  1  1
 13 14  1  0
 14  7  1  0
 15 16  2  0
 15 13  1  0
 17 18  1  0
 19 20  1  0
 19 18  1  0
 21 22  1  0
 21 20  1  1
 22 15  1  0
 23 21  1  0
 24 23  2  0
 25 23  1  0
M  END
$$$$
