LNM.pdb
     RDKit          3D

 25 24  0  0  1  0  0  0  0  0999 V2000
   29.7680  -18.1914  -16.5484 C   0  0  0  0  0  0  0  0  0  0  0  0
   28.5544  -17.3783  -16.9504 C   0  0  2  0  0  0  0  0  0  0  0  0
   28.9347  -15.9454  -17.2718 C   0  0  0  0  0  0  0  0  0  0  0  0
   27.4095  -17.4871  -16.0204 C   0  0  0  0  0  0  0  0  0  0  0  0
   26.9938  -18.8461  -15.5940 C   0  0  2  0  0  0  0  0  0  0  0  0
   26.7156  -19.7853  -16.5998 N   0  0  0  0  0  0  0  0  0  0  0  0
   25.8983  -18.8538  -14.5832 C   0  0  0  0  0  0  0  0  0  0  0  0
   24.8477  -18.1742  -14.8851 O   0  0  0  0  0  0  0  0  0  0  0  0
   22.2234  -20.2552  -11.3208 N   0  0  0  0  0  0  0  0  0  0  0  0
   22.5696  -20.7709  -12.6364 C   0  0  0  0  0  0  0  0  0  0  0  0
   21.7298  -21.5409  -13.1173 O   0  0  0  0  0  0  0  0  0  0  0  0
   23.8099  -20.3764  -13.2756 C   0  0  0  0  0  0  0  0  0  0  0  0
   24.8296  -19.6302  -12.4418 C   0  0  2  0  0  0  0  0  0  0  0  0
   25.9857  -19.5536  -13.3704 N   0  0  0  0  0  0  0  0  0  0  0  0
   25.2537  -20.3449  -11.2335 C   0  0  0  0  0  0  0  0  0  0  0  0
   26.3433  -21.0397  -11.3240 O   0  0  0  0  0  0  0  0  0  0  0  0
   29.7686  -19.6013   -7.6087 C   0  0  0  0  0  0  0  0  0  0  0  0
   28.3047  -19.1173   -6.6562 S   0  0  0  0  0  0  0  0  0  0  0  0
   26.9936  -20.3030   -7.0584 C   0  0  0  0  0  0  0  0  0  0  0  0
   26.3567  -20.0155   -8.3739 C   0  0  0  0  0  0  0  0  0  0  0  0
   25.3234  -21.0334   -8.8101 C   0  0  2  0  0  0  0  0  0  0  0  0
   24.6654  -20.3949   -9.9700 N   0  0  0  0  0  0  0  0  0  0  0  0
   24.3782  -21.2593   -7.7191 C   0  0  0  0  0  0  0  0  0  0  0  0
   23.2653  -20.6375   -7.6501 O   0  0  0  0  0  0  0  0  0  0  0  0
   24.6204  -22.1582   -6.6901 O   0  0  0  0  0  0  0  0  0  0  0  0
  2  1  1  1
  3  2  1  0
  4  2  1  0
  5  4  1  0
  5  6  1  6
  7  8  2  0
  7  5  1  0
 10  9  1  0
 10 12  1  0
 11 10  2  0
 13 12  1  6
 13 14  1  0
 14  7  1  0
 15 16  2  0
 15 13  1  0
 17 18  1  0
 19 20  1  0
 19 18  1  0
 21 22  1  0
 21 20  1  1
 22 15  1  0
 23 21  1  0
 24 23  2  0
 25 23  1  0
M  END
$$$$
