LNM.pdb
     RDKit          3D

 25 24  0  0  1  0  0  0  0  0999 V2000
   21.1962  -16.0370  -17.0770 C   0  0  0  0  0  0  0  0  0  0  0  0
   21.0309  -17.5154  -16.7895 C   0  0  2  0  0  0  0  0  0  0  0  0
   19.7707  -18.0627  -17.4324 C   0  0  0  0  0  0  0  0  0  0  0  0
   21.1681  -17.8805  -15.3628 C   0  0  0  0  0  0  0  0  0  0  0  0
   22.5143  -17.7705  -14.7489 C   0  0  2  0  0  0  0  0  0  0  0  0
   23.6151  -17.6610  -15.6135 N   0  0  0  0  0  0  0  0  0  0  0  0
   22.7919  -18.8043  -13.7115 C   0  0  0  0  0  0  0  0  0  0  0  0
   21.8526  -19.0112  -12.8561 O   0  0  0  0  0  0  0  0  0  0  0  0
   25.1739  -22.9883  -11.3515 N   0  0  0  0  0  0  0  0  0  0  0  0
   24.9361  -22.9936  -12.7868 C   0  0  0  0  0  0  0  0  0  0  0  0
   25.1153  -24.0914  -13.3273 O   0  0  0  0  0  0  0  0  0  0  0  0
   24.5252  -21.7805  -13.4665 C   0  0  0  0  0  0  0  0  0  0  0  0
   24.2224  -20.5628  -12.6197 C   0  0  2  0  0  0  0  0  0  0  0  0
   23.9966  -19.5209  -13.6533 N   0  0  0  0  0  0  0  0  0  0  0  0
   25.3359  -20.1343  -11.7669 C   0  0  0  0  0  0  0  0  0  0  0  0
   26.2310  -19.3782  -12.3196 O   0  0  0  0  0  0  0  0  0  0  0  0
   27.2953  -18.4315   -5.2752 C   0  0  0  0  0  0  0  0  0  0  0  0
   27.5115  -20.1748   -5.7205 S   0  0  0  0  0  0  0  0  0  0  0  0
   27.9003  -20.2265   -7.4905 C   0  0  0  0  0  0  0  0  0  0  0  0
   26.6749  -20.2514   -8.3371 C   0  0  0  0  0  0  0  0  0  0  0  0
   26.9392  -20.2832   -9.8281 C   0  0  2  0  0  0  0  0  0  0  0  0
   25.5917  -20.4086  -10.4237 N   0  0  0  0  0  0  0  0  0  0  0  0
   27.7719  -21.4409  -10.1459 C   0  0  0  0  0  0  0  0  0  0  0  0
   27.2670  -22.5786  -10.4296 O   0  0  0  0  0  0  0  0  0  0  0  0
   29.1584  -21.3864  -10.1625 O   0  0  0  0  0  0  0  0  0  0  0  0
  2  1  1  1
  3  2  1  0
  4  2  1  0
  5  4  1  0
  5  6  1  6
  7  8  2  0
  7  5  1  0
 10  9  1  0
 10 12  1  0
 11 10  2  0
 13 12  1  6
 13 14  1  0
 14  7  1  0
 15 16  2  0
 15 13  1  0
 17 18  1  0
 19 20  1  0
 19 18  1  0
 21 22  1  0
 21 20  1  1
 22 15  1  0
 23 21  1  0
 24 23  2  0
 25 23  1  0
M  END
$$$$
