LNM.pdb
     RDKit          3D

 25 24  0  0  1  0  0  0  0  0999 V2000
   18.3935   -9.2924  -25.6352 C   0  0  0  0  0  0  0  0  0  0  0  0
   19.5930   -9.1010  -24.7295 C   0  0  2  0  0  0  0  0  0  0  0  0
   20.4654  -10.3416  -24.7032 C   0  0  0  0  0  0  0  0  0  0  0  0
   19.2667   -8.5843  -23.3827 C   0  0  0  0  0  0  0  0  0  0  0  0
   20.3828   -8.4133  -22.4202 C   0  0  2  0  0  0  0  0  0  0  0  0
   20.8946   -9.5685  -21.8079 N   0  0  0  0  0  0  0  0  0  0  0  0
   20.1365   -7.3657  -21.3888 C   0  0  0  0  0  0  0  0  0  0  0  0
   19.5519   -6.2954  -21.8006 O   0  0  0  0  0  0  0  0  0  0  0  0
   18.9871   -5.1696  -16.7445 N   0  0  0  0  0  0  0  0  0  0  0  0
   18.3045   -6.3142  -17.3282 C   0  0  0  0  0  0  0  0  0  0  0  0
   17.2404   -6.6092  -16.7714 O   0  0  0  0  0  0  0  0  0  0  0  0
   18.8767   -7.0072  -18.4661 C   0  0  0  0  0  0  0  0  0  0  0  0
   20.1781   -6.4818  -19.0335 C   0  0  2  0  0  0  0  0  0  0  0  0
   20.5099   -7.5169  -20.0450 N   0  0  0  0  0  0  0  0  0  0  0  0
   21.2734   -6.4184  -18.0604 C   0  0  0  0  0  0  0  0  0  0  0  0
   21.6308   -7.5387  -17.5168 O   0  0  0  0  0  0  0  0  0  0  0  0
   28.5445   -4.6196  -16.9211 C   0  0  0  0  0  0  0  0  0  0  0  0
   27.0236   -4.4789  -17.8966 S   0  0  0  0  0  0  0  0  0  0  0  0
   25.6600   -5.0304  -16.8367 C   0  0  0  0  0  0  0  0  0  0  0  0
   24.3510   -5.0153  -17.5474 C   0  0  0  0  0  0  0  0  0  0  0  0
   23.1724   -5.4617  -16.7074 C   0  0  2  0  0  0  0  0  0  0  0  0
   22.0162   -5.3237  -17.6186 N   0  0  0  0  0  0  0  0  0  0  0  0
   23.0451   -4.5815  -15.5482 C   0  0  0  0  0  0  0  0  0  0  0  0
   22.3838   -3.4906  -15.5979 O   0  0  0  0  0  0  0  0  0  0  0  0
   23.6281   -4.8666  -14.3217 O   0  0  0  0  0  0  0  0  0  0  0  0
  2  1  1  1
  3  2  1  0
  4  2  1  0
  5  4  1  0
  5  6  1  1
  7  8  2  0
  7  5  1  0
 10  9  1  0
 10 12  1  0
 11 10  2  0
 13 12  1  1
 13 14  1  0
 14  7  1  0
 15 16  2  0
 15 13  1  0
 17 18  1  0
 19 20  1  0
 19 18  1  0
 21 22  1  0
 21 20  1  6
 22 15  1  0
 23 21  1  0
 24 23  2  0
 25 23  1  0
M  END
$$$$
