LNM.pdb
     RDKit          3D

 25 24  0  0  1  0  0  0  0  0999 V2000
   11.2894   -9.4790  -10.1772 C   0  0  0  0  0  0  0  0  0  0  0  0
   12.6405   -9.6699   -9.5186 C   0  0  2  0  0  0  0  0  0  0  0  0
   12.8455   -8.6798   -8.3878 C   0  0  0  0  0  0  0  0  0  0  0  0
   13.7783   -9.7276  -10.4617 C   0  0  0  0  0  0  0  0  0  0  0  0
   13.7538  -10.7783  -11.5090 C   0  0  2  0  0  0  0  0  0  0  0  0
   13.8207  -12.1161  -11.0880 N   0  0  0  0  0  0  0  0  0  0  0  0
   14.7259  -10.5512  -12.6160 C   0  0  0  0  0  0  0  0  0  0  0  0
   15.6870  -11.4026  -12.7059 O   0  0  0  0  0  0  0  0  0  0  0  0
   16.6677   -8.7732  -17.2675 N   0  0  0  0  0  0  0  0  0  0  0  0
   15.2878   -8.4012  -16.9950 C   0  0  0  0  0  0  0  0  0  0  0  0
   14.7101   -7.8612  -17.9458 O   0  0  0  0  0  0  0  0  0  0  0  0
   14.6988   -8.6687  -15.6974 C   0  0  0  0  0  0  0  0  0  0  0  0
   15.5673   -9.3305  -14.6488 C   0  0  2  0  0  0  0  0  0  0  0  0
   14.6179   -9.4815  -13.5172 N   0  0  0  0  0  0  0  0  0  0  0  0
   16.6952   -8.5080  -14.1993 C   0  0  0  0  0  0  0  0  0  0  0  0
   16.4025   -7.4490  -13.5130 O   0  0  0  0  0  0  0  0  0  0  0  0
   22.4679  -10.5441  -13.3355 C   0  0  0  0  0  0  0  0  0  0  0  0
   23.0307   -8.8217  -13.3017 S   0  0  0  0  0  0  0  0  0  0  0  0
   21.5516   -7.7778  -13.3978 C   0  0  0  0  0  0  0  0  0  0  0  0
   20.3393   -8.5510  -13.7865 C   0  0  0  0  0  0  0  0  0  0  0  0
   19.0710   -7.7287  -13.8826 C   0  0  2  0  0  0  0  0  0  0  0  0
   18.0653   -8.6873  -14.3884 N   0  0  0  0  0  0  0  0  0  0  0  0
   19.2788   -6.6293  -14.8222 C   0  0  0  0  0  0  0  0  0  0  0  0
   19.0987   -6.7710  -16.0781 O   0  0  0  0  0  0  0  0  0  0  0  0
   19.6823   -5.3641  -14.4197 O   0  0  0  0  0  0  0  0  0  0  0  0
  2  1  1  6
  3  2  1  0
  4  2  1  0
  5  4  1  0
  5  6  1  1
  7  8  2  0
  7  5  1  0
 10  9  1  0
 10 12  1  0
 11 10  2  0
 13 12  1  6
 13 14  1  0
 14  7  1  0
 15 16  2  0
 15 13  1  0
 17 18  1  0
 19 20  1  0
 19 18  1  0
 21 22  1  0
 21 20  1  6
 22 15  1  0
 23 21  1  0
 24 23  2  0
 25 23  1  0
M  END
$$$$
