CHK.pdb
     RDKit          3D

 26 26  0  0  1  0  0  0  0  0999 V2000
    8.2299  -13.4866   17.1321 N   0  0  0  0  0  0  0  0  0  0  0  0
    8.6796  -13.5614   18.5053 C   0  0  1  0  0  0  0  0  0  0  0  0
    7.5432  -13.2080   19.4482 C   0  0  0  0  0  0  0  0  0  0  0  0
    7.9466  -13.6694   21.1551 S   0  0  0  0  0  0  0  0  0  0  0  0
    9.1350  -14.9223   18.8694 C   0  0  0  0  0  0  0  0  0  0  0  0
    8.6370  -15.9658   18.3388 O   0  0  0  0  0  0  0  0  0  0  0  0
   10.1571  -15.0446   19.8401 N   0  0  0  0  0  0  0  0  0  0  0  0
   10.5318  -16.4304   20.3226 C   0  0  1  0  0  0  0  0  0  0  0  0
   11.9057  -16.6293   19.7392 C   0  0  0  0  0  0  0  0  0  0  0  0
   12.5874  -15.4691   19.1958 C   0  0  0  0  0  0  0  0  0  0  0  0
   12.3551  -14.1279   19.2063 C   0  0  0  0  0  0  0  0  0  0  0  0
   13.3693  -13.4538   18.5944 N   0  0  0  0  0  0  0  0  0  0  0  0
   14.2290  -14.4034   18.2088 C   0  0  0  0  0  0  0  0  0  0  0  0
   13.7903  -15.5992   18.5522 N   0  0  0  0  0  0  0  0  0  0  0  0
   10.6795  -16.1942   21.7870 C   0  0  0  0  0  0  0  0  0  0  0  0
   10.3671  -15.0197   22.2083 O   0  0  0  0  0  0  0  0  0  0  0  0
   11.1090  -17.0804   22.7641 N   0  0  0  0  0  0  0  0  0  0  0  0
   10.6647  -16.8867   24.1624 C   0  0  1  0  0  0  0  0  0  0  0  0
    9.1675  -16.8568   24.2117 C   0  0  0  0  0  0  0  0  0  0  0  0
    8.5551  -18.1356   23.7833 C   0  0  0  0  0  0  0  0  0  0  0  0
    7.0471  -18.1402   23.8641 C   0  0  0  0  0  0  0  0  0  0  0  0
    6.5611  -19.4359   23.2172 C   0  0  0  0  0  0  0  0  0  0  0  0
    5.1021  -19.5053   23.3487 N   0  0  0  0  0  0  0  0  0  0  0  0
   11.2064  -18.0070   24.9446 C   0  0  0  0  0  0  0  0  0  0  0  0
   11.6924  -19.0059   24.3831 O   0  0  0  0  0  0  0  0  0  0  0  0
   11.2033  -18.0077   26.3379 O   0  0  0  0  0  0  0  0  0  0  0  0
  2  5  1  0
  2  1  1  6
  3  2  1  0
  4  3  1  0
  5  6  2  0
  7  5  1  0
  7  8  1  0
  8 15  1  0
  8  9  1  6
  9 10  1  0
 10 11  2  0
 11 12  1  0
 13 12  1  0
 14 10  1  0
 14 13  2  0
 15 16  2  0
 17 18  1  0
 17 15  1  0
 18 24  1  0
 18 19  1  6
 20 19  1  0
 21 22  1  0
 21 20  1  0
 23 22  1  0
 24 25  2  0
 24 26  1  0
M  END
$$$$
