CHK.pdb
     RDKit          3D

 26 26  0  0  1  0  0  0  0  0999 V2000
    4.1700  -19.2057   20.3656 N   0  0  0  0  0  0  0  0  0  0  0  0
    4.1792  -18.0470   21.2321 C   0  0  1  0  0  0  0  0  0  0  0  0
    3.3937  -18.3346   22.4991 C   0  0  0  0  0  0  0  0  0  0  0  0
    1.6188  -18.4642   22.1490 S   0  0  0  0  0  0  0  0  0  0  0  0
    5.5497  -17.6739   21.6495 C   0  0  0  0  0  0  0  0  0  0  0  0
    6.4947  -18.5240   21.7029 O   0  0  0  0  0  0  0  0  0  0  0  0
    5.7957  -16.3243   21.9960 N   0  0  0  0  0  0  0  0  0  0  0  0
    7.2258  -15.8924   22.2451 C   0  0  1  0  0  0  0  0  0  0  0  0
    7.2263  -14.4555   21.7948 C   0  0  0  0  0  0  0  0  0  0  0  0
    7.9803  -14.1178   20.6016 C   0  0  0  0  0  0  0  0  0  0  0  0
    8.7902  -14.8067   19.7518 C   0  0  0  0  0  0  0  0  0  0  0  0
    9.1985  -14.0151   18.7202 N   0  0  0  0  0  0  0  0  0  0  0  0
    8.6248  -12.8287   18.9502 C   0  0  0  0  0  0  0  0  0  0  0  0
    7.9018  -12.8644   20.0529 N   0  0  0  0  0  0  0  0  0  0  0  0
    7.2760  -15.9116   23.7348 C   0  0  0  0  0  0  0  0  0  0  0  0
    6.1441  -15.8535   24.3431 O   0  0  0  0  0  0  0  0  0  0  0  0
    8.3893  -15.9882   24.5588 N   0  0  0  0  0  0  0  0  0  0  0  0
    8.3046  -16.7579   25.8201 C   0  0  1  0  0  0  0  0  0  0  0  0
    7.9463  -18.1802   25.5146 C   0  0  0  0  0  0  0  0  0  0  0  0
    7.9946  -19.0522   26.7110 C   0  0  0  0  0  0  0  0  0  0  0  0
    7.6757  -20.4988   26.4174 C   0  0  0  0  0  0  0  0  0  0  0  0
    7.8482  -21.2759   27.7212 C   0  0  0  0  0  0  0  0  0  0  0  0
    7.6590  -22.7034   27.4430 N   0  0  0  0  0  0  0  0  0  0  0  0
    9.6188  -16.6621   26.4713 C   0  0  0  0  0  0  0  0  0  0  0  0
   10.6520  -16.4658   25.8055 O   0  0  0  0  0  0  0  0  0  0  0  0
    9.7728  -16.7847   27.8506 O   0  0  0  0  0  0  0  0  0  0  0  0
  2  5  1  0
  2  1  1  6
  3  2  1  0
  4  3  1  0
  5  6  2  0
  7  5  1  0
  7  8  1  0
  8 15  1  0
  8  9  1  1
  9 10  1  0
 10 11  2  0
 11 12  1  0
 13 12  1  0
 14 10  1  0
 14 13  2  0
 15 16  2  0
 17 18  1  0
 17 15  1  0
 18 24  1  0
 18 19  1  6
 20 19  1  0
 21 22  1  0
 21 20  1  0
 23 22  1  0
 24 25  2  0
 24 26  1  0
M  END
$$$$
