CHK.pdb
     RDKit          3D

 26 26  0  0  1  0  0  0  0  0999 V2000
   10.9840  -20.3202   16.1296 N   0  0  0  0  0  0  0  0  0  0  0  0
   10.1125  -20.1524   17.2723 C   0  0  1  0  0  0  0  0  0  0  0  0
   10.3034  -21.2989   18.2491 C   0  0  0  0  0  0  0  0  0  0  0  0
    9.2266  -22.6969   17.8300 S   0  0  0  0  0  0  0  0  0  0  0  0
   10.3984  -18.9026   18.0127 C   0  0  0  0  0  0  0  0  0  0  0  0
   11.5806  -18.4519   18.1462 O   0  0  0  0  0  0  0  0  0  0  0  0
    9.3089  -18.2023   18.5823 N   0  0  0  0  0  0  0  0  0  0  0  0
    9.5778  -16.8710   19.2523 C   0  0  1  0  0  0  0  0  0  0  0  0
    8.3042  -16.1067   19.0046 C   0  0  0  0  0  0  0  0  0  0  0  0
    8.1157  -14.8534   19.7117 C   0  0  0  0  0  0  0  0  0  0  0  0
    8.8821  -14.0974   20.5447 C   0  0  0  0  0  0  0  0  0  0  0  0
    8.2406  -12.9433   20.8823 N   0  0  0  0  0  0  0  0  0  0  0  0
    7.0677  -13.0026   20.2416 C   0  0  0  0  0  0  0  0  0  0  0  0
    6.9709  -14.1187   19.5450 N   0  0  0  0  0  0  0  0  0  0  0  0
    9.6061  -17.2726   20.6875 C   0  0  0  0  0  0  0  0  0  0  0  0
    9.1280  -18.4346   20.9629 O   0  0  0  0  0  0  0  0  0  0  0  0
   10.0864  -16.5559   21.7738 N   0  0  0  0  0  0  0  0  0  0  0  0
   10.3276  -17.2576   23.0543 C   0  0  1  0  0  0  0  0  0  0  0  0
   11.3370  -18.3450   22.8460 C   0  0  0  0  0  0  0  0  0  0  0  0
   11.5615  -19.1585   24.0634 C   0  0  0  0  0  0  0  0  0  0  0  0
   12.5034  -20.3192   23.8491 C   0  0  0  0  0  0  0  0  0  0  0  0
   12.5853  -21.0874   25.1669 C   0  0  0  0  0  0  0  0  0  0  0  0
   13.3123  -22.3396   24.9336 N   0  0  0  0  0  0  0  0  0  0  0  0
   10.8099  -16.2519   24.0115 C   0  0  0  0  0  0  0  0  0  0  0  0
   11.4641  -15.2643   23.6295 O   0  0  0  0  0  0  0  0  0  0  0  0
   10.5623  -16.3519   25.3789 O   0  0  0  0  0  0  0  0  0  0  0  0
  2  5  1  0
  2  1  1  6
  3  2  1  0
  4  3  1  0
  5  6  2  0
  7  5  1  0
  7  8  1  0
  8 15  1  0
  8  9  1  1
  9 10  1  0
 10 11  2  0
 11 12  1  0
 13 12  1  0
 14 10  1  0
 14 13  2  0
 15 16  2  0
 17 18  1  0
 17 15  1  0
 18 24  1  0
 18 19  1  6
 20 19  1  0
 21 22  1  0
 21 20  1  0
 23 22  1  0
 24 25  2  0
 24 26  1  0
M  END
$$$$
