CHK.pdb
     RDKit          3D

 26 26  0  0  1  0  0  0  0  0999 V2000
    7.5326  -13.2978   17.3608 N   0  0  0  0  0  0  0  0  0  0  0  0
    8.2973  -13.4169   18.5833 C   0  0  1  0  0  0  0  0  0  0  0  0
    7.5087  -12.8518   19.7511 C   0  0  0  0  0  0  0  0  0  0  0  0
    8.3296  -13.2147   21.3271 S   0  0  0  0  0  0  0  0  0  0  0  0
    8.6056  -14.8269   18.9129 C   0  0  0  0  0  0  0  0  0  0  0  0
    7.7266  -15.7441   18.8455 O   0  0  0  0  0  0  0  0  0  0  0  0
    9.9252  -15.1437   19.3134 N   0  0  0  0  0  0  0  0  0  0  0  0
   10.2724  -16.5953   19.5701 C   0  0  1  0  0  0  0  0  0  0  0  0
   11.3929  -16.8500   18.5967 C   0  0  0  0  0  0  0  0  0  0  0  0
   11.1191  -17.7010   17.4535 C   0  0  0  0  0  0  0  0  0  0  0  0
   10.0295  -18.3813   17.0032 C   0  0  0  0  0  0  0  0  0  0  0  0
   10.2910  -18.9826   15.8084 N   0  0  0  0  0  0  0  0  0  0  0  0
   11.5593  -18.6592   15.5319 C   0  0  0  0  0  0  0  0  0  0  0  0
   12.0685  -17.9043   16.4863 N   0  0  0  0  0  0  0  0  0  0  0  0
   10.8570  -16.5126   20.9388 C   0  0  0  0  0  0  0  0  0  0  0  0
   11.4539  -15.4130   21.2373 O   0  0  0  0  0  0  0  0  0  0  0  0
   10.8397  -17.4699   21.9427 N   0  0  0  0  0  0  0  0  0  0  0  0
   11.4895  -17.1715   23.2385 C   0  0  1  0  0  0  0  0  0  0  0  0
   10.9147  -18.0571   24.3016 C   0  0  0  0  0  0  0  0  0  0  0  0
   11.5706  -17.8723   25.6168 C   0  0  0  0  0  0  0  0  0  0  0  0
   10.9905  -18.7397   26.7083 C   0  0  0  0  0  0  0  0  0  0  0  0
   11.7764  -18.4494   27.9856 C   0  0  0  0  0  0  0  0  0  0  0  0
   11.3207  -19.3683   29.0339 N   0  0  0  0  0  0  0  0  0  0  0  0
   12.9294  -17.4078   23.0619 C   0  0  0  0  0  0  0  0  0  0  0  0
   13.3439  -18.3518   22.3646 O   0  0  0  0  0  0  0  0  0  0  0  0
   13.8919  -16.5967   23.6591 O   0  0  0  0  0  0  0  0  0  0  0  0
  2  5  1  0
  2  1  1  6
  3  2  1  0
  4  3  1  0
  5  6  2  0
  7  5  1  0
  7  8  1  0
  8 15  1  0
  8  9  1  6
  9 10  1  0
 10 11  2  0
 11 12  1  0
 13 12  1  0
 14 10  1  0
 14 13  2  0
 15 16  2  0
 17 18  1  0
 17 15  1  0
 18 24  1  0
 18 19  1  1
 20 19  1  0
 21 22  1  0
 21 20  1  0
 23 22  1  0
 24 25  2  0
 24 26  1  0
M  END
$$$$
