EMF.pdb
     RDKit          3D

 29 29  0  0  1  0  0  0  0  0999 V2000
    9.4052  -18.6553   20.8812 N   0  0  0  0  0  0  0  0  0  0  0  0
   10.4753  -17.7230   20.5767 C   0  0  1  0  0  0  0  0  0  0  0  0
   10.6086  -17.6550   19.0629 C   0  0  0  0  0  0  0  0  0  0  0  0
   10.7254  -19.0838   18.5422 C   0  0  0  0  0  0  0  0  0  0  0  0
   12.1249  -19.3461   18.1007 C   0  0  0  0  0  0  0  0  0  0  0  0
   12.4140  -19.4396   16.8732 O   0  0  0  0  0  0  0  0  0  0  0  0
   10.1426  -16.4089   21.1660 C   0  0  0  0  0  0  0  0  0  0  0  0
   10.9392  -15.4576   20.9916 O   0  0  0  0  0  0  0  0  0  0  0  0
   13.1666  -19.4988   19.0018 O   0  0  0  0  0  0  0  0  0  0  0  0
    7.4796  -11.9805   18.6696 C   0  0  0  0  0  0  0  0  0  0  0  0
    7.9971  -12.7855   20.1714 S   0  0  0  0  0  0  0  0  0  0  0  0
    6.8936  -14.0794   20.7244 C   0  0  0  0  0  0  0  0  0  0  0  0
    7.1584  -14.6181   22.0951 C   0  0  0  0  0  0  0  0  0  0  0  0
    8.5858  -14.8983   22.4413 C   0  0  2  0  0  0  0  0  0  0  0  0
    8.9581  -16.2215   21.9090 N   0  0  0  0  0  0  0  0  0  0  0  0
    8.7434  -14.9931   23.9409 C   0  0  0  0  0  0  0  0  0  0  0  0
    8.2448  -14.1776   24.7439 O   0  0  0  0  0  0  0  0  0  0  0  0
    9.5024  -16.0647   24.5399 N   0  0  0  0  0  0  0  0  0  0  0  0
    9.5986  -16.2164   25.9877 C   0  0  1  0  0  0  0  0  0  0  0  0
    8.2627  -16.1483   26.6394 C   0  0  0  0  0  0  0  0  0  0  0  0
    7.7577  -14.7667   26.7200 C   0  0  0  0  0  0  0  0  0  0  0  0
    6.5191  -14.3656   26.2252 C   0  0  0  0  0  0  0  0  0  0  0  0
    6.0630  -13.0684   26.3084 C   0  0  0  0  0  0  0  0  0  0  0  0
    6.8408  -12.1117   26.8982 C   0  0  0  0  0  0  0  0  0  0  0  0
    8.0638  -12.4529   27.3992 C   0  0  0  0  0  0  0  0  0  0  0  0
    8.5068  -13.7520   27.3094 C   0  0  0  0  0  0  0  0  0  0  0  0
   10.4210  -17.3820   26.3530 C   0  0  0  0  0  0  0  0  0  0  0  0
    9.9632  -18.6631   26.1782 O   0  0  0  0  0  0  0  0  0  0  0  0
   11.5635  -17.2027   26.8357 O   0  0  0  0  0  0  0  0  0  0  0  0
  2  1  1  6
  2  7  1  0
  2  3  1  0
  3  4  1  0
  4  5  1  0
  5  9  1  0
  5  6  2  0
  7  8  2  0
 10 11  1  0
 11 12  1  0
 12 13  1  0
 14 13  1  1
 14 15  1  0
 15  7  1  0
 16 14  1  0
 17 16  2  0
 18 16  1  0
 19 27  1  0
 19 18  1  0
 19 20  1  6
 21 20  1  0
 22 21  2  0
 23 22  1  0
 24 23  2  0
 24 25  1  0
 25 26  2  0
 26 21  1  0
 27 28  1  0
 29 27  2  0
M  END
$$$$
