EMF.pdb
     RDKit          3D

 29 29  0  0  1  0  0  0  0  0999 V2000
   10.0124  -17.2620   19.6495 N   0  0  0  0  0  0  0  0  0  0  0  0
    8.9006  -16.3287   19.6501 C   0  0  1  0  0  0  0  0  0  0  0  0
    7.9553  -16.7393   18.5312 C   0  0  0  0  0  0  0  0  0  0  0  0
    7.8570  -18.2614   18.5413 C   0  0  0  0  0  0  0  0  0  0  0  0
    6.8378  -18.7067   17.5488 C   0  0  0  0  0  0  0  0  0  0  0  0
    7.0938  -18.7131   16.3105 O   0  0  0  0  0  0  0  0  0  0  0  0
    8.2464  -16.3700   20.9750 C   0  0  0  0  0  0  0  0  0  0  0  0
    7.2851  -15.5958   21.1905 O   0  0  0  0  0  0  0  0  0  0  0  0
    5.5742  -19.1309   17.9282 O   0  0  0  0  0  0  0  0  0  0  0  0
    6.2113  -21.7614   22.9601 C   0  0  0  0  0  0  0  0  0  0  0  0
    5.5173  -20.4876   23.9932 S   0  0  0  0  0  0  0  0  0  0  0  0
    6.0900  -18.8389   23.6043 C   0  0  0  0  0  0  0  0  0  0  0  0
    7.5739  -18.6468   23.6140 C   0  0  0  0  0  0  0  0  0  0  0  0
    8.0736  -17.2687   23.3190 C   0  0  2  0  0  0  0  0  0  0  0  0
    8.6879  -17.2572   21.9791 N   0  0  0  0  0  0  0  0  0  0  0  0
    9.1754  -16.9020   24.2856 C   0  0  0  0  0  0  0  0  0  0  0  0
   10.3901  -16.9394   23.9998 O   0  0  0  0  0  0  0  0  0  0  0  0
    8.8700  -16.4767   25.6307 N   0  0  0  0  0  0  0  0  0  0  0  0
    9.9003  -15.9460   26.5167 C   0  0  1  0  0  0  0  0  0  0  0  0
   10.0617  -14.4755   26.3566 C   0  0  0  0  0  0  0  0  0  0  0  0
    8.7938  -13.7551   26.5661 C   0  0  0  0  0  0  0  0  0  0  0  0
    7.8504  -13.5421   25.5639 C   0  0  0  0  0  0  0  0  0  0  0  0
    6.6697  -12.8653   25.7775 C   0  0  0  0  0  0  0  0  0  0  0  0
    6.3861  -12.3699   27.0194 C   0  0  0  0  0  0  0  0  0  0  0  0
    7.2779  -12.5517   28.0366 C   0  0  0  0  0  0  0  0  0  0  0  0
    8.4530  -13.2295   27.8093 C   0  0  0  0  0  0  0  0  0  0  0  0
    9.7131  -16.4140   27.9003 C   0  0  0  0  0  0  0  0  0  0  0  0
   10.6209  -16.1168   28.8846 O   0  0  0  0  0  0  0  0  0  0  0  0
    8.7045  -17.1002   28.1872 O   0  0  0  0  0  0  0  0  0  0  0  0
  2  1  1  1
  2  7  1  0
  2  3  1  0
  3  4  1  0
  4  5  1  0
  5  9  1  0
  5  6  2  0
  7  8  2  0
 10 11  1  0
 11 12  1  0
 12 13  1  0
 14 13  1  1
 14 15  1  0
 15  7  1  0
 16 14  1  0
 17 16  2  0
 18 16  1  0
 19 27  1  0
 19 18  1  0
 19 20  1  1
 21 20  1  0
 22 21  2  0
 23 22  1  0
 24 23  2  0
 24 25  1  0
 25 26  2  0
 26 21  1  0
 27 28  1  0
 29 27  2  0
M  END
$$$$
