EMF.pdb
     RDKit          3D

 29 29  0  0  1  0  0  0  0  0999 V2000
    8.4382  -18.6640   20.6153 N   0  0  0  0  0  0  0  0  0  0  0  0
    9.7198  -18.0359   20.3505 C   0  0  1  0  0  0  0  0  0  0  0  0
    9.7811  -17.7264   18.8623 C   0  0  0  0  0  0  0  0  0  0  0  0
    9.9641  -19.0464   18.1205 C   0  0  0  0  0  0  0  0  0  0  0  0
   11.1066  -18.9353   17.1695 C   0  0  0  0  0  0  0  0  0  0  0  0
   11.2509  -17.9116   16.4413 O   0  0  0  0  0  0  0  0  0  0  0  0
    9.8311  -16.8162   21.1780 C   0  0  0  0  0  0  0  0  0  0  0  0
   10.8930  -16.1531   21.1240 O   0  0  0  0  0  0  0  0  0  0  0  0
   12.0565  -19.9357   17.0370 O   0  0  0  0  0  0  0  0  0  0  0  0
    5.9244  -12.0384   26.2590 C   0  0  0  0  0  0  0  0  0  0  0  0
    6.0449  -13.5548   25.3333 S   0  0  0  0  0  0  0  0  0  0  0  0
    7.3632  -13.5705   24.1253 C   0  0  0  0  0  0  0  0  0  0  0  0
    7.4845  -14.8203   23.3112 C   0  0  0  0  0  0  0  0  0  0  0  0
    8.8434  -15.1440   22.7779 C   0  0  2  0  0  0  0  0  0  0  0  0
    8.7717  -16.4013   22.0120 N   0  0  0  0  0  0  0  0  0  0  0  0
    9.7966  -15.4059   23.9205 C   0  0  0  0  0  0  0  0  0  0  0  0
   10.7159  -14.6280   24.2494 O   0  0  0  0  0  0  0  0  0  0  0  0
    9.6894  -16.6065   24.7146 N   0  0  0  0  0  0  0  0  0  0  0  0
   10.6759  -16.9367   25.7373 C   0  0  1  0  0  0  0  0  0  0  0  0
   10.0731  -16.9618   27.0975 C   0  0  0  0  0  0  0  0  0  0  0  0
   10.0350  -15.6220   27.7090 C   0  0  0  0  0  0  0  0  0  0  0  0
   11.1395  -15.0067   28.2932 C   0  0  0  0  0  0  0  0  0  0  0  0
   11.0857  -13.7529   28.8615 C   0  0  0  0  0  0  0  0  0  0  0  0
    9.9078  -13.0595   28.8659 C   0  0  0  0  0  0  0  0  0  0  0  0
    8.7954  -13.6181   28.3060 C   0  0  0  0  0  0  0  0  0  0  0  0
    8.8634  -14.8708   27.7420 C   0  0  0  0  0  0  0  0  0  0  0  0
   11.4534  -18.1317   25.3687 C   0  0  0  0  0  0  0  0  0  0  0  0
   11.1870  -18.8318   24.2197 O   0  0  0  0  0  0  0  0  0  0  0  0
   12.3779  -18.5208   26.1199 O   0  0  0  0  0  0  0  0  0  0  0  0
  2  1  1  6
  2  7  1  0
  2  3  1  0
  3  4  1  0
  4  5  1  0
  5  9  1  0
  5  6  2  0
  7  8  2  0
 10 11  1  0
 11 12  1  0
 12 13  1  0
 14 13  1  1
 14 15  1  0
 15  7  1  0
 16 14  1  0
 17 16  2  0
 18 16  1  0
 19 27  1  0
 19 18  1  0
 19 20  1  1
 21 20  1  0
 22 21  2  0
 23 22  1  0
 24 23  2  0
 24 25  1  0
 25 26  2  0
 26 21  1  0
 27 28  1  0
 29 27  2  0
M  END
$$$$
