EMF.pdb
     RDKit          3D

 29 29  0  0  1  0  0  0  0  0999 V2000
   10.0365  -18.4782   19.9340 N   0  0  0  0  0  0  0  0  0  0  0  0
   11.2490  -17.6999   20.1106 C   0  0  1  0  0  0  0  0  0  0  0  0
   11.7139  -17.2543   18.7324 C   0  0  0  0  0  0  0  0  0  0  0  0
   11.6997  -18.4764   17.8198 C   0  0  0  0  0  0  0  0  0  0  0  0
   12.2060  -18.1018   16.4687 C   0  0  0  0  0  0  0  0  0  0  0  0
   11.4138  -17.9529   15.4944 O   0  0  0  0  0  0  0  0  0  0  0  0
   10.9531  -16.5538   20.9960 C   0  0  0  0  0  0  0  0  0  0  0  0
   11.8453  -15.6925   21.1758 O   0  0  0  0  0  0  0  0  0  0  0  0
   13.5535  -17.9004   16.2153 O   0  0  0  0  0  0  0  0  0  0  0  0
    7.1186  -12.5205   18.3318 C   0  0  0  0  0  0  0  0  0  0  0  0
    6.9150  -13.1532   19.9839 S   0  0  0  0  0  0  0  0  0  0  0  0
    8.3862  -13.9094   20.6629 C   0  0  0  0  0  0  0  0  0  0  0  0
    8.2293  -14.5433   22.0094 C   0  0  0  0  0  0  0  0  0  0  0  0
    9.4064  -15.3007   22.5352 C   0  0  2  0  0  0  0  0  0  0  0  0
    9.6984  -16.4250   21.6278 N   0  0  0  0  0  0  0  0  0  0  0  0
    9.0659  -15.9206   23.8703 C   0  0  0  0  0  0  0  0  0  0  0  0
    8.3135  -16.9076   24.0054 O   0  0  0  0  0  0  0  0  0  0  0  0
    9.6101  -15.3863   25.0958 N   0  0  0  0  0  0  0  0  0  0  0  0
    9.2094  -15.9042   26.3994 C   0  0  1  0  0  0  0  0  0  0  0  0
    7.7759  -15.6268   26.6863 C   0  0  0  0  0  0  0  0  0  0  0  0
    7.5045  -14.1830   26.7964 C   0  0  0  0  0  0  0  0  0  0  0  0
    8.4593  -13.2432   27.1773 C   0  0  0  0  0  0  0  0  0  0  0  0
    8.1877  -11.8963   27.2757 C   0  0  0  0  0  0  0  0  0  0  0  0
    6.9329  -11.4342   26.9928 C   0  0  0  0  0  0  0  0  0  0  0  0
    5.9606  -12.3143   26.6148 C   0  0  0  0  0  0  0  0  0  0  0  0
    6.2456  -13.6566   26.5205 C   0  0  0  0  0  0  0  0  0  0  0  0
    9.6290  -17.3049   26.5739 C   0  0  0  0  0  0  0  0  0  0  0  0
   10.3136  -17.9739   25.5915 O   0  0  0  0  0  0  0  0  0  0  0  0
    9.3547  -17.9016   27.6413 O   0  0  0  0  0  0  0  0  0  0  0  0
  2  1  1  6
  2  7  1  0
  2  3  1  0
  3  4  1  0
  4  5  1  0
  5  9  1  0
  5  6  2  0
  7  8  2  0
 10 11  1  0
 11 12  1  0
 12 13  1  0
 14 13  1  6
 14 15  1  0
 15  7  1  0
 16 14  1  0
 17 16  2  0
 18 16  1  0
 19 27  1  0
 19 18  1  0
 19 20  1  6
 21 20  1  0
 22 21  2  0
 23 22  1  0
 24 23  2  0
 24 25  1  0
 25 26  2  0
 26 21  1  0
 27 28  1  0
 29 27  2  0
M  END
$$$$
