EMF.pdb
     RDKit          3D

 29 29  0  0  1  0  0  0  0  0999 V2000
    8.4285  -18.5231   19.9378 N   0  0  0  0  0  0  0  0  0  0  0  0
    9.8576  -18.3868   20.1522 C   0  0  1  0  0  0  0  0  0  0  0  0
   10.5261  -18.3534   18.7861 C   0  0  0  0  0  0  0  0  0  0  0  0
    9.5956  -19.0472   17.7965 C   0  0  0  0  0  0  0  0  0  0  0  0
   10.2195  -19.0601   16.4428 C   0  0  0  0  0  0  0  0  0  0  0  0
   10.9696  -20.0113   16.0801 O   0  0  0  0  0  0  0  0  0  0  0  0
   10.1065  -17.1511   20.9242 C   0  0  0  0  0  0  0  0  0  0  0  0
   11.2907  -16.8462   21.1974 O   0  0  0  0  0  0  0  0  0  0  0  0
   10.0117  -18.0430   15.5247 O   0  0  0  0  0  0  0  0  0  0  0  0
    6.2703  -12.3862   19.4727 C   0  0  0  0  0  0  0  0  0  0  0  0
    8.0169  -12.5099   19.1483 S   0  0  0  0  0  0  0  0  0  0  0  0
    8.8154  -13.8874   19.9623 C   0  0  0  0  0  0  0  0  0  0  0  0
    8.6584  -13.9437   21.4494 C   0  0  0  0  0  0  0  0  0  0  0  0
    9.2796  -15.1123   22.1454 C   0  0  2  0  0  0  0  0  0  0  0  0
    9.0414  -16.3286   21.3476 N   0  0  0  0  0  0  0  0  0  0  0  0
    8.5965  -15.3443   23.4729 C   0  0  0  0  0  0  0  0  0  0  0  0
    7.5957  -14.7058   23.8592 O   0  0  0  0  0  0  0  0  0  0  0  0
    9.0816  -16.3473   24.3906 N   0  0  0  0  0  0  0  0  0  0  0  0
    8.8063  -16.2710   25.8212 C   0  0  1  0  0  0  0  0  0  0  0  0
    7.3740  -15.9723   26.0922 C   0  0  0  0  0  0  0  0  0  0  0  0
    7.1507  -14.5418   26.3649 C   0  0  0  0  0  0  0  0  0  0  0  0
    5.9163  -13.9116   26.2274 C   0  0  0  0  0  0  0  0  0  0  0  0
    5.7255  -12.5721   26.4861 C   0  0  0  0  0  0  0  0  0  0  0  0
    6.7781  -11.8035   26.8976 C   0  0  0  0  0  0  0  0  0  0  0  0
    8.0095  -12.3729   27.0480 C   0  0  0  0  0  0  0  0  0  0  0  0
    8.1857  -13.7117   26.7862 C   0  0  0  0  0  0  0  0  0  0  0  0
    9.3555  -17.4346   26.5374 C   0  0  0  0  0  0  0  0  0  0  0  0
    9.2524  -17.5491   27.9003 O   0  0  0  0  0  0  0  0  0  0  0  0
    9.9314  -18.3403   25.8906 O   0  0  0  0  0  0  0  0  0  0  0  0
  2  1  1  6
  2  7  1  0
  2  3  1  0
  3  4  1  0
  4  5  1  0
  5  9  1  0
  5  6  2  0
  7  8  2  0
 10 11  1  0
 11 12  1  0
 12 13  1  0
 14 13  1  6
 14 15  1  0
 15  7  1  0
 16 14  1  0
 17 16  2  0
 18 16  1  0
 19 27  1  0
 19 18  1  0
 19 20  1  6
 21 20  1  0
 22 21  2  0
 23 22  1  0
 24 23  2  0
 24 25  1  0
 25 26  2  0
 26 21  1  0
 27 28  1  0
 29 27  2  0
M  END
$$$$
