EMF.pdb
     RDKit          3D

 29 29  0  0  1  0  0  0  0  0999 V2000
    8.5521  -16.5445   18.8815 N   0  0  0  0  0  0  0  0  0  0  0  0
    9.2389  -17.3904   19.8406 C   0  0  1  0  0  0  0  0  0  0  0  0
   10.5722  -17.7914   19.2276 C   0  0  0  0  0  0  0  0  0  0  0  0
   10.5693  -17.3373   17.7715 C   0  0  0  0  0  0  0  0  0  0  0  0
   11.8323  -17.7681   17.1072 C   0  0  0  0  0  0  0  0  0  0  0  0
   12.8758  -17.0565   17.1678 O   0  0  0  0  0  0  0  0  0  0  0  0
    9.4097  -16.6376   21.1012 C   0  0  0  0  0  0  0  0  0  0  0  0
   10.3523  -15.8160   21.1829 O   0  0  0  0  0  0  0  0  0  0  0  0
   11.9255  -18.9554   16.3984 O   0  0  0  0  0  0  0  0  0  0  0  0
    6.2264  -12.8779   26.1356 C   0  0  0  0  0  0  0  0  0  0  0  0
    7.1272  -13.1575   24.6250 S   0  0  0  0  0  0  0  0  0  0  0  0
    6.6058  -14.6100   23.7218 C   0  0  0  0  0  0  0  0  0  0  0  0
    7.3287  -15.8771   24.0548 C   0  0  0  0  0  0  0  0  0  0  0  0
    8.6788  -16.0607   23.4389 C   0  0  2  0  0  0  0  0  0  0  0  0
    8.5366  -16.8336   22.1918 N   0  0  0  0  0  0  0  0  0  0  0  0
    9.5512  -16.8941   24.3483 C   0  0  0  0  0  0  0  0  0  0  0  0
    9.6018  -18.1409   24.3101 O   0  0  0  0  0  0  0  0  0  0  0  0
   10.3969  -16.2715   25.3386 N   0  0  0  0  0  0  0  0  0  0  0  0
   11.2349  -17.0620   26.2336 C   0  0  1  0  0  0  0  0  0  0  0  0
   12.1786  -16.2075   27.0039 C   0  0  0  0  0  0  0  0  0  0  0  0
   11.4732  -15.2832   27.9087 C   0  0  0  0  0  0  0  0  0  0  0  0
   10.8912  -14.0879   27.4936 C   0  0  0  0  0  0  0  0  0  0  0  0
   10.2358  -13.2348   28.3540 C   0  0  0  0  0  0  0  0  0  0  0  0
   10.1376  -13.5513   29.6800 C   0  0  0  0  0  0  0  0  0  0  0  0
   10.6912  -14.7117   30.1382 C   0  0  0  0  0  0  0  0  0  0  0  0
   11.3428  -15.5544   29.2680 C   0  0  0  0  0  0  0  0  0  0  0  0
   10.4304  -17.9978   27.0370 C   0  0  0  0  0  0  0  0  0  0  0  0
    9.0712  -17.8547   27.1533 O   0  0  0  0  0  0  0  0  0  0  0  0
   10.9972  -18.9453   27.6298 O   0  0  0  0  0  0  0  0  0  0  0  0
  2  1  1  6
  2  7  1  0
  2  3  1  0
  3  4  1  0
  4  5  1  0
  5  9  1  0
  5  6  2  0
  7  8  2  0
 10 11  1  0
 11 12  1  0
 12 13  1  0
 14 13  1  1
 14 15  1  0
 15  7  1  0
 16 14  1  0
 17 16  2  0
 18 16  1  0
 19 27  1  0
 19 18  1  0
 19 20  1  1
 21 20  1  0
 22 21  2  0
 23 22  1  0
 24 23  2  0
 24 25  1  0
 25 26  2  0
 26 21  1  0
 27 28  1  0
 29 27  2  0
M  END
$$$$
