EMF.pdb
     RDKit          3D

 29 29  0  0  1  0  0  0  0  0999 V2000
    9.9105  -19.5793   18.8915 N   0  0  0  0  0  0  0  0  0  0  0  0
    8.7874  -19.0126   19.6158 C   0  0  1  0  0  0  0  0  0  0  0  0
    8.2551  -20.0870   20.5519 C   0  0  0  0  0  0  0  0  0  0  0  0
    9.4297  -20.6143   21.3696 C   0  0  0  0  0  0  0  0  0  0  0  0
    8.9381  -21.5823   22.3910 C   0  0  0  0  0  0  0  0  0  0  0  0
    8.5375  -22.7343   22.0571 O   0  0  0  0  0  0  0  0  0  0  0  0
    9.2501  -17.8151   20.3484 C   0  0  0  0  0  0  0  0  0  0  0  0
   10.4809  -17.6635   20.5275 O   0  0  0  0  0  0  0  0  0  0  0  0
    8.8957  -21.2726   23.7411 O   0  0  0  0  0  0  0  0  0  0  0  0
    7.1868  -11.7417   19.2493 C   0  0  0  0  0  0  0  0  0  0  0  0
    7.3470  -11.7649   21.0227 S   0  0  0  0  0  0  0  0  0  0  0  0
    8.2920  -13.1460   21.6528 C   0  0  0  0  0  0  0  0  0  0  0  0
    7.9846  -14.4770   21.0418 C   0  0  0  0  0  0  0  0  0  0  0  0
    8.7907  -15.6395   21.5263 C   0  0  2  0  0  0  0  0  0  0  0  0
    8.3342  -16.8605   20.8382 N   0  0  0  0  0  0  0  0  0  0  0  0
    8.5321  -15.8688   22.9971 C   0  0  0  0  0  0  0  0  0  0  0  0
    7.4679  -16.3392   23.4495 O   0  0  0  0  0  0  0  0  0  0  0  0
    9.5338  -15.5454   23.9847 N   0  0  0  0  0  0  0  0  0  0  0  0
    9.2968  -15.7519   25.4093 C   0  0  1  0  0  0  0  0  0  0  0  0
    7.8435  -15.7918   25.7266 C   0  0  0  0  0  0  0  0  0  0  0  0
    7.3135  -14.4570   26.0548 C   0  0  0  0  0  0  0  0  0  0  0  0
    8.0969  -13.4099   26.5341 C   0  0  0  0  0  0  0  0  0  0  0  0
    7.5842  -12.1677   26.8367 C   0  0  0  0  0  0  0  0  0  0  0  0
    6.2498  -11.9245   26.6683 C   0  0  0  0  0  0  0  0  0  0  0  0
    5.4381  -12.9174   26.2011 C   0  0  0  0  0  0  0  0  0  0  0  0
    5.9635  -14.1532   25.9029 C   0  0  0  0  0  0  0  0  0  0  0  0
   10.0879  -16.8803   25.9282 C   0  0  0  0  0  0  0  0  0  0  0  0
   10.8203  -17.6842   25.0924 O   0  0  0  0  0  0  0  0  0  0  0  0
   10.0927  -17.1146   27.1593 O   0  0  0  0  0  0  0  0  0  0  0  0
  2  1  1  1
  2  7  1  0
  2  3  1  0
  3  4  1  0
  4  5  1  0
  5  9  1  0
  5  6  2  0
  7  8  2  0
 10 11  1  0
 11 12  1  0
 12 13  1  0
 14 13  1  6
 14 15  1  0
 15  7  1  0
 16 14  1  0
 17 16  2  0
 18 16  1  0
 19 27  1  0
 19 18  1  0
 19 20  1  6
 21 20  1  0
 22 21  2  0
 23 22  1  0
 24 23  2  0
 24 25  1  0
 25 26  2  0
 26 21  1  0
 27 28  1  0
 29 27  2  0
M  END
$$$$
