EMF.pdb
     RDKit          3D

 29 29  0  0  1  0  0  0  0  0999 V2000
    9.0058  -19.3888   21.1479 N   0  0  0  0  0  0  0  0  0  0  0  0
   10.2045  -18.6954   20.7125 C   0  0  1  0  0  0  0  0  0  0  0  0
   10.1754  -18.6375   19.1926 C   0  0  0  0  0  0  0  0  0  0  0  0
    8.9058  -17.8997   18.7801 C   0  0  0  0  0  0  0  0  0  0  0  0
    8.8797  -17.7318   17.2991 C   0  0  0  0  0  0  0  0  0  0  0  0
    8.9866  -16.5877   16.7713 O   0  0  0  0  0  0  0  0  0  0  0  0
   10.2216  -17.3484   21.3208 C   0  0  0  0  0  0  0  0  0  0  0  0
   11.1363  -16.5571   20.9934 O   0  0  0  0  0  0  0  0  0  0  0  0
    8.7387  -18.8075   16.4368 O   0  0  0  0  0  0  0  0  0  0  0  0
    6.4319  -12.2028   25.9721 C   0  0  0  0  0  0  0  0  0  0  0  0
    6.6031  -13.8171   25.2400 S   0  0  0  0  0  0  0  0  0  0  0  0
    7.6659  -13.8583   23.8025 C   0  0  0  0  0  0  0  0  0  0  0  0
    7.8472  -15.2004   23.1660 C   0  0  0  0  0  0  0  0  0  0  0  0
    9.2520  -15.6169   22.8680 C   0  0  2  0  0  0  0  0  0  0  0  0
    9.2351  -16.9547   22.2493 N   0  0  0  0  0  0  0  0  0  0  0  0
   10.0304  -15.7627   24.1546 C   0  0  0  0  0  0  0  0  0  0  0  0
   10.8327  -14.9066   24.5810 O   0  0  0  0  0  0  0  0  0  0  0  0
    9.8814  -16.9360   24.9820 N   0  0  0  0  0  0  0  0  0  0  0  0
   10.7553  -17.1817   26.1240 C   0  0  1  0  0  0  0  0  0  0  0  0
   10.0148  -17.1028   27.4123 C   0  0  0  0  0  0  0  0  0  0  0  0
    9.7805  -15.7095   27.8296 C   0  0  0  0  0  0  0  0  0  0  0  0
   10.7603  -14.8953   28.3923 C   0  0  0  0  0  0  0  0  0  0  0  0
   10.5233  -13.5941   28.7777 C   0  0  0  0  0  0  0  0  0  0  0  0
    9.2793  -13.0528   28.6118 C   0  0  0  0  0  0  0  0  0  0  0  0
    8.2833  -13.8090   28.0648 C   0  0  0  0  0  0  0  0  0  0  0  0
    8.5340  -15.1068   27.6844 C   0  0  0  0  0  0  0  0  0  0  0  0
   11.5616  -18.3989   25.9323 C   0  0  0  0  0  0  0  0  0  0  0  0
   11.4256  -19.1774   24.8113 O   0  0  0  0  0  0  0  0  0  0  0  0
   12.3894  -18.7340   26.8114 O   0  0  0  0  0  0  0  0  0  0  0  0
  2  1  1  1
  2  7  1  0
  2  3  1  0
  3  4  1  0
  4  5  1  0
  5  9  1  0
  5  6  2  0
  7  8  2  0
 10 11  1  0
 11 12  1  0
 12 13  1  0
 14 13  1  1
 14 15  1  0
 15  7  1  0
 16 14  1  0
 17 16  2  0
 18 16  1  0
 19 27  1  0
 19 18  1  0
 19 20  1  1
 21 20  1  0
 22 21  2  0
 23 22  1  0
 24 23  2  0
 24 25  1  0
 25 26  2  0
 26 21  1  0
 27 28  1  0
 29 27  2  0
M  END
$$$$
