EMF.pdb
     RDKit          3D

 29 29  0  0  1  0  0  0  0  0999 V2000
    9.7460  -17.4002   17.9120 N   0  0  0  0  0  0  0  0  0  0  0  0
   10.4966  -17.6515   19.1287 C   0  0  1  0  0  0  0  0  0  0  0  0
   11.9725  -17.6784   18.7609 C   0  0  0  0  0  0  0  0  0  0  0  0
   12.5830  -18.9311   19.3808 C   0  0  0  0  0  0  0  0  0  0  0  0
   14.0692  -18.8668   19.2862 C   0  0  0  0  0  0  0  0  0  0  0  0
   14.6776  -17.7592   19.3326 O   0  0  0  0  0  0  0  0  0  0  0  0
   10.1858  -16.5878   20.1069 C   0  0  0  0  0  0  0  0  0  0  0  0
   10.6557  -15.4425   19.9128 O   0  0  0  0  0  0  0  0  0  0  0  0
   14.8495  -20.0032   19.1442 O   0  0  0  0  0  0  0  0  0  0  0  0
    7.8466  -12.3573   21.3858 C   0  0  0  0  0  0  0  0  0  0  0  0
    7.5132  -13.4366   20.0091 S   0  0  0  0  0  0  0  0  0  0  0  0
    7.0843  -15.1080   20.4784 C   0  0  0  0  0  0  0  0  0  0  0  0
    7.4667  -15.5117   21.8676 C   0  0  0  0  0  0  0  0  0  0  0  0
    8.9199  -15.7600   22.1178 C   0  0  2  0  0  0  0  0  0  0  0  0
    9.3801  -16.8473   21.2354 N   0  0  0  0  0  0  0  0  0  0  0  0
    9.1224  -16.2559   23.5305 C   0  0  0  0  0  0  0  0  0  0  0  0
    9.3453  -17.4492   23.8217 O   0  0  0  0  0  0  0  0  0  0  0  0
    9.0665  -15.3467   24.6502 N   0  0  0  0  0  0  0  0  0  0  0  0
    9.2419  -15.8120   26.0217 C   0  0  1  0  0  0  0  0  0  0  0  0
    9.1423  -14.6953   27.0000 C   0  0  0  0  0  0  0  0  0  0  0  0
    7.9965  -13.8137   26.7164 C   0  0  0  0  0  0  0  0  0  0  0  0
    8.1167  -12.4547   26.4364 C   0  0  0  0  0  0  0  0  0  0  0  0
    7.0337  -11.6448   26.1741 C   0  0  0  0  0  0  0  0  0  0  0  0
    5.7731  -12.1728   26.1828 C   0  0  0  0  0  0  0  0  0  0  0  0
    5.6007  -13.4998   26.4518 C   0  0  0  0  0  0  0  0  0  0  0  0
    6.6909  -14.2970   26.7119 C   0  0  0  0  0  0  0  0  0  0  0  0
    8.3907  -16.9793   26.3067 C   0  0  0  0  0  0  0  0  0  0  0  0
    7.3119  -17.2873   25.5176 O   0  0  0  0  0  0  0  0  0  0  0  0
    8.6543  -17.7079   27.2917 O   0  0  0  0  0  0  0  0  0  0  0  0
  2  1  1  6
  2  7  1  0
  2  3  1  0
  3  4  1  0
  4  5  1  0
  5  9  1  0
  5  6  2  0
  7  8  2  0
 10 11  1  0
 11 12  1  0
 12 13  1  0
 14 13  1  6
 14 15  1  0
 15  7  1  0
 16 14  1  0
 17 16  2  0
 18 16  1  0
 19 27  1  0
 19 18  1  0
 19 20  1  1
 21 20  1  0
 22 21  2  0
 23 22  1  0
 24 23  2  0
 24 25  1  0
 25 26  2  0
 26 21  1  0
 27 28  1  0
 29 27  2  0
M  END
$$$$
