HCT.pdb
     RDKit          3D

 24 24  0  0  1  0  0  0  0  0999 V2000
    9.7469  -14.9352   20.9647 N   0  0  0  0  0  0  0  0  0  0  0  0
    8.6535  -14.1374   21.4772 C   0  0  1  0  0  0  0  0  0  0  0  0
    7.3382  -14.5939   20.8323 C   0  0  0  0  0  0  0  0  0  0  0  0
    7.3792  -14.2487   19.3888 C   0  0  0  0  0  0  0  0  0  0  0  0
    7.7433  -13.0570   18.7951 C   0  0  0  0  0  0  0  0  0  0  0  0
    7.6281  -13.2003   17.4661 N   0  0  0  0  0  0  0  0  0  0  0  0
    7.2031  -14.4431   17.1973 C   0  0  0  0  0  0  0  0  0  0  0  0
    7.0533  -15.0761   18.3685 N   0  0  0  0  0  0  0  0  0  0  0  0
    8.5157  -14.4158   22.9249 C   0  0  0  0  0  0  0  0  0  0  0  0
    9.2436  -15.3393   23.3903 O   0  0  0  0  0  0  0  0  0  0  0  0
    7.6245  -13.6991   23.7584 N   0  0  0  0  0  0  0  0  0  0  0  0
    7.7393  -13.8608   25.1770 C   0  0  1  0  0  0  0  0  0  0  0  0
    6.8549  -12.8501   25.8829 C   0  0  0  0  0  0  0  0  0  0  0  0
    7.1230  -13.0383   27.6634 S   0  0  0  0  0  0  0  0  0  0  0  0
    7.3816  -15.1886   25.6646 C   0  0  0  0  0  0  0  0  0  0  0  0
    6.2216  -15.5988   25.6026 O   0  0  0  0  0  0  0  0  0  0  0  0
    7.7779  -18.3278   24.4466 C   0  0  0  0  0  0  0  0  0  0  0  0
    8.5853  -18.4235   25.7248 C   0  0  1  0  0  0  0  0  0  0  0  0
    9.9163  -18.1958   25.3588 O   0  0  0  0  0  0  0  0  0  0  0  0
    8.1959  -17.3493   26.6870 C   0  0  2  0  0  0  0  0  0  0  0  0
    8.3848  -16.0124   26.2152 N   0  0  0  0  0  0  0  0  0  0  0  0
    8.9523  -17.5219   27.9497 C   0  0  0  0  0  0  0  0  0  0  0  0
    8.9006  -18.6804   28.7054 O   0  0  0  0  0  0  0  0  0  0  0  0
    9.6977  -16.5923   28.4029 O   0  0  0  0  0  0  0  0  0  0  0  0
  2  1  1  6
  3  4  1  0
  3  2  1  0
  4  5  2  0
  5  6  1  0
  7  6  1  0
  8  7  2  0
  8  4  1  0
  9  2  1  0
  9 10  2  0
 11  9  1  0
 12 11  1  0
 12 15  1  0
 12 13  1  1
 14 13  1  0
 15 21  1  0
 16 15  2  0
 18 20  1  0
 18 17  1  6
 19 18  1  0
 20 22  1  0
 20 21  1  6
 22 24  2  0
 22 23  1  0
M  END
$$$$
