HCT.pdb
     RDKit          3D

 24 24  0  0  1  0  0  0  0  0999 V2000
   10.0181  -14.2302   20.9556 N   0  0  0  0  0  0  0  0  0  0  0  0
    8.7513  -13.9137   21.5799 C   0  0  1  0  0  0  0  0  0  0  0  0
    7.6282  -14.6988   20.8897 C   0  0  0  0  0  0  0  0  0  0  0  0
    7.5917  -14.3048   19.4586 C   0  0  0  0  0  0  0  0  0  0  0  0
    7.8327  -13.0674   18.8964 C   0  0  0  0  0  0  0  0  0  0  0  0
    7.6863  -13.1771   17.5672 N   0  0  0  0  0  0  0  0  0  0  0  0
    7.3605  -14.4426   17.2679 C   0  0  0  0  0  0  0  0  0  0  0  0
    7.3042  -15.1239   18.4202 N   0  0  0  0  0  0  0  0  0  0  0  0
    8.7893  -14.4005   22.9778 C   0  0  0  0  0  0  0  0  0  0  0  0
    9.6502  -15.2893   23.2390 O   0  0  0  0  0  0  0  0  0  0  0  0
    7.9189  -13.9107   23.9802 N   0  0  0  0  0  0  0  0  0  0  0  0
    8.1200  -14.3470   25.3297 C   0  0  1  0  0  0  0  0  0  0  0  0
    7.3021  -13.4874   26.2753 C   0  0  0  0  0  0  0  0  0  0  0  0
    5.5768  -13.5671   25.7329 S   0  0  0  0  0  0  0  0  0  0  0  0
    7.7677  -15.7419   25.5725 C   0  0  0  0  0  0  0  0  0  0  0  0
    6.7025  -16.2097   25.1673 O   0  0  0  0  0  0  0  0  0  0  0  0
    8.3924  -18.6554   24.1819 C   0  0  0  0  0  0  0  0  0  0  0  0
    9.0352  -18.8872   25.5340 C   0  0  1  0  0  0  0  0  0  0  0  0
   10.3899  -18.5752   25.3760 O   0  0  0  0  0  0  0  0  0  0  0  0
    8.4781  -17.9551   26.5597 C   0  0  2  0  0  0  0  0  0  0  0  0
    8.6657  -16.5644   26.2835 N   0  0  0  0  0  0  0  0  0  0  0  0
    9.0736  -18.2646   27.8809 C   0  0  0  0  0  0  0  0  0  0  0  0
    8.9371  -19.4961   28.4979 O   0  0  0  0  0  0  0  0  0  0  0  0
    9.7505  -17.3925   28.5185 O   0  0  0  0  0  0  0  0  0  0  0  0
  2  1  1  6
  3  4  1  0
  3  2  1  0
  4  5  2  0
  5  6  1  0
  7  6  1  0
  8  7  2  0
  8  4  1  0
  9  2  1  0
  9 10  2  0
 11  9  1  0
 12 11  1  0
 12 15  1  0
 12 13  1  1
 14 13  1  0
 15 21  1  0
 16 15  2  0
 18 20  1  0
 18 17  1  6
 19 18  1  0
 20 22  1  0
 20 21  1  6
 22 24  2  0
 22 23  1  0
M  END
$$$$
