HCT.pdb
     RDKit          3D

 24 24  0  0  1  0  0  0  0  0999 V2000
   10.0171  -14.0850   21.1588 N   0  0  0  0  0  0  0  0  0  0  0  0
    8.6444  -13.9755   21.6044 C   0  0  1  0  0  0  0  0  0  0  0  0
    7.7783  -14.9969   20.8556 C   0  0  0  0  0  0  0  0  0  0  0  0
    7.5839  -14.5163   19.4643 C   0  0  0  0  0  0  0  0  0  0  0  0
    8.1723  -13.4399   18.8315 C   0  0  0  0  0  0  0  0  0  0  0  0
    7.6993  -13.3833   17.5773 N   0  0  0  0  0  0  0  0  0  0  0  0
    6.8307  -14.3877   17.3936 C   0  0  0  0  0  0  0  0  0  0  0  0
    6.7639  -15.0733   18.5428 N   0  0  0  0  0  0  0  0  0  0  0  0
    8.5887  -14.3630   23.0325 C   0  0  0  0  0  0  0  0  0  0  0  0
    9.5348  -15.0885   23.4542 O   0  0  0  0  0  0  0  0  0  0  0  0
    7.5430  -13.9542   23.8937 N   0  0  0  0  0  0  0  0  0  0  0  0
    7.6160  -14.3218   25.2763 C   0  0  1  0  0  0  0  0  0  0  0  0
    6.4655  -13.6904   26.0377 C   0  0  0  0  0  0  0  0  0  0  0  0
    6.6512  -11.8936   25.9179 S   0  0  0  0  0  0  0  0  0  0  0  0
    7.5816  -15.7596   25.5217 C   0  0  0  0  0  0  0  0  0  0  0  0
    6.5818  -16.4278   25.2540 O   0  0  0  0  0  0  0  0  0  0  0  0
    9.3091  -18.4179   23.9320 C   0  0  0  0  0  0  0  0  0  0  0  0
    9.8047  -18.4874   25.3618 C   0  0  1  0  0  0  0  0  0  0  0  0
   11.0111  -17.7792   25.3871 O   0  0  0  0  0  0  0  0  0  0  0  0
    8.8609  -17.7965   26.2909 C   0  0  2  0  0  0  0  0  0  0  0  0
    8.7150  -16.3902   26.0749 N   0  0  0  0  0  0  0  0  0  0  0  0
    9.2938  -18.0228   27.6900 C   0  0  0  0  0  0  0  0  0  0  0  0
    9.3297  -19.2777   28.2729 O   0  0  0  0  0  0  0  0  0  0  0  0
    9.6589  -17.0520   28.4314 O   0  0  0  0  0  0  0  0  0  0  0  0
  2  1  1  6
  3  4  1  0
  3  2  1  0
  4  5  2  0
  5  6  1  0
  7  6  1  0
  8  7  2  0
  8  4  1  0
  9  2  1  0
  9 10  2  0
 11  9  1  0
 12 11  1  0
 12 15  1  0
 12 13  1  1
 14 13  1  0
 15 21  1  0
 16 15  2  0
 18 20  1  0
 18 17  1  6
 19 18  1  0
 20 22  1  0
 20 21  1  6
 22 24  2  0
 22 23  1  0
M  END
$$$$
