HCT.pdb
     RDKit          3D

 24 24  0  0  1  0  0  0  0  0999 V2000
   11.8179  -13.8574   19.4868 N   0  0  0  0  0  0  0  0  0  0  0  0
   10.4246  -14.0777   19.8106 C   0  0  1  0  0  0  0  0  0  0  0  0
    9.8753  -15.2299   18.9592 C   0  0  0  0  0  0  0  0  0  0  0  0
    9.2059  -14.6533   17.7659 C   0  0  0  0  0  0  0  0  0  0  0  0
    9.1135  -13.3309   17.3813 C   0  0  0  0  0  0  0  0  0  0  0  0
    8.4165  -13.2769   16.2361 N   0  0  0  0  0  0  0  0  0  0  0  0
    8.0639  -14.5209   15.8818 C   0  0  0  0  0  0  0  0  0  0  0  0
    8.5458  -15.3536   16.8143 N   0  0  0  0  0  0  0  0  0  0  0  0
   10.3425  -14.5348   21.2166 C   0  0  0  0  0  0  0  0  0  0  0  0
   11.4158  -14.9620   21.7311 O   0  0  0  0  0  0  0  0  0  0  0  0
    9.1389  -14.5031   21.9602 N   0  0  0  0  0  0  0  0  0  0  0  0
    9.1747  -14.9132   23.3322 C   0  0  1  0  0  0  0  0  0  0  0  0
    7.9256  -14.4310   24.0457 C   0  0  0  0  0  0  0  0  0  0  0  0
    7.8916  -12.6248   23.9283 S   0  0  0  0  0  0  0  0  0  0  0  0
    9.2760  -16.3553   23.5292 C   0  0  0  0  0  0  0  0  0  0  0  0
    8.4312  -17.1225   23.0653 O   0  0  0  0  0  0  0  0  0  0  0  0
   11.8277  -18.5687   22.3004 C   0  0  0  0  0  0  0  0  0  0  0  0
   11.8934  -18.7547   23.8024 C   0  0  1  0  0  0  0  0  0  0  0  0
   12.9463  -17.9470   24.2457 O   0  0  0  0  0  0  0  0  0  0  0  0
   10.6451  -18.2627   24.4590 C   0  0  2  0  0  0  0  0  0  0  0  0
   10.3618  -16.8745   24.2640 N   0  0  0  0  0  0  0  0  0  0  0  0
   10.7135  -18.5368   25.9138 C   0  0  0  0  0  0  0  0  0  0  0  0
   10.7796  -19.8170   26.4359 O   0  0  0  0  0  0  0  0  0  0  0  0
   10.7144  -17.5864   26.7634 O   0  0  0  0  0  0  0  0  0  0  0  0
  2  1  1  6
  3  4  1  0
  3  2  1  0
  4  5  2  0
  5  6  1  0
  7  6  1  0
  8  7  2  0
  8  4  1  0
  9  2  1  0
  9 10  2  0
 11  9  1  0
 12 11  1  0
 12 15  1  0
 12 13  1  1
 14 13  1  0
 15 21  1  0
 16 15  2  0
 18 20  1  0
 18 17  1  6
 19 18  1  0
 20 22  1  0
 20 21  1  1
 22 24  2  0
 22 23  1  0
M  END
$$$$
