HCT.pdb
     RDKit          3D

 24 24  0  0  1  0  0  0  0  0999 V2000
    8.7878  -12.3605   20.2735 N   0  0  0  0  0  0  0  0  0  0  0  0
    8.0886  -13.4953   20.8374 C   0  0  1  0  0  0  0  0  0  0  0  0
    8.5150  -14.7758   20.1074 C   0  0  0  0  0  0  0  0  0  0  0  0
    8.0576  -14.6863   18.6977 C   0  0  0  0  0  0  0  0  0  0  0  0
    7.4217  -13.6401   18.0601 C   0  0  0  0  0  0  0  0  0  0  0  0
    7.1970  -14.0014   16.7876 N   0  0  0  0  0  0  0  0  0  0  0  0
    7.6692  -15.2415   16.5971 C   0  0  0  0  0  0  0  0  0  0  0  0
    8.1911  -15.6534   17.7603 N   0  0  0  0  0  0  0  0  0  0  0  0
    8.5295  -13.6604   22.2412 C   0  0  0  0  0  0  0  0  0  0  0  0
    9.6963  -13.2558   22.5139 O   0  0  0  0  0  0  0  0  0  0  0  0
    7.7057  -14.2366   23.2371 N   0  0  0  0  0  0  0  0  0  0  0  0
    8.2593  -14.4473   24.5413 C   0  0  1  0  0  0  0  0  0  0  0  0
    7.4909  -13.6315   25.5640 C   0  0  0  0  0  0  0  0  0  0  0  0
    5.7400  -14.0625   25.4037 S   0  0  0  0  0  0  0  0  0  0  0  0
    8.2554  -15.8383   24.9817 C   0  0  0  0  0  0  0  0  0  0  0  0
    7.2870  -16.5702   24.7718 O   0  0  0  0  0  0  0  0  0  0  0  0
   10.5336  -18.3712   23.7948 C   0  0  0  0  0  0  0  0  0  0  0  0
   10.7404  -18.3777   25.2956 C   0  0  1  0  0  0  0  0  0  0  0  0
   11.8791  -17.5999   25.5318 O   0  0  0  0  0  0  0  0  0  0  0  0
    9.5967  -17.7213   25.9975 C   0  0  2  0  0  0  0  0  0  0  0  0
    9.3822  -16.3485   25.6587 N   0  0  0  0  0  0  0  0  0  0  0  0
    9.7927  -17.8270   27.4627 C   0  0  0  0  0  0  0  0  0  0  0  0
    9.8555  -19.0392   28.1279 O   0  0  0  0  0  0  0  0  0  0  0  0
    9.9144  -16.7853   28.1874 O   0  0  0  0  0  0  0  0  0  0  0  0
  2  1  1  6
  3  4  1  0
  3  2  1  0
  4  5  2  0
  5  6  1  0
  7  6  1  0
  8  7  2  0
  8  4  1  0
  9  2  1  0
  9 10  2  0
 11  9  1  0
 12 11  1  0
 12 15  1  0
 12 13  1  1
 14 13  1  0
 15 21  1  0
 16 15  2  0
 18 20  1  0
 18 17  1  6
 19 18  1  0
 20 22  1  0
 20 21  1  6
 22 24  2  0
 22 23  1  0
M  END
$$$$
