FYL.pdb
     RDKit          3D

 32 33  0  0  1  0  0  0  0  0999 V2000
   26.1796  -17.6361  -16.5335 N   0  0  0  0  0  0  0  0  0  0  0  0
   26.9806  -18.3126  -15.5622 C   0  0  1  0  0  0  0  0  0  0  0  0
   28.1888  -17.4353  -15.2363 C   0  0  0  0  0  0  0  0  0  0  0  0
   29.0749  -17.4403  -16.4330 C   0  0  0  0  0  0  0  0  0  0  0  0
   29.2028  -16.3485  -17.2664 C   0  0  0  0  0  0  0  0  0  0  0  0
   30.0205  -16.3707  -18.3598 C   0  0  0  0  0  0  0  0  0  0  0  0
   30.7640  -17.4865  -18.6915 C   0  0  0  0  0  0  0  0  0  0  0  0
   30.6446  -18.5818  -17.8676 C   0  0  0  0  0  0  0  0  0  0  0  0
   29.8234  -18.5685  -16.7640 C   0  0  0  0  0  0  0  0  0  0  0  0
   26.2879  -18.5851  -14.2927 C   0  0  0  0  0  0  0  0  0  0  0  0
   25.7430  -17.6319  -13.6979 O   0  0  0  0  0  0  0  0  0  0  0  0
   20.1703  -21.1414   -8.9315 O   0  0  0  0  0  0  0  0  0  0  0  0
   21.2202  -21.1675   -9.8738 C   0  0  0  0  0  0  0  0  0  0  0  0
   21.2362  -20.2138  -10.8513 C   0  0  0  0  0  0  0  0  0  0  0  0
   22.2591  -20.2108  -11.7980 C   0  0  0  0  0  0  0  0  0  0  0  0
   23.2633  -21.1482  -11.7782 C   0  0  0  0  0  0  0  0  0  0  0  0
   24.3385  -21.1293  -12.7868 C   0  0  0  0  0  0  0  0  0  0  0  0
   25.4190  -20.1143  -12.4887 C   0  0  2  0  0  0  0  0  0  0  0  0
   26.1941  -19.8702  -13.6894 N   0  0  0  0  0  0  0  0  0  0  0  0
   26.2632  -20.4530  -11.3318 C   0  0  0  0  0  0  0  0  0  0  0  0
   27.0440  -21.4570  -11.4549 O   0  0  0  0  0  0  0  0  0  0  0  0
   23.2131  -22.0905  -10.7805 C   0  0  0  0  0  0  0  0  0  0  0  0
   22.2031  -22.1096   -9.8294 C   0  0  0  0  0  0  0  0  0  0  0  0
   27.3983  -18.6526   -5.8992 C   0  0  0  0  0  0  0  0  0  0  0  0
   28.2504  -19.4602   -6.9330 C   0  0  1  0  0  0  0  0  0  0  0  0
   28.2005  -20.8747   -6.3818 C   0  0  0  0  0  0  0  0  0  0  0  0
   27.5649  -19.2551   -8.2232 C   0  0  0  0  0  0  0  0  0  0  0  0
   26.8156  -20.3790   -8.8520 C   0  0  2  0  0  0  0  0  0  0  0  0
   26.2848  -19.7720  -10.1156 N   0  0  0  0  0  0  0  0  0  0  0  0
   25.7238  -20.9781   -8.1159 C   0  0  0  0  0  0  0  0  0  0  0  0
   25.8449  -22.1424   -7.4017 O   0  0  0  0  0  0  0  0  0  0  0  0
   24.5693  -20.4302   -8.1087 O   0  0  0  0  0  0  0  0  0  0  0  0
  2  1  1  6
  2  3  1  0
  3  4  1  0
  4  5  2  0
  5  6  1  0
  7  6  2  0
  8  7  1  0
  9  8  2  0
  9  4  1  0
 10  2  1  0
 10 11  2  0
 13 12  1  0
 13 23  2  0
 14 13  1  0
 15 14  2  0
 15 16  1  0
 16 22  2  0
 17 16  1  0
 18 19  1  0
 18 17  1  6
 19 10  1  0
 20 18  1  0
 21 20  2  0
 22 23  1  0
 25 27  1  0
 25 24  1  1
 26 25  1  0
 28 27  1  1
 28 30  1  0
 28 29  1  0
 29 20  1  0
 30 31  1  0
 32 30  2  0
M  END
$$$$
