FYL.pdb
     RDKit          3D

 32 33  0  0  1  0  0  0  0  0999 V2000
   27.0689  -17.9786  -17.7001 N   0  0  0  0  0  0  0  0  0  0  0  0
   27.6250  -18.6564  -16.5714 C   0  0  1  0  0  0  0  0  0  0  0  0
   28.8116  -17.8430  -16.0556 C   0  0  0  0  0  0  0  0  0  0  0  0
   29.8812  -17.9165  -17.0889 C   0  0  0  0  0  0  0  0  0  0  0  0
   30.4383  -19.1106  -17.4969 C   0  0  0  0  0  0  0  0  0  0  0  0
   31.4186  -19.1593  -18.4462 C   0  0  0  0  0  0  0  0  0  0  0  0
   31.9061  -18.0167  -19.0499 C   0  0  0  0  0  0  0  0  0  0  0  0
   31.3581  -16.8195  -18.6512 C   0  0  0  0  0  0  0  0  0  0  0  0
   30.3702  -16.7608  -17.6956 C   0  0  0  0  0  0  0  0  0  0  0  0
   26.6910  -18.8217  -15.4462 C   0  0  0  0  0  0  0  0  0  0  0  0
   26.1548  -17.8014  -14.9657 O   0  0  0  0  0  0  0  0  0  0  0  0
   19.9225  -21.3075  -10.5828 O   0  0  0  0  0  0  0  0  0  0  0  0
   20.9967  -21.2710  -11.4969 C   0  0  0  0  0  0  0  0  0  0  0  0
   21.1452  -20.1596  -12.2768 C   0  0  0  0  0  0  0  0  0  0  0  0
   22.1956  -20.0909  -13.1902 C   0  0  0  0  0  0  0  0  0  0  0  0
   23.0968  -21.1183  -13.3321 C   0  0  0  0  0  0  0  0  0  0  0  0
   24.2031  -21.0281  -14.3025 C   0  0  0  0  0  0  0  0  0  0  0  0
   25.3675  -20.2014  -13.8054 C   0  0  2  0  0  0  0  0  0  0  0  0
   26.3525  -20.0738  -14.8616 N   0  0  0  0  0  0  0  0  0  0  0  0
   25.9531  -20.6805  -12.5432 C   0  0  0  0  0  0  0  0  0  0  0  0
   26.5771  -21.7952  -12.5770 O   0  0  0  0  0  0  0  0  0  0  0  0
   22.9147  -22.2185  -12.5308 C   0  0  0  0  0  0  0  0  0  0  0  0
   21.8752  -22.3052  -11.6159 C   0  0  0  0  0  0  0  0  0  0  0  0
   28.8095  -20.7986   -8.1601 C   0  0  0  0  0  0  0  0  0  0  0  0
   27.5619  -19.8762   -7.9609 C   0  0  1  0  0  0  0  0  0  0  0  0
   28.1447  -18.6669   -7.2501 C   0  0  0  0  0  0  0  0  0  0  0  0
   27.0574  -19.6307   -9.3253 C   0  0  0  0  0  0  0  0  0  0  0  0
   26.2565  -20.6779  -10.0196 C   0  0  2  0  0  0  0  0  0  0  0  0
   25.8866  -20.0224  -11.3160 N   0  0  0  0  0  0  0  0  0  0  0  0
   25.0584  -21.1705   -9.3759 C   0  0  0  0  0  0  0  0  0  0  0  0
   25.0262  -22.3089   -8.6121 O   0  0  0  0  0  0  0  0  0  0  0  0
   23.9505  -20.5466   -9.5041 O   0  0  0  0  0  0  0  0  0  0  0  0
  2  1  1  6
  2  3  1  0
  3  4  1  0
  4  5  2  0
  5  6  1  0
  7  6  2  0
  8  7  1  0
  9  8  2  0
  9  4  1  0
 10  2  1  0
 10 11  2  0
 13 12  1  0
 13 23  2  0
 14 13  1  0
 15 14  2  0
 15 16  1  0
 16 22  2  0
 17 16  1  0
 18 19  1  0
 18 17  1  6
 19 10  1  0
 20 18  1  0
 21 20  2  0
 22 23  1  0
 25 27  1  0
 25 24  1  6
 26 25  1  0
 28 27  1  1
 28 30  1  0
 28 29  1  0
 29 20  1  0
 30 31  1  0
 32 30  2  0
M  END
$$$$
