FYL.pdb
     RDKit          3D

 32 33  0  0  1  0  0  0  0  0999 V2000
   24.0024  -19.5069  -19.3740 N   0  0  0  0  0  0  0  0  0  0  0  0
   22.9909  -18.6964  -18.7719 C   0  0  1  0  0  0  0  0  0  0  0  0
   21.8376  -18.5468  -19.7634 C   0  0  0  0  0  0  0  0  0  0  0  0
   22.3102  -17.6584  -20.8610 C   0  0  0  0  0  0  0  0  0  0  0  0
   22.2679  -16.2825  -20.7725 C   0  0  0  0  0  0  0  0  0  0  0  0
   22.7058  -15.4830  -21.7893 C   0  0  0  0  0  0  0  0  0  0  0  0
   23.2147  -16.0072  -22.9614 C   0  0  0  0  0  0  0  0  0  0  0  0
   23.2619  -17.3786  -23.0613 C   0  0  0  0  0  0  0  0  0  0  0  0
   22.8230  -18.1918  -22.0422 C   0  0  0  0  0  0  0  0  0  0  0  0
   22.4274  -19.2559  -17.5328 C   0  0  0  0  0  0  0  0  0  0  0  0
   22.2636  -20.4917  -17.4609 O   0  0  0  0  0  0  0  0  0  0  0  0
   19.8517  -20.2971   -9.1136 O   0  0  0  0  0  0  0  0  0  0  0  0
   20.3228  -19.7570  -10.3291 C   0  0  0  0  0  0  0  0  0  0  0  0
   21.4325  -20.3142  -10.8978 C   0  0  0  0  0  0  0  0  0  0  0  0
   21.9242  -19.8048  -12.0983 C   0  0  0  0  0  0  0  0  0  0  0  0
   21.3204  -18.7475  -12.7347 C   0  0  0  0  0  0  0  0  0  0  0  0
   21.8534  -18.2222  -14.0051 C   0  0  0  0  0  0  0  0  0  0  0  0
   21.4889  -19.0713  -15.2020 C   0  0  2  0  0  0  0  0  0  0  0  0
   22.0525  -18.4808  -16.4002 N   0  0  0  0  0  0  0  0  0  0  0  0
   20.0488  -19.3452  -15.3322 C   0  0  0  0  0  0  0  0  0  0  0  0
   19.3115  -18.3934  -15.7605 O   0  0  0  0  0  0  0  0  0  0  0  0
   20.2075  -18.2141  -12.1324 C   0  0  0  0  0  0  0  0  0  0  0  0
   19.7032  -18.7075  -10.9376 C   0  0  0  0  0  0  0  0  0  0  0  0
   17.5319  -22.7786  -18.3288 C   0  0  0  0  0  0  0  0  0  0  0  0
   17.7288  -21.4240  -17.5716 C   0  0  1  0  0  0  0  0  0  0  0  0
   16.5120  -20.6193  -17.9949 C   0  0  0  0  0  0  0  0  0  0  0  0
   17.7803  -21.7976  -16.1454 C   0  0  0  0  0  0  0  0  0  0  0  0
   17.9364  -20.7407  -15.1068 C   0  0  2  0  0  0  0  0  0  0  0  0
   19.4217  -20.5530  -15.0300 N   0  0  0  0  0  0  0  0  0  0  0  0
   17.4190  -20.9948  -13.7800 C   0  0  0  0  0  0  0  0  0  0  0  0
   16.1562  -20.6384  -13.3820 O   0  0  0  0  0  0  0  0  0  0  0  0
   18.1444  -21.5736  -12.9015 O   0  0  0  0  0  0  0  0  0  0  0  0
  2  1  1  6
  2  3  1  0
  3  4  1  0
  4  5  2  0
  5  6  1  0
  7  6  2  0
  8  7  1  0
  9  8  2  0
  9  4  1  0
 10  2  1  0
 10 11  2  0
 13 12  1  0
 13 23  2  0
 14 13  1  0
 15 14  2  0
 15 16  1  0
 16 22  2  0
 17 16  1  0
 18 19  1  0
 18 17  1  1
 19 10  1  0
 20 18  1  0
 21 20  2  0
 22 23  1  0
 25 27  1  0
 25 24  1  6
 26 25  1  0
 28 27  1  6
 28 30  1  0
 28 29  1  0
 29 20  1  0
 30 31  1  0
 32 30  2  0
M  END
$$$$
