FYL.pdb
     RDKit          3D

 32 33  0  0  1  0  0  0  0  0999 V2000
   20.4653  -22.7062  -13.7001 N   0  0  0  0  0  0  0  0  0  0  0  0
   19.2171  -22.8760  -13.0250 C   0  0  1  0  0  0  0  0  0  0  0  0
   18.2702  -23.6447  -13.9459 C   0  0  0  0  0  0  0  0  0  0  0  0
   17.7521  -22.6787  -14.9538 C   0  0  0  0  0  0  0  0  0  0  0  0
   16.7138  -21.8113  -14.6853 C   0  0  0  0  0  0  0  0  0  0  0  0
   16.2514  -20.9317  -15.6220 C   0  0  0  0  0  0  0  0  0  0  0  0
   16.7973  -20.8621  -16.8888 C   0  0  0  0  0  0  0  0  0  0  0  0
   17.8337  -21.7225  -17.1683 C   0  0  0  0  0  0  0  0  0  0  0  0
   18.3061  -22.6119  -16.2311 C   0  0  0  0  0  0  0  0  0  0  0  0
   19.3095  -23.6348  -11.7674 C   0  0  0  0  0  0  0  0  0  0  0  0
   20.1335  -24.5705  -11.6985 O   0  0  0  0  0  0  0  0  0  0  0  0
   17.4701  -26.7424   -3.6315 O   0  0  0  0  0  0  0  0  0  0  0  0
   17.5077  -25.9596   -4.8050 C   0  0  0  0  0  0  0  0  0  0  0  0
   18.6749  -25.3257   -5.1228 C   0  0  0  0  0  0  0  0  0  0  0  0
   18.7463  -24.5446   -6.2749 C   0  0  0  0  0  0  0  0  0  0  0  0
   17.6665  -24.3908   -7.1103 C   0  0  0  0  0  0  0  0  0  0  0  0
   17.7602  -23.5618   -8.3260 C   0  0  0  0  0  0  0  0  0  0  0  0
   18.5751  -24.2045   -9.4257 C   0  0  2  0  0  0  0  0  0  0  0  0
   18.5187  -23.3751  -10.6136 N   0  0  0  0  0  0  0  0  0  0  0  0
   18.2208  -25.6063   -9.6994 C   0  0  0  0  0  0  0  0  0  0  0  0
   17.1628  -25.8163  -10.3845 O   0  0  0  0  0  0  0  0  0  0  0  0
   16.5109  -25.0434   -6.7575 C   0  0  0  0  0  0  0  0  0  0  0  0
   16.4206  -25.8252   -5.6148 C   0  0  0  0  0  0  0  0  0  0  0  0
   21.1981  -30.3735  -11.1774 C   0  0  0  0  0  0  0  0  0  0  0  0
   19.7684  -30.1421  -10.5862 C   0  0  1  0  0  0  0  0  0  0  0  0
   19.6893  -31.1760   -9.4763 C   0  0  0  0  0  0  0  0  0  0  0  0
   19.7700  -28.7341  -10.1457 C   0  0  0  0  0  0  0  0  0  0  0  0
   18.5253  -28.1276   -9.5954 C   0  0  2  0  0  0  0  0  0  0  0  0
   18.9407  -26.7229   -9.2770 N   0  0  0  0  0  0  0  0  0  0  0  0
   17.9268  -28.7251   -8.4217 C   0  0  0  0  0  0  0  0  0  0  0  0
   18.3649  -28.4825   -7.1452 O   0  0  0  0  0  0  0  0  0  0  0  0
   16.9409  -29.5302   -8.5355 O   0  0  0  0  0  0  0  0  0  0  0  0
  2  1  1  6
  2  3  1  0
  3  4  1  0
  4  5  2  0
  5  6  1  0
  7  6  2  0
  8  7  1  0
  9  8  2  0
  9  4  1  0
 10  2  1  0
 10 11  2  0
 13 12  1  0
 13 23  2  0
 14 13  1  0
 15 14  2  0
 15 16  1  0
 16 22  2  0
 17 16  1  0
 18 19  1  0
 18 17  1  1
 19 10  1  0
 20 18  1  0
 21 20  2  0
 22 23  1  0
 25 27  1  0
 25 24  1  1
 26 25  1  0
 28 27  1  1
 28 30  1  0
 28 29  1  0
 29 20  1  0
 30 31  1  0
 32 30  2  0
M  END
$$$$
