FYL.pdb
     RDKit          3D

 32 33  0  0  1  0  0  0  0  0999 V2000
   17.9161  -12.8464  -16.0890 N   0  0  0  0  0  0  0  0  0  0  0  0
   18.4493  -11.8167  -16.9244 C   0  0  1  0  0  0  0  0  0  0  0  0
   17.5042  -10.6167  -16.8755 C   0  0  0  0  0  0  0  0  0  0  0  0
   16.2712  -10.9939  -17.6203 C   0  0  0  0  0  0  0  0  0  0  0  0
   15.0490  -11.1526  -17.0006 C   0  0  0  0  0  0  0  0  0  0  0  0
   13.9283  -11.4988  -17.6996 C   0  0  0  0  0  0  0  0  0  0  0  0
   13.9563  -11.7092  -19.0644 C   0  0  0  0  0  0  0  0  0  0  0  0
   15.1698  -11.5539  -19.6936 C   0  0  0  0  0  0  0  0  0  0  0  0
   16.3041  -11.2053  -18.9976 C   0  0  0  0  0  0  0  0  0  0  0  0
   19.7797  -11.3373  -16.5170 C   0  0  0  0  0  0  0  0  0  0  0  0
   20.0329  -11.2560  -15.2970 O   0  0  0  0  0  0  0  0  0  0  0  0
   28.4204   -9.6071  -16.1712 O   0  0  0  0  0  0  0  0  0  0  0  0
   27.1184  -10.0118  -16.5348 C   0  0  0  0  0  0  0  0  0  0  0  0
   26.6029   -9.5509  -17.7126 C   0  0  0  0  0  0  0  0  0  0  0  0
   25.3197   -9.9312  -18.1018 C   0  0  0  0  0  0  0  0  0  0  0  0
   24.5486  -10.7649  -17.3286 C   0  0  0  0  0  0  0  0  0  0  0  0
   23.1936  -11.1581  -17.7564 C   0  0  0  0  0  0  0  0  0  0  0  0
   22.0973  -10.4642  -16.9798 C   0  0  2  0  0  0  0  0  0  0  0  0
   20.8078  -10.9564  -17.4237 N   0  0  0  0  0  0  0  0  0  0  0  0
   22.1782   -8.9950  -17.0025 C   0  0  0  0  0  0  0  0  0  0  0  0
   21.9181   -8.4146  -18.1109 O   0  0  0  0  0  0  0  0  0  0  0  0
   25.1012  -11.2074  -16.1519 C   0  0  0  0  0  0  0  0  0  0  0  0
   26.3766  -10.8398  -15.7477 C   0  0  0  0  0  0  0  0  0  0  0  0
   18.9590   -5.5139  -16.4970 C   0  0  0  0  0  0  0  0  0  0  0  0
   20.3998   -5.7957  -17.0372 C   0  0  1  0  0  0  0  0  0  0  0  0
   20.8289   -4.4432  -17.5793 C   0  0  0  0  0  0  0  0  0  0  0  0
   21.1511   -6.2782  -15.8628 C   0  0  0  0  0  0  0  0  0  0  0  0
   22.5757   -6.6887  -16.0109 C   0  0  2  0  0  0  0  0  0  0  0  0
   22.5125   -8.1836  -15.9193 N   0  0  0  0  0  0  0  0  0  0  0  0
   23.5400   -6.1930  -15.0532 C   0  0  0  0  0  0  0  0  0  0  0  0
   24.1652   -4.9784  -15.1721 O   0  0  0  0  0  0  0  0  0  0  0  0
   23.8585   -6.8931  -14.0327 O   0  0  0  0  0  0  0  0  0  0  0  0
  2  1  1  1
  2  3  1  0
  3  4  1  0
  4  5  2  0
  5  6  1  0
  7  6  2  0
  8  7  1  0
  9  8  2  0
  9  4  1  0
 10  2  1  0
 10 11  2  0
 13 12  1  0
 13 23  2  0
 14 13  1  0
 15 14  2  0
 15 16  1  0
 16 22  2  0
 17 16  1  0
 18 19  1  0
 18 17  1  6
 19 10  1  0
 20 18  1  0
 21 20  2  0
 22 23  1  0
 25 27  1  0
 25 24  1  1
 26 25  1  0
 28 27  1  1
 28 30  1  0
 28 29  1  0
 29 20  1  0
 30 31  1  0
 32 30  2  0
M  END
$$$$
