FYL.pdb
     RDKit          3D

 32 33  0  0  1  0  0  0  0  0999 V2000
   23.1714  -22.2774  -16.5553 N   0  0  0  0  0  0  0  0  0  0  0  0
   23.0647  -23.2164  -15.4831 C   0  0  1  0  0  0  0  0  0  0  0  0
   24.1779  -22.9290  -14.4763 C   0  0  0  0  0  0  0  0  0  0  0  0
   25.4700  -23.2565  -15.1398 C   0  0  0  0  0  0  0  0  0  0  0  0
   26.4050  -22.2941  -15.4599 C   0  0  0  0  0  0  0  0  0  0  0  0
   27.5852  -22.6127  -16.0684 C   0  0  0  0  0  0  0  0  0  0  0  0
   27.9078  -23.9150  -16.3968 C   0  0  0  0  0  0  0  0  0  0  0  0
   26.9830  -24.8838  -16.0824 C   0  0  0  0  0  0  0  0  0  0  0  0
   25.7915  -24.5722  -15.4694 C   0  0  0  0  0  0  0  0  0  0  0  0
   21.7902  -23.1529  -14.7499 C   0  0  0  0  0  0  0  0  0  0  0  0
   21.4050  -22.0438  -14.3250 O   0  0  0  0  0  0  0  0  0  0  0  0
   17.7952  -20.0242  -18.3585 O   0  0  0  0  0  0  0  0  0  0  0  0
   18.0075  -21.1255  -17.5022 C   0  0  0  0  0  0  0  0  0  0  0  0
   17.4201  -21.1092  -16.2693 C   0  0  0  0  0  0  0  0  0  0  0  0
   17.6093  -22.1811  -15.3988 C   0  0  0  0  0  0  0  0  0  0  0  0
   18.3771  -23.2660  -15.7465 C   0  0  0  0  0  0  0  0  0  0  0  0
   18.5655  -24.3920  -14.8135 C   0  0  0  0  0  0  0  0  0  0  0  0
   19.6786  -24.1615  -13.8164 C   0  0  2  0  0  0  0  0  0  0  0  0
   20.9581  -24.2769  -14.4885 N   0  0  0  0  0  0  0  0  0  0  0  0
   19.5957  -25.0047  -12.6131 C   0  0  0  0  0  0  0  0  0  0  0  0
   20.2099  -26.1248  -12.6437 O   0  0  0  0  0  0  0  0  0  0  0  0
   18.9510  -23.2460  -16.9939 C   0  0  0  0  0  0  0  0  0  0  0  0
   18.7743  -22.1882  -17.8741 C   0  0  0  0  0  0  0  0  0  0  0  0
   18.5267  -23.9084   -6.8307 C   0  0  0  0  0  0  0  0  0  0  0  0
   18.6544  -25.1806   -7.7320 C   0  0  1  0  0  0  0  0  0  0  0  0
   17.3775  -25.9435   -7.4241 C   0  0  0  0  0  0  0  0  0  0  0  0
   18.7664  -24.6551   -9.1060 C   0  0  0  0  0  0  0  0  0  0  0  0
   18.8519  -25.5982  -10.2563 C   0  0  2  0  0  0  0  0  0  0  0  0
   18.9067  -24.6854  -11.4440 N   0  0  0  0  0  0  0  0  0  0  0  0
   17.7861  -26.5586  -10.4422 C   0  0  0  0  0  0  0  0  0  0  0  0
   17.8678  -27.8647  -10.0326 O   0  0  0  0  0  0  0  0  0  0  0  0
   16.6979  -26.2157  -11.0179 O   0  0  0  0  0  0  0  0  0  0  0  0
  2  1  1  6
  2  3  1  0
  3  4  1  0
  4  5  2  0
  5  6  1  0
  7  6  2  0
  8  7  1  0
  9  8  2  0
  9  4  1  0
 10  2  1  0
 10 11  2  0
 13 12  1  0
 13 23  2  0
 14 13  1  0
 15 14  2  0
 15 16  1  0
 16 22  2  0
 17 16  1  0
 18 19  1  0
 18 17  1  6
 19 10  1  0
 20 18  1  0
 21 20  2  0
 22 23  1  0
 25 27  1  0
 25 24  1  1
 26 25  1  0
 28 27  1  1
 28 30  1  0
 28 29  1  0
 29 20  1  0
 30 31  1  0
 32 30  2  0
M  END
$$$$
