FYL.pdb
     RDKit          3D

 32 33  0  0  1  0  0  0  0  0999 V2000
   19.8472  -15.5101  -20.5215 N   0  0  0  0  0  0  0  0  0  0  0  0
   19.6549  -14.1925  -20.0024 C   0  0  1  0  0  0  0  0  0  0  0  0
   19.4528  -13.2352  -21.1764 C   0  0  0  0  0  0  0  0  0  0  0  0
   20.7562  -13.1266  -21.8883 C   0  0  0  0  0  0  0  0  0  0  0  0
   21.7110  -12.1905  -21.5496 C   0  0  0  0  0  0  0  0  0  0  0  0
   22.9013  -12.1052  -22.2135 C   0  0  0  0  0  0  0  0  0  0  0  0
   23.2146  -12.9507  -23.2597 C   0  0  0  0  0  0  0  0  0  0  0  0
   22.2699  -13.8887  -23.6067 C   0  0  0  0  0  0  0  0  0  0  0  0
   21.0682  -13.9820  -22.9436 C   0  0  0  0  0  0  0  0  0  0  0  0
   18.4820  -14.0549  -19.1242 C   0  0  0  0  0  0  0  0  0  0  0  0
   17.4209  -14.6218  -19.4588 O   0  0  0  0  0  0  0  0  0  0  0  0
   17.8615  -19.5266  -15.9862 O   0  0  0  0  0  0  0  0  0  0  0  0
   17.8295  -18.1174  -15.9215 C   0  0  0  0  0  0  0  0  0  0  0  0
   16.6126  -17.4978  -15.9076 C   0  0  0  0  0  0  0  0  0  0  0  0
   16.5452  -16.1071  -15.8443 C   0  0  0  0  0  0  0  0  0  0  0  0
   17.6780  -15.3314  -15.7948 C   0  0  0  0  0  0  0  0  0  0  0  0
   17.5882  -13.8613  -15.7266 C   0  0  0  0  0  0  0  0  0  0  0  0
   17.2976  -13.2182  -17.0640 C   0  0  2  0  0  0  0  0  0  0  0  0
   18.4715  -13.3146  -17.9093 N   0  0  0  0  0  0  0  0  0  0  0  0
   16.7795  -11.8438  -16.9733 C   0  0  0  0  0  0  0  0  0  0  0  0
   17.6301  -10.9135  -16.7635 O   0  0  0  0  0  0  0  0  0  0  0  0
   18.8827  -15.9904  -15.8106 C   0  0  0  0  0  0  0  0  0  0  0  0
   18.9698  -17.3737  -15.8734 C   0  0  0  0  0  0  0  0  0  0  0  0
   13.8790   -7.7427  -18.6676 C   0  0  0  0  0  0  0  0  0  0  0  0
   12.9831   -8.7393  -17.8605 C   0  0  1  0  0  0  0  0  0  0  0  0
   11.7159   -8.8078  -18.6951 C   0  0  0  0  0  0  0  0  0  0  0  0
   13.7723   -9.9842  -17.7979 C   0  0  0  0  0  0  0  0  0  0  0  0
   14.9702  -10.0596  -16.9151 C   0  0  2  0  0  0  0  0  0  0  0  0
   15.4421  -11.4705  -17.0981 N   0  0  0  0  0  0  0  0  0  0  0  0
   14.8050   -9.7918  -15.5031 C   0  0  0  0  0  0  0  0  0  0  0  0
   15.1407   -8.5982  -14.9175 O   0  0  0  0  0  0  0  0  0  0  0  0
   14.3308  -10.6875  -14.7247 O   0  0  0  0  0  0  0  0  0  0  0  0
  2  1  1  6
  2  3  1  0
  3  4  1  0
  4  5  2  0
  5  6  1  0
  7  6  2  0
  8  7  1  0
  9  8  2  0
  9  4  1  0
 10  2  1  0
 10 11  2  0
 13 12  1  0
 13 23  2  0
 14 13  1  0
 15 14  2  0
 15 16  1  0
 16 22  2  0
 17 16  1  0
 18 19  1  0
 18 17  1  1
 19 10  1  0
 20 18  1  0
 21 20  2  0
 22 23  1  0
 25 27  1  0
 25 24  1  6
 26 25  1  0
 28 27  1  6
 28 30  1  0
 28 29  1  0
 29 20  1  0
 30 31  1  0
 32 30  2  0
M  END
$$$$
