FYL.pdb
     RDKit          3D

 32 33  0  0  1  0  0  0  0  0999 V2000
   21.7830  -31.9415  -13.8807 N   0  0  0  0  0  0  0  0  0  0  0  0
   22.2899  -33.2776  -13.8575 C   0  0  1  0  0  0  0  0  0  0  0  0
   23.7979  -33.2268  -14.1001 C   0  0  0  0  0  0  0  0  0  0  0  0
   24.0066  -33.1391  -15.5718 C   0  0  0  0  0  0  0  0  0  0  0  0
   24.5127  -32.0111  -16.1838 C   0  0  0  0  0  0  0  0  0  0  0  0
   24.6977  -31.9483  -17.5353 C   0  0  0  0  0  0  0  0  0  0  0  0
   24.3886  -33.0095  -18.3635 C   0  0  0  0  0  0  0  0  0  0  0  0
   23.8831  -34.1402  -17.7645 C   0  0  0  0  0  0  0  0  0  0  0  0
   23.6933  -34.2125  -16.4039 C   0  0  0  0  0  0  0  0  0  0  0  0
   22.0795  -33.9808  -12.5819 C   0  0  0  0  0  0  0  0  0  0  0  0
   21.7472  -33.3100  -11.5826 O   0  0  0  0  0  0  0  0  0  0  0  0
   20.2920  -40.2562   -6.6033 O   0  0  0  0  0  0  0  0  0  0  0  0
   20.6620  -39.5913   -7.7916 C   0  0  0  0  0  0  0  0  0  0  0  0
   19.8653  -38.5768   -8.2403 C   0  0  0  0  0  0  0  0  0  0  0  0
   20.2017  -37.8990   -9.4107 C   0  0  0  0  0  0  0  0  0  0  0  0
   21.3229  -38.2236  -10.1355 C   0  0  0  0  0  0  0  0  0  0  0  0
   21.6646  -37.4950  -11.3709 C   0  0  0  0  0  0  0  0  0  0  0  0
   22.0006  -36.0401  -11.1325 C   0  0  2  0  0  0  0  0  0  0  0  0
   22.2296  -35.3846  -12.4053 N   0  0  0  0  0  0  0  0  0  0  0  0
   23.1013  -35.8227  -10.1802 C   0  0  0  0  0  0  0  0  0  0  0  0
   24.2880  -36.0362  -10.6033 O   0  0  0  0  0  0  0  0  0  0  0  0
   22.0987  -39.2487   -9.6528 C   0  0  0  0  0  0  0  0  0  0  0  0
   21.7801  -39.9350   -8.4897 C   0  0  0  0  0  0  0  0  0  0  0  0
   24.6190  -31.3331   -8.5222 C   0  0  0  0  0  0  0  0  0  0  0  0
   24.9238  -32.8271   -8.8720 C   0  0  1  0  0  0  0  0  0  0  0  0
   26.4302  -32.9152   -8.6982 C   0  0  0  0  0  0  0  0  0  0  0  0
   24.1250  -33.6068   -7.9075 C   0  0  0  0  0  0  0  0  0  0  0  0
   24.1295  -35.0953   -7.9725 C   0  0  2  0  0  0  0  0  0  0  0  0
   22.9600  -35.4028   -8.8584 N   0  0  0  0  0  0  0  0  0  0  0  0
   24.0019  -35.8405   -6.7391 C   0  0  0  0  0  0  0  0  0  0  0  0
   22.8682  -36.5264   -6.3862 O   0  0  0  0  0  0  0  0  0  0  0  0
   24.9689  -35.8834   -5.9048 O   0  0  0  0  0  0  0  0  0  0  0  0
  2  1  1  1
  2  3  1  0
  3  4  1  0
  4  5  2  0
  5  6  1  0
  7  6  2  0
  8  7  1  0
  9  8  2  0
  9  4  1  0
 10  2  1  0
 10 11  2  0
 13 12  1  0
 13 23  2  0
 14 13  1  0
 15 14  2  0
 15 16  1  0
 16 22  2  0
 17 16  1  0
 18 19  1  0
 18 17  1  6
 19 10  1  0
 20 18  1  0
 21 20  2  0
 22 23  1  0
 25 27  1  0
 25 24  1  1
 26 25  1  0
 28 27  1  1
 28 30  1  0
 28 29  1  0
 29 20  1  0
 30 31  1  0
 32 30  2  0
M  END
$$$$
