HFH.pdb
     RDKit          3D

 32 34  0  0  1  0  0  0  0  0999 V2000
   27.9466  -20.9668  -17.3241 N   0  0  0  0  0  0  0  0  0  0  0  0
   26.7104  -20.2992  -17.0890 C   0  0  1  0  0  0  0  0  0  0  0  0
   25.8417  -20.4766  -18.3320 C   0  0  0  0  0  0  0  0  0  0  0  0
   26.1077  -19.3821  -19.3082 C   0  0  0  0  0  0  0  0  0  0  0  0
   26.1142  -18.0322  -19.0701 C   0  0  0  0  0  0  0  0  0  0  0  0
   26.4029  -17.4458  -20.2504 N   0  0  0  0  0  0  0  0  0  0  0  0
   26.5678  -18.4017  -21.1800 C   0  0  0  0  0  0  0  0  0  0  0  0
   26.3852  -19.6162  -20.6008 N   0  0  0  0  0  0  0  0  0  0  0  0
   25.9483  -20.8488  -15.9448 C   0  0  0  0  0  0  0  0  0  0  0  0
   25.6348  -22.0535  -15.8979 O   0  0  0  0  0  0  0  0  0  0  0  0
   25.5702  -20.0076  -14.8946 N   0  0  0  0  0  0  0  0  0  0  0  0
   24.9775  -20.4466  -13.6371 C   0  0  1  0  0  0  0  0  0  0  0  0
   25.5704  -19.7932  -12.4545 C   0  0  0  0  0  0  0  0  0  0  0  0
   26.9534  -20.2556  -12.2250 C   0  0  0  0  0  0  0  0  0  0  0  0
   28.0198  -19.7301  -12.9594 C   0  0  0  0  0  0  0  0  0  0  0  0
   29.3268  -20.1104  -12.7616 C   0  0  0  0  0  0  0  0  0  0  0  0
   29.6299  -21.0516  -11.8014 C   0  0  0  0  0  0  0  0  0  0  0  0
   28.6197  -21.5935  -11.0581 C   0  0  0  0  0  0  0  0  0  0  0  0
   27.3173  -21.1978  -11.2729 C   0  0  0  0  0  0  0  0  0  0  0  0
   23.5356  -20.1457  -13.7432 C   0  0  0  0  0  0  0  0  0  0  0  0
   23.1776  -18.9714  -13.9934 O   0  0  0  0  0  0  0  0  0  0  0  0
   22.5285  -21.1318  -13.5741 N   0  0  0  0  0  0  0  0  0  0  0  0
   21.0921  -20.8283  -13.5901 C   0  0  1  0  0  0  0  0  0  0  0  0
   20.4988  -21.7083  -14.6354 C   0  0  0  0  0  0  0  0  0  0  0  0
   20.7944  -21.2878  -16.0247 C   0  0  0  0  0  0  0  0  0  0  0  0
   20.1636  -20.2445  -16.6933 C   0  0  0  0  0  0  0  0  0  0  0  0
   20.7018  -20.1809  -17.9085 N   0  0  0  0  0  0  0  0  0  0  0  0
   21.6458  -21.1220  -18.0691 C   0  0  0  0  0  0  0  0  0  0  0  0
   21.6793  -21.7798  -16.9058 N   0  0  0  0  0  0  0  0  0  0  0  0
   20.5331  -21.0076  -12.2292 C   0  0  0  0  0  0  0  0  0  0  0  0
   21.1447  -21.9561  -11.3883 O   0  0  0  0  0  0  0  0  0  0  0  0
   19.5564  -20.3648  -11.7974 O   0  0  0  0  0  0  0  0  0  0  0  0
  2  1  1  6
  3  2  1  0
  3  4  1  0
  4  8  1  0
  4  5  2  0
  5  6  1  0
  7  6  1  0
  8  7  2  0
  9 10  2  0
  9  2  1  0
 11  9  1  0
 12 11  1  0
 12 13  1  1
 13 14  1  0
 14 19  1  0
 14 15  2  0
 15 16  1  0
 16 17  2  0
 18 17  1  0
 19 18  2  0
 20 12  1  0
 21 20  2  0
 22 20  1  0
 23 22  1  0
 23 24  1  6
 24 25  1  0
 25 29  1  0
 26 25  2  0
 26 27  1  0
 27 28  1  0
 29 28  2  0
 30 31  1  0
 30 23  1  0
 32 30  2  0
M  END
$$$$
