HFH.pdb
     RDKit          3D

 32 34  0  0  1  0  0  0  0  0999 V2000
   28.6352  -23.7630  -17.7321 N   0  0  0  0  0  0  0  0  0  0  0  0
   28.0442  -22.5151  -17.3820 C   0  0  1  0  0  0  0  0  0  0  0  0
   27.1562  -22.0780  -18.5446 C   0  0  0  0  0  0  0  0  0  0  0  0
   27.9791  -21.4405  -19.6114 C   0  0  0  0  0  0  0  0  0  0  0  0
   28.2095  -20.1028  -19.8029 C   0  0  0  0  0  0  0  0  0  0  0  0
   29.0076  -20.0124  -20.8870 N   0  0  0  0  0  0  0  0  0  0  0  0
   29.2582  -21.2505  -21.3446 C   0  0  0  0  0  0  0  0  0  0  0  0
   28.6194  -22.1507  -20.5537 N   0  0  0  0  0  0  0  0  0  0  0  0
   27.1827  -22.5840  -16.1798 C   0  0  0  0  0  0  0  0  0  0  0  0
   26.4826  -23.5872  -15.9449 O   0  0  0  0  0  0  0  0  0  0  0  0
   27.1486  -21.5084  -15.2879 N   0  0  0  0  0  0  0  0  0  0  0  0
   26.4465  -21.4972  -14.0103 C   0  0  1  0  0  0  0  0  0  0  0  0
   27.0527  -20.5861  -13.0207 C   0  0  0  0  0  0  0  0  0  0  0  0
   26.2548  -20.5368  -11.7797 C   0  0  0  0  0  0  0  0  0  0  0  0
   25.2717  -19.5612  -11.5939 C   0  0  0  0  0  0  0  0  0  0  0  0
   24.4859  -19.4927  -10.4670 C   0  0  0  0  0  0  0  0  0  0  0  0
   24.6528  -20.4156   -9.4570 C   0  0  0  0  0  0  0  0  0  0  0  0
   25.6020  -21.3886   -9.5943 C   0  0  0  0  0  0  0  0  0  0  0  0
   26.3781  -21.4386  -10.7318 C   0  0  0  0  0  0  0  0  0  0  0  0
   25.0572  -21.1009  -14.3163 C   0  0  0  0  0  0  0  0  0  0  0  0
   24.8566  -20.0666  -14.9944 O   0  0  0  0  0  0  0  0  0  0  0  0
   23.9298  -21.8420  -13.8750 N   0  0  0  0  0  0  0  0  0  0  0  0
   22.5456  -21.3845  -14.0490 C   0  0  1  0  0  0  0  0  0  0  0  0
   21.7671  -22.5835  -14.4680 C   0  0  0  0  0  0  0  0  0  0  0  0
   20.3357  -22.3158  -14.7389 C   0  0  0  0  0  0  0  0  0  0  0  0
   19.8434  -21.1838  -15.3789 C   0  0  0  0  0  0  0  0  0  0  0  0
   18.5201  -21.3126  -15.4316 N   0  0  0  0  0  0  0  0  0  0  0  0
   18.1232  -22.4623  -14.8632 C   0  0  0  0  0  0  0  0  0  0  0  0
   19.2503  -23.0511  -14.4511 N   0  0  0  0  0  0  0  0  0  0  0  0
   22.0772  -20.7385  -12.8000 C   0  0  0  0  0  0  0  0  0  0  0  0
   21.2194  -19.6290  -12.9168 O   0  0  0  0  0  0  0  0  0  0  0  0
   22.4035  -21.1271  -11.6614 O   0  0  0  0  0  0  0  0  0  0  0  0
  2  1  1  6
  3  2  1  0
  3  4  1  0
  4  8  1  0
  4  5  2  0
  5  6  1  0
  7  6  1  0
  8  7  2  0
  9 10  2  0
  9  2  1  0
 11  9  1  0
 12 11  1  0
 12 13  1  1
 13 14  1  0
 14 19  1  0
 14 15  2  0
 15 16  1  0
 16 17  2  0
 18 17  1  0
 19 18  2  0
 20 12  1  0
 21 20  2  0
 22 20  1  0
 23 22  1  0
 23 24  1  1
 24 25  1  0
 25 29  1  0
 26 25  2  0
 26 27  1  0
 27 28  1  0
 29 28  2  0
 30 31  1  0
 30 23  1  0
 32 30  2  0
M  END
$$$$
