HFH.pdb
     RDKit          3D

 32 34  0  0  1  0  0  0  0  0999 V2000
   27.7717  -21.5584  -18.7722 N   0  0  0  0  0  0  0  0  0  0  0  0
   27.2066  -20.5003  -18.0039 C   0  0  1  0  0  0  0  0  0  0  0  0
   26.1474  -19.8150  -18.8638 C   0  0  0  0  0  0  0  0  0  0  0  0
   26.7887  -19.1169  -20.0140 C   0  0  0  0  0  0  0  0  0  0  0  0
   26.6271  -19.3824  -21.3491 C   0  0  0  0  0  0  0  0  0  0  0  0
   27.4050  -18.4954  -22.0035 N   0  0  0  0  0  0  0  0  0  0  0  0
   28.0222  -17.7132  -21.1022 C   0  0  0  0  0  0  0  0  0  0  0  0
   27.6434  -18.0938  -19.8550 N   0  0  0  0  0  0  0  0  0  0  0  0
   26.5322  -20.9598  -16.7685 C   0  0  0  0  0  0  0  0  0  0  0  0
   25.6963  -21.8829  -16.7954 O   0  0  0  0  0  0  0  0  0  0  0  0
   26.8333  -20.3520  -15.5464 N   0  0  0  0  0  0  0  0  0  0  0  0
   26.2174  -20.6844  -14.2675 C   0  0  1  0  0  0  0  0  0  0  0  0
   26.9067  -20.0758  -13.1137 C   0  0  0  0  0  0  0  0  0  0  0  0
   26.2555  -20.4506  -11.8429 C   0  0  0  0  0  0  0  0  0  0  0  0
   26.5610  -21.6559  -11.2052 C   0  0  0  0  0  0  0  0  0  0  0  0
   26.0002  -22.0344  -10.0075 C   0  0  0  0  0  0  0  0  0  0  0  0
   25.0915  -21.2071   -9.3834 C   0  0  0  0  0  0  0  0  0  0  0  0
   24.7619  -20.0178   -9.9695 C   0  0  0  0  0  0  0  0  0  0  0  0
   25.3359  -19.6584  -11.1695 C   0  0  0  0  0  0  0  0  0  0  0  0
   24.8196  -20.2166  -14.3586 C   0  0  0  0  0  0  0  0  0  0  0  0
   24.5967  -19.0361  -14.7144 O   0  0  0  0  0  0  0  0  0  0  0  0
   23.7083  -21.0477  -14.0598 N   0  0  0  0  0  0  0  0  0  0  0  0
   22.3271  -20.5540  -13.9927 C   0  0  1  0  0  0  0  0  0  0  0  0
   21.5496  -21.3790  -14.9590 C   0  0  0  0  0  0  0  0  0  0  0  0
   21.5435  -20.8513  -16.3431 C   0  0  0  0  0  0  0  0  0  0  0  0
   22.1181  -19.6493  -16.7407 C   0  0  0  0  0  0  0  0  0  0  0  0
   21.9040  -19.5307  -18.0486 N   0  0  0  0  0  0  0  0  0  0  0  0
   21.2236  -20.5857  -18.5246 C   0  0  0  0  0  0  0  0  0  0  0  0
   21.0187  -21.3722  -17.4633 N   0  0  0  0  0  0  0  0  0  0  0  0
   21.8480  -20.6128  -12.5914 C   0  0  0  0  0  0  0  0  0  0  0  0
   22.2579  -21.7041  -11.8029 O   0  0  0  0  0  0  0  0  0  0  0  0
   21.1064  -19.7500  -12.0822 O   0  0  0  0  0  0  0  0  0  0  0  0
  2  1  1  6
  3  2  1  0
  3  4  1  0
  4  8  1  0
  4  5  2  0
  5  6  1  0
  7  6  1  0
  8  7  2  0
  9 10  2  0
  9  2  1  0
 11  9  1  0
 12 11  1  0
 12 13  1  1
 13 14  1  0
 14 19  1  0
 14 15  2  0
 15 16  1  0
 16 17  2  0
 18 17  1  0
 19 18  2  0
 20 12  1  0
 21 20  2  0
 22 20  1  0
 23 22  1  0
 23 24  1  6
 24 25  1  0
 25 29  1  0
 26 25  2  0
 26 27  1  0
 27 28  1  0
 29 28  2  0
 30 31  1  0
 30 23  1  0
 32 30  2  0
M  END
$$$$
