HFH.pdb
     RDKit          3D

 32 34  0  0  1  0  0  0  0  0999 V2000
   33.8817  -37.6438   -8.0272 N   0  0  0  0  0  0  0  0  0  0  0  0
   33.1130  -37.9891   -6.8787 C   0  0  1  0  0  0  0  0  0  0  0  0
   33.3679  -39.4633   -6.5738 C   0  0  0  0  0  0  0  0  0  0  0  0
   32.7611  -40.3215   -7.6306 C   0  0  0  0  0  0  0  0  0  0  0  0
   33.3771  -40.8487   -8.7359 C   0  0  0  0  0  0  0  0  0  0  0  0
   32.4301  -41.5502   -9.3926 N   0  0  0  0  0  0  0  0  0  0  0  0
   31.2740  -41.4570   -8.7147 C   0  0  0  0  0  0  0  0  0  0  0  0
   31.4704  -40.6906   -7.6111 N   0  0  0  0  0  0  0  0  0  0  0  0
   33.4834  -37.2247   -5.6660 C   0  0  0  0  0  0  0  0  0  0  0  0
   34.6746  -36.9775   -5.3984 O   0  0  0  0  0  0  0  0  0  0  0  0
   32.4847  -36.7688   -4.8010 N   0  0  0  0  0  0  0  0  0  0  0  0
   32.7090  -35.9581   -3.6102 C   0  0  1  0  0  0  0  0  0  0  0  0
   31.9772  -34.6772   -3.6315 C   0  0  0  0  0  0  0  0  0  0  0  0
   32.3151  -33.8879   -4.8324 C   0  0  0  0  0  0  0  0  0  0  0  0
   33.5759  -33.3032   -4.9787 C   0  0  0  0  0  0  0  0  0  0  0  0
   33.9445  -32.5828   -6.0910 C   0  0  0  0  0  0  0  0  0  0  0  0
   33.0502  -32.4127   -7.1258 C   0  0  0  0  0  0  0  0  0  0  0  0
   31.8051  -32.9665   -7.0276 C   0  0  0  0  0  0  0  0  0  0  0  0
   31.4569  -33.6846   -5.9042 C   0  0  0  0  0  0  0  0  0  0  0  0
   32.2860  -36.7928   -2.4677 C   0  0  0  0  0  0  0  0  0  0  0  0
   32.1098  -38.0205   -2.6455 O   0  0  0  0  0  0  0  0  0  0  0  0
   32.0679  -36.2657   -1.1679 N   0  0  0  0  0  0  0  0  0  0  0  0
   31.6896  -37.0929   -0.0153 C   0  0  1  0  0  0  0  0  0  0  0  0
   32.7446  -38.1379    0.1032 C   0  0  0  0  0  0  0  0  0  0  0  0
   32.3057  -39.4944   -0.2987 C   0  0  0  0  0  0  0  0  0  0  0  0
   31.0530  -39.8068   -0.8148 C   0  0  0  0  0  0  0  0  0  0  0  0
   31.0458  -41.1165   -1.0496 N   0  0  0  0  0  0  0  0  0  0  0  0
   32.2209  -41.6739   -0.7162 C   0  0  0  0  0  0  0  0  0  0  0  0
   32.9670  -40.6618   -0.2624 N   0  0  0  0  0  0  0  0  0  0  0  0
   31.5243  -36.2313    1.1793 C   0  0  0  0  0  0  0  0  0  0  0  0
   31.7490  -34.8502    1.0284 O   0  0  0  0  0  0  0  0  0  0  0  0
   31.1990  -36.6670    2.3009 O   0  0  0  0  0  0  0  0  0  0  0  0
  2  1  1  6
  3  2  1  0
  3  4  1  0
  4  8  1  0
  4  5  2  0
  5  6  1  0
  7  6  1  0
  8  7  2  0
  9 10  2  0
  9  2  1  0
 11  9  1  0
 12 11  1  0
 12 13  1  6
 13 14  1  0
 14 19  1  0
 14 15  2  0
 15 16  1  0
 16 17  2  0
 18 17  1  0
 19 18  2  0
 20 12  1  0
 21 20  2  0
 22 20  1  0
 23 22  1  0
 23 24  1  1
 24 25  1  0
 25 29  1  0
 26 25  2  0
 26 27  1  0
 27 28  1  0
 29 28  2  0
 30 31  1  0
 30 23  1  0
 32 30  2  0
M  END
$$$$
