HFH.pdb
     RDKit          3D

 32 34  0  0  1  0  0  0  0  0999 V2000
   28.3035  -21.6716  -15.4848 N   0  0  0  0  0  0  0  0  0  0  0  0
   28.1147  -20.5828  -14.5858 C   0  0  1  0  0  0  0  0  0  0  0  0
   26.9995  -19.7038  -15.1469 C   0  0  0  0  0  0  0  0  0  0  0  0
   27.4485  -19.0393  -16.4032 C   0  0  0  0  0  0  0  0  0  0  0  0
   26.8057  -19.0174  -17.6137 C   0  0  0  0  0  0  0  0  0  0  0  0
   27.5917  -18.2982  -18.4414 N   0  0  0  0  0  0  0  0  0  0  0  0
   28.6783  -17.8929  -17.7632 C   0  0  0  0  0  0  0  0  0  0  0  0
   28.5983  -18.3513  -16.4875 N   0  0  0  0  0  0  0  0  0  0  0  0
   27.6966  -21.0009  -13.2284 C   0  0  0  0  0  0  0  0  0  0  0  0
   26.7994  -21.8489  -13.0626 O   0  0  0  0  0  0  0  0  0  0  0  0
   28.3147  -20.4387  -12.1080 N   0  0  0  0  0  0  0  0  0  0  0  0
   27.9149  -20.6655  -10.7245 C   0  0  1  0  0  0  0  0  0  0  0  0
   28.7981  -20.0014   -9.7468 C   0  0  0  0  0  0  0  0  0  0  0  0
   28.2682  -20.1280   -8.3748 C   0  0  0  0  0  0  0  0  0  0  0  0
   28.5002  -21.2786   -7.6164 C   0  0  0  0  0  0  0  0  0  0  0  0
   28.0499  -21.4300   -6.3256 C   0  0  0  0  0  0  0  0  0  0  0  0
   27.3337  -20.4168   -5.7254 C   0  0  0  0  0  0  0  0  0  0  0  0
   27.0823  -19.2724   -6.4281 C   0  0  0  0  0  0  0  0  0  0  0  0
   27.5431  -19.1419   -7.7201 C   0  0  0  0  0  0  0  0  0  0  0  0
   26.5303  -20.1632  -10.6165 C   0  0  0  0  0  0  0  0  0  0  0  0
   26.2848  -18.9826  -10.9569 O   0  0  0  0  0  0  0  0  0  0  0  0
   25.4564  -20.9610  -10.1418 N   0  0  0  0  0  0  0  0  0  0  0  0
   24.0717  -20.4805  -10.0555 C   0  0  1  0  0  0  0  0  0  0  0  0
   23.3352  -21.1513  -11.1631 C   0  0  0  0  0  0  0  0  0  0  0  0
   21.8849  -20.8521  -11.1988 C   0  0  0  0  0  0  0  0  0  0  0  0
   21.2198  -20.0220  -10.3033 C   0  0  0  0  0  0  0  0  0  0  0  0
   19.9392  -20.0084  -10.6648 N   0  0  0  0  0  0  0  0  0  0  0  0
   19.7330  -20.7813  -11.7430 C   0  0  0  0  0  0  0  0  0  0  0  0
   20.9355  -21.2812  -12.0449 N   0  0  0  0  0  0  0  0  0  0  0  0
   23.5393  -20.7461   -8.6981 C   0  0  0  0  0  0  0  0  0  0  0  0
   22.3853  -20.0473   -8.2974 O   0  0  0  0  0  0  0  0  0  0  0  0
   24.0597  -21.5514   -7.9015 O   0  0  0  0  0  0  0  0  0  0  0  0
  2  1  1  6
  3  2  1  0
  3  4  1  0
  4  8  1  0
  4  5  2  0
  5  6  1  0
  7  6  1  0
  8  7  2  0
  9 10  2  0
  9  2  1  0
 11  9  1  0
 12 11  1  0
 12 13  1  1
 13 14  1  0
 14 19  1  0
 14 15  2  0
 15 16  1  0
 16 17  2  0
 18 17  1  0
 19 18  2  0
 20 12  1  0
 21 20  2  0
 22 20  1  0
 23 22  1  0
 23 24  1  6
 24 25  1  0
 25 29  1  0
 26 25  2  0
 26 27  1  0
 27 28  1  0
 29 28  2  0
 30 31  1  0
 30 23  1  0
 32 30  2  0
M  END
$$$$
