HFH.pdb
     RDKit          3D

 32 34  0  0  1  0  0  0  0  0999 V2000
   13.2807  -18.0893    2.6962 N   0  0  0  0  0  0  0  0  0  0  0  0
   13.6139  -17.5366    3.9662 C   0  0  1  0  0  0  0  0  0  0  0  0
   12.6049  -18.0650    4.9831 C   0  0  0  0  0  0  0  0  0  0  0  0
   11.2385  -17.5626    4.6635 C   0  0  0  0  0  0  0  0  0  0  0  0
   10.1958  -18.2648    4.1168 C   0  0  0  0  0  0  0  0  0  0  0  0
    9.1710  -17.3933    4.0148 N   0  0  0  0  0  0  0  0  0  0  0  0
    9.5703  -16.1987    4.4821 C   0  0  0  0  0  0  0  0  0  0  0  0
   10.8619  -16.2941    4.8902 N   0  0  0  0  0  0  0  0  0  0  0  0
   14.9591  -17.9253    4.4471 C   0  0  0  0  0  0  0  0  0  0  0  0
   15.4963  -18.9851    4.0731 O   0  0  0  0  0  0  0  0  0  0  0  0
   15.6451  -17.0937    5.3368 N   0  0  0  0  0  0  0  0  0  0  0  0
   16.9805  -17.3461    5.8643 C   0  0  1  0  0  0  0  0  0  0  0  0
   17.8489  -16.1535    5.8456 C   0  0  0  0  0  0  0  0  0  0  0  0
   18.2013  -15.7699    4.4643 C   0  0  0  0  0  0  0  0  0  0  0  0
   18.6806  -16.7158    3.5542 C   0  0  0  0  0  0  0  0  0  0  0  0
   18.9957  -16.4105    2.2505 C   0  0  0  0  0  0  0  0  0  0  0  0
   18.8419  -15.1200    1.7915 C   0  0  0  0  0  0  0  0  0  0  0  0
   18.3759  -14.1607    2.6455 C   0  0  0  0  0  0  0  0  0  0  0  0
   18.0662  -14.4888    3.9475 C   0  0  0  0  0  0  0  0  0  0  0  0
   16.7840  -17.8387    7.2426 C   0  0  0  0  0  0  0  0  0  0  0  0
   15.7017  -17.5958    7.8253 O   0  0  0  0  0  0  0  0  0  0  0  0
   17.7709  -18.5801    7.9436 N   0  0  0  0  0  0  0  0  0  0  0  0
   17.5707  -19.1096    9.2983 C   0  0  1  0  0  0  0  0  0  0  0  0
   16.4645  -20.1014    9.1914 C   0  0  0  0  0  0  0  0  0  0  0  0
   15.2144  -19.6952    9.8745 C   0  0  0  0  0  0  0  0  0  0  0  0
   15.0611  -18.5432   10.6378 C   0  0  0  0  0  0  0  0  0  0  0  0
   13.8055  -18.5339   11.0780 N   0  0  0  0  0  0  0  0  0  0  0  0
   13.1334  -19.6126   10.6455 C   0  0  0  0  0  0  0  0  0  0  0  0
   14.0172  -20.3005    9.9156 N   0  0  0  0  0  0  0  0  0  0  0  0
   18.8509  -19.6519    9.8119 C   0  0  0  0  0  0  0  0  0  0  0  0
   19.7139  -20.2780    8.8933 O   0  0  0  0  0  0  0  0  0  0  0  0
   19.1968  -19.5809   11.0073 O   0  0  0  0  0  0  0  0  0  0  0  0
  2  1  1  6
  3  2  1  0
  3  4  1  0
  4  8  1  0
  4  5  2  0
  5  6  1  0
  7  6  1  0
  8  7  2  0
  9 10  2  0
  9  2  1  0
 11  9  1  0
 12 11  1  0
 12 13  1  1
 13 14  1  0
 14 19  1  0
 14 15  2  0
 15 16  1  0
 16 17  2  0
 18 17  1  0
 19 18  2  0
 20 12  1  0
 21 20  2  0
 22 20  1  0
 23 22  1  0
 23 24  1  6
 24 25  1  0
 25 29  1  0
 26 25  2  0
 26 27  1  0
 27 28  1  0
 29 28  2  0
 30 31  1  0
 30 23  1  0
 32 30  2  0
M  END
$$$$
