HFH.pdb
     RDKit          3D

 32 34  0  0  1  0  0  0  0  0999 V2000
   23.2302  -12.9212  -18.8609 N   0  0  0  0  0  0  0  0  0  0  0  0
   23.0629  -11.5326  -19.1311 C   0  0  1  0  0  0  0  0  0  0  0  0
   21.6695  -11.3383  -19.7243 C   0  0  0  0  0  0  0  0  0  0  0  0
   21.6088  -11.9120  -21.0986 C   0  0  0  0  0  0  0  0  0  0  0  0
   21.2426  -11.2747  -22.2557 C   0  0  0  0  0  0  0  0  0  0  0  0
   21.3426  -12.1950  -23.2371 N   0  0  0  0  0  0  0  0  0  0  0  0
   21.7554  -13.3560  -22.7016 C   0  0  0  0  0  0  0  0  0  0  0  0
   21.9248  -13.1895  -21.3646 N   0  0  0  0  0  0  0  0  0  0  0  0
   23.1433  -10.6800  -17.9233 C   0  0  0  0  0  0  0  0  0  0  0  0
   22.6477  -11.0468  -16.8409 O   0  0  0  0  0  0  0  0  0  0  0  0
   23.7848   -9.4401  -17.9906 N   0  0  0  0  0  0  0  0  0  0  0  0
   23.9621   -8.5231  -16.8711 C   0  0  1  0  0  0  0  0  0  0  0  0
   25.3689   -8.1349  -16.6536 C   0  0  0  0  0  0  0  0  0  0  0  0
   26.2014   -9.3069  -16.3179 C   0  0  0  0  0  0  0  0  0  0  0  0
   26.1632   -9.8757  -15.0420 C   0  0  0  0  0  0  0  0  0  0  0  0
   26.8999  -10.9833  -14.6918 C   0  0  0  0  0  0  0  0  0  0  0  0
   27.7232  -11.5818  -15.6212 C   0  0  0  0  0  0  0  0  0  0  0  0
   27.7930  -11.0607  -16.8823 C   0  0  0  0  0  0  0  0  0  0  0  0
   27.0461   -9.9506  -17.2116 C   0  0  0  0  0  0  0  0  0  0  0  0
   23.1272   -7.3444  -17.1784 C   0  0  0  0  0  0  0  0  0  0  0  0
   23.1055   -6.9053  -18.3517 O   0  0  0  0  0  0  0  0  0  0  0  0
   22.3421   -6.6804  -16.1997 N   0  0  0  0  0  0  0  0  0  0  0  0
   21.4791   -5.5316  -16.5017 C   0  0  1  0  0  0  0  0  0  0  0  0
   20.5244   -5.9992  -17.5452 C   0  0  0  0  0  0  0  0  0  0  0  0
   19.4713   -5.0165  -17.8912 C   0  0  0  0  0  0  0  0  0  0  0  0
   19.6602   -3.8925  -18.6874 C   0  0  0  0  0  0  0  0  0  0  0  0
   18.4874   -3.2685  -18.7623 N   0  0  0  0  0  0  0  0  0  0  0  0
   17.5468   -3.9214  -18.0611 C   0  0  0  0  0  0  0  0  0  0  0  0
   18.1757   -4.9809  -17.5424 N   0  0  0  0  0  0  0  0  0  0  0  0
   20.8508   -5.0424  -15.2517 C   0  0  0  0  0  0  0  0  0  0  0  0
   20.3641   -3.7220  -15.2350 O   0  0  0  0  0  0  0  0  0  0  0  0
   20.7337   -5.7378  -14.2239 O   0  0  0  0  0  0  0  0  0  0  0  0
  2  1  1  1
  3  2  1  0
  3  4  1  0
  4  8  1  0
  4  5  2  0
  5  6  1  0
  7  6  1  0
  8  7  2  0
  9 10  2  0
  9  2  1  0
 11  9  1  0
 12 11  1  0
 12 13  1  6
 13 14  1  0
 14 19  1  0
 14 15  2  0
 15 16  1  0
 16 17  2  0
 18 17  1  0
 19 18  2  0
 20 12  1  0
 21 20  2  0
 22 20  1  0
 23 22  1  0
 23 24  1  6
 24 25  1  0
 25 29  1  0
 26 25  2  0
 26 27  1  0
 27 28  1  0
 29 28  2  0
 30 31  1  0
 30 23  1  0
 32 30  2  0
M  END
$$$$
