HFH.pdb
     RDKit          3D

 32 34  0  0  1  0  0  0  0  0999 V2000
   28.6614  -22.4358  -16.9598 N   0  0  0  0  0  0  0  0  0  0  0  0
   27.5523  -21.5421  -16.9404 C   0  0  1  0  0  0  0  0  0  0  0  0
   26.6734  -21.8647  -18.1465 C   0  0  0  0  0  0  0  0  0  0  0  0
   27.1902  -21.1733  -19.3616 C   0  0  0  0  0  0  0  0  0  0  0  0
   27.7650  -21.7436  -20.4677 C   0  0  0  0  0  0  0  0  0  0  0  0
   28.0708  -20.7247  -21.2975 N   0  0  0  0  0  0  0  0  0  0  0  0
   27.6970  -19.5700  -20.7213 C   0  0  0  0  0  0  0  0  0  0  0  0
   27.1452  -19.8397  -19.5102 N   0  0  0  0  0  0  0  0  0  0  0  0
   26.7028  -21.6780  -15.7355 C   0  0  0  0  0  0  0  0  0  0  0  0
   26.4266  -22.7976  -15.2642 O   0  0  0  0  0  0  0  0  0  0  0  0
   26.1978  -20.5348  -15.1099 N   0  0  0  0  0  0  0  0  0  0  0  0
   25.4481  -20.5219  -13.8596 C   0  0  1  0  0  0  0  0  0  0  0  0
   26.0048  -19.5943  -12.8564 C   0  0  0  0  0  0  0  0  0  0  0  0
   27.2338  -20.1398  -12.2472 C   0  0  0  0  0  0  0  0  0  0  0  0
   27.1729  -20.9860  -11.1368 C   0  0  0  0  0  0  0  0  0  0  0  0
   28.2886  -21.5394  -10.5528 C   0  0  0  0  0  0  0  0  0  0  0  0
   29.5386  -21.2648  -11.0645 C   0  0  0  0  0  0  0  0  0  0  0  0
   29.6477  -20.4425  -12.1501 C   0  0  0  0  0  0  0  0  0  0  0  0
   28.5167  -19.8991  -12.7195 C   0  0  0  0  0  0  0  0  0  0  0  0
   24.0663  -20.1467  -14.2210 C   0  0  0  0  0  0  0  0  0  0  0  0
   23.8831  -19.1799  -14.9967 O   0  0  0  0  0  0  0  0  0  0  0  0
   22.9271  -20.8350  -13.7274 N   0  0  0  0  0  0  0  0  0  0  0  0
   21.5479  -20.4314  -14.0285 C   0  0  1  0  0  0  0  0  0  0  0  0
   20.8053  -21.6908  -14.3140 C   0  0  0  0  0  0  0  0  0  0  0  0
   21.1040  -22.2872  -15.6366 C   0  0  0  0  0  0  0  0  0  0  0  0
   21.1330  -21.5882  -16.8382 C   0  0  0  0  0  0  0  0  0  0  0  0
   21.4359  -22.4666  -17.7907 N   0  0  0  0  0  0  0  0  0  0  0  0
   21.6054  -23.6959  -17.2785 C   0  0  0  0  0  0  0  0  0  0  0  0
   21.3970  -23.5550  -15.9656 N   0  0  0  0  0  0  0  0  0  0  0  0
   21.0106  -19.6285  -12.9045 C   0  0  0  0  0  0  0  0  0  0  0  0
   19.8366  -18.8862  -13.1307 O   0  0  0  0  0  0  0  0  0  0  0  0
   21.5438  -19.5794  -11.7789 O   0  0  0  0  0  0  0  0  0  0  0  0
  2  1  1  1
  3  2  1  0
  3  4  1  0
  4  8  1  0
  4  5  2  0
  5  6  1  0
  7  6  1  0
  8  7  2  0
  9 10  2  0
  9  2  1  0
 11  9  1  0
 12 11  1  0
 12 13  1  1
 13 14  1  0
 14 19  1  0
 14 15  2  0
 15 16  1  0
 16 17  2  0
 18 17  1  0
 19 18  2  0
 20 12  1  0
 21 20  2  0
 22 20  1  0
 23 22  1  0
 23 24  1  1
 24 25  1  0
 25 29  1  0
 26 25  2  0
 26 27  1  0
 27 28  1  0
 29 28  2  0
 30 31  1  0
 30 23  1  0
 32 30  2  0
M  END
$$$$
