WRC.pdb
     RDKit          3D

 32 33  0  0  1  0  0  0  0  0999 V2000
   27.8170  -21.1069  -13.5796 N   0  0  0  0  0  0  0  0  0  0  0  0
   26.9523  -21.8260  -12.6521 C   0  0  1  0  0  0  0  0  0  0  0  0
   26.6844  -20.9484  -11.4424 C   0  0  0  0  0  0  0  0  0  0  0  0
   27.8757  -20.8803  -10.5662 C   0  0  0  0  0  0  0  0  0  0  0  0
   29.2222  -20.9507  -10.8970 C   0  0  0  0  0  0  0  0  0  0  0  0
   29.9671  -20.8426   -9.7764 N   0  0  0  0  0  0  0  0  0  0  0  0
   29.1643  -20.7025   -8.7065 C   0  0  0  0  0  0  0  0  0  0  0  0
   29.4312  -20.5559   -7.3417 C   0  0  0  0  0  0  0  0  0  0  0  0
   28.3679  -20.4344   -6.4904 C   0  0  0  0  0  0  0  0  0  0  0  0
   27.0583  -20.4529   -6.9418 C   0  0  0  0  0  0  0  0  0  0  0  0
   26.8292  -20.5980   -8.2857 C   0  0  0  0  0  0  0  0  0  0  0  0
   27.8726  -20.7244   -9.1834 C   0  0  0  0  0  0  0  0  0  0  0  0
   25.6232  -22.0172  -13.3351 C   0  0  0  0  0  0  0  0  0  0  0  0
   25.0802  -21.0755  -13.9638 O   0  0  0  0  0  0  0  0  0  0  0  0
   20.6151  -27.8120  -17.1837 N   0  0  0  0  0  0  0  0  0  0  0  0
   21.8924  -28.0875  -16.5863 C   0  0  0  0  0  0  0  0  0  0  0  0
   22.6678  -28.9759  -17.0895 N   0  0  0  0  0  0  0  0  0  0  0  0
   22.3327  -27.3922  -15.4275 N   0  0  0  0  0  0  0  0  0  0  0  0
   21.4964  -26.4250  -14.7500 C   0  0  0  0  0  0  0  0  0  0  0  0
   21.9934  -25.0269  -14.8238 C   0  0  0  0  0  0  0  0  0  0  0  0
   23.2476  -24.8722  -14.0104 C   0  0  0  0  0  0  0  0  0  0  0  0
   23.7284  -23.4612  -14.0228 C   0  0  2  0  0  0  0  0  0  0  0  0
   24.9537  -23.2601  -13.2860 N   0  0  0  0  0  0  0  0  0  0  0  0
   22.6686  -22.6469  -13.3111 C   0  0  0  0  0  0  0  0  0  0  0  0
   22.6296  -22.6529  -12.0677 O   0  0  0  0  0  0  0  0  0  0  0  0
   23.5924  -29.1346  -16.6345 N   0  0  0  0  0  0  0  0  0  0  0  0
   21.7248  -21.8824  -14.0047 C   0  0  2  0  0  0  0  0  0  0  0  0
   20.7128  -21.1378  -13.2857 C   0  0  0  0  0  0  0  0  0  0  0  0
   21.0915  -19.6830  -13.3672 S   0  0  0  0  0  0  0  0  0  0  0  0
   19.9031  -18.6055  -12.5495 C   0  0  0  0  0  0  0  0  0  0  0  0
   19.3726  -21.3966  -13.8722 O   0  0  0  0  0  0  0  0  0  0  0  0
   18.2277  -21.3726  -13.1131 O   0  0  0  0  0  0  0  0  0  0  0  0
  2  1  1  6
  2  3  1  0
  4  3  1  0
  5  4  2  0
  6  7  1  0
  6  5  1  0
  7 12  2  0
  8  9  2  0
  8  7  1  0
  9 10  1  0
 10 11  2  0
 12  4  1  0
 12 11  1  0
 13 14  2  0
 13  2  1  0
 16 15  1  0
 17 16  2  0
 18 16  1  0
 19 18  1  0
 20 19  1  0
 20 21  1  0
 22 21  1  1
 22 23  1  0
 23 13  1  0
 24 22  1  0
 24 26  1  0
 25 24  2  0
 27 26  1  0
 27 30  1  0
 27 28  1  6
 28 29  1  0
 30 32  2  0
 30 31  1  0
M  END
$$$$
