WRC.pdb
     RDKit          3D

 32 33  0  0  1  0  0  0  0  0999 V2000
   27.7512  -21.1780  -10.6001 N   0  0  0  0  0  0  0  0  0  0  0  0
   26.5120  -21.2147   -9.8330 C   0  0  1  0  0  0  0  0  0  0  0  0
   26.6671  -20.3440   -8.5989 C   0  0  0  0  0  0  0  0  0  0  0  0
   27.9565  -20.6126   -7.9228 C   0  0  0  0  0  0  0  0  0  0  0  0
   29.0584  -21.3281   -8.3716 C   0  0  0  0  0  0  0  0  0  0  0  0
   30.0193  -21.3161   -7.4236 N   0  0  0  0  0  0  0  0  0  0  0  0
   29.5974  -20.6168   -6.3551 C   0  0  0  0  0  0  0  0  0  0  0  0
   30.2010  -20.3119   -5.1311 C   0  0  0  0  0  0  0  0  0  0  0  0
   29.4896  -19.5628   -4.2349 C   0  0  0  0  0  0  0  0  0  0  0  0
   28.2098  -19.1086   -4.5080 C   0  0  0  0  0  0  0  0  0  0  0  0
   27.6452  -19.4242   -5.7169 C   0  0  0  0  0  0  0  0  0  0  0  0
   28.3263  -20.1787   -6.6535 C   0  0  0  0  0  0  0  0  0  0  0  0
   25.4447  -20.5645  -10.6744 C   0  0  0  0  0  0  0  0  0  0  0  0
   25.1713  -19.3462  -10.5404 O   0  0  0  0  0  0  0  0  0  0  0  0
   26.7551  -22.3256  -18.1045 N   0  0  0  0  0  0  0  0  0  0  0  0
   26.6935  -22.8211  -16.7572 C   0  0  0  0  0  0  0  0  0  0  0  0
   26.7923  -24.0774  -16.5211 N   0  0  0  0  0  0  0  0  0  0  0  0
   26.5203  -21.9431  -15.6531 N   0  0  0  0  0  0  0  0  0  0  0  0
   25.9208  -22.3820  -14.4114 C   0  0  0  0  0  0  0  0  0  0  0  0
   24.4509  -22.1800  -14.3356 C   0  0  0  0  0  0  0  0  0  0  0  0
   24.1352  -20.7604  -13.9565 C   0  0  0  0  0  0  0  0  0  0  0  0
   23.7824  -20.6532  -12.5121 C   0  0  2  0  0  0  0  0  0  0  0  0
   24.7244  -21.3081  -11.6355 N   0  0  0  0  0  0  0  0  0  0  0  0
   22.4677  -21.3850  -12.3424 C   0  0  0  0  0  0  0  0  0  0  0  0
   22.4217  -22.6103  -12.5527 O   0  0  0  0  0  0  0  0  0  0  0  0
   26.6104  -24.4096  -15.5497 N   0  0  0  0  0  0  0  0  0  0  0  0
   21.2942  -20.7298  -11.9550 C   0  0  1  0  0  0  0  0  0  0  0  0
   20.0501  -21.4608  -11.8398 C   0  0  0  0  0  0  0  0  0  0  0  0
   19.2428  -20.7939  -10.7581 S   0  0  0  0  0  0  0  0  0  0  0  0
   17.6065  -21.5186  -10.5609 C   0  0  0  0  0  0  0  0  0  0  0  0
   19.3361  -21.4658  -13.1426 O   0  0  0  0  0  0  0  0  0  0  0  0
   18.4939  -22.4878  -13.5084 O   0  0  0  0  0  0  0  0  0  0  0  0
  2  1  1  6
  2  3  1  0
  4  3  1  0
  5  4  2  0
  6  7  1  0
  6  5  1  0
  7 12  2  0
  8  9  2  0
  8  7  1  0
  9 10  1  0
 10 11  2  0
 12  4  1  0
 12 11  1  0
 13 14  2  0
 13  2  1  0
 16 15  1  0
 17 16  2  0
 18 16  1  0
 19 18  1  0
 20 19  1  0
 20 21  1  0
 22 21  1  6
 22 23  1  0
 23 13  1  0
 24 22  1  0
 24 26  1  0
 25 24  2  0
 27 26  1  0
 27 30  1  0
 27 28  1  6
 28 29  1  0
 30 32  2  0
 30 31  1  0
M  END
$$$$
