WRC.pdb
     RDKit          3D

 32 33  0  0  1  0  0  0  0  0999 V2000
   25.9270  -19.3017  -12.3387 N   0  0  0  0  0  0  0  0  0  0  0  0
   26.4068  -20.6777  -12.3009 C   0  0  1  0  0  0  0  0  0  0  0  0
   25.7308  -21.4070  -11.1536 C   0  0  0  0  0  0  0  0  0  0  0  0
   26.1232  -20.8208   -9.8521 C   0  0  0  0  0  0  0  0  0  0  0  0
   25.3354  -20.2222   -8.8781 C   0  0  0  0  0  0  0  0  0  0  0  0
   26.1143  -19.8293   -7.8480 N   0  0  0  0  0  0  0  0  0  0  0  0
   27.3973  -20.1445   -8.0999 C   0  0  0  0  0  0  0  0  0  0  0  0
   28.5741  -19.9574   -7.3681 C   0  0  0  0  0  0  0  0  0  0  0  0
   29.7462  -20.4016   -7.9152 C   0  0  0  0  0  0  0  0  0  0  0  0
   29.7919  -21.0205   -9.1536 C   0  0  0  0  0  0  0  0  0  0  0  0
   28.6210  -21.1895   -9.8466 C   0  0  0  0  0  0  0  0  0  0  0  0
   27.4129  -20.7566   -9.3335 C   0  0  0  0  0  0  0  0  0  0  0  0
   25.9351  -21.3516  -13.5631 C   0  0  0  0  0  0  0  0  0  0  0  0
   25.0207  -20.8469  -14.2602 O   0  0  0  0  0  0  0  0  0  0  0  0
   29.9350  -27.3424  -18.5612 N   0  0  0  0  0  0  0  0  0  0  0  0
   29.9715  -26.6064  -17.3277 C   0  0  0  0  0  0  0  0  0  0  0  0
   30.9431  -26.7623  -16.5058 N   0  0  0  0  0  0  0  0  0  0  0  0
   28.9401  -25.6921  -16.9808 N   0  0  0  0  0  0  0  0  0  0  0  0
   27.5891  -25.8355  -17.4789 C   0  0  0  0  0  0  0  0  0  0  0  0
   26.6643  -24.7495  -17.0636 C   0  0  0  0  0  0  0  0  0  0  0  0
   26.9495  -24.3299  -15.6489 C   0  0  0  0  0  0  0  0  0  0  0  0
   26.1259  -23.1500  -15.2594 C   0  0  2  0  0  0  0  0  0  0  0  0
   26.5091  -22.5680  -13.9949 N   0  0  0  0  0  0  0  0  0  0  0  0
   24.7125  -23.6621  -15.0781 C   0  0  0  0  0  0  0  0  0  0  0  0
   24.0501  -23.2852  -14.0948 O   0  0  0  0  0  0  0  0  0  0  0  0
   30.9107  -26.2408  -15.6036 N   0  0  0  0  0  0  0  0  0  0  0  0
   24.1192  -24.5497  -15.9818 C   0  0  1  0  0  0  0  0  0  0  0  0
   22.7918  -25.0708  -15.7335 C   0  0  0  0  0  0  0  0  0  0  0  0
   22.6735  -25.2934  -14.2493 S   0  0  0  0  0  0  0  0  0  0  0  0
   21.0485  -25.8955  -13.7609 C   0  0  0  0  0  0  0  0  0  0  0  0
   21.7660  -24.1208  -16.2361 O   0  0  0  0  0  0  0  0  0  0  0  0
   20.4994  -24.5290  -16.5775 O   0  0  0  0  0  0  0  0  0  0  0  0
  2  1  1  6
  2  3  1  0
  4  3  1  0
  5  4  2  0
  6  7  1  0
  6  5  1  0
  7 12  2  0
  8  9  2  0
  8  7  1  0
  9 10  1  0
 10 11  2  0
 12  4  1  0
 12 11  1  0
 13 14  2  0
 13  2  1  0
 16 15  1  0
 17 16  2  0
 18 16  1  0
 19 18  1  0
 20 19  1  0
 20 21  1  0
 22 21  1  1
 22 23  1  0
 23 13  1  0
 24 22  1  0
 24 26  1  0
 25 24  2  0
 27 26  1  0
 27 30  1  0
 27 28  1  6
 28 29  1  0
 30 32  2  0
 30 31  1  0
M  END
$$$$
