WRC.pdb
     RDKit          3D

 32 33  0  0  1  0  0  0  0  0999 V2000
   25.2258  -18.7767  -17.6725 N   0  0  0  0  0  0  0  0  0  0  0  0
   24.9119  -18.3197  -16.3243 C   0  0  1  0  0  0  0  0  0  0  0  0
   23.8522  -17.2352  -16.4028 C   0  0  0  0  0  0  0  0  0  0  0  0
   24.4069  -15.9982  -16.9975 C   0  0  0  0  0  0  0  0  0  0  0  0
   24.1009  -15.3823  -18.2035 C   0  0  0  0  0  0  0  0  0  0  0  0
   24.8511  -14.2687  -18.3432 N   0  0  0  0  0  0  0  0  0  0  0  0
   25.6492  -14.1188  -17.2712 C   0  0  0  0  0  0  0  0  0  0  0  0
   26.5979  -13.1491  -16.9318 C   0  0  0  0  0  0  0  0  0  0  0  0
   27.2562  -13.2861  -15.7409 C   0  0  0  0  0  0  0  0  0  0  0  0
   27.0084  -14.3432  -14.8808 C   0  0  0  0  0  0  0  0  0  0  0  0
   26.0722  -15.2776  -15.2418 C   0  0  0  0  0  0  0  0  0  0  0  0
   25.3824  -15.1804  -16.4355 C   0  0  0  0  0  0  0  0  0  0  0  0
   24.2769  -19.4756  -15.5958 C   0  0  0  0  0  0  0  0  0  0  0  0
   23.6890  -20.3895  -16.2251 O   0  0  0  0  0  0  0  0  0  0  0  0
   28.6704  -20.2068  -12.0523 N   0  0  0  0  0  0  0  0  0  0  0  0
   28.5142  -21.1696  -10.9973 C   0  0  0  0  0  0  0  0  0  0  0  0
   29.5119  -21.8734  -10.6060 N   0  0  0  0  0  0  0  0  0  0  0  0
   27.2597  -21.3729  -10.3609 N   0  0  0  0  0  0  0  0  0  0  0  0
   26.1488  -20.4648  -10.5488 C   0  0  0  0  0  0  0  0  0  0  0  0
   25.6918  -20.3389  -11.9568 C   0  0  0  0  0  0  0  0  0  0  0  0
   24.2895  -20.8597  -12.1019 C   0  0  0  0  0  0  0  0  0  0  0  0
   23.8052  -20.7222  -13.5050 C   0  0  2  0  0  0  0  0  0  0  0  0
   24.3265  -19.5611  -14.1866 N   0  0  0  0  0  0  0  0  0  0  0  0
   22.3066  -20.5238  -13.4177 C   0  0  0  0  0  0  0  0  0  0  0  0
   21.8453  -19.3685  -13.4068 O   0  0  0  0  0  0  0  0  0  0  0  0
   29.3608  -22.5463   -9.8241 N   0  0  0  0  0  0  0  0  0  0  0  0
   21.4148  -21.5992  -13.3484 C   0  0  1  0  0  0  0  0  0  0  0  0
   19.9996  -21.3938  -13.5730 C   0  0  0  0  0  0  0  0  0  0  0  0
   19.8465  -20.8530  -14.9696 S   0  0  0  0  0  0  0  0  0  0  0  0
   18.1245  -20.6683  -15.4618 C   0  0  0  0  0  0  0  0  0  0  0  0
   19.2609  -22.6693  -13.3872 O   0  0  0  0  0  0  0  0  0  0  0  0
   19.8181  -23.8863  -13.6973 O   0  0  0  0  0  0  0  0  0  0  0  0
  2  1  1  6
  2  3  1  0
  4  3  1  0
  5  4  2  0
  6  7  1  0
  6  5  1  0
  7 12  2  0
  8  9  2  0
  8  7  1  0
  9 10  1  0
 10 11  2  0
 12  4  1  0
 12 11  1  0
 13 14  2  0
 13  2  1  0
 16 15  1  0
 17 16  2  0
 18 16  1  0
 19 18  1  0
 20 19  1  0
 20 21  1  0
 22 21  1  1
 22 23  1  0
 23 13  1  0
 24 22  1  0
 24 26  1  0
 25 24  2  0
 27 26  1  0
 27 30  1  0
 27 28  1  1
 28 29  1  0
 30 32  2  0
 30 31  1  0
M  END
$$$$
