WRC.pdb
     RDKit          3D

 32 33  0  0  1  0  0  0  0  0999 V2000
   24.9321  -19.5838  -10.1462 N   0  0  0  0  0  0  0  0  0  0  0  0
   26.2594  -20.0783  -10.4908 C   0  0  1  0  0  0  0  0  0  0  0  0
   26.6444  -21.1817   -9.5216 C   0  0  0  0  0  0  0  0  0  0  0  0
   26.8420  -20.6404   -8.1579 C   0  0  0  0  0  0  0  0  0  0  0  0
   25.9720  -19.9068   -7.3627 C   0  0  0  0  0  0  0  0  0  0  0  0
   26.5691  -19.6224   -6.1860 N   0  0  0  0  0  0  0  0  0  0  0  0
   27.8100  -20.1409   -6.1669 C   0  0  0  0  0  0  0  0  0  0  0  0
   28.8211  -20.1281   -5.2010 C   0  0  0  0  0  0  0  0  0  0  0  0
   29.9966  -20.7618   -5.4957 C   0  0  0  0  0  0  0  0  0  0  0  0
   30.2031  -21.4034   -6.7059 C   0  0  0  0  0  0  0  0  0  0  0  0
   29.1924  -21.3985   -7.6324 C   0  0  0  0  0  0  0  0  0  0  0  0
   27.9875  -20.7708   -7.3786 C   0  0  0  0  0  0  0  0  0  0  0  0
   26.1579  -20.7268  -11.8469 C   0  0  0  0  0  0  0  0  0  0  0  0
   25.0394  -20.9603  -12.3676 O   0  0  0  0  0  0  0  0  0  0  0  0
   32.4225  -23.4467  -17.2836 N   0  0  0  0  0  0  0  0  0  0  0  0
   31.8210  -23.7265  -16.0091 C   0  0  0  0  0  0  0  0  0  0  0  0
   32.4059  -24.4986  -15.1692 N   0  0  0  0  0  0  0  0  0  0  0  0
   30.5685  -23.1635  -15.6425 N   0  0  0  0  0  0  0  0  0  0  0  0
   29.7017  -22.5264  -16.6103 C   0  0  0  0  0  0  0  0  0  0  0  0
   28.4157  -22.0353  -16.0515 C   0  0  0  0  0  0  0  0  0  0  0  0
   28.5181  -21.8768  -14.5605 C   0  0  0  0  0  0  0  0  0  0  0  0
   27.2461  -21.3546  -13.9847 C   0  0  2  0  0  0  0  0  0  0  0  0
   27.3179  -21.0888  -12.5673 N   0  0  0  0  0  0  0  0  0  0  0  0
   26.2205  -22.4551  -14.1570 C   0  0  0  0  0  0  0  0  0  0  0  0
   26.2978  -23.4753  -13.4493 O   0  0  0  0  0  0  0  0  0  0  0  0
   31.9165  -24.7091  -14.2730 N   0  0  0  0  0  0  0  0  0  0  0  0
   25.1814  -22.3667  -15.0892 C   0  0  1  0  0  0  0  0  0  0  0  0
   24.1971  -23.4231  -15.1924 C   0  0  0  0  0  0  0  0  0  0  0  0
   22.9240  -22.9041  -14.5791 S   0  0  0  0  0  0  0  0  0  0  0  0
   21.5611  -24.0740  -14.7045 C   0  0  0  0  0  0  0  0  0  0  0  0
   24.0103  -23.8123  -16.6140 O   0  0  0  0  0  0  0  0  0  0  0  0
   23.7882  -25.1150  -16.9900 O   0  0  0  0  0  0  0  0  0  0  0  0
  2  1  1  1
  2  3  1  0
  4  3  1  0
  5  4  2  0
  6  7  1  0
  6  5  1  0
  7 12  2  0
  8  9  2  0
  8  7  1  0
  9 10  1  0
 10 11  2  0
 12  4  1  0
 12 11  1  0
 13 14  2  0
 13  2  1  0
 16 15  1  0
 17 16  2  0
 18 16  1  0
 19 18  1  0
 20 19  1  0
 20 21  1  0
 22 21  1  1
 22 23  1  0
 23 13  1  0
 24 22  1  0
 24 26  1  0
 25 24  2  0
 27 26  1  0
 27 30  1  0
 27 28  1  6
 28 29  1  0
 30 32  2  0
 30 31  1  0
M  END
$$$$
