WRC.pdb
     RDKit          3D

 32 33  0  0  1  0  0  0  0  0999 V2000
   24.9516  -19.2632  -16.5078 N   0  0  0  0  0  0  0  0  0  0  0  0
   24.7260  -19.8575  -15.1960 C   0  0  1  0  0  0  0  0  0  0  0  0
   25.0043  -18.8170  -14.1259 C   0  0  0  0  0  0  0  0  0  0  0  0
   26.4608  -18.6406  -13.9281 C   0  0  0  0  0  0  0  0  0  0  0  0
   27.2922  -17.6110  -14.3479 C   0  0  0  0  0  0  0  0  0  0  0  0
   28.5560  -17.8599  -13.9440 N   0  0  0  0  0  0  0  0  0  0  0  0
   28.5985  -19.0218  -13.2681 C   0  0  0  0  0  0  0  0  0  0  0  0
   29.6455  -19.7162  -12.6540 C   0  0  0  0  0  0  0  0  0  0  0  0
   29.3530  -20.9001  -12.0351 C   0  0  0  0  0  0  0  0  0  0  0  0
   28.0677  -21.4160  -12.0039 C   0  0  0  0  0  0  0  0  0  0  0  0
   27.0627  -20.7116  -12.6150 C   0  0  0  0  0  0  0  0  0  0  0  0
   27.3112  -19.5108  -13.2528 C   0  0  0  0  0  0  0  0  0  0  0  0
   23.2578  -20.1801  -15.0965 C   0  0  0  0  0  0  0  0  0  0  0  0
   22.3899  -19.3595  -15.4844 O   0  0  0  0  0  0  0  0  0  0  0  0
   21.8519  -27.3307  -14.4131 N   0  0  0  0  0  0  0  0  0  0  0  0
   20.5302  -26.8509  -14.7087 C   0  0  0  0  0  0  0  0  0  0  0  0
   19.5015  -27.4254  -14.2031 N   0  0  0  0  0  0  0  0  0  0  0  0
   20.3220  -25.7358  -15.5650 N   0  0  0  0  0  0  0  0  0  0  0  0
   21.4239  -24.9948  -16.1401 C   0  0  0  0  0  0  0  0  0  0  0  0
   21.9326  -23.8913  -15.2854 C   0  0  0  0  0  0  0  0  0  0  0  0
   20.8886  -22.8208  -15.1341 C   0  0  0  0  0  0  0  0  0  0  0  0
   21.4126  -21.6620  -14.3565 C   0  0  2  0  0  0  0  0  0  0  0  0
   22.8196  -21.4132  -14.5647 N   0  0  0  0  0  0  0  0  0  0  0  0
   21.2600  -22.0292  -12.8955 C   0  0  0  0  0  0  0  0  0  0  0  0
   22.0128  -22.8879  -12.4019 O   0  0  0  0  0  0  0  0  0  0  0  0
   18.5592  -27.0675  -14.4698 N   0  0  0  0  0  0  0  0  0  0  0  0
   20.2969  -21.4344  -12.0738 C   0  0  1  0  0  0  0  0  0  0  0  0
   20.1056  -21.8964  -10.7153 C   0  0  0  0  0  0  0  0  0  0  0  0
   20.2414  -20.6967   -9.8160 S   0  0  0  0  0  0  0  0  0  0  0  0
   21.8087  -19.8370  -10.0307 C   0  0  0  0  0  0  0  0  0  0  0  0
   18.7768  -22.5463  -10.5774 O   0  0  0  0  0  0  0  0  0  0  0  0
   18.3697  -23.1309   -9.4026 O   0  0  0  0  0  0  0  0  0  0  0  0
  2  1  1  6
  2  3  1  0
  4  3  1  0
  5  4  2  0
  6  7  1  0
  6  5  1  0
  7 12  2  0
  8  9  2  0
  8  7  1  0
  9 10  1  0
 10 11  2  0
 12  4  1  0
 12 11  1  0
 13 14  2  0
 13  2  1  0
 16 15  1  0
 17 16  2  0
 18 16  1  0
 19 18  1  0
 20 19  1  0
 20 21  1  0
 22 21  1  6
 22 23  1  0
 23 13  1  0
 24 22  1  0
 24 26  1  0
 25 24  2  0
 27 26  1  0
 27 30  1  0
 27 28  1  1
 28 29  1  0
 30 32  2  0
 30 31  1  0
M  END
$$$$
