WRC.pdb
     RDKit          3D

 32 33  0  0  1  0  0  0  0  0999 V2000
   27.5227  -22.1116  -13.5993 N   0  0  0  0  0  0  0  0  0  0  0  0
   26.5407  -21.6461  -12.6276 C   0  0  1  0  0  0  0  0  0  0  0  0
   27.0916  -20.4255  -11.9121 C   0  0  0  0  0  0  0  0  0  0  0  0
   28.1623  -20.8086  -10.9643 C   0  0  0  0  0  0  0  0  0  0  0  0
   29.4685  -21.2047  -11.2183 C   0  0  0  0  0  0  0  0  0  0  0  0
   30.0969  -21.4587  -10.0509 N   0  0  0  0  0  0  0  0  0  0  0  0
   29.2550  -21.2460   -9.0238 C   0  0  0  0  0  0  0  0  0  0  0  0
   29.4104  -21.3635   -7.6391 C   0  0  0  0  0  0  0  0  0  0  0  0
   28.3361  -21.0669   -6.8465 C   0  0  0  0  0  0  0  0  0  0  0  0
   27.1217  -20.6609   -7.3750 C   0  0  0  0  0  0  0  0  0  0  0  0
   27.0009  -20.5553   -8.7366 C   0  0  0  0  0  0  0  0  0  0  0  0
   28.0594  -20.8446   -9.5770 C   0  0  0  0  0  0  0  0  0  0  0  0
   25.3363  -21.1728  -13.3992 C   0  0  0  0  0  0  0  0  0  0  0  0
   25.4554  -20.3445  -14.3355 O   0  0  0  0  0  0  0  0  0  0  0  0
   23.7389  -26.7479  -15.4913 N   0  0  0  0  0  0  0  0  0  0  0  0
   22.4737  -26.4358  -16.0965 C   0  0  0  0  0  0  0  0  0  0  0  0
   21.5156  -27.2876  -16.0770 N   0  0  0  0  0  0  0  0  0  0  0  0
   22.2460  -25.1854  -16.7325 N   0  0  0  0  0  0  0  0  0  0  0  0
   23.1200  -24.0505  -16.5271 C   0  0  0  0  0  0  0  0  0  0  0  0
   23.0252  -23.4409  -15.1755 C   0  0  0  0  0  0  0  0  0  0  0  0
   22.9678  -21.9426  -15.2786 C   0  0  0  0  0  0  0  0  0  0  0  0
   22.9181  -21.3104  -13.9295 C   0  0  2  0  0  0  0  0  0  0  0  0
   24.0427  -21.6484  -13.0895 N   0  0  0  0  0  0  0  0  0  0  0  0
   21.6925  -21.8752  -13.2426 C   0  0  0  0  0  0  0  0  0  0  0  0
   21.7660  -22.9827  -12.6806 O   0  0  0  0  0  0  0  0  0  0  0  0
   20.6079  -27.0148  -16.5113 N   0  0  0  0  0  0  0  0  0  0  0  0
   20.4717  -21.1930  -13.2160 C   0  0  1  0  0  0  0  0  0  0  0  0
   19.3547  -21.7181  -12.4597 C   0  0  0  0  0  0  0  0  0  0  0  0
   19.5607  -21.3116  -11.0249 S   0  0  0  0  0  0  0  0  0  0  0  0
   19.4774  -19.5290  -10.7855 C   0  0  0  0  0  0  0  0  0  0  0  0
   18.0754  -21.1967  -13.0065 O   0  0  0  0  0  0  0  0  0  0  0  0
   16.8557  -21.6482  -12.5637 O   0  0  0  0  0  0  0  0  0  0  0  0
  2  1  1  6
  2  3  1  0
  4  3  1  0
  5  4  2  0
  6  7  1  0
  6  5  1  0
  7 12  2  0
  8  9  2  0
  8  7  1  0
  9 10  1  0
 10 11  2  0
 12  4  1  0
 12 11  1  0
 13 14  2  0
 13  2  1  0
 16 15  1  0
 17 16  2  0
 18 16  1  0
 19 18  1  0
 20 19  1  0
 20 21  1  0
 22 21  1  6
 22 23  1  0
 23 13  1  0
 24 22  1  0
 24 26  1  0
 25 24  2  0
 27 26  1  0
 27 30  1  0
 27 28  1  6
 28 29  1  0
 30 32  2  0
 30 31  1  0
M  END
$$$$
