WRC.pdb
     RDKit          3D

 32 33  0  0  1  0  0  0  0  0999 V2000
   26.9380  -19.0119   -8.9582 N   0  0  0  0  0  0  0  0  0  0  0  0
   26.7148  -20.3198   -9.5620 C   0  0  1  0  0  0  0  0  0  0  0  0
   25.8676  -21.1608   -8.6238 C   0  0  0  0  0  0  0  0  0  0  0  0
   26.0997  -20.7735   -7.2139 C   0  0  0  0  0  0  0  0  0  0  0  0
   25.1868  -20.6015   -6.1821 C   0  0  0  0  0  0  0  0  0  0  0  0
   25.8417  -20.2456   -5.0565 N   0  0  0  0  0  0  0  0  0  0  0  0
   27.1623  -20.1735   -5.3004 C   0  0  0  0  0  0  0  0  0  0  0  0
   28.2539  -19.8528   -4.4873 C   0  0  0  0  0  0  0  0  0  0  0  0
   29.4997  -19.8701   -5.0512 C   0  0  0  0  0  0  0  0  0  0  0  0
   29.6997  -20.1922   -6.3836 C   0  0  0  0  0  0  0  0  0  0  0  0
   28.6093  -20.5022   -7.1548 C   0  0  0  0  0  0  0  0  0  0  0  0
   27.3314  -20.4976   -6.6281 C   0  0  0  0  0  0  0  0  0  0  0  0
   25.8839  -20.1058  -10.8004 C   0  0  0  0  0  0  0  0  0  0  0  0
   24.9208  -19.3000  -10.7991 O   0  0  0  0  0  0  0  0  0  0  0  0
   30.0337  -23.3229  -16.7143 N   0  0  0  0  0  0  0  0  0  0  0  0
   28.6079  -23.1571  -16.6501 C   0  0  0  0  0  0  0  0  0  0  0  0
   27.8284  -24.1634  -16.8035 N   0  0  0  0  0  0  0  0  0  0  0  0
   28.0208  -21.8836  -16.4188 N   0  0  0  0  0  0  0  0  0  0  0  0
   28.4904  -21.0016  -15.3721 C   0  0  0  0  0  0  0  0  0  0  0  0
   27.6619  -21.0185  -14.1390 C   0  0  0  0  0  0  0  0  0  0  0  0
   26.2759  -20.5162  -14.4312 C   0  0  0  0  0  0  0  0  0  0  0  0
   25.4310  -20.5182  -13.2031 C   0  0  2  0  0  0  0  0  0  0  0  0
   26.1666  -20.8057  -11.9944 N   0  0  0  0  0  0  0  0  0  0  0  0
   24.4393  -21.6497  -13.3737 C   0  0  0  0  0  0  0  0  0  0  0  0
   24.6389  -22.7277  -12.7858 O   0  0  0  0  0  0  0  0  0  0  0  0
   26.8022  -24.0086  -16.7039 N   0  0  0  0  0  0  0  0  0  0  0  0
   23.2985  -21.5271  -14.1737 C   0  0  1  0  0  0  0  0  0  0  0  0
   22.3491  -22.6157  -14.2688 C   0  0  0  0  0  0  0  0  0  0  0  0
   23.1299  -23.8968  -14.1439 S   0  0  0  0  0  0  0  0  0  0  0  0
   24.1789  -24.2171  -15.5718 C   0  0  0  0  0  0  0  0  0  0  0  0
   21.3163  -22.4891  -13.2084 O   0  0  0  0  0  0  0  0  0  0  0  0
   21.3400  -21.4716  -12.2855 O   0  0  0  0  0  0  0  0  0  0  0  0
  2  1  1  1
  2  3  1  0
  4  3  1  0
  5  4  2  0
  6  7  1  0
  6  5  1  0
  7 12  2  0
  8  9  2  0
  8  7  1  0
  9 10  1  0
 10 11  2  0
 12  4  1  0
 12 11  1  0
 13 14  2  0
 13  2  1  0
 16 15  1  0
 17 16  2  0
 18 16  1  0
 19 18  1  0
 20 19  1  0
 20 21  1  0
 22 21  1  6
 22 23  1  0
 23 13  1  0
 24 22  1  0
 24 26  1  0
 25 24  2  0
 27 26  1  0
 27 30  1  0
 27 28  1  6
 28 29  1  0
 30 32  2  0
 30 31  1  0
M  END
$$$$
