WRC.pdb
     RDKit          3D

 32 33  0  0  1  0  0  0  0  0999 V2000
   28.8260  -21.1980  -10.5234 N   0  0  0  0  0  0  0  0  0  0  0  0
   27.5319  -21.0491   -9.8689 C   0  0  1  0  0  0  0  0  0  0  0  0
   27.5924  -19.8707   -8.9134 C   0  0  0  0  0  0  0  0  0  0  0  0
   28.6463  -20.0725   -7.8935 C   0  0  0  0  0  0  0  0  0  0  0  0
   29.9401  -20.5537   -8.0417 C   0  0  0  0  0  0  0  0  0  0  0  0
   30.5551  -20.5686   -6.8401 N   0  0  0  0  0  0  0  0  0  0  0  0
   29.7162  -20.1137   -5.8925 C   0  0  0  0  0  0  0  0  0  0  0  0
   29.8619  -19.9341   -4.5134 C   0  0  0  0  0  0  0  0  0  0  0  0
   28.7944  -19.4409   -3.8152 C   0  0  0  0  0  0  0  0  0  0  0  0
   27.5959  -19.1217   -4.4323 C   0  0  0  0  0  0  0  0  0  0  0  0
   27.4843  -19.3090   -5.7859 C   0  0  0  0  0  0  0  0  0  0  0  0
   28.5365  -19.8050   -6.5324 C   0  0  0  0  0  0  0  0  0  0  0  0
   26.5321  -20.6766  -10.9326 C   0  0  0  0  0  0  0  0  0  0  0  0
   26.4963  -19.5135  -11.4046 O   0  0  0  0  0  0  0  0  0  0  0  0
   25.5748  -25.1525  -15.5127 N   0  0  0  0  0  0  0  0  0  0  0  0
   24.4777  -24.8246  -16.3806 C   0  0  0  0  0  0  0  0  0  0  0  0
   23.6141  -25.7159  -16.7025 N   0  0  0  0  0  0  0  0  0  0  0  0
   24.3170  -23.5144  -16.9074 N   0  0  0  0  0  0  0  0  0  0  0  0
   24.4641  -22.3337  -16.0838 C   0  0  0  0  0  0  0  0  0  0  0  0
   24.0410  -22.5153  -14.6713 C   0  0  0  0  0  0  0  0  0  0  0  0
   25.2102  -22.3299  -13.7454 C   0  0  0  0  0  0  0  0  0  0  0  0
   24.8841  -21.3740  -12.6489 C   0  0  2  0  0  0  0  0  0  0  0  0
   25.6095  -21.6257  -11.4262 N   0  0  0  0  0  0  0  0  0  0  0  0
   23.4206  -21.5868  -12.3237 C   0  0  0  0  0  0  0  0  0  0  0  0
   23.0415  -22.7031  -11.9265 O   0  0  0  0  0  0  0  0  0  0  0  0
   22.8474  -25.4432  -17.3542 N   0  0  0  0  0  0  0  0  0  0  0  0
   22.4719  -20.5673  -12.4541 C   0  0  2  0  0  0  0  0  0  0  0  0
   21.0809  -20.8154  -12.1397 C   0  0  0  0  0  0  0  0  0  0  0  0
   20.6061  -19.6653  -11.2922 S   0  0  0  0  0  0  0  0  0  0  0  0
   18.9259  -19.8918  -10.6860 C   0  0  0  0  0  0  0  0  0  0  0  0
   20.2888  -20.9485  -13.3895 O   0  0  0  0  0  0  0  0  0  0  0  0
   19.1596  -21.7281  -13.4573 O   0  0  0  0  0  0  0  0  0  0  0  0
  2  1  1  6
  2  3  1  0
  4  3  1  0
  5  4  2  0
  6  7  1  0
  6  5  1  0
  7 12  2  0
  8  9  2  0
  8  7  1  0
  9 10  1  0
 10 11  2  0
 12  4  1  0
 12 11  1  0
 13 14  2  0
 13  2  1  0
 16 15  1  0
 17 16  2  0
 18 16  1  0
 19 18  1  0
 20 19  1  0
 20 21  1  0
 22 21  1  6
 22 23  1  0
 23 13  1  0
 24 22  1  0
 24 26  1  0
 25 24  2  0
 27 26  1  0
 27 30  1  0
 27 28  1  6
 28 29  1  0
 30 32  2  0
 30 31  1  0
M  END
$$$$
