WRC.pdb
     RDKit          3D

 32 33  0  0  1  0  0  0  0  0999 V2000
   27.0663  -22.5913  -11.4129 N   0  0  0  0  0  0  0  0  0  0  0  0
   26.2665  -21.4650  -10.9473 C   0  0  1  0  0  0  0  0  0  0  0  0
   27.1150  -20.2065  -10.9821 C   0  0  0  0  0  0  0  0  0  0  0  0
   28.1820  -20.2615   -9.9573 C   0  0  0  0  0  0  0  0  0  0  0  0
   29.5257  -20.5824  -10.0957 C   0  0  0  0  0  0  0  0  0  0  0  0
   30.1335  -20.5032   -8.8930 N   0  0  0  0  0  0  0  0  0  0  0  0
   29.2416  -20.1402   -7.9540 C   0  0  0  0  0  0  0  0  0  0  0  0
   29.3592  -19.9228   -6.5776 C   0  0  0  0  0  0  0  0  0  0  0  0
   28.2366  -19.5538   -5.8892 C   0  0  0  0  0  0  0  0  0  0  0  0
   27.0103  -19.3938   -6.5133 C   0  0  0  0  0  0  0  0  0  0  0  0
   26.9274  -19.6142   -7.8639 C   0  0  0  0  0  0  0  0  0  0  0  0
   28.0353  -19.9886   -8.6007 C   0  0  0  0  0  0  0  0  0  0  0  0
   25.1619  -21.2548  -11.9501 C   0  0  0  0  0  0  0  0  0  0  0  0
   25.2961  -21.6224  -13.1433 O   0  0  0  0  0  0  0  0  0  0  0  0
   17.9726  -21.0541  -13.6195 N   0  0  0  0  0  0  0  0  0  0  0  0
   17.8476  -21.9544  -12.5067 C   0  0  0  0  0  0  0  0  0  0  0  0
   17.2158  -23.0627  -12.6345 N   0  0  0  0  0  0  0  0  0  0  0  0
   18.4128  -21.6473  -11.2393 N   0  0  0  0  0  0  0  0  0  0  0  0
   19.1816  -20.4421  -11.0146 C   0  0  0  0  0  0  0  0  0  0  0  0
   20.3665  -20.2974  -11.8991 C   0  0  0  0  0  0  0  0  0  0  0  0
   21.5377  -21.0515  -11.3347 C   0  0  0  0  0  0  0  0  0  0  0  0
   22.7155  -20.9797  -12.2457 C   0  0  2  0  0  0  0  0  0  0  0  0
   23.9474  -20.6391  -11.5742 N   0  0  0  0  0  0  0  0  0  0  0  0
   22.4342  -19.8488  -13.2124 C   0  0  0  0  0  0  0  0  0  0  0  0
   22.3021  -18.6921  -12.7739 O   0  0  0  0  0  0  0  0  0  0  0  0
   17.1498  -23.6883  -11.8030 N   0  0  0  0  0  0  0  0  0  0  0  0
   22.3167  -20.0576  -14.5905 C   0  0  2  0  0  0  0  0  0  0  0  0
   22.0437  -18.9483  -15.4795 C   0  0  0  0  0  0  0  0  0  0  0  0
   23.3126  -18.6666  -16.2392 S   0  0  0  0  0  0  0  0  0  0  0  0
   24.2395  -20.1603  -16.6285 C   0  0  0  0  0  0  0  0  0  0  0  0
   20.9162  -19.2841  -16.3868 O   0  0  0  0  0  0  0  0  0  0  0  0
   20.3800  -18.3639  -17.2547 O   0  0  0  0  0  0  0  0  0  0  0  0
  2  1  1  6
  2  3  1  0
  4  3  1  0
  5  4  2  0
  6  7  1  0
  6  5  1  0
  7 12  2  0
  8  9  2  0
  8  7  1  0
  9 10  1  0
 10 11  2  0
 12  4  1  0
 12 11  1  0
 13 14  2  0
 13  2  1  0
 16 15  1  0
 17 16  2  0
 18 16  1  0
 19 18  1  0
 20 19  1  0
 20 21  1  0
 22 21  1  1
 22 23  1  0
 23 13  1  0
 24 22  1  0
 24 26  1  0
 25 24  2  0
 27 26  1  0
 27 30  1  0
 27 28  1  1
 28 29  1  0
 30 32  2  0
 30 31  1  0
M  END
$$$$
