WFS.pdb
     RDKit          3D

 32 34  0  0  1  0  0  0  0  0999 V2000
    4.6112  -18.1647   21.6999 N   0  0  0  0  0  0  0  0  0  0  0  0
    5.9272  -18.2392   22.2772 C   0  0  1  0  0  0  0  0  0  0  0  0
    7.0063  -18.0208   21.2390 C   0  0  0  0  0  0  0  0  0  0  0  0
    6.8816  -16.6606   20.6641 C   0  0  0  0  0  0  0  0  0  0  0  0
    5.8408  -16.2321   19.8256 C   0  0  0  0  0  0  0  0  0  0  0  0
    6.0834  -14.9474   19.5573 N   0  0  0  0  0  0  0  0  0  0  0  0
    7.2027  -14.5025   20.1549 C   0  0  0  0  0  0  0  0  0  0  0  0
    7.8477  -13.2589   20.1604 C   0  0  0  0  0  0  0  0  0  0  0  0
    9.0141  -13.0579   20.8597 C   0  0  0  0  0  0  0  0  0  0  0  0
    9.5440  -14.1230   21.5661 C   0  0  0  0  0  0  0  0  0  0  0  0
    8.8839  -15.3578   21.5481 C   0  0  0  0  0  0  0  0  0  0  0  0
    7.7179  -15.5726   20.8556 C   0  0  0  0  0  0  0  0  0  0  0  0
    6.0846  -17.2817   23.4042 C   0  0  0  0  0  0  0  0  0  0  0  0
    5.1421  -16.4415   23.6183 O   0  0  0  0  0  0  0  0  0  0  0  0
    7.2028  -17.2281   24.2683 N   0  0  0  0  0  0  0  0  0  0  0  0
    7.6661  -15.9691   24.8499 C   0  0  1  0  0  0  0  0  0  0  0  0
    6.6295  -15.4439   25.8214 C   0  0  0  0  0  0  0  0  0  0  0  0
    6.9599  -14.1841   26.4676 C   0  0  0  0  0  0  0  0  0  0  0  0
    6.1337  -13.0819   26.4152 C   0  0  0  0  0  0  0  0  0  0  0  0
    6.4285  -11.8915   27.0274 C   0  0  0  0  0  0  0  0  0  0  0  0
    7.5920  -11.7572   27.7333 C   0  0  0  0  0  0  0  0  0  0  0  0
    8.4503  -12.8345   27.8131 C   0  0  0  0  0  0  0  0  0  0  0  0
    8.1234  -14.0320   27.1799 C   0  0  0  0  0  0  0  0  0  0  0  0
    8.9943  -16.0988   25.4130 C   0  0  0  0  0  0  0  0  0  0  0  0
    9.2487  -16.5252   26.5749 O   0  0  0  0  0  0  0  0  0  0  0  0
   12.3704  -15.0120   23.2940 O   0  0  0  0  0  0  0  0  0  0  0  0
   11.9807  -16.3556   23.1253 C   0  0  0  0  0  0  0  0  0  0  0  0
   11.1661  -16.7155   24.3372 C   0  0  2  0  0  0  0  0  0  0  0  0
   10.1443  -15.7334   24.6444 N   0  0  0  0  0  0  0  0  0  0  0  0
   12.1170  -16.8562   25.4851 C   0  0  0  0  0  0  0  0  0  0  0  0
   13.1124  -17.6114   25.3252 O   0  0  0  0  0  0  0  0  0  0  0  0
   11.9066  -16.1787   26.6792 O   0  0  0  0  0  0  0  0  0  0  0  0
  2  1  1  6
  3  4  1  0
  3  2  1  0
  4  5  2  0
  5  6  1  0
  7  6  1  0
  8  7  2  0
  9  8  1  0
 10 11  1  0
 10  9  2  0
 11 12  2  0
 12  4  1  0
 12  7  1  0
 13  2  1  0
 13 14  2  0
 15 13  1  0
 16 15  1  0
 16 17  1  1
 18 23  1  0
 18 17  1  0
 19 18  2  0
 20 21  2  0
 20 19  1  0
 21 22  1  0
 22 23  2  0
 24 16  1  0
 25 24  2  0
 27 26  1  0
 28 27  1  6
 28 29  1  0
 29 24  1  0
 30 28  1  0
 31 30  2  0
 32 30  1  0
M  END
$$$$
