WFS.pdb
     RDKit          3D

 32 34  0  0  1  0  0  0  0  0999 V2000
   10.5697  -15.9714   21.3978 N   0  0  0  0  0  0  0  0  0  0  0  0
    9.3869  -15.7769   22.1940 C   0  0  1  0  0  0  0  0  0  0  0  0
    8.2131  -16.5639   21.6530 C   0  0  0  0  0  0  0  0  0  0  0  0
    7.5485  -15.7958   20.5739 C   0  0  0  0  0  0  0  0  0  0  0  0
    6.5652  -16.3039   19.7107 C   0  0  0  0  0  0  0  0  0  0  0  0
    6.2103  -15.2935   18.9143 N   0  0  0  0  0  0  0  0  0  0  0  0
    6.8859  -14.1638   19.1892 C   0  0  0  0  0  0  0  0  0  0  0  0
    6.8599  -12.8801   18.6288 C   0  0  0  0  0  0  0  0  0  0  0  0
    7.6763  -11.8767   19.0942 C   0  0  0  0  0  0  0  0  0  0  0  0
    8.5348  -12.1653   20.1400 C   0  0  0  0  0  0  0  0  0  0  0  0
    8.5454  -13.4545   20.6865 C   0  0  0  0  0  0  0  0  0  0  0  0
    7.7347  -14.4658   20.2330 C   0  0  0  0  0  0  0  0  0  0  0  0
    9.6281  -16.1137   23.6224 C   0  0  0  0  0  0  0  0  0  0  0  0
   10.8396  -16.2555   24.0126 O   0  0  0  0  0  0  0  0  0  0  0  0
    8.6149  -16.2878   24.5934 N   0  0  0  0  0  0  0  0  0  0  0  0
    8.9244  -16.3887   26.0189 C   0  0  1  0  0  0  0  0  0  0  0  0
    7.7394  -15.9122   26.8332 C   0  0  0  0  0  0  0  0  0  0  0  0
    7.4798  -14.4827   26.7817 C   0  0  0  0  0  0  0  0  0  0  0  0
    8.3430  -13.5500   27.3158 C   0  0  0  0  0  0  0  0  0  0  0  0
    8.1151  -12.1993   27.2660 C   0  0  0  0  0  0  0  0  0  0  0  0
    6.9849  -11.7199   26.6637 C   0  0  0  0  0  0  0  0  0  0  0  0
    6.0916  -12.6168   26.1149 C   0  0  0  0  0  0  0  0  0  0  0  0
    6.3505  -13.9844   26.1812 C   0  0  0  0  0  0  0  0  0  0  0  0
    9.3911  -17.7140   26.3707 C   0  0  0  0  0  0  0  0  0  0  0  0
    8.6785  -18.7575   26.3623 O   0  0  0  0  0  0  0  0  0  0  0  0
   13.3270  -18.3132   27.4764 O   0  0  0  0  0  0  0  0  0  0  0  0
   12.6768  -19.4454   26.9466 C   0  0  0  0  0  0  0  0  0  0  0  0
   11.2055  -19.2349   27.1763 C   0  0  2  0  0  0  0  0  0  0  0  0
   10.7508  -17.9208   26.7649 N   0  0  0  0  0  0  0  0  0  0  0  0
   10.9505  -19.4419   28.6371 C   0  0  0  0  0  0  0  0  0  0  0  0
   10.3529  -18.5232   29.2581 O   0  0  0  0  0  0  0  0  0  0  0  0
   11.3586  -20.6035   29.2799 O   0  0  0  0  0  0  0  0  0  0  0  0
  2  1  1  6
  3  4  1  0
  3  2  1  0
  4  5  2  0
  5  6  1  0
  7  6  1  0
  8  7  2  0
  9  8  1  0
 10 11  1  0
 10  9  2  0
 11 12  2  0
 12  4  1  0
 12  7  1  0
 13  2  1  0
 13 14  2  0
 15 13  1  0
 16 15  1  0
 16 17  1  1
 18 23  1  0
 18 17  1  0
 19 18  2  0
 20 21  2  0
 20 19  1  0
 21 22  1  0
 22 23  2  0
 24 16  1  0
 25 24  2  0
 27 26  1  0
 28 27  1  1
 28 29  1  0
 29 24  1  0
 30 28  1  0
 31 30  2  0
 32 30  1  0
M  END
$$$$
