WFS.pdb
     RDKit          3D

 32 34  0  0  1  0  0  0  0  0999 V2000
    6.8622  -18.7956   26.7772 N   0  0  0  0  0  0  0  0  0  0  0  0
    7.8569  -17.8063   26.4569 C   0  0  1  0  0  0  0  0  0  0  0  0
    9.2568  -18.3124   26.7292 C   0  0  0  0  0  0  0  0  0  0  0  0
    9.8382  -17.5847   27.8818 C   0  0  0  0  0  0  0  0  0  0  0  0
   10.1592  -18.1614   29.1204 C   0  0  0  0  0  0  0  0  0  0  0  0
   10.6810  -17.1829   29.8631 N   0  0  0  0  0  0  0  0  0  0  0  0
   10.7254  -16.0104   29.2063 C   0  0  0  0  0  0  0  0  0  0  0  0
   11.1716  -14.7332   29.5700 C   0  0  0  0  0  0  0  0  0  0  0  0
   11.0982  -13.6720   28.6992 C   0  0  0  0  0  0  0  0  0  0  0  0
   10.5674  -13.8947   27.4411 C   0  0  0  0  0  0  0  0  0  0  0  0
   10.1273  -15.1787   27.0969 C   0  0  0  0  0  0  0  0  0  0  0  0
   10.1959  -16.2481   27.9555 C   0  0  0  0  0  0  0  0  0  0  0  0
    7.7333  -17.3428   25.0491 C   0  0  0  0  0  0  0  0  0  0  0  0
    7.4354  -18.2080   24.1530 O   0  0  0  0  0  0  0  0  0  0  0  0
    7.9174  -16.0084   24.6189 N   0  0  0  0  0  0  0  0  0  0  0  0
    7.9543  -15.6553   23.2005 C   0  0  1  0  0  0  0  0  0  0  0  0
    7.7197  -14.1676   23.0388 C   0  0  0  0  0  0  0  0  0  0  0  0
    7.1502  -13.4952   24.1952 C   0  0  0  0  0  0  0  0  0  0  0  0
    7.6779  -12.3324   24.7144 C   0  0  0  0  0  0  0  0  0  0  0  0
    7.1456  -11.6834   25.7980 C   0  0  0  0  0  0  0  0  0  0  0  0
    6.0361  -12.1878   26.4180 C   0  0  0  0  0  0  0  0  0  0  0  0
    5.4731  -13.3503   25.9329 C   0  0  0  0  0  0  0  0  0  0  0  0
    6.0370  -13.9878   24.8295 C   0  0  0  0  0  0  0  0  0  0  0  0
    9.1616  -16.1379   22.5622 C   0  0  0  0  0  0  0  0  0  0  0  0
   10.3285  -16.0062   23.0287 O   0  0  0  0  0  0  0  0  0  0  0  0
    8.9040  -17.7721   18.8903 O   0  0  0  0  0  0  0  0  0  0  0  0
    9.9465  -18.3893   19.6099 C   0  0  0  0  0  0  0  0  0  0  0  0
   10.2660  -17.4751   20.7604 C   0  0  2  0  0  0  0  0  0  0  0  0
    9.0922  -16.8234   21.3083 N   0  0  0  0  0  0  0  0  0  0  0  0
   11.2427  -16.4567   20.2598 C   0  0  0  0  0  0  0  0  0  0  0  0
   10.9282  -15.2428   20.3789 O   0  0  0  0  0  0  0  0  0  0  0  0
   12.4485  -16.8392   19.6862 O   0  0  0  0  0  0  0  0  0  0  0  0
  2  1  1  6
  3  4  1  0
  3  2  1  0
  4  5  2  0
  5  6  1  0
  7  6  1  0
  8  7  2  0
  9  8  1  0
 10 11  1  0
 10  9  2  0
 11 12  2  0
 12  4  1  0
 12  7  1  0
 13  2  1  0
 13 14  2  0
 15 13  1  0
 16 15  1  0
 16 17  1  1
 18 23  1  0
 18 17  1  0
 19 18  2  0
 20 21  2  0
 20 19  1  0
 21 22  1  0
 22 23  2  0
 24 16  1  0
 25 24  2  0
 27 26  1  0
 28 27  1  6
 28 29  1  0
 29 24  1  0
 30 28  1  0
 31 30  2  0
 32 30  1  0
M  END
$$$$
