WFS.pdb
     RDKit          3D

 32 34  0  0  1  0  0  0  0  0999 V2000
   10.8746  -17.2393   20.3001 N   0  0  0  0  0  0  0  0  0  0  0  0
    9.8927  -16.5616   21.1045 C   0  0  1  0  0  0  0  0  0  0  0  0
    8.5068  -17.1311   20.8926 C   0  0  0  0  0  0  0  0  0  0  0  0
    7.5883  -16.0604   20.4386 C   0  0  0  0  0  0  0  0  0  0  0  0
    6.2323  -16.2411   20.1245 C   0  0  0  0  0  0  0  0  0  0  0  0
    5.7632  -15.0367   19.7919 N   0  0  0  0  0  0  0  0  0  0  0  0
    6.7076  -14.0822   19.8633 C   0  0  0  0  0  0  0  0  0  0  0  0
    6.6888  -12.7049   19.6077 C   0  0  0  0  0  0  0  0  0  0  0  0
    7.8174  -11.9328   19.7489 C   0  0  0  0  0  0  0  0  0  0  0  0
    8.9864  -12.5525   20.1532 C   0  0  0  0  0  0  0  0  0  0  0  0
    8.9843  -13.9302   20.4041 C   0  0  0  0  0  0  0  0  0  0  0  0
    7.8646  -14.7133   20.2688 C   0  0  0  0  0  0  0  0  0  0  0  0
   10.2542  -16.5894   22.5469 C   0  0  0  0  0  0  0  0  0  0  0  0
   11.2474  -17.3137   22.9061 O   0  0  0  0  0  0  0  0  0  0  0  0
    9.5828  -15.8692   23.5619 N   0  0  0  0  0  0  0  0  0  0  0  0
   10.0449  -15.8824   24.9490 C   0  0  1  0  0  0  0  0  0  0  0  0
    9.2655  -14.8649   25.7562 C   0  0  0  0  0  0  0  0  0  0  0  0
    9.6245  -14.7747   27.1622 C   0  0  0  0  0  0  0  0  0  0  0  0
    8.9913  -15.5110   28.1405 C   0  0  0  0  0  0  0  0  0  0  0  0
    9.3258  -15.4426   29.4679 C   0  0  0  0  0  0  0  0  0  0  0  0
   10.3332  -14.6126   29.8756 C   0  0  0  0  0  0  0  0  0  0  0  0
   10.9957  -13.8560   28.9310 C   0  0  0  0  0  0  0  0  0  0  0  0
   10.6330  -13.9469   27.5887 C   0  0  0  0  0  0  0  0  0  0  0  0
   10.0262  -17.2200   25.5045 C   0  0  0  0  0  0  0  0  0  0  0  0
    9.0189  -17.9827   25.5197 O   0  0  0  0  0  0  0  0  0  0  0  0
   13.2458  -19.4022   25.7122 O   0  0  0  0  0  0  0  0  0  0  0  0
   12.0594  -20.0850   26.0464 C   0  0  0  0  0  0  0  0  0  0  0  0
   11.1691  -19.0802   26.7242 C   0  0  2  0  0  0  0  0  0  0  0  0
   11.2061  -17.7749   26.0935 N   0  0  0  0  0  0  0  0  0  0  0  0
   11.6146  -18.9836   28.1504 C   0  0  0  0  0  0  0  0  0  0  0  0
   11.9591  -17.8490   28.5755 O   0  0  0  0  0  0  0  0  0  0  0  0
   11.6457  -20.1041   28.9706 O   0  0  0  0  0  0  0  0  0  0  0  0
  2  1  1  6
  3  4  1  0
  3  2  1  0
  4  5  2  0
  5  6  1  0
  7  6  1  0
  8  7  2  0
  9  8  1  0
 10 11  1  0
 10  9  2  0
 11 12  2  0
 12  4  1  0
 12  7  1  0
 13  2  1  0
 13 14  2  0
 15 13  1  0
 16 15  1  0
 16 17  1  1
 18 23  1  0
 18 17  1  0
 19 18  2  0
 20 21  2  0
 20 19  1  0
 21 22  1  0
 22 23  2  0
 24 16  1  0
 25 24  2  0
 27 26  1  0
 28 27  1  6
 28 29  1  0
 29 24  1  0
 30 28  1  0
 31 30  2  0
 32 30  1  0
M  END
$$$$
