WFS.pdb
     RDKit          3D

 32 34  0  0  1  0  0  0  0  0999 V2000
    6.8594  -18.6651   22.4756 N   0  0  0  0  0  0  0  0  0  0  0  0
    7.3735  -17.3792   22.0846 C   0  0  1  0  0  0  0  0  0  0  0  0
    6.2869  -16.4915   21.5178 C   0  0  0  0  0  0  0  0  0  0  0  0
    6.8856  -15.4778   20.6178 C   0  0  0  0  0  0  0  0  0  0  0  0
    7.3404  -15.7261   19.3134 C   0  0  0  0  0  0  0  0  0  0  0  0
    7.7744  -14.5558   18.8409 N   0  0  0  0  0  0  0  0  0  0  0  0
    7.6393  -13.5612   19.7356 C   0  0  0  0  0  0  0  0  0  0  0  0
    7.9542  -12.1966   19.6953 C   0  0  0  0  0  0  0  0  0  0  0  0
    7.7216  -11.3738   20.7717 C   0  0  0  0  0  0  0  0  0  0  0  0
    7.1636  -11.9288   21.9096 C   0  0  0  0  0  0  0  0  0  0  0  0
    6.8558  -13.2947   21.9297 C   0  0  0  0  0  0  0  0  0  0  0  0
    7.0812  -14.1280   20.8619 C   0  0  0  0  0  0  0  0  0  0  0  0
    8.0665  -16.7017   23.2127 C   0  0  0  0  0  0  0  0  0  0  0  0
    9.0325  -15.9071   22.9375 O   0  0  0  0  0  0  0  0  0  0  0  0
    7.7369  -16.8650   24.5781 N   0  0  0  0  0  0  0  0  0  0  0  0
    8.6047  -16.3665   25.6441 C   0  0  1  0  0  0  0  0  0  0  0  0
    7.7711  -15.6546   26.6895 C   0  0  0  0  0  0  0  0  0  0  0  0
    7.5230  -14.2445   26.4372 C   0  0  0  0  0  0  0  0  0  0  0  0
    8.5168  -13.2913   26.4995 C   0  0  0  0  0  0  0  0  0  0  0  0
    8.2986  -11.9605   26.2550 C   0  0  0  0  0  0  0  0  0  0  0  0
    7.0443  -11.5232   25.9303 C   0  0  0  0  0  0  0  0  0  0  0  0
    6.0176  -12.4419   25.8560 C   0  0  0  0  0  0  0  0  0  0  0  0
    6.2702  -13.7885   26.1102 C   0  0  0  0  0  0  0  0  0  0  0  0
    9.4530  -17.4137   26.1746 C   0  0  0  0  0  0  0  0  0  0  0  0
    9.4371  -17.8209   27.3707 O   0  0  0  0  0  0  0  0  0  0  0  0
   12.1652  -19.2358   23.7166 O   0  0  0  0  0  0  0  0  0  0  0  0
   11.7316  -20.0689   24.7670 C   0  0  0  0  0  0  0  0  0  0  0  0
   11.2161  -19.1566   25.8458 C   0  0  2  0  0  0  0  0  0  0  0  0
   10.3997  -18.0749   25.3299 N   0  0  0  0  0  0  0  0  0  0  0  0
   12.4065  -18.6116   26.5721 C   0  0  0  0  0  0  0  0  0  0  0  0
   12.5353  -17.3594   26.6183 O   0  0  0  0  0  0  0  0  0  0  0  0
   13.3317  -19.4571   27.1708 O   0  0  0  0  0  0  0  0  0  0  0  0
  2  1  1  1
  3  4  1  0
  3  2  1  0
  4  5  2  0
  5  6  1  0
  7  6  1  0
  8  7  2  0
  9  8  1  0
 10 11  1  0
 10  9  2  0
 11 12  2  0
 12  4  1  0
 12  7  1  0
 13  2  1  0
 13 14  2  0
 15 13  1  0
 16 15  1  0
 16 17  1  1
 18 23  1  0
 18 17  1  0
 19 18  2  0
 20 21  2  0
 20 19  1  0
 21 22  1  0
 22 23  2  0
 24 16  1  0
 25 24  2  0
 27 26  1  0
 28 27  1  6
 28 29  1  0
 29 24  1  0
 30 28  1  0
 31 30  2  0
 32 30  1  0
M  END
$$$$
