WFS.pdb
     RDKit          3D

 32 34  0  0  1  0  0  0  0  0999 V2000
    7.2194  -17.8393   22.2480 N   0  0  0  0  0  0  0  0  0  0  0  0
    7.8074  -16.5315   22.3696 C   0  0  1  0  0  0  0  0  0  0  0  0
    6.8004  -15.4375   22.0889 C   0  0  0  0  0  0  0  0  0  0  0  0
    6.9965  -14.9150   20.7161 C   0  0  0  0  0  0  0  0  0  0  0  0
    6.5004  -15.5132   19.5473 C   0  0  0  0  0  0  0  0  0  0  0  0
    6.8678  -14.7207   18.5382 N   0  0  0  0  0  0  0  0  0  0  0  0
    7.5666  -13.6507   18.9564 C   0  0  0  0  0  0  0  0  0  0  0  0
    8.1528  -12.5738   18.2787 C   0  0  0  0  0  0  0  0  0  0  0  0
    8.8386  -11.5900   18.9508 C   0  0  0  0  0  0  0  0  0  0  0  0
    8.9392  -11.6876   20.3272 C   0  0  0  0  0  0  0  0  0  0  0  0
    8.3460  -12.7716   20.9858 C   0  0  0  0  0  0  0  0  0  0  0  0
    7.6569  -13.7604   20.3279 C   0  0  0  0  0  0  0  0  0  0  0  0
    8.4334  -16.3357   23.7043 C   0  0  0  0  0  0  0  0  0  0  0  0
    9.3876  -15.4874   23.8046 O   0  0  0  0  0  0  0  0  0  0  0  0
    8.0517  -17.0170   24.8833 N   0  0  0  0  0  0  0  0  0  0  0  0
    8.7463  -16.8068   26.1526 C   0  0  1  0  0  0  0  0  0  0  0  0
    7.7813  -16.2432   27.1751 C   0  0  0  0  0  0  0  0  0  0  0  0
    7.4342  -14.8421   27.0012 C   0  0  0  0  0  0  0  0  0  0  0  0
    8.2768  -13.8155   27.3706 C   0  0  0  0  0  0  0  0  0  0  0  0
    7.9661  -12.4910   27.2039 C   0  0  0  0  0  0  0  0  0  0  0  0
    6.7690  -12.1360   26.6464 C   0  0  0  0  0  0  0  0  0  0  0  0
    5.8933  -13.1301   26.2612 C   0  0  0  0  0  0  0  0  0  0  0  0
    6.2370  -14.4682   26.4436 C   0  0  0  0  0  0  0  0  0  0  0  0
    9.4378  -18.0033   26.5865 C   0  0  0  0  0  0  0  0  0  0  0  0
    8.8795  -19.1058   26.8501 O   0  0  0  0  0  0  0  0  0  0  0  0
   13.4685  -18.3490   26.0980 O   0  0  0  0  0  0  0  0  0  0  0  0
   12.7125  -19.5322   26.2151 C   0  0  0  0  0  0  0  0  0  0  0  0
   11.5605  -19.2102   27.1267 C   0  0  2  0  0  0  0  0  0  0  0  0
   10.8595  -17.9989   26.7466 N   0  0  0  0  0  0  0  0  0  0  0  0
   12.1139  -19.0802   28.5118 C   0  0  0  0  0  0  0  0  0  0  0  0
   12.7985  -20.0398   28.9559 O   0  0  0  0  0  0  0  0  0  0  0  0
   11.8793  -17.9439   29.2753 O   0  0  0  0  0  0  0  0  0  0  0  0
  2  1  1  1
  3  4  1  0
  3  2  1  0
  4  5  2  0
  5  6  1  0
  7  6  1  0
  8  7  2  0
  9  8  1  0
 10 11  1  0
 10  9  2  0
 11 12  2  0
 12  4  1  0
 12  7  1  0
 13  2  1  0
 13 14  2  0
 15 13  1  0
 16 15  1  0
 16 17  1  1
 18 23  1  0
 18 17  1  0
 19 18  2  0
 20 21  2  0
 20 19  1  0
 21 22  1  0
 22 23  2  0
 24 16  1  0
 25 24  2  0
 27 26  1  0
 28 27  1  6
 28 29  1  0
 29 24  1  0
 30 28  1  0
 31 30  2  0
 32 30  1  0
M  END
$$$$
