WFS.pdb
     RDKit          3D

 32 34  0  0  1  0  0  0  0  0999 V2000
   11.2841  -18.0525   20.4094 N   0  0  0  0  0  0  0  0  0  0  0  0
   10.4341  -17.0477   20.9914 C   0  0  1  0  0  0  0  0  0  0  0  0
    8.9851  -17.2484   20.6038 C   0  0  0  0  0  0  0  0  0  0  0  0
    8.4627  -16.0195   19.9611 C   0  0  0  0  0  0  0  0  0  0  0  0
    8.1859  -15.8810   18.5921 C   0  0  0  0  0  0  0  0  0  0  0  0
    7.7094  -14.6447   18.4315 N   0  0  0  0  0  0  0  0  0  0  0  0
    7.6537  -13.9635   19.5895 C   0  0  0  0  0  0  0  0  0  0  0  0
    7.2408  -12.6634   19.9089 C   0  0  0  0  0  0  0  0  0  0  0  0
    7.2923  -12.1901   21.1986 C   0  0  0  0  0  0  0  0  0  0  0  0
    7.7668  -13.0350   22.1860 C   0  0  0  0  0  0  0  0  0  0  0  0
    8.1743  -14.3309   21.8462 C   0  0  0  0  0  0  0  0  0  0  0  0
    8.1270  -14.8175   20.5631 C   0  0  0  0  0  0  0  0  0  0  0  0
   10.5777  -17.0004   22.4709 C   0  0  0  0  0  0  0  0  0  0  0  0
   11.2546  -17.9259   23.0413 O   0  0  0  0  0  0  0  0  0  0  0  0
   10.0228  -16.0022   23.3047 N   0  0  0  0  0  0  0  0  0  0  0  0
   10.2934  -15.9615   24.7410 C   0  0  1  0  0  0  0  0  0  0  0  0
    9.7116  -14.6949   25.3341 C   0  0  0  0  0  0  0  0  0  0  0  0
    9.8083  -14.5801   26.7802 C   0  0  0  0  0  0  0  0  0  0  0  0
   11.0016  -14.3481   27.4301 C   0  0  0  0  0  0  0  0  0  0  0  0
   11.1055  -14.2284   28.7915 C   0  0  0  0  0  0  0  0  0  0  0  0
    9.9890  -14.3394   29.5732 C   0  0  0  0  0  0  0  0  0  0  0  0
    8.7719  -14.5718   28.9663 C   0  0  0  0  0  0  0  0  0  0  0  0
    8.6978  -14.6890   27.5798 C   0  0  0  0  0  0  0  0  0  0  0  0
    9.8617  -17.1771   25.3996 C   0  0  0  0  0  0  0  0  0  0  0  0
    8.7006  -17.6694   25.3203 O   0  0  0  0  0  0  0  0  0  0  0  0
   12.1522  -20.2022   26.0428 O   0  0  0  0  0  0  0  0  0  0  0  0
   10.7893  -20.3801   26.3530 C   0  0  0  0  0  0  0  0  0  0  0  0
   10.3186  -19.0836   26.9523 C   0  0  2  0  0  0  0  0  0  0  0  0
   10.7728  -17.9210   26.2141 N   0  0  0  0  0  0  0  0  0  0  0  0
   10.8231  -19.0372   28.3613 C   0  0  0  0  0  0  0  0  0  0  0  0
   11.5400  -18.0547   28.6893 O   0  0  0  0  0  0  0  0  0  0  0  0
   10.5110  -20.0407   29.2694 O   0  0  0  0  0  0  0  0  0  0  0  0
  2  1  1  1
  3  4  1  0
  3  2  1  0
  4  5  2  0
  5  6  1  0
  7  6  1  0
  8  7  2  0
  9  8  1  0
 10 11  1  0
 10  9  2  0
 11 12  2  0
 12  4  1  0
 12  7  1  0
 13  2  1  0
 13 14  2  0
 15 13  1  0
 16 15  1  0
 16 17  1  1
 18 23  1  0
 18 17  1  0
 19 18  2  0
 20 21  2  0
 20 19  1  0
 21 22  1  0
 22 23  2  0
 24 16  1  0
 25 24  2  0
 27 26  1  0
 28 27  1  6
 28 29  1  0
 29 24  1  0
 30 28  1  0
 31 30  2  0
 32 30  1  0
M  END
$$$$
