FWD.pdb
     RDKit          3D

 34 36  0  0  1  0  0  0  0  0999 V2000
   10.2386  -17.8232   19.3122 N   0  0  0  0  0  0  0  0  0  0  0  0
    9.5782  -16.7942   20.0851 C   0  0  1  0  0  0  0  0  0  0  0  0
    8.1432  -16.5711   19.7407 C   0  0  0  0  0  0  0  0  0  0  0  0
    7.8557  -15.0989   19.8530 C   0  0  0  0  0  0  0  0  0  0  0  0
    6.7937  -14.6155   20.6228 C   0  0  0  0  0  0  0  0  0  0  0  0
    6.4989  -13.2951   20.7598 C   0  0  0  0  0  0  0  0  0  0  0  0
    7.2906  -12.3585   20.1005 C   0  0  0  0  0  0  0  0  0  0  0  0
    8.3524  -12.7963   19.3264 C   0  0  0  0  0  0  0  0  0  0  0  0
    8.6180  -14.1457   19.2137 C   0  0  0  0  0  0  0  0  0  0  0  0
    9.8899  -16.8883   21.5195 C   0  0  0  0  0  0  0  0  0  0  0  0
    9.7579  -17.9676   22.1439 O   0  0  0  0  0  0  0  0  0  0  0  0
   10.3603  -15.7250   22.2676 N   0  0  0  0  0  0  0  0  0  0  0  0
    9.6211  -15.3093   23.4308 C   0  0  1  0  0  0  0  0  0  0  0  0
    8.1547  -15.1827   23.3088 C   0  0  0  0  0  0  0  0  0  0  0  0
    7.4004  -14.8390   24.5349 C   0  0  0  0  0  0  0  0  0  0  0  0
    6.5802  -15.7060   25.2704 C   0  0  0  0  0  0  0  0  0  0  0  0
    6.0789  -15.0818   26.3460 N   0  0  0  0  0  0  0  0  0  0  0  0
    6.5369  -13.8075   26.3634 C   0  0  0  0  0  0  0  0  0  0  0  0
    6.2901  -12.7710   27.2556 C   0  0  0  0  0  0  0  0  0  0  0  0
    6.8760  -11.5485   27.0218 C   0  0  0  0  0  0  0  0  0  0  0  0
    7.6852  -11.3985   25.9114 C   0  0  0  0  0  0  0  0  0  0  0  0
    7.9376  -12.4154   25.0204 C   0  0  0  0  0  0  0  0  0  0  0  0
    7.3572  -13.6476   25.2442 C   0  0  0  0  0  0  0  0  0  0  0  0
    9.9274  -16.2715   24.5679 C   0  0  0  0  0  0  0  0  0  0  0  0
    9.7295  -15.9846   25.7707 O   0  0  0  0  0  0  0  0  0  0  0  0
   10.4518  -17.5392   24.2468 N   0  0  0  0  0  0  0  0  0  0  0  0
   10.7396  -18.5144   25.3204 C   0  0  1  0  0  0  0  0  0  0  0  0
   10.0581  -19.8003   24.9999 C   0  0  0  0  0  0  0  0  0  0  0  0
    8.7946  -19.9100   25.7432 C   0  0  0  0  0  0  0  0  0  0  0  0
    8.4855  -19.0038   26.5712 O   0  0  0  0  0  0  0  0  0  0  0  0
   12.1920  -18.6059   25.5532 C   0  0  0  0  0  0  0  0  0  0  0  0
   12.7756  -18.4515   26.7772 O   0  0  0  0  0  0  0  0  0  0  0  0
    7.9410  -20.9686   25.5617 O   0  0  0  0  0  0  0  0  0  0  0  0
   12.9490  -18.8426   24.5510 O   0  0  0  0  0  0  0  0  0  0  0  0
  2  1  1  6
  3  2  1  0
  4  3  1  0
  4  5  2  0
  6  5  1  0
  7  6  2  0
  8  9  2  0
  8  7  1  0
  9  4  1  0
 10  2  1  0
 10 11  2  0
 12 10  1  0
 13 12  1  0
 13 14  1  6
 15 14  1  0
 16 15  2  0
 17 18  1  0
 17 16  1  0
 18 23  2  0
 19 20  2  0
 19 18  1  0
 20 21  1  0
 21 22  2  0
 23 22  1  0
 23 15  1  0
 24 13  1  0
 25 24  2  0
 26 24  1  0
 27 26  1  0
 27 31  1  0
 27 28  1  6
 28 29  1  0
 29 30  2  0
 31 32  1  0
 33 29  1  0
 34 31  2  0
M  END
$$$$
