FWD.pdb
     RDKit          3D

 34 36  0  0  1  0  0  0  0  0999 V2000
    8.2263  -17.5577   20.9845 N   0  0  0  0  0  0  0  0  0  0  0  0
    9.3755  -16.6792   20.9766 C   0  0  1  0  0  0  0  0  0  0  0  0
    9.3095  -15.5646   19.9862 C   0  0  0  0  0  0  0  0  0  0  0  0
    8.3828  -14.5098   20.5258 C   0  0  0  0  0  0  0  0  0  0  0  0
    7.0035  -14.7198   20.6125 C   0  0  0  0  0  0  0  0  0  0  0  0
    6.1277  -13.8001   21.0986 C   0  0  0  0  0  0  0  0  0  0  0  0
    6.6178  -12.5732   21.5379 C   0  0  0  0  0  0  0  0  0  0  0  0
    7.9785  -12.3247   21.4680 C   0  0  0  0  0  0  0  0  0  0  0  0
    8.8337  -13.2853   20.9681 C   0  0  0  0  0  0  0  0  0  0  0  0
    9.8042  -16.3106   22.3345 C   0  0  0  0  0  0  0  0  0  0  0  0
   10.6537  -15.4083   22.5254 O   0  0  0  0  0  0  0  0  0  0  0  0
    9.2577  -16.9871   23.5083 N   0  0  0  0  0  0  0  0  0  0  0  0
    9.7936  -16.6597   24.8036 C   0  0  1  0  0  0  0  0  0  0  0  0
    8.8443  -16.4976   25.9234 C   0  0  0  0  0  0  0  0  0  0  0  0
    7.7166  -15.5601   25.7248 C   0  0  0  0  0  0  0  0  0  0  0  0
    6.4130  -15.9054   25.3417 C   0  0  0  0  0  0  0  0  0  0  0  0
    5.6319  -14.8167   25.2922 N   0  0  0  0  0  0  0  0  0  0  0  0
    6.3710  -13.7341   25.6324 C   0  0  0  0  0  0  0  0  0  0  0  0
    6.0228  -12.3910   25.7111 C   0  0  0  0  0  0  0  0  0  0  0  0
    6.9907  -11.4804   26.0666 C   0  0  0  0  0  0  0  0  0  0  0  0
    8.2689  -11.9351   26.3309 C   0  0  0  0  0  0  0  0  0  0  0  0
    8.6272  -13.2609   26.2565 C   0  0  0  0  0  0  0  0  0  0  0  0
    7.6651  -14.1852   25.9025 C   0  0  0  0  0  0  0  0  0  0  0  0
   10.8131  -17.7206   25.1876 C   0  0  0  0  0  0  0  0  0  0  0  0
   10.5557  -18.9461   25.1702 O   0  0  0  0  0  0  0  0  0  0  0  0
   12.1011  -17.2999   25.5742 N   0  0  0  0  0  0  0  0  0  0  0  0
   13.0934  -18.2909   26.0430 C   0  0  1  0  0  0  0  0  0  0  0  0
   14.4614  -17.7319   25.8515 C   0  0  0  0  0  0  0  0  0  0  0  0
   14.6881  -17.4048   24.4364 C   0  0  0  0  0  0  0  0  0  0  0  0
   14.2437  -18.1852   23.5442 O   0  0  0  0  0  0  0  0  0  0  0  0
   12.7720  -18.7286   27.4131 C   0  0  0  0  0  0  0  0  0  0  0  0
   11.7112  -18.2576   28.1310 O   0  0  0  0  0  0  0  0  0  0  0  0
   15.3677  -16.2749   24.0575 O   0  0  0  0  0  0  0  0  0  0  0  0
   13.5309  -19.5989   27.9611 O   0  0  0  0  0  0  0  0  0  0  0  0
  2  1  1  1
  3  2  1  0
  4  3  1  0
  4  5  2  0
  6  5  1  0
  7  6  2  0
  8  9  2  0
  8  7  1  0
  9  4  1  0
 10  2  1  0
 10 11  2  0
 12 10  1  0
 13 12  1  0
 13 14  1  1
 15 14  1  0
 16 15  2  0
 17 18  1  0
 17 16  1  0
 18 23  2  0
 19 20  2  0
 19 18  1  0
 20 21  1  0
 21 22  2  0
 23 22  1  0
 23 15  1  0
 24 13  1  0
 25 24  2  0
 26 24  1  0
 27 26  1  0
 27 31  1  0
 27 28  1  1
 28 29  1  0
 29 30  2  0
 31 32  1  0
 33 29  1  0
 34 31  2  0
M  END
$$$$
