FWD.pdb
     RDKit          3D

 34 36  0  0  1  0  0  0  0  0999 V2000
    6.5697  -17.8939   21.4999 N   0  0  0  0  0  0  0  0  0  0  0  0
    7.0479  -16.5353   21.3655 C   0  0  1  0  0  0  0  0  0  0  0  0
    6.0469  -15.5651   20.8322 C   0  0  0  0  0  0  0  0  0  0  0  0
    6.7568  -14.2731   20.5332 C   0  0  0  0  0  0  0  0  0  0  0  0
    7.5531  -14.1201   19.3945 C   0  0  0  0  0  0  0  0  0  0  0  0
    8.2082  -12.9711   19.0789 C   0  0  0  0  0  0  0  0  0  0  0  0
    8.0899  -11.8754   19.9299 C   0  0  0  0  0  0  0  0  0  0  0  0
    7.3110  -11.9860   21.0697 C   0  0  0  0  0  0  0  0  0  0  0  0
    6.6622  -13.1703   21.3536 C   0  0  0  0  0  0  0  0  0  0  0  0
    7.8096  -16.0937   22.5437 C   0  0  0  0  0  0  0  0  0  0  0  0
    7.5061  -15.0434   23.1576 O   0  0  0  0  0  0  0  0  0  0  0  0
    8.9500  -16.8622   23.0367 N   0  0  0  0  0  0  0  0  0  0  0  0
    9.7073  -16.3378   24.1429 C   0  0  1  0  0  0  0  0  0  0  0  0
    9.0326  -16.2282   25.4521 C   0  0  0  0  0  0  0  0  0  0  0  0
    7.8545  -15.3364   25.5343 C   0  0  0  0  0  0  0  0  0  0  0  0
    6.5204  -15.7079   25.3163 C   0  0  0  0  0  0  0  0  0  0  0  0
    5.7023  -14.6633   25.5094 N   0  0  0  0  0  0  0  0  0  0  0  0
    6.4458  -13.5853   25.8544 C   0  0  0  0  0  0  0  0  0  0  0  0
    6.0658  -12.2787   26.1368 C   0  0  0  0  0  0  0  0  0  0  0  0
    7.0437  -11.3608   26.4426 C   0  0  0  0  0  0  0  0  0  0  0  0
    8.3632  -11.7723   26.4570 C   0  0  0  0  0  0  0  0  0  0  0  0
    8.7531  -13.0616   26.1793 C   0  0  0  0  0  0  0  0  0  0  0  0
    7.7817  -13.9930   25.8725 C   0  0  0  0  0  0  0  0  0  0  0  0
   10.9590  -17.1838   24.3167 C   0  0  0  0  0  0  0  0  0  0  0  0
   10.9203  -18.3941   24.6363 O   0  0  0  0  0  0  0  0  0  0  0  0
   12.2115  -16.5747   24.1032 N   0  0  0  0  0  0  0  0  0  0  0  0
   13.4554  -17.3182   24.3970 C   0  0  1  0  0  0  0  0  0  0  0  0
   14.5899  -16.6593   23.6903 C   0  0  0  0  0  0  0  0  0  0  0  0
   14.4051  -16.7433   22.2344 C   0  0  0  0  0  0  0  0  0  0  0  0
   14.1711  -17.8698   21.7064 O   0  0  0  0  0  0  0  0  0  0  0  0
   13.6224  -17.4820   25.8521 C   0  0  0  0  0  0  0  0  0  0  0  0
   12.8051  -16.9038   26.7796 O   0  0  0  0  0  0  0  0  0  0  0  0
   14.4783  -15.6322   21.4331 O   0  0  0  0  0  0  0  0  0  0  0  0
   14.5889  -18.2066   26.2697 O   0  0  0  0  0  0  0  0  0  0  0  0
  2  1  1  1
  3  2  1  0
  4  3  1  0
  4  5  2  0
  6  5  1  0
  7  6  2  0
  8  9  2  0
  8  7  1  0
  9  4  1  0
 10  2  1  0
 10 11  2  0
 12 10  1  0
 13 12  1  0
 13 14  1  1
 15 14  1  0
 16 15  2  0
 17 18  1  0
 17 16  1  0
 18 23  2  0
 19 20  2  0
 19 18  1  0
 20 21  1  0
 21 22  2  0
 23 22  1  0
 23 15  1  0
 24 13  1  0
 25 24  2  0
 26 24  1  0
 27 26  1  0
 27 31  1  0
 27 28  1  1
 28 29  1  0
 29 30  2  0
 31 32  1  0
 33 29  1  0
 34 31  2  0
M  END
$$$$
