FWD.pdb
     RDKit          3D

 34 36  0  0  1  0  0  0  0  0999 V2000
    8.2173  -17.4544   21.0725 N   0  0  0  0  0  0  0  0  0  0  0  0
    9.4699  -16.7336   21.0102 C   0  0  1  0  0  0  0  0  0  0  0  0
    9.5709  -15.7410   19.9002 C   0  0  0  0  0  0  0  0  0  0  0  0
    8.6451  -14.5959   20.2074 C   0  0  0  0  0  0  0  0  0  0  0  0
    7.2834  -14.7982   20.4501 C   0  0  0  0  0  0  0  0  0  0  0  0
    6.4098  -13.7967   20.7380 C   0  0  0  0  0  0  0  0  0  0  0  0
    6.8836  -12.4888   20.7967 C   0  0  0  0  0  0  0  0  0  0  0  0
    8.2265  -12.2452   20.5613 C   0  0  0  0  0  0  0  0  0  0  0  0
    9.0802  -13.2902   20.2726 C   0  0  0  0  0  0  0  0  0  0  0  0
    9.9112  -16.2680   22.3338 C   0  0  0  0  0  0  0  0  0  0  0  0
   10.9957  -15.6555   22.4790 O   0  0  0  0  0  0  0  0  0  0  0  0
    9.1024  -16.5075   23.5265 N   0  0  0  0  0  0  0  0  0  0  0  0
    9.7683  -16.6316   24.7966 C   0  0  1  0  0  0  0  0  0  0  0  0
    9.0621  -16.1423   25.9980 C   0  0  0  0  0  0  0  0  0  0  0  0
    7.8205  -15.3658   25.7843 C   0  0  0  0  0  0  0  0  0  0  0  0
    6.5631  -15.8921   25.4569 C   0  0  0  0  0  0  0  0  0  0  0  0
    5.6494  -14.9142   25.3744 N   0  0  0  0  0  0  0  0  0  0  0  0
    6.2527  -13.7306   25.6376 C   0  0  0  0  0  0  0  0  0  0  0  0
    5.7390  -12.4395   25.6575 C   0  0  0  0  0  0  0  0  0  0  0  0
    6.5912  -11.3968   25.9381 C   0  0  0  0  0  0  0  0  0  0  0  0
    7.9223  -11.6726   26.1884 C   0  0  0  0  0  0  0  0  0  0  0  0
    8.4440  -12.9451   26.1715 C   0  0  0  0  0  0  0  0  0  0  0  0
    7.5992  -14.0006   25.8930 C   0  0  0  0  0  0  0  0  0  0  0  0
   10.1290  -18.0929   25.0131 C   0  0  0  0  0  0  0  0  0  0  0  0
    9.7640  -19.0038   24.2351 O   0  0  0  0  0  0  0  0  0  0  0  0
   10.9109  -18.4283   26.1363 N   0  0  0  0  0  0  0  0  0  0  0  0
   12.2926  -18.9228   25.9549 C   0  0  1  0  0  0  0  0  0  0  0  0
   12.8911  -18.2568   24.7638 C   0  0  0  0  0  0  0  0  0  0  0  0
   13.4061  -19.2598   23.8205 C   0  0  0  0  0  0  0  0  0  0  0  0
   13.2256  -20.4883   24.0671 O   0  0  0  0  0  0  0  0  0  0  0  0
   13.0542  -18.7854   27.2092 C   0  0  0  0  0  0  0  0  0  0  0  0
   14.0134  -19.6674   27.6150 O   0  0  0  0  0  0  0  0  0  0  0  0
   14.0762  -18.8990   22.6791 O   0  0  0  0  0  0  0  0  0  0  0  0
   12.8015  -17.7830   27.9607 O   0  0  0  0  0  0  0  0  0  0  0  0
  2  1  1  1
  3  2  1  0
  4  3  1  0
  4  5  2  0
  6  5  1  0
  7  6  2  0
  8  9  2  0
  8  7  1  0
  9  4  1  0
 10  2  1  0
 10 11  2  0
 12 10  1  0
 13 12  1  0
 13 14  1  1
 15 14  1  0
 16 15  2  0
 17 18  1  0
 17 16  1  0
 18 23  2  0
 19 20  2  0
 19 18  1  0
 20 21  1  0
 21 22  2  0
 23 22  1  0
 23 15  1  0
 24 13  1  0
 25 24  2  0
 26 24  1  0
 27 26  1  0
 27 31  1  0
 27 28  1  6
 28 29  1  0
 29 30  2  0
 31 32  1  0
 33 29  1  0
 34 31  2  0
M  END
$$$$
