IQT.pdb
     RDKit          3D

 25 24  0  0  1  0  0  0  0  0999 V2000
   19.0945  -13.8038  -19.3624 C   0  0  0  0  0  0  0  0  0  0  0  0
   20.1079  -13.1804  -18.4286 C   0  0  0  0  0  0  0  0  0  0  0  0
   19.5130  -11.9046  -17.8043 C   0  0  2  0  0  0  0  0  0  0  0  0
   19.2082  -10.9628  -18.9440 C   0  0  0  0  0  0  0  0  0  0  0  0
   20.6037  -11.2937  -16.9494 C   0  0  2  0  0  0  0  0  0  0  0  0
   20.9673  -12.3140  -15.9325 N   0  0  0  0  0  0  0  0  0  0  0  0
   20.1899  -10.0756  -16.2273 C   0  0  0  0  0  0  0  0  0  0  0  0
   19.9627   -8.9996  -16.8859 O   0  0  0  0  0  0  0  0  0  0  0  0
   17.1125   -9.7469  -10.8465 N   0  0  0  0  0  0  0  0  0  0  0  0
   17.1024   -8.3768  -11.2679 C   0  0  0  0  0  0  0  0  0  0  0  0
   16.3112   -7.6158  -10.6498 O   0  0  0  0  0  0  0  0  0  0  0  0
   17.9782   -7.8942  -12.3701 C   0  0  0  0  0  0  0  0  0  0  0  0
   18.6257   -9.1010  -12.9952 C   0  0  0  0  0  0  0  0  0  0  0  0
   19.4467   -8.7664  -14.2102 C   0  0  2  0  0  0  0  0  0  0  0  0
   20.0071   -9.9628  -14.8304 N   0  0  0  0  0  0  0  0  0  0  0  0
   20.4944   -7.7605  -13.9330 C   0  0  0  0  0  0  0  0  0  0  0  0
   21.4892   -8.1099  -13.2883 O   0  0  0  0  0  0  0  0  0  0  0  0
   23.1898   -6.3241  -15.7950 C   0  0  0  0  0  0  0  0  0  0  0  0
   22.2147   -5.1950  -15.5185 C   0  0  1  0  0  0  0  0  0  0  0  0
   21.4928   -4.8325  -16.6507 O   0  0  0  0  0  0  0  0  0  0  0  0
   21.3719   -5.4240  -14.3210 C   0  0  2  0  0  0  0  0  0  0  0  0
   20.3972   -6.4410  -14.3720 N   0  0  0  0  0  0  0  0  0  0  0  0
   20.7247   -4.1429  -13.9491 C   0  0  0  0  0  0  0  0  0  0  0  0
   21.4534   -3.0336  -13.5321 O   0  0  0  0  0  0  0  0  0  0  0  0
   19.4727   -4.0679  -14.0167 O   0  0  0  0  0  0  0  0  0  0  0  0
  1  2  1  0
  3  2  1  0
  3  5  1  0
  3  4  1  6
  5  7  1  0
  5  6  1  1
  7  8  2  0
  9 10  1  0
 10 12  1  0
 11 10  2  0
 13 12  1  0
 14 13  1  1
 15 14  1  0
 15  7  1  0
 16 17  2  0
 16 14  1  0
 19 18  1  6
 19 21  1  0
 20 19  1  0
 21 22  1  6
 21 23  1  0
 22 16  1  0
 23 24  1  0
 25 23  2  0
M  END
$$$$
