IQT.pdb
     RDKit          3D

 25 24  0  0  1  0  0  0  0  0999 V2000
   27.5570  -20.1714   -6.6003 C   0  0  0  0  0  0  0  0  0  0  0  0
   26.1755  -19.8956   -7.1508 C   0  0  0  0  0  0  0  0  0  0  0  0
   26.0132  -20.6053   -8.5077 C   0  0  2  0  0  0  0  0  0  0  0  0
   27.0005  -19.9668   -9.4545 C   0  0  0  0  0  0  0  0  0  0  0  0
   24.6109  -20.2979   -8.9902 C   0  0  2  0  0  0  0  0  0  0  0  0
   23.6812  -20.9945   -8.0641 N   0  0  0  0  0  0  0  0  0  0  0  0
   24.3248  -20.7829  -10.3538 C   0  0  0  0  0  0  0  0  0  0  0  0
   23.4673  -21.7208  -10.5217 O   0  0  0  0  0  0  0  0  0  0  0  0
   21.9783  -23.1167  -13.1265 N   0  0  0  0  0  0  0  0  0  0  0  0
   21.9589  -22.3490  -14.3370 C   0  0  0  0  0  0  0  0  0  0  0  0
   21.4824  -22.9279  -15.3493 O   0  0  0  0  0  0  0  0  0  0  0  0
   22.4733  -20.9532  -14.3825 C   0  0  0  0  0  0  0  0  0  0  0  0
   22.9676  -20.6077  -13.0031 C   0  0  0  0  0  0  0  0  0  0  0  0
   24.4610  -20.7222  -12.8664 C   0  0  2  0  0  0  0  0  0  0  0  0
   24.9167  -20.3038  -11.5445 N   0  0  0  0  0  0  0  0  0  0  0  0
   25.1896  -20.0111  -13.9387 C   0  0  0  0  0  0  0  0  0  0  0  0
   25.0814  -18.7819  -14.0081 O   0  0  0  0  0  0  0  0  0  0  0  0
   28.9568  -21.3325  -15.3256 C   0  0  0  0  0  0  0  0  0  0  0  0
   27.9357  -20.9575  -16.3834 C   0  0  1  0  0  0  0  0  0  0  0  0
   27.5153  -22.0572  -17.1239 O   0  0  0  0  0  0  0  0  0  0  0  0
   26.8234  -20.1287  -15.8614 C   0  0  2  0  0  0  0  0  0  0  0  0
   25.9884  -20.6772  -14.8669 N   0  0  0  0  0  0  0  0  0  0  0  0
   25.9937  -19.6801  -17.0054 C   0  0  0  0  0  0  0  0  0  0  0  0
   24.6519  -20.0245  -17.1329 O   0  0  0  0  0  0  0  0  0  0  0  0
   26.5323  -18.9635  -17.8853 O   0  0  0  0  0  0  0  0  0  0  0  0
  1  2  1  0
  3  2  1  0
  3  5  1  0
  3  4  1  6
  5  7  1  0
  5  6  1  1
  7  8  2  0
  9 10  1  0
 10 12  1  0
 11 10  2  0
 13 12  1  0
 14 13  1  1
 15 14  1  0
 15  7  1  0
 16 17  2  0
 16 14  1  0
 19 18  1  1
 19 21  1  0
 20 19  1  0
 21 22  1  1
 21 23  1  0
 22 16  1  0
 23 24  1  0
 25 23  2  0
M  END
$$$$
