IQT.pdb
     RDKit          3D

 25 24  0  0  1  0  0  0  0  0999 V2000
   11.8647  -13.3551  -11.4254 C   0  0  0  0  0  0  0  0  0  0  0  0
   13.3364  -13.0363  -11.2837 C   0  0  0  0  0  0  0  0  0  0  0  0
   13.5414  -11.5125  -11.3689 C   0  0  2  0  0  0  0  0  0  0  0  0
   13.0724  -11.0855  -12.7388 C   0  0  0  0  0  0  0  0  0  0  0  0
   15.0334  -11.2719  -11.2709 C   0  0  2  0  0  0  0  0  0  0  0  0
   15.4498  -11.7329   -9.9213 N   0  0  0  0  0  0  0  0  0  0  0  0
   15.4229   -9.8543  -11.3950 C   0  0  0  0  0  0  0  0  0  0  0  0
   15.3112   -9.2675  -12.5292 O   0  0  0  0  0  0  0  0  0  0  0  0
   15.0045   -5.2545   -7.3471 N   0  0  0  0  0  0  0  0  0  0  0  0
   15.5639   -4.5678   -8.4743 C   0  0  0  0  0  0  0  0  0  0  0  0
   15.6179   -3.3124   -8.3837 O   0  0  0  0  0  0  0  0  0  0  0  0
   16.0482   -5.3043   -9.6734 C   0  0  0  0  0  0  0  0  0  0  0  0
   15.8313   -6.7725   -9.4211 C   0  0  0  0  0  0  0  0  0  0  0  0
   16.2833   -7.6399  -10.5637 C   0  0  2  0  0  0  0  0  0  0  0  0
   15.9245   -9.0391  -10.3552 N   0  0  0  0  0  0  0  0  0  0  0  0
   17.7242   -7.4903  -10.8600 C   0  0  0  0  0  0  0  0  0  0  0  0
   18.5321   -8.1534  -10.2006 O   0  0  0  0  0  0  0  0  0  0  0  0
   20.0681   -9.0110  -12.5468 C   0  0  0  0  0  0  0  0  0  0  0  0
   19.9197   -7.6967  -13.2902 C   0  0  1  0  0  0  0  0  0  0  0  0
   19.1690   -7.8305  -14.4534 O   0  0  0  0  0  0  0  0  0  0  0  0
   19.4839   -6.5757  -12.4241 C   0  0  2  0  0  0  0  0  0  0  0  0
   18.1972   -6.6320  -11.8516 N   0  0  0  0  0  0  0  0  0  0  0  0
   19.6272   -5.3106  -13.1842 C   0  0  0  0  0  0  0  0  0  0  0  0
   20.8571   -4.8557  -13.6486 O   0  0  0  0  0  0  0  0  0  0  0  0
   18.5940   -4.6333  -13.4112 O   0  0  0  0  0  0  0  0  0  0  0  0
  1  2  1  0
  3  2  1  0
  3  5  1  0
  3  4  1  6
  5  7  1  0
  5  6  1  1
  7  8  2  0
  9 10  1  0
 10 12  1  0
 11 10  2  0
 13 12  1  0
 14 13  1  1
 15 14  1  0
 15  7  1  0
 16 17  2  0
 16 14  1  0
 19 18  1  1
 19 21  1  0
 20 19  1  0
 21 22  1  6
 21 23  1  0
 22 16  1  0
 23 24  1  0
 25 23  2  0
M  END
$$$$
