IQT.pdb
     RDKit          3D

 25 24  0  0  1  0  0  0  0  0999 V2000
   27.2581  -20.4705  -20.0076 C   0  0  0  0  0  0  0  0  0  0  0  0
   27.9322  -20.7244  -18.6777 C   0  0  0  0  0  0  0  0  0  0  0  0
   26.8617  -20.9803  -17.6008 C   0  0  2  0  0  0  0  0  0  0  0  0
   26.0967  -19.6900  -17.4312 C   0  0  0  0  0  0  0  0  0  0  0  0
   27.6053  -21.2752  -16.3148 C   0  0  2  0  0  0  0  0  0  0  0  0
   28.2534  -22.6001  -16.4936 N   0  0  0  0  0  0  0  0  0  0  0  0
   26.7372  -21.3631  -15.1252 C   0  0  0  0  0  0  0  0  0  0  0  0
   25.9056  -22.3331  -15.0227 O   0  0  0  0  0  0  0  0  0  0  0  0
   26.4239  -22.1036  -10.0995 N   0  0  0  0  0  0  0  0  0  0  0  0
   25.3762  -21.1641   -9.8260 C   0  0  0  0  0  0  0  0  0  0  0  0
   24.5715  -21.4866   -8.9120 O   0  0  0  0  0  0  0  0  0  0  0  0
   25.2569  -19.8882  -10.5827 C   0  0  0  0  0  0  0  0  0  0  0  0
   26.2777  -19.9205  -11.6887 C   0  0  0  0  0  0  0  0  0  0  0  0
   25.7617  -20.5598  -12.9485 C   0  0  2  0  0  0  0  0  0  0  0  0
   26.7245  -20.4572  -14.0405 N   0  0  0  0  0  0  0  0  0  0  0  0
   24.4344  -20.0453  -13.3485 C   0  0  0  0  0  0  0  0  0  0  0  0
   24.3514  -18.8777  -13.7450 O   0  0  0  0  0  0  0  0  0  0  0  0
   21.8968  -22.2014  -15.5546 C   0  0  0  0  0  0  0  0  0  0  0  0
   21.5983  -20.7791  -15.1185 C   0  0  1  0  0  0  0  0  0  0  0  0
   20.3009  -20.3914  -15.4361 O   0  0  0  0  0  0  0  0  0  0  0  0
   21.9771  -20.5018  -13.7127 C   0  0  2  0  0  0  0  0  0  0  0  0
   23.2825  -20.8286  -13.2934 N   0  0  0  0  0  0  0  0  0  0  0  0
   20.9954  -21.1654  -12.8213 C   0  0  0  0  0  0  0  0  0  0  0  0
   19.6252  -20.9526  -12.9326 O   0  0  0  0  0  0  0  0  0  0  0  0
   21.4281  -21.9458  -11.9372 O   0  0  0  0  0  0  0  0  0  0  0  0
  1  2  1  0
  3  2  1  0
  3  5  1  0
  3  4  1  1
  5  7  1  0
  5  6  1  6
  7  8  2  0
  9 10  1  0
 10 12  1  0
 11 10  2  0
 13 12  1  0
 14 13  1  1
 15 14  1  0
 15  7  1  0
 16 17  2  0
 16 14  1  0
 19 18  1  1
 19 21  1  0
 20 19  1  0
 21 22  1  1
 21 23  1  0
 22 16  1  0
 23 24  1  0
 25 23  2  0
M  END
$$$$
