IQT.pdb
     RDKit          3D

 25 24  0  0  1  0  0  0  0  0999 V2000
   20.3618  -18.6422  -18.4432 C   0  0  0  0  0  0  0  0  0  0  0  0
   20.3005  -17.7538  -17.2206 C   0  0  0  0  0  0  0  0  0  0  0  0
   20.3204  -16.2775  -17.6582 C   0  0  2  0  0  0  0  0  0  0  0  0
   21.6257  -16.0552  -18.3831 C   0  0  0  0  0  0  0  0  0  0  0  0
   20.3245  -15.4514  -16.3888 C   0  0  2  0  0  0  0  0  0  0  0  0
   19.0837  -15.8017  -15.6506 N   0  0  0  0  0  0  0  0  0  0  0  0
   20.3067  -13.9944  -16.6200 C   0  0  0  0  0  0  0  0  0  0  0  0
   21.3485  -13.4197  -17.0968 O   0  0  0  0  0  0  0  0  0  0  0  0
   15.3739  -12.0527  -17.1664 N   0  0  0  0  0  0  0  0  0  0  0  0
   16.0955  -11.9815  -18.4031 C   0  0  0  0  0  0  0  0  0  0  0  0
   15.4531  -12.3099  -19.4358 O   0  0  0  0  0  0  0  0  0  0  0  0
   17.5173  -11.5444  -18.4514 C   0  0  0  0  0  0  0  0  0  0  0  0
   17.9217  -11.1636  -17.0522 C   0  0  0  0  0  0  0  0  0  0  0  0
   19.2712  -11.7007  -16.6620 C   0  0  2  0  0  0  0  0  0  0  0  0
   19.2194  -13.1285  -16.3641 N   0  0  0  0  0  0  0  0  0  0  0  0
   19.8912  -10.9404  -15.5557 C   0  0  0  0  0  0  0  0  0  0  0  0
   19.5979  -11.2465  -14.3948 O   0  0  0  0  0  0  0  0  0  0  0  0
   23.2109  -10.7260  -14.0065 C   0  0  0  0  0  0  0  0  0  0  0  0
   22.9213   -9.3683  -14.6189 C   0  0  1  0  0  0  0  0  0  0  0  0
   23.7043   -9.1180  -15.7408 O   0  0  0  0  0  0  0  0  0  0  0  0
   21.4767   -9.1130  -14.8300 C   0  0  2  0  0  0  0  0  0  0  0  0
   20.7890   -9.8973  -15.7780 N   0  0  0  0  0  0  0  0  0  0  0  0
   21.2953   -7.6781  -15.1568 C   0  0  0  0  0  0  0  0  0  0  0  0
   21.6102   -6.6638  -14.2583 O   0  0  0  0  0  0  0  0  0  0  0  0
   20.8402   -7.3792  -16.2888 O   0  0  0  0  0  0  0  0  0  0  0  0
  1  2  1  0
  3  2  1  0
  3  5  1  0
  3  4  1  1
  5  7  1  0
  5  6  1  1
  7  8  2  0
  9 10  1  0
 10 12  1  0
 11 10  2  0
 13 12  1  0
 14 13  1  1
 15 14  1  0
 15  7  1  0
 16 17  2  0
 16 14  1  0
 19 18  1  6
 19 21  1  0
 20 19  1  0
 21 22  1  6
 21 23  1  0
 22 16  1  0
 23 24  1  0
 25 23  2  0
M  END
$$$$
