IQT.pdb
     RDKit          3D

 25 24  0  0  1  0  0  0  0  0999 V2000
   22.3637   -7.3972  -24.8473 C   0  0  0  0  0  0  0  0  0  0  0  0
   23.3821   -8.1242  -23.9978 C   0  0  0  0  0  0  0  0  0  0  0  0
   22.9090   -8.1414  -22.5325 C   0  0  2  0  0  0  0  0  0  0  0  0
   22.9428   -6.7126  -22.0466 C   0  0  0  0  0  0  0  0  0  0  0  0
   23.9352   -8.9411  -21.7572 C   0  0  2  0  0  0  0  0  0  0  0  0
   23.8178  -10.3470  -22.2230 N   0  0  0  0  0  0  0  0  0  0  0  0
   23.7215   -8.9382  -20.2975 C   0  0  0  0  0  0  0  0  0  0  0  0
   22.8211   -9.6972  -19.7913 O   0  0  0  0  0  0  0  0  0  0  0  0
   26.2180  -11.2803  -15.9981 N   0  0  0  0  0  0  0  0  0  0  0  0
   25.3572  -10.4762  -15.1811 C   0  0  0  0  0  0  0  0  0  0  0  0
   25.2732  -10.8137  -13.9703 O   0  0  0  0  0  0  0  0  0  0  0  0
   24.6130   -9.3153  -15.7408 C   0  0  0  0  0  0  0  0  0  0  0  0
   24.9056   -9.2589  -17.2165 C   0  0  0  0  0  0  0  0  0  0  0  0
   24.1300   -8.1861  -17.9305 C   0  0  2  0  0  0  0  0  0  0  0  0
   24.4334   -8.1587  -19.3578 N   0  0  0  0  0  0  0  0  0  0  0  0
   24.3010   -6.8520  -17.3163 C   0  0  0  0  0  0  0  0  0  0  0  0
   25.4347   -6.3612  -17.2821 O   0  0  0  0  0  0  0  0  0  0  0  0
   23.0863   -3.4698  -18.3409 C   0  0  0  0  0  0  0  0  0  0  0  0
   22.5028   -3.7691  -16.9727 C   0  0  1  0  0  0  0  0  0  0  0  0
   21.1261   -3.9619  -17.0173 O   0  0  0  0  0  0  0  0  0  0  0  0
   23.2312   -4.8324  -16.2410 C   0  0  2  0  0  0  0  0  0  0  0  0
   23.2329   -6.1353  -16.7786 N   0  0  0  0  0  0  0  0  0  0  0  0
   22.7240   -4.8774  -14.8484 C   0  0  0  0  0  0  0  0  0  0  0  0
   22.8201   -3.7908  -13.9850 O   0  0  0  0  0  0  0  0  0  0  0  0
   22.1902   -5.9402  -14.4443 O   0  0  0  0  0  0  0  0  0  0  0  0
  1  2  1  0
  3  2  1  0
  3  5  1  0
  3  4  1  1
  5  7  1  0
  5  6  1  6
  7  8  2  0
  9 10  1  0
 10 12  1  0
 11 10  2  0
 13 12  1  0
 14 13  1  1
 15 14  1  0
 15  7  1  0
 16 17  2  0
 16 14  1  0
 19 18  1  6
 19 21  1  0
 20 19  1  0
 21 22  1  6
 21 23  1  0
 22 16  1  0
 23 24  1  0
 25 23  2  0
M  END
$$$$
