IQT.pdb
     RDKit          3D

 25 24  0  0  1  0  0  0  0  0999 V2000
   24.9381  -13.6747  -15.5429 C   0  0  0  0  0  0  0  0  0  0  0  0
   23.4366  -13.7702  -15.3883 C   0  0  0  0  0  0  0  0  0  0  0  0
   22.8020  -12.3997  -15.6887 C   0  0  2  0  0  0  0  0  0  0  0  0
   23.3321  -11.4375  -14.6533 C   0  0  0  0  0  0  0  0  0  0  0  0
   21.3103  -12.5604  -15.4820 C   0  0  2  0  0  0  0  0  0  0  0  0
   20.8605  -13.6084  -16.4342 N   0  0  0  0  0  0  0  0  0  0  0  0
   20.5298  -11.3406  -15.7637 C   0  0  0  0  0  0  0  0  0  0  0  0
   19.7588  -11.3086  -16.7873 O   0  0  0  0  0  0  0  0  0  0  0  0
   15.6289  -10.2073  -15.2056 N   0  0  0  0  0  0  0  0  0  0  0  0
   15.8910   -8.8394  -15.5453 C   0  0  0  0  0  0  0  0  0  0  0  0
   14.8828   -8.1381  -15.8256 O   0  0  0  0  0  0  0  0  0  0  0  0
   17.2750   -8.2925  -15.5624 C   0  0  0  0  0  0  0  0  0  0  0  0
   18.2088   -9.4115  -15.1852 C   0  0  0  0  0  0  0  0  0  0  0  0
   19.6595   -9.0277  -15.2859 C   0  0  2  0  0  0  0  0  0  0  0  0
   20.5387  -10.1555  -14.9938 N   0  0  0  0  0  0  0  0  0  0  0  0
   19.9983   -7.8503  -14.4581 C   0  0  0  0  0  0  0  0  0  0  0  0
   20.0975   -8.0000  -13.2353 O   0  0  0  0  0  0  0  0  0  0  0  0
   23.2320   -5.9328  -14.4507 C   0  0  0  0  0  0  0  0  0  0  0  0
   22.1093   -4.9956  -14.8548 C   0  0  1  0  0  0  0  0  0  0  0  0
   22.1598   -4.6631  -16.2044 O   0  0  0  0  0  0  0  0  0  0  0  0
   20.7726   -5.4468  -14.4007 C   0  0  2  0  0  0  0  0  0  0  0  0
   20.2079   -6.5866  -15.0080 N   0  0  0  0  0  0  0  0  0  0  0  0
   19.8275   -4.3102  -14.5174 C   0  0  0  0  0  0  0  0  0  0  0  0
   19.9847   -3.1332  -13.7926 O   0  0  0  0  0  0  0  0  0  0  0  0
   18.8535   -4.4253  -15.3021 O   0  0  0  0  0  0  0  0  0  0  0  0
  1  2  1  0
  3  2  1  0
  3  5  1  0
  3  4  1  1
  5  7  1  0
  5  6  1  6
  7  8  2  0
  9 10  1  0
 10 12  1  0
 11 10  2  0
 13 12  1  0
 14 13  1  1
 15 14  1  0
 15  7  1  0
 16 17  2  0
 16 14  1  0
 19 18  1  6
 19 21  1  0
 20 19  1  0
 21 22  1  6
 21 23  1  0
 22 16  1  0
 23 24  1  0
 25 23  2  0
M  END
$$$$
