IQT.pdb
     RDKit          3D

 25 24  0  0  1  0  0  0  0  0999 V2000
   28.3598  -15.1882  -16.1084 C   0  0  0  0  0  0  0  0  0  0  0  0
   26.8870  -15.2250  -15.7661 C   0  0  0  0  0  0  0  0  0  0  0  0
   26.1997  -13.9640  -16.3217 C   0  0  2  0  0  0  0  0  0  0  0  0
   26.7090  -12.7969  -15.5108 C   0  0  0  0  0  0  0  0  0  0  0  0
   24.7177  -14.1281  -16.0566 C   0  0  2  0  0  0  0  0  0  0  0  0
   24.3108  -15.4048  -16.6984 N   0  0  0  0  0  0  0  0  0  0  0  0
   23.8822  -13.0567  -16.6314 C   0  0  0  0  0  0  0  0  0  0  0  0
   23.8514  -12.8956  -17.9027 O   0  0  0  0  0  0  0  0  0  0  0  0
   18.2879  -11.6323  -17.1416 N   0  0  0  0  0  0  0  0  0  0  0  0
   18.9018  -12.6243  -16.3085 C   0  0  0  0  0  0  0  0  0  0  0  0
   18.1143  -13.3673  -15.6645 O   0  0  0  0  0  0  0  0  0  0  0  0
   20.3812  -12.7586  -16.2181 C   0  0  0  0  0  0  0  0  0  0  0  0
   20.9866  -11.7034  -17.1049 C   0  0  0  0  0  0  0  0  0  0  0  0
   22.2632  -11.1311  -16.5529 C   0  0  2  0  0  0  0  0  0  0  0  0
   23.0769  -12.1529  -15.9019 N   0  0  0  0  0  0  0  0  0  0  0  0
   22.0327   -9.9749  -15.6605 C   0  0  0  0  0  0  0  0  0  0  0  0
   22.1810  -10.1324  -14.4437 O   0  0  0  0  0  0  0  0  0  0  0  0
   23.4969   -6.2319  -16.2069 C   0  0  0  0  0  0  0  0  0  0  0  0
   21.9893   -6.2632  -16.0379 C   0  0  1  0  0  0  0  0  0  0  0  0
   21.3205   -5.9008  -17.2023 O   0  0  0  0  0  0  0  0  0  0  0  0
   21.4904   -7.5188  -15.4289 C   0  0  2  0  0  0  0  0  0  0  0  0
   21.6564   -8.7224  -16.1435 N   0  0  0  0  0  0  0  0  0  0  0  0
   20.0570   -7.3418  -15.0931 C   0  0  0  0  0  0  0  0  0  0  0  0
   19.6167   -6.3798  -14.1898 O   0  0  0  0  0  0  0  0  0  0  0  0
   19.2189   -8.0933  -15.6505 O   0  0  0  0  0  0  0  0  0  0  0  0
  1  2  1  0
  3  2  1  0
  3  5  1  0
  3  4  1  1
  5  7  1  0
  5  6  1  6
  7  8  2  0
  9 10  1  0
 10 12  1  0
 11 10  2  0
 13 12  1  0
 14 13  1  1
 15 14  1  0
 15  7  1  0
 16 17  2  0
 16 14  1  0
 19 18  1  6
 19 21  1  0
 20 19  1  0
 21 22  1  6
 21 23  1  0
 22 16  1  0
 23 24  1  0
 25 23  2  0
M  END
$$$$
