IQT.pdb
     RDKit          3D

 25 24  0  0  1  0  0  0  0  0999 V2000
   18.2141  -13.1578  -17.0273 C   0  0  0  0  0  0  0  0  0  0  0  0
   17.3842  -12.7470  -15.8314 C   0  0  0  0  0  0  0  0  0  0  0  0
   17.6756  -11.2748  -15.4865 C   0  0  2  0  0  0  0  0  0  0  0  0
   19.1269  -11.2020  -15.0773 C   0  0  0  0  0  0  0  0  0  0  0  0
   16.8163  -10.9348  -14.2866 C   0  0  2  0  0  0  0  0  0  0  0  0
   15.4032  -11.0781  -14.7223 N   0  0  0  0  0  0  0  0  0  0  0  0
   16.9908   -9.5551  -13.7942 C   0  0  0  0  0  0  0  0  0  0  0  0
   16.6451   -8.5717  -14.5401 O   0  0  0  0  0  0  0  0  0  0  0  0
   15.8070   -7.1105   -8.4587 N   0  0  0  0  0  0  0  0  0  0  0  0
   14.9744   -7.0743   -9.6251 C   0  0  0  0  0  0  0  0  0  0  0  0
   13.7511   -6.8523   -9.4224 O   0  0  0  0  0  0  0  0  0  0  0  0
   15.5331   -7.2876  -10.9879 C   0  0  0  0  0  0  0  0  0  0  0  0
   17.0190   -7.4812  -10.8429 C   0  0  0  0  0  0  0  0  0  0  0  0
   17.7029   -7.7910  -12.1461 C   0  0  2  0  0  0  0  0  0  0  0  0
   17.5176   -9.1852  -12.5359 N   0  0  0  0  0  0  0  0  0  0  0  0
   19.1333   -7.4163  -12.1445 C   0  0  0  0  0  0  0  0  0  0  0  0
   19.9108   -8.0667  -11.4375 O   0  0  0  0  0  0  0  0  0  0  0  0
   21.9943   -8.0071  -14.1720 C   0  0  0  0  0  0  0  0  0  0  0  0
   21.6892   -6.5252  -14.2872 C   0  0  1  0  0  0  0  0  0  0  0  0
   21.1002   -6.2012  -15.5048 O   0  0  0  0  0  0  0  0  0  0  0  0
   20.9706   -5.9783  -13.1120 C   0  0  2  0  0  0  0  0  0  0  0  0
   19.6294   -6.3612  -12.9087 N   0  0  0  0  0  0  0  0  0  0  0  0
   21.0570   -4.4986  -13.1544 C   0  0  0  0  0  0  0  0  0  0  0  0
   22.2682   -3.8202  -13.0650 O   0  0  0  0  0  0  0  0  0  0  0  0
   19.9916   -3.8444  -13.2756 O   0  0  0  0  0  0  0  0  0  0  0  0
  1  2  1  0
  3  2  1  0
  3  5  1  0
  3  4  1  1
  5  7  1  0
  5  6  1  6
  7  8  2  0
  9 10  1  0
 10 12  1  0
 11 10  2  0
 13 12  1  0
 14 13  1  1
 15 14  1  0
 15  7  1  0
 16 17  2  0
 16 14  1  0
 19 18  1  1
 19 21  1  0
 20 19  1  0
 21 22  1  6
 21 23  1  0
 22 16  1  0
 23 24  1  0
 25 23  2  0
M  END
$$$$
