IQT.pdb
     RDKit          3D

 25 24  0  0  1  0  0  0  0  0999 V2000
   13.2104  -12.3635  -16.2675 C   0  0  0  0  0  0  0  0  0  0  0  0
   14.6476  -11.8964  -16.3317 C   0  0  0  0  0  0  0  0  0  0  0  0
   15.0218  -11.2052  -15.0075 C   0  0  2  0  0  0  0  0  0  0  0  0
   14.1507   -9.9775  -14.8952 C   0  0  0  0  0  0  0  0  0  0  0  0
   16.4644  -10.7649  -15.1434 C   0  0  2  0  0  0  0  0  0  0  0  0
   17.2779  -12.0035  -15.2501 N   0  0  0  0  0  0  0  0  0  0  0  0
   16.9706  -10.0000  -13.9879 C   0  0  0  0  0  0  0  0  0  0  0  0
   17.1562  -10.5979  -12.8693 O   0  0  0  0  0  0  0  0  0  0  0  0
   21.3091   -5.7917  -13.0952 N   0  0  0  0  0  0  0  0  0  0  0  0
   21.3568   -7.1870  -13.4209 C   0  0  0  0  0  0  0  0  0  0  0  0
   22.4807   -7.6322  -13.7753 O   0  0  0  0  0  0  0  0  0  0  0  0
   20.1450   -8.0473  -13.3414 C   0  0  0  0  0  0  0  0  0  0  0  0
   18.9837   -7.1612  -12.9772 C   0  0  0  0  0  0  0  0  0  0  0  0
   17.7035   -7.9229  -12.7698 C   0  0  2  0  0  0  0  0  0  0  0  0
   17.2885   -8.6229  -13.9814 N   0  0  0  0  0  0  0  0  0  0  0  0
   16.6150   -7.0769  -12.2352 C   0  0  0  0  0  0  0  0  0  0  0  0
   15.9297   -6.4271  -13.0323 O   0  0  0  0  0  0  0  0  0  0  0  0
   15.7761   -7.2393   -7.9662 C   0  0  0  0  0  0  0  0  0  0  0  0
   14.7390   -6.7962   -8.9812 C   0  0  1  0  0  0  0  0  0  0  0  0
   13.7637   -5.9808   -8.4170 O   0  0  0  0  0  0  0  0  0  0  0  0
   15.3288   -6.2482  -10.2256 C   0  0  2  0  0  0  0  0  0  0  0  0
   16.3388   -6.9894  -10.8716 N   0  0  0  0  0  0  0  0  0  0  0  0
   15.8269   -4.8796   -9.9473 C   0  0  0  0  0  0  0  0  0  0  0  0
   14.9730   -3.8210   -9.6550 O   0  0  0  0  0  0  0  0  0  0  0  0
   17.0668   -4.6805   -9.9793 O   0  0  0  0  0  0  0  0  0  0  0  0
  1  2  1  0
  3  2  1  0
  3  5  1  0
  3  4  1  6
  5  7  1  0
  5  6  1  1
  7  8  2  0
  9 10  1  0
 10 12  1  0
 11 10  2  0
 13 12  1  0
 14 13  1  6
 15 14  1  0
 15  7  1  0
 16 17  2  0
 16 14  1  0
 19 18  1  1
 19 21  1  0
 20 19  1  0
 21 22  1  1
 21 23  1  0
 22 16  1  0
 23 24  1  0
 25 23  2  0
M  END
$$$$
