YAL.pdb
     RDKit          3D

 26 26  0  0  1  0  0  0  0  0999 V2000
   21.2748  -22.5534   -6.8922 O   0  0  0  0  0  0  0  0  0  0  0  0
   22.2281  -21.9170   -7.6797 C   0  0  0  0  0  0  0  0  0  0  0  0
   21.9100  -21.6298   -8.9880 C   0  0  0  0  0  0  0  0  0  0  0  0
   22.8744  -20.9932   -9.7621 C   0  0  0  0  0  0  0  0  0  0  0  0
   24.1072  -20.6557   -9.2541 C   0  0  0  0  0  0  0  0  0  0  0  0
   25.1144  -19.9786  -10.1004 C   0  0  0  0  0  0  0  0  0  0  0  0
   25.0759  -20.5321  -11.4902 C   0  0  2  0  0  0  0  0  0  0  0  0
   25.4261  -21.9439  -11.5272 N   0  0  0  0  0  0  0  0  0  0  0  0
   26.0411  -19.7797  -12.3158 C   0  0  0  0  0  0  0  0  0  0  0  0
   25.8931  -18.5507  -12.4696 O   0  0  0  0  0  0  0  0  0  0  0  0
   24.3786  -20.9637   -7.9401 C   0  0  0  0  0  0  0  0  0  0  0  0
   23.4456  -21.5992   -7.1294 C   0  0  0  0  0  0  0  0  0  0  0  0
   29.4455  -20.0211  -13.6279 C   0  0  0  0  0  0  0  0  0  0  0  0
   27.9785  -19.7380  -13.8582 C   0  0  2  0  0  0  0  0  0  0  0  0
   27.1286  -20.4180  -12.9361 N   0  0  0  0  0  0  0  0  0  0  0  0
   27.5818  -20.0108  -15.2563 C   0  0  0  0  0  0  0  0  0  0  0  0
   28.2259  -19.4738  -16.1799 O   0  0  0  0  0  0  0  0  0  0  0  0
   28.5375  -22.8485  -17.6290 C   0  0  0  0  0  0  0  0  0  0  0  0
   27.4563  -23.3283  -16.6490 C   0  0  2  0  0  0  0  0  0  0  0  0
   27.3942  -24.8361  -16.7532 C   0  0  0  0  0  0  0  0  0  0  0  0
   26.1781  -22.7008  -17.0885 C   0  0  0  0  0  0  0  0  0  0  0  0
   26.1405  -21.2049  -16.9548 C   0  0  2  0  0  0  0  0  0  0  0  0
   26.4895  -20.8661  -15.5673 N   0  0  0  0  0  0  0  0  0  0  0  0
   24.8408  -20.6193  -17.2740 C   0  0  0  0  0  0  0  0  0  0  0  0
   24.0722  -19.9436  -16.3190 O   0  0  0  0  0  0  0  0  0  0  0  0
   24.3554  -20.6994  -18.4309 O   0  0  0  0  0  0  0  0  0  0  0  0
  1  2  1  0
  2  3  2  0
  4  3  1  0
  5  4  2  0
  6  5  1  0
  7  9  1  0
  7  6  1  0
  7  8  1  1
  9 15  1  0
 10  9  2  0
 11 12  2  0
 11  5  1  0
 12  2  1  0
 14 13  1  6
 15 14  1  0
 16 23  1  0
 16 14  1  0
 17 16  2  0
 19 18  1  6
 19 21  1  0
 20 19  1  0
 22 21  1  1
 22 24  1  0
 22 23  1  0
 24 25  1  0
 26 24  2  0
M  END
$$$$
