YAL.pdb
     RDKit          3D

 26 26  0  0  1  0  0  0  0  0999 V2000
   17.0481  -15.0968  -16.0916 O   0  0  0  0  0  0  0  0  0  0  0  0
   16.5946  -13.9402  -16.7166 C   0  0  0  0  0  0  0  0  0  0  0  0
   15.6403  -14.0600  -17.7015 C   0  0  0  0  0  0  0  0  0  0  0  0
   15.1974  -12.8938  -18.3166 C   0  0  0  0  0  0  0  0  0  0  0  0
   15.6851  -11.6567  -17.9651 C   0  0  0  0  0  0  0  0  0  0  0  0
   15.1958  -10.4322  -18.6361 C   0  0  0  0  0  0  0  0  0  0  0  0
   16.0266  -10.1404  -19.8460 C   0  0  2  0  0  0  0  0  0  0  0  0
   16.2940  -11.3378  -20.6283 N   0  0  0  0  0  0  0  0  0  0  0  0
   17.3112   -9.5663  -19.3990 C   0  0  0  0  0  0  0  0  0  0  0  0
   18.3136  -10.3023  -19.3013 O   0  0  0  0  0  0  0  0  0  0  0  0
   16.6386  -11.5880  -16.9745 C   0  0  0  0  0  0  0  0  0  0  0  0
   17.1105  -12.7268  -16.3325 C   0  0  0  0  0  0  0  0  0  0  0  0
   18.7113   -6.1161  -18.9660 C   0  0  0  0  0  0  0  0  0  0  0  0
   18.6895   -7.6126  -18.7532 C   0  0  2  0  0  0  0  0  0  0  0  0
   17.4327   -8.2033  -19.0790 N   0  0  0  0  0  0  0  0  0  0  0  0
   19.1157   -7.9765  -17.3849 C   0  0  0  0  0  0  0  0  0  0  0  0
   18.2445   -8.2705  -16.5418 O   0  0  0  0  0  0  0  0  0  0  0  0
   23.9076  -10.3225  -14.5535 C   0  0  0  0  0  0  0  0  0  0  0  0
   22.6891   -9.4203  -14.3073 C   0  0  2  0  0  0  0  0  0  0  0  0
   21.7595  -10.1669  -13.3764 C   0  0  0  0  0  0  0  0  0  0  0  0
   22.0566   -9.1910  -15.6370 C   0  0  0  0  0  0  0  0  0  0  0  0
   20.9110   -8.2190  -15.6223 C   0  0  2  0  0  0  0  0  0  0  0  0
   20.4878   -7.9982  -17.0130 N   0  0  0  0  0  0  0  0  0  0  0  0
   21.2411   -6.9316  -15.0163 C   0  0  0  0  0  0  0  0  0  0  0  0
   21.0662   -6.6834  -13.6499 O   0  0  0  0  0  0  0  0  0  0  0  0
   21.7000   -5.9849  -15.7046 O   0  0  0  0  0  0  0  0  0  0  0  0
  1  2  1  0
  2  3  2  0
  4  3  1  0
  5  4  2  0
  6  5  1  0
  7  9  1  0
  7  6  1  0
  7  8  1  1
  9 15  1  0
 10  9  2  0
 11 12  2  0
 11  5  1  0
 12  2  1  0
 14 13  1  1
 15 14  1  0
 16 23  1  0
 16 14  1  0
 17 16  2  0
 19 18  1  6
 19 21  1  0
 20 19  1  0
 22 21  1  6
 22 24  1  0
 22 23  1  0
 24 25  1  0
 26 24  2  0
M  END
$$$$
