YAL.pdb
     RDKit          3D

 26 26  0  0  1  0  0  0  0  0999 V2000
   19.7913   -9.3000  -21.9740 O   0  0  0  0  0  0  0  0  0  0  0  0
   18.8186  -10.0163  -21.2850 C   0  0  0  0  0  0  0  0  0  0  0  0
   18.8889  -11.3912  -21.2945 C   0  0  0  0  0  0  0  0  0  0  0  0
   17.9086  -12.0926  -20.6007 C   0  0  0  0  0  0  0  0  0  0  0  0
   16.8977  -11.4509  -19.9238 C   0  0  0  0  0  0  0  0  0  0  0  0
   15.8678  -12.2223  -19.1936 C   0  0  0  0  0  0  0  0  0  0  0  0
   16.4425  -12.7826  -17.9306 C   0  0  2  0  0  0  0  0  0  0  0  0
   15.5250  -13.6992  -17.2709 N   0  0  0  0  0  0  0  0  0  0  0  0
   16.7348  -11.6607  -17.0165 C   0  0  0  0  0  0  0  0  0  0  0  0
   15.7935  -11.0132  -16.5159 O   0  0  0  0  0  0  0  0  0  0  0  0
   16.8697  -10.0747  -19.9434 C   0  0  0  0  0  0  0  0  0  0  0  0
   17.8282   -9.3326  -20.6234 C   0  0  0  0  0  0  0  0  0  0  0  0
   19.7504  -10.2614  -15.2645 C   0  0  0  0  0  0  0  0  0  0  0  0
   18.3523  -10.2028  -15.8365 C   0  0  2  0  0  0  0  0  0  0  0  0
   18.0552  -11.3026  -16.6951 N   0  0  0  0  0  0  0  0  0  0  0  0
   18.0896   -8.9114  -16.5071 C   0  0  0  0  0  0  0  0  0  0  0  0
   18.0440   -8.8791  -17.7533 O   0  0  0  0  0  0  0  0  0  0  0  0
   14.6238   -5.6161  -18.6095 C   0  0  0  0  0  0  0  0  0  0  0  0
   15.9235   -5.2825  -17.8619 C   0  0  2  0  0  0  0  0  0  0  0  0
   16.9009   -4.7414  -18.8819 C   0  0  0  0  0  0  0  0  0  0  0  0
   16.4103   -6.5597  -17.2683 C   0  0  0  0  0  0  0  0  0  0  0  0
   17.6484   -6.4239  -16.4280 C   0  0  2  0  0  0  0  0  0  0  0  0
   17.8893   -7.7145  -15.7662 N   0  0  0  0  0  0  0  0  0  0  0  0
   17.5565   -5.3788  -15.4116 C   0  0  0  0  0  0  0  0  0  0  0  0
   17.0066   -5.6151  -14.1462 O   0  0  0  0  0  0  0  0  0  0  0  0
   17.9718   -4.2133  -15.6345 O   0  0  0  0  0  0  0  0  0  0  0  0
  1  2  1  0
  2  3  2  0
  4  3  1  0
  5  4  2  0
  6  5  1  0
  7  9  1  0
  7  6  1  0
  7  8  1  1
  9 15  1  0
 10  9  2  0
 11 12  2  0
 11  5  1  0
 12  2  1  0
 14 13  1  6
 15 14  1  0
 16 23  1  0
 16 14  1  0
 17 16  2  0
 19 18  1  6
 19 21  1  0
 20 19  1  0
 22 21  1  1
 22 24  1  0
 22 23  1  0
 24 25  1  0
 26 24  2  0
M  END
$$$$
