YAL.pdb
     RDKit          3D

 26 26  0  0  1  0  0  0  0  0999 V2000
   18.7656  -17.0998  -17.0401 O   0  0  0  0  0  0  0  0  0  0  0  0
   20.0763  -17.4252  -16.7085 C   0  0  0  0  0  0  0  0  0  0  0  0
   21.0018  -16.4094  -16.6261 C   0  0  0  0  0  0  0  0  0  0  0  0
   22.3082  -16.7516  -16.2935 C   0  0  0  0  0  0  0  0  0  0  0  0
   22.6791  -18.0540  -16.0523 C   0  0  0  0  0  0  0  0  0  0  0  0
   24.0764  -18.3897  -15.6999 C   0  0  0  0  0  0  0  0  0  0  0  0
   24.1234  -19.6902  -14.9612 C   0  0  2  0  0  0  0  0  0  0  0  0
   23.4470  -19.6141  -13.6751 N   0  0  0  0  0  0  0  0  0  0  0  0
   25.5388  -20.0441  -14.7351 C   0  0  0  0  0  0  0  0  0  0  0  0
   26.3297  -20.0650  -15.6994 O   0  0  0  0  0  0  0  0  0  0  0  0
   21.7179  -19.0349  -16.1468 C   0  0  0  0  0  0  0  0  0  0  0  0
   20.4004  -18.7394  -16.4762 C   0  0  0  0  0  0  0  0  0  0  0  0
   28.3264  -19.6392  -13.8547 C   0  0  0  0  0  0  0  0  0  0  0  0
   27.3963  -20.6413  -13.2097 C   0  0  2  0  0  0  0  0  0  0  0  0
   26.0192  -20.3598  -13.4527 N   0  0  0  0  0  0  0  0  0  0  0  0
   27.6678  -20.7876  -11.7636 C   0  0  0  0  0  0  0  0  0  0  0  0
   28.7758  -21.2321  -11.4016 O   0  0  0  0  0  0  0  0  0  0  0  0
   26.7319  -18.7401   -8.7270 C   0  0  0  0  0  0  0  0  0  0  0  0
   26.6886  -19.9194   -7.7438 C   0  0  2  0  0  0  0  0  0  0  0  0
   27.6788  -19.6195   -6.6403 C   0  0  0  0  0  0  0  0  0  0  0  0
   27.0873  -21.1297   -8.5165 C   0  0  0  0  0  0  0  0  0  0  0  0
   26.2638  -21.3818   -9.7476 C   0  0  2  0  0  0  0  0  0  0  0  0
   26.6993  -20.4345  -10.7844 N   0  0  0  0  0  0  0  0  0  0  0  0
   24.8271  -21.2257   -9.5352 C   0  0  0  0  0  0  0  0  0  0  0  0
   24.1616  -21.8294   -8.4619 O   0  0  0  0  0  0  0  0  0  0  0  0
   24.1232  -20.5358  -10.3157 O   0  0  0  0  0  0  0  0  0  0  0  0
  1  2  1  0
  2  3  2  0
  4  3  1  0
  5  4  2  0
  6  5  1  0
  7  9  1  0
  7  6  1  0
  7  8  1  1
  9 15  1  0
 10  9  2  0
 11 12  2  0
 11  5  1  0
 12  2  1  0
 14 13  1  1
 15 14  1  0
 16 23  1  0
 16 14  1  0
 17 16  2  0
 19 18  1  6
 19 21  1  0
 20 19  1  0
 22 21  1  1
 22 24  1  0
 22 23  1  0
 24 25  1  0
 26 24  2  0
M  END
$$$$
