YAL.pdb
     RDKit          3D

 26 26  0  0  1  0  0  0  0  0999 V2000
   37.6052  -11.2128   -5.5909 O   0  0  0  0  0  0  0  0  0  0  0  0
   38.2078  -10.3435   -6.4938 C   0  0  0  0  0  0  0  0  0  0  0  0
   37.6559   -9.0942   -6.6670 C   0  0  0  0  0  0  0  0  0  0  0  0
   38.2705   -8.2369   -7.5735 C   0  0  0  0  0  0  0  0  0  0  0  0
   39.3906   -8.6084   -8.2801 C   0  0  0  0  0  0  0  0  0  0  0  0
   40.0243   -7.6758   -9.2382 C   0  0  0  0  0  0  0  0  0  0  0  0
   39.0183   -7.2048  -10.2410 C   0  0  2  0  0  0  0  0  0  0  0  0
   38.6384   -8.2571  -11.1713 N   0  0  0  0  0  0  0  0  0  0  0  0
   39.6105   -6.0868  -11.0018 C   0  0  0  0  0  0  0  0  0  0  0  0
   39.7438   -6.1858  -12.2381 O   0  0  0  0  0  0  0  0  0  0  0  0
   39.9057   -9.8681   -8.0726 C   0  0  0  0  0  0  0  0  0  0  0  0
   39.3248  -10.7580   -7.1768 C   0  0  0  0  0  0  0  0  0  0  0  0
   40.7138   -2.5550  -10.2993 C   0  0  0  0  0  0  0  0  0  0  0  0
   40.6780   -3.8531  -11.0733 C   0  0  2  0  0  0  0  0  0  0  0  0
   40.0299   -4.9071  -10.3635 N   0  0  0  0  0  0  0  0  0  0  0  0
   42.0268   -4.2586  -11.5236 C   0  0  0  0  0  0  0  0  0  0  0  0
   42.6693   -3.4895  -12.2665 O   0  0  0  0  0  0  0  0  0  0  0  0
   46.3606   -4.6560  -10.2542 C   0  0  0  0  0  0  0  0  0  0  0  0
   45.2653   -5.3347   -9.4182 C   0  0  2  0  0  0  0  0  0  0  0  0
   45.9362   -5.9333   -8.2017 C   0  0  0  0  0  0  0  0  0  0  0  0
   44.6663   -6.3908  -10.2823 C   0  0  0  0  0  0  0  0  0  0  0  0
   43.9727   -5.8717  -11.5097 C   0  0  2  0  0  0  0  0  0  0  0  0
   42.6022   -5.4978  -11.1303 N   0  0  0  0  0  0  0  0  0  0  0  0
   43.9156   -6.8370  -12.6046 C   0  0  0  0  0  0  0  0  0  0  0  0
   45.0540   -7.2153  -13.3258 O   0  0  0  0  0  0  0  0  0  0  0  0
   42.8307   -7.3724  -12.9466 O   0  0  0  0  0  0  0  0  0  0  0  0
  1  2  1  0
  2  3  2  0
  4  3  1  0
  5  4  2  0
  6  5  1  0
  7  9  1  0
  7  6  1  0
  7  8  1  6
  9 15  1  0
 10  9  2  0
 11 12  2  0
 11  5  1  0
 12  2  1  0
 14 13  1  1
 15 14  1  0
 16 23  1  0
 16 14  1  0
 17 16  2  0
 19 18  1  6
 19 21  1  0
 20 19  1  0
 22 21  1  1
 22 24  1  0
 22 23  1  0
 24 25  1  0
 26 24  2  0
M  END
$$$$
