YAL.pdb
     RDKit          3D

 26 26  0  0  1  0  0  0  0  0999 V2000
    8.1347  -22.2484   -0.1597 O   0  0  0  0  0  0  0  0  0  0  0  0
    9.3759  -22.1706    0.4627 C   0  0  0  0  0  0  0  0  0  0  0  0
   10.4375  -22.8346   -0.1095 C   0  0  0  0  0  0  0  0  0  0  0  0
   11.6719  -22.7468    0.5254 C   0  0  0  0  0  0  0  0  0  0  0  0
   11.8431  -22.0262    1.6844 C   0  0  0  0  0  0  0  0  0  0  0  0
   13.1680  -21.9495    2.3387 C   0  0  0  0  0  0  0  0  0  0  0  0
   13.7417  -20.5764    2.1814 C   0  0  2  0  0  0  0  0  0  0  0  0
   13.9919  -20.2439    0.7871 N   0  0  0  0  0  0  0  0  0  0  0  0
   15.0179  -20.5196    2.9214 C   0  0  0  0  0  0  0  0  0  0  0  0
   16.0796  -20.8246    2.3420 O   0  0  0  0  0  0  0  0  0  0  0  0
   10.7515  -21.3793    2.2185 C   0  0  0  0  0  0  0  0  0  0  0  0
    9.4993  -21.4393    1.6185 C   0  0  0  0  0  0  0  0  0  0  0  0
   16.1545  -19.3356    6.3174 C   0  0  0  0  0  0  0  0  0  0  0  0
   16.2948  -20.0450    4.9899 C   0  0  2  0  0  0  0  0  0  0  0  0
   15.0659  -20.1282    4.2703 N   0  0  0  0  0  0  0  0  0  0  0  0
   16.9179  -21.3769    5.1447 C   0  0  0  0  0  0  0  0  0  0  0  0
   16.3580  -22.3663    4.6311 O   0  0  0  0  0  0  0  0  0  0  0  0
   20.4455  -24.8088    3.1807 C   0  0  0  0  0  0  0  0  0  0  0  0
   19.8773  -24.6452    4.5983 C   0  0  2  0  0  0  0  0  0  0  0  0
   18.9065  -25.7827    4.8260 C   0  0  0  0  0  0  0  0  0  0  0  0
   19.1843  -23.3262    4.6271 C   0  0  0  0  0  0  0  0  0  0  0  0
   18.7706  -22.8700    5.9975 C   0  0  2  0  0  0  0  0  0  0  0  0
   18.1332  -21.5519    5.8617 N   0  0  0  0  0  0  0  0  0  0  0  0
   19.8803  -22.7657    6.9416 C   0  0  0  0  0  0  0  0  0  0  0  0
   20.2831  -23.8416    7.7413 O   0  0  0  0  0  0  0  0  0  0  0  0
   20.5249  -21.6946    7.0753 O   0  0  0  0  0  0  0  0  0  0  0  0
  1  2  1  0
  2  3  2  0
  4  3  1  0
  5  4  2  0
  6  5  1  0
  7  9  1  0
  7  6  1  0
  7  8  1  6
  9 15  1  0
 10  9  2  0
 11 12  2  0
 11  5  1  0
 12  2  1  0
 14 13  1  1
 15 14  1  0
 16 23  1  0
 16 14  1  0
 17 16  2  0
 19 18  1  6
 19 21  1  0
 20 19  1  0
 22 21  1  6
 22 24  1  0
 22 23  1  0
 24 25  1  0
 26 24  2  0
M  END
$$$$
