YAL.pdb
     RDKit          3D

 26 26  0  0  1  0  0  0  0  0999 V2000
   18.4062  -17.3212  -13.9968 O   0  0  0  0  0  0  0  0  0  0  0  0
   19.5863  -18.0049  -13.7251 C   0  0  0  0  0  0  0  0  0  0  0  0
   19.5164  -19.1597  -12.9789 C   0  0  0  0  0  0  0  0  0  0  0  0
   20.7056  -19.8314  -12.7161 C   0  0  0  0  0  0  0  0  0  0  0  0
   21.9170  -19.3719  -13.1779 C   0  0  0  0  0  0  0  0  0  0  0  0
   23.1668  -20.1070  -12.8835 C   0  0  0  0  0  0  0  0  0  0  0  0
   23.9267  -20.3587  -14.1479 C   0  0  2  0  0  0  0  0  0  0  0  0
   23.2057  -21.2402  -15.0537 N   0  0  0  0  0  0  0  0  0  0  0  0
   25.2158  -20.9869  -13.7968 C   0  0  0  0  0  0  0  0  0  0  0  0
   25.2512  -22.2001  -13.5087 O   0  0  0  0  0  0  0  0  0  0  0  0
   21.9358  -18.2126  -13.9199 C   0  0  0  0  0  0  0  0  0  0  0  0
   20.7725  -17.5083  -14.2071 C   0  0  0  0  0  0  0  0  0  0  0  0
   28.8092  -19.8678  -13.4527 C   0  0  0  0  0  0  0  0  0  0  0  0
   27.6215  -20.7800  -13.2459 C   0  0  2  0  0  0  0  0  0  0  0  0
   26.4106  -20.2473  -13.7794 N   0  0  0  0  0  0  0  0  0  0  0  0
   27.4626  -21.1572  -11.8251 C   0  0  0  0  0  0  0  0  0  0  0  0
   27.9292  -22.2468  -11.4362 O   0  0  0  0  0  0  0  0  0  0  0  0
   27.6400  -18.3032   -6.6498 C   0  0  0  0  0  0  0  0  0  0  0  0
   27.3443  -19.6969   -7.2237 C   0  0  2  0  0  0  0  0  0  0  0  0
   28.3944  -20.6387   -6.6774 C   0  0  0  0  0  0  0  0  0  0  0  0
   27.4436  -19.5743   -8.7056 C   0  0  0  0  0  0  0  0  0  0  0  0
   26.7079  -20.6387   -9.4692 C   0  0  2  0  0  0  0  0  0  0  0  0
   26.7939  -20.3098  -10.8997 N   0  0  0  0  0  0  0  0  0  0  0  0
   25.3016  -20.7643   -9.0946 C   0  0  0  0  0  0  0  0  0  0  0  0
   24.8902  -21.4979   -7.9758 O   0  0  0  0  0  0  0  0  0  0  0  0
   24.3950  -20.2130   -9.7689 O   0  0  0  0  0  0  0  0  0  0  0  0
  1  2  1  0
  2  3  2  0
  4  3  1  0
  5  4  2  0
  6  5  1  0
  7  9  1  0
  7  6  1  0
  7  8  1  6
  9 15  1  0
 10  9  2  0
 11 12  2  0
 11  5  1  0
 12  2  1  0
 14 13  1  1
 15 14  1  0
 16 23  1  0
 16 14  1  0
 17 16  2  0
 19 18  1  1
 19 21  1  0
 20 19  1  0
 22 21  1  1
 22 24  1  0
 22 23  1  0
 24 25  1  0
 26 24  2  0
M  END
$$$$
