HAW.pdb
     RDKit          3D

 30 32  0  0  1  0  0  0  0  0999 V2000
   25.1186  -17.5666  -15.9742 N   0  0  0  0  0  0  0  0  0  0  0  0
   26.2078  -17.9409  -15.0534 C   0  0  1  0  0  0  0  0  0  0  0  0
   26.6510  -16.6585  -14.4185 C   0  0  0  0  0  0  0  0  0  0  0  0
   27.2583  -15.7657  -15.4607 C   0  0  0  0  0  0  0  0  0  0  0  0
   28.4313  -16.0022  -16.1383 C   0  0  0  0  0  0  0  0  0  0  0  0
   28.6336  -14.9668  -16.9597 N   0  0  0  0  0  0  0  0  0  0  0  0
   27.6190  -14.1050  -16.8036 C   0  0  0  0  0  0  0  0  0  0  0  0
   26.7822  -14.5906  -15.8920 N   0  0  0  0  0  0  0  0  0  0  0  0
   25.7120  -18.8696  -14.0174 C   0  0  0  0  0  0  0  0  0  0  0  0
   24.7044  -18.6277  -13.3301 O   0  0  0  0  0  0  0  0  0  0  0  0
   26.2087  -22.4839  -13.2200 C   0  0  0  0  0  0  0  0  0  0  0  0
   25.9263  -21.0618  -12.7948 C   0  0  2  0  0  0  0  0  0  0  0  0
   26.3899  -20.1008  -13.7681 N   0  0  0  0  0  0  0  0  0  0  0  0
   26.6717  -20.8318  -11.5308 C   0  0  0  0  0  0  0  0  0  0  0  0
   27.9265  -20.8864  -11.5068 O   0  0  0  0  0  0  0  0  0  0  0  0
   26.0186  -20.5442  -10.3084 N   0  0  0  0  0  0  0  0  0  0  0  0
   26.2133  -21.4121   -9.1677 C   0  0  1  0  0  0  0  0  0  0  0  0
   27.5888  -21.3378   -8.5994 C   0  0  0  0  0  0  0  0  0  0  0  0
   27.6690  -20.1693   -7.6893 C   0  0  0  0  0  0  0  0  0  0  0  0
   27.1221  -18.9099   -7.8161 C   0  0  0  0  0  0  0  0  0  0  0  0
   27.4816  -18.2014   -6.7361 N   0  0  0  0  0  0  0  0  0  0  0  0
   28.2328  -18.9265   -5.9103 C   0  0  0  0  0  0  0  0  0  0  0  0
   28.8608  -18.7155   -4.6915 C   0  0  0  0  0  0  0  0  0  0  0  0
   29.5934  -19.7153   -4.0775 C   0  0  0  0  0  0  0  0  0  0  0  0
   29.7167  -20.9434   -4.6615 C   0  0  0  0  0  0  0  0  0  0  0  0
   29.1080  -21.1771   -5.8620 C   0  0  0  0  0  0  0  0  0  0  0  0
   28.3707  -20.1737   -6.4815 C   0  0  0  0  0  0  0  0  0  0  0  0
   25.2358  -21.0327   -8.1309 C   0  0  0  0  0  0  0  0  0  0  0  0
   25.2272  -21.7032   -6.9236 O   0  0  0  0  0  0  0  0  0  0  0  0
   24.4013  -20.1154   -8.3011 O   0  0  0  0  0  0  0  0  0  0  0  0
  2  1  1  6
  2  3  1  0
  2  9  1  0
  3  4  1  0
  4  5  2  0
  4  8  1  0
  5  6  1  0
  6  7  1  0
  8  7  2  0
  9 10  2  0
 12 11  1  6
 12 14  1  0
 13  9  1  0
 13 12  1  0
 14 15  2  0
 16 14  1  0
 16 17  1  0
 17 28  1  0
 17 18  1  1
 19 27  1  0
 19 18  1  0
 20 19  2  0
 21 20  1  0
 21 22  1  0
 22 27  2  0
 23 22  1  0
 23 24  2  0
 24 25  1  0
 25 26  2  0
 27 26  1  0
 28 30  2  0
 28 29  1  0
M  END
$$$$
