HAW.pdb
     RDKit          3D

 30 32  0  0  1  0  0  0  0  0999 V2000
   27.1828  -20.0676  -19.4709 N   0  0  0  0  0  0  0  0  0  0  0  0
   26.1831  -19.4254  -18.5976 C   0  0  1  0  0  0  0  0  0  0  0  0
   24.8780  -20.0759  -18.9406 C   0  0  0  0  0  0  0  0  0  0  0  0
   24.3470  -19.4936  -20.2178 C   0  0  0  0  0  0  0  0  0  0  0  0
   23.7400  -18.2670  -20.3516 C   0  0  0  0  0  0  0  0  0  0  0  0
   23.3955  -18.1301  -21.6361 N   0  0  0  0  0  0  0  0  0  0  0  0
   23.7739  -19.2369  -22.2907 C   0  0  0  0  0  0  0  0  0  0  0  0
   24.3528  -20.0665  -21.4283 N   0  0  0  0  0  0  0  0  0  0  0  0
   26.5071  -19.6671  -17.1769 C   0  0  0  0  0  0  0  0  0  0  0  0
   26.8341  -20.7872  -16.7473 O   0  0  0  0  0  0  0  0  0  0  0  0
   26.9340  -17.4251  -14.1337 C   0  0  0  0  0  0  0  0  0  0  0  0
   26.8795  -18.7484  -14.8610 C   0  0  2  0  0  0  0  0  0  0  0  0
   26.4534  -18.5979  -16.2328 N   0  0  0  0  0  0  0  0  0  0  0  0
   25.8762  -19.5879  -14.1576 C   0  0  0  0  0  0  0  0  0  0  0  0
   24.7026  -19.6867  -14.5946 O   0  0  0  0  0  0  0  0  0  0  0  0
   26.1845  -20.3079  -12.9786 N   0  0  0  0  0  0  0  0  0  0  0  0
   25.1886  -21.1706  -12.3818 C   0  0  1  0  0  0  0  0  0  0  0  0
   25.7356  -22.0456  -11.3069 C   0  0  0  0  0  0  0  0  0  0  0  0
   26.3195  -21.1912  -10.2441 C   0  0  0  0  0  0  0  0  0  0  0  0
   25.6987  -20.4880   -9.2334 C   0  0  0  0  0  0  0  0  0  0  0  0
   26.6530  -19.8611   -8.5308 N   0  0  0  0  0  0  0  0  0  0  0  0
   27.8628  -20.1146   -9.0250 C   0  0  0  0  0  0  0  0  0  0  0  0
   29.1632  -19.7470   -8.7119 C   0  0  0  0  0  0  0  0  0  0  0  0
   30.2376  -20.2015   -9.4550 C   0  0  0  0  0  0  0  0  0  0  0  0
   30.0418  -21.0294  -10.5231 C   0  0  0  0  0  0  0  0  0  0  0  0
   28.7707  -21.4064  -10.8527 C   0  0  0  0  0  0  0  0  0  0  0  0
   27.6887  -20.9509  -10.1071 C   0  0  0  0  0  0  0  0  0  0  0  0
   24.1212  -20.3204  -11.8231 C   0  0  0  0  0  0  0  0  0  0  0  0
   22.9044  -20.8832  -11.4913 O   0  0  0  0  0  0  0  0  0  0  0  0
   24.2732  -19.0925  -11.6343 O   0  0  0  0  0  0  0  0  0  0  0  0
  2  1  1  6
  2  3  1  0
  2  9  1  0
  3  4  1  0
  4  5  2  0
  4  8  1  0
  5  6  1  0
  6  7  1  0
  8  7  2  0
  9 10  2  0
 12 11  1  1
 12 14  1  0
 13  9  1  0
 13 12  1  0
 14 15  2  0
 16 14  1  0
 16 17  1  0
 17 28  1  0
 17 18  1  1
 19 27  1  0
 19 18  1  0
 20 19  2  0
 21 20  1  0
 21 22  1  0
 22 27  2  0
 23 22  1  0
 23 24  2  0
 24 25  1  0
 25 26  2  0
 27 26  1  0
 28 30  2  0
 28 29  1  0
M  END
$$$$
