HAW.pdb
     RDKit          3D

 30 32  0  0  1  0  0  0  0  0999 V2000
   25.5191  -12.3161  -18.9317 N   0  0  0  0  0  0  0  0  0  0  0  0
   24.7361  -12.1956  -17.6880 C   0  0  1  0  0  0  0  0  0  0  0  0
   25.6669  -11.5788  -16.6895 C   0  0  0  0  0  0  0  0  0  0  0  0
   26.7477  -12.5589  -16.3380 C   0  0  0  0  0  0  0  0  0  0  0  0
   28.0969  -12.2941  -16.3129 C   0  0  0  0  0  0  0  0  0  0  0  0
   28.7198  -13.4272  -15.9734 N   0  0  0  0  0  0  0  0  0  0  0  0
   27.7912  -14.3763  -15.7906 C   0  0  0  0  0  0  0  0  0  0  0  0
   26.5914  -13.8484  -16.0123 N   0  0  0  0  0  0  0  0  0  0  0  0
   23.5679  -11.3162  -17.8964 C   0  0  0  0  0  0  0  0  0  0  0  0
   23.6737  -10.1570  -18.3338 O   0  0  0  0  0  0  0  0  0  0  0  0
   19.8042  -11.8314  -17.7245 C   0  0  0  0  0  0  0  0  0  0  0  0
   21.0660  -11.0228  -17.9174 C   0  0  2  0  0  0  0  0  0  0  0  0
   22.2523  -11.7807  -17.5949 N   0  0  0  0  0  0  0  0  0  0  0  0
   20.9886   -9.8706  -16.9834 C   0  0  0  0  0  0  0  0  0  0  0  0
   21.4268   -9.9654  -15.8099 O   0  0  0  0  0  0  0  0  0  0  0  0
   20.4270   -8.6271  -17.3599 N   0  0  0  0  0  0  0  0  0  0  0  0
   20.4776   -7.5086  -16.4442 C   0  0  1  0  0  0  0  0  0  0  0  0
   21.1441   -6.3064  -17.0195 C   0  0  0  0  0  0  0  0  0  0  0  0
   20.3432   -5.8179  -18.1685 C   0  0  0  0  0  0  0  0  0  0  0  0
   19.1632   -5.1046  -18.1849 C   0  0  0  0  0  0  0  0  0  0  0  0
   18.8279   -4.9057  -19.4676 N   0  0  0  0  0  0  0  0  0  0  0  0
   19.7220   -5.4488  -20.2909 C   0  0  0  0  0  0  0  0  0  0  0  0
   19.8780   -5.5481  -21.6657 C   0  0  0  0  0  0  0  0  0  0  0  0
   20.9609   -6.2055  -22.2208 C   0  0  0  0  0  0  0  0  0  0  0  0
   21.9097   -6.7768  -21.4221 C   0  0  0  0  0  0  0  0  0  0  0  0
   21.7796   -6.6932  -20.0647 C   0  0  0  0  0  0  0  0  0  0  0  0
   20.6917   -6.0328  -19.5039 C   0  0  0  0  0  0  0  0  0  0  0  0
   19.0951   -7.1648  -16.0636 C   0  0  0  0  0  0  0  0  0  0  0  0
   18.8724   -6.3073  -15.0042 O   0  0  0  0  0  0  0  0  0  0  0  0
   18.1003   -7.6240  -16.6688 O   0  0  0  0  0  0  0  0  0  0  0  0
  2  1  1  6
  2  3  1  0
  2  9  1  0
  3  4  1  0
  4  5  2  0
  4  8  1  0
  5  6  1  0
  6  7  1  0
  8  7  2  0
  9 10  2  0
 12 11  1  1
 12 14  1  0
 13  9  1  0
 13 12  1  0
 14 15  2  0
 16 14  1  0
 16 17  1  0
 17 28  1  0
 17 18  1  6
 19 27  1  0
 19 18  1  0
 20 19  2  0
 21 20  1  0
 21 22  1  0
 22 27  2  0
 23 22  1  0
 23 24  2  0
 24 25  1  0
 25 26  2  0
 27 26  1  0
 28 30  2  0
 28 29  1  0
M  END
$$$$
