HAW.pdb
     RDKit          3D

 30 32  0  0  1  0  0  0  0  0999 V2000
   29.1049  -18.6979  -19.0327 N   0  0  0  0  0  0  0  0  0  0  0  0
   28.8203  -19.9920  -18.3857 C   0  0  1  0  0  0  0  0  0  0  0  0
   30.0667  -20.8052  -18.5561 C   0  0  0  0  0  0  0  0  0  0  0  0
   30.2890  -21.0843  -20.0138 C   0  0  0  0  0  0  0  0  0  0  0  0
   29.7750  -22.1486  -20.7168 C   0  0  0  0  0  0  0  0  0  0  0  0
   30.2192  -22.0486  -21.9738 N   0  0  0  0  0  0  0  0  0  0  0  0
   30.9894  -20.9551  -22.0594 C   0  0  0  0  0  0  0  0  0  0  0  0
   31.0321  -20.3682  -20.8673 N   0  0  0  0  0  0  0  0  0  0  0  0
   28.5380  -19.7999  -16.9487 C   0  0  0  0  0  0  0  0  0  0  0  0
   29.3491  -20.1148  -16.0604 O   0  0  0  0  0  0  0  0  0  0  0  0
   25.9385  -17.8130  -15.0615 C   0  0  0  0  0  0  0  0  0  0  0  0
   27.0488  -18.8330  -15.1616 C   0  0  2  0  0  0  0  0  0  0  0  0
   27.2973  -19.2342  -16.5266 N   0  0  0  0  0  0  0  0  0  0  0  0
   26.6055  -20.0311  -14.4039 C   0  0  0  0  0  0  0  0  0  0  0  0
   26.1208  -21.0246  -15.0005 O   0  0  0  0  0  0  0  0  0  0  0  0
   26.7043  -20.1147  -12.9944 N   0  0  0  0  0  0  0  0  0  0  0  0
   26.3602  -21.3480  -12.3214 C   0  0  1  0  0  0  0  0  0  0  0  0
   27.2841  -21.6855  -11.2021 C   0  0  0  0  0  0  0  0  0  0  0  0
   26.8791  -20.9189   -9.9985 C   0  0  0  0  0  0  0  0  0  0  0  0
   25.6795  -20.3075   -9.7012 C   0  0  0  0  0  0  0  0  0  0  0  0
   25.8047  -19.7346   -8.4955 N   0  0  0  0  0  0  0  0  0  0  0  0
   27.0184  -19.9370   -7.9877 C   0  0  0  0  0  0  0  0  0  0  0  0
   27.6798  -19.5874   -6.8195 C   0  0  0  0  0  0  0  0  0  0  0  0
   28.9894  -19.9701   -6.5926 C   0  0  0  0  0  0  0  0  0  0  0  0
   29.6676  -20.7070   -7.5208 C   0  0  0  0  0  0  0  0  0  0  0  0
   29.0391  -21.0644   -8.6800 C   0  0  0  0  0  0  0  0  0  0  0  0
   27.7223  -20.6810   -8.9106 C   0  0  0  0  0  0  0  0  0  0  0  0
   24.9876  -21.2175  -11.7987 C   0  0  0  0  0  0  0  0  0  0  0  0
   24.4063  -19.9677  -11.7131 O   0  0  0  0  0  0  0  0  0  0  0  0
   24.3172  -22.2058  -11.4237 O   0  0  0  0  0  0  0  0  0  0  0  0
  2  1  1  6
  2  3  1  0
  2  9  1  0
  3  4  1  0
  4  5  2  0
  4  8  1  0
  5  6  1  0
  6  7  1  0
  8  7  2  0
  9 10  2  0
 12 11  1  6
 12 14  1  0
 13  9  1  0
 13 12  1  0
 14 15  2  0
 16 14  1  0
 16 17  1  0
 17 28  1  0
 17 18  1  1
 19 27  1  0
 19 18  1  0
 20 19  2  0
 21 20  1  0
 21 22  1  0
 22 27  2  0
 23 22  1  0
 23 24  2  0
 24 25  1  0
 25 26  2  0
 27 26  1  0
 28 30  2  0
 28 29  1  0
M  END
$$$$
