HAW.pdb
     RDKit          3D

 30 32  0  0  1  0  0  0  0  0999 V2000
   29.5604  -22.0970  -18.2838 N   0  0  0  0  0  0  0  0  0  0  0  0
   28.1878  -21.7996  -17.8345 C   0  0  1  0  0  0  0  0  0  0  0  0
   27.4419  -23.0936  -17.9496 C   0  0  0  0  0  0  0  0  0  0  0  0
   27.0265  -23.3087  -19.3755 C   0  0  0  0  0  0  0  0  0  0  0  0
   25.8775  -22.8297  -19.9599 C   0  0  0  0  0  0  0  0  0  0  0  0
   25.8678  -23.2536  -21.2277 N   0  0  0  0  0  0  0  0  0  0  0  0
   26.9766  -23.9775  -21.4351 C   0  0  0  0  0  0  0  0  0  0  0  0
   27.6817  -24.0112  -20.3086 N   0  0  0  0  0  0  0  0  0  0  0  0
   28.1916  -21.3449  -16.4292 C   0  0  0  0  0  0  0  0  0  0  0  0
   28.6118  -22.0542  -15.4984 O   0  0  0  0  0  0  0  0  0  0  0  0
   27.3371  -18.0751  -14.6795 C   0  0  0  0  0  0  0  0  0  0  0  0
   27.7368  -19.5310  -14.7413 C   0  0  2  0  0  0  0  0  0  0  0  0
   27.7017  -20.0480  -16.0893 N   0  0  0  0  0  0  0  0  0  0  0  0
   26.7456  -20.2865  -13.9333 C   0  0  0  0  0  0  0  0  0  0  0  0
   25.7428  -20.8131  -14.4764 O   0  0  0  0  0  0  0  0  0  0  0  0
   26.8768  -20.4499  -12.5334 N   0  0  0  0  0  0  0  0  0  0  0  0
   25.9855  -21.3440  -11.8273 C   0  0  1  0  0  0  0  0  0  0  0  0
   26.5866  -21.9192  -10.5911 C   0  0  0  0  0  0  0  0  0  0  0  0
   26.6215  -20.8708   -9.5424 C   0  0  0  0  0  0  0  0  0  0  0  0
   25.6429  -19.9846   -9.1443 C   0  0  0  0  0  0  0  0  0  0  0  0
   26.1557  -19.2288   -8.1629 N   0  0  0  0  0  0  0  0  0  0  0  0
   27.4144  -19.5707   -7.8968 C   0  0  0  0  0  0  0  0  0  0  0  0
   28.3965  -19.1446   -7.0145 C   0  0  0  0  0  0  0  0  0  0  0  0
   29.6481  -19.7329   -6.9932 C   0  0  0  0  0  0  0  0  0  0  0  0
   29.9489  -20.7552   -7.8469 C   0  0  0  0  0  0  0  0  0  0  0  0
   28.9993  -21.1937   -8.7259 C   0  0  0  0  0  0  0  0  0  0  0  0
   27.7400  -20.6039   -8.7494 C   0  0  0  0  0  0  0  0  0  0  0  0
   24.7675  -20.5920  -11.4734 C   0  0  0  0  0  0  0  0  0  0  0  0
   23.5964  -21.2752  -11.2106 O   0  0  0  0  0  0  0  0  0  0  0  0
   24.7496  -19.3426  -11.4001 O   0  0  0  0  0  0  0  0  0  0  0  0
  2  1  1  1
  2  3  1  0
  2  9  1  0
  3  4  1  0
  4  5  2  0
  4  8  1  0
  5  6  1  0
  6  7  1  0
  8  7  2  0
  9 10  2  0
 12 11  1  6
 12 14  1  0
 13  9  1  0
 13 12  1  0
 14 15  2  0
 16 14  1  0
 16 17  1  0
 17 28  1  0
 17 18  1  1
 19 27  1  0
 19 18  1  0
 20 19  2  0
 21 20  1  0
 21 22  1  0
 22 27  2  0
 23 22  1  0
 23 24  2  0
 24 25  1  0
 25 26  2  0
 27 26  1  0
 28 30  2  0
 28 29  1  0
M  END
$$$$
