HAW.pdb
     RDKit          3D

 30 32  0  0  1  0  0  0  0  0999 V2000
   25.0323  -17.5779  -21.0957 N   0  0  0  0  0  0  0  0  0  0  0  0
   24.9203  -17.9937  -19.6854 C   0  0  1  0  0  0  0  0  0  0  0  0
   24.9937  -16.7267  -18.8896 C   0  0  0  0  0  0  0  0  0  0  0  0
   26.3612  -16.1245  -19.0289 C   0  0  0  0  0  0  0  0  0  0  0  0
   26.6442  -14.8810  -19.5433 C   0  0  0  0  0  0  0  0  0  0  0  0
   27.9721  -14.7291  -19.5128 N   0  0  0  0  0  0  0  0  0  0  0  0
   28.5086  -15.8431  -18.9952 C   0  0  0  0  0  0  0  0  0  0  0  0
   27.5289  -16.6921  -18.7007 N   0  0  0  0  0  0  0  0  0  0  0  0
   23.6259  -18.6636  -19.4456 C   0  0  0  0  0  0  0  0  0  0  0  0
   22.5670  -18.2790  -19.9717 O   0  0  0  0  0  0  0  0  0  0  0  0
   22.5591  -21.9760  -18.0454 C   0  0  0  0  0  0  0  0  0  0  0  0
   22.3185  -20.5149  -18.3459 C   0  0  2  0  0  0  0  0  0  0  0  0
   23.5498  -19.7984  -18.5832 N   0  0  0  0  0  0  0  0  0  0  0  0
   21.6689  -19.9276  -17.1462 C   0  0  0  0  0  0  0  0  0  0  0  0
   22.3575  -19.4046  -16.2349 O   0  0  0  0  0  0  0  0  0  0  0  0
   20.2645  -19.9264  -16.9699 N   0  0  0  0  0  0  0  0  0  0  0  0
   19.6808  -19.2187  -15.8515 C   0  0  1  0  0  0  0  0  0  0  0  0
   19.7660  -17.7369  -15.9833 C   0  0  0  0  0  0  0  0  0  0  0  0
   19.1039  -17.3292  -17.2465 C   0  0  0  0  0  0  0  0  0  0  0  0
   17.8788  -17.6965  -17.7619 C   0  0  0  0  0  0  0  0  0  0  0  0
   17.7282  -17.0673  -18.9361 N   0  0  0  0  0  0  0  0  0  0  0  0
   18.7856  -16.3092  -19.2176 C   0  0  0  0  0  0  0  0  0  0  0  0
   19.1610  -15.4707  -20.2570 C   0  0  0  0  0  0  0  0  0  0  0  0
   20.3743  -14.8067  -20.2427 C   0  0  0  0  0  0  0  0  0  0  0  0
   21.2380  -14.9623  -19.1966 C   0  0  0  0  0  0  0  0  0  0  0  0
   20.8922  -15.7826  -18.1603 C   0  0  0  0  0  0  0  0  0  0  0  0
   19.6729  -16.4513  -18.1721 C   0  0  0  0  0  0  0  0  0  0  0  0
   18.2656  -19.6185  -15.7441 C   0  0  0  0  0  0  0  0  0  0  0  0
   17.7329  -20.4964  -16.6676 O   0  0  0  0  0  0  0  0  0  0  0  0
   17.5156  -19.1896  -14.8385 O   0  0  0  0  0  0  0  0  0  0  0  0
  2  1  1  6
  2  3  1  0
  2  9  1  0
  3  4  1  0
  4  5  2  0
  4  8  1  0
  5  6  1  0
  6  7  1  0
  8  7  2  0
  9 10  2  0
 12 11  1  1
 12 14  1  0
 13  9  1  0
 13 12  1  0
 14 15  2  0
 16 14  1  0
 16 17  1  0
 17 28  1  0
 17 18  1  6
 19 27  1  0
 19 18  1  0
 20 19  2  0
 21 20  1  0
 21 22  1  0
 22 27  2  0
 23 22  1  0
 23 24  2  0
 24 25  1  0
 25 26  2  0
 27 26  1  0
 28 30  2  0
 28 29  1  0
M  END
$$$$
