HAW.pdb
     RDKit          3D

 30 32  0  0  1  0  0  0  0  0999 V2000
   30.0145  -22.2068  -17.9055 N   0  0  0  0  0  0  0  0  0  0  0  0
   28.6235  -21.7510  -17.7278 C   0  0  1  0  0  0  0  0  0  0  0  0
   27.7708  -22.9408  -18.0457 C   0  0  0  0  0  0  0  0  0  0  0  0
   27.6134  -23.0631  -19.5332 C   0  0  0  0  0  0  0  0  0  0  0  0
   26.6393  -22.4574  -20.2917 C   0  0  0  0  0  0  0  0  0  0  0  0
   26.8316  -22.8312  -21.5608 N   0  0  0  0  0  0  0  0  0  0  0  0
   27.8941  -23.6473  -21.5999 C   0  0  0  0  0  0  0  0  0  0  0  0
   28.3700  -23.7886  -20.3667 N   0  0  0  0  0  0  0  0  0  0  0  0
   28.3935  -21.3262  -16.3320 C   0  0  0  0  0  0  0  0  0  0  0  0
   28.6199  -22.0697  -15.3614 O   0  0  0  0  0  0  0  0  0  0  0  0
   27.3640  -18.0540  -14.6818 C   0  0  0  0  0  0  0  0  0  0  0  0
   27.7580  -19.5126  -14.7032 C   0  0  2  0  0  0  0  0  0  0  0  0
   27.8929  -20.0198  -16.0487 N   0  0  0  0  0  0  0  0  0  0  0  0
   26.6658  -20.2658  -14.0354 C   0  0  0  0  0  0  0  0  0  0  0  0
   25.7670  -20.8264  -14.7107 O   0  0  0  0  0  0  0  0  0  0  0  0
   26.5819  -20.3892  -12.6279 N   0  0  0  0  0  0  0  0  0  0  0  0
   25.6349  -21.3125  -12.0423 C   0  0  1  0  0  0  0  0  0  0  0  0
   26.1233  -21.9347  -10.7795 C   0  0  0  0  0  0  0  0  0  0  0  0
   26.2275  -20.8848   -9.7368 C   0  0  0  0  0  0  0  0  0  0  0  0
   25.2983  -19.9542   -9.3223 C   0  0  0  0  0  0  0  0  0  0  0  0
   25.8654  -19.2182   -8.3558 N   0  0  0  0  0  0  0  0  0  0  0  0
   27.1130  -19.6150   -8.1150 C   0  0  0  0  0  0  0  0  0  0  0  0
   28.1319  -19.2298   -7.2560 C   0  0  0  0  0  0  0  0  0  0  0  0
   29.3563  -19.8734   -7.2585 C   0  0  0  0  0  0  0  0  0  0  0  0
   29.5926  -20.9115   -8.1135 C   0  0  0  0  0  0  0  0  0  0  0  0
   28.6057  -21.3105   -8.9698 C   0  0  0  0  0  0  0  0  0  0  0  0
   27.3737  -20.6651   -8.9693 C   0  0  0  0  0  0  0  0  0  0  0  0
   24.3851  -20.5780  -11.7728 C   0  0  0  0  0  0  0  0  0  0  0  0
   23.2211  -21.2794  -11.5273 O   0  0  0  0  0  0  0  0  0  0  0  0
   24.3335  -19.3274  -11.7572 O   0  0  0  0  0  0  0  0  0  0  0  0
  2  1  1  1
  2  3  1  0
  2  9  1  0
  3  4  1  0
  4  5  2  0
  4  8  1  0
  5  6  1  0
  6  7  1  0
  8  7  2  0
  9 10  2  0
 12 11  1  6
 12 14  1  0
 13  9  1  0
 13 12  1  0
 14 15  2  0
 16 14  1  0
 16 17  1  0
 17 28  1  0
 17 18  1  1
 19 27  1  0
 19 18  1  0
 20 19  2  0
 21 20  1  0
 21 22  1  0
 22 27  2  0
 23 22  1  0
 23 24  2  0
 24 25  1  0
 25 26  2  0
 27 26  1  0
 28 30  2  0
 28 29  1  0
M  END
$$$$
