HAW.pdb
     RDKit          3D

 30 32  0  0  1  0  0  0  0  0999 V2000
   27.6062  -21.7916  -16.1097 N   0  0  0  0  0  0  0  0  0  0  0  0
   27.1276  -20.7444  -15.1885 C   0  0  1  0  0  0  0  0  0  0  0  0
   26.4817  -19.7117  -16.0606 C   0  0  0  0  0  0  0  0  0  0  0  0
   27.5374  -18.9704  -16.8275 C   0  0  0  0  0  0  0  0  0  0  0  0
   28.1364  -17.7945  -16.4408 C   0  0  0  0  0  0  0  0  0  0  0  0
   29.0017  -17.4527  -17.4009 N   0  0  0  0  0  0  0  0  0  0  0  0
   28.9488  -18.3849  -18.3626 C   0  0  0  0  0  0  0  0  0  0  0  0
   28.0582  -19.3083  -18.0141 N   0  0  0  0  0  0  0  0  0  0  0  0
   26.1343  -21.2995  -14.2468 C   0  0  0  0  0  0  0  0  0  0  0  0
   25.1998  -22.0319  -14.6161 O   0  0  0  0  0  0  0  0  0  0  0  0
   25.5860  -21.0836  -10.4850 C   0  0  0  0  0  0  0  0  0  0  0  0
   25.1954  -21.3946  -11.9111 C   0  0  2  0  0  0  0  0  0  0  0  0
   26.2190  -21.0052  -12.8526 N   0  0  0  0  0  0  0  0  0  0  0  0
   23.9735  -20.6038  -12.2074 C   0  0  0  0  0  0  0  0  0  0  0  0
   24.0242  -19.3514  -12.2901 O   0  0  0  0  0  0  0  0  0  0  0  0
   22.7101  -21.2094  -12.4088 N   0  0  0  0  0  0  0  0  0  0  0  0
   21.5427  -20.3829  -12.6236 C   0  0  1  0  0  0  0  0  0  0  0  0
   21.6797  -19.4614  -13.7865 C   0  0  0  0  0  0  0  0  0  0  0  0
   21.1077  -20.1172  -14.9878 C   0  0  0  0  0  0  0  0  0  0  0  0
   19.8262  -20.5682  -15.2238 C   0  0  0  0  0  0  0  0  0  0  0  0
   19.8025  -21.0943  -16.4568 N   0  0  0  0  0  0  0  0  0  0  0  0
   20.9962  -21.0127  -17.0402 C   0  0  0  0  0  0  0  0  0  0  0  0
   21.5331  -21.3823  -18.2648 C   0  0  0  0  0  0  0  0  0  0  0  0
   22.8619  -21.1464  -18.5679 C   0  0  0  0  0  0  0  0  0  0  0  0
   23.6831  -20.5392  -17.6615 C   0  0  0  0  0  0  0  0  0  0  0  0
   23.1791  -20.1653  -16.4480 C   0  0  0  0  0  0  0  0  0  0  0  0
   21.8434  -20.4013  -16.1407 C   0  0  0  0  0  0  0  0  0  0  0  0
   20.3854  -21.2710  -12.8384 C   0  0  0  0  0  0  0  0  0  0  0  0
   19.1059  -20.7657  -12.7166 O   0  0  0  0  0  0  0  0  0  0  0  0
   20.5153  -22.4812  -13.1306 O   0  0  0  0  0  0  0  0  0  0  0  0
  2  1  1  6
  2  3  1  0
  2  9  1  0
  3  4  1  0
  4  5  2  0
  4  8  1  0
  5  6  1  0
  6  7  1  0
  8  7  2  0
  9 10  2  0
 12 11  1  1
 12 14  1  0
 13  9  1  0
 13 12  1  0
 14 15  2  0
 16 14  1  0
 16 17  1  0
 17 28  1  0
 17 18  1  6
 19 27  1  0
 19 18  1  0
 20 19  2  0
 21 20  1  0
 21 22  1  0
 22 27  2  0
 23 22  1  0
 23 24  2  0
 24 25  1  0
 25 26  2  0
 27 26  1  0
 28 30  2  0
 28 29  1  0
M  END
$$$$
