HAW.pdb
     RDKit          3D

 30 32  0  0  1  0  0  0  0  0999 V2000
   28.0049  -20.5578  -16.0484 N   0  0  0  0  0  0  0  0  0  0  0  0
   27.4924  -21.4431  -14.9863 C   0  0  1  0  0  0  0  0  0  0  0  0
   28.6980  -22.1357  -14.4288 C   0  0  0  0  0  0  0  0  0  0  0  0
   29.3014  -23.0190  -15.4814 C   0  0  0  0  0  0  0  0  0  0  0  0
   28.7517  -24.1820  -15.9677 C   0  0  0  0  0  0  0  0  0  0  0  0
   29.6021  -24.6776  -16.8724 N   0  0  0  0  0  0  0  0  0  0  0  0
   30.6549  -23.8521  -16.9529 C   0  0  0  0  0  0  0  0  0  0  0  0
   30.4723  -22.8430  -16.1069 N   0  0  0  0  0  0  0  0  0  0  0  0
   26.8329  -20.6518  -13.9278 C   0  0  0  0  0  0  0  0  0  0  0  0
   27.4389  -19.7997  -13.2549 O   0  0  0  0  0  0  0  0  0  0  0  0
   23.2654  -19.9225  -13.0110 C   0  0  0  0  0  0  0  0  0  0  0  0
   24.7340  -20.0404  -12.6760 C   0  0  2  0  0  0  0  0  0  0  0  0
   25.4486  -20.8456  -13.6387 N   0  0  0  0  0  0  0  0  0  0  0  0
   24.8239  -20.7149  -11.3557 C   0  0  0  0  0  0  0  0  0  0  0  0
   24.8886  -21.9670  -11.2779 O   0  0  0  0  0  0  0  0  0  0  0  0
   24.8411  -19.9947  -10.1373 N   0  0  0  0  0  0  0  0  0  0  0  0
   24.8726  -20.7094   -8.8800 C   0  0  1  0  0  0  0  0  0  0  0  0
   25.5389  -19.9476   -7.7864 C   0  0  0  0  0  0  0  0  0  0  0  0
   26.9853  -20.2766   -7.7854 C   0  0  0  0  0  0  0  0  0  0  0  0
   27.7328  -20.9821   -8.7046 C   0  0  0  0  0  0  0  0  0  0  0  0
   28.9962  -21.0181   -8.2572 N   0  0  0  0  0  0  0  0  0  0  0  0
   29.1169  -20.3760   -7.0974 C   0  0  0  0  0  0  0  0  0  0  0  0
   30.1499  -20.1060   -6.2118 C   0  0  0  0  0  0  0  0  0  0  0  0
   29.9323  -19.3855   -5.0513 C   0  0  0  0  0  0  0  0  0  0  0  0
   28.6853  -18.9193   -4.7477 C   0  0  0  0  0  0  0  0  0  0  0  0
   27.6505  -19.1716   -5.6032 C   0  0  0  0  0  0  0  0  0  0  0  0
   27.8666  -19.8958   -6.7708 C   0  0  0  0  0  0  0  0  0  0  0  0
   23.4830  -21.0101   -8.4888 C   0  0  0  0  0  0  0  0  0  0  0  0
   23.2422  -21.8332   -7.4064 O   0  0  0  0  0  0  0  0  0  0  0  0
   22.4982  -20.5444   -9.1053 O   0  0  0  0  0  0  0  0  0  0  0  0
  2  1  1  6
  2  3  1  0
  2  9  1  0
  3  4  1  0
  4  5  2  0
  4  8  1  0
  5  6  1  0
  6  7  1  0
  8  7  2  0
  9 10  2  0
 12 11  1  6
 12 14  1  0
 13  9  1  0
 13 12  1  0
 14 15  2  0
 16 14  1  0
 16 17  1  0
 17 28  1  0
 17 18  1  1
 19 27  1  0
 19 18  1  0
 20 19  2  0
 21 20  1  0
 21 22  1  0
 22 27  2  0
 23 22  1  0
 23 24  2  0
 24 25  1  0
 25 26  2  0
 27 26  1  0
 28 30  2  0
 28 29  1  0
M  END
$$$$
