WKL.pdb
     RDKit          3D

 32 33  0  0  1  0  0  0  0  0999 V2000
    6.1275  -18.4647   22.6668 N   0  0  0  0  0  0  0  0  0  0  0  0
    7.2504  -17.5525   22.5656 C   0  0  1  0  0  0  0  0  0  0  0  0
    6.8081  -16.1970   23.0045 C   0  0  0  0  0  0  0  0  0  0  0  0
    6.6209  -15.3518   21.7992 C   0  0  0  0  0  0  0  0  0  0  0  0
    5.6316  -15.3914   20.8414 C   0  0  0  0  0  0  0  0  0  0  0  0
    5.8481  -14.4346   19.9117 N   0  0  0  0  0  0  0  0  0  0  0  0
    6.9631  -13.7545   20.2280 C   0  0  0  0  0  0  0  0  0  0  0  0
    7.6275  -12.7172   19.6570 C   0  0  0  0  0  0  0  0  0  0  0  0
    8.7836  -12.1792   20.1849 C   0  0  0  0  0  0  0  0  0  0  0  0
    9.2604  -12.7558   21.3617 C   0  0  0  0  0  0  0  0  0  0  0  0
    8.6112  -13.7984   21.9548 C   0  0  0  0  0  0  0  0  0  0  0  0
    7.4636  -14.3099   21.4036 C   0  0  0  0  0  0  0  0  0  0  0  0
    8.4279  -18.0427   23.3560 C   0  0  0  0  0  0  0  0  0  0  0  0
    8.2558  -18.3246   24.5448 O   0  0  0  0  0  0  0  0  0  0  0  0
    9.6895  -18.1805   22.7733 N   0  0  0  0  0  0  0  0  0  0  0  0
   10.9796  -18.1523   23.3997 C   0  0  1  0  0  0  0  0  0  0  0  0
   12.1649  -18.4089   22.5206 C   0  0  0  0  0  0  0  0  0  0  0  0
   13.4803  -18.5466   23.1645 C   0  0  0  0  0  0  0  0  0  0  0  0
   14.6217  -18.7426   22.1742 C   0  0  0  0  0  0  0  0  0  0  0  0
   15.8218  -19.1543   23.0398 C   0  0  0  0  0  0  0  0  0  0  0  0
   17.0016  -19.3734   22.2228 N   0  0  0  0  0  0  0  0  0  0  0  0
   11.1161  -17.0335   24.3367 C   0  0  0  0  0  0  0  0  0  0  0  0
   11.3888  -15.8740   23.8707 O   0  0  0  0  0  0  0  0  0  0  0  0
    9.7247  -13.8634   28.5814 C   0  0  0  0  0  0  0  0  0  0  0  0
   10.1648  -13.6335   27.1685 C   0  0  2  0  0  0  0  0  0  0  0  0
    9.2225  -12.5678   26.5857 C   0  0  0  0  0  0  0  0  0  0  0  0
   10.1263  -14.8294   26.2970 C   0  0  0  0  0  0  0  0  0  0  0  0
   11.0305  -15.9603   26.6139 C   0  0  2  0  0  0  0  0  0  0  0  0
   10.9733  -17.1039   25.7455 N   0  0  0  0  0  0  0  0  0  0  0  0
   10.8601  -16.4627   28.0092 C   0  0  0  0  0  0  0  0  0  0  0  0
   11.5263  -15.9813   28.9746 O   0  0  0  0  0  0  0  0  0  0  0  0
    9.9704  -17.4779   28.3350 O   0  0  0  0  0  0  0  0  0  0  0  0
  2  1  1  1
  2 13  1  0
  2  3  1  0
  4  5  2  0
  4  3  1  0
  6  5  1  0
  7 12  2  0
  7  6  1  0
  8  7  1  0
  9 10  1  0
  9  8  2  0
 10 11  2  0
 11 12  1  0
 12  4  1  0
 13 14  2  0
 15 16  1  0
 15 13  1  0
 16 17  1  6
 18 17  1  0
 19 20  1  0
 19 18  1  0
 21 20  1  0
 22 16  1  0
 22 23  2  0
 25 24  1  1
 25 26  1  0
 25 27  1  0
 28 27  1  6
 28 29  1  0
 28 30  1  0
 29 22  1  0
 30 31  2  0
 30 32  1  0
M  END
$$$$
