WKL.pdb
     RDKit          3D

 32 33  0  0  1  0  0  0  0  0999 V2000
    6.0721  -18.1452   25.4459 N   0  0  0  0  0  0  0  0  0  0  0  0
    6.7402  -16.9686   24.9239 C   0  0  1  0  0  0  0  0  0  0  0  0
    7.3457  -16.2168   26.0614 C   0  0  0  0  0  0  0  0  0  0  0  0
    6.4413  -15.0951   26.4164 C   0  0  0  0  0  0  0  0  0  0  0  0
    5.1518  -15.1235   26.9005 C   0  0  0  0  0  0  0  0  0  0  0  0
    4.6991  -13.8638   27.0873 N   0  0  0  0  0  0  0  0  0  0  0  0
    5.6601  -12.9918   26.7379 C   0  0  0  0  0  0  0  0  0  0  0  0
    5.7428  -11.6368   26.7249 C   0  0  0  0  0  0  0  0  0  0  0  0
    6.8680  -10.9533   26.3108 C   0  0  0  0  0  0  0  0  0  0  0  0
    7.9506  -11.7267   25.8935 C   0  0  0  0  0  0  0  0  0  0  0  0
    7.8925  -13.0894   25.8974 C   0  0  0  0  0  0  0  0  0  0  0  0
    6.7581  -13.7381   26.3152 C   0  0  0  0  0  0  0  0  0  0  0  0
    7.7598  -17.3327   23.8849 C   0  0  0  0  0  0  0  0  0  0  0  0
    8.6846  -18.0809   24.2123 O   0  0  0  0  0  0  0  0  0  0  0  0
    7.6751  -16.8446   22.5793 N   0  0  0  0  0  0  0  0  0  0  0  0
    8.5408  -15.9213   21.9043 C   0  0  1  0  0  0  0  0  0  0  0  0
    7.9119  -14.6724   21.3673 C   0  0  0  0  0  0  0  0  0  0  0  0
    8.7224  -13.8211   20.4827 C   0  0  0  0  0  0  0  0  0  0  0  0
    8.2289  -13.8030   19.0411 C   0  0  0  0  0  0  0  0  0  0  0  0
    9.3243  -13.0580   18.2640 C   0  0  0  0  0  0  0  0  0  0  0  0
    8.9043  -12.7906   16.9003 N   0  0  0  0  0  0  0  0  0  0  0  0
    9.8126  -15.7376   22.6093 C   0  0  0  0  0  0  0  0  0  0  0  0
   10.8944  -15.7222   21.9270 O   0  0  0  0  0  0  0  0  0  0  0  0
    9.4964  -13.2705   26.9467 C   0  0  0  0  0  0  0  0  0  0  0  0
    9.9818  -14.6698   26.7253 C   0  0  2  0  0  0  0  0  0  0  0  0
   10.1605  -15.2953   28.1182 C   0  0  0  0  0  0  0  0  0  0  0  0
   11.2600  -14.7810   25.9872 C   0  0  0  0  0  0  0  0  0  0  0  0
   11.2492  -15.4317   24.6555 C   0  0  2  0  0  0  0  0  0  0  0  0
    9.9739  -15.5704   24.0079 N   0  0  0  0  0  0  0  0  0  0  0  0
   11.8819  -16.7838   24.6681 C   0  0  0  0  0  0  0  0  0  0  0  0
   13.0622  -16.9610   25.0961 O   0  0  0  0  0  0  0  0  0  0  0  0
   11.2249  -17.9209   24.2170 O   0  0  0  0  0  0  0  0  0  0  0  0
  2  1  1  1
  2 13  1  0
  2  3  1  0
  4  5  2  0
  4  3  1  0
  6  5  1  0
  7 12  2  0
  7  6  1  0
  8  7  1  0
  9 10  1  0
  9  8  2  0
 10 11  2  0
 11 12  1  0
 12  4  1  0
 13 14  2  0
 15 16  1  0
 15 13  1  0
 16 17  1  1
 18 17  1  0
 19 20  1  0
 19 18  1  0
 21 20  1  0
 22 16  1  0
 22 23  2  0
 25 24  1  1
 25 26  1  0
 25 27  1  0
 28 27  1  1
 28 29  1  0
 28 30  1  0
 29 22  1  0
 30 31  2  0
 30 32  1  0
M  END
$$$$
