WKL.pdb
     RDKit          3D

 32 33  0  0  1  0  0  0  0  0999 V2000
    6.0207  -18.3999   25.2099 N   0  0  0  0  0  0  0  0  0  0  0  0
    6.8300  -17.2388   24.8935 C   0  0  1  0  0  0  0  0  0  0  0  0
    7.0746  -16.4687   26.1476 C   0  0  0  0  0  0  0  0  0  0  0  0
    6.3384  -15.1833   26.0597 C   0  0  0  0  0  0  0  0  0  0  0  0
    5.0794  -14.8571   26.5141 C   0  0  0  0  0  0  0  0  0  0  0  0
    4.8007  -13.5675   26.2210 N   0  0  0  0  0  0  0  0  0  0  0  0
    5.8484  -13.0231   25.5791 C   0  0  0  0  0  0  0  0  0  0  0  0
    6.1032  -11.7916   25.0677 C   0  0  0  0  0  0  0  0  0  0  0  0
    7.2865  -11.4667   24.4361 C   0  0  0  0  0  0  0  0  0  0  0  0
    8.2409  -12.4786   24.3385 C   0  0  0  0  0  0  0  0  0  0  0  0
    8.0092  -13.7238   24.8444 C   0  0  0  0  0  0  0  0  0  0  0  0
    6.8213  -14.0140   25.4667 C   0  0  0  0  0  0  0  0  0  0  0  0
    8.1102  -17.6308   24.2161 C   0  0  0  0  0  0  0  0  0  0  0  0
    8.7504  -18.5773   24.6818 O   0  0  0  0  0  0  0  0  0  0  0  0
    8.5751  -16.9509   23.0885 N   0  0  0  0  0  0  0  0  0  0  0  0
    9.9087  -16.8799   22.5649 C   0  0  1  0  0  0  0  0  0  0  0  0
   10.0764  -16.2320   21.2249 C   0  0  0  0  0  0  0  0  0  0  0  0
   11.4123  -16.2630   20.6096 C   0  0  0  0  0  0  0  0  0  0  0  0
   11.7590  -17.6076   19.9823 C   0  0  0  0  0  0  0  0  0  0  0  0
   13.1372  -17.3935   19.3393 C   0  0  0  0  0  0  0  0  0  0  0  0
   13.6802  -18.6454   18.8438 N   0  0  0  0  0  0  0  0  0  0  0  0
   10.8843  -16.4864   23.5855 C   0  0  0  0  0  0  0  0  0  0  0  0
   11.4192  -15.3272   23.5068 O   0  0  0  0  0  0  0  0  0  0  0  0
    9.3786  -15.0761   28.7049 C   0  0  0  0  0  0  0  0  0  0  0  0
   10.6355  -15.5220   28.0238 C   0  0  2  0  0  0  0  0  0  0  0  0
   11.5938  -14.3201   28.0458 C   0  0  0  0  0  0  0  0  0  0  0  0
   10.4655  -15.9683   26.6228 C   0  0  0  0  0  0  0  0  0  0  0  0
   11.5541  -16.7571   25.9985 C   0  0  2  0  0  0  0  0  0  0  0  0
   11.3092  -17.2784   24.6820 N   0  0  0  0  0  0  0  0  0  0  0  0
   11.9965  -17.9031   26.8466 C   0  0  0  0  0  0  0  0  0  0  0  0
   13.1574  -17.9441   27.3548 O   0  0  0  0  0  0  0  0  0  0  0  0
   11.1736  -18.9851   27.1299 O   0  0  0  0  0  0  0  0  0  0  0  0
  2  1  1  1
  2 13  1  0
  2  3  1  0
  4  5  2  0
  4  3  1  0
  6  5  1  0
  7 12  2  0
  7  6  1  0
  8  7  1  0
  9 10  1  0
  9  8  2  0
 10 11  2  0
 11 12  1  0
 12  4  1  0
 13 14  2  0
 15 16  1  0
 15 13  1  0
 16 17  1  6
 18 17  1  0
 19 20  1  0
 19 18  1  0
 21 20  1  0
 22 16  1  0
 22 23  2  0
 25 24  1  6
 25 26  1  0
 25 27  1  0
 28 27  1  1
 28 29  1  0
 28 30  1  0
 29 22  1  0
 30 31  2  0
 30 32  1  0
M  END
$$$$
