PGW.pdb
     RDKit          3D

 26 28  0  0  1  0  0  0  0  0999 V2000
   24.1696  -23.3418  -17.5356 N   0  0  0  0  0  0  0  0  0  0  0  0
   23.3971  -24.4113  -16.9243 C   0  0  0  0  0  0  0  0  0  0  0  0
   21.9519  -24.1197  -17.1655 C   0  0  0  0  0  0  0  0  0  0  0  0
   21.9810  -22.6932  -17.7142 C   0  0  0  0  0  0  0  0  0  0  0  0
   23.2738  -22.7090  -18.4862 C   0  0  1  0  0  0  0  0  0  0  0  0
   23.7314  -21.3488  -18.8632 C   0  0  0  0  0  0  0  0  0  0  0  0
   22.9402  -20.5442  -19.4576 O   0  0  0  0  0  0  0  0  0  0  0  0
   25.0308  -20.8308  -18.6138 N   0  0  0  0  0  0  0  0  0  0  0  0
   25.2498  -19.4421  -18.3289 C   0  0  0  0  0  0  0  0  0  0  0  0
   25.3720  -19.1686  -16.8757 C   0  0  0  0  0  0  0  0  0  0  0  0
   25.5455  -17.9794  -16.5127 O   0  0  0  0  0  0  0  0  0  0  0  0
   25.3044  -20.1692  -15.8746 N   0  0  0  0  0  0  0  0  0  0  0  0
   25.6421  -19.9231  -14.4664 C   0  0  1  0  0  0  0  0  0  0  0  0
   25.1169  -20.9997  -13.5930 C   0  0  0  0  0  0  0  0  0  0  0  0
   25.3845  -20.8877  -12.1495 C   0  0  0  0  0  0  0  0  0  0  0  0
   24.4089  -20.7328  -11.1498 C   0  0  0  0  0  0  0  0  0  0  0  0
   25.0029  -20.6297   -9.9530 N   0  0  0  0  0  0  0  0  0  0  0  0
   26.3304  -20.7147  -10.1555 C   0  0  0  0  0  0  0  0  0  0  0  0
   27.3787  -20.6799   -9.2592 C   0  0  0  0  0  0  0  0  0  0  0  0
   28.6714  -20.8039   -9.6991 C   0  0  0  0  0  0  0  0  0  0  0  0
   28.9442  -20.9656  -11.0483 C   0  0  0  0  0  0  0  0  0  0  0  0
   27.9156  -21.0021  -11.9572 C   0  0  0  0  0  0  0  0  0  0  0  0
   26.6178  -20.8752  -11.4990 C   0  0  0  0  0  0  0  0  0  0  0  0
   27.0432  -19.5490  -14.2966 C   0  0  0  0  0  0  0  0  0  0  0  0
   28.0393  -20.3365  -14.8353 O   0  0  0  0  0  0  0  0  0  0  0  0
   27.3593  -18.5214  -13.6679 O   0  0  0  0  0  0  0  0  0  0  0  0
  2  1  1  0
  3  4  1  0
  3  2  1  0
  4  5  1  0
  5  6  1  1
  5  1  1  0
  6  8  1  0
  7  6  2  0
  8  9  1  0
  9 10  1  0
 10 11  2  0
 10 12  1  0
 12 13  1  0
 13 24  1  0
 13 14  1  1
 15 14  1  0
 15 23  1  0
 16 17  1  0
 16 15  2  0
 17 18  1  0
 18 19  2  0
 18 23  1  0
 19 20  1  0
 20 21  2  0
 22 21  1  0
 23 22  2  0
 24 26  2  0
 24 25  1  0
M  END
$$$$
