PGW.pdb
     RDKit          3D

 26 28  0  0  1  0  0  0  0  0999 V2000
   27.8331  -21.8341  -17.0728 N   0  0  0  0  0  0  0  0  0  0  0  0
   27.4035  -22.7540  -18.1138 C   0  0  0  0  0  0  0  0  0  0  0  0
   25.9122  -22.8276  -18.0644 C   0  0  0  0  0  0  0  0  0  0  0  0
   25.5796  -22.0966  -16.7638 C   0  0  0  0  0  0  0  0  0  0  0  0
   26.6596  -21.0476  -16.7399 C   0  0  1  0  0  0  0  0  0  0  0  0
   26.7873  -20.3882  -15.4169 C   0  0  0  0  0  0  0  0  0  0  0  0
   25.9216  -19.5320  -15.0371 O   0  0  0  0  0  0  0  0  0  0  0  0
   27.8333  -20.6305  -14.4862 N   0  0  0  0  0  0  0  0  0  0  0  0
   27.8365  -20.0370  -13.1802 C   0  0  0  0  0  0  0  0  0  0  0  0
   27.0007  -20.7859  -12.2096 C   0  0  0  0  0  0  0  0  0  0  0  0
   26.3837  -21.7986  -12.6218 O   0  0  0  0  0  0  0  0  0  0  0  0
   26.8579  -20.4260  -10.8466 N   0  0  0  0  0  0  0  0  0  0  0  0
   26.0722  -21.2105   -9.8849 C   0  0  1  0  0  0  0  0  0  0  0  0
   26.8633  -21.5165   -8.6691 C   0  0  0  0  0  0  0  0  0  0  0  0
   27.2490  -20.3828   -7.8125 C   0  0  0  0  0  0  0  0  0  0  0  0
   26.8853  -19.0417   -8.0236 C   0  0  0  0  0  0  0  0  0  0  0  0
   27.4352  -18.2713   -7.0750 N   0  0  0  0  0  0  0  0  0  0  0  0
   28.1401  -19.0786   -6.2615 C   0  0  0  0  0  0  0  0  0  0  0  0
   28.8780  -18.7910   -5.1317 C   0  0  0  0  0  0  0  0  0  0  0  0
   29.5085  -19.7941   -4.4416 C   0  0  0  0  0  0  0  0  0  0  0  0
   29.4145  -21.1097   -4.8677 C   0  0  0  0  0  0  0  0  0  0  0  0
   28.6858  -21.4175   -5.9900 C   0  0  0  0  0  0  0  0  0  0  0  0
   28.0562  -20.3957   -6.6756 C   0  0  0  0  0  0  0  0  0  0  0  0
   24.7349  -20.6575   -9.6901 C   0  0  0  0  0  0  0  0  0  0  0  0
   23.7797  -21.3820   -9.0080 O   0  0  0  0  0  0  0  0  0  0  0  0
   24.4373  -19.5321  -10.1330 O   0  0  0  0  0  0  0  0  0  0  0  0
  2  1  1  0
  3  4  1  0
  3  2  1  0
  4  5  1  0
  5  6  1  1
  5  1  1  0
  6  8  1  0
  7  6  2  0
  8  9  1  0
  9 10  1  0
 10 11  2  0
 10 12  1  0
 12 13  1  0
 13 24  1  0
 13 14  1  1
 15 14  1  0
 15 23  1  0
 16 17  1  0
 16 15  2  0
 17 18  1  0
 18 19  2  0
 18 23  1  0
 19 20  1  0
 20 21  2  0
 22 21  1  0
 23 22  2  0
 24 26  2  0
 24 25  1  0
M  END
$$$$
