PGW.pdb
     RDKit          3D

 26 28  0  0  1  0  0  0  0  0999 V2000
   24.3927  -21.8274  -14.9560 N   0  0  0  0  0  0  0  0  0  0  0  0
   25.0336  -22.8498  -15.7673 C   0  0  0  0  0  0  0  0  0  0  0  0
   24.8909  -24.1518  -15.0490 C   0  0  0  0  0  0  0  0  0  0  0  0
   24.3666  -23.7266  -13.6775 C   0  0  0  0  0  0  0  0  0  0  0  0
   23.5129  -22.5436  -14.0507 C   0  0  1  0  0  0  0  0  0  0  0  0
   23.1313  -21.7206  -12.8766 C   0  0  0  0  0  0  0  0  0  0  0  0
   22.3548  -22.1941  -11.9825 O   0  0  0  0  0  0  0  0  0  0  0  0
   23.5689  -20.3894  -12.6410 N   0  0  0  0  0  0  0  0  0  0  0  0
   23.4502  -19.7709  -11.3522 C   0  0  0  0  0  0  0  0  0  0  0  0
   24.6373  -20.0057  -10.4936 C   0  0  0  0  0  0  0  0  0  0  0  0
   24.7322  -19.3495   -9.4275 O   0  0  0  0  0  0  0  0  0  0  0  0
   25.6689  -20.9257  -10.8054 N   0  0  0  0  0  0  0  0  0  0  0  0
   27.0838  -20.6851  -10.4928 C   0  0  1  0  0  0  0  0  0  0  0  0
   27.5159  -21.4787   -9.3176 C   0  0  0  0  0  0  0  0  0  0  0  0
   27.0435  -21.0368   -7.9950 C   0  0  0  0  0  0  0  0  0  0  0  0
   25.7478  -21.2307   -7.4862 C   0  0  0  0  0  0  0  0  0  0  0  0
   25.6531  -20.6740   -6.2709 N   0  0  0  0  0  0  0  0  0  0  0  0
   26.8499  -20.1295   -5.9850 C   0  0  0  0  0  0  0  0  0  0  0  0
   27.2833  -19.4546   -4.8624 C   0  0  0  0  0  0  0  0  0  0  0  0
   28.5731  -18.9960   -4.7840 C   0  0  0  0  0  0  0  0  0  0  0  0
   29.4593  -19.2028   -5.8293 C   0  0  0  0  0  0  0  0  0  0  0  0
   29.0482  -19.8715   -6.9559 C   0  0  0  0  0  0  0  0  0  0  0  0
   27.7450  -20.3274   -7.0208 C   0  0  0  0  0  0  0  0  0  0  0  0
   27.9255  -20.7437  -11.6846 C   0  0  0  0  0  0  0  0  0  0  0  0
   29.2985  -20.6902  -11.5646 O   0  0  0  0  0  0  0  0  0  0  0  0
   27.4216  -20.8421  -12.8194 O   0  0  0  0  0  0  0  0  0  0  0  0
  2  1  1  0
  3  4  1  0
  3  2  1  0
  4  5  1  0
  5  6  1  1
  5  1  1  0
  6  8  1  0
  7  6  2  0
  8  9  1  0
  9 10  1  0
 10 11  2  0
 10 12  1  0
 12 13  1  0
 13 24  1  0
 13 14  1  1
 15 14  1  0
 15 23  1  0
 16 17  1  0
 16 15  2  0
 17 18  1  0
 18 19  2  0
 18 23  1  0
 19 20  1  0
 20 21  2  0
 22 21  1  0
 23 22  2  0
 24 26  2  0
 24 25  1  0
M  END
$$$$
