PGW.pdb
     RDKit          3D

 26 28  0  0  1  0  0  0  0  0999 V2000
   34.9596  -27.6756  -17.6229 N   0  0  0  0  0  0  0  0  0  0  0  0
   35.3212  -28.7098  -18.5788 C   0  0  0  0  0  0  0  0  0  0  0  0
   34.6607  -28.3764  -19.8767 C   0  0  0  0  0  0  0  0  0  0  0  0
   33.7086  -27.2443  -19.4915 C   0  0  0  0  0  0  0  0  0  0  0  0
   34.5068  -26.5502  -18.4198 C   0  0  1  0  0  0  0  0  0  0  0  0
   33.6919  -25.5973  -17.6264 C   0  0  0  0  0  0  0  0  0  0  0  0
   32.9577  -24.7341  -18.2116 O   0  0  0  0  0  0  0  0  0  0  0  0
   33.6489  -25.5512  -16.2068 N   0  0  0  0  0  0  0  0  0  0  0  0
   32.5134  -26.0238  -15.4686 C   0  0  0  0  0  0  0  0  0  0  0  0
   31.3167  -25.1652  -15.6481 C   0  0  0  0  0  0  0  0  0  0  0  0
   31.0256  -24.3610  -14.7291 O   0  0  0  0  0  0  0  0  0  0  0  0
   30.4841  -25.1993  -16.7941 N   0  0  0  0  0  0  0  0  0  0  0  0
   29.3318  -24.3072  -16.9789 C   0  0  1  0  0  0  0  0  0  0  0  0
   29.7177  -22.8878  -16.7950 C   0  0  0  0  0  0  0  0  0  0  0  0
   28.7021  -21.8675  -17.1037 C   0  0  0  0  0  0  0  0  0  0  0  0
   27.5928  -21.5530  -16.3001 C   0  0  0  0  0  0  0  0  0  0  0  0
   26.8587  -20.6040  -16.8970 N   0  0  0  0  0  0  0  0  0  0  0  0
   27.4647  -20.3001  -18.0593 C   0  0  0  0  0  0  0  0  0  0  0  0
   27.1273  -19.3842  -19.0343 C   0  0  0  0  0  0  0  0  0  0  0  0
   27.9162  -19.2320  -20.1454 C   0  0  0  0  0  0  0  0  0  0  0  0
   29.0623  -19.9947  -20.3057 C   0  0  0  0  0  0  0  0  0  0  0  0
   29.4159  -20.9125  -19.3477 C   0  0  0  0  0  0  0  0  0  0  0  0
   28.6105  -21.0552  -18.2335 C   0  0  0  0  0  0  0  0  0  0  0  0
   28.5670  -24.6417  -18.1769 C   0  0  0  0  0  0  0  0  0  0  0  0
   29.1976  -25.2122  -19.2629 O   0  0  0  0  0  0  0  0  0  0  0  0
   27.3430  -24.4193  -18.2373 O   0  0  0  0  0  0  0  0  0  0  0  0
  2  1  1  0
  3  4  1  0
  3  2  1  0
  4  5  1  0
  5  6  1  1
  5  1  1  0
  6  8  1  0
  7  6  2  0
  8  9  1  0
  9 10  1  0
 10 11  2  0
 10 12  1  0
 12 13  1  0
 13 24  1  0
 13 14  1  6
 15 14  1  0
 15 23  1  0
 16 17  1  0
 16 15  2  0
 17 18  1  0
 18 19  2  0
 18 23  1  0
 19 20  1  0
 20 21  2  0
 22 21  1  0
 23 22  2  0
 24 26  2  0
 24 25  1  0
M  END
$$$$
