PGW.pdb
     RDKit          3D

 26 28  0  0  1  0  0  0  0  0999 V2000
   28.3918  -18.3453  -15.4792 N   0  0  0  0  0  0  0  0  0  0  0  0
   29.7966  -18.4471  -15.1180 C   0  0  0  0  0  0  0  0  0  0  0  0
   30.0771  -19.8780  -14.7929 C   0  0  0  0  0  0  0  0  0  0  0  0
   28.6793  -20.4949  -14.7449 C   0  0  0  0  0  0  0  0  0  0  0  0
   27.9762  -19.6960  -15.8102 C   0  0  1  0  0  0  0  0  0  0  0  0
   26.5016  -19.8529  -15.7630 C   0  0  0  0  0  0  0  0  0  0  0  0
   25.9516  -20.9138  -16.2088 O   0  0  0  0  0  0  0  0  0  0  0  0
   25.5981  -18.8869  -15.2437 N   0  0  0  0  0  0  0  0  0  0  0  0
   24.1829  -19.1179  -15.2060 C   0  0  0  0  0  0  0  0  0  0  0  0
   23.7820  -20.0350  -14.1106 C   0  0  0  0  0  0  0  0  0  0  0  0
   22.5687  -20.3429  -14.0147 O   0  0  0  0  0  0  0  0  0  0  0  0
   24.6866  -20.5830  -13.1676 N   0  0  0  0  0  0  0  0  0  0  0  0
   24.2724  -21.4855  -12.0852 C   0  0  1  0  0  0  0  0  0  0  0  0
   25.4455  -22.0100  -11.3460 C   0  0  0  0  0  0  0  0  0  0  0  0
   25.9912  -21.1721  -10.2653 C   0  0  0  0  0  0  0  0  0  0  0  0
   25.2388  -20.3307   -9.4280 C   0  0  0  0  0  0  0  0  0  0  0  0
   26.0562  -19.6910   -8.5803 N   0  0  0  0  0  0  0  0  0  0  0  0
   27.3104  -20.0979   -8.8488 C   0  0  0  0  0  0  0  0  0  0  0  0
   28.5099  -19.7564   -8.2588 C   0  0  0  0  0  0  0  0  0  0  0  0
   29.6818  -20.3195   -8.6943 C   0  0  0  0  0  0  0  0  0  0  0  0
   29.6792  -21.2385   -9.7319 C   0  0  0  0  0  0  0  0  0  0  0  0
   28.4964  -21.5917  -10.3333 C   0  0  0  0  0  0  0  0  0  0  0  0
   27.3233  -21.0152   -9.8839 C   0  0  0  0  0  0  0  0  0  0  0  0
   23.1797  -20.9266  -11.2942 C   0  0  0  0  0  0  0  0  0  0  0  0
   22.3227  -21.7635  -10.6105 O   0  0  0  0  0  0  0  0  0  0  0  0
   23.0050  -19.6954  -11.2246 O   0  0  0  0  0  0  0  0  0  0  0  0
  2  1  1  0
  3  4  1  0
  3  2  1  0
  4  5  1  0
  5  6  1  1
  5  1  1  0
  6  8  1  0
  7  6  2  0
  8  9  1  0
  9 10  1  0
 10 11  2  0
 10 12  1  0
 12 13  1  0
 13 24  1  0
 13 14  1  1
 15 14  1  0
 15 23  1  0
 16 17  1  0
 16 15  2  0
 17 18  1  0
 18 19  2  0
 18 23  1  0
 19 20  1  0
 20 21  2  0
 22 21  1  0
 23 22  2  0
 24 26  2  0
 24 25  1  0
M  END
$$$$
