PGW.pdb
     RDKit          3D

 26 28  0  0  1  0  0  0  0  0999 V2000
   24.6276  -20.0172  -16.0457 N   0  0  0  0  0  0  0  0  0  0  0  0
   23.2034  -19.7246  -16.0341 C   0  0  0  0  0  0  0  0  0  0  0  0
   23.0474  -18.2432  -15.9204 C   0  0  0  0  0  0  0  0  0  0  0  0
   24.4684  -17.7759  -15.6057 C   0  0  0  0  0  0  0  0  0  0  0  0
   25.2787  -18.7685  -16.3967 C   0  0  1  0  0  0  0  0  0  0  0  0
   26.7142  -18.7634  -16.0213 C   0  0  0  0  0  0  0  0  0  0  0  0
   27.3980  -17.6898  -16.1026 O   0  0  0  0  0  0  0  0  0  0  0  0
   27.4364  -19.8957  -15.5573 N   0  0  0  0  0  0  0  0  0  0  0  0
   28.3988  -19.7972  -14.4981 C   0  0  0  0  0  0  0  0  0  0  0  0
   27.9862  -20.5366  -13.2797 C   0  0  0  0  0  0  0  0  0  0  0  0
   28.7857  -21.3790  -12.8030 O   0  0  0  0  0  0  0  0  0  0  0  0
   26.7446  -20.3484  -12.6234 N   0  0  0  0  0  0  0  0  0  0  0  0
   26.2260  -21.2685  -11.6025 C   0  0  1  0  0  0  0  0  0  0  0  0
   27.2333  -21.5177  -10.5438 C   0  0  0  0  0  0  0  0  0  0  0  0
   27.0059  -20.8844   -9.2342 C   0  0  0  0  0  0  0  0  0  0  0  0
   25.7989  -20.3033   -8.8090 C   0  0  0  0  0  0  0  0  0  0  0  0
   25.9537  -19.7916   -7.5802 N   0  0  0  0  0  0  0  0  0  0  0  0
   27.2239  -20.0281   -7.2045 C   0  0  0  0  0  0  0  0  0  0  0  0
   27.8849  -19.7210   -6.0330 C   0  0  0  0  0  0  0  0  0  0  0  0
   29.1968  -20.0812   -5.8623 C   0  0  0  0  0  0  0  0  0  0  0  0
   29.8777  -20.7578   -6.8622 C   0  0  0  0  0  0  0  0  0  0  0  0
   29.2388  -21.0724   -8.0361 C   0  0  0  0  0  0  0  0  0  0  0  0
   27.9165  -20.7023   -8.1940 C   0  0  0  0  0  0  0  0  0  0  0  0
   24.8793  -20.9047  -11.1710 C   0  0  0  0  0  0  0  0  0  0  0  0
   24.1176  -21.8023  -10.4522 O   0  0  0  0  0  0  0  0  0  0  0  0
   24.4003  -19.7876  -11.4427 O   0  0  0  0  0  0  0  0  0  0  0  0
  2  1  1  0
  3  4  1  0
  3  2  1  0
  4  5  1  0
  5  6  1  1
  5  1  1  0
  6  8  1  0
  7  6  2  0
  8  9  1  0
  9 10  1  0
 10 11  2  0
 10 12  1  0
 12 13  1  0
 13 24  1  0
 13 14  1  1
 15 14  1  0
 15 23  1  0
 16 17  1  0
 16 15  2  0
 17 18  1  0
 18 19  2  0
 18 23  1  0
 19 20  1  0
 20 21  2  0
 22 21  1  0
 23 22  2  0
 24 26  2  0
 24 25  1  0
M  END
$$$$
