PGW.pdb
     RDKit          3D

 26 28  0  0  1  0  0  0  0  0999 V2000
   25.6788  -18.2312  -14.4497 N   0  0  0  0  0  0  0  0  0  0  0  0
   25.3469  -16.8609  -14.8052 C   0  0  0  0  0  0  0  0  0  0  0  0
   26.5874  -16.2182  -15.3341 C   0  0  0  0  0  0  0  0  0  0  0  0
   27.6704  -17.2428  -14.9961 C   0  0  0  0  0  0  0  0  0  0  0  0
   26.9082  -18.5309  -15.1605 C   0  0  1  0  0  0  0  0  0  0  0  0
   27.6198  -19.6950  -14.5773 C   0  0  0  0  0  0  0  0  0  0  0  0
   28.4898  -20.3279  -15.2622 O   0  0  0  0  0  0  0  0  0  0  0  0
   27.4148  -20.1977  -13.2642 N   0  0  0  0  0  0  0  0  0  0  0  0
   28.2021  -21.2735  -12.7345 C   0  0  0  0  0  0  0  0  0  0  0  0
   27.9407  -21.5186  -11.2947 C   0  0  0  0  0  0  0  0  0  0  0  0
   28.5034  -22.5015  -10.7529 O   0  0  0  0  0  0  0  0  0  0  0  0
   27.0947  -20.7099  -10.4960 N   0  0  0  0  0  0  0  0  0  0  0  0
   26.0490  -21.2570   -9.6215 C   0  0  1  0  0  0  0  0  0  0  0  0
   26.5240  -21.3670   -8.2216 C   0  0  0  0  0  0  0  0  0  0  0  0
   27.0354  -20.1419   -7.5848 C   0  0  0  0  0  0  0  0  0  0  0  0
   26.8830  -18.8382   -8.0872 C   0  0  0  0  0  0  0  0  0  0  0  0
   27.4990  -17.9679   -7.2754 N   0  0  0  0  0  0  0  0  0  0  0  0
   28.0413  -18.6748   -6.2671 C   0  0  0  0  0  0  0  0  0  0  0  0
   28.7640  -18.2596   -5.1676 C   0  0  0  0  0  0  0  0  0  0  0  0
   29.2093  -19.1719   -4.2459 C   0  0  0  0  0  0  0  0  0  0  0  0
   28.9407  -20.5224   -4.4045 C   0  0  0  0  0  0  0  0  0  0  0  0
   28.2237  -20.9568   -5.4918 C   0  0  0  0  0  0  0  0  0  0  0  0
   27.7820  -20.0256   -6.4129 C   0  0  0  0  0  0  0  0  0  0  0  0
   24.7584  -20.6097   -9.8402 C   0  0  0  0  0  0  0  0  0  0  0  0
   24.6420  -19.5955  -10.7677 O   0  0  0  0  0  0  0  0  0  0  0  0
   23.7502  -20.9599   -9.1982 O   0  0  0  0  0  0  0  0  0  0  0  0
  2  1  1  0
  3  4  1  0
  3  2  1  0
  4  5  1  0
  5  6  1  1
  5  1  1  0
  6  8  1  0
  7  6  2  0
  8  9  1  0
  9 10  1  0
 10 11  2  0
 10 12  1  0
 12 13  1  0
 13 24  1  0
 13 14  1  1
 15 14  1  0
 15 23  1  0
 16 17  1  0
 16 15  2  0
 17 18  1  0
 18 19  2  0
 18 23  1  0
 19 20  1  0
 20 21  2  0
 22 21  1  0
 23 22  2  0
 24 26  2  0
 24 25  1  0
M  END
$$$$
