PGW.pdb
     RDKit          3D

 26 28  0  0  1  0  0  0  0  0999 V2000
   29.7076  -21.2596  -17.6217 N   0  0  0  0  0  0  0  0  0  0  0  0
   29.8094  -21.9475  -18.8987 C   0  0  0  0  0  0  0  0  0  0  0  0
   28.8559  -21.2908  -19.8429 C   0  0  0  0  0  0  0  0  0  0  0  0
   28.0433  -20.3786  -18.9241 C   0  0  0  0  0  0  0  0  0  0  0  0
   29.0894  -19.9801  -17.9170 C   0  0  1  0  0  0  0  0  0  0  0  0
   28.5071  -19.3497  -16.7065 C   0  0  0  0  0  0  0  0  0  0  0  0
   27.7515  -18.3277  -16.8121 O   0  0  0  0  0  0  0  0  0  0  0  0
   28.7213  -19.7969  -15.3749 N   0  0  0  0  0  0  0  0  0  0  0  0
   27.9205  -19.3276  -14.2812 C   0  0  0  0  0  0  0  0  0  0  0  0
   26.9778  -20.3576  -13.7793 C   0  0  0  0  0  0  0  0  0  0  0  0
   26.8457  -21.4114  -14.4488 O   0  0  0  0  0  0  0  0  0  0  0  0
   26.2188  -20.2223  -12.5905 N   0  0  0  0  0  0  0  0  0  0  0  0
   25.3834  -21.2988  -12.0418 C   0  0  1  0  0  0  0  0  0  0  0  0
   26.0173  -21.9163  -10.8526 C   0  0  0  0  0  0  0  0  0  0  0  0
   26.2660  -21.0449   -9.6921 C   0  0  0  0  0  0  0  0  0  0  0  0
   25.3241  -20.1839   -9.1033 C   0  0  0  0  0  0  0  0  0  0  0  0
   25.8951  -19.5159   -8.0917 N   0  0  0  0  0  0  0  0  0  0  0  0
   27.1750  -19.9235   -8.0138 C   0  0  0  0  0  0  0  0  0  0  0  0
   28.1813  -19.5588   -7.1432 C   0  0  0  0  0  0  0  0  0  0  0  0
   29.4248  -20.1278   -7.2434 C   0  0  0  0  0  0  0  0  0  0  0  0
   29.6893  -21.0761   -8.2190 C   0  0  0  0  0  0  0  0  0  0  0  0
   28.7022  -21.4527   -9.0960 C   0  0  0  0  0  0  0  0  0  0  0  0
   27.4540  -20.8700   -8.9831 C   0  0  0  0  0  0  0  0  0  0  0  0
   23.9843  -20.8985  -11.9209 C   0  0  0  0  0  0  0  0  0  0  0  0
   23.6372  -19.5659  -11.9992 O   0  0  0  0  0  0  0  0  0  0  0  0
   23.0891  -21.7467  -11.7466 O   0  0  0  0  0  0  0  0  0  0  0  0
  2  1  1  0
  3  4  1  0
  3  2  1  0
  4  5  1  0
  5  6  1  1
  5  1  1  0
  6  8  1  0
  7  6  2  0
  8  9  1  0
  9 10  1  0
 10 11  2  0
 10 12  1  0
 12 13  1  0
 13 24  1  0
 13 14  1  1
 15 14  1  0
 15 23  1  0
 16 17  1  0
 16 15  2  0
 17 18  1  0
 18 19  2  0
 18 23  1  0
 19 20  1  0
 20 21  2  0
 22 21  1  0
 23 22  2  0
 24 26  2  0
 24 25  1  0
M  END
$$$$
