PGW.pdb
     RDKit          3D

 26 28  0  0  1  0  0  0  0  0999 V2000
   25.9431  -18.3268  -14.3914 N   0  0  0  0  0  0  0  0  0  0  0  0
   25.8272  -16.9157  -14.7227 C   0  0  0  0  0  0  0  0  0  0  0  0
   27.1812  -16.4350  -15.1318 C   0  0  0  0  0  0  0  0  0  0  0  0
   28.0866  -17.6054  -14.7483 C   0  0  0  0  0  0  0  0  0  0  0  0
   27.1748  -18.7734  -15.0160 C   0  0  1  0  0  0  0  0  0  0  0  0
   27.6749  -20.0374  -14.4215 C   0  0  0  0  0  0  0  0  0  0  0  0
   28.7965  -20.5223  -14.7871 O   0  0  0  0  0  0  0  0  0  0  0  0
   26.9904  -20.7979  -13.4355 N   0  0  0  0  0  0  0  0  0  0  0  0
   27.6767  -21.7288  -12.5868 C   0  0  0  0  0  0  0  0  0  0  0  0
   27.3304  -21.5592  -11.1540 C   0  0  0  0  0  0  0  0  0  0  0  0
   27.8172  -22.3720  -10.3303 O   0  0  0  0  0  0  0  0  0  0  0  0
   26.4839  -20.5354  -10.6612 N   0  0  0  0  0  0  0  0  0  0  0  0
   25.5865  -20.7163   -9.5124 C   0  0  1  0  0  0  0  0  0  0  0  0
   25.9890  -19.8532   -8.3764 C   0  0  0  0  0  0  0  0  0  0  0  0
   27.3340  -20.0618   -7.8147 C   0  0  0  0  0  0  0  0  0  0  0  0
   28.4449  -20.5529   -8.5217 C   0  0  0  0  0  0  0  0  0  0  0  0
   29.4970  -20.6485   -7.6974 N   0  0  0  0  0  0  0  0  0  0  0  0
   29.0941  -20.2325   -6.4828 C   0  0  0  0  0  0  0  0  0  0  0  0
   29.7891  -20.1217   -5.2962 C   0  0  0  0  0  0  0  0  0  0  0  0
   29.1666  -19.6494   -4.1696 C   0  0  0  0  0  0  0  0  0  0  0  0
   27.8320  -19.2769   -4.2055 C   0  0  0  0  0  0  0  0  0  0  0  0
   27.1217  -19.3799   -5.3761 C   0  0  0  0  0  0  0  0  0  0  0  0
   27.7626  -19.8583   -6.5034 C   0  0  0  0  0  0  0  0  0  0  0  0
   24.1807  -20.6896   -9.9063 C   0  0  0  0  0  0  0  0  0  0  0  0
   23.2010  -21.0258   -8.9954 O   0  0  0  0  0  0  0  0  0  0  0  0
   23.8460  -20.3656  -11.0614 O   0  0  0  0  0  0  0  0  0  0  0  0
  2  1  1  0
  3  4  1  0
  3  2  1  0
  4  5  1  0
  5  6  1  1
  5  1  1  0
  6  8  1  0
  7  6  2  0
  8  9  1  0
  9 10  1  0
 10 11  2  0
 10 12  1  0
 12 13  1  0
 13 24  1  0
 13 14  1  1
 15 14  1  0
 15 23  1  0
 16 17  1  0
 16 15  2  0
 17 18  1  0
 18 19  2  0
 18 23  1  0
 19 20  1  0
 20 21  2  0
 22 21  1  0
 23 22  2  0
 24 26  2  0
 24 25  1  0
M  END
$$$$
