PGW.pdb
     RDKit          3D

 26 28  0  0  1  0  0  0  0  0999 V2000
   26.4175  -17.7543  -14.7090 N   0  0  0  0  0  0  0  0  0  0  0  0
   27.3888  -16.6729  -14.6760 C   0  0  0  0  0  0  0  0  0  0  0  0
   28.7343  -17.2658  -14.9405 C   0  0  0  0  0  0  0  0  0  0  0  0
   28.4651  -18.7682  -14.8564 C   0  0  0  0  0  0  0  0  0  0  0  0
   27.0691  -18.8414  -15.4162 C   0  0  1  0  0  0  0  0  0  0  0  0
   26.4158  -20.1476  -15.1546 C   0  0  0  0  0  0  0  0  0  0  0  0
   25.1479  -20.2613  -15.2323 O   0  0  0  0  0  0  0  0  0  0  0  0
   27.1008  -21.3434  -14.8080 N   0  0  0  0  0  0  0  0  0  0  0  0
   26.4027  -22.5748  -14.5752 C   0  0  0  0  0  0  0  0  0  0  0  0
   25.8490  -22.6676  -13.2018 C   0  0  0  0  0  0  0  0  0  0  0  0
   25.1933  -23.6945  -12.8993 O   0  0  0  0  0  0  0  0  0  0  0  0
   26.0164  -21.6668  -12.2127 N   0  0  0  0  0  0  0  0  0  0  0  0
   25.4218  -21.7523  -10.8723 C   0  0  1  0  0  0  0  0  0  0  0  0
   26.4673  -21.7610   -9.8214 C   0  0  0  0  0  0  0  0  0  0  0  0
   26.6977  -20.5046   -9.0891 C   0  0  0  0  0  0  0  0  0  0  0  0
   26.2596  -19.2326   -9.4958 C   0  0  0  0  0  0  0  0  0  0  0  0
   26.6708  -18.3113   -8.6139 N   0  0  0  0  0  0  0  0  0  0  0  0
   27.3591  -18.9548   -7.6533 C   0  0  0  0  0  0  0  0  0  0  0  0
   27.9759  -18.4743   -6.5166 C   0  0  0  0  0  0  0  0  0  0  0  0
   28.6145  -19.3324   -5.6588 C   0  0  0  0  0  0  0  0  0  0  0  0
   28.6502  -20.6931   -5.9203 C   0  0  0  0  0  0  0  0  0  0  0  0
   28.0433  -21.1921   -7.0463 C   0  0  0  0  0  0  0  0  0  0  0  0
   27.4040  -20.3148   -7.9019 C   0  0  0  0  0  0  0  0  0  0  0  0
   24.3134  -20.8167  -10.7043 C   0  0  0  0  0  0  0  0  0  0  0  0
   23.5068  -20.8936   -9.5880 O   0  0  0  0  0  0  0  0  0  0  0  0
   24.0801  -19.9412  -11.5589 O   0  0  0  0  0  0  0  0  0  0  0  0
  2  1  1  0
  3  4  1  0
  3  2  1  0
  4  5  1  0
  5  6  1  1
  5  1  1  0
  6  8  1  0
  7  6  2  0
  8  9  1  0
  9 10  1  0
 10 11  2  0
 10 12  1  0
 12 13  1  0
 13 24  1  0
 13 14  1  1
 15 14  1  0
 15 23  1  0
 16 17  1  0
 16 15  2  0
 17 18  1  0
 18 19  2  0
 18 23  1  0
 19 20  1  0
 20 21  2  0
 22 21  1  0
 23 22  2  0
 24 26  2  0
 24 25  1  0
M  END
$$$$
