CPD.pdb
     RDKit          3D

 22 22  0  0  1  0  0  0  0  0999 V2000
    5.6415  -17.0457   23.3540 N   0  0  0  0  0  0  0  0  0  0  0  0
    6.4352  -15.7786   23.3477 C   0  0  1  0  0  0  0  0  0  0  0  0
    7.0816  -15.7977   24.7416 C   0  0  0  0  0  0  0  0  0  0  0  0
    8.0251  -14.3242   25.1204 S   0  0  0  0  0  0  0  0  0  0  0  0
    7.3655  -15.9038   22.2467 C   0  0  0  0  0  0  0  0  0  0  0  0
    8.0747  -16.9957   22.2129 O   0  0  0  0  0  0  0  0  0  0  0  0
    7.6496  -15.0162   21.1666 N   0  0  0  0  0  0  0  0  0  0  0  0
    6.7735  -13.9021   20.8994 C   0  0  0  0  0  0  0  0  0  0  0  0
    7.5383  -12.9768   20.0388 C   0  0  0  0  0  0  0  0  0  0  0  0
    8.8010  -13.6526   19.6433 C   0  0  0  0  0  0  0  0  0  0  0  0
    8.7033  -15.0464   20.2559 C   0  0  1  0  0  0  0  0  0  0  0  0
   10.0584  -15.3697   20.8134 C   0  0  0  0  0  0  0  0  0  0  0  0
   10.5914  -14.5053   21.5448 O   0  0  0  0  0  0  0  0  0  0  0  0
   10.7535  -16.5755   20.5723 N   0  0  0  0  0  0  0  0  0  0  0  0
   12.0761  -16.8574   21.1054 C   0  0  1  0  0  0  0  0  0  0  0  0
   11.8887  -17.9999   22.0949 C   0  0  0  0  0  0  0  0  0  0  0  0
   12.2983  -17.5143   23.4302 C   0  0  0  0  0  0  0  0  0  0  0  0
   12.7344  -16.3644   23.6181 O   0  0  0  0  0  0  0  0  0  0  0  0
   13.0208  -17.2907   20.0879 C   0  0  0  0  0  0  0  0  0  0  0  0
   14.4070  -17.1309   20.1526 O   0  0  0  0  0  0  0  0  0  0  0  0
   12.1844  -18.3848   24.5042 O   0  0  0  0  0  0  0  0  0  0  0  0
   12.5949  -17.8570   19.0495 O   0  0  0  0  0  0  0  0  0  0  0  0
  2  1  1  1
  2  3  1  0
  3  4  1  0
  5  6  2  0
  5  2  1  0
  7  5  1  0
  8  7  1  0
  9  8  1  0
 10  9  1  0
 10 11  1  0
 11  7  1  0
 11 12  1  1
 12 14  1  0
 13 12  2  0
 14 15  1  0
 15 16  1  1
 15 19  1  0
 16 17  1  0
 17 21  1  0
 18 17  2  0
 19 20  1  0
 22 19  2  0
M  END
$$$$
