CPD.pdb
     RDKit          3D

 22 22  0  0  1  0  0  0  0  0999 V2000
    6.6747  -16.4402   26.9149 N   0  0  0  0  0  0  0  0  0  0  0  0
    7.0425  -15.2452   26.0951 C   0  0  1  0  0  0  0  0  0  0  0  0
    7.9879  -14.4865   27.0394 C   0  0  0  0  0  0  0  0  0  0  0  0
    8.0770  -12.7286   26.7130 S   0  0  0  0  0  0  0  0  0  0  0  0
    7.6698  -15.7670   24.9003 C   0  0  0  0  0  0  0  0  0  0  0  0
    8.5440  -16.7163   25.0762 O   0  0  0  0  0  0  0  0  0  0  0  0
    7.4946  -15.4120   23.5297 N   0  0  0  0  0  0  0  0  0  0  0  0
    6.3841  -14.5800   23.1367 C   0  0  0  0  0  0  0  0  0  0  0  0
    6.7135  -14.0655   21.7919 C   0  0  0  0  0  0  0  0  0  0  0  0
    7.9381  -14.7616   21.3193 C   0  0  0  0  0  0  0  0  0  0  0  0
    8.2669  -15.7610   22.4241 C   0  0  1  0  0  0  0  0  0  0  0  0
    9.7553  -15.7248   22.6111 C   0  0  0  0  0  0  0  0  0  0  0  0
   10.1994  -14.9316   23.4713 O   0  0  0  0  0  0  0  0  0  0  0  0
   10.6697  -16.5256   21.8915 N   0  0  0  0  0  0  0  0  0  0  0  0
   12.1047  -16.5058   22.1217 C   0  0  1  0  0  0  0  0  0  0  0  0
   12.3094  -17.0956   23.5109 C   0  0  0  0  0  0  0  0  0  0  0  0
   13.7594  -17.0796   23.8005 C   0  0  0  0  0  0  0  0  0  0  0  0
   14.4928  -18.0631   23.5941 O   0  0  0  0  0  0  0  0  0  0  0  0
   12.8463  -17.3195   21.1712 C   0  0  0  0  0  0  0  0  0  0  0  0
   14.1083  -17.0124   20.6571 O   0  0  0  0  0  0  0  0  0  0  0  0
   14.3082  -15.9163   24.3200 O   0  0  0  0  0  0  0  0  0  0  0  0
   12.3439  -18.3928   20.7518 O   0  0  0  0  0  0  0  0  0  0  0  0
  2  1  1  1
  2  3  1  0
  3  4  1  0
  5  6  2  0
  5  2  1  0
  7  5  1  0
  8  7  1  0
  9  8  1  0
 10  9  1  0
 10 11  1  0
 11  7  1  0
 11 12  1  1
 12 14  1  0
 13 12  2  0
 14 15  1  0
 15 16  1  1
 15 19  1  0
 16 17  1  0
 17 21  1  0
 18 17  2  0
 19 20  1  0
 22 19  2  0
M  END
$$$$
