CPD.pdb
     RDKit          3D

 22 22  0  0  1  0  0  0  0  0999 V2000
    8.2661  -14.6153   21.4863 N   0  0  0  0  0  0  0  0  0  0  0  0
    7.2631  -14.3270   22.5570 C   0  0  1  0  0  0  0  0  0  0  0  0
    6.3959  -15.5953   22.5346 C   0  0  0  0  0  0  0  0  0  0  0  0
    7.1961  -17.0301   23.2458 S   0  0  0  0  0  0  0  0  0  0  0  0
    8.0280  -14.1374   23.7705 C   0  0  0  0  0  0  0  0  0  0  0  0
    9.1853  -14.7328   23.8210 O   0  0  0  0  0  0  0  0  0  0  0  0
    7.7263  -13.3955   24.9510 N   0  0  0  0  0  0  0  0  0  0  0  0
    6.6305  -12.4578   24.9529 C   0  0  0  0  0  0  0  0  0  0  0  0
    6.3241  -12.1886   26.3725 C   0  0  0  0  0  0  0  0  0  0  0  0
    7.3799  -12.8264   27.2008 C   0  0  0  0  0  0  0  0  0  0  0  0
    8.3584  -13.4202   26.1921 C   0  0  1  0  0  0  0  0  0  0  0  0
    8.7515  -14.7708   26.7144 C   0  0  0  0  0  0  0  0  0  0  0  0
    7.8774  -15.6661   26.6855 O   0  0  0  0  0  0  0  0  0  0  0  0
   10.0310  -15.0891   27.2209 N   0  0  0  0  0  0  0  0  0  0  0  0
   10.3310  -16.3303   27.9154 C   0  0  1  0  0  0  0  0  0  0  0  0
   11.7102  -16.7545   27.4279 C   0  0  0  0  0  0  0  0  0  0  0  0
   11.6573  -16.8580   25.9537 C   0  0  0  0  0  0  0  0  0  0  0  0
   11.0009  -17.7382   25.3689 O   0  0  0  0  0  0  0  0  0  0  0  0
   10.3900  -16.1756   29.3604 C   0  0  0  0  0  0  0  0  0  0  0  0
   10.2921  -14.9632   30.0474 O   0  0  0  0  0  0  0  0  0  0  0  0
   12.3703  -15.9302   25.2086 O   0  0  0  0  0  0  0  0  0  0  0  0
   10.5435  -17.1910   30.0854 O   0  0  0  0  0  0  0  0  0  0  0  0
  2  1  1  6
  2  3  1  0
  3  4  1  0
  5  6  2  0
  5  2  1  0
  7  5  1  0
  8  7  1  0
  9  8  1  0
 10  9  1  0
 10 11  1  0
 11  7  1  0
 11 12  1  1
 12 14  1  0
 13 12  2  0
 14 15  1  0
 15 16  1  6
 15 19  1  0
 16 17  1  0
 17 21  1  0
 18 17  2  0
 19 20  1  0
 22 19  2  0
M  END
$$$$
