CPD.pdb
     RDKit          3D

 22 22  0  0  1  0  0  0  0  0999 V2000
    5.6817  -17.6372   24.8858 N   0  0  0  0  0  0  0  0  0  0  0  0
    6.3286  -16.3018   24.7023 C   0  0  1  0  0  0  0  0  0  0  0  0
    6.8441  -15.9976   26.1175 C   0  0  0  0  0  0  0  0  0  0  0  0
    7.7410  -14.4534   26.2429 S   0  0  0  0  0  0  0  0  0  0  0  0
    7.3629  -16.4998   23.7102 C   0  0  0  0  0  0  0  0  0  0  0  0
    8.1540  -17.5172   23.8978 O   0  0  0  0  0  0  0  0  0  0  0  0
    7.6758  -15.7545   22.5347 N   0  0  0  0  0  0  0  0  0  0  0  0
    6.7348  -14.7900   22.0206 C   0  0  0  0  0  0  0  0  0  0  0  0
    7.4977  -13.9249   21.0979 C   0  0  0  0  0  0  0  0  0  0  0  0
    8.8507  -14.5143   20.9262 C   0  0  0  0  0  0  0  0  0  0  0  0
    8.8168  -15.8062   21.7371 C   0  0  1  0  0  0  0  0  0  0  0  0
   10.1304  -15.8999   22.4563 C   0  0  0  0  0  0  0  0  0  0  0  0
   10.3022  -15.1273   23.4258 O   0  0  0  0  0  0  0  0  0  0  0  0
   11.1646  -16.7993   22.1149 N   0  0  0  0  0  0  0  0  0  0  0  0
   12.4696  -16.7989   22.7552 C   0  0  1  0  0  0  0  0  0  0  0  0
   12.6921  -18.2247   23.2423 C   0  0  0  0  0  0  0  0  0  0  0  0
   12.3309  -18.2752   24.6754 C   0  0  0  0  0  0  0  0  0  0  0  0
   11.9398  -17.2738   25.3014 O   0  0  0  0  0  0  0  0  0  0  0  0
   13.5516  -16.4581   21.8449 C   0  0  0  0  0  0  0  0  0  0  0  0
   14.7622  -15.8673   22.2148 O   0  0  0  0  0  0  0  0  0  0  0  0
   12.4356  -19.4926   25.3321 O   0  0  0  0  0  0  0  0  0  0  0  0
   13.4250  -16.6960   20.6171 O   0  0  0  0  0  0  0  0  0  0  0  0
  2  1  1  1
  2  3  1  0
  3  4  1  0
  5  6  2  0
  5  2  1  0
  7  5  1  0
  8  7  1  0
  9  8  1  0
 10  9  1  0
 10 11  1  0
 11  7  1  0
 11 12  1  1
 12 14  1  0
 13 12  2  0
 14 15  1  0
 15 16  1  6
 15 19  1  0
 16 17  1  0
 17 21  1  0
 18 17  2  0
 19 20  1  0
 22 19  2  0
M  END
$$$$
