CPD.pdb
     RDKit          3D

 22 22  0  0  1  0  0  0  0  0999 V2000
    8.2409  -14.2220   20.3043 N   0  0  0  0  0  0  0  0  0  0  0  0
    7.2311  -14.0294   21.3900 C   0  0  1  0  0  0  0  0  0  0  0  0
    6.2601  -15.1927   21.1354 C   0  0  0  0  0  0  0  0  0  0  0  0
    6.9837  -16.8086   21.4003 S   0  0  0  0  0  0  0  0  0  0  0  0
    7.9686  -14.1163   22.6317 C   0  0  0  0  0  0  0  0  0  0  0  0
    9.1106  -14.7404   22.5811 O   0  0  0  0  0  0  0  0  0  0  0  0
    7.6532  -13.6273   23.9343 N   0  0  0  0  0  0  0  0  0  0  0  0
    6.6156  -12.6397   24.1020 C   0  0  0  0  0  0  0  0  0  0  0  0
    6.2561  -12.6625   25.5344 C   0  0  0  0  0  0  0  0  0  0  0  0
    7.2305  -13.5341   26.2404 C   0  0  0  0  0  0  0  0  0  0  0  0
    8.2210  -13.9618   25.1616 C   0  0  1  0  0  0  0  0  0  0  0  0
    8.5079  -15.4167   25.3902 C   0  0  0  0  0  0  0  0  0  0  0  0
    7.8092  -16.2387   24.7558 O   0  0  0  0  0  0  0  0  0  0  0  0
    9.5088  -15.9059   26.2586 N   0  0  0  0  0  0  0  0  0  0  0  0
    9.8649  -17.3116   26.3584 C   0  0  1  0  0  0  0  0  0  0  0  0
   10.9261  -17.5465   25.2915 C   0  0  0  0  0  0  0  0  0  0  0  0
   11.3988  -18.9416   25.4224 C   0  0  0  0  0  0  0  0  0  0  0  0
   10.6538  -19.8676   25.7903 O   0  0  0  0  0  0  0  0  0  0  0  0
   10.4350  -17.6654   27.6489 C   0  0  0  0  0  0  0  0  0  0  0  0
   10.3819  -18.9323   28.2350 O   0  0  0  0  0  0  0  0  0  0  0  0
   12.7248  -19.2124   25.1181 O   0  0  0  0  0  0  0  0  0  0  0  0
   11.0298  -16.7876   28.3239 O   0  0  0  0  0  0  0  0  0  0  0  0
  2  1  1  6
  2  3  1  0
  3  4  1  0
  5  6  2  0
  5  2  1  0
  7  5  1  0
  8  7  1  0
  9  8  1  0
 10  9  1  0
 10 11  1  0
 11  7  1  0
 11 12  1  6
 12 14  1  0
 13 12  2  0
 14 15  1  0
 15 16  1  6
 15 19  1  0
 16 17  1  0
 17 21  1  0
 18 17  2  0
 19 20  1  0
 22 19  2  0
M  END
$$$$
