CPD.pdb
     RDKit          3D

 22 22  0  0  1  0  0  0  0  0999 V2000
    5.9636  -18.7021   24.1160 N   0  0  0  0  0  0  0  0  0  0  0  0
    6.4745  -17.3167   24.3501 C   0  0  1  0  0  0  0  0  0  0  0  0
    6.9102  -17.3796   25.8223 C   0  0  0  0  0  0  0  0  0  0  0  0
    7.4247  -15.8009   26.4914 S   0  0  0  0  0  0  0  0  0  0  0  0
    7.5550  -17.1320   23.4059 C   0  0  0  0  0  0  0  0  0  0  0  0
    8.4992  -18.0289   23.4281 O   0  0  0  0  0  0  0  0  0  0  0  0
    7.7724  -16.1120   22.4325 N   0  0  0  0  0  0  0  0  0  0  0  0
    6.6841  -15.2553   22.0305 C   0  0  0  0  0  0  0  0  0  0  0  0
    7.3037  -14.0888   21.3694 C   0  0  0  0  0  0  0  0  0  0  0  0
    8.7552  -14.3646   21.2134 C   0  0  0  0  0  0  0  0  0  0  0  0
    8.9409  -15.7805   21.7504 C   0  0  1  0  0  0  0  0  0  0  0  0
   10.2061  -15.7747   22.5571 C   0  0  0  0  0  0  0  0  0  0  0  0
   10.0884  -15.6331   23.7950 O   0  0  0  0  0  0  0  0  0  0  0  0
   11.5006  -15.9251   22.0123 N   0  0  0  0  0  0  0  0  0  0  0  0
   12.6732  -16.2422   22.8105 C   0  0  1  0  0  0  0  0  0  0  0  0
   12.4180  -17.6280   23.3887 C   0  0  0  0  0  0  0  0  0  0  0  0
   13.6179  -18.0267   24.1556 C   0  0  0  0  0  0  0  0  0  0  0  0
   14.0826  -17.3326   25.0775 O   0  0  0  0  0  0  0  0  0  0  0  0
   13.8981  -16.2972   22.0282 C   0  0  0  0  0  0  0  0  0  0  0  0
   14.0475  -16.9599   20.8075 O   0  0  0  0  0  0  0  0  0  0  0  0
   14.2363  -19.2232   23.8238 O   0  0  0  0  0  0  0  0  0  0  0  0
   14.9291  -15.7161   22.4518 O   0  0  0  0  0  0  0  0  0  0  0  0
  2  1  1  6
  2  3  1  0
  3  4  1  0
  5  6  2  0
  5  2  1  0
  7  5  1  0
  8  7  1  0
  9  8  1  0
 10  9  1  0
 10 11  1  0
 11  7  1  0
 11 12  1  1
 12 14  1  0
 13 12  2  0
 14 15  1  0
 15 16  1  6
 15 19  1  0
 16 17  1  0
 17 21  1  0
 18 17  2  0
 19 20  1  0
 22 19  2  0
M  END
$$$$
