CPD.pdb
     RDKit          3D

 22 22  0  0  1  0  0  0  0  0999 V2000
    6.8425  -17.9103   17.6313 N   0  0  0  0  0  0  0  0  0  0  0  0
    6.3499  -17.1470   18.8188 C   0  0  1  0  0  0  0  0  0  0  0  0
    5.6279  -18.2381   19.6248 C   0  0  0  0  0  0  0  0  0  0  0  0
    5.1114  -17.7091   21.2552 S   0  0  0  0  0  0  0  0  0  0  0  0
    7.5311  -16.6055   19.4549 C   0  0  0  0  0  0  0  0  0  0  0  0
    8.4834  -17.4538   19.7192 O   0  0  0  0  0  0  0  0  0  0  0  0
    7.8405  -15.2715   19.8548 N   0  0  0  0  0  0  0  0  0  0  0  0
    6.9851  -14.1818   19.4538 C   0  0  0  0  0  0  0  0  0  0  0  0
    7.3191  -13.0504   20.3426 C   0  0  0  0  0  0  0  0  0  0  0  0
    8.5160  -13.4271   21.1383 C   0  0  0  0  0  0  0  0  0  0  0  0
    8.9088  -14.8066   20.6186 C   0  0  1  0  0  0  0  0  0  0  0  0
    9.2813  -15.6300   21.8164 C   0  0  0  0  0  0  0  0  0  0  0  0
    8.3444  -16.1685   22.4477 O   0  0  0  0  0  0  0  0  0  0  0  0
   10.6056  -15.8369   22.2619 N   0  0  0  0  0  0  0  0  0  0  0  0
   10.9410  -16.6230   23.4377 C   0  0  1  0  0  0  0  0  0  0  0  0
   12.4508  -16.8176   23.3886 C   0  0  0  0  0  0  0  0  0  0  0  0
   12.7765  -17.5164   22.1267 C   0  0  0  0  0  0  0  0  0  0  0  0
   12.2744  -18.6130   21.8216 O   0  0  0  0  0  0  0  0  0  0  0  0
   10.6120  -15.9519   24.6855 C   0  0  0  0  0  0  0  0  0  0  0  0
   10.4408  -16.5819   25.9204 O   0  0  0  0  0  0  0  0  0  0  0  0
   13.6760  -16.9130   21.2602 O   0  0  0  0  0  0  0  0  0  0  0  0
   10.4582  -14.7043   24.6949 O   0  0  0  0  0  0  0  0  0  0  0  0
  2  1  1  6
  2  3  1  0
  3  4  1  0
  5  6  2  0
  5  2  1  0
  7  5  1  0
  8  7  1  0
  9  8  1  0
 10  9  1  0
 10 11  1  0
 11  7  1  0
 11 12  1  1
 12 14  1  0
 13 12  2  0
 14 15  1  0
 15 16  1  1
 15 19  1  0
 16 17  1  0
 17 21  1  0
 18 17  2  0
 19 20  1  0
 22 19  2  0
M  END
$$$$
