FYM.pdb
     RDKit          3D

 32 33  0  0  1  0  0  0  0  0999 V2000
    7.1550  -18.8520   25.7587 N   0  0  0  0  0  0  0  0  0  0  0  0
    6.3512  -18.2016   24.7418 C   0  0  1  0  0  0  0  0  0  0  0  0
    5.4751  -17.1780   25.4304 C   0  0  0  0  0  0  0  0  0  0  0  0
    6.2761  -16.0591   25.9810 C   0  0  0  0  0  0  0  0  0  0  0  0
    5.7954  -14.7676   25.9190 C   0  0  0  0  0  0  0  0  0  0  0  0
    6.5115  -13.6831   26.4231 C   0  0  0  0  0  0  0  0  0  0  0  0
    7.7341  -13.9369   26.9957 C   0  0  0  0  0  0  0  0  0  0  0  0
    8.2507  -15.2206   27.0766 C   0  0  0  0  0  0  0  0  0  0  0  0
    7.4968  -16.2598   26.5599 C   0  0  0  0  0  0  0  0  0  0  0  0
    7.2258  -17.5126   23.7782 C   0  0  0  0  0  0  0  0  0  0  0  0
    8.2768  -18.0815   23.3832 O   0  0  0  0  0  0  0  0  0  0  0  0
    9.4734  -12.3854   17.1329 O   0  0  0  0  0  0  0  0  0  0  0  0
    8.8873  -12.8458   18.3041 C   0  0  0  0  0  0  0  0  0  0  0  0
    7.7094  -13.5619   18.2605 C   0  0  0  0  0  0  0  0  0  0  0  0
    7.1358  -14.0140   19.4247 C   0  0  0  0  0  0  0  0  0  0  0  0
    7.7347  -13.7530   20.6269 C   0  0  0  0  0  0  0  0  0  0  0  0
    7.0733  -14.2626   21.8596 C   0  0  0  0  0  0  0  0  0  0  0  0
    7.6436  -15.6483   22.1242 C   0  0  2  0  0  0  0  0  0  0  0  0
    6.9479  -16.2203   23.2590 N   0  0  0  0  0  0  0  0  0  0  0  0
    9.0823  -15.4740   22.4507 C   0  0  0  0  0  0  0  0  0  0  0  0
    9.9094  -15.0146   21.6161 O   0  0  0  0  0  0  0  0  0  0  0  0
    8.8992  -13.0477   20.6996 C   0  0  0  0  0  0  0  0  0  0  0  0
    9.4638  -12.5993   19.5164 C   0  0  0  0  0  0  0  0  0  0  0  0
   10.9884  -12.2695   28.1433 C   0  0  0  0  0  0  0  0  0  0  0  0
   11.4344  -14.0443   28.0678 S   0  0  0  0  0  0  0  0  0  0  0  0
   11.8240  -14.5810   26.4375 C   0  0  0  0  0  0  0  0  0  0  0  0
   10.7422  -14.9352   25.5282 C   0  0  0  0  0  0  0  0  0  0  0  0
   10.9389  -15.3646   24.1252 C   0  0  2  0  0  0  0  0  0  0  0  0
    9.5495  -15.8248   23.7165 N   0  0  0  0  0  0  0  0  0  0  0  0
   11.7147  -16.6724   24.0896 C   0  0  0  0  0  0  0  0  0  0  0  0
   11.0182  -17.7689   24.0824 O   0  0  0  0  0  0  0  0  0  0  0  0
   13.0527  -16.8384   24.0659 O   0  0  0  0  0  0  0  0  0  0  0  0
  2  1  1  1
  3  2  1  0
  3  4  1  0
  4  5  2  0
  5  6  1  0
  7  6  2  0
  8  7  1  0
  9  8  2  0
  9  4  1  0
 10  2  1  0
 10 19  1  0
 11 10  2  0
 13 14  2  0
 13 12  1  0
 15 14  1  0
 16 15  2  0
 17 16  1  0
 18 17  1  1
 18 19  1  0
 20 29  1  0
 20 18  1  0
 21 20  2  0
 22 16  1  0
 22 23  2  0
 23 13  1  0
 24 25  1  0
 25 26  1  0
 26 27  1  0
 28 27  1  1
 28 29  1  0
 28 30  1  0
 30 32  1  0
 31 30  2  0
M  END
$$$$
