FYM.pdb
     RDKit          3D

 32 33  0  0  1  0  0  0  0  0999 V2000
    5.8070  -18.9044   25.2631 N   0  0  0  0  0  0  0  0  0  0  0  0
    5.9650  -17.4638   25.2092 C   0  0  1  0  0  0  0  0  0  0  0  0
    6.5693  -17.0161   26.5221 C   0  0  0  0  0  0  0  0  0  0  0  0
    6.6665  -15.5392   26.6004 C   0  0  0  0  0  0  0  0  0  0  0  0
    5.5596  -14.7580   26.3411 C   0  0  0  0  0  0  0  0  0  0  0  0
    5.6016  -13.3660   26.4024 C   0  0  0  0  0  0  0  0  0  0  0  0
    6.7980  -12.7781   26.7346 C   0  0  0  0  0  0  0  0  0  0  0  0
    7.9318  -13.5292   27.0021 C   0  0  0  0  0  0  0  0  0  0  0  0
    7.8329  -14.9075   26.9265 C   0  0  0  0  0  0  0  0  0  0  0  0
    6.8792  -17.1018   24.1132 C   0  0  0  0  0  0  0  0  0  0  0  0
    7.7981  -17.8983   23.7882 O   0  0  0  0  0  0  0  0  0  0  0  0
    9.4593  -13.6203   16.5728 O   0  0  0  0  0  0  0  0  0  0  0  0
    8.8740  -13.7851   17.8207 C   0  0  0  0  0  0  0  0  0  0  0  0
    8.9893  -12.8021   18.7811 C   0  0  0  0  0  0  0  0  0  0  0  0
    8.4068  -12.9733   20.0141 C   0  0  0  0  0  0  0  0  0  0  0  0
    7.7122  -14.1200   20.2876 C   0  0  0  0  0  0  0  0  0  0  0  0
    7.1012  -14.2587   21.6382 C   0  0  0  0  0  0  0  0  0  0  0  0
    7.5377  -15.6112   22.1818 C   0  0  2  0  0  0  0  0  0  0  0  0
    6.7832  -15.8846   23.3880 N   0  0  0  0  0  0  0  0  0  0  0  0
    8.9840  -15.5065   22.5050 C   0  0  0  0  0  0  0  0  0  0  0  0
    9.8658  -15.3956   21.6095 O   0  0  0  0  0  0  0  0  0  0  0  0
    7.5823  -15.1081   19.3573 C   0  0  0  0  0  0  0  0  0  0  0  0
    8.1759  -14.9192   18.1195 C   0  0  0  0  0  0  0  0  0  0  0  0
   10.1175  -13.6577   28.4615 C   0  0  0  0  0  0  0  0  0  0  0  0
   11.8225  -14.2070   28.0793 S   0  0  0  0  0  0  0  0  0  0  0  0
   12.0097  -14.7409   26.4126 C   0  0  0  0  0  0  0  0  0  0  0  0
   10.8288  -14.8623   25.5682 C   0  0  0  0  0  0  0  0  0  0  0  0
   10.8602  -15.2600   24.1425 C   0  0  2  0  0  0  0  0  0  0  0  0
    9.3964  -15.5298   23.8365 N   0  0  0  0  0  0  0  0  0  0  0  0
   11.4600  -16.6512   24.0079 C   0  0  0  0  0  0  0  0  0  0  0  0
   10.6272  -17.6443   23.9195 O   0  0  0  0  0  0  0  0  0  0  0  0
   12.7653  -16.9876   23.9700 O   0  0  0  0  0  0  0  0  0  0  0  0
  2  1  1  1
  3  2  1  0
  3  4  1  0
  4  5  2  0
  5  6  1  0
  7  6  2  0
  8  7  1  0
  9  8  2  0
  9  4  1  0
 10  2  1  0
 10 19  1  0
 11 10  2  0
 13 14  2  0
 13 12  1  0
 15 14  1  0
 16 15  2  0
 17 16  1  0
 18 17  1  1
 18 19  1  0
 20 29  1  0
 20 18  1  0
 21 20  2  0
 22 16  1  0
 22 23  2  0
 23 13  1  0
 24 25  1  0
 25 26  1  0
 26 27  1  0
 28 27  1  1
 28 29  1  0
 28 30  1  0
 30 32  1  0
 31 30  2  0
M  END
$$$$
