FYM.pdb
     RDKit          3D

 32 33  0  0  1  0  0  0  0  0999 V2000
    7.9035  -18.0154   17.8871 N   0  0  0  0  0  0  0  0  0  0  0  0
    8.2297  -16.8899   18.7415 C   0  0  1  0  0  0  0  0  0  0  0  0
    7.3961  -15.7106   18.2901 C   0  0  0  0  0  0  0  0  0  0  0  0
    7.4325  -14.6082   19.2802 C   0  0  0  0  0  0  0  0  0  0  0  0
    8.2516  -13.5179   19.0724 C   0  0  0  0  0  0  0  0  0  0  0  0
    8.3198  -12.4571   19.9741 C   0  0  0  0  0  0  0  0  0  0  0  0
    7.5344  -12.5249   21.0991 C   0  0  0  0  0  0  0  0  0  0  0  0
    6.6987  -13.6036   21.3429 C   0  0  0  0  0  0  0  0  0  0  0  0
    6.6708  -14.6289   20.4138 C   0  0  0  0  0  0  0  0  0  0  0  0
    7.8914  -17.2084   20.1388 C   0  0  0  0  0  0  0  0  0  0  0  0
    6.8197  -17.8187   20.3899 O   0  0  0  0  0  0  0  0  0  0  0  0
    7.5800  -20.5619   27.8467 O   0  0  0  0  0  0  0  0  0  0  0  0
    7.9750  -20.0795   26.6064 C   0  0  0  0  0  0  0  0  0  0  0  0
    9.2489  -19.5835   26.4238 C   0  0  0  0  0  0  0  0  0  0  0  0
    9.6319  -19.1077   25.1925 C   0  0  0  0  0  0  0  0  0  0  0  0
    8.7480  -19.1269   24.1482 C   0  0  0  0  0  0  0  0  0  0  0  0
    9.2100  -18.5988   22.8351 C   0  0  0  0  0  0  0  0  0  0  0  0
    8.4640  -17.2938   22.5986 C   0  0  2  0  0  0  0  0  0  0  0  0
    8.7186  -16.8611   21.2396 N   0  0  0  0  0  0  0  0  0  0  0  0
    9.0111  -16.2978   23.5555 C   0  0  0  0  0  0  0  0  0  0  0  0
   10.1995  -15.8802   23.4838 O   0  0  0  0  0  0  0  0  0  0  0  0
    7.4827  -19.6114   24.3002 C   0  0  0  0  0  0  0  0  0  0  0  0
    7.1131  -20.0869   25.5481 C   0  0  0  0  0  0  0  0  0  0  0  0
    6.3047  -10.6813   25.5692 C   0  0  0  0  0  0  0  0  0  0  0  0
    6.2919  -11.7970   27.0216 S   0  0  0  0  0  0  0  0  0  0  0  0
    7.5976  -12.9768   26.9870 C   0  0  0  0  0  0  0  0  0  0  0  0
    7.5801  -14.0270   25.9775 C   0  0  0  0  0  0  0  0  0  0  0  0
    8.7801  -14.7620   25.5178 C   0  0  2  0  0  0  0  0  0  0  0  0
    8.1975  -15.7984   24.5715 N   0  0  0  0  0  0  0  0  0  0  0  0
    9.3094  -15.6400   26.6413 C   0  0  0  0  0  0  0  0  0  0  0  0
    8.6265  -16.7084   26.9237 O   0  0  0  0  0  0  0  0  0  0  0  0
   10.4125  -15.4450   27.3920 O   0  0  0  0  0  0  0  0  0  0  0  0
  2  1  1  6
  3  2  1  0
  3  4  1  0
  4  5  2  0
  5  6  1  0
  7  6  2  0
  8  7  1  0
  9  8  2  0
  9  4  1  0
 10  2  1  0
 10 19  1  0
 11 10  2  0
 13 14  2  0
 13 12  1  0
 15 14  1  0
 16 15  2  0
 17 16  1  0
 18 17  1  1
 18 19  1  0
 20 29  1  0
 20 18  1  0
 21 20  2  0
 22 16  1  0
 22 23  2  0
 23 13  1  0
 24 25  1  0
 25 26  1  0
 26 27  1  0
 28 27  1  1
 28 29  1  0
 28 30  1  0
 30 32  1  0
 31 30  2  0
M  END
$$$$
