FYM.pdb
     RDKit          3D

 32 33  0  0  1  0  0  0  0  0999 V2000
    5.8030  -18.7769   25.1991 N   0  0  0  0  0  0  0  0  0  0  0  0
    6.0212  -17.3469   25.0957 C   0  0  1  0  0  0  0  0  0  0  0  0
    6.6942  -16.8891   26.3712 C   0  0  0  0  0  0  0  0  0  0  0  0
    6.7048  -15.4110   26.4801 C   0  0  0  0  0  0  0  0  0  0  0  0
    6.1785  -14.7955   27.5969 C   0  0  0  0  0  0  0  0  0  0  0  0
    6.1660  -13.4095   27.7450 C   0  0  0  0  0  0  0  0  0  0  0  0
    6.7022  -12.6548   26.7300 C   0  0  0  0  0  0  0  0  0  0  0  0
    7.2402  -13.2365   25.5927 C   0  0  0  0  0  0  0  0  0  0  0  0
    7.2261  -14.6172   25.4985 C   0  0  0  0  0  0  0  0  0  0  0  0
    6.9076  -17.0577   23.9561 C   0  0  0  0  0  0  0  0  0  0  0  0
    7.7545  -17.9180   23.5997 O   0  0  0  0  0  0  0  0  0  0  0  0
    9.4447  -13.8037   16.2986 O   0  0  0  0  0  0  0  0  0  0  0  0
    8.8914  -13.9234   17.5661 C   0  0  0  0  0  0  0  0  0  0  0  0
    8.9591  -12.8747   18.4592 C   0  0  0  0  0  0  0  0  0  0  0  0
    8.4088  -13.0016   19.7122 C   0  0  0  0  0  0  0  0  0  0  0  0
    7.7935  -14.1695   20.0724 C   0  0  0  0  0  0  0  0  0  0  0  0
    7.2146  -14.2582   21.4412 C   0  0  0  0  0  0  0  0  0  0  0  0
    7.5979  -15.6233   21.9934 C   0  0  2  0  0  0  0  0  0  0  0  0
    6.8623  -15.8428   23.2221 N   0  0  0  0  0  0  0  0  0  0  0  0
    9.0554  -15.5862   22.2785 C   0  0  0  0  0  0  0  0  0  0  0  0
    9.9170  -15.4980   21.3610 O   0  0  0  0  0  0  0  0  0  0  0  0
    7.7121  -15.2222   19.2099 C   0  0  0  0  0  0  0  0  0  0  0  0
    8.2722  -15.0773   17.9508 C   0  0  0  0  0  0  0  0  0  0  0  0
    9.8539  -13.3526   28.8831 C   0  0  0  0  0  0  0  0  0  0  0  0
   10.7921  -14.6126   27.9414 S   0  0  0  0  0  0  0  0  0  0  0  0
   10.5031  -14.5235   26.2075 C   0  0  0  0  0  0  0  0  0  0  0  0
   11.0679  -15.5480   25.3393 C   0  0  0  0  0  0  0  0  0  0  0  0
   10.9930  -15.5223   23.8610 C   0  0  2  0  0  0  0  0  0  0  0  0
    9.5018  -15.6497   23.5976 N   0  0  0  0  0  0  0  0  0  0  0  0
   11.5145  -16.8342   23.2950 C   0  0  0  0  0  0  0  0  0  0  0  0
   12.3356  -16.7563   22.2913 O   0  0  0  0  0  0  0  0  0  0  0  0
   11.2262  -18.0848   23.7089 O   0  0  0  0  0  0  0  0  0  0  0  0
  2  1  1  1
  3  2  1  0
  3  4  1  0
  4  5  2  0
  5  6  1  0
  7  6  2  0
  8  7  1  0
  9  8  2  0
  9  4  1  0
 10  2  1  0
 10 19  1  0
 11 10  2  0
 13 14  2  0
 13 12  1  0
 15 14  1  0
 16 15  2  0
 17 16  1  0
 18 17  1  1
 18 19  1  0
 20 29  1  0
 20 18  1  0
 21 20  2  0
 22 16  1  0
 22 23  2  0
 23 13  1  0
 24 25  1  0
 25 26  1  0
 26 27  1  0
 28 27  1  1
 28 29  1  0
 28 30  1  0
 30 32  1  0
 31 30  2  0
M  END
$$$$
