FYM.pdb
     RDKit          3D

 32 33  0  0  1  0  0  0  0  0999 V2000
    6.2412  -20.7410   23.6216 N   0  0  0  0  0  0  0  0  0  0  0  0
    6.4099  -19.3939   24.1317 C   0  0  1  0  0  0  0  0  0  0  0  0
    7.2819  -19.4732   25.3657 C   0  0  0  0  0  0  0  0  0  0  0  0
    7.5888  -18.1260   25.9021 C   0  0  0  0  0  0  0  0  0  0  0  0
    8.8148  -17.8750   26.4826 C   0  0  0  0  0  0  0  0  0  0  0  0
    9.1497  -16.6249   27.0005 C   0  0  0  0  0  0  0  0  0  0  0  0
    8.2091  -15.6272   26.9170 C   0  0  0  0  0  0  0  0  0  0  0  0
    6.9665  -15.8408   26.3411 C   0  0  0  0  0  0  0  0  0  0  0  0
    6.6875  -17.1015   25.8430 C   0  0  0  0  0  0  0  0  0  0  0  0
    7.0824  -18.5580   23.1231 C   0  0  0  0  0  0  0  0  0  0  0  0
    8.1481  -18.9683   22.5935 O   0  0  0  0  0  0  0  0  0  0  0  0
    8.8828  -12.4188   17.2788 O   0  0  0  0  0  0  0  0  0  0  0  0
    8.2580  -13.1185   18.3021 C   0  0  0  0  0  0  0  0  0  0  0  0
    7.8595  -14.4251   18.1122 C   0  0  0  0  0  0  0  0  0  0  0  0
    7.2416  -15.1107   19.1306 C   0  0  0  0  0  0  0  0  0  0  0  0
    7.0223  -14.4955   20.3329 C   0  0  0  0  0  0  0  0  0  0  0  0
    6.3478  -15.2798   21.4037 C   0  0  0  0  0  0  0  0  0  0  0  0
    7.2452  -16.4700   21.7090 C   0  0  2  0  0  0  0  0  0  0  0  0
    6.5903  -17.2932   22.7053 N   0  0  0  0  0  0  0  0  0  0  0  0
    8.5159  -15.9301   22.2578 C   0  0  0  0  0  0  0  0  0  0  0  0
    9.4285  -15.4753   21.5148 O   0  0  0  0  0  0  0  0  0  0  0  0
    7.4056  -13.2050   20.5483 C   0  0  0  0  0  0  0  0  0  0  0  0
    8.0272  -12.5285   19.5109 C   0  0  0  0  0  0  0  0  0  0  0  0
    6.5438  -11.1914   26.3504 C   0  0  0  0  0  0  0  0  0  0  0  0
    7.6911  -12.5761   26.6982 S   0  0  0  0  0  0  0  0  0  0  0  0
    8.4335  -13.2291   25.2421 C   0  0  0  0  0  0  0  0  0  0  0  0
    9.2784  -14.4115   25.3438 C   0  0  0  0  0  0  0  0  0  0  0  0
    9.8832  -15.1066   24.1852 C   0  0  2  0  0  0  0  0  0  0  0  0
    8.7218  -15.9185   23.6365 N   0  0  0  0  0  0  0  0  0  0  0  0
   10.8177  -16.2036   24.6717 C   0  0  0  0  0  0  0  0  0  0  0  0
   11.9607  -15.8278   25.1613 O   0  0  0  0  0  0  0  0  0  0  0  0
   10.6061  -17.5353   24.6567 O   0  0  0  0  0  0  0  0  0  0  0  0
  2  1  1  6
  3  2  1  0
  3  4  1  0
  4  5  2  0
  5  6  1  0
  7  6  2  0
  8  7  1  0
  9  8  2  0
  9  4  1  0
 10  2  1  0
 10 19  1  0
 11 10  2  0
 13 14  2  0
 13 12  1  0
 15 14  1  0
 16 15  2  0
 17 16  1  0
 18 17  1  1
 18 19  1  0
 20 29  1  0
 20 18  1  0
 21 20  2  0
 22 16  1  0
 22 23  2  0
 23 13  1  0
 24 25  1  0
 25 26  1  0
 26 27  1  0
 28 27  1  1
 28 29  1  0
 28 30  1  0
 30 32  1  0
 31 30  2  0
M  END
$$$$
