YWM.pdb
     RDKit          3D

 35 37  0  0  1  0  0  0  0  0999 V2000
    8.7483  -14.6721   13.1220 O   0  0  0  0  0  0  0  0  0  0  0  0
    8.6474  -14.4390   14.4870 C   0  0  0  0  0  0  0  0  0  0  0  0
    9.6306  -14.9669   15.3047 C   0  0  0  0  0  0  0  0  0  0  0  0
    9.5741  -14.7617   16.6729 C   0  0  0  0  0  0  0  0  0  0  0  0
    8.5466  -14.0378   17.2130 C   0  0  0  0  0  0  0  0  0  0  0  0
    8.4873  -13.8183   18.6655 C   0  0  0  0  0  0  0  0  0  0  0  0
    8.3172  -15.1580   19.3467 C   0  0  2  0  0  0  0  0  0  0  0  0
    7.1804  -15.8939   18.8985 N   0  0  0  0  0  0  0  0  0  0  0  0
    8.3037  -15.0551   20.8211 C   0  0  0  0  0  0  0  0  0  0  0  0
    7.8235  -14.0162   21.3411 O   0  0  0  0  0  0  0  0  0  0  0  0
    7.5806  -13.5217   16.3914 C   0  0  0  0  0  0  0  0  0  0  0  0
    7.6150  -13.7141   15.0105 C   0  0  0  0  0  0  0  0  0  0  0  0
    8.8093  -16.0802   21.6364 N   0  0  0  0  0  0  0  0  0  0  0  0
    9.0804  -15.9132   23.0800 C   0  0  1  0  0  0  0  0  0  0  0  0
    7.9546  -16.5267   23.8149 C   0  0  0  0  0  0  0  0  0  0  0  0
    7.0988  -15.6559   24.6239 C   0  0  0  0  0  0  0  0  0  0  0  0
    5.9896  -16.0180   25.3590 C   0  0  0  0  0  0  0  0  0  0  0  0
    5.4512  -14.9482   25.9463 N   0  0  0  0  0  0  0  0  0  0  0  0
    6.1908  -13.8872   25.6082 C   0  0  0  0  0  0  0  0  0  0  0  0
    6.1076  -12.5385   25.9340 C   0  0  0  0  0  0  0  0  0  0  0  0
    7.0129  -11.5960   25.4714 C   0  0  0  0  0  0  0  0  0  0  0  0
    8.0340  -11.9935   24.6612 C   0  0  0  0  0  0  0  0  0  0  0  0
    8.1257  -13.3245   24.3319 C   0  0  0  0  0  0  0  0  0  0  0  0
    7.2276  -14.2970   24.7829 C   0  0  0  0  0  0  0  0  0  0  0  0
   10.4311  -16.3342   23.3813 C   0  0  0  0  0  0  0  0  0  0  0  0
   11.4261  -15.9842   22.7000 O   0  0  0  0  0  0  0  0  0  0  0  0
   10.2955  -12.5053   27.9271 C   0  0  0  0  0  0  0  0  0  0  0  0
   10.4780  -14.1374   28.6483 S   0  0  0  0  0  0  0  0  0  0  0  0
   11.4415  -15.2592   27.6622 C   0  0  0  0  0  0  0  0  0  0  0  0
   10.8225  -15.8418   26.4630 C   0  0  0  0  0  0  0  0  0  0  0  0
   11.5966  -16.7390   25.5854 C   0  0  2  0  0  0  0  0  0  0  0  0
   10.6873  -17.1781   24.4839 N   0  0  0  0  0  0  0  0  0  0  0  0
   12.0497  -17.9609   26.2260 C   0  0  0  0  0  0  0  0  0  0  0  0
   11.2214  -19.0788   26.4005 O   0  0  0  0  0  0  0  0  0  0  0  0
   13.2463  -18.0533   26.6663 O   0  0  0  0  0  0  0  0  0  0  0  0
  2  1  1  0
  3  2  2  0
  4  3  1  0
  5  4  2  0
  5 11  1  0
  6  5  1  0
  7  6  1  0
  7  8  1  6
  9  7  1  0
 10  9  2  0
 11 12  2  0
 12  2  1  0
 13  9  1  0
 14 25  1  0
 14 13  1  0
 14 15  1  1
 16 15  1  0
 17 16  2  0
 18 17  1  0
 19 24  2  0
 19 18  1  0
 20 19  1  0
 21 20  2  0
 21 22  1  0
 22 23  2  0
 23 24  1  0
 24 16  1  0
 25 32  1  0
 26 25  2  0
 27 28  1  0
 28 29  1  0
 29 30  1  0
 31 30  1  1
 31 33  1  0
 32 31  1  0
 33 35  2  0
 33 34  1  0
M  END
$$$$
