YWM.pdb
     RDKit          3D

 35 37  0  0  1  0  0  0  0  0999 V2000
    8.5902  -14.5069   13.1147 O   0  0  0  0  0  0  0  0  0  0  0  0
    8.6591  -14.3190   14.4886 C   0  0  0  0  0  0  0  0  0  0  0  0
    7.4896  -13.9975   15.1540 C   0  0  0  0  0  0  0  0  0  0  0  0
    7.5071  -13.8004   16.5245 C   0  0  0  0  0  0  0  0  0  0  0  0
    8.6801  -13.9238   17.2173 C   0  0  0  0  0  0  0  0  0  0  0  0
    8.6987  -13.7163   18.6727 C   0  0  0  0  0  0  0  0  0  0  0  0
    9.2466  -14.9643   19.3283 C   0  0  2  0  0  0  0  0  0  0  0  0
    8.4937  -16.1428   19.0474 N   0  0  0  0  0  0  0  0  0  0  0  0
    9.4261  -14.8149   20.7878 C   0  0  0  0  0  0  0  0  0  0  0  0
   10.1759  -13.8960   21.2045 O   0  0  0  0  0  0  0  0  0  0  0  0
    9.8298  -14.2423   16.5453 C   0  0  0  0  0  0  0  0  0  0  0  0
    9.8385  -14.4459   15.1656 C   0  0  0  0  0  0  0  0  0  0  0  0
    8.7842  -15.6668   21.7007 N   0  0  0  0  0  0  0  0  0  0  0  0
    8.9465  -15.5603   23.1661 C   0  0  1  0  0  0  0  0  0  0  0  0
    7.7845  -16.2276   23.7891 C   0  0  0  0  0  0  0  0  0  0  0  0
    6.9647  -15.4579   24.7276 C   0  0  0  0  0  0  0  0  0  0  0  0
    5.8657  -15.8961   25.4361 C   0  0  0  0  0  0  0  0  0  0  0  0
    5.3619  -14.9050   26.1732 N   0  0  0  0  0  0  0  0  0  0  0  0
    6.1144  -13.8209   25.9599 C   0  0  0  0  0  0  0  0  0  0  0  0
    6.0651  -12.5262   26.4633 C   0  0  0  0  0  0  0  0  0  0  0  0
    6.9780  -11.5456   26.1067 C   0  0  0  0  0  0  0  0  0  0  0  0
    7.9723  -11.8488   25.2255 C   0  0  0  0  0  0  0  0  0  0  0  0
    8.0303  -13.1256   24.7208 C   0  0  0  0  0  0  0  0  0  0  0  0
    7.1238  -14.1345   25.0617 C   0  0  0  0  0  0  0  0  0  0  0  0
   10.2810  -15.9688   23.5467 C   0  0  0  0  0  0  0  0  0  0  0  0
   11.2924  -15.2425   23.3850 O   0  0  0  0  0  0  0  0  0  0  0  0
   10.2254  -13.6450   29.5186 C   0  0  0  0  0  0  0  0  0  0  0  0
    9.4950  -14.8465   28.4050 S   0  0  0  0  0  0  0  0  0  0  0  0
   10.6794  -15.7267   27.4144 C   0  0  0  0  0  0  0  0  0  0  0  0
   10.1818  -16.7104   26.4421 C   0  0  0  0  0  0  0  0  0  0  0  0
   11.1076  -17.3531   25.4912 C   0  0  2  0  0  0  0  0  0  0  0  0
   10.5013  -17.2354   24.1305 N   0  0  0  0  0  0  0  0  0  0  0  0
   11.3002  -18.7757   25.7095 C   0  0  0  0  0  0  0  0  0  0  0  0
   12.3976  -19.2943   26.4115 O   0  0  0  0  0  0  0  0  0  0  0  0
   10.4560  -19.6191   25.2510 O   0  0  0  0  0  0  0  0  0  0  0  0
  2  1  1  0
  3  2  2  0
  4  3  1  0
  5  4  2  0
  5 11  1  0
  6  5  1  0
  7  6  1  0
  7  8  1  1
  9  7  1  0
 10  9  2  0
 11 12  2  0
 12  2  1  0
 13  9  1  0
 14 25  1  0
 14 13  1  0
 14 15  1  1
 16 15  1  0
 17 16  2  0
 18 17  1  0
 19 24  2  0
 19 18  1  0
 20 19  1  0
 21 20  2  0
 21 22  1  0
 22 23  2  0
 23 24  1  0
 24 16  1  0
 25 32  1  0
 26 25  2  0
 27 28  1  0
 28 29  1  0
 29 30  1  0
 31 30  1  1
 31 33  1  0
 32 31  1  0
 33 35  2  0
 33 34  1  0
M  END
$$$$
