YWM.pdb
     RDKit          3D

 35 37  0  0  1  0  0  0  0  0999 V2000
   14.8642  -20.2907   20.2971 O   0  0  0  0  0  0  0  0  0  0  0  0
   13.5038  -20.0519   20.1558 C   0  0  0  0  0  0  0  0  0  0  0  0
   13.0957  -18.7433   19.9686 C   0  0  0  0  0  0  0  0  0  0  0  0
   11.7495  -18.4544   19.8225 C   0  0  0  0  0  0  0  0  0  0  0  0
   10.8261  -19.4629   19.8635 C   0  0  0  0  0  0  0  0  0  0  0  0
    9.3967  -19.1566   19.7066 C   0  0  0  0  0  0  0  0  0  0  0  0
    9.2489  -17.6725   19.4546 C   0  0  2  0  0  0  0  0  0  0  0  0
   10.0195  -17.1938   18.3538 N   0  0  0  0  0  0  0  0  0  0  0  0
    9.5218  -16.8559   20.6560 C   0  0  0  0  0  0  0  0  0  0  0  0
   10.5944  -16.2020   20.7005 O   0  0  0  0  0  0  0  0  0  0  0  0
   11.2447  -20.7531   20.0496 C   0  0  0  0  0  0  0  0  0  0  0  0
   12.5946  -21.0703   20.1992 C   0  0  0  0  0  0  0  0  0  0  0  0
    8.6187  -16.7991   21.7296 N   0  0  0  0  0  0  0  0  0  0  0  0
    8.8681  -16.0231   22.9628 C   0  0  1  0  0  0  0  0  0  0  0  0
    7.8576  -16.4381   23.9580 C   0  0  0  0  0  0  0  0  0  0  0  0
    7.1708  -15.3957   24.7240 C   0  0  0  0  0  0  0  0  0  0  0  0
    6.1753  -15.5633   25.6635 C   0  0  0  0  0  0  0  0  0  0  0  0
    5.7751  -14.3808   26.1334 N   0  0  0  0  0  0  0  0  0  0  0  0
    6.4938  -13.4374   25.5166 C   0  0  0  0  0  0  0  0  0  0  0  0
    6.5135  -12.0512   25.6181 C   0  0  0  0  0  0  0  0  0  0  0  0
    7.3719  -11.2550   24.8758 C   0  0  0  0  0  0  0  0  0  0  0  0
    8.2398  -11.8420   24.0045 C   0  0  0  0  0  0  0  0  0  0  0  0
    8.2287  -13.2118   23.8953 C   0  0  0  0  0  0  0  0  0  0  0  0
    7.3744  -14.0399   24.6304 C   0  0  0  0  0  0  0  0  0  0  0  0
   10.2700  -16.0886   23.3131 C   0  0  0  0  0  0  0  0  0  0  0  0
   11.1186  -15.2592   22.9023 O   0  0  0  0  0  0  0  0  0  0  0  0
    9.7851  -12.8183   28.6276 C   0  0  0  0  0  0  0  0  0  0  0  0
   10.9024  -13.9445   27.7907 S   0  0  0  0  0  0  0  0  0  0  0  0
   10.2515  -15.5851   27.5814 C   0  0  0  0  0  0  0  0  0  0  0  0
   10.0861  -16.1007   26.2149 C   0  0  0  0  0  0  0  0  0  0  0  0
   11.1898  -16.8177   25.5498 C   0  0  2  0  0  0  0  0  0  0  0  0
   10.7492  -17.1169   24.1536 N   0  0  0  0  0  0  0  0  0  0  0  0
   11.5114  -18.1047   26.1404 C   0  0  0  0  0  0  0  0  0  0  0  0
   10.8788  -19.2956   25.7562 O   0  0  0  0  0  0  0  0  0  0  0  0
   12.3995  -18.1909   27.0558 O   0  0  0  0  0  0  0  0  0  0  0  0
  2  1  1  0
  3  2  2  0
  4  3  1  0
  5  4  2  0
  5 11  1  0
  6  5  1  0
  7  6  1  0
  7  8  1  6
  9  7  1  0
 10  9  2  0
 11 12  2  0
 12  2  1  0
 13  9  1  0
 14 25  1  0
 14 13  1  0
 14 15  1  1
 16 15  1  0
 17 16  2  0
 18 17  1  0
 19 24  2  0
 19 18  1  0
 20 19  1  0
 21 20  2  0
 21 22  1  0
 22 23  2  0
 23 24  1  0
 24 16  1  0
 25 32  1  0
 26 25  2  0
 27 28  1  0
 28 29  1  0
 29 30  1  0
 31 30  1  1
 31 33  1  0
 32 31  1  0
 33 35  2  0
 33 34  1  0
M  END
$$$$
