YWM.pdb
     RDKit          3D

 35 37  0  0  1  0  0  0  0  0999 V2000
   10.4137  -19.8273   15.4732 O   0  0  0  0  0  0  0  0  0  0  0  0
   10.6554  -19.4219   16.7789 C   0  0  0  0  0  0  0  0  0  0  0  0
    9.6484  -19.6109   17.7085 C   0  0  0  0  0  0  0  0  0  0  0  0
    9.8416  -19.2230   19.0236 C   0  0  0  0  0  0  0  0  0  0  0  0
   11.0270  -18.6540   19.4008 C   0  0  0  0  0  0  0  0  0  0  0  0
   11.2331  -18.2437   20.7975 C   0  0  0  0  0  0  0  0  0  0  0  0
   10.3487  -17.0501   21.0823 C   0  0  2  0  0  0  0  0  0  0  0  0
   10.6223  -15.9184   20.2582 N   0  0  0  0  0  0  0  0  0  0  0  0
   10.3602  -16.6535   22.5061 C   0  0  0  0  0  0  0  0  0  0  0  0
   11.3438  -15.9979   22.9336 O   0  0  0  0  0  0  0  0  0  0  0  0
   12.0144  -18.4731   18.4697 C   0  0  0  0  0  0  0  0  0  0  0  0
   11.8447  -18.8553   17.1392 C   0  0  0  0  0  0  0  0  0  0  0  0
    9.3092  -16.9906   23.3739 N   0  0  0  0  0  0  0  0  0  0  0  0
    9.3255  -16.7003   24.8233 C   0  0  1  0  0  0  0  0  0  0  0  0
    7.9359  -16.4060   25.2307 C   0  0  0  0  0  0  0  0  0  0  0  0
    7.3772  -15.0954   24.8909 C   0  0  0  0  0  0  0  0  0  0  0  0
    6.6914  -14.7470   23.7463 C   0  0  0  0  0  0  0  0  0  0  0  0
    6.3573  -13.4560   23.7789 N   0  0  0  0  0  0  0  0  0  0  0  0
    6.8134  -12.9501   24.9292 C   0  0  0  0  0  0  0  0  0  0  0  0
    6.7449  -11.6816   25.4931 C   0  0  0  0  0  0  0  0  0  0  0  0
    7.2868  -11.3796   26.7330 C   0  0  0  0  0  0  0  0  0  0  0  0
    7.9171  -12.3583   27.4415 C   0  0  0  0  0  0  0  0  0  0  0  0
    7.9914  -13.6162   26.8934 C   0  0  0  0  0  0  0  0  0  0  0  0
    7.4549  -13.9497   25.6456 C   0  0  0  0  0  0  0  0  0  0  0  0
   10.0626  -17.7283   25.5251 C   0  0  0  0  0  0  0  0  0  0  0  0
    9.6734  -18.9197   25.6013 O   0  0  0  0  0  0  0  0  0  0  0  0
   16.1740  -16.2596   25.1275 C   0  0  0  0  0  0  0  0  0  0  0  0
   15.8556  -17.7430   26.0840 S   0  0  0  0  0  0  0  0  0  0  0  0
   14.1657  -18.2907   26.0264 C   0  0  0  0  0  0  0  0  0  0  0  0
   13.3258  -18.0873   27.2155 C   0  0  0  0  0  0  0  0  0  0  0  0
   11.8783  -18.3638   27.1621 C   0  0  2  0  0  0  0  0  0  0  0  0
   11.2811  -17.4207   26.1686 N   0  0  0  0  0  0  0  0  0  0  0  0
   11.1735  -18.1151   28.4070 C   0  0  0  0  0  0  0  0  0  0  0  0
   10.7619  -16.8347   28.8036 O   0  0  0  0  0  0  0  0  0  0  0  0
   10.9059  -19.0805   29.2011 O   0  0  0  0  0  0  0  0  0  0  0  0
  2  1  1  0
  3  2  2  0
  4  3  1  0
  5  4  2  0
  5 11  1  0
  6  5  1  0
  7  6  1  0
  7  8  1  6
  9  7  1  0
 10  9  2  0
 11 12  2  0
 12  2  1  0
 13  9  1  0
 14 25  1  0
 14 13  1  0
 14 15  1  1
 16 15  1  0
 17 16  2  0
 18 17  1  0
 19 24  2  0
 19 18  1  0
 20 19  1  0
 21 20  2  0
 21 22  1  0
 22 23  2  0
 23 24  1  0
 24 16  1  0
 25 32  1  0
 26 25  2  0
 27 28  1  0
 28 29  1  0
 29 30  1  0
 31 30  1  1
 31 33  1  0
 32 31  1  0
 33 35  2  0
 33 34  1  0
M  END
$$$$
