YWM.pdb
     RDKit          3D

 35 37  0  0  1  0  0  0  0  0999 V2000
    6.8038  -19.5029   15.1872 O   0  0  0  0  0  0  0  0  0  0  0  0
    7.3307  -18.7050   16.1939 C   0  0  0  0  0  0  0  0  0  0  0  0
    8.6295  -18.2528   16.0436 C   0  0  0  0  0  0  0  0  0  0  0  0
    9.1995  -17.4540   17.0205 C   0  0  0  0  0  0  0  0  0  0  0  0
    8.4778  -17.1140   18.1317 C   0  0  0  0  0  0  0  0  0  0  0  0
    9.0822  -16.2645   19.1683 C   0  0  0  0  0  0  0  0  0  0  0  0
    8.0997  -16.1285   20.3103 C   0  0  2  0  0  0  0  0  0  0  0  0
    7.0388  -15.2101   20.0535 N   0  0  0  0  0  0  0  0  0  0  0  0
    8.7536  -15.7996   21.5944 C   0  0  0  0  0  0  0  0  0  0  0  0
    9.4535  -14.7572   21.6564 O   0  0  0  0  0  0  0  0  0  0  0  0
    7.1936  -17.5692   18.2669 C   0  0  0  0  0  0  0  0  0  0  0  0
    6.5967  -18.3746   17.2973 C   0  0  0  0  0  0  0  0  0  0  0  0
    8.6084  -16.6173   22.7264 N   0  0  0  0  0  0  0  0  0  0  0  0
    9.3766  -16.4236   23.9744 C   0  0  1  0  0  0  0  0  0  0  0  0
    8.4302  -16.5582   25.1013 C   0  0  0  0  0  0  0  0  0  0  0  0
    7.4232  -15.5114   25.2891 C   0  0  0  0  0  0  0  0  0  0  0  0
    6.0624  -15.6108   25.0888 C   0  0  0  0  0  0  0  0  0  0  0  0
    5.4688  -14.4426   25.3384 N   0  0  0  0  0  0  0  0  0  0  0  0
    6.4200  -13.5759   25.7006 C   0  0  0  0  0  0  0  0  0  0  0  0
    6.3814  -12.2395   26.0808 C   0  0  0  0  0  0  0  0  0  0  0  0
    7.5154  -11.5263   26.4378 C   0  0  0  0  0  0  0  0  0  0  0  0
    8.7276  -12.1486   26.4200 C   0  0  0  0  0  0  0  0  0  0  0  0
    8.7779  -13.4696   26.0449 C   0  0  0  0  0  0  0  0  0  0  0  0
    7.6515  -14.2138   25.6796 C   0  0  0  0  0  0  0  0  0  0  0  0
   10.5683  -17.2432   23.9537 C   0  0  0  0  0  0  0  0  0  0  0  0
   10.6186  -18.3654   23.3926 O   0  0  0  0  0  0  0  0  0  0  0  0
   16.1080  -14.7063   22.6781 C   0  0  0  0  0  0  0  0  0  0  0  0
   16.6994  -16.3120   23.2158 S   0  0  0  0  0  0  0  0  0  0  0  0
   15.4402  -17.3437   23.9293 C   0  0  0  0  0  0  0  0  0  0  0  0
   14.0566  -16.8474   23.9425 C   0  0  0  0  0  0  0  0  0  0  0  0
   12.9852  -17.6430   24.5698 C   0  0  2  0  0  0  0  0  0  0  0  0
   11.7522  -16.7987   24.5815 N   0  0  0  0  0  0  0  0  0  0  0  0
   13.2309  -17.9919   25.9577 C   0  0  0  0  0  0  0  0  0  0  0  0
   14.1421  -18.9866   26.3406 O   0  0  0  0  0  0  0  0  0  0  0  0
   12.6031  -17.3909   26.8952 O   0  0  0  0  0  0  0  0  0  0  0  0
  2  1  1  0
  3  2  2  0
  4  3  1  0
  5  4  2  0
  5 11  1  0
  6  5  1  0
  7  6  1  0
  7  8  1  6
  9  7  1  0
 10  9  2  0
 11 12  2  0
 12  2  1  0
 13  9  1  0
 14 25  1  0
 14 13  1  0
 14 15  1  1
 16 15  1  0
 17 16  2  0
 18 17  1  0
 19 24  2  0
 19 18  1  0
 20 19  1  0
 21 20  2  0
 21 22  1  0
 22 23  2  0
 23 24  1  0
 24 16  1  0
 25 32  1  0
 26 25  2  0
 27 28  1  0
 28 29  1  0
 29 30  1  0
 31 30  1  1
 31 33  1  0
 32 31  1  0
 33 35  2  0
 33 34  1  0
M  END
$$$$
