MDN.pdb
     RDKit          3D

 25 24  0  0  1  0  0  0  0  0999 V2000
   10.1250  -14.9388  -12.1681 C   0  0  0  0  0  0  0  0  0  0  0  0
   11.0344  -13.5615  -11.3961 S   0  0  0  0  0  0  0  0  0  0  0  0
   12.6095  -13.3881  -12.2780 C   0  0  0  0  0  0  0  0  0  0  0  0
   13.4174  -12.2153  -11.7085 C   0  0  0  0  0  0  0  0  0  0  0  0
   14.6894  -12.0340  -12.4894 C   0  0  2  0  0  0  0  0  0  0  0  0
   15.4198  -13.3025  -12.4306 N   0  0  0  0  0  0  0  0  0  0  0  0
   15.5559  -10.9748  -11.9854 C   0  0  0  0  0  0  0  0  0  0  0  0
   16.2980  -11.1836  -10.9957 O   0  0  0  0  0  0  0  0  0  0  0  0
   15.6223   -9.6665  -12.5615 N   0  0  0  0  0  0  0  0  0  0  0  0
   16.4409   -8.5967  -12.0694 C   0  0  1  0  0  0  0  0  0  0  0  0
   17.1889   -7.8873  -13.1874 C   0  0  0  0  0  0  0  0  0  0  0  0
   18.1426   -8.8237  -13.8338 C   0  0  0  0  0  0  0  0  0  0  0  0
   19.0113   -9.4010  -13.1293 O   0  0  0  0  0  0  0  0  0  0  0  0
   15.7030   -7.6531  -11.2083 C   0  0  0  0  0  0  0  0  0  0  0  0
   14.5782   -7.2201  -11.6101 O   0  0  0  0  0  0  0  0  0  0  0  0
   18.0575   -9.0415  -15.1940 O   0  0  0  0  0  0  0  0  0  0  0  0
   14.3440   -5.8438   -5.9644 N   0  0  0  0  0  0  0  0  0  0  0  0
   15.4161   -5.3912   -6.7606 C   0  0  0  0  0  0  0  0  0  0  0  0
   15.8434   -4.2167   -6.6425 O   0  0  0  0  0  0  0  0  0  0  0  0
   16.0461   -6.2866   -7.7318 C   0  0  0  0  0  0  0  0  0  0  0  0
   15.3852   -6.3293   -9.0879 C   0  0  2  0  0  0  0  0  0  0  0  0
   16.1856   -7.2054   -9.9565 N   0  0  0  0  0  0  0  0  0  0  0  0
   15.4166   -4.9740   -9.6692 C   0  0  0  0  0  0  0  0  0  0  0  0
   16.5091   -4.5823  -10.2076 O   0  0  0  0  0  0  0  0  0  0  0  0
   14.3929   -4.0667   -9.7012 O   0  0  0  0  0  0  0  0  0  0  0  0
  1  2  1  0
  2  3  1  0
  4  3  1  0
  5  4  1  0
  5  7  1  0
  5  6  1  1
  7  9  1  0
  8  7  2  0
  9 10  1  0
 10 14  1  0
 10 11  1  6
 12 11  1  0
 13 12  2  0
 14 15  2  0
 16 12  1  0
 18 17  1  0
 18 20  1  0
 19 18  2  0
 21 20  1  1
 21 23  1  0
 22 14  1  0
 22 21  1  0
 23 24  2  0
 23 25  1  0
M  END
$$$$
