MDN.pdb
     RDKit          3D

 25 24  0  0  1  0  0  0  0  0999 V2000
   23.1201  -19.9489  -18.7327 C   0  0  0  0  0  0  0  0  0  0  0  0
   24.4190  -18.7724  -19.2312 S   0  0  0  0  0  0  0  0  0  0  0  0
   25.7159  -18.8258  -17.9648 C   0  0  0  0  0  0  0  0  0  0  0  0
   25.3865  -19.8825  -16.9030 C   0  0  0  0  0  0  0  0  0  0  0  0
   24.3987  -19.3320  -15.9122 C   0  0  2  0  0  0  0  0  0  0  0  0
   25.0614  -18.2358  -15.2014 N   0  0  0  0  0  0  0  0  0  0  0  0
   23.9281  -20.3041  -14.9322 C   0  0  0  0  0  0  0  0  0  0  0  0
   23.4616  -21.4059  -15.3096 O   0  0  0  0  0  0  0  0  0  0  0  0
   23.9625  -20.0821  -13.5190 N   0  0  0  0  0  0  0  0  0  0  0  0
   23.4297  -20.9808  -12.5365 C   0  0  1  0  0  0  0  0  0  0  0  0
   24.1217  -20.8330  -11.1904 C   0  0  0  0  0  0  0  0  0  0  0  0
   25.5121  -21.3463  -11.2755 C   0  0  0  0  0  0  0  0  0  0  0  0
   26.2954  -20.8626  -12.1338 O   0  0  0  0  0  0  0  0  0  0  0  0
   21.9613  -20.9036  -12.4182 C   0  0  0  0  0  0  0  0  0  0  0  0
   21.4473  -19.8413  -11.9475 O   0  0  0  0  0  0  0  0  0  0  0  0
   25.9173  -22.3441  -10.4122 O   0  0  0  0  0  0  0  0  0  0  0  0
   19.8266  -23.0601   -9.0568 N   0  0  0  0  0  0  0  0  0  0  0  0
   19.2012  -22.8906  -10.3091 C   0  0  0  0  0  0  0  0  0  0  0  0
   18.4446  -23.7816  -10.7672 O   0  0  0  0  0  0  0  0  0  0  0  0
   19.4237  -21.6720  -11.0886 C   0  0  0  0  0  0  0  0  0  0  0  0
   19.6460  -21.8869  -12.5658 C   0  0  2  0  0  0  0  0  0  0  0  0
   21.0958  -21.9541  -12.8024 N   0  0  0  0  0  0  0  0  0  0  0  0
   19.1279  -20.7140  -13.2948 C   0  0  0  0  0  0  0  0  0  0  0  0
   19.8287  -19.6438  -13.2754 O   0  0  0  0  0  0  0  0  0  0  0  0
   17.9611  -20.6339  -14.0049 O   0  0  0  0  0  0  0  0  0  0  0  0
  1  2  1  0
  2  3  1  0
  4  3  1  0
  5  4  1  0
  5  7  1  0
  5  6  1  1
  7  9  1  0
  8  7  2  0
  9 10  1  0
 10 14  1  0
 10 11  1  1
 12 11  1  0
 13 12  2  0
 14 15  2  0
 16 12  1  0
 18 17  1  0
 18 20  1  0
 19 18  2  0
 21 20  1  1
 21 23  1  0
 22 14  1  0
 22 21  1  0
 23 24  2  0
 23 25  1  0
M  END
$$$$
