MDN.pdb
     RDKit          3D

 25 24  0  0  1  0  0  0  0  0999 V2000
   26.1434  -18.6913  -15.7376 C   0  0  0  0  0  0  0  0  0  0  0  0
   25.8708  -17.0404  -16.4587 S   0  0  0  0  0  0  0  0  0  0  0  0
   25.9556  -15.8356  -15.1059 C   0  0  0  0  0  0  0  0  0  0  0  0
   25.8443  -14.4066  -15.6518 C   0  0  0  0  0  0  0  0  0  0  0  0
   24.4197  -14.1030  -16.0244 C   0  0  2  0  0  0  0  0  0  0  0  0
   24.0525  -15.0116  -17.1134 N   0  0  0  0  0  0  0  0  0  0  0  0
   24.1955  -12.7318  -16.4675 C   0  0  0  0  0  0  0  0  0  0  0  0
   24.4848  -11.7701  -15.7156 O   0  0  0  0  0  0  0  0  0  0  0  0
   23.6493  -12.3935  -17.7461 N   0  0  0  0  0  0  0  0  0  0  0  0
   23.4498  -11.0554  -18.2223 C   0  0  1  0  0  0  0  0  0  0  0  0
   23.1970  -11.0130  -19.7213 C   0  0  0  0  0  0  0  0  0  0  0  0
   23.1289   -9.6042  -20.1847 C   0  0  0  0  0  0  0  0  0  0  0  0
   23.8475   -8.7363  -19.6238 O   0  0  0  0  0  0  0  0  0  0  0  0
   22.4207  -10.3192  -17.4639 C   0  0  0  0  0  0  0  0  0  0  0  0
   21.2507  -10.8101  -17.3983 O   0  0  0  0  0  0  0  0  0  0  0  0
   22.2784   -9.2747  -21.2206 O   0  0  0  0  0  0  0  0  0  0  0  0
   19.7831   -7.2647  -14.2301 N   0  0  0  0  0  0  0  0  0  0  0  0
   20.7032   -8.2103  -13.7328 C   0  0  0  0  0  0  0  0  0  0  0  0
   20.7294   -8.4883  -12.5088 O   0  0  0  0  0  0  0  0  0  0  0  0
   21.6364   -8.8819  -14.6383 C   0  0  0  0  0  0  0  0  0  0  0  0
   21.6178   -8.3847  -16.0631 C   0  0  2  0  0  0  0  0  0  0  0  0
   22.6713   -9.0927  -16.8057 N   0  0  0  0  0  0  0  0  0  0  0  0
   21.9574   -6.9493  -16.0647 C   0  0  0  0  0  0  0  0  0  0  0  0
   21.1724   -6.1511  -15.4454 O   0  0  0  0  0  0  0  0  0  0  0  0
   23.0364   -6.3580  -16.6632 O   0  0  0  0  0  0  0  0  0  0  0  0
  1  2  1  0
  2  3  1  0
  4  3  1  0
  5  4  1  0
  5  7  1  0
  5  6  1  6
  7  9  1  0
  8  7  2  0
  9 10  1  0
 10 14  1  0
 10 11  1  6
 12 11  1  0
 13 12  2  0
 14 15  2  0
 16 12  1  0
 18 17  1  0
 18 20  1  0
 19 18  2  0
 21 20  1  1
 21 23  1  0
 22 14  1  0
 22 21  1  0
 23 24  2  0
 23 25  1  0
M  END
$$$$
