MDN.pdb
     RDKit          3D

 25 24  0  0  1  0  0  0  0  0999 V2000
   28.5614  -11.5098  -15.9853 C   0  0  0  0  0  0  0  0  0  0  0  0
   28.7277  -13.2483  -15.4657 S   0  0  0  0  0  0  0  0  0  0  0  0
   27.0569  -13.9444  -15.3538 C   0  0  0  0  0  0  0  0  0  0  0  0
   26.0090  -12.8878  -15.7254 C   0  0  0  0  0  0  0  0  0  0  0  0
   24.6244  -13.4523  -15.5674 C   0  0  2  0  0  0  0  0  0  0  0  0
   24.5151  -14.5957  -16.4766 N   0  0  0  0  0  0  0  0  0  0  0  0
   23.5547  -12.5100  -15.8746 C   0  0  0  0  0  0  0  0  0  0  0  0
   23.3486  -12.1533  -17.0596 O   0  0  0  0  0  0  0  0  0  0  0  0
   22.6916  -11.9432  -14.8838 N   0  0  0  0  0  0  0  0  0  0  0  0
   21.5732  -11.0905  -15.1644 C   0  0  1  0  0  0  0  0  0  0  0  0
   20.2843  -11.6168  -14.5525 C   0  0  0  0  0  0  0  0  0  0  0  0
   19.9371  -12.9299  -15.1520 C   0  0  0  0  0  0  0  0  0  0  0  0
   20.0891  -13.1009  -16.3897 O   0  0  0  0  0  0  0  0  0  0  0  0
   21.8197   -9.6791  -14.8129 C   0  0  0  0  0  0  0  0  0  0  0  0
   22.2247   -9.4099  -13.6391 O   0  0  0  0  0  0  0  0  0  0  0  0
   19.4540  -13.9360  -14.3401 O   0  0  0  0  0  0  0  0  0  0  0  0
   22.2705   -4.4272  -15.1035 N   0  0  0  0  0  0  0  0  0  0  0  0
   22.1349   -4.9529  -16.4048 C   0  0  0  0  0  0  0  0  0  0  0  0
   22.2040   -4.1979  -17.4054 O   0  0  0  0  0  0  0  0  0  0  0  0
   21.9156   -6.3861  -16.6048 C   0  0  0  0  0  0  0  0  0  0  0  0
   21.9288   -7.2188  -15.3462 C   0  0  2  0  0  0  0  0  0  0  0  0
   21.6271   -8.6093  -15.7177 N   0  0  0  0  0  0  0  0  0  0  0  0
   20.8479   -6.7483  -14.4596 C   0  0  0  0  0  0  0  0  0  0  0  0
   21.0024   -5.6179  -13.8808 O   0  0  0  0  0  0  0  0  0  0  0  0
   19.6741   -7.3922  -14.1774 O   0  0  0  0  0  0  0  0  0  0  0  0
  1  2  1  0
  2  3  1  0
  4  3  1  0
  5  4  1  0
  5  7  1  0
  5  6  1  6
  7  9  1  0
  8  7  2  0
  9 10  1  0
 10 14  1  0
 10 11  1  1
 12 11  1  0
 13 12  2  0
 14 15  2  0
 16 12  1  0
 18 17  1  0
 18 20  1  0
 19 18  2  0
 21 20  1  6
 21 23  1  0
 22 14  1  0
 22 21  1  0
 23 24  2  0
 23 25  1  0
M  END
$$$$
