MDN.pdb
     RDKit          3D

 25 24  0  0  1  0  0  0  0  0999 V2000
   23.9102  -15.4315  -15.2727 C   0  0  0  0  0  0  0  0  0  0  0  0
   23.4614  -13.7801  -14.6471 S   0  0  0  0  0  0  0  0  0  0  0  0
   24.5177  -12.5729  -15.4928 C   0  0  0  0  0  0  0  0  0  0  0  0
   24.2151  -11.1536  -14.9962 C   0  0  0  0  0  0  0  0  0  0  0  0
   22.8142  -10.7595  -15.3738 C   0  0  2  0  0  0  0  0  0  0  0  0
   22.7383  -10.7739  -16.8367 N   0  0  0  0  0  0  0  0  0  0  0  0
   22.4152   -9.4390  -14.9006 C   0  0  0  0  0  0  0  0  0  0  0  0
   22.4001   -9.1867  -13.6718 O   0  0  0  0  0  0  0  0  0  0  0  0
   22.0260   -8.3717  -15.7708 N   0  0  0  0  0  0  0  0  0  0  0  0
   21.6243   -7.0659  -15.3346 C   0  0  1  0  0  0  0  0  0  0  0  0
   22.6978   -6.0203  -15.5937 C   0  0  0  0  0  0  0  0  0  0  0  0
   22.2895   -4.7182  -15.0090 C   0  0  0  0  0  0  0  0  0  0  0  0
   21.7433   -4.6967  -13.8752 O   0  0  0  0  0  0  0  0  0  0  0  0
   20.3104   -6.6573  -15.8667 C   0  0  0  0  0  0  0  0  0  0  0  0
   20.0227   -6.9607  -17.0665 O   0  0  0  0  0  0  0  0  0  0  0  0
   22.5165   -3.5578  -15.7210 O   0  0  0  0  0  0  0  0  0  0  0  0
   15.2240   -8.0112  -16.5796 N   0  0  0  0  0  0  0  0  0  0  0  0
   16.0928   -6.9009  -16.5571 C   0  0  0  0  0  0  0  0  0  0  0  0
   15.9711   -5.9817  -17.4035 O   0  0  0  0  0  0  0  0  0  0  0  0
   17.1448   -6.8049  -15.5441 C   0  0  0  0  0  0  0  0  0  0  0  0
   18.0363   -5.5924  -15.6580 C   0  0  2  0  0  0  0  0  0  0  0  0
   19.3540   -5.9436  -15.1077 N   0  0  0  0  0  0  0  0  0  0  0  0
   17.4747   -4.5156  -14.8209 C   0  0  0  0  0  0  0  0  0  0  0  0
   17.9867   -4.3336  -13.6626 O   0  0  0  0  0  0  0  0  0  0  0  0
   16.4488   -3.6700  -15.1441 O   0  0  0  0  0  0  0  0  0  0  0  0
  1  2  1  0
  2  3  1  0
  4  3  1  0
  5  4  1  0
  5  7  1  0
  5  6  1  6
  7  9  1  0
  8  7  2  0
  9 10  1  0
 10 14  1  0
 10 11  1  6
 12 11  1  0
 13 12  2  0
 14 15  2  0
 16 12  1  0
 18 17  1  0
 18 20  1  0
 19 18  2  0
 21 20  1  1
 21 23  1  0
 22 14  1  0
 22 21  1  0
 23 24  2  0
 23 25  1  0
M  END
$$$$
