MDN.pdb
     RDKit          3D

 25 24  0  0  1  0  0  0  0  0999 V2000
   26.8925  -15.5524  -14.5748 C   0  0  0  0  0  0  0  0  0  0  0  0
   25.6545  -14.3060  -15.0584 S   0  0  0  0  0  0  0  0  0  0  0  0
   24.8444  -14.9015  -16.5675 C   0  0  0  0  0  0  0  0  0  0  0  0
   23.8273  -13.8710  -17.0734 C   0  0  0  0  0  0  0  0  0  0  0  0
   22.9533  -13.4059  -15.9419 C   0  0  2  0  0  0  0  0  0  0  0  0
   22.2140  -14.5736  -15.4558 N   0  0  0  0  0  0  0  0  0  0  0  0
   21.9956  -12.3701  -16.3113 C   0  0  0  0  0  0  0  0  0  0  0  0
   22.3787  -11.3470  -16.9280 O   0  0  0  0  0  0  0  0  0  0  0  0
   20.5985  -12.4411  -16.0095 N   0  0  0  0  0  0  0  0  0  0  0  0
   19.6504  -11.3982  -16.2745 C   0  0  1  0  0  0  0  0  0  0  0  0
   18.2163  -11.9018  -16.2237 C   0  0  0  0  0  0  0  0  0  0  0  0
   18.0410  -13.0308  -17.1717 C   0  0  0  0  0  0  0  0  0  0  0  0
   18.4905  -12.9266  -18.3428 O   0  0  0  0  0  0  0  0  0  0  0  0
   19.8511  -10.2059  -15.4294 C   0  0  0  0  0  0  0  0  0  0  0  0
   19.6009  -10.2958  -14.1870 O   0  0  0  0  0  0  0  0  0  0  0  0
   17.3882  -14.1713  -16.7498 O   0  0  0  0  0  0  0  0  0  0  0  0
   21.1696   -5.4049  -13.7194 N   0  0  0  0  0  0  0  0  0  0  0  0
   21.9475   -5.7721  -14.8366 C   0  0  0  0  0  0  0  0  0  0  0  0
   22.8657   -5.0203  -15.2462 O   0  0  0  0  0  0  0  0  0  0  0  0
   21.6961   -7.0361  -15.5301 C   0  0  0  0  0  0  0  0  0  0  0  0
   20.4764   -7.7925  -15.0631 C   0  0  2  0  0  0  0  0  0  0  0  0
   20.3082   -8.9660  -15.9333 N   0  0  0  0  0  0  0  0  0  0  0  0
   19.2924   -6.9310  -15.2404 C   0  0  0  0  0  0  0  0  0  0  0  0
   19.1190   -5.9780  -14.4047 O   0  0  0  0  0  0  0  0  0  0  0  0
   18.3370   -7.0330  -16.2146 O   0  0  0  0  0  0  0  0  0  0  0  0
  1  2  1  0
  2  3  1  0
  4  3  1  0
  5  4  1  0
  5  7  1  0
  5  6  1  6
  7  9  1  0
  8  7  2  0
  9 10  1  0
 10 14  1  0
 10 11  1  1
 12 11  1  0
 13 12  2  0
 14 15  2  0
 16 12  1  0
 18 17  1  0
 18 20  1  0
 19 18  2  0
 21 20  1  6
 21 23  1  0
 22 14  1  0
 22 21  1  0
 23 24  2  0
 23 25  1  0
M  END
$$$$
