MDN.pdb
     RDKit          3D

 25 24  0  0  1  0  0  0  0  0999 V2000
   16.2463  -13.9733  -16.5956 C   0  0  0  0  0  0  0  0  0  0  0  0
   17.3417  -12.5245  -16.4510 S   0  0  0  0  0  0  0  0  0  0  0  0
   16.3480  -11.0529  -16.8189 C   0  0  0  0  0  0  0  0  0  0  0  0
   17.2128   -9.7884  -16.7436 C   0  0  0  0  0  0  0  0  0  0  0  0
   16.4028   -8.5821  -17.1300 C   0  0  2  0  0  0  0  0  0  0  0  0
   16.2942   -8.5815  -18.5910 N   0  0  0  0  0  0  0  0  0  0  0  0
   16.9804   -7.3118  -16.7063 C   0  0  0  0  0  0  0  0  0  0  0  0
   17.5599   -6.5730  -17.5383 O   0  0  0  0  0  0  0  0  0  0  0  0
   16.9305   -6.8308  -15.3595 N   0  0  0  0  0  0  0  0  0  0  0  0
   17.4689   -5.5769  -14.9182 C   0  0  1  0  0  0  0  0  0  0  0  0
   16.6047   -4.9273  -13.8487 C   0  0  0  0  0  0  0  0  0  0  0  0
   15.2774   -4.5757  -14.4133 C   0  0  0  0  0  0  0  0  0  0  0  0
   15.2141   -4.0472  -15.5538 O   0  0  0  0  0  0  0  0  0  0  0  0
   18.8839   -5.6666  -14.5108 C   0  0  0  0  0  0  0  0  0  0  0  0
   19.4993   -4.5935  -14.2213 O   0  0  0  0  0  0  0  0  0  0  0  0
   14.1400   -4.8348  -13.6756 O   0  0  0  0  0  0  0  0  0  0  0  0
   23.5258   -8.6955  -12.9378 N   0  0  0  0  0  0  0  0  0  0  0  0
   22.9587   -8.5342  -14.2186 C   0  0  0  0  0  0  0  0  0  0  0  0
   23.6845   -8.5594  -15.2425 O   0  0  0  0  0  0  0  0  0  0  0  0
   21.5161   -8.3389  -14.3698 C   0  0  0  0  0  0  0  0  0  0  0  0
   21.0310   -6.9298  -14.1315 C   0  0  2  0  0  0  0  0  0  0  0  0
   19.5909   -6.8887  -14.4266 N   0  0  0  0  0  0  0  0  0  0  0  0
   21.7087   -6.0315  -15.0851 C   0  0  0  0  0  0  0  0  0  0  0  0
   21.4205   -6.1535  -16.3256 O   0  0  0  0  0  0  0  0  0  0  0  0
   22.6290   -5.0621  -14.7931 O   0  0  0  0  0  0  0  0  0  0  0  0
  1  2  1  0
  2  3  1  0
  4  3  1  0
  5  4  1  0
  5  7  1  0
  5  6  1  6
  7  9  1  0
  8  7  2  0
  9 10  1  0
 10 14  1  0
 10 11  1  1
 12 11  1  0
 13 12  2  0
 14 15  2  0
 16 12  1  0
 18 17  1  0
 18 20  1  0
 19 18  2  0
 21 20  1  6
 21 23  1  0
 22 14  1  0
 22 21  1  0
 23 24  2  0
 23 25  1  0
M  END
$$$$
