MDN.pdb
     RDKit          3D

 25 24  0  0  1  0  0  0  0  0999 V2000
   29.0160  -18.1831   -5.0109 C   0  0  0  0  0  0  0  0  0  0  0  0
   27.3758  -18.9259   -5.2895 S   0  0  0  0  0  0  0  0  0  0  0  0
   27.6362  -20.5404   -6.0733 C   0  0  0  0  0  0  0  0  0  0  0  0
   27.6849  -20.3948   -7.5994 C   0  0  0  0  0  0  0  0  0  0  0  0
   26.2916  -20.2962   -8.1559 C   0  0  2  0  0  0  0  0  0  0  0  0
   25.5905  -21.5303   -7.7929 N   0  0  0  0  0  0  0  0  0  0  0  0
   26.2349  -20.1382   -9.6045 C   0  0  0  0  0  0  0  0  0  0  0  0
   27.2896  -19.9715  -10.2632 O   0  0  0  0  0  0  0  0  0  0  0  0
   25.0168  -20.1613  -10.3552 N   0  0  0  0  0  0  0  0  0  0  0  0
   24.9256  -20.4466  -11.7577 C   0  0  1  0  0  0  0  0  0  0  0  0
   25.6479  -21.7325  -12.1285 C   0  0  0  0  0  0  0  0  0  0  0  0
   25.7443  -21.8527  -13.6051 C   0  0  0  0  0  0  0  0  0  0  0  0
   25.8130  -22.9963  -14.1264 O   0  0  0  0  0  0  0  0  0  0  0  0
   23.5402  -20.4213  -12.2640 C   0  0  0  0  0  0  0  0  0  0  0  0
   22.7429  -21.3374  -11.8907 O   0  0  0  0  0  0  0  0  0  0  0  0
   25.7575  -20.7079  -14.3761 O   0  0  0  0  0  0  0  0  0  0  0  0
   19.3986  -19.1497  -15.3197 N   0  0  0  0  0  0  0  0  0  0  0  0
   20.6367  -19.2079  -15.9918 C   0  0  0  0  0  0  0  0  0  0  0  0
   20.6926  -19.0470  -17.2356 O   0  0  0  0  0  0  0  0  0  0  0  0
   21.8723  -19.4530  -15.2467 C   0  0  0  0  0  0  0  0  0  0  0  0
   21.7154  -19.5156  -13.7469 C   0  0  2  0  0  0  0  0  0  0  0  0
   23.0544  -19.4277  -13.1455 N   0  0  0  0  0  0  0  0  0  0  0  0
   21.1494  -20.8295  -13.3878 C   0  0  0  0  0  0  0  0  0  0  0  0
   21.8257  -21.8722  -13.6914 O   0  0  0  0  0  0  0  0  0  0  0  0
   19.9606  -21.0699  -12.7545 O   0  0  0  0  0  0  0  0  0  0  0  0
  1  2  1  0
  2  3  1  0
  4  3  1  0
  5  4  1  0
  5  7  1  0
  5  6  1  6
  7  9  1  0
  8  7  2  0
  9 10  1  0
 10 14  1  0
 10 11  1  1
 12 11  1  0
 13 12  2  0
 14 15  2  0
 16 12  1  0
 18 17  1  0
 18 20  1  0
 19 18  2  0
 21 20  1  6
 21 23  1  0
 22 14  1  0
 22 21  1  0
 23 24  2  0
 23 25  1  0
M  END
$$$$
