MDN.pdb
     RDKit          3D

 25 24  0  0  1  0  0  0  0  0999 V2000
   29.1715  -18.3120   -5.5934 C   0  0  0  0  0  0  0  0  0  0  0  0
   27.8368  -19.5058   -5.2564 S   0  0  0  0  0  0  0  0  0  0  0  0
   27.7818  -20.6670   -6.6482 C   0  0  0  0  0  0  0  0  0  0  0  0
   27.1075  -20.0175   -7.8631 C   0  0  0  0  0  0  0  0  0  0  0  0
   27.0745  -20.9824   -9.0157 C   0  0  2  0  0  0  0  0  0  0  0  0
   28.4637  -21.2717   -9.3799 N   0  0  0  0  0  0  0  0  0  0  0  0
   26.3790  -20.4824  -10.1959 C   0  0  0  0  0  0  0  0  0  0  0  0
   26.6125  -19.3264  -10.6239 O   0  0  0  0  0  0  0  0  0  0  0  0
   25.4141  -21.2452  -10.9273 N   0  0  0  0  0  0  0  0  0  0  0  0
   24.7731  -20.8113  -12.1346 C   0  0  1  0  0  0  0  0  0  0  0  0
   25.1463  -21.6807  -13.3252 C   0  0  0  0  0  0  0  0  0  0  0  0
   26.3861  -21.1669  -13.9599 C   0  0  0  0  0  0  0  0  0  0  0  0
   26.7605  -19.9902  -13.7158 O   0  0  0  0  0  0  0  0  0  0  0  0
   23.3125  -20.6612  -11.9920 C   0  0  0  0  0  0  0  0  0  0  0  0
   22.8235  -20.5848  -10.8218 O   0  0  0  0  0  0  0  0  0  0  0  0
   27.1025  -21.9897  -14.8053 O   0  0  0  0  0  0  0  0  0  0  0  0
   18.2765  -19.6247  -12.7870 N   0  0  0  0  0  0  0  0  0  0  0  0
   19.2503  -18.6099  -12.8856 C   0  0  0  0  0  0  0  0  0  0  0  0
   18.9091  -17.4019  -12.9065 O   0  0  0  0  0  0  0  0  0  0  0  0
   20.6712  -18.9525  -12.9610 C   0  0  0  0  0  0  0  0  0  0  0  0
   20.9784  -20.4294  -12.9126 C   0  0  2  0  0  0  0  0  0  0  0  0
   22.4279  -20.5985  -13.0937 N   0  0  0  0  0  0  0  0  0  0  0  0
   20.3060  -21.0870  -14.0489 C   0  0  0  0  0  0  0  0  0  0  0  0
   19.0544  -21.3290  -13.9411 O   0  0  0  0  0  0  0  0  0  0  0  0
   20.8755  -21.4770  -15.2304 O   0  0  0  0  0  0  0  0  0  0  0  0
  1  2  1  0
  2  3  1  0
  4  3  1  0
  5  4  1  0
  5  7  1  0
  5  6  1  6
  7  9  1  0
  8  7  2  0
  9 10  1  0
 10 14  1  0
 10 11  1  6
 12 11  1  0
 13 12  2  0
 14 15  2  0
 16 12  1  0
 18 17  1  0
 18 20  1  0
 19 18  2  0
 21 20  1  6
 21 23  1  0
 22 14  1  0
 22 21  1  0
 23 24  2  0
 23 25  1  0
M  END
$$$$
