MDN.pdb
     RDKit          3D

 25 24  0  0  1  0  0  0  0  0999 V2000
   10.2946  -13.6803  -13.0557 C   0  0  0  0  0  0  0  0  0  0  0  0
   11.8061  -12.7767  -12.5877 S   0  0  0  0  0  0  0  0  0  0  0  0
   12.3843  -13.4637  -11.0122 C   0  0  0  0  0  0  0  0  0  0  0  0
   13.6469  -12.7328  -10.5388 C   0  0  0  0  0  0  0  0  0  0  0  0
   14.4605  -12.2839  -11.7207 C   0  0  2  0  0  0  0  0  0  0  0  0
   15.0067  -13.4867  -12.3541 N   0  0  0  0  0  0  0  0  0  0  0  0
   15.5652  -11.3933  -11.3841 C   0  0  0  0  0  0  0  0  0  0  0  0
   16.7022  -11.8629  -11.1382 O   0  0  0  0  0  0  0  0  0  0  0  0
   15.4392   -9.9697  -11.3124 N   0  0  0  0  0  0  0  0  0  0  0  0
   16.5325   -9.0600  -11.1277 C   0  0  1  0  0  0  0  0  0  0  0  0
   17.6613   -9.3138  -12.1147 C   0  0  0  0  0  0  0  0  0  0  0  0
   18.7565   -8.3356  -11.8955 C   0  0  0  0  0  0  0  0  0  0  0  0
   19.0846   -8.0324  -10.7187 O   0  0  0  0  0  0  0  0  0  0  0  0
   16.1123   -7.6460  -11.1153 C   0  0  0  0  0  0  0  0  0  0  0  0
   15.6792   -7.1340  -12.1944 O   0  0  0  0  0  0  0  0  0  0  0  0
   19.3918   -7.7781  -12.9865 O   0  0  0  0  0  0  0  0  0  0  0  0
   13.8291   -6.1992   -6.7320 N   0  0  0  0  0  0  0  0  0  0  0  0
   13.9699   -5.8052   -8.0785 C   0  0  0  0  0  0  0  0  0  0  0  0
   13.0438   -6.0108   -8.9008 O   0  0  0  0  0  0  0  0  0  0  0  0
   15.1963   -5.1483   -8.5330 C   0  0  0  0  0  0  0  0  0  0  0  0
   15.6097   -5.4699   -9.9484 C   0  0  2  0  0  0  0  0  0  0  0  0
   16.1679   -6.8304   -9.9612 N   0  0  0  0  0  0  0  0  0  0  0  0
   16.6846   -4.5418  -10.3468 C   0  0  0  0  0  0  0  0  0  0  0  0
   17.8536   -5.0284  -10.5302 O   0  0  0  0  0  0  0  0  0  0  0  0
   16.5767   -3.1927  -10.5478 O   0  0  0  0  0  0  0  0  0  0  0  0
  1  2  1  0
  2  3  1  0
  4  3  1  0
  5  4  1  0
  5  7  1  0
  5  6  1  1
  7  9  1  0
  8  7  2  0
  9 10  1  0
 10 14  1  0
 10 11  1  6
 12 11  1  0
 13 12  2  0
 14 15  2  0
 16 12  1  0
 18 17  1  0
 18 20  1  0
 19 18  2  0
 21 20  1  1
 21 23  1  0
 22 14  1  0
 22 21  1  0
 23 24  2  0
 23 25  1  0
M  END
$$$$
