MDN.pdb
     RDKit          3D

 25 24  0  0  1  0  0  0  0  0999 V2000
   20.6752  -12.1582  -20.7117 C   0  0  0  0  0  0  0  0  0  0  0  0
   20.5092  -11.0115  -19.3055 S   0  0  0  0  0  0  0  0  0  0  0  0
   18.8770  -11.2907  -18.5662 C   0  0  0  0  0  0  0  0  0  0  0  0
   18.6314  -10.3033  -17.4185 C   0  0  0  0  0  0  0  0  0  0  0  0
   19.8132  -10.2835  -16.4892 C   0  0  2  0  0  0  0  0  0  0  0  0
   19.7626  -11.5140  -15.6958 N   0  0  0  0  0  0  0  0  0  0  0  0
   19.8408   -9.1444  -15.5792 C   0  0  0  0  0  0  0  0  0  0  0  0
   18.8515   -8.8958  -14.8488 O   0  0  0  0  0  0  0  0  0  0  0  0
   20.9574   -8.2580  -15.4557 N   0  0  0  0  0  0  0  0  0  0  0  0
   20.9543   -7.0386  -14.7008 C   0  0  1  0  0  0  0  0  0  0  0  0
   22.3571   -6.6105  -14.2987 C   0  0  0  0  0  0  0  0  0  0  0  0
   22.2925   -5.3961  -13.4471 C   0  0  0  0  0  0  0  0  0  0  0  0
   21.8537   -5.4916  -12.2713 O   0  0  0  0  0  0  0  0  0  0  0  0
   20.2094   -5.9508  -15.3628 C   0  0  0  0  0  0  0  0  0  0  0  0
   20.4918   -5.6714  -16.5696 O   0  0  0  0  0  0  0  0  0  0  0  0
   22.7142   -4.1872  -13.9625 O   0  0  0  0  0  0  0  0  0  0  0  0
   14.6513   -3.7583  -15.8634 N   0  0  0  0  0  0  0  0  0  0  0  0
   16.0460   -3.5730  -15.9564 C   0  0  0  0  0  0  0  0  0  0  0  0
   16.5162   -2.5920  -16.5828 O   0  0  0  0  0  0  0  0  0  0  0  0
   16.9623   -4.5206  -15.3205 C   0  0  0  0  0  0  0  0  0  0  0  0
   18.4263   -4.1718  -15.4339 C   0  0  2  0  0  0  0  0  0  0  0  0
   19.1959   -5.2021  -14.7206 N   0  0  0  0  0  0  0  0  0  0  0  0
   18.6579   -2.8863  -14.7486 C   0  0  0  0  0  0  0  0  0  0  0  0
   18.9541   -2.9197  -13.5045 O   0  0  0  0  0  0  0  0  0  0  0  0
   18.5919   -1.6352  -15.2987 O   0  0  0  0  0  0  0  0  0  0  0  0
  1  2  1  0
  2  3  1  0
  4  3  1  0
  5  4  1  0
  5  7  1  0
  5  6  1  1
  7  9  1  0
  8  7  2  0
  9 10  1  0
 10 14  1  0
 10 11  1  6
 12 11  1  0
 13 12  2  0
 14 15  2  0
 16 12  1  0
 18 17  1  0
 18 20  1  0
 19 18  2  0
 21 20  1  1
 21 23  1  0
 22 14  1  0
 22 21  1  0
 23 24  2  0
 23 25  1  0
M  END
$$$$
