MDN.pdb
     RDKit          3D

 25 24  0  0  1  0  0  0  0  0999 V2000
   27.5046  -20.0699   -5.5555 C   0  0  0  0  0  0  0  0  0  0  0  0
   26.6687  -20.1403   -7.1729 S   0  0  0  0  0  0  0  0  0  0  0  0
   27.9406  -19.9473   -8.4510 C   0  0  0  0  0  0  0  0  0  0  0  0
   27.2936  -19.7021   -9.8199 C   0  0  0  0  0  0  0  0  0  0  0  0
   26.3793  -20.8423  -10.1732 C   0  0  2  0  0  0  0  0  0  0  0  0
   27.2239  -22.0076  -10.4467 N   0  0  0  0  0  0  0  0  0  0  0  0
   25.5364  -20.5956  -11.3374 C   0  0  0  0  0  0  0  0  0  0  0  0
   24.7550  -19.6143  -11.3545 O   0  0  0  0  0  0  0  0  0  0  0  0
   25.5381  -21.4238  -12.5044 N   0  0  0  0  0  0  0  0  0  0  0  0
   24.7317  -21.1981  -13.6687 C   0  0  1  0  0  0  0  0  0  0  0  0
   25.1236  -22.1089  -14.8219 C   0  0  0  0  0  0  0  0  0  0  0  0
   26.4440  -21.7011  -15.3644 C   0  0  0  0  0  0  0  0  0  0  0  0
   26.5947  -20.5306  -15.8021 O   0  0  0  0  0  0  0  0  0  0  0  0
   23.2843  -21.2480  -13.3881 C   0  0  0  0  0  0  0  0  0  0  0  0
   22.8403  -22.1946  -12.6663 O   0  0  0  0  0  0  0  0  0  0  0  0
   27.4791  -22.6140  -15.3785 O   0  0  0  0  0  0  0  0  0  0  0  0
   19.0983  -17.0117  -13.0041 N   0  0  0  0  0  0  0  0  0  0  0  0
   19.7236  -18.2541  -12.7729 C   0  0  0  0  0  0  0  0  0  0  0  0
   19.7587  -18.7423  -11.6169 O   0  0  0  0  0  0  0  0  0  0  0  0
   20.3362  -18.9913  -13.8789 C   0  0  0  0  0  0  0  0  0  0  0  0
   20.9441  -20.3211  -13.5047 C   0  0  2  0  0  0  0  0  0  0  0  0
   22.3648  -20.2942  -13.8832 N   0  0  0  0  0  0  0  0  0  0  0  0
   20.2896  -21.3775  -14.2992 C   0  0  0  0  0  0  0  0  0  0  0  0
   20.6751  -21.5381  -15.5085 O   0  0  0  0  0  0  0  0  0  0  0  0
   19.2975  -22.2245  -13.8863 O   0  0  0  0  0  0  0  0  0  0  0  0
  1  2  1  0
  2  3  1  0
  4  3  1  0
  5  4  1  0
  5  7  1  0
  5  6  1  6
  7  9  1  0
  8  7  2  0
  9 10  1  0
 10 14  1  0
 10 11  1  6
 12 11  1  0
 13 12  2  0
 14 15  2  0
 16 12  1  0
 18 17  1  0
 18 20  1  0
 19 18  2  0
 21 20  1  6
 21 23  1  0
 22 14  1  0
 22 21  1  0
 23 24  2  0
 23 25  1  0
M  END
$$$$
