RKY.pdb
     RDKit          3D

 33 33  0  0  1  0  0  0  0  0999 V2000
   18.4373  -17.4451  -13.9891 N   0  0  0  0  0  0  0  0  0  0  0  0
   18.6830  -16.0638  -14.2865 C   0  0  0  0  0  0  0  0  0  0  0  0
   18.2119  -15.1570  -13.5209 N   0  0  0  0  0  0  0  0  0  0  0  0
   19.4357  -15.6812  -15.4236 N   0  0  0  0  0  0  0  0  0  0  0  0
   20.0611  -16.6732  -16.2663 C   0  0  0  0  0  0  0  0  0  0  0  0
   21.1002  -17.5009  -15.5320 C   0  0  0  0  0  0  0  0  0  0  0  0
   22.4280  -17.3306  -16.2129 C   0  0  0  0  0  0  0  0  0  0  0  0
   22.8680  -18.5455  -16.9572 C   0  0  2  0  0  0  0  0  0  0  0  0
   21.8875  -19.5297  -17.2343 N   0  0  0  0  0  0  0  0  0  0  0  0
   24.0534  -19.1957  -16.2972 C   0  0  0  0  0  0  0  0  0  0  0  0
   23.7933  -20.1238  -15.4532 O   0  0  0  0  0  0  0  0  0  0  0  0
   18.3635  -14.1518  -13.6911 N   0  0  0  0  0  0  0  0  0  0  0  0
   25.3859  -18.8383  -16.5602 C   0  0  2  0  0  0  0  0  0  0  0  0
   26.5319  -19.4639  -15.9263 C   0  0  0  0  0  0  0  0  0  0  0  0
   27.7788  -19.3178  -16.7185 C   0  0  0  0  0  0  0  0  0  0  0  0
   28.0057  -20.3823  -17.7629 C   0  0  0  0  0  0  0  0  0  0  0  0
   29.2941  -20.2025  -18.5267 C   0  0  0  0  0  0  0  0  0  0  0  0
   29.4425  -21.2913  -19.5924 N   0  0  0  0  0  0  0  0  0  0  0  0
   30.6229  -21.0779  -20.3845 C   0  0  0  0  0  0  0  0  0  0  0  0
   26.6825  -18.9727  -14.5134 O   0  0  0  0  0  0  0  0  0  0  0  0
   26.1762  -17.8781  -14.1736 O   0  0  0  0  0  0  0  0  0  0  0  0
   22.7854  -21.2042   -7.4496 C   0  0  0  0  0  0  0  0  0  0  0  0
   23.4535  -21.0584   -8.6498 C   0  0  0  0  0  0  0  0  0  0  0  0
   22.9266  -20.2899   -9.6820 C   0  0  0  0  0  0  0  0  0  0  0  0
   23.5709  -20.1345  -10.8728 C   0  0  0  0  0  0  0  0  0  0  0  0
   24.8068  -20.7723  -11.0614 C   0  0  0  0  0  0  0  0  0  0  0  0
   25.4582  -20.6045  -12.3739 C   0  0  2  0  0  0  0  0  0  0  0  0
   26.7972  -19.9639  -12.2216 N   0  0  0  0  0  0  0  0  0  0  0  0
   27.3893  -19.7169  -13.5366 C   0  0  0  0  0  0  0  0  0  0  0  0
   27.7283  -20.7162  -11.3576 O   0  0  0  0  0  0  0  0  0  0  0  0
   28.2424  -21.9758  -11.6535 C   0  0  0  0  0  0  0  0  0  0  0  0
   25.3351  -21.5359  -10.0426 C   0  0  0  0  0  0  0  0  0  0  0  0
   24.6652  -21.6744   -8.8560 O   0  0  0  0  0  0  0  0  0  0  0  0
  1  2  1  0
  2  3  2  0
  4  2  1  0
  4  5  1  0
  6  5  1  0
  7  6  1  0
  8  7  1  0
  8  9  1  1
 10  8  1  0
 11 10  2  0
 12 10  1  0
 13 12  1  0
 13 14  1  6
 14 15  1  0
 16 15  1  0
 16 17  1  0
 17 18  1  0
 19 13  1  0
 19 28  1  0
 20 19  2  0
 21 22  1  0
 22 32  2  0
 23 24  2  0
 23 22  1  0
 24 25  1  0
 25 26  1  0
 25 31  2  0
 27 28  1  0
 27 26  1  6
 29 27  1  0
 29 30  1  0
 32 31  1  0
 33 29  2  0
M  END
$$$$
