RKY.pdb
     RDKit          3D

 33 33  0  0  1  0  0  0  0  0999 V2000
   32.5877  -27.4984  -18.0885 N   0  0  0  0  0  0  0  0  0  0  0  0
   32.4854  -28.7874  -18.7090 C   0  0  0  0  0  0  0  0  0  0  0  0
   33.5454  -29.4197  -19.0356 N   0  0  0  0  0  0  0  0  0  0  0  0
   31.2244  -29.3746  -18.9761 N   0  0  0  0  0  0  0  0  0  0  0  0
   30.0042  -28.7456  -18.5278 C   0  0  0  0  0  0  0  0  0  0  0  0
   29.2868  -29.5462  -17.4562 C   0  0  0  0  0  0  0  0  0  0  0  0
   28.2659  -30.4315  -18.1118 C   0  0  0  0  0  0  0  0  0  0  0  0
   28.0815  -31.7354  -17.4122 C   0  0  2  0  0  0  0  0  0  0  0  0
   28.8718  -32.8265  -17.8498 N   0  0  0  0  0  0  0  0  0  0  0  0
   26.6345  -32.1468  -17.3881 C   0  0  0  0  0  0  0  0  0  0  0  0
   25.9704  -31.9454  -18.4650 O   0  0  0  0  0  0  0  0  0  0  0  0
   33.5233  -30.3249  -19.5280 N   0  0  0  0  0  0  0  0  0  0  0  0
   26.0055  -32.7221  -16.2719 C   0  0  1  0  0  0  0  0  0  0  0  0
   24.6203  -33.1550  -16.2572 C   0  0  0  0  0  0  0  0  0  0  0  0
   24.4793  -34.6317  -16.1974 C   0  0  0  0  0  0  0  0  0  0  0  0
   24.6423  -35.3471  -17.5152 C   0  0  0  0  0  0  0  0  0  0  0  0
   24.0747  -34.5802  -18.6837 C   0  0  0  0  0  0  0  0  0  0  0  0
   24.1544  -35.4158  -19.9637 N   0  0  0  0  0  0  0  0  0  0  0  0
   23.2099  -34.9494  -20.9418 C   0  0  0  0  0  0  0  0  0  0  0  0
   23.8642  -32.4562  -15.1616 O   0  0  0  0  0  0  0  0  0  0  0  0
   24.0253  -32.8047  -13.9688 O   0  0  0  0  0  0  0  0  0  0  0  0
   18.9571  -27.1691  -10.3388 C   0  0  0  0  0  0  0  0  0  0  0  0
   19.7941  -27.7037  -11.2989 C   0  0  0  0  0  0  0  0  0  0  0  0
   19.4635  -27.6651  -12.6490 C   0  0  0  0  0  0  0  0  0  0  0  0
   20.2762  -28.1872  -13.6104 C   0  0  0  0  0  0  0  0  0  0  0  0
   21.4863  -28.7832  -13.2225 C   0  0  0  0  0  0  0  0  0  0  0  0
   22.3238  -29.3632  -14.2890 C   0  0  1  0  0  0  0  0  0  0  0  0
   22.1294  -30.8404  -14.3694 N   0  0  0  0  0  0  0  0  0  0  0  0
   22.9606  -31.4000  -15.4356 C   0  0  0  0  0  0  0  0  0  0  0  0
   20.7209  -31.2533  -14.5278 O   0  0  0  0  0  0  0  0  0  0  0  0
   19.8973  -31.6778  -13.4886 C   0  0  0  0  0  0  0  0  0  0  0  0
   21.8204  -28.8252  -11.8859 C   0  0  0  0  0  0  0  0  0  0  0  0
   20.9840  -28.2923  -10.9412 O   0  0  0  0  0  0  0  0  0  0  0  0
  1  2  1  0
  2  3  2  0
  4  2  1  0
  4  5  1  0
  6  5  1  0
  7  6  1  0
  8  7  1  0
  8  9  1  6
 10  8  1  0
 11 10  2  0
 12 10  1  0
 13 12  1  0
 13 14  1  6
 14 15  1  0
 16 15  1  0
 16 17  1  0
 17 18  1  0
 19 13  1  0
 19 28  1  0
 20 19  2  0
 21 22  1  0
 22 32  2  0
 23 24  2  0
 23 22  1  0
 24 25  1  0
 25 26  1  0
 25 31  2  0
 27 28  1  0
 27 26  1  1
 29 27  1  0
 29 30  1  0
 32 31  1  0
 33 29  2  0
M  END
$$$$
