RKY.pdb
     RDKit          3D

 33 33  0  0  1  0  0  0  0  0999 V2000
   25.4582  -29.4750  -18.2907 N   0  0  0  0  0  0  0  0  0  0  0  0
   25.9115  -29.5224  -16.9308 C   0  0  0  0  0  0  0  0  0  0  0  0
   26.0302  -30.6486  -16.3412 N   0  0  0  0  0  0  0  0  0  0  0  0
   26.2249  -28.3377  -16.2207 N   0  0  0  0  0  0  0  0  0  0  0  0
   26.0131  -27.0391  -16.8157 C   0  0  0  0  0  0  0  0  0  0  0  0
   27.1701  -26.0856  -16.5787 C   0  0  0  0  0  0  0  0  0  0  0  0
   27.9143  -25.8932  -17.8690 C   0  0  0  0  0  0  0  0  0  0  0  0
   29.1089  -25.0110  -17.7335 C   0  0  2  0  0  0  0  0  0  0  0  0
   30.2606  -25.5642  -17.1215 N   0  0  0  0  0  0  0  0  0  0  0  0
   28.7604  -23.7132  -17.0569 C   0  0  0  0  0  0  0  0  0  0  0  0
   29.1591  -23.5806  -15.8465 O   0  0  0  0  0  0  0  0  0  0  0  0
   26.2763  -30.7306  -15.3436 N   0  0  0  0  0  0  0  0  0  0  0  0
   28.0413  -22.6786  -17.6771 C   0  0  1  0  0  0  0  0  0  0  0  0
   27.7712  -21.3951  -17.0557 C   0  0  0  0  0  0  0  0  0  0  0  0
   27.3304  -20.3653  -18.0300 C   0  0  0  0  0  0  0  0  0  0  0  0
   28.3678  -19.9542  -19.0447 C   0  0  0  0  0  0  0  0  0  0  0  0
   28.6525  -18.4727  -19.0390 C   0  0  0  0  0  0  0  0  0  0  0  0
   29.6402  -18.1118  -20.1513 N   0  0  0  0  0  0  0  0  0  0  0  0
   29.9144  -16.7008  -20.1575 C   0  0  0  0  0  0  0  0  0  0  0  0
   26.8101  -21.5586  -15.9112 O   0  0  0  0  0  0  0  0  0  0  0  0
   25.8458  -22.3524  -16.0117 O   0  0  0  0  0  0  0  0  0  0  0  0
   22.9826  -20.9730   -8.0263 C   0  0  0  0  0  0  0  0  0  0  0  0
   23.8154  -20.7868   -9.1125 C   0  0  0  0  0  0  0  0  0  0  0  0
   25.0779  -21.3675   -9.1636 C   0  0  0  0  0  0  0  0  0  0  0  0
   25.9134  -21.1952  -10.2265 C   0  0  0  0  0  0  0  0  0  0  0  0
   25.4833  -20.4049  -11.3037 C   0  0  0  0  0  0  0  0  0  0  0  0
   26.4275  -20.2178  -12.4212 C   0  0  2  0  0  0  0  0  0  0  0  0
   25.9911  -20.9952  -13.6178 N   0  0  0  0  0  0  0  0  0  0  0  0
   26.9592  -20.8338  -14.7030 C   0  0  0  0  0  0  0  0  0  0  0  0
   24.6257  -20.6738  -14.0778 O   0  0  0  0  0  0  0  0  0  0  0  0
   23.4816  -21.3832  -13.7223 C   0  0  0  0  0  0  0  0  0  0  0  0
   24.2331  -19.8260  -11.2597 C   0  0  0  0  0  0  0  0  0  0  0  0
   23.4144  -20.0165  -10.1784 O   0  0  0  0  0  0  0  0  0  0  0  0
  1  2  1  0
  2  3  2  0
  4  2  1  0
  4  5  1  0
  6  5  1  0
  7  6  1  0
  8  7  1  0
  8  9  1  1
 10  8  1  0
 11 10  2  0
 12 10  1  0
 13 12  1  0
 13 14  1  1
 14 15  1  0
 16 15  1  0
 16 17  1  0
 17 18  1  0
 19 13  1  0
 19 28  1  0
 20 19  2  0
 21 22  1  0
 22 32  2  0
 23 24  2  0
 23 22  1  0
 24 25  1  0
 25 26  1  0
 25 31  2  0
 27 28  1  0
 27 26  1  1
 29 27  1  0
 29 30  1  0
 32 31  1  0
 33 29  2  0
M  END
$$$$
