RKY.pdb
     RDKit          3D

 33 33  0  0  1  0  0  0  0  0999 V2000
   23.3262  -22.8829   -7.3296 N   0  0  0  0  0  0  0  0  0  0  0  0
   22.6410  -21.6380   -7.1351 C   0  0  0  0  0  0  0  0  0  0  0  0
   21.7157  -21.5539   -6.2593 N   0  0  0  0  0  0  0  0  0  0  0  0
   22.9659  -20.4942   -7.9046 N   0  0  0  0  0  0  0  0  0  0  0  0
   23.8572  -20.5914   -9.0366 C   0  0  0  0  0  0  0  0  0  0  0  0
   25.2762  -20.1635   -8.7089 C   0  0  0  0  0  0  0  0  0  0  0  0
   26.0822  -20.1397   -9.9760 C   0  0  0  0  0  0  0  0  0  0  0  0
   25.6275  -21.1425  -10.9817 C   0  0  2  0  0  0  0  0  0  0  0  0
   26.2605  -22.4097  -10.9696 N   0  0  0  0  0  0  0  0  0  0  0  0
   25.6668  -20.5795  -12.3764 C   0  0  0  0  0  0  0  0  0  0  0  0
   25.1567  -19.4146  -12.5316 O   0  0  0  0  0  0  0  0  0  0  0  0
   21.2037  -20.6788   -6.0740 N   0  0  0  0  0  0  0  0  0  0  0  0
   26.2206  -21.2562  -13.4754 C   0  0  2  0  0  0  0  0  0  0  0  0
   26.2717  -20.7111  -14.8196 C   0  0  0  0  0  0  0  0  0  0  0  0
   26.9798  -21.6001  -15.7746 C   0  0  0  0  0  0  0  0  0  0  0  0
   27.0448  -21.0964  -17.1949 C   0  0  0  0  0  0  0  0  0  0  0  0
   28.2813  -20.2812  -17.4819 C   0  0  0  0  0  0  0  0  0  0  0  0
   28.2899  -19.8145  -18.9397 N   0  0  0  0  0  0  0  0  0  0  0  0
   28.0913  -20.9212  -19.8352 C   0  0  0  0  0  0  0  0  0  0  0  0
   24.8920  -20.3401  -15.2876 O   0  0  0  0  0  0  0  0  0  0  0  0
   23.9396  -21.1377  -15.1239 O   0  0  0  0  0  0  0  0  0  0  0  0
   17.7384  -16.1084  -17.8947 C   0  0  0  0  0  0  0  0  0  0  0  0
   19.0066  -16.4299  -17.4514 C   0  0  0  0  0  0  0  0  0  0  0  0
   19.2104  -17.0207  -16.2092 C   0  0  0  0  0  0  0  0  0  0  0  0
   20.4537  -17.3449  -15.7550 C   0  0  0  0  0  0  0  0  0  0  0  0
   21.5637  -17.0724  -16.5695 C   0  0  0  0  0  0  0  0  0  0  0  0
   22.8942  -17.4102  -16.0303 C   0  0  1  0  0  0  0  0  0  0  0  0
   23.2874  -18.7953  -16.4220 N   0  0  0  0  0  0  0  0  0  0  0  0
   24.6271  -19.0994  -15.9184 C   0  0  0  0  0  0  0  0  0  0  0  0
   23.1974  -19.0580  -17.8719 O   0  0  0  0  0  0  0  0  0  0  0  0
   22.0748  -19.5700  -18.5169 C   0  0  0  0  0  0  0  0  0  0  0  0
   21.3692  -16.4868  -17.8021 C   0  0  0  0  0  0  0  0  0  0  0  0
   20.1079  -16.1717  -18.2330 O   0  0  0  0  0  0  0  0  0  0  0  0
  1  2  1  0
  2  3  2  0
  4  2  1  0
  4  5  1  0
  6  5  1  0
  7  6  1  0
  8  7  1  0
  8  9  1  6
 10  8  1  0
 11 10  2  0
 12 10  1  0
 13 12  1  0
 13 14  1  6
 14 15  1  0
 16 15  1  0
 16 17  1  0
 17 18  1  0
 19 13  1  0
 19 28  1  0
 20 19  2  0
 21 22  1  0
 22 32  2  0
 23 24  2  0
 23 22  1  0
 24 25  1  0
 25 26  1  0
 25 31  2  0
 27 28  1  0
 27 26  1  1
 29 27  1  0
 29 30  1  0
 32 31  1  0
 33 29  2  0
M  END
$$$$
