RKY.pdb
     RDKit          3D

 33 33  0  0  1  0  0  0  0  0999 V2000
   31.2341  -22.7203  -19.0557 N   0  0  0  0  0  0  0  0  0  0  0  0
   31.1190  -21.5420  -19.8653 C   0  0  0  0  0  0  0  0  0  0  0  0
   31.6683  -21.5084  -21.0174 N   0  0  0  0  0  0  0  0  0  0  0  0
   30.4105  -20.4043  -19.4076 N   0  0  0  0  0  0  0  0  0  0  0  0
   29.3933  -20.5248  -18.3897 C   0  0  0  0  0  0  0  0  0  0  0  0
   28.0056  -20.7423  -18.9651 C   0  0  0  0  0  0  0  0  0  0  0  0
   27.0149  -20.8004  -17.8377 C   0  0  0  0  0  0  0  0  0  0  0  0
   27.4435  -21.6933  -16.7230 C   0  0  2  0  0  0  0  0  0  0  0  0
   27.8730  -22.9995  -17.0636 N   0  0  0  0  0  0  0  0  0  0  0  0
   26.3912  -21.7789  -15.6511 C   0  0  0  0  0  0  0  0  0  0  0  0
   25.2997  -22.3666  -15.9746 O   0  0  0  0  0  0  0  0  0  0  0  0
   31.5979  -20.6924  -21.6432 N   0  0  0  0  0  0  0  0  0  0  0  0
   26.5522  -21.2587  -14.3565 C   0  0  2  0  0  0  0  0  0  0  0  0
   25.5448  -21.3516  -13.3158 C   0  0  0  0  0  0  0  0  0  0  0  0
   26.0520  -20.9333  -11.9848 C   0  0  0  0  0  0  0  0  0  0  0  0
   25.0778  -21.0969  -10.8450 C   0  0  0  0  0  0  0  0  0  0  0  0
   25.6749  -20.7683   -9.4991 C   0  0  0  0  0  0  0  0  0  0  0  0
   24.6830  -21.0909   -8.3788 N   0  0  0  0  0  0  0  0  0  0  0  0
   25.1910  -20.6641   -7.1036 C   0  0  0  0  0  0  0  0  0  0  0  0
   24.3019  -20.6093  -13.7215 O   0  0  0  0  0  0  0  0  0  0  0  0
   24.3661  -19.3921  -14.0116 O   0  0  0  0  0  0  0  0  0  0  0  0
   16.6755  -18.1229  -16.9031 C   0  0  0  0  0  0  0  0  0  0  0  0
   17.8581  -18.7610  -16.5832 C   0  0  0  0  0  0  0  0  0  0  0  0
   17.9129  -20.1402  -16.4139 C   0  0  0  0  0  0  0  0  0  0  0  0
   19.0701  -20.7872  -16.0983 C   0  0  0  0  0  0  0  0  0  0  0  0
   20.2441  -20.0345  -15.9392 C   0  0  0  0  0  0  0  0  0  0  0  0
   21.4691  -20.7673  -15.5684 C   0  0  1  0  0  0  0  0  0  0  0  0
   21.8423  -20.4901  -14.1505 N   0  0  0  0  0  0  0  0  0  0  0  0
   23.0395  -21.2490  -13.7877 C   0  0  0  0  0  0  0  0  0  0  0  0
   20.7526  -20.7315  -13.1843 O   0  0  0  0  0  0  0  0  0  0  0  0
   19.8230  -19.7761  -12.7824 C   0  0  0  0  0  0  0  0  0  0  0  0
   20.1972  -18.6670  -16.1054 C   0  0  0  0  0  0  0  0  0  0  0  0
   19.0197  -18.0433  -16.4226 O   0  0  0  0  0  0  0  0  0  0  0  0
  1  2  1  0
  2  3  2  0
  4  2  1  0
  4  5  1  0
  6  5  1  0
  7  6  1  0
  8  7  1  0
  8  9  1  6
 10  8  1  0
 11 10  2  0
 12 10  1  0
 13 12  1  0
 13 14  1  1
 14 15  1  0
 16 15  1  0
 16 17  1  0
 17 18  1  0
 19 13  1  0
 19 28  1  0
 20 19  2  0
 21 22  1  0
 22 32  2  0
 23 24  2  0
 23 22  1  0
 24 25  1  0
 25 26  1  0
 25 31  2  0
 27 28  1  0
 27 26  1  6
 29 27  1  0
 29 30  1  0
 32 31  1  0
 33 29  2  0
M  END
$$$$
