RKY.pdb
     RDKit          3D

 33 33  0  0  1  0  0  0  0  0999 V2000
   16.6649  -24.2721    4.7684 N   0  0  0  0  0  0  0  0  0  0  0  0
   17.1212  -24.2469    3.4089 C   0  0  0  0  0  0  0  0  0  0  0  0
   16.9105  -25.2524    2.6508 N   0  0  0  0  0  0  0  0  0  0  0  0
   17.8122  -23.1256    2.8881 N   0  0  0  0  0  0  0  0  0  0  0  0
   17.6611  -21.8193    3.4849 C   0  0  0  0  0  0  0  0  0  0  0  0
   16.2367  -21.2997    3.4146 C   0  0  0  0  0  0  0  0  0  0  0  0
   16.2136  -19.8767    3.8945 C   0  0  0  0  0  0  0  0  0  0  0  0
   14.8832  -19.2226    3.7330 C   0  0  2  0  0  0  0  0  0  0  0  0
   14.3005  -19.2425    2.4419 N   0  0  0  0  0  0  0  0  0  0  0  0
   14.8982  -17.8101    4.2507 C   0  0  0  0  0  0  0  0  0  0  0  0
   14.7126  -16.8865    3.3823 O   0  0  0  0  0  0  0  0  0  0  0  0
   17.2225  -25.2834    1.6689 N   0  0  0  0  0  0  0  0  0  0  0  0
   15.1004  -17.4758    5.5997 C   0  0  2  0  0  0  0  0  0  0  0  0
   15.0539  -16.1190    6.1131 C   0  0  0  0  0  0  0  0  0  0  0  0
   14.1934  -15.9878    7.3156 C   0  0  0  0  0  0  0  0  0  0  0  0
   14.0631  -14.5886    7.8636 C   0  0  0  0  0  0  0  0  0  0  0  0
   13.1820  -14.5069    9.0854 C   0  0  0  0  0  0  0  0  0  0  0  0
   13.0184  -13.0522    9.5328 N   0  0  0  0  0  0  0  0  0  0  0  0
   12.2251  -12.9681   10.7285 C   0  0  0  0  0  0  0  0  0  0  0  0
   16.4453  -15.5951    6.3366 O   0  0  0  0  0  0  0  0  0  0  0  0
   17.3562  -16.3734    6.7031 O   0  0  0  0  0  0  0  0  0  0  0  0
   23.4007  -10.3149    7.0452 C   0  0  0  0  0  0  0  0  0  0  0  0
   22.1188  -10.7938    6.8568 C   0  0  0  0  0  0  0  0  0  0  0  0
   21.7634  -11.4712    5.6955 C   0  0  0  0  0  0  0  0  0  0  0  0
   20.5041  -11.9508    5.4917 C   0  0  0  0  0  0  0  0  0  0  0  0
   19.5356  -11.7531    6.4881 C   0  0  0  0  0  0  0  0  0  0  0  0
   18.1774  -12.2602    6.2175 C   0  0  2  0  0  0  0  0  0  0  0  0
   18.0916  -13.7218    6.5054 N   0  0  0  0  0  0  0  0  0  0  0  0
   16.7674  -14.2288    6.1445 C   0  0  0  0  0  0  0  0  0  0  0  0
   18.4323  -14.0812    7.8960 O   0  0  0  0  0  0  0  0  0  0  0  0
   19.6998  -14.4614    8.3290 C   0  0  0  0  0  0  0  0  0  0  0  0
   19.8808  -11.0823    7.6418 C   0  0  0  0  0  0  0  0  0  0  0  0
   21.1546  -10.6111    7.8196 O   0  0  0  0  0  0  0  0  0  0  0  0
  1  2  1  0
  2  3  2  0
  4  2  1  0
  4  5  1  0
  6  5  1  0
  7  6  1  0
  8  7  1  0
  8  9  1  6
 10  8  1  0
 11 10  2  0
 12 10  1  0
 13 12  1  0
 13 14  1  6
 14 15  1  0
 16 15  1  0
 16 17  1  0
 17 18  1  0
 19 13  1  0
 19 28  1  0
 20 19  2  0
 21 22  1  0
 22 32  2  0
 23 24  2  0
 23 22  1  0
 24 25  1  0
 25 26  1  0
 25 31  2  0
 27 28  1  0
 27 26  1  6
 29 27  1  0
 29 30  1  0
 32 31  1  0
 33 29  2  0
M  END
$$$$
