RKY.pdb
     RDKit          3D

 33 33  0  0  1  0  0  0  0  0999 V2000
   27.3935  -25.9395  -16.8844 N   0  0  0  0  0  0  0  0  0  0  0  0
   26.3623  -25.0616  -17.3566 C   0  0  0  0  0  0  0  0  0  0  0  0
   25.2228  -25.5383  -17.6796 N   0  0  0  0  0  0  0  0  0  0  0  0
   26.5854  -23.6684  -17.4804 N   0  0  0  0  0  0  0  0  0  0  0  0
   27.7606  -23.0526  -16.9103 C   0  0  0  0  0  0  0  0  0  0  0  0
   27.7757  -21.5439  -17.0765 C   0  0  0  0  0  0  0  0  0  0  0  0
   28.8078  -21.1779  -18.1044 C   0  0  0  0  0  0  0  0  0  0  0  0
   28.8687  -19.7140  -18.3819 C   0  0  2  0  0  0  0  0  0  0  0  0
   30.0294  -19.0194  -17.9611 N   0  0  0  0  0  0  0  0  0  0  0  0
   27.6481  -19.0043  -17.8622 C   0  0  0  0  0  0  0  0  0  0  0  0
   27.7823  -18.3902  -16.7458 O   0  0  0  0  0  0  0  0  0  0  0  0
   24.4599  -24.9524  -18.0500 N   0  0  0  0  0  0  0  0  0  0  0  0
   26.4118  -18.9890  -18.5284 C   0  0  2  0  0  0  0  0  0  0  0  0
   25.2742  -18.1932  -18.1054 C   0  0  0  0  0  0  0  0  0  0  0  0
   24.7137  -17.3625  -19.2006 C   0  0  0  0  0  0  0  0  0  0  0  0
   23.5649  -16.4682  -18.8060 C   0  0  0  0  0  0  0  0  0  0  0  0
   22.9473  -15.7411  -19.9747 C   0  0  0  0  0  0  0  0  0  0  0  0
   21.7943  -14.8509  -19.5042 N   0  0  0  0  0  0  0  0  0  0  0  0
   21.1809  -14.1746  -20.6144 C   0  0  0  0  0  0  0  0  0  0  0  0
   24.2384  -19.0652  -17.4517 O   0  0  0  0  0  0  0  0  0  0  0  0
   23.9891  -20.2002  -17.9205 O   0  0  0  0  0  0  0  0  0  0  0  0
   18.3555  -22.3925  -11.9303 C   0  0  0  0  0  0  0  0  0  0  0  0
   19.2931  -21.5617  -12.5122 C   0  0  0  0  0  0  0  0  0  0  0  0
   18.9159  -20.4027  -13.1818 C   0  0  0  0  0  0  0  0  0  0  0  0
   19.8263  -19.5709  -13.7620 C   0  0  0  0  0  0  0  0  0  0  0  0
   21.1889  -19.8969  -13.6800 C   0  0  0  0  0  0  0  0  0  0  0  0
   22.1404  -18.9879  -14.3460 C   0  0  2  0  0  0  0  0  0  0  0  0
   22.5280  -19.5176  -15.6861 N   0  0  0  0  0  0  0  0  0  0  0  0
   23.5222  -18.6408  -16.3054 C   0  0  0  0  0  0  0  0  0  0  0  0
   21.3872  -19.7451  -16.5950 O   0  0  0  0  0  0  0  0  0  0  0  0
   20.7410  -20.9665  -16.7663 C   0  0  0  0  0  0  0  0  0  0  0  0
   21.5701  -21.0443  -13.0179 C   0  0  0  0  0  0  0  0  0  0  0  0
   20.6330  -21.8618  -12.4440 O   0  0  0  0  0  0  0  0  0  0  0  0
  1  2  1  0
  2  3  2  0
  4  2  1  0
  4  5  1  0
  6  5  1  0
  7  6  1  0
  8  7  1  0
  8  9  1  1
 10  8  1  0
 11 10  2  0
 12 10  1  0
 13 12  1  0
 13 14  1  6
 14 15  1  0
 16 15  1  0
 16 17  1  0
 17 18  1  0
 19 13  1  0
 19 28  1  0
 20 19  2  0
 21 22  1  0
 22 32  2  0
 23 24  2  0
 23 22  1  0
 24 25  1  0
 25 26  1  0
 25 31  2  0
 27 28  1  0
 27 26  1  1
 29 27  1  0
 29 30  1  0
 32 31  1  0
 33 29  2  0
M  END
$$$$
