RKY.pdb
     RDKit          3D

 33 33  0  0  1  0  0  0  0  0999 V2000
   28.9781  -29.4210  -16.5828 N   0  0  0  0  0  0  0  0  0  0  0  0
   28.5718  -29.6842  -17.9328 C   0  0  0  0  0  0  0  0  0  0  0  0
   28.7988  -30.8286  -18.4515 N   0  0  0  0  0  0  0  0  0  0  0  0
   27.9264  -28.6922  -18.7109 N   0  0  0  0  0  0  0  0  0  0  0  0
   27.4765  -27.4574  -18.1122 C   0  0  0  0  0  0  0  0  0  0  0  0
   26.2590  -27.6414  -17.2246 C   0  0  0  0  0  0  0  0  0  0  0  0
   25.7345  -26.2899  -16.8319 C   0  0  0  0  0  0  0  0  0  0  0  0
   25.0133  -25.5948  -17.9366 C   0  0  2  0  0  0  0  0  0  0  0  0
   25.7996  -24.9449  -18.9196 N   0  0  0  0  0  0  0  0  0  0  0  0
   23.9872  -24.6322  -17.4036 C   0  0  0  0  0  0  0  0  0  0  0  0
   24.4186  -23.4739  -17.0661 O   0  0  0  0  0  0  0  0  0  0  0  0
   28.5578  -31.0541  -19.4279 N   0  0  0  0  0  0  0  0  0  0  0  0
   22.6243  -24.9419  -17.2661 C   0  0  1  0  0  0  0  0  0  0  0  0
   21.6279  -24.0087  -16.7734 C   0  0  0  0  0  0  0  0  0  0  0  0
   20.7947  -23.4307  -17.8576 C   0  0  0  0  0  0  0  0  0  0  0  0
   21.4731  -22.3781  -18.6984 C   0  0  0  0  0  0  0  0  0  0  0  0
   21.5848  -21.0428  -18.0054 C   0  0  0  0  0  0  0  0  0  0  0  0
   22.2936  -20.0283  -18.9061 N   0  0  0  0  0  0  0  0  0  0  0  0
   22.4357  -18.7617  -18.2415 C   0  0  0  0  0  0  0  0  0  0  0  0
   20.8054  -24.6449  -15.6875 O   0  0  0  0  0  0  0  0  0  0  0  0
   20.2670  -25.7596  -15.8813 O   0  0  0  0  0  0  0  0  0  0  0  0
   16.8149  -26.4769   -8.1593 C   0  0  0  0  0  0  0  0  0  0  0  0
   17.6732  -25.9572   -9.1087 C   0  0  0  0  0  0  0  0  0  0  0  0
   17.5287  -24.6568   -9.5797 C   0  0  0  0  0  0  0  0  0  0  0  0
   18.3654  -24.1269  -10.5159 C   0  0  0  0  0  0  0  0  0  0  0  0
   19.4064  -24.9218  -11.0200 C   0  0  0  0  0  0  0  0  0  0  0  0
   20.2717  -24.3228  -12.0533 C   0  0  1  0  0  0  0  0  0  0  0  0
   19.7558  -24.6315  -13.4189 N   0  0  0  0  0  0  0  0  0  0  0  0
   20.6144  -24.0169  -14.4319 C   0  0  0  0  0  0  0  0  0  0  0  0
   18.3436  -24.2553  -13.6269 O   0  0  0  0  0  0  0  0  0  0  0  0
   17.2561  -25.0884  -13.3779 C   0  0  0  0  0  0  0  0  0  0  0  0
   19.5556  -26.2119  -10.5579 C   0  0  0  0  0  0  0  0  0  0  0  0
   18.6996  -26.7183   -9.6162 O   0  0  0  0  0  0  0  0  0  0  0  0
  1  2  1  0
  2  3  2  0
  4  2  1  0
  4  5  1  0
  6  5  1  0
  7  6  1  0
  8  7  1  0
  8  9  1  1
 10  8  1  0
 11 10  2  0
 12 10  1  0
 13 12  1  0
 13 14  1  1
 14 15  1  0
 16 15  1  0
 16 17  1  0
 17 18  1  0
 19 13  1  0
 19 28  1  0
 20 19  2  0
 21 22  1  0
 22 32  2  0
 23 24  2  0
 23 22  1  0
 24 25  1  0
 25 26  1  0
 25 31  2  0
 27 28  1  0
 27 26  1  6
 29 27  1  0
 29 30  1  0
 32 31  1  0
 33 29  2  0
M  END
$$$$
