RKY.pdb
     RDKit          3D

 33 33  0  0  1  0  0  0  0  0999 V2000
   14.5967  -13.3449  -16.1191 N   0  0  0  0  0  0  0  0  0  0  0  0
   15.2511  -14.5964  -16.3696 C   0  0  0  0  0  0  0  0  0  0  0  0
   14.5640  -15.6093  -16.7331 N   0  0  0  0  0  0  0  0  0  0  0  0
   16.6519  -14.7354  -16.2136 N   0  0  0  0  0  0  0  0  0  0  0  0
   17.4772  -13.5975  -15.8829 C   0  0  0  0  0  0  0  0  0  0  0  0
   17.8173  -12.7441  -17.0913 C   0  0  0  0  0  0  0  0  0  0  0  0
   18.6996  -11.6103  -16.6535 C   0  0  0  0  0  0  0  0  0  0  0  0
   20.0813  -11.6917  -17.2083 C   0  0  2  0  0  0  0  0  0  0  0  0
   20.8543  -12.8285  -16.8661 N   0  0  0  0  0  0  0  0  0  0  0  0
   20.8689  -10.4454  -16.9081 C   0  0  0  0  0  0  0  0  0  0  0  0
   21.3935  -10.3742  -15.7414 O   0  0  0  0  0  0  0  0  0  0  0  0
   14.9805  -16.5413  -16.8755 N   0  0  0  0  0  0  0  0  0  0  0  0
   21.0455   -9.3948  -17.8232 C   0  0  1  0  0  0  0  0  0  0  0  0
   21.7096   -8.1448  -17.5022 C   0  0  0  0  0  0  0  0  0  0  0  0
   21.9268   -7.2860  -18.6934 C   0  0  0  0  0  0  0  0  0  0  0  0
   22.5735   -5.9520  -18.4152 C   0  0  0  0  0  0  0  0  0  0  0  0
   23.9846   -5.8530  -18.9394 C   0  0  0  0  0  0  0  0  0  0  0  0
   24.6063   -4.5078  -18.5562 N   0  0  0  0  0  0  0  0  0  0  0  0
   25.9560   -4.4085  -19.0408 C   0  0  0  0  0  0  0  0  0  0  0  0
   20.9787   -7.4310  -16.3991 O   0  0  0  0  0  0  0  0  0  0  0  0
   19.7367   -7.2798  -16.4663 O   0  0  0  0  0  0  0  0  0  0  0  0
   17.3930   -5.1149   -9.0180 C   0  0  0  0  0  0  0  0  0  0  0  0
   18.2039   -5.6200  -10.0157 C   0  0  0  0  0  0  0  0  0  0  0  0
   18.8252   -6.8572   -9.8856 C   0  0  0  0  0  0  0  0  0  0  0  0
   19.6285   -7.3718  -10.8589 C   0  0  0  0  0  0  0  0  0  0  0  0
   19.8341   -6.6265  -12.0303 C   0  0  0  0  0  0  0  0  0  0  0  0
   20.7335   -7.2035  -13.0468 C   0  0  2  0  0  0  0  0  0  0  0  0
   20.9117   -6.2621  -14.1907 N   0  0  0  0  0  0  0  0  0  0  0  0
   21.6571   -6.9144  -15.2676 C   0  0  0  0  0  0  0  0  0  0  0  0
   21.5376   -4.9776  -13.8197 O   0  0  0  0  0  0  0  0  0  0  0  0
   20.8374   -3.8201  -13.4904 C   0  0  0  0  0  0  0  0  0  0  0  0
   19.2214   -5.3992  -12.1660 C   0  0  0  0  0  0  0  0  0  0  0  0
   18.4190   -4.9067  -11.1712 O   0  0  0  0  0  0  0  0  0  0  0  0
  1  2  1  0
  2  3  2  0
  4  2  1  0
  4  5  1  0
  6  5  1  0
  7  6  1  0
  8  7  1  0
  8  9  1  1
 10  8  1  0
 11 10  2  0
 12 10  1  0
 13 12  1  0
 13 14  1  1
 14 15  1  0
 16 15  1  0
 16 17  1  0
 17 18  1  0
 19 13  1  0
 19 28  1  0
 20 19  2  0
 21 22  1  0
 22 32  2  0
 23 24  2  0
 23 22  1  0
 24 25  1  0
 25 26  1  0
 25 31  2  0
 27 28  1  0
 27 26  1  6
 29 27  1  0
 29 30  1  0
 32 31  1  0
 33 29  2  0
M  END
$$$$
