ILY.pdb
     RDKit          3D

 29 29  0  0  1  0  0  0  0  0999 V2000
   28.5546  -20.0796   -5.8114 C   0  0  0  0  0  0  0  0  0  0  0  0
   27.1394  -20.5325   -6.1957 C   0  0  0  0  0  0  0  0  0  0  0  0
   26.9024  -20.0777   -7.5926 C   0  0  2  0  0  0  0  0  0  0  0  0
   26.9812  -18.5603   -7.6205 C   0  0  0  0  0  0  0  0  0  0  0  0
   25.5784  -20.4762   -8.1623 C   0  0  2  0  0  0  0  0  0  0  0  0
   25.4090  -21.9032   -7.9568 N   0  0  0  0  0  0  0  0  0  0  0  0
   25.4048  -20.1466   -9.5805 C   0  0  0  0  0  0  0  0  0  0  0  0
   24.8440  -19.0749   -9.9255 O   0  0  0  0  0  0  0  0  0  0  0  0
   28.0936  -19.4137  -13.0486 C   0  0  0  0  0  0  0  0  0  0  0  0
   28.0778  -20.9170  -12.6881 C   0  0  2  0  0  0  0  0  0  0  0  0
   29.1099  -21.5345  -13.5907 C   0  0  0  0  0  0  0  0  0  0  0  0
   26.6779  -21.3604  -12.9030 C   0  0  0  0  0  0  0  0  0  0  0  0
   25.6355  -20.7344  -12.0224 C   0  0  2  0  0  0  0  0  0  0  0  0
   25.8540  -21.0077  -10.6394 N   0  0  0  0  0  0  0  0  0  0  0  0
   24.2956  -21.2602  -12.4742 C   0  0  0  0  0  0  0  0  0  0  0  0
   24.1063  -22.4925  -12.3786 O   0  0  0  0  0  0  0  0  0  0  0  0
   15.6801  -22.0761  -13.6038 O   0  0  0  0  0  0  0  0  0  0  0  0
   16.9629  -21.5623  -13.3819 C   0  0  0  0  0  0  0  0  0  0  0  0
   17.6851  -21.9737  -12.2932 C   0  0  0  0  0  0  0  0  0  0  0  0
   18.9453  -21.4893  -12.0474 C   0  0  0  0  0  0  0  0  0  0  0  0
   19.5502  -20.5674  -12.8768 C   0  0  0  0  0  0  0  0  0  0  0  0
   20.9034  -20.0207  -12.6283 C   0  0  0  0  0  0  0  0  0  0  0  0
   21.9294  -20.8932  -13.2719 C   0  0  2  0  0  0  0  0  0  0  0  0
   23.2834  -20.4271  -12.9847 N   0  0  0  0  0  0  0  0  0  0  0  0
   21.7424  -21.1501  -14.7078 C   0  0  0  0  0  0  0  0  0  0  0  0
   22.0597  -20.3214  -15.5783 O   0  0  0  0  0  0  0  0  0  0  0  0
   18.8011  -20.1554  -13.9862 C   0  0  0  0  0  0  0  0  0  0  0  0
   17.5452  -20.6406  -14.2283 C   0  0  0  0  0  0  0  0  0  0  0  0
   21.1947  -22.3540  -15.1102 O   0  0  0  0  0  0  0  0  0  0  0  0
  1  2  1  0
  3  2  1  0
  3  4  1  1
  5  6  1  6
  5  3  1  0
  7  5  1  0
  8  7  2  0
 10  9  1  6
 10 12  1  0
 11 10  1  0
 13 12  1  6
 13 15  1  0
 13 14  1  0
 14  7  1  0
 15 24  1  0
 16 15  2  0
 17 18  1  0
 18 28  2  0
 19 18  1  0
 19 20  2  0
 20 21  1  0
 21 27  2  0
 21 22  1  0
 23 22  1  6
 23 25  1  0
 24 23  1  0
 25 26  2  0
 25 29  1  0
 28 27  1  0
M  END
$$$$
