ILY.pdb
     RDKit          3D

 29 29  0  0  1  0  0  0  0  0999 V2000
   26.3594  -14.9693  -17.7198 C   0  0  0  0  0  0  0  0  0  0  0  0
   27.0206  -16.2436  -17.1769 C   0  0  0  0  0  0  0  0  0  0  0  0
   25.9394  -17.0720  -16.5776 C   0  0  2  0  0  0  0  0  0  0  0  0
   25.2008  -16.2252  -15.5545 C   0  0  0  0  0  0  0  0  0  0  0  0
   26.4130  -18.3113  -15.8874 C   0  0  2  0  0  0  0  0  0  0  0  0
   27.2064  -19.0786  -16.8303 N   0  0  0  0  0  0  0  0  0  0  0  0
   25.3406  -19.1448  -15.3348 C   0  0  0  0  0  0  0  0  0  0  0  0
   24.5361  -19.7416  -16.0956 O   0  0  0  0  0  0  0  0  0  0  0  0
   25.6246  -22.5981  -12.1803 C   0  0  0  0  0  0  0  0  0  0  0  0
   25.7292  -21.1546  -11.6365 C   0  0  2  0  0  0  0  0  0  0  0  0
   26.0660  -21.3213  -10.1805 C   0  0  0  0  0  0  0  0  0  0  0  0
   24.4184  -20.5248  -11.9322 C   0  0  0  0  0  0  0  0  0  0  0  0
   24.1494  -20.1839  -13.3694 C   0  0  2  0  0  0  0  0  0  0  0  0
   25.1469  -19.3273  -13.9229 N   0  0  0  0  0  0  0  0  0  0  0  0
   22.7871  -19.5384  -13.4273 C   0  0  0  0  0  0  0  0  0  0  0  0
   22.6245  -18.4921  -12.7622 O   0  0  0  0  0  0  0  0  0  0  0  0
   21.3256  -20.2650  -20.5538 O   0  0  0  0  0  0  0  0  0  0  0  0
   21.1027  -19.7734  -19.2624 C   0  0  0  0  0  0  0  0  0  0  0  0
   22.1617  -19.3758  -18.4901 C   0  0  0  0  0  0  0  0  0  0  0  0
   21.9770  -18.8895  -17.2203 C   0  0  0  0  0  0  0  0  0  0  0  0
   20.7236  -18.7752  -16.6550 C   0  0  0  0  0  0  0  0  0  0  0  0
   20.4978  -18.2645  -15.2838 C   0  0  0  0  0  0  0  0  0  0  0  0
   20.4311  -19.4044  -14.3223 C   0  0  2  0  0  0  0  0  0  0  0  0
   21.7263  -20.0654  -14.1863 N   0  0  0  0  0  0  0  0  0  0  0  0
   19.3529  -20.3771  -14.5555 C   0  0  0  0  0  0  0  0  0  0  0  0
   19.5783  -21.5799  -14.7733 O   0  0  0  0  0  0  0  0  0  0  0  0
   19.6497  -19.1849  -17.4552 C   0  0  0  0  0  0  0  0  0  0  0  0
   19.8375  -19.6691  -18.7208 C   0  0  0  0  0  0  0  0  0  0  0  0
   18.0401  -19.9445  -14.5330 O   0  0  0  0  0  0  0  0  0  0  0  0
  1  2  1  0
  3  2  1  0
  3  4  1  1
  5  6  1  6
  5  3  1  0
  7  5  1  0
  8  7  2  0
 10  9  1  6
 10 12  1  0
 11 10  1  0
 13 12  1  1
 13 15  1  0
 13 14  1  0
 14  7  1  0
 15 24  1  0
 16 15  2  0
 17 18  1  0
 18 28  2  0
 19 18  1  0
 19 20  2  0
 20 21  1  0
 21 27  2  0
 21 22  1  0
 23 22  1  6
 23 25  1  0
 24 23  1  0
 25 26  2  0
 25 29  1  0
 28 27  1  0
M  END
$$$$
