ILY.pdb
     RDKit          3D

 29 29  0  0  1  0  0  0  0  0999 V2000
   24.3010  -13.5914  -18.0901 C   0  0  0  0  0  0  0  0  0  0  0  0
   25.5142  -14.5085  -17.8837 C   0  0  0  0  0  0  0  0  0  0  0  0
   25.0104  -15.7600  -17.2558 C   0  0  2  0  0  0  0  0  0  0  0  0
   24.4582  -15.4162  -15.8823 C   0  0  0  0  0  0  0  0  0  0  0  0
   26.0420  -16.8281  -17.0783 C   0  0  2  0  0  0  0  0  0  0  0  0
   26.5850  -17.1534  -18.3846 N   0  0  0  0  0  0  0  0  0  0  0  0
   25.5503  -18.0423  -16.4196 C   0  0  0  0  0  0  0  0  0  0  0  0
   24.6824  -18.7652  -16.9732 O   0  0  0  0  0  0  0  0  0  0  0  0
   27.8971  -21.5392  -15.0839 C   0  0  0  0  0  0  0  0  0  0  0  0
   27.9743  -20.3774  -14.0668 C   0  0  2  0  0  0  0  0  0  0  0  0
   29.0144  -20.8126  -13.0720 C   0  0  0  0  0  0  0  0  0  0  0  0
   26.5958  -20.2214  -13.5395 C   0  0  0  0  0  0  0  0  0  0  0  0
   25.5749  -19.6667  -14.4903 C   0  0  2  0  0  0  0  0  0  0  0  0
   26.0185  -18.4717  -15.1309 N   0  0  0  0  0  0  0  0  0  0  0  0
   24.3144  -19.4218  -13.6984 C   0  0  0  0  0  0  0  0  0  0  0  0
   24.2909  -18.4093  -12.9650 O   0  0  0  0  0  0  0  0  0  0  0  0
   16.2359  -16.9200  -12.7174 O   0  0  0  0  0  0  0  0  0  0  0  0
   17.5406  -17.2993  -13.0533 C   0  0  0  0  0  0  0  0  0  0  0  0
   17.7658  -18.5022  -13.6683 C   0  0  0  0  0  0  0  0  0  0  0  0
   19.0328  -18.9034  -14.0105 C   0  0  0  0  0  0  0  0  0  0  0  0
   20.1419  -18.1232  -13.7556 C   0  0  0  0  0  0  0  0  0  0  0  0
   21.5199  -18.5373  -14.1042 C   0  0  0  0  0  0  0  0  0  0  0  0
   21.8380  -19.8420  -13.4522 C   0  0  2  0  0  0  0  0  0  0  0  0
   23.1981  -20.2757  -13.7604 N   0  0  0  0  0  0  0  0  0  0  0  0
   20.8657  -20.9229  -13.6738 C   0  0  0  0  0  0  0  0  0  0  0  0
   20.8510  -21.6006  -14.7157 O   0  0  0  0  0  0  0  0  0  0  0  0
   19.8976  -16.8959  -13.1267 C   0  0  0  0  0  0  0  0  0  0  0  0
   18.6332  -16.4990  -12.7871 C   0  0  0  0  0  0  0  0  0  0  0  0
   19.9323  -21.1999  -12.6924 O   0  0  0  0  0  0  0  0  0  0  0  0
  1  2  1  0
  3  2  1  0
  3  4  1  1
  5  6  1  6
  5  3  1  0
  7  5  1  0
  8  7  2  0
 10  9  1  6
 10 12  1  0
 11 10  1  0
 13 12  1  1
 13 15  1  0
 13 14  1  0
 14  7  1  0
 15 24  1  0
 16 15  2  0
 17 18  1  0
 18 28  2  0
 19 18  1  0
 19 20  2  0
 20 21  1  0
 21 27  2  0
 21 22  1  0
 23 22  1  6
 23 25  1  0
 24 23  1  0
 25 26  2  0
 25 29  1  0
 28 27  1  0
M  END
$$$$
