ILY.pdb
     RDKit          3D

 29 29  0  0  1  0  0  0  0  0999 V2000
   28.7085  -19.0759  -15.4653 C   0  0  0  0  0  0  0  0  0  0  0  0
   29.4715  -19.6815  -14.2793 C   0  0  0  0  0  0  0  0  0  0  0  0
   28.4535  -20.1158  -13.2844 C   0  0  2  0  0  0  0  0  0  0  0  0
   27.5566  -18.9298  -12.9706 C   0  0  0  0  0  0  0  0  0  0  0  0
   29.0172  -20.6157  -11.9927 C   0  0  2  0  0  0  0  0  0  0  0  0
   29.8968  -21.7328  -12.2856 N   0  0  0  0  0  0  0  0  0  0  0  0
   28.0091  -21.0130  -11.0048 C   0  0  0  0  0  0  0  0  0  0  0  0
   27.2597  -22.0009  -11.2155 O   0  0  0  0  0  0  0  0  0  0  0  0
   28.1829  -21.3254   -6.4023 C   0  0  0  0  0  0  0  0  0  0  0  0
   28.1131  -19.8725   -6.9261 C   0  0  2  0  0  0  0  0  0  0  0  0
   28.2804  -19.0186   -5.6999 C   0  0  0  0  0  0  0  0  0  0  0  0
   26.8054  -19.7647   -7.6195 C   0  0  0  0  0  0  0  0  0  0  0  0
   26.6789  -20.4942   -8.9256 C   0  0  2  0  0  0  0  0  0  0  0  0
   27.8194  -20.3145   -9.7635 N   0  0  0  0  0  0  0  0  0  0  0  0
   25.4264  -19.9899   -9.5987 C   0  0  0  0  0  0  0  0  0  0  0  0
   25.4326  -18.8048   -9.9976 O   0  0  0  0  0  0  0  0  0  0  0  0
   19.3972  -20.2676  -15.8441 O   0  0  0  0  0  0  0  0  0  0  0  0
   20.4261  -20.4868  -14.9208 C   0  0  0  0  0  0  0  0  0  0  0  0
   21.4076  -19.5459  -14.7550 C   0  0  0  0  0  0  0  0  0  0  0  0
   22.4298  -19.7305  -13.8583 C   0  0  0  0  0  0  0  0  0  0  0  0
   22.5253  -20.8659  -13.0801 C   0  0  0  0  0  0  0  0  0  0  0  0
   23.6235  -21.0946  -12.1139 C   0  0  0  0  0  0  0  0  0  0  0  0
   23.2624  -20.5120  -10.7879 C   0  0  2  0  0  0  0  0  0  0  0  0
   24.2859  -20.7923   -9.7844 N   0  0  0  0  0  0  0  0  0  0  0  0
   21.9175  -20.8378  -10.2897 C   0  0  0  0  0  0  0  0  0  0  0  0
   20.8860  -20.5328  -10.9126 O   0  0  0  0  0  0  0  0  0  0  0  0
   21.5155  -21.8195  -13.2594 C   0  0  0  0  0  0  0  0  0  0  0  0
   20.4977  -21.6322  -14.1541 C   0  0  0  0  0  0  0  0  0  0  0  0
   21.7894  -21.5068   -9.0868 O   0  0  0  0  0  0  0  0  0  0  0  0
  1  2  1  0
  3  2  1  0
  3  4  1  1
  5  6  1  6
  5  3  1  0
  7  5  1  0
  8  7  2  0
 10  9  1  1
 10 12  1  0
 11 10  1  0
 13 12  1  1
 13 15  1  0
 13 14  1  0
 14  7  1  0
 15 24  1  0
 16 15  2  0
 17 18  1  0
 18 28  2  0
 19 18  1  0
 19 20  2  0
 20 21  1  0
 21 27  2  0
 21 22  1  0
 23 22  1  6
 23 25  1  0
 24 23  1  0
 25 26  2  0
 25 29  1  0
 28 27  1  0
M  END
$$$$
