ILY.pdb
     RDKit          3D

 29 29  0  0  1  0  0  0  0  0999 V2000
   27.5613  -16.0545  -18.6475 C   0  0  0  0  0  0  0  0  0  0  0  0
   26.4013  -16.4118  -17.7081 C   0  0  0  0  0  0  0  0  0  0  0  0
   26.7177  -17.7384  -17.1127 C   0  0  2  0  0  0  0  0  0  0  0  0
   26.9623  -18.7231  -18.2441 C   0  0  0  0  0  0  0  0  0  0  0  0
   25.6421  -18.3035  -16.2409 C   0  0  2  0  0  0  0  0  0  0  0  0
   25.4244  -17.3843  -15.1385 N   0  0  0  0  0  0  0  0  0  0  0  0
   25.9213  -19.6486  -15.7284 C   0  0  0  0  0  0  0  0  0  0  0  0
   25.6076  -20.6670  -16.3968 O   0  0  0  0  0  0  0  0  0  0  0  0
   28.9436  -19.2444  -13.5904 C   0  0  0  0  0  0  0  0  0  0  0  0
   28.4375  -20.1027  -12.4082 C   0  0  2  0  0  0  0  0  0  0  0  0
   29.6454  -20.2931  -11.5332 C   0  0  0  0  0  0  0  0  0  0  0  0
   27.8801  -21.3330  -13.0231 C   0  0  0  0  0  0  0  0  0  0  0  0
   26.6338  -21.1651  -13.8432 C   0  0  2  0  0  0  0  0  0  0  0  0
   26.5558  -19.8814  -14.4605 N   0  0  0  0  0  0  0  0  0  0  0  0
   25.4603  -21.3972  -12.9240 C   0  0  0  0  0  0  0  0  0  0  0  0
   25.4151  -22.4938  -12.3248 O   0  0  0  0  0  0  0  0  0  0  0  0
   26.9357  -20.8342   -6.7305 O   0  0  0  0  0  0  0  0  0  0  0  0
   26.0123  -20.5362   -7.7393 C   0  0  0  0  0  0  0  0  0  0  0  0
   24.8306  -21.2253   -7.8095 C   0  0  0  0  0  0  0  0  0  0  0  0
   23.9045  -20.9574   -8.7860 C   0  0  0  0  0  0  0  0  0  0  0  0
   24.1107  -19.9865   -9.7445 C   0  0  0  0  0  0  0  0  0  0  0  0
   23.1332  -19.6856  -10.8149 C   0  0  0  0  0  0  0  0  0  0  0  0
   23.2589  -20.6883  -11.9135 C   0  0  2  0  0  0  0  0  0  0  0  0
   24.4458  -20.4424  -12.7283 N   0  0  0  0  0  0  0  0  0  0  0  0
   22.0631  -20.8771  -12.7486 C   0  0  0  0  0  0  0  0  0  0  0  0
   22.0806  -20.7160  -13.9810 O   0  0  0  0  0  0  0  0  0  0  0  0
   25.3226  -19.2894   -9.6611 C   0  0  0  0  0  0  0  0  0  0  0  0
   26.2436  -19.5590   -8.6861 C   0  0  0  0  0  0  0  0  0  0  0  0
   20.8743  -21.2467  -12.1475 O   0  0  0  0  0  0  0  0  0  0  0  0
  1  2  1  0
  3  2  1  0
  3  4  1  6
  5  6  1  1
  5  3  1  0
  7  5  1  0
  8  7  2  0
 10  9  1  6
 10 12  1  0
 11 10  1  0
 13 12  1  1
 13 15  1  0
 13 14  1  0
 14  7  1  0
 15 24  1  0
 16 15  2  0
 17 18  1  0
 18 28  2  0
 19 18  1  0
 19 20  2  0
 20 21  1  0
 21 27  2  0
 21 22  1  0
 23 22  1  1
 23 25  1  0
 24 23  1  0
 25 26  2  0
 25 29  1  0
 28 27  1  0
M  END
$$$$
