ILY.pdb
     RDKit          3D

 29 29  0  0  1  0  0  0  0  0999 V2000
   24.3588  -27.7627  -18.1144 C   0  0  0  0  0  0  0  0  0  0  0  0
   25.6781  -27.0487  -18.4389 C   0  0  0  0  0  0  0  0  0  0  0  0
   25.8895  -26.0250  -17.3797 C   0  0  2  0  0  0  0  0  0  0  0  0
   24.6851  -25.0984  -17.3643 C   0  0  0  0  0  0  0  0  0  0  0  0
   27.1112  -25.1820  -17.5617 C   0  0  2  0  0  0  0  0  0  0  0  0
   28.2758  -26.0351  -17.4089 N   0  0  0  0  0  0  0  0  0  0  0  0
   27.2003  -24.0384  -16.6483 C   0  0  0  0  0  0  0  0  0  0  0  0
   27.5521  -24.1999  -15.4516 O   0  0  0  0  0  0  0  0  0  0  0  0
   29.3893  -19.8660  -16.7913 C   0  0  0  0  0  0  0  0  0  0  0  0
   28.2074  -19.9667  -17.7829 C   0  0  2  0  0  0  0  0  0  0  0  0
   28.1974  -18.6434  -18.4969 C   0  0  0  0  0  0  0  0  0  0  0  0
   27.0162  -20.2642  -16.9492 C   0  0  0  0  0  0  0  0  0  0  0  0
   27.0347  -21.5626  -16.1958 C   0  0  2  0  0  0  0  0  0  0  0  0
   26.8981  -22.6937  -17.0544 N   0  0  0  0  0  0  0  0  0  0  0  0
   25.9142  -21.5090  -15.1870 C   0  0  0  0  0  0  0  0  0  0  0  0
   24.7666  -21.7908  -15.5958 O   0  0  0  0  0  0  0  0  0  0  0  0
   21.2078  -20.2958   -7.8481 O   0  0  0  0  0  0  0  0  0  0  0  0
   22.2616  -20.3777   -8.7654 C   0  0  0  0  0  0  0  0  0  0  0  0
   23.4730  -20.8814   -8.3717 C   0  0  0  0  0  0  0  0  0  0  0  0
   24.5260  -20.9752   -9.2466 C   0  0  0  0  0  0  0  0  0  0  0  0
   24.4240  -20.5698  -10.5615 C   0  0  0  0  0  0  0  0  0  0  0  0
   25.5476  -20.6497  -11.5223 C   0  0  0  0  0  0  0  0  0  0  0  0
   25.0305  -20.9893  -12.8808 C   0  0  2  0  0  0  0  0  0  0  0  0
   26.1189  -21.1612  -13.8393 N   0  0  0  0  0  0  0  0  0  0  0  0
   23.9843  -20.1007  -13.4087 C   0  0  0  0  0  0  0  0  0  0  0  0
   24.2330  -18.9583  -13.8307 O   0  0  0  0  0  0  0  0  0  0  0  0
   23.1803  -20.0571  -10.9510 C   0  0  0  0  0  0  0  0  0  0  0  0
   22.1325  -19.9652  -10.0762 C   0  0  0  0  0  0  0  0  0  0  0  0
   22.6758  -20.5460  -13.4395 O   0  0  0  0  0  0  0  0  0  0  0  0
  1  2  1  0
  3  2  1  0
  3  4  1  6
  5  6  1  1
  5  3  1  0
  7  5  1  0
  8  7  2  0
 10  9  1  1
 10 12  1  0
 11 10  1  0
 13 12  1  6
 13 15  1  0
 13 14  1  0
 14  7  1  0
 15 24  1  0
 16 15  2  0
 17 18  1  0
 18 28  2  0
 19 18  1  0
 19 20  2  0
 20 21  1  0
 21 27  2  0
 21 22  1  0
 23 22  1  1
 23 25  1  0
 24 23  1  0
 25 26  2  0
 25 29  1  0
 28 27  1  0
M  END
$$$$
