ILY.pdb
     RDKit          3D

 29 29  0  0  1  0  0  0  0  0999 V2000
   29.4296  -21.6649  -17.5349 C   0  0  0  0  0  0  0  0  0  0  0  0
   28.2915  -20.7437  -17.0746 C   0  0  0  0  0  0  0  0  0  0  0  0
   27.5799  -21.4495  -15.9746 C   0  0  2  0  0  0  0  0  0  0  0  0
   27.1074  -22.7956  -16.4982 C   0  0  0  0  0  0  0  0  0  0  0  0
   26.3871  -20.7249  -15.4374 C   0  0  2  0  0  0  0  0  0  0  0  0
   26.7195  -19.3149  -15.3431 N   0  0  0  0  0  0  0  0  0  0  0  0
   25.9107  -21.2187  -14.1416 C   0  0  0  0  0  0  0  0  0  0  0  0
   25.3438  -22.3378  -14.0512 O   0  0  0  0  0  0  0  0  0  0  0  0
   24.6111  -19.9344   -9.1043 C   0  0  0  0  0  0  0  0  0  0  0  0
   25.8955  -20.7930   -9.1600 C   0  0  2  0  0  0  0  0  0  0  0  0
   26.7409  -20.2852   -8.0249 C   0  0  0  0  0  0  0  0  0  0  0  0
   26.4477  -20.5905  -10.5226 C   0  0  0  0  0  0  0  0  0  0  0  0
   25.5287  -20.8987  -11.6691 C   0  0  2  0  0  0  0  0  0  0  0  0
   26.0586  -20.4719  -12.9230 N   0  0  0  0  0  0  0  0  0  0  0  0
   24.2113  -20.2232  -11.3788 C   0  0  0  0  0  0  0  0  0  0  0  0
   24.2259  -18.9796  -11.2489 O   0  0  0  0  0  0  0  0  0  0  0  0
   16.7520  -18.7096  -15.3625 O   0  0  0  0  0  0  0  0  0  0  0  0
   17.9958  -19.0957  -14.8499 C   0  0  0  0  0  0  0  0  0  0  0  0
   18.8521  -18.1508  -14.3500 C   0  0  0  0  0  0  0  0  0  0  0  0
   20.0784  -18.4965  -13.8403 C   0  0  0  0  0  0  0  0  0  0  0  0
   20.5139  -19.8053  -13.8037 C   0  0  0  0  0  0  0  0  0  0  0  0
   21.8361  -20.2035  -13.2698 C   0  0  0  0  0  0  0  0  0  0  0  0
   21.7347  -20.4602  -11.8028 C   0  0  2  0  0  0  0  0  0  0  0  0
   23.0030  -20.9328  -11.2541 N   0  0  0  0  0  0  0  0  0  0  0  0
   20.6140  -21.3122  -11.3774 C   0  0  0  0  0  0  0  0  0  0  0  0
   20.6808  -22.5534  -11.3889 O   0  0  0  0  0  0  0  0  0  0  0  0
   19.6287  -20.7612  -14.3176 C   0  0  0  0  0  0  0  0  0  0  0  0
   18.4068  -20.4131  -14.8248 C   0  0  0  0  0  0  0  0  0  0  0  0
   19.4419  -20.7177  -10.9485 O   0  0  0  0  0  0  0  0  0  0  0  0
  1  2  1  0
  3  2  1  0
  3  4  1  6
  5  6  1  1
  5  3  1  0
  7  5  1  0
  8  7  2  0
 10  9  1  6
 10 12  1  0
 11 10  1  0
 13 12  1  1
 13 15  1  0
 13 14  1  0
 14  7  1  0
 15 24  1  0
 16 15  2  0
 17 18  1  0
 18 28  2  0
 19 18  1  0
 19 20  2  0
 20 21  1  0
 21 27  2  0
 21 22  1  0
 23 22  1  6
 23 25  1  0
 24 23  1  0
 25 26  2  0
 25 29  1  0
 28 27  1  0
M  END
$$$$
