ILY.pdb
     RDKit          3D

 29 29  0  0  1  0  0  0  0  0999 V2000
   45.7302   -8.3025   -4.5158 C   0  0  0  0  0  0  0  0  0  0  0  0
   44.9890   -9.5901   -4.9011 C   0  0  0  0  0  0  0  0  0  0  0  0
   44.0101   -9.2268   -5.9613 C   0  0  2  0  0  0  0  0  0  0  0  0
   43.1172   -8.1191   -5.4272 C   0  0  0  0  0  0  0  0  0  0  0  0
   43.1276  -10.3489   -6.4067 C   0  0  2  0  0  0  0  0  0  0  0  0
   43.9681  -11.3847   -6.9795 N   0  0  0  0  0  0  0  0  0  0  0  0
   42.0862   -9.9585   -7.3623 C   0  0  0  0  0  0  0  0  0  0  0  0
   42.3848   -9.6465   -8.5437 O   0  0  0  0  0  0  0  0  0  0  0  0
   38.4291  -12.1330   -8.7724 C   0  0  0  0  0  0  0  0  0  0  0  0
   38.2454  -11.5199   -7.3651 C   0  0  2  0  0  0  0  0  0  0  0  0
   36.9214  -12.0510   -6.8897 C   0  0  0  0  0  0  0  0  0  0  0  0
   38.3238  -10.0508   -7.5605 C   0  0  0  0  0  0  0  0  0  0  0  0
   39.6709   -9.4952   -7.9218 C   0  0  2  0  0  0  0  0  0  0  0  0
   40.6926   -9.9094   -7.0164 N   0  0  0  0  0  0  0  0  0  0  0  0
   39.5423   -7.9922   -7.9439 C   0  0  0  0  0  0  0  0  0  0  0  0
   39.0560   -7.4479   -6.9286 O   0  0  0  0  0  0  0  0  0  0  0  0
   39.9402    0.5142  -10.0686 O   0  0  0  0  0  0  0  0  0  0  0  0
   40.1259   -0.8730  -10.0735 C   0  0  0  0  0  0  0  0  0  0  0  0
   39.3952   -1.6574  -10.9261 C   0  0  0  0  0  0  0  0  0  0  0  0
   39.5535   -3.0202  -10.9554 C   0  0  0  0  0  0  0  0  0  0  0  0
   40.4504   -3.6712  -10.1335 C   0  0  0  0  0  0  0  0  0  0  0  0
   40.6323   -5.1405  -10.1373 C   0  0  0  0  0  0  0  0  0  0  0  0
   39.7439   -5.7645   -9.1128 C   0  0  2  0  0  0  0  0  0  0  0  0
   39.9425   -7.2097   -9.0424 N   0  0  0  0  0  0  0  0  0  0  0  0
   38.3169   -5.4218   -9.2078 C   0  0  0  0  0  0  0  0  0  0  0  0
   37.5357   -6.0300   -9.9594 O   0  0  0  0  0  0  0  0  0  0  0  0
   41.1910   -2.8576   -9.2669 C   0  0  0  0  0  0  0  0  0  0  0  0
   41.0309   -1.4992   -9.2405 C   0  0  0  0  0  0  0  0  0  0  0  0
   37.8206   -4.3875   -8.4365 O   0  0  0  0  0  0  0  0  0  0  0  0
  1  2  1  0
  3  2  1  0
  3  4  1  1
  5  6  1  6
  5  3  1  0
  7  5  1  0
  8  7  2  0
 10  9  1  6
 10 12  1  0
 11 10  1  0
 13 12  1  1
 13 15  1  0
 13 14  1  0
 14  7  1  0
 15 24  1  0
 16 15  2  0
 17 18  1  0
 18 28  2  0
 19 18  1  0
 19 20  2  0
 20 21  1  0
 21 27  2  0
 21 22  1  0
 23 22  1  6
 23 25  1  0
 24 23  1  0
 25 26  2  0
 25 29  1  0
 28 27  1  0
M  END
$$$$
