MMR.pdb
     RDKit          3D

 28 27  0  0  1  0  0  0  0  0999 V2000
   24.5551  -16.3094  -15.0823 C   0  0  0  0  0  0  0  0  0  0  0  0
   26.1269  -15.9357  -15.9369 S   0  0  0  0  0  0  0  0  0  0  0  0
   27.2641  -17.3006  -15.6268 C   0  0  0  0  0  0  0  0  0  0  0  0
   26.5904  -18.2813  -14.7182 C   0  0  0  0  0  0  0  0  0  0  0  0
   27.5460  -19.3079  -14.1971 C   0  0  2  0  0  0  0  0  0  0  0  0
   28.3698  -19.8942  -15.2051 N   0  0  0  0  0  0  0  0  0  0  0  0
   26.9733  -20.2487  -13.2201 C   0  0  0  0  0  0  0  0  0  0  0  0
   26.9235  -21.4920  -13.5215 O   0  0  0  0  0  0  0  0  0  0  0  0
   26.9332  -19.3439   -7.0596 C   0  0  0  0  0  0  0  0  0  0  0  0
   28.0719  -20.7240   -7.4127 S   0  0  0  0  0  0  0  0  0  0  0  0
   27.8193  -21.1929   -9.1721 C   0  0  0  0  0  0  0  0  0  0  0  0
   26.4320  -20.7503   -9.5914 C   0  0  0  0  0  0  0  0  0  0  0  0
   26.0830  -20.9465  -10.9921 C   0  0  2  0  0  0  0  0  0  0  0  0
   26.4536  -19.9095  -11.9319 N   0  0  0  0  0  0  0  0  0  0  0  0
   24.6991  -21.4771  -11.2555 C   0  0  0  0  0  0  0  0  0  0  0  0
   24.2537  -22.3166  -10.4769 O   0  0  0  0  0  0  0  0  0  0  0  0
   18.6315  -23.8137   -8.0862 N   0  0  0  0  0  0  0  0  0  0  0  0
   18.2012  -24.0197   -9.4453 C   0  0  0  0  0  0  0  0  0  0  0  0
   17.1543  -24.8075   -9.5977 N   0  0  0  0  0  0  0  0  0  0  0  0
   18.8360  -23.4421  -10.5510 N   0  0  0  0  0  0  0  0  0  0  0  0
   19.6736  -22.2568  -10.3980 C   0  0  0  0  0  0  0  0  0  0  0  0
   20.2815  -21.8256  -11.7438 C   0  0  0  0  0  0  0  0  0  0  0  0
   21.6972  -21.4943  -11.5209 C   0  0  0  0  0  0  0  0  0  0  0  0
   22.5920  -21.4139  -12.7333 C   0  0  2  0  0  0  0  0  0  0  0  0
   23.9172  -21.0800  -12.3283 N   0  0  0  0  0  0  0  0  0  0  0  0
   22.0040  -20.7970  -13.8990 C   0  0  0  0  0  0  0  0  0  0  0  0
   22.3000  -19.5721  -14.1615 O   0  0  0  0  0  0  0  0  0  0  0  0
   21.1424  -21.2613  -14.8336 O   0  0  0  0  0  0  0  0  0  0  0  0
  2  1  1  0
  3  2  1  0
  4  5  1  0
  4  3  1  0
  5  6  1  6
  7  8  2  0
  7  5  1  0
 10  9  1  0
 11 10  1  0
 11 12  1  0
 13 12  1  1
 13 14  1  0
 14  7  1  0
 15 25  1  0
 15 13  1  0
 16 15  2  0
 17 18  1  0
 18 20  1  0
 19 18  2  0
 20 21  1  0
 21 22  1  0
 22 23  1  0
 24 23  1  1
 24 25  1  0
 24 26  1  0
 26 28  1  0
 27 26  2  0
M  END
$$$$
