MMR.pdb
     RDKit          3D

 28 27  0  0  1  0  0  0  0  0999 V2000
   30.6567  -24.1106  -16.8134 C   0  0  0  0  0  0  0  0  0  0  0  0
   30.1507  -22.8597  -18.0460 S   0  0  0  0  0  0  0  0  0  0  0  0
   29.4071  -21.4768  -17.1587 C   0  0  0  0  0  0  0  0  0  0  0  0
   28.2064  -21.9793  -16.4191 C   0  0  0  0  0  0  0  0  0  0  0  0
   27.3949  -20.8608  -15.8457 C   0  0  2  0  0  0  0  0  0  0  0  0
   28.1280  -19.6490  -15.6657 N   0  0  0  0  0  0  0  0  0  0  0  0
   26.5162  -21.2421  -14.7277 C   0  0  0  0  0  0  0  0  0  0  0  0
   25.7416  -22.2512  -14.8721 O   0  0  0  0  0  0  0  0  0  0  0  0
   26.6287  -19.5249   -8.4758 C   0  0  0  0  0  0  0  0  0  0  0  0
   25.5165  -20.9649   -8.3531 S   0  0  0  0  0  0  0  0  0  0  0  0
   24.8188  -21.2502  -10.0297 C   0  0  0  0  0  0  0  0  0  0  0  0
   25.8673  -20.8704  -11.0558 C   0  0  0  0  0  0  0  0  0  0  0  0
   25.4980  -21.0382  -12.4549 C   0  0  2  0  0  0  0  0  0  0  0  0
   26.4364  -20.5854  -13.4600 N   0  0  0  0  0  0  0  0  0  0  0  0
   24.0790  -20.6791  -12.8067 C   0  0  0  0  0  0  0  0  0  0  0  0
   23.7815  -19.4872  -12.8257 O   0  0  0  0  0  0  0  0  0  0  0  0
   16.1852  -23.8375  -10.9259 N   0  0  0  0  0  0  0  0  0  0  0  0
   17.3828  -24.5959  -11.1810 C   0  0  0  0  0  0  0  0  0  0  0  0
   17.2072  -25.8884  -11.3771 N   0  0  0  0  0  0  0  0  0  0  0  0
   18.6618  -24.0284  -11.2171 N   0  0  0  0  0  0  0  0  0  0  0  0
   18.8483  -22.5921  -11.0374 C   0  0  0  0  0  0  0  0  0  0  0  0
   19.4420  -21.9442  -12.3002 C   0  0  0  0  0  0  0  0  0  0  0  0
   20.9081  -22.0140  -12.2039 C   0  0  0  0  0  0  0  0  0  0  0  0
   21.7074  -21.5024  -13.3771 C   0  0  2  0  0  0  0  0  0  0  0  0
   23.0996  -21.6164  -13.0933 N   0  0  0  0  0  0  0  0  0  0  0  0
   21.1836  -20.3180  -14.0159 C   0  0  0  0  0  0  0  0  0  0  0  0
   21.5349  -19.1670  -13.5593 O   0  0  0  0  0  0  0  0  0  0  0  0
   20.3376  -20.1488  -15.0584 O   0  0  0  0  0  0  0  0  0  0  0  0
  2  1  1  0
  3  2  1  0
  4  5  1  0
  4  3  1  0
  5  6  1  1
  7  8  2  0
  7  5  1  0
 10  9  1  0
 11 10  1  0
 11 12  1  0
 13 12  1  1
 13 14  1  0
 14  7  1  0
 15 25  1  0
 15 13  1  0
 16 15  2  0
 17 18  1  0
 18 20  1  0
 19 18  2  0
 20 21  1  0
 21 22  1  0
 22 23  1  0
 24 23  1  1
 24 25  1  0
 24 26  1  0
 26 28  1  0
 27 26  2  0
M  END
$$$$
