MMR.pdb
     RDKit          3D

 28 27  0  0  1  0  0  0  0  0999 V2000
   32.8003  -23.1397   -7.9768 C   0  0  0  0  0  0  0  0  0  0  0  0
   33.6535  -22.5071   -9.4642 S   0  0  0  0  0  0  0  0  0  0  0  0
   32.3947  -21.9597  -10.6340 C   0  0  0  0  0  0  0  0  0  0  0  0
   31.0545  -22.0784   -9.9777 C   0  0  0  0  0  0  0  0  0  0  0  0
   29.9609  -21.5262  -10.8365 C   0  0  2  0  0  0  0  0  0  0  0  0
   30.3235  -20.3378  -11.5399 N   0  0  0  0  0  0  0  0  0  0  0  0
   28.6286  -21.5106  -10.2102 C   0  0  0  0  0  0  0  0  0  0  0  0
   28.0983  -22.6243   -9.8673 O   0  0  0  0  0  0  0  0  0  0  0  0
   27.5419  -20.7740   -4.6277 C   0  0  0  0  0  0  0  0  0  0  0  0
   27.3924  -19.1709   -5.4841 S   0  0  0  0  0  0  0  0  0  0  0  0
   27.7189  -19.4807   -7.2664 C   0  0  0  0  0  0  0  0  0  0  0  0
   26.4541  -20.0273   -7.8972 C   0  0  0  0  0  0  0  0  0  0  0  0
   26.5565  -20.4672   -9.2822 C   0  0  2  0  0  0  0  0  0  0  0  0
   27.8431  -20.3479   -9.9352 N   0  0  0  0  0  0  0  0  0  0  0  0
   25.4255  -20.0561  -10.1866 C   0  0  0  0  0  0  0  0  0  0  0  0
   24.7444  -19.0926   -9.8443 O   0  0  0  0  0  0  0  0  0  0  0  0
   21.4188  -25.9387  -13.6340 N   0  0  0  0  0  0  0  0  0  0  0  0
   21.1202  -25.1247  -14.7842 C   0  0  0  0  0  0  0  0  0  0  0  0
   19.9177  -25.2885  -15.3009 N   0  0  0  0  0  0  0  0  0  0  0  0
   22.0277  -24.2174  -15.3432 N   0  0  0  0  0  0  0  0  0  0  0  0
   23.1768  -23.7419  -14.5793 C   0  0  0  0  0  0  0  0  0  0  0  0
   22.8116  -22.5129  -13.7290 C   0  0  0  0  0  0  0  0  0  0  0  0
   24.0097  -22.1021  -12.9810 C   0  0  0  0  0  0  0  0  0  0  0  0
   23.8806  -20.9149  -12.0584 C   0  0  2  0  0  0  0  0  0  0  0  0
   25.1097  -20.7118  -11.3657 N   0  0  0  0  0  0  0  0  0  0  0  0
   22.6198  -20.8031  -11.3634 C   0  0  0  0  0  0  0  0  0  0  0  0
   22.4386  -21.5079  -10.3016 O   0  0  0  0  0  0  0  0  0  0  0  0
   21.5089  -20.0715  -11.6121 O   0  0  0  0  0  0  0  0  0  0  0  0
  2  1  1  0
  3  2  1  0
  4  5  1  0
  4  3  1  0
  5  6  1  1
  7  8  2  0
  7  5  1  0
 10  9  1  0
 11 10  1  0
 11 12  1  0
 13 12  1  1
 13 14  1  0
 14  7  1  0
 15 25  1  0
 15 13  1  0
 16 15  2  0
 17 18  1  0
 18 20  1  0
 19 18  2  0
 20 21  1  0
 21 22  1  0
 22 23  1  0
 24 23  1  1
 24 25  1  0
 24 26  1  0
 26 28  1  0
 27 26  2  0
M  END
$$$$
