MMR.pdb
     RDKit          3D

 28 27  0  0  1  0  0  0  0  0999 V2000
   22.5210  -16.3310  -15.4834 C   0  0  0  0  0  0  0  0  0  0  0  0
   22.1426  -16.7885  -17.2119 S   0  0  0  0  0  0  0  0  0  0  0  0
   22.4396  -15.3409  -18.2457 C   0  0  0  0  0  0  0  0  0  0  0  0
   22.4618  -14.1284  -17.3679 C   0  0  0  0  0  0  0  0  0  0  0  0
   22.6613  -12.8720  -18.1554 C   0  0  2  0  0  0  0  0  0  0  0  0
   23.2316  -13.0847  -19.4470 N   0  0  0  0  0  0  0  0  0  0  0  0
   23.2223  -11.7446  -17.3926 C   0  0  0  0  0  0  0  0  0  0  0  0
   22.6982  -11.4463  -16.2633 O   0  0  0  0  0  0  0  0  0  0  0  0
   27.9354  -13.2294  -15.3952 C   0  0  0  0  0  0  0  0  0  0  0  0
   26.8925  -11.7360  -15.3069 S   0  0  0  0  0  0  0  0  0  0  0  0
   27.1158  -10.8297  -16.8905 C   0  0  0  0  0  0  0  0  0  0  0  0
   26.2215   -9.6064  -16.8726 C   0  0  0  0  0  0  0  0  0  0  0  0
   24.7867   -9.8493  -16.9412 C   0  0  2  0  0  0  0  0  0  0  0  0
   24.3241  -10.9254  -17.7920 N   0  0  0  0  0  0  0  0  0  0  0  0
   23.9188   -8.6250  -17.0591 C   0  0  0  0  0  0  0  0  0  0  0  0
   23.6736   -8.2077  -18.1883 O   0  0  0  0  0  0  0  0  0  0  0  0
   17.3304   -9.3367  -18.8948 N   0  0  0  0  0  0  0  0  0  0  0  0
   18.1552   -9.8477  -17.8303 C   0  0  0  0  0  0  0  0  0  0  0  0
   18.1309  -11.1567  -17.6695 N   0  0  0  0  0  0  0  0  0  0  0  0
   18.9354   -9.0338  -17.0008 N   0  0  0  0  0  0  0  0  0  0  0  0
   18.9451   -7.5842  -17.1699 C   0  0  0  0  0  0  0  0  0  0  0  0
   19.9533   -6.9181  -16.2177 C   0  0  0  0  0  0  0  0  0  0  0  0
   21.3018   -7.1078  -16.7738 C   0  0  0  0  0  0  0  0  0  0  0  0
   22.4736   -6.8680  -15.8539 C   0  0  2  0  0  0  0  0  0  0  0  0
   23.3999   -7.9453  -15.9688 N   0  0  0  0  0  0  0  0  0  0  0  0
   22.1446   -6.3186  -14.5596 C   0  0  0  0  0  0  0  0  0  0  0  0
   22.2216   -7.0855  -13.5287 O   0  0  0  0  0  0  0  0  0  0  0  0
   21.7364   -5.0873  -14.1743 O   0  0  0  0  0  0  0  0  0  0  0  0
  2  1  1  0
  3  2  1  0
  4  5  1  0
  4  3  1  0
  5  6  1  6
  7  8  2  0
  7  5  1  0
 10  9  1  0
 11 10  1  0
 11 12  1  0
 13 12  1  6
 13 14  1  0
 14  7  1  0
 15 25  1  0
 15 13  1  0
 16 15  2  0
 17 18  1  0
 18 20  1  0
 19 18  2  0
 20 21  1  0
 21 22  1  0
 22 23  1  0
 24 23  1  1
 24 25  1  0
 24 26  1  0
 26 28  1  0
 27 26  2  0
M  END
$$$$
