MMR.pdb
     RDKit          3D

 28 27  0  0  1  0  0  0  0  0999 V2000
   29.7923  -22.5955  -17.0384 C   0  0  0  0  0  0  0  0  0  0  0  0
   29.7499  -20.8571  -17.6010 S   0  0  0  0  0  0  0  0  0  0  0  0
   28.3534  -20.0483  -16.7958 C   0  0  0  0  0  0  0  0  0  0  0  0
   27.8801  -20.9231  -15.6770 C   0  0  0  0  0  0  0  0  0  0  0  0
   26.6335  -20.3928  -15.0420 C   0  0  2  0  0  0  0  0  0  0  0  0
   26.4812  -18.9782  -15.1624 N   0  0  0  0  0  0  0  0  0  0  0  0
   26.3268  -20.9527  -13.7154 C   0  0  0  0  0  0  0  0  0  0  0  0
   26.3894  -22.2213  -13.5551 O   0  0  0  0  0  0  0  0  0  0  0  0
   26.9213  -19.4042   -7.7504 C   0  0  0  0  0  0  0  0  0  0  0  0
   25.7653  -20.7665   -7.3849 S   0  0  0  0  0  0  0  0  0  0  0  0
   24.9816  -21.2485   -8.9763 C   0  0  0  0  0  0  0  0  0  0  0  0
   25.7681  -20.6180  -10.1079 C   0  0  0  0  0  0  0  0  0  0  0  0
   25.2656  -20.8484  -11.4557 C   0  0  2  0  0  0  0  0  0  0  0  0
   25.9574  -20.2061  -12.5532 N   0  0  0  0  0  0  0  0  0  0  0  0
   23.7703  -20.7852  -11.6182 C   0  0  0  0  0  0  0  0  0  0  0  0
   23.2807  -19.7144  -11.9689 O   0  0  0  0  0  0  0  0  0  0  0  0
   16.5974  -22.7786   -9.4702 N   0  0  0  0  0  0  0  0  0  0  0  0
   16.8914  -24.1695   -9.2387 C   0  0  0  0  0  0  0  0  0  0  0  0
   15.8664  -24.9931   -9.3429 N   0  0  0  0  0  0  0  0  0  0  0  0
   18.1680  -24.6444   -8.9161 N   0  0  0  0  0  0  0  0  0  0  0  0
   19.3017  -23.7312   -8.8117 C   0  0  0  0  0  0  0  0  0  0  0  0
   19.5746  -23.0252  -10.1511 C   0  0  0  0  0  0  0  0  0  0  0  0
   21.0153  -22.7393  -10.2320 C   0  0  0  0  0  0  0  0  0  0  0  0
   21.5121  -22.0110  -11.4566 C   0  0  2  0  0  0  0  0  0  0  0  0
   22.9274  -21.8592  -11.3813 N   0  0  0  0  0  0  0  0  0  0  0  0
   20.6808  -20.9211  -11.9107 C   0  0  0  0  0  0  0  0  0  0  0  0
   19.6349  -21.1954  -12.6091 O   0  0  0  0  0  0  0  0  0  0  0  0
   20.7782  -19.5804  -11.7550 O   0  0  0  0  0  0  0  0  0  0  0  0
  2  1  1  0
  3  2  1  0
  4  5  1  0
  4  3  1  0
  5  6  1  1
  7  8  2  0
  7  5  1  0
 10  9  1  0
 11 10  1  0
 11 12  1  0
 13 12  1  1
 13 14  1  0
 14  7  1  0
 15 25  1  0
 15 13  1  0
 16 15  2  0
 17 18  1  0
 18 20  1  0
 19 18  2  0
 20 21  1  0
 21 22  1  0
 22 23  1  0
 24 23  1  1
 24 25  1  0
 24 26  1  0
 26 28  1  0
 27 26  2  0
M  END
$$$$
