YTK.pdb
     RDKit          3D

 29 29  0  0  1  0  0  0  0  0999 V2000
   15.8284  -22.0140   19.7261 O   0  0  0  0  0  0  0  0  0  0  0  0
   15.1055  -20.8825   20.0810 C   0  0  0  0  0  0  0  0  0  0  0  0
   15.2987  -20.1832   21.2401 C   0  0  0  0  0  0  0  0  0  0  0  0
   14.5731  -19.0618   21.5785 C   0  0  0  0  0  0  0  0  0  0  0  0
   13.5873  -18.5926   20.7185 C   0  0  0  0  0  0  0  0  0  0  0  0
   12.7844  -17.3912   21.0430 C   0  0  0  0  0  0  0  0  0  0  0  0
   11.7514  -17.1064   19.9592 C   0  0  2  0  0  0  0  0  0  0  0  0
   12.4421  -16.6210   18.8057 N   0  0  0  0  0  0  0  0  0  0  0  0
   10.7860  -16.1060   20.4462 C   0  0  0  0  0  0  0  0  0  0  0  0
   11.0031  -14.8663   20.2272 O   0  0  0  0  0  0  0  0  0  0  0  0
   13.3906  -19.2950   19.5504 C   0  0  0  0  0  0  0  0  0  0  0  0
   14.1166  -20.4160   19.2129 C   0  0  0  0  0  0  0  0  0  0  0  0
    7.4298  -15.6072   19.4085 C   0  0  0  0  0  0  0  0  0  0  0  0
    7.3180  -15.7109   20.9157 C   0  0  1  0  0  0  0  0  0  0  0  0
    6.9727  -17.0416   21.2389 O   0  0  0  0  0  0  0  0  0  0  0  0
    8.6268  -15.4147   21.5563 C   0  0  2  0  0  0  0  0  0  0  0  0
    9.5981  -16.4158   21.1606 N   0  0  0  0  0  0  0  0  0  0  0  0
    8.5908  -15.2188   23.0096 C   0  0  0  0  0  0  0  0  0  0  0  0
    9.3393  -15.9530   23.7075 O   0  0  0  0  0  0  0  0  0  0  0  0
    7.7801  -14.2725   23.6510 N   0  0  0  0  0  0  0  0  0  0  0  0
    7.6745  -14.2519   25.1872 C   0  0  1  0  0  0  0  0  0  0  0  0
    6.7993  -13.1364   25.4558 C   0  0  0  0  0  0  0  0  0  0  0  0
    6.5064  -12.5467   26.7442 C   0  0  0  0  0  0  0  0  0  0  0  0
    5.6466  -11.4174   27.0324 C   0  0  0  0  0  0  0  0  0  0  0  0
    5.3949  -10.8240   28.3349 C   0  0  0  0  0  0  0  0  0  0  0  0
    4.4939   -9.6868   28.3266 N   0  0  0  0  0  0  0  0  0  0  0  0
    7.4360  -15.6121   25.5864 C   0  0  0  0  0  0  0  0  0  0  0  0
    6.7554  -16.3579   24.7830 O   0  0  0  0  0  0  0  0  0  0  0  0
    7.8490  -16.2667   26.7269 O   0  0  0  0  0  0  0  0  0  0  0  0
  2 12  2  0
  2  1  1  0
  3  2  1  0
  4  5  1  0
  4  3  2  0
  5 11  2  0
  6  5  1  0
  7  9  1  0
  7  6  1  0
  7  8  1  6
  9 10  2  0
 11 12  1  0
 14 13  1  6
 14 15  1  0
 16 14  1  0
 16 17  1  1
 17  9  1  0
 18 16  1  0
 19 18  2  0
 20 18  1  0
 21 20  1  0
 21 22  1  6
 23 22  1  0
 24 25  1  0
 24 23  1  0
 26 25  1  0
 27 21  1  0
 27 29  1  0
 28 27  2  0
M  END
$$$$
