YTK.pdb
     RDKit          3D

 29 29  0  0  1  0  0  0  0  0999 V2000
    4.7608  -10.4520   28.7715 O   0  0  0  0  0  0  0  0  0  0  0  0
    5.4205  -11.2785   27.8714 C   0  0  0  0  0  0  0  0  0  0  0  0
    4.9352  -11.6062   26.6357 C   0  0  0  0  0  0  0  0  0  0  0  0
    5.6018  -12.4281   25.7533 C   0  0  0  0  0  0  0  0  0  0  0  0
    6.8326  -12.9673   26.1081 C   0  0  0  0  0  0  0  0  0  0  0  0
    7.5828  -13.8548   25.1901 C   0  0  0  0  0  0  0  0  0  0  0  0
    6.7021  -14.9848   24.6699 C   0  0  2  0  0  0  0  0  0  0  0  0
    6.4308  -15.8714   25.7579 N   0  0  0  0  0  0  0  0  0  0  0  0
    7.3980  -15.6942   23.5825 C   0  0  0  0  0  0  0  0  0  0  0  0
    7.9125  -16.8411   23.8102 O   0  0  0  0  0  0  0  0  0  0  0  0
    7.3237  -12.6389   27.3521 C   0  0  0  0  0  0  0  0  0  0  0  0
    6.6566  -11.8171   28.2336 C   0  0  0  0  0  0  0  0  0  0  0  0
    8.7263  -13.7487   19.9977 C   0  0  0  0  0  0  0  0  0  0  0  0
    8.1797  -15.1606   19.9478 C   0  0  1  0  0  0  0  0  0  0  0  0
    8.9141  -15.8808   18.9800 O   0  0  0  0  0  0  0  0  0  0  0  0
    8.3698  -15.8390   21.2572 C   0  0  2  0  0  0  0  0  0  0  0  0
    7.5485  -15.1927   22.2622 N   0  0  0  0  0  0  0  0  0  0  0  0
    9.7616  -15.9955   21.6933 C   0  0  0  0  0  0  0  0  0  0  0  0
   10.2626  -15.0559   22.3662 O   0  0  0  0  0  0  0  0  0  0  0  0
   10.5498  -17.1178   21.4047 N   0  0  0  0  0  0  0  0  0  0  0  0
   12.0168  -17.1786   21.8690 C   0  0  1  0  0  0  0  0  0  0  0  0
   12.0313  -18.2654   22.8182 C   0  0  0  0  0  0  0  0  0  0  0  0
   11.4829  -18.2631   24.1571 C   0  0  0  0  0  0  0  0  0  0  0  0
   11.4536  -19.3534   25.1098 C   0  0  0  0  0  0  0  0  0  0  0  0
   10.8339  -19.3455   26.4244 C   0  0  0  0  0  0  0  0  0  0  0  0
   11.0016  -20.5674   27.1884 N   0  0  0  0  0  0  0  0  0  0  0  0
   12.8138  -17.1054   20.6750 C   0  0  0  0  0  0  0  0  0  0  0  0
   14.0854  -16.9379   20.8170 O   0  0  0  0  0  0  0  0  0  0  0  0
   12.4162  -17.2046   19.3590 O   0  0  0  0  0  0  0  0  0  0  0  0
  2 12  2  0
  2  1  1  0
  3  2  1  0
  4  5  1  0
  4  3  2  0
  5 11  2  0
  6  5  1  0
  7  9  1  0
  7  6  1  0
  7  8  1  1
  9 10  2  0
 11 12  1  0
 14 13  1  1
 14 15  1  0
 16 14  1  0
 16 17  1  1
 17  9  1  0
 18 16  1  0
 19 18  2  0
 20 18  1  0
 21 20  1  0
 21 22  1  6
 23 22  1  0
 24 25  1  0
 24 23  1  0
 26 25  1  0
 27 21  1  0
 27 29  1  0
 28 27  2  0
M  END
$$$$
