YTK.pdb
     RDKit          3D

 29 29  0  0  1  0  0  0  0  0999 V2000
    7.8456  -12.1862   16.9862 O   0  0  0  0  0  0  0  0  0  0  0  0
    7.9050  -12.9786   18.1252 C   0  0  0  0  0  0  0  0  0  0  0  0
    6.8177  -13.3065   18.8870 C   0  0  0  0  0  0  0  0  0  0  0  0
    6.8926  -14.0940   20.0151 C   0  0  0  0  0  0  0  0  0  0  0  0
    8.1218  -14.5961   20.4256 C   0  0  0  0  0  0  0  0  0  0  0  0
    8.2472  -15.4466   21.6315 C   0  0  0  0  0  0  0  0  0  0  0  0
    8.6248  -16.8766   21.2636 C   0  0  2  0  0  0  0  0  0  0  0  0
    7.5360  -17.4488   20.5355 N   0  0  0  0  0  0  0  0  0  0  0  0
    8.8932  -17.6485   22.4892 C   0  0  0  0  0  0  0  0  0  0  0  0
    7.9133  -18.0731   23.1902 O   0  0  0  0  0  0  0  0  0  0  0  0
    9.2184  -14.2675   19.6602 C   0  0  0  0  0  0  0  0  0  0  0  0
    9.1427  -13.4800   18.5325 C   0  0  0  0  0  0  0  0  0  0  0  0
   11.1619  -20.5878   23.1937 C   0  0  0  0  0  0  0  0  0  0  0  0
   11.5062  -19.5337   24.2258 C   0  0  1  0  0  0  0  0  0  0  0  0
   12.6951  -18.8911   23.8160 O   0  0  0  0  0  0  0  0  0  0  0  0
   10.4359  -18.5039   24.2950 C   0  0  2  0  0  0  0  0  0  0  0  0
   10.1907  -17.9692   22.9697 N   0  0  0  0  0  0  0  0  0  0  0  0
   10.6371  -17.4472   25.2923 C   0  0  0  0  0  0  0  0  0  0  0  0
   10.9057  -16.2942   24.8624 O   0  0  0  0  0  0  0  0  0  0  0  0
   10.5473  -17.6509   26.6761 N   0  0  0  0  0  0  0  0  0  0  0  0
   10.6904  -16.4650   27.6479 C   0  0  1  0  0  0  0  0  0  0  0  0
    9.6021  -15.5900   27.2839 C   0  0  0  0  0  0  0  0  0  0  0  0
    9.3746  -14.2390   27.7492 C   0  0  0  0  0  0  0  0  0  0  0  0
    8.2777  -13.3544   27.4148 C   0  0  0  0  0  0  0  0  0  0  0  0
    8.0487  -12.0159   27.9328 C   0  0  0  0  0  0  0  0  0  0  0  0
    6.8806  -11.3428   27.3968 N   0  0  0  0  0  0  0  0  0  0  0  0
   10.8958  -17.0411   28.9487 C   0  0  0  0  0  0  0  0  0  0  0  0
   11.1146  -16.2328   29.9304 O   0  0  0  0  0  0  0  0  0  0  0  0
   10.8800  -18.3678   29.3224 O   0  0  0  0  0  0  0  0  0  0  0  0
  2 12  2  0
  2  1  1  0
  3  2  1  0
  4  5  1  0
  4  3  2  0
  5 11  2  0
  6  5  1  0
  7  9  1  0
  7  6  1  0
  7  8  1  1
  9 10  2  0
 11 12  1  0
 14 13  1  6
 14 15  1  0
 16 14  1  0
 16 17  1  6
 17  9  1  0
 18 16  1  0
 19 18  2  0
 20 18  1  0
 21 20  1  0
 21 22  1  1
 23 22  1  0
 24 25  1  0
 24 23  1  0
 26 25  1  0
 27 21  1  0
 27 29  1  0
 28 27  2  0
M  END
$$$$
