YTK.pdb
     RDKit          3D

 29 29  0  0  1  0  0  0  0  0999 V2000
    7.6983  -12.3546   28.2579 O   0  0  0  0  0  0  0  0  0  0  0  0
    7.5638  -12.6618   26.9103 C   0  0  0  0  0  0  0  0  0  0  0  0
    6.3970  -12.5337   26.2088 C   0  0  0  0  0  0  0  0  0  0  0  0
    6.2790  -12.8429   24.8713 C   0  0  0  0  0  0  0  0  0  0  0  0
    7.3847  -13.3112   24.1714 C   0  0  0  0  0  0  0  0  0  0  0  0
    7.3021  -13.6549   22.7332 C   0  0  0  0  0  0  0  0  0  0  0  0
    6.8433  -15.0945   22.5336 C   0  0  2  0  0  0  0  0  0  0  0  0
    5.8944  -15.4029   23.5573 N   0  0  0  0  0  0  0  0  0  0  0  0
    8.0035  -15.9989   22.6108 C   0  0  0  0  0  0  0  0  0  0  0  0
    8.1269  -16.7764   23.6169 O   0  0  0  0  0  0  0  0  0  0  0  0
    8.5611  -13.4412   24.8755 C   0  0  0  0  0  0  0  0  0  0  0  0
    8.6780  -13.1319   26.2127 C   0  0  0  0  0  0  0  0  0  0  0  0
    9.7493  -17.2652   19.2561 C   0  0  0  0  0  0  0  0  0  0  0  0
   10.7758  -17.1238   20.3612 C   0  0  1  0  0  0  0  0  0  0  0  0
   11.4721  -15.9117   20.1599 O   0  0  0  0  0  0  0  0  0  0  0  0
   10.1061  -17.0462   21.6866 C   0  0  2  0  0  0  0  0  0  0  0  0
    9.0267  -16.0800   21.6290 N   0  0  0  0  0  0  0  0  0  0  0  0
   10.9938  -16.8205   22.8324 C   0  0  0  0  0  0  0  0  0  0  0  0
   11.0432  -15.6520   23.3002 O   0  0  0  0  0  0  0  0  0  0  0  0
   11.7768  -17.8212   23.4239 N   0  0  0  0  0  0  0  0  0  0  0  0
   12.6801  -17.4929   24.6271 C   0  0  1  0  0  0  0  0  0  0  0  0
   12.2541  -18.4274   25.6408 C   0  0  0  0  0  0  0  0  0  0  0  0
   12.4349  -18.3068   27.0713 C   0  0  0  0  0  0  0  0  0  0  0  0
   12.0960  -19.2718   28.0966 C   0  0  0  0  0  0  0  0  0  0  0  0
   12.3448  -19.1508   29.5234 C   0  0  0  0  0  0  0  0  0  0  0  0
   11.7804  -20.2119   30.3361 N   0  0  0  0  0  0  0  0  0  0  0  0
   14.0142  -17.3841   24.1031 C   0  0  0  0  0  0  0  0  0  0  0  0
   14.2701  -17.9928   22.9944 O   0  0  0  0  0  0  0  0  0  0  0  0
   15.0932  -16.6945   24.6132 O   0  0  0  0  0  0  0  0  0  0  0  0
  2 12  2  0
  2  1  1  0
  3  2  1  0
  4  5  1  0
  4  3  2  0
  5 11  2  0
  6  5  1  0
  7  9  1  0
  7  6  1  0
  7  8  1  1
  9 10  2  0
 11 12  1  0
 14 13  1  6
 14 15  1  0
 16 14  1  0
 16 17  1  6
 17  9  1  0
 18 16  1  0
 19 18  2  0
 20 18  1  0
 21 20  1  0
 21 22  1  1
 23 22  1  0
 24 25  1  0
 24 23  1  0
 26 25  1  0
 27 21  1  0
 27 29  1  0
 28 27  2  0
M  END
$$$$
