YTK.pdb
     RDKit          3D

 29 29  0  0  1  0  0  0  0  0999 V2000
    5.5039  -10.4673   28.5652 O   0  0  0  0  0  0  0  0  0  0  0  0
    6.0649  -11.4090   27.7125 C   0  0  0  0  0  0  0  0  0  0  0  0
    5.5551  -11.7300   26.4849 C   0  0  0  0  0  0  0  0  0  0  0  0
    6.1233  -12.6671   25.6498 C   0  0  0  0  0  0  0  0  0  0  0  0
    7.2740  -13.3376   26.0470 C   0  0  0  0  0  0  0  0  0  0  0  0
    7.9174  -14.3518   25.1805 C   0  0  0  0  0  0  0  0  0  0  0  0
    6.8800  -15.2392   24.5029 C   0  0  2  0  0  0  0  0  0  0  0  0
    6.2682  -16.0516   25.5073 N   0  0  0  0  0  0  0  0  0  0  0  0
    7.5355  -16.0777   23.4844 C   0  0  0  0  0  0  0  0  0  0  0  0
    7.8751  -17.2732   23.7800 O   0  0  0  0  0  0  0  0  0  0  0  0
    7.7896  -13.0163   27.2829 C   0  0  0  0  0  0  0  0  0  0  0  0
    7.2209  -12.0793   28.1172 C   0  0  0  0  0  0  0  0  0  0  0  0
    7.1641  -15.4483   19.5914 C   0  0  0  0  0  0  0  0  0  0  0  0
    8.5981  -15.8309   19.8953 C   0  0  1  0  0  0  0  0  0  0  0  0
    9.3851  -14.6595   19.8403 O   0  0  0  0  0  0  0  0  0  0  0  0
    8.7084  -16.3859   21.2704 C   0  0  2  0  0  0  0  0  0  0  0  0
    7.8295  -15.6535   22.1611 N   0  0  0  0  0  0  0  0  0  0  0  0
   10.0713  -16.4966   21.8013 C   0  0  0  0  0  0  0  0  0  0  0  0
   10.3149  -15.9079   22.8879 O   0  0  0  0  0  0  0  0  0  0  0  0
   11.0995  -17.2119   21.1725 N   0  0  0  0  0  0  0  0  0  0  0  0
   12.3337  -17.6666   21.9735 C   0  0  1  0  0  0  0  0  0  0  0  0
   11.7743  -18.4415   23.0548 C   0  0  0  0  0  0  0  0  0  0  0  0
   12.3151  -18.5986   24.3875 C   0  0  0  0  0  0  0  0  0  0  0  0
   11.7345  -19.3119   25.5063 C   0  0  0  0  0  0  0  0  0  0  0  0
   12.3253  -19.5006   26.8206 C   0  0  0  0  0  0  0  0  0  0  0  0
   11.4612  -20.1401   27.7950 N   0  0  0  0  0  0  0  0  0  0  0  0
   13.2788  -18.1506   21.0046 C   0  0  0  0  0  0  0  0  0  0  0  0
   12.8080  -18.6995   19.9360 O   0  0  0  0  0  0  0  0  0  0  0  0
   14.6559  -18.1034   21.0372 O   0  0  0  0  0  0  0  0  0  0  0  0
  2 12  2  0
  2  1  1  0
  3  2  1  0
  4  5  1  0
  4  3  2  0
  5 11  2  0
  6  5  1  0
  7  9  1  0
  7  6  1  0
  7  8  1  1
  9 10  2  0
 11 12  1  0
 14 13  1  1
 14 15  1  0
 16 14  1  0
 16 17  1  1
 17  9  1  0
 18 16  1  0
 19 18  2  0
 20 18  1  0
 21 20  1  0
 21 22  1  1
 23 22  1  0
 24 25  1  0
 24 23  1  0
 26 25  1  0
 27 21  1  0
 27 29  1  0
 28 27  2  0
M  END
$$$$
