YTK.pdb
     RDKit          3D

 29 29  0  0  1  0  0  0  0  0999 V2000
    8.9760  -11.1293   18.5472 O   0  0  0  0  0  0  0  0  0  0  0  0
    8.4294  -12.2632   19.1340 C   0  0  0  0  0  0  0  0  0  0  0  0
    7.8399  -13.2790   18.4335 C   0  0  0  0  0  0  0  0  0  0  0  0
    7.3017  -14.3983   19.0301 C   0  0  0  0  0  0  0  0  0  0  0  0
    7.3447  -14.5310   20.4129 C   0  0  0  0  0  0  0  0  0  0  0  0
    6.7785  -15.7175   21.0948 C   0  0  0  0  0  0  0  0  0  0  0  0
    7.2582  -15.8075   22.5386 C   0  0  2  0  0  0  0  0  0  0  0  0
    8.5491  -15.1985   22.6152 N   0  0  0  0  0  0  0  0  0  0  0  0
    7.3248  -17.2202   22.9509 C   0  0  0  0  0  0  0  0  0  0  0  0
    6.2736  -17.9430   22.8849 O   0  0  0  0  0  0  0  0  0  0  0  0
    7.9377  -13.5094   21.1208 C   0  0  0  0  0  0  0  0  0  0  0  0
    8.4756  -12.3908   20.5235 C   0  0  0  0  0  0  0  0  0  0  0  0
   10.0217  -19.7367   21.9950 C   0  0  0  0  0  0  0  0  0  0  0  0
    9.7995  -19.8776   23.4869 C   0  0  1  0  0  0  0  0  0  0  0  0
   10.8421  -19.1950   24.1515 O   0  0  0  0  0  0  0  0  0  0  0  0
    8.5161  -19.2405   23.8843 C   0  0  2  0  0  0  0  0  0  0  0  0
    8.4968  -17.8638   23.4300 N   0  0  0  0  0  0  0  0  0  0  0  0
    8.1604  -19.3632   25.3021 C   0  0  0  0  0  0  0  0  0  0  0  0
    8.2430  -18.3232   26.0078 O   0  0  0  0  0  0  0  0  0  0  0  0
    7.7404  -20.5581   25.9022 N   0  0  0  0  0  0  0  0  0  0  0  0
    7.4910  -20.6205   27.4205 C   0  0  1  0  0  0  0  0  0  0  0  0
    6.6572  -21.7870   27.5834 C   0  0  0  0  0  0  0  0  0  0  0  0
    6.2328  -22.3903   28.8282 C   0  0  0  0  0  0  0  0  0  0  0  0
    5.3809  -23.5468   29.0128 C   0  0  0  0  0  0  0  0  0  0  0  0
    4.9407  -24.1118   30.2774 C   0  0  0  0  0  0  0  0  0  0  0  0
    4.0316  -25.2367   30.1628 N   0  0  0  0  0  0  0  0  0  0  0  0
    8.7719  -20.4197   28.0412 C   0  0  0  0  0  0  0  0  0  0  0  0
    9.8209  -20.7236   27.3539 O   0  0  0  0  0  0  0  0  0  0  0  0
    9.0607  -19.9224   29.2939 O   0  0  0  0  0  0  0  0  0  0  0  0
  2 12  2  0
  2  1  1  0
  3  2  1  0
  4  5  1  0
  4  3  2  0
  5 11  2  0
  6  5  1  0
  7  9  1  0
  7  6  1  0
  7  8  1  6
  9 10  2  0
 11 12  1  0
 14 13  1  6
 14 15  1  0
 16 14  1  0
 16 17  1  1
 17  9  1  0
 18 16  1  0
 19 18  2  0
 20 18  1  0
 21 20  1  0
 21 22  1  6
 23 22  1  0
 24 25  1  0
 24 23  1  0
 26 25  1  0
 27 21  1  0
 27 29  1  0
 28 27  2  0
M  END
$$$$
