RFH.pdb
     RDKit          3D

 33 34  0  0  1  0  0  0  0  0999 V2000
   24.6545  -18.4153  -21.9488 N   0  0  0  0  0  0  0  0  0  0  0  0
   23.8885  -18.4150  -20.7666 C   0  0  0  0  0  0  0  0  0  0  0  0
   22.6109  -18.2337  -20.8575 N   0  0  0  0  0  0  0  0  0  0  0  0
   24.5481  -18.6116  -19.5314 N   0  0  0  0  0  0  0  0  0  0  0  0
   25.5671  -19.6028  -19.4165 C   0  0  0  0  0  0  0  0  0  0  0  0
   25.0035  -21.0273  -19.3810 C   0  0  0  0  0  0  0  0  0  0  0  0
   25.1935  -21.5126  -17.9576 C   0  0  0  0  0  0  0  0  0  0  0  0
   25.9264  -20.4913  -17.1143 C   0  0  2  0  0  0  0  0  0  0  0  0
   27.3297  -20.5061  -17.3882 N   0  0  0  0  0  0  0  0  0  0  0  0
   25.7078  -20.8872  -15.6895 C   0  0  0  0  0  0  0  0  0  0  0  0
   24.7829  -21.6869  -15.4024 O   0  0  0  0  0  0  0  0  0  0  0  0
   22.0191  -18.2096  -20.0236 N   0  0  0  0  0  0  0  0  0  0  0  0
   26.5246  -20.3805  -14.6349 C   0  0  1  0  0  0  0  0  0  0  0  0
   26.2519  -20.5157  -13.2402 C   0  0  0  0  0  0  0  0  0  0  0  0
   27.3610  -20.0449  -12.3162 C   0  0  0  0  0  0  0  0  0  0  0  0
   27.0208  -20.1938  -10.8814 C   0  0  0  0  0  0  0  0  0  0  0  0
   26.4586  -19.0915  -10.2119 C   0  0  0  0  0  0  0  0  0  0  0  0
   26.1150  -19.1201   -8.8858 C   0  0  0  0  0  0  0  0  0  0  0  0
   26.3225  -20.2692   -8.1635 C   0  0  0  0  0  0  0  0  0  0  0  0
   26.8638  -21.3591   -8.7695 C   0  0  0  0  0  0  0  0  0  0  0  0
   27.2055  -21.3121  -10.1121 C   0  0  0  0  0  0  0  0  0  0  0  0
   24.9046  -20.1143  -12.8259 O   0  0  0  0  0  0  0  0  0  0  0  0
   24.3510  -19.0792  -13.3445 N   0  0  0  0  0  0  0  0  0  0  0  0
   24.1169  -20.7842  -11.8680 C   0  0  1  0  0  0  0  0  0  0  0  0
   22.7042  -20.4031  -11.6282 C   0  0  0  0  0  0  0  0  0  0  0  0
   21.9812  -20.8373  -12.8725 C   0  0  0  0  0  0  0  0  0  0  0  0
   20.5374  -20.6217  -12.8706 C   0  0  0  0  0  0  0  0  0  0  0  0
   19.9089  -19.9755  -11.8021 N   0  0  0  0  0  0  0  0  0  0  0  0
   18.6000  -19.9175  -12.0615 C   0  0  0  0  0  0  0  0  0  0  0  0
   18.4292  -20.5121  -13.2575 N   0  0  0  0  0  0  0  0  0  0  0  0
   19.5910  -20.9354  -13.7446 C   0  0  0  0  0  0  0  0  0  0  0  0
   22.2195  -21.0416  -10.3912 O   0  0  0  0  0  0  0  0  0  0  0  0
   21.1172  -20.5164   -9.6887 O   0  0  0  0  0  0  0  0  0  0  0  0
  2  4  1  0
  2  1  1  0
  3  2  2  0
  5  4  1  0
  6  5  1  0
  7  6  1  0
  8  7  1  0
  8  9  1  6
 10  8  1  0
 10 12  1  0
 11 10  2  0
 13 12  1  0
 13 14  1  1
 15 14  1  0
 15 16  2  0
 17 16  1  0
 18 17  2  0
 19 20  2  0
 19 18  1  0
 20 15  1  0
 21 13  1  0
 21 22  2  0
 23 24  1  0
 23 21  1  0
 24 25  1  1
 25 26  1  0
 26 30  1  0
 27 28  1  0
 27 26  2  0
 28 29  1  0
 29 30  2  0
 31 24  1  0
 32 31  1  0
 33 31  2  0
M  END
$$$$
