RFH.pdb
     RDKit          3D

 33 34  0  0  1  0  0  0  0  0999 V2000
   30.1329  -21.8806  -20.4887 N   0  0  0  0  0  0  0  0  0  0  0  0
   29.1901  -21.2790  -21.3452 C   0  0  0  0  0  0  0  0  0  0  0  0
   29.4906  -21.1406  -22.5958 N   0  0  0  0  0  0  0  0  0  0  0  0
   27.9568  -20.8512  -20.8019 N   0  0  0  0  0  0  0  0  0  0  0  0
   27.6948  -21.0159  -19.4097 C   0  0  0  0  0  0  0  0  0  0  0  0
   27.2386  -22.4361  -19.0589 C   0  0  0  0  0  0  0  0  0  0  0  0
   26.4343  -22.3089  -17.7804 C   0  0  0  0  0  0  0  0  0  0  0  0
   27.0711  -21.3305  -16.8169 C   0  0  2  0  0  0  0  0  0  0  0  0
   28.4481  -21.6456  -16.5951 N   0  0  0  0  0  0  0  0  0  0  0  0
   26.3297  -21.4680  -15.5262 C   0  0  0  0  0  0  0  0  0  0  0  0
   25.1454  -21.8857  -15.5322 O   0  0  0  0  0  0  0  0  0  0  0  0
   28.8596  -20.6597  -23.2415 N   0  0  0  0  0  0  0  0  0  0  0  0
   26.9309  -21.1367  -14.2753 C   0  0  1  0  0  0  0  0  0  0  0  0
   26.2540  -21.0906  -13.0193 C   0  0  0  0  0  0  0  0  0  0  0  0
   27.1549  -20.9602  -11.8040 C   0  0  0  0  0  0  0  0  0  0  0  0
   26.4000  -20.8479  -10.5335 C   0  0  0  0  0  0  0  0  0  0  0  0
   26.3669  -19.5993   -9.8862 C   0  0  0  0  0  0  0  0  0  0  0  0
   25.7053  -19.3888   -8.7048 C   0  0  0  0  0  0  0  0  0  0  0  0
   25.0397  -20.4339   -8.1130 C   0  0  0  0  0  0  0  0  0  0  0  0
   25.0452  -21.6586   -8.7032 C   0  0  0  0  0  0  0  0  0  0  0  0
   25.7199  -21.8532   -9.8984 C   0  0  0  0  0  0  0  0  0  0  0  0
   25.0603  -20.2410  -12.9844 O   0  0  0  0  0  0  0  0  0  0  0  0
   25.1145  -19.0331  -13.4142 N   0  0  0  0  0  0  0  0  0  0  0  0
   23.7962  -20.6372  -12.5028 C   0  0  1  0  0  0  0  0  0  0  0  0
   22.5984  -19.7827  -12.6861 C   0  0  0  0  0  0  0  0  0  0  0  0
   22.4163  -19.7053  -14.1762 C   0  0  0  0  0  0  0  0  0  0  0  0
   21.1813  -19.0718  -14.6284 C   0  0  0  0  0  0  0  0  0  0  0  0
   20.3748  -18.3543  -13.7401 N   0  0  0  0  0  0  0  0  0  0  0  0
   19.3204  -17.8903  -14.4159 C   0  0  0  0  0  0  0  0  0  0  0  0
   19.4752  -18.3115  -15.6855 N   0  0  0  0  0  0  0  0  0  0  0  0
   20.5917  -19.0208  -15.8149 C   0  0  0  0  0  0  0  0  0  0  0  0
   21.4541  -20.3683  -11.9648 O   0  0  0  0  0  0  0  0  0  0  0  0
   21.3259  -21.7638  -11.8206 O   0  0  0  0  0  0  0  0  0  0  0  0
  2  4  1  0
  2  1  1  0
  3  2  2  0
  5  4  1  0
  6  5  1  0
  7  6  1  0
  8  7  1  0
  8  9  1  1
 10  8  1  0
 10 12  1  0
 11 10  2  0
 13 12  1  0
 13 14  1  6
 15 14  1  0
 15 16  2  0
 17 16  1  0
 18 17  2  0
 19 20  2  0
 19 18  1  0
 20 15  1  0
 21 13  1  0
 21 22  2  0
 23 24  1  0
 23 21  1  0
 24 25  1  1
 25 26  1  0
 26 30  1  0
 27 28  1  0
 27 26  2  0
 28 29  1  0
 29 30  2  0
 31 24  1  0
 32 31  1  0
 33 31  2  0
M  END
$$$$
