RFH.pdb
     RDKit          3D

 33 34  0  0  1  0  0  0  0  0999 V2000
   29.6304  -18.9356  -20.1428 N   0  0  0  0  0  0  0  0  0  0  0  0
   30.4361  -20.0366  -20.4935 C   0  0  0  0  0  0  0  0  0  0  0  0
   31.2937  -19.8951  -21.4516 N   0  0  0  0  0  0  0  0  0  0  0  0
   30.2727  -21.2492  -19.7849 N   0  0  0  0  0  0  0  0  0  0  0  0
   29.3078  -21.3397  -18.7384 C   0  0  0  0  0  0  0  0  0  0  0  0
   27.8840  -21.0435  -19.2212 C   0  0  0  0  0  0  0  0  0  0  0  0
   26.9605  -21.7171  -18.2256 C   0  0  0  0  0  0  0  0  0  0  0  0
   27.7362  -22.5012  -17.1889 C   0  0  2  0  0  0  0  0  0  0  0  0
   27.7999  -23.8881  -17.5309 N   0  0  0  0  0  0  0  0  0  0  0  0
   26.9878  -22.3542  -15.9033 C   0  0  0  0  0  0  0  0  0  0  0  0
   26.1975  -23.2594  -15.5382 O   0  0  0  0  0  0  0  0  0  0  0  0
   31.8375  -20.6896  -21.7966 N   0  0  0  0  0  0  0  0  0  0  0  0
   27.1443  -21.2069  -15.0695 C   0  0  1  0  0  0  0  0  0  0  0  0
   26.4563  -20.9787  -13.8397 C   0  0  0  0  0  0  0  0  0  0  0  0
   27.1886  -20.0975  -12.8434 C   0  0  0  0  0  0  0  0  0  0  0  0
   26.5363  -20.0627  -11.5130 C   0  0  0  0  0  0  0  0  0  0  0  0
   26.9177  -21.0233  -10.5585 C   0  0  0  0  0  0  0  0  0  0  0  0
   26.3726  -21.0845   -9.3028 C   0  0  0  0  0  0  0  0  0  0  0  0
   25.4090  -20.1743   -8.9445 C   0  0  0  0  0  0  0  0  0  0  0  0
   25.0093  -19.2283   -9.8352 C   0  0  0  0  0  0  0  0  0  0  0  0
   25.5718  -19.1813  -11.1013 C   0  0  0  0  0  0  0  0  0  0  0  0
   25.0253  -20.6896  -13.9694 O   0  0  0  0  0  0  0  0  0  0  0  0
   24.6238  -19.7529  -14.7493 N   0  0  0  0  0  0  0  0  0  0  0  0
   23.9951  -21.3709  -13.2902 C   0  0  1  0  0  0  0  0  0  0  0  0
   22.5839  -20.9257  -13.3835 C   0  0  0  0  0  0  0  0  0  0  0  0
   21.8741  -22.0651  -14.0597 C   0  0  0  0  0  0  0  0  0  0  0  0
   21.8562  -22.0200  -15.5187 C   0  0  0  0  0  0  0  0  0  0  0  0
   22.3494  -20.9091  -16.2093 N   0  0  0  0  0  0  0  0  0  0  0  0
   22.2084  -21.1353  -17.5180 C   0  0  0  0  0  0  0  0  0  0  0  0
   21.6437  -22.3527  -17.6283 N   0  0  0  0  0  0  0  0  0  0  0  0
   21.4316  -22.8853  -16.4292 C   0  0  0  0  0  0  0  0  0  0  0  0
   22.0730  -20.6055  -12.0384 O   0  0  0  0  0  0  0  0  0  0  0  0
   20.8107  -20.0042  -11.8670 O   0  0  0  0  0  0  0  0  0  0  0  0
  2  4  1  0
  2  1  1  0
  3  2  2  0
  5  4  1  0
  6  5  1  0
  7  6  1  0
  8  7  1  0
  8  9  1  6
 10  8  1  0
 10 12  1  0
 11 10  2  0
 13 12  1  0
 13 14  1  1
 15 14  1  0
 15 16  2  0
 17 16  1  0
 18 17  2  0
 19 20  2  0
 19 18  1  0
 20 15  1  0
 21 13  1  0
 21 22  2  0
 23 24  1  0
 23 21  1  0
 24 25  1  1
 25 26  1  0
 26 30  1  0
 27 28  1  0
 27 26  2  0
 28 29  1  0
 29 30  2  0
 31 24  1  0
 32 31  1  0
 33 31  2  0
M  END
$$$$
