RFH.pdb
     RDKit          3D

 33 34  0  0  1  0  0  0  0  0999 V2000
   26.4369  -21.1238  -22.9020 N   0  0  0  0  0  0  0  0  0  0  0  0
   25.2839  -21.4634  -22.1675 C   0  0  0  0  0  0  0  0  0  0  0  0
   24.1341  -21.4004  -22.7571 N   0  0  0  0  0  0  0  0  0  0  0  0
   25.4317  -21.8570  -20.8175 N   0  0  0  0  0  0  0  0  0  0  0  0
   26.7321  -22.0939  -20.2816 C   0  0  0  0  0  0  0  0  0  0  0  0
   27.2135  -20.9553  -19.3760 C   0  0  0  0  0  0  0  0  0  0  0  0
   26.4907  -21.1416  -18.0567 C   0  0  0  0  0  0  0  0  0  0  0  0
   27.2659  -22.0425  -17.1193 C   0  0  2  0  0  0  0  0  0  0  0  0
   27.3090  -23.3847  -17.6104 N   0  0  0  0  0  0  0  0  0  0  0  0
   26.5313  -22.0273  -15.8176 C   0  0  0  0  0  0  0  0  0  0  0  0
   25.5302  -22.7694  -15.6611 O   0  0  0  0  0  0  0  0  0  0  0  0
   23.2775  -21.6885  -22.2783 N   0  0  0  0  0  0  0  0  0  0  0  0
   26.9353  -21.1883  -14.7364 C   0  0  2  0  0  0  0  0  0  0  0  0
   26.2721  -21.0869  -13.4764 C   0  0  0  0  0  0  0  0  0  0  0  0
   27.1490  -20.6448  -12.3183 C   0  0  0  0  0  0  0  0  0  0  0  0
   26.4030  -20.5157  -11.0441 C   0  0  0  0  0  0  0  0  0  0  0  0
   26.0423  -21.6915  -10.3610 C   0  0  0  0  0  0  0  0  0  0  0  0
   25.3462  -21.6848   -9.1808 C   0  0  0  0  0  0  0  0  0  0  0  0
   24.9762  -20.4842   -8.6268 C   0  0  0  0  0  0  0  0  0  0  0  0
   25.3032  -19.3225   -9.2527 C   0  0  0  0  0  0  0  0  0  0  0  0
   26.0078  -19.3483  -10.4461 C   0  0  0  0  0  0  0  0  0  0  0  0
   24.9517  -20.4521  -13.5154 O   0  0  0  0  0  0  0  0  0  0  0  0
   24.8316  -19.2345  -13.9025 N   0  0  0  0  0  0  0  0  0  0  0  0
   23.7406  -21.0756  -13.1528 C   0  0  1  0  0  0  0  0  0  0  0  0
   22.4741  -20.3094  -13.0672 C   0  0  0  0  0  0  0  0  0  0  0  0
   21.7344  -20.6638  -14.3268 C   0  0  0  0  0  0  0  0  0  0  0  0
   22.1390  -19.9311  -15.5229 C   0  0  0  0  0  0  0  0  0  0  0  0
   22.6888  -20.5974  -16.6220 N   0  0  0  0  0  0  0  0  0  0  0  0
   22.9655  -19.6912  -17.5633 C   0  0  0  0  0  0  0  0  0  0  0  0
   22.5954  -18.5001  -17.0559 N   0  0  0  0  0  0  0  0  0  0  0  0
   22.0990  -18.6422  -15.8313 C   0  0  0  0  0  0  0  0  0  0  0  0
   21.7618  -20.6623  -11.8259 O   0  0  0  0  0  0  0  0  0  0  0  0
   22.2772  -21.6344  -10.9462 O   0  0  0  0  0  0  0  0  0  0  0  0
  2  4  1  0
  2  1  1  0
  3  2  2  0
  5  4  1  0
  6  5  1  0
  7  6  1  0
  8  7  1  0
  8  9  1  6
 10  8  1  0
 10 12  1  0
 11 10  2  0
 13 12  1  0
 13 14  1  6
 15 14  1  0
 15 16  2  0
 17 16  1  0
 18 17  2  0
 19 20  2  0
 19 18  1  0
 20 15  1  0
 21 13  1  0
 21 22  2  0
 23 24  1  0
 23 21  1  0
 24 25  1  1
 25 26  1  0
 26 30  1  0
 27 28  1  0
 27 26  2  0
 28 29  1  0
 29 30  2  0
 31 24  1  0
 32 31  1  0
 33 31  2  0
M  END
$$$$
