RFH.pdb
     RDKit          3D

 33 34  0  0  1  0  0  0  0  0999 V2000
   30.2529  -23.2925  -20.5685 N   0  0  0  0  0  0  0  0  0  0  0  0
   29.3267  -24.3528  -20.5234 C   0  0  0  0  0  0  0  0  0  0  0  0
   29.5858  -25.4293  -21.1923 N   0  0  0  0  0  0  0  0  0  0  0  0
   28.1531  -24.1953  -19.7505 N   0  0  0  0  0  0  0  0  0  0  0  0
   27.8009  -22.9103  -19.2416 C   0  0  0  0  0  0  0  0  0  0  0  0
   28.5572  -22.5570  -17.9565 C   0  0  0  0  0  0  0  0  0  0  0  0
   27.5812  -22.7983  -16.8220 C   0  0  0  0  0  0  0  0  0  0  0  0
   26.9323  -21.5104  -16.3623 C   0  0  2  0  0  0  0  0  0  0  0  0
   27.7730  -20.3846  -16.6277 N   0  0  0  0  0  0  0  0  0  0  0  0
   26.7461  -21.6370  -14.8846 C   0  0  0  0  0  0  0  0  0  0  0  0
   25.9785  -22.5205  -14.4292 O   0  0  0  0  0  0  0  0  0  0  0  0
   28.8993  -26.1837  -21.2676 N   0  0  0  0  0  0  0  0  0  0  0  0
   27.4195  -20.7776  -13.9659 C   0  0  1  0  0  0  0  0  0  0  0  0
   27.1956  -20.7362  -12.5566 C   0  0  0  0  0  0  0  0  0  0  0  0
   28.3481  -20.1862  -11.7351 C   0  0  0  0  0  0  0  0  0  0  0  0
   28.0599  -20.1563  -10.2816 C   0  0  0  0  0  0  0  0  0  0  0  0
   28.5949  -21.1772   -9.4749 C   0  0  0  0  0  0  0  0  0  0  0  0
   28.3835  -21.2477   -8.1230 C   0  0  0  0  0  0  0  0  0  0  0  0
   27.6168  -20.2860   -7.5126 C   0  0  0  0  0  0  0  0  0  0  0  0
   27.0793  -19.2806   -8.2532 C   0  0  0  0  0  0  0  0  0  0  0  0
   27.3036  -19.2252   -9.6200 C   0  0  0  0  0  0  0  0  0  0  0  0
   25.8736  -20.2527  -12.1486 O   0  0  0  0  0  0  0  0  0  0  0  0
   25.3359  -19.2560  -12.7521 N   0  0  0  0  0  0  0  0  0  0  0  0
   25.0950  -20.7997  -11.1087 C   0  0  1  0  0  0  0  0  0  0  0  0
   23.6621  -20.4516  -10.9530 C   0  0  0  0  0  0  0  0  0  0  0  0
   22.9816  -21.1357  -12.1056 C   0  0  0  0  0  0  0  0  0  0  0  0
   21.5282  -21.0058  -12.1469 C   0  0  0  0  0  0  0  0  0  0  0  0
   20.8431  -20.2842  -11.1649 N   0  0  0  0  0  0  0  0  0  0  0  0
   19.5385  -20.3314  -11.4467 C   0  0  0  0  0  0  0  0  0  0  0  0
   19.4252  -21.0625  -12.5718 N   0  0  0  0  0  0  0  0  0  0  0  0
   20.6185  -21.4681  -12.9935 C   0  0  0  0  0  0  0  0  0  0  0  0
   23.1867  -20.8820   -9.6258 O   0  0  0  0  0  0  0  0  0  0  0  0
   23.7755  -21.9786   -8.9659 O   0  0  0  0  0  0  0  0  0  0  0  0
  2  4  1  0
  2  1  1  0
  3  2  2  0
  5  4  1  0
  6  5  1  0
  7  6  1  0
  8  7  1  0
  8  9  1  1
 10  8  1  0
 10 12  1  0
 11 10  2  0
 13 12  1  0
 13 14  1  1
 15 14  1  0
 15 16  2  0
 17 16  1  0
 18 17  2  0
 19 20  2  0
 19 18  1  0
 20 15  1  0
 21 13  1  0
 21 22  2  0
 23 24  1  0
 23 21  1  0
 24 25  1  1
 25 26  1  0
 26 30  1  0
 27 28  1  0
 27 26  2  0
 28 29  1  0
 29 30  2  0
 31 24  1  0
 32 31  1  0
 33 31  2  0
M  END
$$$$
