RFH.pdb
     RDKit          3D

 33 34  0  0  1  0  0  0  0  0999 V2000
   29.0077  -30.9131  -16.4991 N   0  0  0  0  0  0  0  0  0  0  0  0
   28.1344  -31.9510  -16.1191 C   0  0  0  0  0  0  0  0  0  0  0  0
   28.6185  -32.9606  -15.4711 N   0  0  0  0  0  0  0  0  0  0  0  0
   26.7668  -31.8462  -16.4628 N   0  0  0  0  0  0  0  0  0  0  0  0
   26.2061  -30.5734  -16.7789 C   0  0  0  0  0  0  0  0  0  0  0  0
   26.0552  -29.6729  -15.5482 C   0  0  0  0  0  0  0  0  0  0  0  0
   25.0149  -28.6349  -15.9196 C   0  0  0  0  0  0  0  0  0  0  0  0
   25.6454  -27.4226  -16.5705 C   0  0  2  0  0  0  0  0  0  0  0  0
   26.9038  -27.1085  -15.9684 N   0  0  0  0  0  0  0  0  0  0  0  0
   24.7032  -26.2848  -16.3428 C   0  0  0  0  0  0  0  0  0  0  0  0
   24.6493  -25.7402  -15.2124 O   0  0  0  0  0  0  0  0  0  0  0  0
   28.0264  -33.7501  -15.2023 N   0  0  0  0  0  0  0  0  0  0  0  0
   23.8547  -25.7928  -17.3792 C   0  0  1  0  0  0  0  0  0  0  0  0
   22.9325  -24.7109  -17.2488 C   0  0  0  0  0  0  0  0  0  0  0  0
   22.8458  -23.7872  -18.4508 C   0  0  0  0  0  0  0  0  0  0  0  0
   24.1526  -23.1930  -18.8193 C   0  0  0  0  0  0  0  0  0  0  0  0
   24.5251  -21.9769  -18.2181 C   0  0  0  0  0  0  0  0  0  0  0  0
   25.7063  -21.3395  -18.4936 C   0  0  0  0  0  0  0  0  0  0  0  0
   26.5769  -21.9001  -19.3955 C   0  0  0  0  0  0  0  0  0  0  0  0
   26.2579  -23.0747  -20.0011 C   0  0  0  0  0  0  0  0  0  0  0  0
   25.0583  -23.7056  -19.7101 C   0  0  0  0  0  0  0  0  0  0  0  0
   21.6381  -25.0619  -16.6577 O   0  0  0  0  0  0  0  0  0  0  0  0
   20.8863  -25.9357  -17.2216 N   0  0  0  0  0  0  0  0  0  0  0  0
   21.1103  -24.5090  -15.4734 C   0  0  1  0  0  0  0  0  0  0  0  0
   19.8224  -24.9801  -14.9095 C   0  0  0  0  0  0  0  0  0  0  0  0
   19.9896  -24.8401  -13.4223 C   0  0  0  0  0  0  0  0  0  0  0  0
   20.6805  -25.9418  -12.7590 C   0  0  0  0  0  0  0  0  0  0  0  0
   21.5374  -26.7855  -13.4717 N   0  0  0  0  0  0  0  0  0  0  0  0
   22.0255  -27.6958  -12.6250 C   0  0  0  0  0  0  0  0  0  0  0  0
   21.4830  -27.4185  -11.4243 N   0  0  0  0  0  0  0  0  0  0  0  0
   20.6753  -26.3659  -11.5028 C   0  0  0  0  0  0  0  0  0  0  0  0
   18.7135  -24.1888  -15.4724 O   0  0  0  0  0  0  0  0  0  0  0  0
   18.8389  -22.7986  -15.6623 O   0  0  0  0  0  0  0  0  0  0  0  0
  2  4  1  0
  2  1  1  0
  3  2  2  0
  5  4  1  0
  6  5  1  0
  7  6  1  0
  8  7  1  0
  8  9  1  1
 10  8  1  0
 10 12  1  0
 11 10  2  0
 13 12  1  0
 13 14  1  1
 15 14  1  0
 15 16  2  0
 17 16  1  0
 18 17  2  0
 19 20  2  0
 19 18  1  0
 20 15  1  0
 21 13  1  0
 21 22  2  0
 23 24  1  0
 23 21  1  0
 24 25  1  6
 25 26  1  0
 26 30  1  0
 27 28  1  0
 27 26  2  0
 28 29  1  0
 29 30  2  0
 31 24  1  0
 32 31  1  0
 33 31  2  0
M  END
$$$$
