RFH.pdb
     RDKit          3D

 33 34  0  0  1  0  0  0  0  0999 V2000
   27.4590  -16.4704  -22.5073 N   0  0  0  0  0  0  0  0  0  0  0  0
   26.3026  -16.2189  -23.2715 C   0  0  0  0  0  0  0  0  0  0  0  0
   26.4409  -15.7153  -24.4551 N   0  0  0  0  0  0  0  0  0  0  0  0
   25.0406  -16.5261  -22.7127 N   0  0  0  0  0  0  0  0  0  0  0  0
   24.9589  -17.2996  -21.5172 C   0  0  0  0  0  0  0  0  0  0  0  0
   23.5210  -17.4511  -21.0095 C   0  0  0  0  0  0  0  0  0  0  0  0
   23.6099  -18.3109  -19.7642 C   0  0  0  0  0  0  0  0  0  0  0  0
   24.0339  -17.5014  -18.5576 C   0  0  2  0  0  0  0  0  0  0  0  0
   25.3882  -17.0595  -18.6816 N   0  0  0  0  0  0  0  0  0  0  0  0
   23.9297  -18.4156  -17.3796 C   0  0  0  0  0  0  0  0  0  0  0  0
   24.1525  -19.6430  -17.5249 O   0  0  0  0  0  0  0  0  0  0  0  0
   25.6281  -15.5090  -25.0406 N   0  0  0  0  0  0  0  0  0  0  0  0
   23.5817  -17.9334  -16.0826 C   0  0  1  0  0  0  0  0  0  0  0  0
   23.5322  -18.7216  -14.8934 C   0  0  0  0  0  0  0  0  0  0  0  0
   24.6632  -18.4793  -13.9098 C   0  0  0  0  0  0  0  0  0  0  0  0
   26.0032  -18.7030  -14.5024 C   0  0  0  0  0  0  0  0  0  0  0  0
   26.5745  -19.9840  -14.3937 C   0  0  0  0  0  0  0  0  0  0  0  0
   27.8095  -20.2953  -14.8991 C   0  0  0  0  0  0  0  0  0  0  0  0
   28.5351  -19.3240  -15.5437 C   0  0  0  0  0  0  0  0  0  0  0  0
   28.0222  -18.0715  -15.6718 C   0  0  0  0  0  0  0  0  0  0  0  0
   26.7710  -17.7745  -15.1542 C   0  0  0  0  0  0  0  0  0  0  0  0
   22.2072  -18.8407  -14.2782 O   0  0  0  0  0  0  0  0  0  0  0  0
   21.6012  -17.7966  -13.8429 N   0  0  0  0  0  0  0  0  0  0  0  0
   21.4966  -20.0461  -14.1087 C   0  0  1  0  0  0  0  0  0  0  0  0
   20.1580  -20.0693  -13.4716 C   0  0  0  0  0  0  0  0  0  0  0  0
   19.2249  -20.4899  -14.5724 C   0  0  0  0  0  0  0  0  0  0  0  0
   18.8170  -19.4320  -15.4919 C   0  0  0  0  0  0  0  0  0  0  0  0
   18.7695  -18.0980  -15.0766 N   0  0  0  0  0  0  0  0  0  0  0  0
   18.3659  -17.3538  -16.1095 C   0  0  0  0  0  0  0  0  0  0  0  0
   18.1709  -18.2079  -17.1321 N   0  0  0  0  0  0  0  0  0  0  0  0
   18.4412  -19.4558  -16.7631 C   0  0  0  0  0  0  0  0  0  0  0  0
   20.1750  -20.9776  -12.3107 O   0  0  0  0  0  0  0  0  0  0  0  0
   19.2693  -20.8085  -11.2451 O   0  0  0  0  0  0  0  0  0  0  0  0
  2  4  1  0
  2  1  1  0
  3  2  2  0
  5  4  1  0
  6  5  1  0
  7  6  1  0
  8  7  1  0
  8  9  1  6
 10  8  1  0
 10 12  1  0
 11 10  2  0
 13 12  1  0
 13 14  1  6
 15 14  1  0
 15 16  2  0
 17 16  1  0
 18 17  2  0
 19 20  2  0
 19 18  1  0
 20 15  1  0
 21 13  1  0
 21 22  2  0
 23 24  1  0
 23 21  1  0
 24 25  1  1
 25 26  1  0
 26 30  1  0
 27 28  1  0
 27 26  2  0
 28 29  1  0
 29 30  2  0
 31 24  1  0
 32 31  1  0
 33 31  2  0
M  END
$$$$
