RFH.pdb
     RDKit          3D

 33 34  0  0  1  0  0  0  0  0999 V2000
   14.0140  -17.6072    6.6808 N   0  0  0  0  0  0  0  0  0  0  0  0
   12.7104  -18.1404    6.6573 C   0  0  0  0  0  0  0  0  0  0  0  0
   11.8714  -17.7634    7.5670 N   0  0  0  0  0  0  0  0  0  0  0  0
   12.3746  -19.0655    5.6420 N   0  0  0  0  0  0  0  0  0  0  0  0
   13.3552  -19.9813    5.1584 C   0  0  0  0  0  0  0  0  0  0  0  0
   12.7753  -21.0004    4.1718 C   0  0  0  0  0  0  0  0  0  0  0  0
   13.9340  -21.8894    3.7657 C   0  0  0  0  0  0  0  0  0  0  0  0
   14.3247  -21.6692    2.3200 C   0  0  2  0  0  0  0  0  0  0  0  0
   14.3264  -22.8997    1.5918 N   0  0  0  0  0  0  0  0  0  0  0  0
   15.7136  -21.1167    2.3388 C   0  0  0  0  0  0  0  0  0  0  0  0
   16.6756  -21.8438    1.9881 O   0  0  0  0  0  0  0  0  0  0  0  0
   10.8979  -18.0766    7.5514 N   0  0  0  0  0  0  0  0  0  0  0  0
   15.9836  -19.7762    2.7465 C   0  0  2  0  0  0  0  0  0  0  0  0
   17.2750  -19.1693    2.7888 C   0  0  0  0  0  0  0  0  0  0  0  0
   17.4208  -17.9020    1.9652 C   0  0  0  0  0  0  0  0  0  0  0  0
   18.8016  -17.3635    1.9716 C   0  0  0  0  0  0  0  0  0  0  0  0
   19.8120  -18.1125    1.3414 C   0  0  0  0  0  0  0  0  0  0  0  0
   21.1210  -17.7099    1.2964 C   0  0  0  0  0  0  0  0  0  0  0  0
   21.4790  -16.5239    1.8887 C   0  0  0  0  0  0  0  0  0  0  0  0
   20.5354  -15.7675    2.5096 C   0  0  0  0  0  0  0  0  0  0  0  0
   19.2158  -16.1905    2.5454 C   0  0  0  0  0  0  0  0  0  0  0  0
   17.8913  -19.1049    4.1170 O   0  0  0  0  0  0  0  0  0  0  0  0
   17.2226  -18.6610    5.1183 N   0  0  0  0  0  0  0  0  0  0  0  0
   19.2095  -19.5013    4.4200 C   0  0  1  0  0  0  0  0  0  0  0  0
   19.7376  -19.4302    5.8037 C   0  0  0  0  0  0  0  0  0  0  0  0
   20.5569  -20.6809    5.9581 C   0  0  0  0  0  0  0  0  0  0  0  0
   19.8007  -21.9288    6.0015 C   0  0  0  0  0  0  0  0  0  0  0  0
   19.7570  -22.7813    4.8944 N   0  0  0  0  0  0  0  0  0  0  0  0
   18.9999  -23.8354    5.2094 C   0  0  0  0  0  0  0  0  0  0  0  0
   18.5894  -23.6357    6.4762 N   0  0  0  0  0  0  0  0  0  0  0  0
   19.0692  -22.4918    6.9533 C   0  0  0  0  0  0  0  0  0  0  0  0
   20.4987  -18.1806    5.9822 O   0  0  0  0  0  0  0  0  0  0  0  0
   20.2508  -17.3317    7.0788 O   0  0  0  0  0  0  0  0  0  0  0  0
  2  4  1  0
  2  1  1  0
  3  2  2  0
  5  4  1  0
  6  5  1  0
  7  6  1  0
  8  7  1  0
  8  9  1  6
 10  8  1  0
 10 12  1  0
 11 10  2  0
 13 12  1  0
 13 14  1  6
 15 14  1  0
 15 16  2  0
 17 16  1  0
 18 17  2  0
 19 20  2  0
 19 18  1  0
 20 15  1  0
 21 13  1  0
 21 22  2  0
 23 24  1  0
 23 21  1  0
 24 25  1  1
 25 26  1  0
 26 30  1  0
 27 28  1  0
 27 26  2  0
 28 29  1  0
 29 30  2  0
 31 24  1  0
 32 31  1  0
 33 31  2  0
M  END
$$$$
