GTG.pdb
     RDKit          3D

 16 15  0  0  1  0  0  0  0  0999 V2000
   20.2776  -13.5120  -16.3252 N   0  0  0  0  0  0  0  0  0  0  0  0
   19.4079  -12.3547  -16.2754 C   0  0  0  0  0  0  0  0  0  0  0  0
   20.1927  -11.1363  -16.6827 C   0  0  0  0  0  0  0  0  0  0  0  0
   21.0789  -11.2407  -17.5675 O   0  0  0  0  0  0  0  0  0  0  0  0
   18.9966   -8.5438  -18.4054 C   0  0  0  0  0  0  0  0  0  0  0  0
   19.6132   -7.8064  -17.2367 C   0  0  1  0  0  0  0  0  0  0  0  0
   18.5954   -7.4292  -16.3857 O   0  0  0  0  0  0  0  0  0  0  0  0
   20.6537   -8.6651  -16.5339 C   0  0  2  0  0  0  0  0  0  0  0  0
   19.9694   -9.8745  -16.1051 N   0  0  0  0  0  0  0  0  0  0  0  0
   21.2547   -7.9467  -15.3998 C   0  0  0  0  0  0  0  0  0  0  0  0
   20.8140   -8.2311  -14.2342 O   0  0  0  0  0  0  0  0  0  0  0  0
   22.2793   -6.9754  -15.5525 N   0  0  0  0  0  0  0  0  0  0  0  0
   22.9091   -6.4800  -14.3501 C   0  0  0  0  0  0  0  0  0  0  0  0
   22.1748   -5.3850  -13.7205 C   0  0  0  0  0  0  0  0  0  0  0  0
   22.6636   -4.7372  -12.6041 O   0  0  0  0  0  0  0  0  0  0  0  0
   21.0758   -5.0162  -14.1947 O   0  0  0  0  0  0  0  0  0  0  0  0
  2  1  1  0
  2  3  1  0
  3  4  2  0
  6  5  1  6
  6  8  1  0
  7  6  1  0
  9  3  1  0
  8  9  1  1
 10  8  1  0
 10 12  1  0
 11 10  2  0
 13 12  1  0
 14 13  1  0
 15 14  1  0
 16 14  2  0
M  END
$$$$
