GTG.pdb
     RDKit          3D

 16 15  0  0  1  0  0  0  0  0999 V2000
   24.4624  -13.1781  -16.2036 N   0  0  0  0  0  0  0  0  0  0  0  0
   24.2596  -12.1906  -15.1636 C   0  0  0  0  0  0  0  0  0  0  0  0
   23.6444  -10.9591  -15.7728 C   0  0  0  0  0  0  0  0  0  0  0  0
   23.8313  -10.7143  -16.9911 O   0  0  0  0  0  0  0  0  0  0  0  0
   20.5137  -10.4896  -16.5186 C   0  0  0  0  0  0  0  0  0  0  0  0
   20.7302   -9.2362  -15.6989 C   0  0  1  0  0  0  0  0  0  0  0  0
   20.1583   -9.4334  -14.4594 O   0  0  0  0  0  0  0  0  0  0  0  0
   22.2096   -8.8972  -15.5956 C   0  0  2  0  0  0  0  0  0  0  0  0
   22.8614  -10.0644  -15.0232 N   0  0  0  0  0  0  0  0  0  0  0  0
   22.4214   -7.6957  -14.7740 C   0  0  0  0  0  0  0  0  0  0  0  0
   22.5541   -7.8704  -13.5148 O   0  0  0  0  0  0  0  0  0  0  0  0
   22.4820   -6.3853  -15.3179 N   0  0  0  0  0  0  0  0  0  0  0  0
   22.7331   -5.2970  -14.4012 C   0  0  0  0  0  0  0  0  0  0  0  0
   21.5175   -4.6104  -13.9703 C   0  0  0  0  0  0  0  0  0  0  0  0
   21.5702   -3.4175  -13.2781 O   0  0  0  0  0  0  0  0  0  0  0  0
   20.3962   -5.1048  -14.2285 O   0  0  0  0  0  0  0  0  0  0  0  0
  2  1  1  0
  2  3  1  0
  3  4  2  0
  6  5  1  6
  6  8  1  0
  7  6  1  0
  9  3  1  0
  8  9  1  1
 10  8  1  0
 10 12  1  0
 11 10  2  0
 13 12  1  0
 14 13  1  0
 15 14  1  0
 16 14  2  0
M  END
$$$$
