WQV.pdb
     RDKit          3D

 31 32  0  0  1  0  0  0  0  0999 V2000
   28.2782  -21.8888  -10.3785 N   0  0  0  0  0  0  0  0  0  0  0  0
   27.1206  -21.1329   -9.9590 C   0  0  1  0  0  0  0  0  0  0  0  0
   27.5255  -19.8276   -9.3208 C   0  0  0  0  0  0  0  0  0  0  0  0
   28.4806  -20.1321   -8.2275 C   0  0  0  0  0  0  0  0  0  0  0  0
   29.7066  -20.7460   -8.3170 C   0  0  0  0  0  0  0  0  0  0  0  0
   30.2462  -20.8275   -7.0975 N   0  0  0  0  0  0  0  0  0  0  0  0
   29.4165  -20.2819   -6.1687 C   0  0  0  0  0  0  0  0  0  0  0  0
   29.4968  -20.1151   -4.7923 C   0  0  0  0  0  0  0  0  0  0  0  0
   28.4619  -19.5056   -4.1068 C   0  0  0  0  0  0  0  0  0  0  0  0
   27.3559  -19.0716   -4.8261 C   0  0  0  0  0  0  0  0  0  0  0  0
   27.2910  -19.2448   -6.1952 C   0  0  0  0  0  0  0  0  0  0  0  0
   28.3149  -19.8483   -6.8759 C   0  0  0  0  0  0  0  0  0  0  0  0
   26.3457  -20.7757  -11.2014 C   0  0  0  0  0  0  0  0  0  0  0  0
   26.8969  -20.1247  -12.1099 O   0  0  0  0  0  0  0  0  0  0  0  0
   24.6372  -25.2804  -14.3428 N   0  0  0  0  0  0  0  0  0  0  0  0
   23.9061  -24.2572  -14.9920 C   0  0  0  0  0  0  0  0  0  0  0  0
   23.3552  -24.4252  -16.1070 O   0  0  0  0  0  0  0  0  0  0  0  0
   23.7691  -22.9190  -14.3494 C   0  0  0  0  0  0  0  0  0  0  0  0
   24.4101  -22.8847  -12.9887 C   0  0  0  0  0  0  0  0  0  0  0  0
   24.3150  -21.4763  -12.4465 C   0  0  2  0  0  0  0  0  0  0  0  0
   25.0212  -21.2158  -11.2447 N   0  0  0  0  0  0  0  0  0  0  0  0
   23.0150  -20.8567  -12.4797 C   0  0  0  0  0  0  0  0  0  0  0  0
   22.3356  -20.8160  -11.3963 O   0  0  0  0  0  0  0  0  0  0  0  0
   22.0158  -17.4030  -14.4232 C   0  0  0  0  0  0  0  0  0  0  0  0
   20.9944  -18.4849  -14.5351 C   0  0  1  0  0  0  0  0  0  0  0  0
   21.0577  -19.1177  -15.8991 C   0  0  0  0  0  0  0  0  0  0  0  0
   21.1411  -19.5581  -13.4812 C   0  0  2  0  0  0  0  0  0  0  0  0
   22.3970  -20.2733  -13.6178 N   0  0  0  0  0  0  0  0  0  0  0  0
   20.0169  -20.5167  -13.6166 C   0  0  0  0  0  0  0  0  0  0  0  0
   20.1968  -21.7913  -14.1272 O   0  0  0  0  0  0  0  0  0  0  0  0
   18.8552  -20.1897  -13.2654 O   0  0  0  0  0  0  0  0  0  0  0  0
  2  1  1  6
  3  4  1  0
  3  2  1  0
  4  5  2  0
  6  5  1  0
  7  6  1  0
  8  7  2  0
  9  8  1  0
 10  9  2  0
 10 11  1  0
 11 12  2  0
 12  7  1  0
 12  4  1  0
 13  2  1  0
 13 14  2  0
 16 15  1  0
 16 17  2  0
 18 19  1  0
 18 16  1  0
 20 19  1  1
 20 21  1  0
 21 13  1  0
 22 28  1  0
 22 20  1  0
 23 22  2  0
 25 24  1  6
 26 25  1  0
 27 25  1  0
 27 29  1  0
 27 28  1  6
 29 30  1  0
 31 29  2  0
M  END
$$$$
