WQV.pdb
     RDKit          3D

 31 32  0  0  1  0  0  0  0  0999 V2000
   27.1396  -22.0430  -13.8635 N   0  0  0  0  0  0  0  0  0  0  0  0
   26.1409  -21.7298  -12.8676 C   0  0  1  0  0  0  0  0  0  0  0  0
   26.4743  -20.4468  -12.1478 C   0  0  0  0  0  0  0  0  0  0  0  0
   27.5661  -20.7346  -11.1860 C   0  0  0  0  0  0  0  0  0  0  0  0
   28.9043  -20.9065  -11.4464 C   0  0  0  0  0  0  0  0  0  0  0  0
   29.5465  -21.1483  -10.3001 N   0  0  0  0  0  0  0  0  0  0  0  0
   28.6777  -21.1466   -9.2542 C   0  0  0  0  0  0  0  0  0  0  0  0
   28.8239  -21.3404   -7.8867 C   0  0  0  0  0  0  0  0  0  0  0  0
   27.7202  -21.2759   -7.0560 C   0  0  0  0  0  0  0  0  0  0  0  0
   26.4791  -21.0152   -7.6224 C   0  0  0  0  0  0  0  0  0  0  0  0
   26.3501  -20.8247   -8.9846 C   0  0  0  0  0  0  0  0  0  0  0  0
   27.4419  -20.8882   -9.8090 C   0  0  0  0  0  0  0  0  0  0  0  0
   24.8448  -21.4833  -13.5963 C   0  0  0  0  0  0  0  0  0  0  0  0
   24.8449  -20.8291  -14.6570 O   0  0  0  0  0  0  0  0  0  0  0  0
   18.3271  -24.4601  -15.0274 N   0  0  0  0  0  0  0  0  0  0  0  0
   19.5739  -24.4265  -14.3586 C   0  0  0  0  0  0  0  0  0  0  0  0
   20.0452  -25.4235  -13.7596 O   0  0  0  0  0  0  0  0  0  0  0  0
   20.3791  -23.1719  -14.3493 C   0  0  0  0  0  0  0  0  0  0  0  0
   21.6671  -23.3407  -13.5904 C   0  0  0  0  0  0  0  0  0  0  0  0
   22.4235  -22.0317  -13.6275 C   0  0  2  0  0  0  0  0  0  0  0  0
   23.6995  -22.0248  -13.0091 N   0  0  0  0  0  0  0  0  0  0  0  0
   21.6635  -20.8375  -13.3607 C   0  0  0  0  0  0  0  0  0  0  0  0
   21.6779  -20.3633  -12.1726 O   0  0  0  0  0  0  0  0  0  0  0  0
   19.5505  -16.5956  -14.7144 C   0  0  0  0  0  0  0  0  0  0  0  0
   20.2749  -17.8592  -15.0382 C   0  0  1  0  0  0  0  0  0  0  0  0
   21.7081  -17.5597  -15.3868 C   0  0  0  0  0  0  0  0  0  0  0  0
   20.2366  -18.8748  -13.9197 C   0  0  2  0  0  0  0  0  0  0  0  0
   20.8824  -20.1171  -14.3033 N   0  0  0  0  0  0  0  0  0  0  0  0
   18.8206  -19.1484  -13.5718 C   0  0  0  0  0  0  0  0  0  0  0  0
   18.1917  -18.5216  -12.5091 O   0  0  0  0  0  0  0  0  0  0  0  0
   18.1467  -19.9690  -14.2442 O   0  0  0  0  0  0  0  0  0  0  0  0
  2  1  1  6
  3  4  1  0
  3  2  1  0
  4  5  2  0
  6  5  1  0
  7  6  1  0
  8  7  2  0
  9  8  1  0
 10  9  2  0
 10 11  1  0
 11 12  2  0
 12  7  1  0
 12  4  1  0
 13  2  1  0
 13 14  2  0
 16 15  1  0
 16 17  2  0
 18 19  1  0
 18 16  1  0
 20 19  1  1
 20 21  1  0
 21 13  1  0
 22 28  1  0
 22 20  1  0
 23 22  2  0
 25 24  1  1
 26 25  1  0
 27 25  1  0
 27 29  1  0
 27 28  1  6
 29 30  1  0
 31 29  2  0
M  END
$$$$
