WQV.pdb
     RDKit          3D

 31 32  0  0  1  0  0  0  0  0999 V2000
   28.1033  -21.7086  -10.3565 N   0  0  0  0  0  0  0  0  0  0  0  0
   26.7938  -21.2606   -9.9419 C   0  0  1  0  0  0  0  0  0  0  0  0
   26.8952  -20.1746   -8.9001 C   0  0  0  0  0  0  0  0  0  0  0  0
   27.9761  -20.5488   -7.9558 C   0  0  0  0  0  0  0  0  0  0  0  0
   28.9963  -21.4492   -8.1462 C   0  0  0  0  0  0  0  0  0  0  0  0
   29.7552  -21.4908   -7.0474 N   0  0  0  0  0  0  0  0  0  0  0  0
   29.2784  -20.6368   -6.1029 C   0  0  0  0  0  0  0  0  0  0  0  0
   29.6855  -20.3064   -4.8168 C   0  0  0  0  0  0  0  0  0  0  0  0
   28.9743  -19.3745   -4.0831 C   0  0  0  0  0  0  0  0  0  0  0  0
   27.8570  -18.7876   -4.6629 C   0  0  0  0  0  0  0  0  0  0  0  0
   27.4650  -19.1269   -5.9434 C   0  0  0  0  0  0  0  0  0  0  0  0
   28.1679  -20.0496   -6.6717 C   0  0  0  0  0  0  0  0  0  0  0  0
   26.1339  -20.6354  -11.1441 C   0  0  0  0  0  0  0  0  0  0  0  0
   26.8117  -19.9581  -11.9410 O   0  0  0  0  0  0  0  0  0  0  0  0
   26.3532  -23.3510  -14.5442 N   0  0  0  0  0  0  0  0  0  0  0  0
   25.0612  -23.7964  -14.1765 C   0  0  0  0  0  0  0  0  0  0  0  0
   24.7187  -25.0019  -14.2437 O   0  0  0  0  0  0  0  0  0  0  0  0
   24.0485  -22.8178  -13.6875 C   0  0  0  0  0  0  0  0  0  0  0  0
   24.5787  -21.4099  -13.7050 C   0  0  0  0  0  0  0  0  0  0  0  0
   24.0486  -20.6802  -12.4912 C   0  0  2  0  0  0  0  0  0  0  0  0
   24.7641  -20.8690  -11.2815 N   0  0  0  0  0  0  0  0  0  0  0  0
   22.6202  -20.6855  -12.3057 C   0  0  0  0  0  0  0  0  0  0  0  0
   22.1369  -21.3776  -11.3442 O   0  0  0  0  0  0  0  0  0  0  0  0
   19.8863  -18.0239  -14.3925 C   0  0  0  0  0  0  0  0  0  0  0  0
   19.9255  -18.2755  -12.9223 C   0  0  1  0  0  0  0  0  0  0  0  0
   18.5761  -18.0028  -12.3142 C   0  0  0  0  0  0  0  0  0  0  0  0
   20.3574  -19.6793  -12.5663 C   0  0  2  0  0  0  0  0  0  0  0  0
   21.6727  -19.9853  -13.0990 N   0  0  0  0  0  0  0  0  0  0  0  0
   19.3708  -20.6376  -13.1227 C   0  0  0  0  0  0  0  0  0  0  0  0
   18.1539  -20.8782  -12.5071 O   0  0  0  0  0  0  0  0  0  0  0  0
   19.6199  -21.2642  -14.1833 O   0  0  0  0  0  0  0  0  0  0  0  0
  2  1  1  6
  3  4  1  0
  3  2  1  0
  4  5  2  0
  6  5  1  0
  7  6  1  0
  8  7  2  0
  9  8  1  0
 10  9  2  0
 10 11  1  0
 11 12  2  0
 12  7  1  0
 12  4  1  0
 13  2  1  0
 13 14  2  0
 16 15  1  0
 16 17  2  0
 18 19  1  0
 18 16  1  0
 20 19  1  6
 20 21  1  0
 21 13  1  0
 22 28  1  0
 22 20  1  0
 23 22  2  0
 25 24  1  6
 26 25  1  0
 27 25  1  0
 27 29  1  0
 27 28  1  6
 29 30  1  0
 31 29  2  0
M  END
$$$$
