WQV.pdb
     RDKit          3D

 31 32  0  0  1  0  0  0  0  0999 V2000
   28.0952  -22.0606  -12.0432 N   0  0  0  0  0  0  0  0  0  0  0  0
   26.9177  -21.4919  -11.4289 C   0  0  1  0  0  0  0  0  0  0  0  0
   27.2173  -20.1427  -10.8247 C   0  0  0  0  0  0  0  0  0  0  0  0
   28.1622  -20.3471   -9.6999 C   0  0  0  0  0  0  0  0  0  0  0  0
   29.4703  -20.7643   -9.7545 C   0  0  0  0  0  0  0  0  0  0  0  0
   29.9658  -20.8168   -8.5148 N   0  0  0  0  0  0  0  0  0  0  0  0
   29.0254  -20.4440   -7.6064 C   0  0  0  0  0  0  0  0  0  0  0  0
   29.0231  -20.3275   -6.2224 C   0  0  0  0  0  0  0  0  0  0  0  0
   27.8802  -19.9118   -5.5641 C   0  0  0  0  0  0  0  0  0  0  0  0
   26.7510  -19.6187   -6.3180 C   0  0  0  0  0  0  0  0  0  0  0  0
   26.7693  -19.7396   -7.6941 C   0  0  0  0  0  0  0  0  0  0  0  0
   27.9002  -20.1511   -8.3479 C   0  0  0  0  0  0  0  0  0  0  0  0
   25.9127  -21.2520  -12.5263 C   0  0  0  0  0  0  0  0  0  0  0  0
   26.2638  -20.6726  -13.5723 O   0  0  0  0  0  0  0  0  0  0  0  0
   24.2874  -25.6052  -14.0261 N   0  0  0  0  0  0  0  0  0  0  0  0
   24.6187  -24.7029  -15.0649 C   0  0  0  0  0  0  0  0  0  0  0  0
   25.3666  -25.0204  -16.0212 O   0  0  0  0  0  0  0  0  0  0  0  0
   24.0723  -23.3159  -15.0474 C   0  0  0  0  0  0  0  0  0  0  0  0
   23.2187  -23.0673  -13.8337 C   0  0  0  0  0  0  0  0  0  0  0  0
   23.5855  -21.7194  -13.2544 C   0  0  2  0  0  0  0  0  0  0  0  0
   24.6174  -21.7124  -12.2818 N   0  0  0  0  0  0  0  0  0  0  0  0
   22.4945  -20.8394  -12.9224 C   0  0  0  0  0  0  0  0  0  0  0  0
   22.2375  -20.6332  -11.6862 O   0  0  0  0  0  0  0  0  0  0  0  0
   21.6809  -17.2750  -14.6369 C   0  0  0  0  0  0  0  0  0  0  0  0
   20.4586  -18.0922  -14.3831 C   0  0  1  0  0  0  0  0  0  0  0  0
   19.9548  -18.6842  -15.6719 C   0  0  0  0  0  0  0  0  0  0  0  0
   20.6767  -19.1998  -13.3784 C   0  0  2  0  0  0  0  0  0  0  0  0
   21.6566  -20.1624  -13.8481 N   0  0  0  0  0  0  0  0  0  0  0  0
   19.3859  -19.8926  -13.1442 C   0  0  0  0  0  0  0  0  0  0  0  0
   18.4452  -19.4092  -12.2502 O   0  0  0  0  0  0  0  0  0  0  0  0
   19.1106  -20.9522  -13.7615 O   0  0  0  0  0  0  0  0  0  0  0  0
  2  1  1  6
  3  4  1  0
  3  2  1  0
  4  5  2  0
  6  5  1  0
  7  6  1  0
  8  7  2  0
  9  8  1  0
 10  9  2  0
 10 11  1  0
 11 12  2  0
 12  7  1  0
 12  4  1  0
 13  2  1  0
 13 14  2  0
 16 15  1  0
 16 17  2  0
 18 19  1  0
 18 16  1  0
 20 19  1  1
 20 21  1  0
 21 13  1  0
 22 28  1  0
 22 20  1  0
 23 22  2  0
 25 24  1  6
 26 25  1  0
 27 25  1  0
 27 29  1  0
 27 28  1  6
 29 30  1  0
 31 29  2  0
M  END
$$$$
