WQV.pdb
     RDKit          3D

 31 32  0  0  1  0  0  0  0  0999 V2000
   27.6275  -22.4685  -12.7005 N   0  0  0  0  0  0  0  0  0  0  0  0
   26.5455  -21.8053  -12.0101 C   0  0  1  0  0  0  0  0  0  0  0  0
   26.9359  -20.4060  -11.6044 C   0  0  0  0  0  0  0  0  0  0  0  0
   27.9239  -20.5100  -10.5030 C   0  0  0  0  0  0  0  0  0  0  0  0
   29.2488  -20.8654  -10.5811 C   0  0  0  0  0  0  0  0  0  0  0  0
   29.7841  -20.8341   -9.3574 N   0  0  0  0  0  0  0  0  0  0  0  0
   28.8544  -20.4641   -8.4369 C   0  0  0  0  0  0  0  0  0  0  0  0
   28.8887  -20.2813   -7.0605 C   0  0  0  0  0  0  0  0  0  0  0  0
   27.7471  -19.8904   -6.3850 C   0  0  0  0  0  0  0  0  0  0  0  0
   26.5822  -19.6890   -7.1141 C   0  0  0  0  0  0  0  0  0  0  0  0
   26.5643  -19.8749   -8.4829 C   0  0  0  0  0  0  0  0  0  0  0  0
   27.6939  -20.2621   -9.1537 C   0  0  0  0  0  0  0  0  0  0  0  0
   25.4104  -21.6619  -12.9912 C   0  0  0  0  0  0  0  0  0  0  0  0
   25.4528  -20.7715  -13.8621 O   0  0  0  0  0  0  0  0  0  0  0  0
   22.6791  -26.3661  -15.7454 N   0  0  0  0  0  0  0  0  0  0  0  0
   23.8619  -25.6320  -16.0002 C   0  0  0  0  0  0  0  0  0  0  0  0
   24.7288  -26.0141  -16.8232 O   0  0  0  0  0  0  0  0  0  0  0  0
   24.1132  -24.3527  -15.2773 C   0  0  0  0  0  0  0  0  0  0  0  0
   22.9842  -24.0070  -14.3450 C   0  0  0  0  0  0  0  0  0  0  0  0
   23.2583  -22.6491  -13.7387 C   0  0  2  0  0  0  0  0  0  0  0  0
   24.3583  -22.5686  -12.8474 N   0  0  0  0  0  0  0  0  0  0  0  0
   22.1142  -21.8987  -13.2882 C   0  0  0  0  0  0  0  0  0  0  0  0
   21.7832  -21.9810  -12.0552 O   0  0  0  0  0  0  0  0  0  0  0  0
   21.3464  -18.1453  -13.4090 C   0  0  0  0  0  0  0  0  0  0  0  0
   20.1543  -18.8994  -13.8954 C   0  0  1  0  0  0  0  0  0  0  0  0
   20.0465  -18.7878  -15.3924 C   0  0  0  0  0  0  0  0  0  0  0  0
   20.1690  -20.3593  -13.5050 C   0  0  2  0  0  0  0  0  0  0  0  0
   21.2981  -21.0582  -14.0914 N   0  0  0  0  0  0  0  0  0  0  0  0
   18.9096  -20.9905  -13.9705 C   0  0  0  0  0  0  0  0  0  0  0  0
   17.7189  -20.8510  -13.2772 O   0  0  0  0  0  0  0  0  0  0  0  0
   18.8927  -21.6781  -15.0224 O   0  0  0  0  0  0  0  0  0  0  0  0
  2  1  1  6
  3  4  1  0
  3  2  1  0
  4  5  2  0
  6  5  1  0
  7  6  1  0
  8  7  2  0
  9  8  1  0
 10  9  2  0
 10 11  1  0
 11 12  2  0
 12  7  1  0
 12  4  1  0
 13  2  1  0
 13 14  2  0
 16 15  1  0
 16 17  2  0
 18 19  1  0
 18 16  1  0
 20 19  1  1
 20 21  1  0
 21 13  1  0
 22 28  1  0
 22 20  1  0
 23 22  2  0
 25 24  1  6
 26 25  1  0
 27 25  1  0
 27 29  1  0
 27 28  1  6
 29 30  1  0
 31 29  2  0
M  END
$$$$
