WQV.pdb
     RDKit          3D

 31 32  0  0  1  0  0  0  0  0999 V2000
   28.2566  -21.7770  -10.1205 N   0  0  0  0  0  0  0  0  0  0  0  0
   27.0223  -21.0676   -9.8745 C   0  0  1  0  0  0  0  0  0  0  0  0
   27.2746  -19.7779   -9.1340 C   0  0  0  0  0  0  0  0  0  0  0  0
   28.2393  -20.0602   -8.0432 C   0  0  0  0  0  0  0  0  0  0  0  0
   29.4381  -20.7270   -8.1210 C   0  0  0  0  0  0  0  0  0  0  0  0
   29.9991  -20.7631   -6.9090 N   0  0  0  0  0  0  0  0  0  0  0  0
   29.2108  -20.1345   -5.9969 C   0  0  0  0  0  0  0  0  0  0  0  0
   29.3260  -19.8958   -4.6335 C   0  0  0  0  0  0  0  0  0  0  0  0
   28.3302  -19.2083   -3.9641 C   0  0  0  0  0  0  0  0  0  0  0  0
   27.2274  -18.7703   -4.6860 C   0  0  0  0  0  0  0  0  0  0  0  0
   27.1276  -19.0156   -6.0418 C   0  0  0  0  0  0  0  0  0  0  0  0
   28.1127  -19.6963   -6.7066 C   0  0  0  0  0  0  0  0  0  0  0  0
   26.4530  -20.6826  -11.2159 C   0  0  0  0  0  0  0  0  0  0  0  0
   27.2142  -20.3006  -12.1257 O   0  0  0  0  0  0  0  0  0  0  0  0
   25.7644  -23.6729  -15.4456 N   0  0  0  0  0  0  0  0  0  0  0  0
   24.9397  -24.1133  -14.3832 C   0  0  0  0  0  0  0  0  0  0  0  0
   24.6156  -25.3166  -14.2349 O   0  0  0  0  0  0  0  0  0  0  0  0
   24.4221  -23.1317  -13.3877 C   0  0  0  0  0  0  0  0  0  0  0  0
   24.9551  -21.7475  -13.6393 C   0  0  0  0  0  0  0  0  0  0  0  0
   24.3900  -20.8155  -12.5910 C   0  0  2  0  0  0  0  0  0  0  0  0
   25.0665  -20.7858  -11.3451 N   0  0  0  0  0  0  0  0  0  0  0  0
   22.9564  -20.7907  -12.4526 C   0  0  0  0  0  0  0  0  0  0  0  0
   22.4431  -21.2655  -11.3812 O   0  0  0  0  0  0  0  0  0  0  0  0
   19.0007  -18.0157  -13.5156 C   0  0  0  0  0  0  0  0  0  0  0  0
   20.2727  -18.6656  -13.9467 C   0  0  1  0  0  0  0  0  0  0  0  0
   21.3389  -17.6252  -14.1613 C   0  0  0  0  0  0  0  0  0  0  0  0
   20.7776  -19.7011  -12.9685 C   0  0  2  0  0  0  0  0  0  0  0  0
   22.0343  -20.2815  -13.4055 N   0  0  0  0  0  0  0  0  0  0  0  0
   19.7616  -20.7751  -12.8438 C   0  0  0  0  0  0  0  0  0  0  0  0
   18.7699  -20.7385  -11.8778 O   0  0  0  0  0  0  0  0  0  0  0  0
   19.7768  -21.7599  -13.6245 O   0  0  0  0  0  0  0  0  0  0  0  0
  2  1  1  6
  3  4  1  0
  3  2  1  0
  4  5  2  0
  6  5  1  0
  7  6  1  0
  8  7  2  0
  9  8  1  0
 10  9  2  0
 10 11  1  0
 11 12  2  0
 12  7  1  0
 12  4  1  0
 13  2  1  0
 13 14  2  0
 16 15  1  0
 16 17  2  0
 18 19  1  0
 18 16  1  0
 20 19  1  1
 20 21  1  0
 21 13  1  0
 22 28  1  0
 22 20  1  0
 23 22  2  0
 25 24  1  1
 26 25  1  0
 27 25  1  0
 27 29  1  0
 27 28  1  6
 29 30  1  0
 31 29  2  0
M  END
$$$$
