WQV.pdb
     RDKit          3D

 31 32  0  0  1  0  0  0  0  0999 V2000
   27.1364  -20.9793  -17.0005 N   0  0  0  0  0  0  0  0  0  0  0  0
   26.4960  -20.1763  -15.9844 C   0  0  1  0  0  0  0  0  0  0  0  0
   25.6523  -19.0893  -16.6021 C   0  0  0  0  0  0  0  0  0  0  0  0
   26.5627  -18.0138  -17.0654 C   0  0  0  0  0  0  0  0  0  0  0  0
   27.2642  -17.9442  -18.2447 C   0  0  0  0  0  0  0  0  0  0  0  0
   27.9664  -16.8079  -18.2708 N   0  0  0  0  0  0  0  0  0  0  0  0
   27.7630  -16.0925  -17.1326 C   0  0  0  0  0  0  0  0  0  0  0  0
   28.2411  -14.8738  -16.6685 C   0  0  0  0  0  0  0  0  0  0  0  0
   27.8395  -14.3969  -15.4341 C   0  0  0  0  0  0  0  0  0  0  0  0
   26.9565  -15.1624  -14.6835 C   0  0  0  0  0  0  0  0  0  0  0  0
   26.4899  -16.3726  -15.1591 C   0  0  0  0  0  0  0  0  0  0  0  0
   26.8864  -16.8467  -16.3813 C   0  0  0  0  0  0  0  0  0  0  0  0
   25.5471  -21.0765  -15.2355 C   0  0  0  0  0  0  0  0  0  0  0  0
   25.0005  -22.0287  -15.8252 O   0  0  0  0  0  0  0  0  0  0  0  0
   25.1212  -21.0441   -8.9354 N   0  0  0  0  0  0  0  0  0  0  0  0
   25.8832  -20.2570   -9.8314 C   0  0  0  0  0  0  0  0  0  0  0  0
   26.7928  -19.4839   -9.4441 O   0  0  0  0  0  0  0  0  0  0  0  0
   25.6165  -20.3294  -11.2963 C   0  0  0  0  0  0  0  0  0  0  0  0
   24.4626  -21.2426  -11.6093 C   0  0  0  0  0  0  0  0  0  0  0  0
   24.2828  -21.2951  -13.1099 C   0  0  2  0  0  0  0  0  0  0  0  0
   25.3429  -20.7667  -13.8894 N   0  0  0  0  0  0  0  0  0  0  0  0
   22.9819  -20.9427  -13.6183 C   0  0  0  0  0  0  0  0  0  0  0  0
   22.7687  -19.7239  -13.9438 O   0  0  0  0  0  0  0  0  0  0  0  0
   20.2206  -23.5092  -15.5182 C   0  0  0  0  0  0  0  0  0  0  0  0
   20.2634  -22.0216  -15.6246 C   0  0  1  0  0  0  0  0  0  0  0  0
   18.9363  -21.4984  -16.1044 C   0  0  0  0  0  0  0  0  0  0  0  0
   20.6277  -21.3386  -14.3266 C   0  0  2  0  0  0  0  0  0  0  0  0
   21.8877  -21.8301  -13.7991 N   0  0  0  0  0  0  0  0  0  0  0  0
   19.5525  -21.5917  -13.3361 C   0  0  0  0  0  0  0  0  0  0  0  0
   18.3441  -20.9165  -13.3760 O   0  0  0  0  0  0  0  0  0  0  0  0
   19.7152  -22.4388  -12.4220 O   0  0  0  0  0  0  0  0  0  0  0  0
  2  1  1  6
  3  4  1  0
  3  2  1  0
  4  5  2  0
  6  5  1  0
  7  6  1  0
  8  7  2  0
  9  8  1  0
 10  9  2  0
 10 11  1  0
 11 12  2  0
 12  7  1  0
 12  4  1  0
 13  2  1  0
 13 14  2  0
 16 15  1  0
 16 17  2  0
 18 19  1  0
 18 16  1  0
 20 19  1  1
 20 21  1  0
 21 13  1  0
 22 28  1  0
 22 20  1  0
 23 22  2  0
 25 24  1  1
 26 25  1  0
 27 25  1  0
 27 29  1  0
 27 28  1  1
 29 30  1  0
 31 29  2  0
M  END
$$$$
