QDL.pdb
     RDKit          3D

 26 25  0  0  1  0  0  0  0  0999 V2000
    8.9008  -12.4649   17.9607 N   0  0  0  0  0  0  0  0  0  0  0  0
    7.8678  -13.4195   17.7975 C   0  0  0  0  0  0  0  0  0  0  0  0
    6.7339  -12.9715   17.4404 O   0  0  0  0  0  0  0  0  0  0  0  0
    8.0796  -14.8735   18.0271 C   0  0  0  0  0  0  0  0  0  0  0  0
    7.8052  -15.1629   19.4785 C   0  0  0  0  0  0  0  0  0  0  0  0
    8.9520  -14.8102   20.3713 C   0  0  2  0  0  0  0  0  0  0  0  0
   10.2196  -15.0954   19.7745 N   0  0  0  0  0  0  0  0  0  0  0  0
    8.8293  -15.5317   21.6666 C   0  0  0  0  0  0  0  0  0  0  0  0
    7.7097  -15.5064   22.2681 O   0  0  0  0  0  0  0  0  0  0  0  0
    9.9149  -16.2393   22.2434 N   0  0  0  0  0  0  0  0  0  0  0  0
    9.7487  -16.8638   23.5419 C   0  0  1  0  0  0  0  0  0  0  0  0
   10.7724  -17.9621   23.6717 C   0  0  0  0  0  0  0  0  0  0  0  0
   10.6303  -18.9955   22.6331 C   0  0  0  0  0  0  0  0  0  0  0  0
    9.6969  -19.8433   22.5845 O   0  0  0  0  0  0  0  0  0  0  0  0
    9.7952  -15.8682   24.6342 C   0  0  0  0  0  0  0  0  0  0  0  0
   10.7178  -15.0231   24.6715 O   0  0  0  0  0  0  0  0  0  0  0  0
   11.6199  -19.0200   21.6325 O   0  0  0  0  0  0  0  0  0  0  0  0
    8.0495  -11.9901   26.1931 C   0  0  0  0  0  0  0  0  0  0  0  0
    7.1533  -13.2264   26.0074 C   0  0  2  0  0  0  0  0  0  0  0  0
    5.7373  -12.7636   26.1466 C   0  0  0  0  0  0  0  0  0  0  0  0
    7.5855  -14.2055   27.0352 C   0  0  0  0  0  0  0  0  0  0  0  0
    8.8982  -14.8798   26.7888 C   0  0  2  0  0  0  0  0  0  0  0  0
    8.8064  -15.8293   25.6759 N   0  0  0  0  0  0  0  0  0  0  0  0
    9.4852  -15.5454   27.9707 C   0  0  0  0  0  0  0  0  0  0  0  0
    9.8226  -16.9008   27.9699 O   0  0  0  0  0  0  0  0  0  0  0  0
    9.6930  -14.8940   29.0097 O   0  0  0  0  0  0  0  0  0  0  0  0
  1  2  1  0
  2  3  2  0
  4  5  1  0
  4  2  1  0
  6  7  1  6
  6  5  1  0
  8  6  1  0
  8 10  1  0
  9  8  2  0
 11 10  1  0
 11 12  1  1
 13 12  1  0
 13 17  1  0
 14 13  2  0
 15 11  1  0
 16 15  2  0
 19 18  1  1
 20 19  1  0
 21 19  1  0
 22 21  1  1
 22 23  1  0
 23 15  1  0
 24 25  1  0
 24 22  1  0
 26 24  2  0
M  END
$$$$
