QDL.pdb
     RDKit          3D

 26 25  0  0  1  0  0  0  0  0999 V2000
    8.5944  -12.6175   18.4314 N   0  0  0  0  0  0  0  0  0  0  0  0
    8.2546  -12.3441   19.7786 C   0  0  0  0  0  0  0  0  0  0  0  0
    8.4916  -11.1674   20.1949 O   0  0  0  0  0  0  0  0  0  0  0  0
    7.6514  -13.3668   20.6741 C   0  0  0  0  0  0  0  0  0  0  0  0
    7.6688  -14.6883   19.9539 C   0  0  0  0  0  0  0  0  0  0  0  0
    6.9604  -15.7713   20.7034 C   0  0  2  0  0  0  0  0  0  0  0  0
    5.6096  -15.4261   21.0199 N   0  0  0  0  0  0  0  0  0  0  0  0
    7.7040  -16.0978   21.9500 C   0  0  0  0  0  0  0  0  0  0  0  0
    7.0795  -16.0488   23.0561 O   0  0  0  0  0  0  0  0  0  0  0  0
    9.0760  -16.4582   21.9392 N   0  0  0  0  0  0  0  0  0  0  0  0
    9.6997  -16.9244   23.1629 C   0  0  1  0  0  0  0  0  0  0  0  0
   11.0728  -17.4448   22.8239 C   0  0  0  0  0  0  0  0  0  0  0  0
   11.0300  -18.6532   21.9846 C   0  0  0  0  0  0  0  0  0  0  0  0
   11.6267  -18.7838   20.8803 O   0  0  0  0  0  0  0  0  0  0  0  0
    9.6956  -15.8784   24.2081 C   0  0  0  0  0  0  0  0  0  0  0  0
    9.5504  -14.6766   23.8900 O   0  0  0  0  0  0  0  0  0  0  0  0
   10.2609  -19.7276   22.4697 O   0  0  0  0  0  0  0  0  0  0  0  0
    8.3345  -12.6554   26.8602 C   0  0  0  0  0  0  0  0  0  0  0  0
    7.5533  -13.6634   26.0001 C   0  0  2  0  0  0  0  0  0  0  0  0
    6.1032  -13.3196   26.1340 C   0  0  0  0  0  0  0  0  0  0  0  0
    7.9174  -15.0083   26.5104 C   0  0  0  0  0  0  0  0  0  0  0  0
    9.3815  -15.2828   26.6515 C   0  0  2  0  0  0  0  0  0  0  0  0
    9.8548  -16.1897   25.6018 N   0  0  0  0  0  0  0  0  0  0  0  0
    9.7925  -15.7900   27.9775 C   0  0  0  0  0  0  0  0  0  0  0  0
   10.3036  -17.0777   28.1555 O   0  0  0  0  0  0  0  0  0  0  0  0
    9.6874  -15.0613   28.9799 O   0  0  0  0  0  0  0  0  0  0  0  0
  1  2  1  0
  2  3  2  0
  4  5  1  0
  4  2  1  0
  6  7  1  1
  6  5  1  0
  8  6  1  0
  8 10  1  0
  9  8  2  0
 11 10  1  0
 11 12  1  6
 13 12  1  0
 13 17  1  0
 14 13  2  0
 15 11  1  0
 16 15  2  0
 19 18  1  1
 20 19  1  0
 21 19  1  0
 22 21  1  1
 22 23  1  0
 23 15  1  0
 24 25  1  0
 24 22  1  0
 26 24  2  0
M  END
$$$$
