QDL.pdb
     RDKit          3D

 26 25  0  0  1  0  0  0  0  0999 V2000
    8.1376  -12.3555   17.1068 N   0  0  0  0  0  0  0  0  0  0  0  0
    7.5906  -13.5614   17.6084 C   0  0  0  0  0  0  0  0  0  0  0  0
    7.1194  -14.3702   16.7493 O   0  0  0  0  0  0  0  0  0  0  0  0
    7.5601  -13.8822   19.0602 C   0  0  0  0  0  0  0  0  0  0  0  0
    8.9632  -13.7719   19.5935 C   0  0  0  0  0  0  0  0  0  0  0  0
    9.6083  -15.1020   19.8196 C   0  0  2  0  0  0  0  0  0  0  0  0
    9.2801  -16.0509   18.8019 N   0  0  0  0  0  0  0  0  0  0  0  0
    9.2198  -15.6360   21.1529 C   0  0  0  0  0  0  0  0  0  0  0  0
    7.9843  -15.8067   21.3984 O   0  0  0  0  0  0  0  0  0  0  0  0
   10.1791  -15.9563   22.1476 N   0  0  0  0  0  0  0  0  0  0  0  0
    9.7480  -16.6082   23.3694 C   0  0  1  0  0  0  0  0  0  0  0  0
   10.5687  -17.8590   23.5516 C   0  0  0  0  0  0  0  0  0  0  0  0
   10.1555  -18.9451   22.6482 C   0  0  0  0  0  0  0  0  0  0  0  0
    8.9614  -19.3034   22.4527 O   0  0  0  0  0  0  0  0  0  0  0  0
    9.7956  -15.6858   24.5241 C   0  0  0  0  0  0  0  0  0  0  0  0
   10.8392  -15.0377   24.7644 O   0  0  0  0  0  0  0  0  0  0  0  0
   11.1849  -19.6186   21.9642 O   0  0  0  0  0  0  0  0  0  0  0  0
    8.0122  -11.9359   25.9837 C   0  0  0  0  0  0  0  0  0  0  0  0
    7.0031  -13.0968   26.0039 C   0  0  2  0  0  0  0  0  0  0  0  0
    5.6673  -12.5079   26.3319 C   0  0  0  0  0  0  0  0  0  0  0  0
    7.5119  -14.0662   27.0053 C   0  0  0  0  0  0  0  0  0  0  0  0
    8.7930  -14.7571   26.6585 C   0  0  2  0  0  0  0  0  0  0  0  0
    8.6721  -15.4984   25.3998 N   0  0  0  0  0  0  0  0  0  0  0  0
    9.3258  -15.6429   27.7149 C   0  0  0  0  0  0  0  0  0  0  0  0
    9.8768  -15.1426   28.8970 O   0  0  0  0  0  0  0  0  0  0  0  0
    9.2913  -16.8770   27.5650 O   0  0  0  0  0  0  0  0  0  0  0  0
  1  2  1  0
  2  3  2  0
  4  5  1  0
  4  2  1  0
  6  7  1  6
  6  5  1  0
  8  6  1  0
  8 10  1  0
  9  8  2  0
 11 10  1  0
 11 12  1  1
 13 12  1  0
 13 17  1  0
 14 13  2  0
 15 11  1  0
 16 15  2  0
 19 18  1  1
 20 19  1  0
 21 19  1  0
 22 21  1  1
 22 23  1  0
 23 15  1  0
 24 25  1  0
 24 22  1  0
 26 24  2  0
M  END
$$$$
