QDL.pdb
     RDKit          3D

 26 25  0  0  1  0  0  0  0  0999 V2000
   10.0291  -23.7361   24.5659 N   0  0  0  0  0  0  0  0  0  0  0  0
    9.6048  -23.2434   23.3081 C   0  0  0  0  0  0  0  0  0  0  0  0
    9.1665  -24.1030   22.4815 O   0  0  0  0  0  0  0  0  0  0  0  0
    9.6613  -21.7999   22.9547 C   0  0  0  0  0  0  0  0  0  0  0  0
   10.2041  -21.0486   24.1406 C   0  0  0  0  0  0  0  0  0  0  0  0
    9.3885  -19.8456   24.4929 C   0  0  2  0  0  0  0  0  0  0  0  0
    8.0543  -19.9193   23.9845 N   0  0  0  0  0  0  0  0  0  0  0  0
   10.0542  -18.6141   23.9891 C   0  0  0  0  0  0  0  0  0  0  0  0
   11.1596  -18.2678   24.5128 O   0  0  0  0  0  0  0  0  0  0  0  0
    9.4961  -17.8236   22.9519 N   0  0  0  0  0  0  0  0  0  0  0  0
   10.1824  -16.6187   22.5266 C   0  0  1  0  0  0  0  0  0  0  0  0
    9.7145  -16.2752   21.1358 C   0  0  0  0  0  0  0  0  0  0  0  0
    9.7175  -17.4379   20.2332 C   0  0  0  0  0  0  0  0  0  0  0  0
    8.7368  -17.8045   19.5287 O   0  0  0  0  0  0  0  0  0  0  0  0
   10.0133  -15.5224   23.5044 C   0  0  0  0  0  0  0  0  0  0  0  0
   10.5692  -14.4182   23.3086 O   0  0  0  0  0  0  0  0  0  0  0  0
   10.9123  -18.1792   20.1683 O   0  0  0  0  0  0  0  0  0  0  0  0
    5.8422  -12.6912   26.4573 C   0  0  0  0  0  0  0  0  0  0  0  0
    7.3627  -12.9124   26.5308 C   0  0  2  0  0  0  0  0  0  0  0  0
    8.0103  -11.6069   26.1920 C   0  0  0  0  0  0  0  0  0  0  0  0
    7.6640  -14.0140   25.5835 C   0  0  0  0  0  0  0  0  0  0  0  0
    9.0493  -14.5755   25.6486 C   0  0  2  0  0  0  0  0  0  0  0  0
    9.2219  -15.6743   24.6939 N   0  0  0  0  0  0  0  0  0  0  0  0
    9.4814  -15.0062   26.9948 C   0  0  0  0  0  0  0  0  0  0  0  0
    9.8655  -16.3213   27.2673 O   0  0  0  0  0  0  0  0  0  0  0  0
    9.5105  -14.1855   27.9288 O   0  0  0  0  0  0  0  0  0  0  0  0
  1  2  1  0
  2  3  2  0
  4  5  1  0
  4  2  1  0
  6  7  1  6
  6  5  1  0
  8  6  1  0
  8 10  1  0
  9  8  2  0
 11 10  1  0
 11 12  1  6
 13 12  1  0
 13 17  1  0
 14 13  2  0
 15 11  1  0
 16 15  2  0
 19 18  1  6
 20 19  1  0
 21 19  1  0
 22 21  1  1
 22 23  1  0
 23 15  1  0
 24 25  1  0
 24 22  1  0
 26 24  2  0
M  END
$$$$
