QDL.pdb
     RDKit          3D

 26 25  0  0  1  0  0  0  0  0999 V2000
    9.8115  -12.9152   19.0240 N   0  0  0  0  0  0  0  0  0  0  0  0
    8.5061  -13.0043   18.4826 C   0  0  0  0  0  0  0  0  0  0  0  0
    8.4198  -13.0438   17.2157 O   0  0  0  0  0  0  0  0  0  0  0  0
    7.2886  -13.0504   19.3354 C   0  0  0  0  0  0  0  0  0  0  0  0
    7.6363  -13.7734   20.6089 C   0  0  0  0  0  0  0  0  0  0  0  0
    7.9222  -15.2259   20.3965 C   0  0  2  0  0  0  0  0  0  0  0  0
    6.8127  -15.9258   19.8279 N   0  0  0  0  0  0  0  0  0  0  0  0
    8.3146  -15.8608   21.6835 C   0  0  0  0  0  0  0  0  0  0  0  0
    7.3959  -16.2918   22.4491 O   0  0  0  0  0  0  0  0  0  0  0  0
    9.6708  -15.9972   22.0764 N   0  0  0  0  0  0  0  0  0  0  0  0
    9.9937  -16.7533   23.2713 C   0  0  1  0  0  0  0  0  0  0  0  0
   11.3023  -17.4642   23.0404 C   0  0  0  0  0  0  0  0  0  0  0  0
   11.7207  -18.2720   24.1976 C   0  0  0  0  0  0  0  0  0  0  0  0
   10.9553  -19.0165   24.8701 O   0  0  0  0  0  0  0  0  0  0  0  0
    9.9806  -15.8972   24.4769 C   0  0  0  0  0  0  0  0  0  0  0  0
   10.8980  -15.0665   24.6643 O   0  0  0  0  0  0  0  0  0  0  0  0
   13.0780  -18.1914   24.5616 O   0  0  0  0  0  0  0  0  0  0  0  0
    8.4160  -12.2642   26.2351 C   0  0  0  0  0  0  0  0  0  0  0  0
    7.3762  -13.3637   25.9591 C   0  0  2  0  0  0  0  0  0  0  0  0
    6.0267  -12.7428   26.1383 C   0  0  0  0  0  0  0  0  0  0  0  0
    7.6794  -14.4635   26.9078 C   0  0  0  0  0  0  0  0  0  0  0  0
    8.9746  -15.1802   26.6899 C   0  0  2  0  0  0  0  0  0  0  0  0
    8.9383  -15.9803   25.4624 N   0  0  0  0  0  0  0  0  0  0  0  0
    9.4182  -16.0182   27.8237 C   0  0  0  0  0  0  0  0  0  0  0  0
    9.9259  -15.4666   29.0023 O   0  0  0  0  0  0  0  0  0  0  0  0
    9.3449  -17.2573   27.7449 O   0  0  0  0  0  0  0  0  0  0  0  0
  1  2  1  0
  2  3  2  0
  4  5  1  0
  4  2  1  0
  6  7  1  1
  6  5  1  0
  8  6  1  0
  8 10  1  0
  9  8  2  0
 11 10  1  0
 11 12  1  6
 13 12  1  0
 13 17  1  0
 14 13  2  0
 15 11  1  0
 16 15  2  0
 19 18  1  1
 20 19  1  0
 21 19  1  0
 22 21  1  1
 22 23  1  0
 23 15  1  0
 24 25  1  0
 24 22  1  0
 26 24  2  0
M  END
$$$$
