QDL.pdb
     RDKit          3D

 26 25  0  0  1  0  0  0  0  0999 V2000
    7.5211  -15.3191   16.1518 N   0  0  0  0  0  0  0  0  0  0  0  0
    8.1959  -14.1943   16.6854 C   0  0  0  0  0  0  0  0  0  0  0  0
    9.4110  -14.0485   16.3444 O   0  0  0  0  0  0  0  0  0  0  0  0
    7.5343  -13.2241   17.5979 C   0  0  0  0  0  0  0  0  0  0  0  0
    7.2665  -13.9193   18.9057 C   0  0  0  0  0  0  0  0  0  0  0  0
    8.2785  -13.5944   19.9578 C   0  0  2  0  0  0  0  0  0  0  0  0
    9.5958  -13.4426   19.4234 N   0  0  0  0  0  0  0  0  0  0  0  0
    8.2772  -14.6483   21.0079 C   0  0  0  0  0  0  0  0  0  0  0  0
    7.1670  -14.9757   21.5334 O   0  0  0  0  0  0  0  0  0  0  0  0
    9.4673  -15.2913   21.4349 N   0  0  0  0  0  0  0  0  0  0  0  0
    9.4000  -16.2915   22.4831 C   0  0  1  0  0  0  0  0  0  0  0  0
   10.4614  -17.3274   22.2155 C   0  0  0  0  0  0  0  0  0  0  0  0
   10.4052  -18.4541   23.1610 C   0  0  0  0  0  0  0  0  0  0  0  0
    9.5624  -18.5702   24.0929 O   0  0  0  0  0  0  0  0  0  0  0  0
    9.4848  -15.6786   23.8261 C   0  0  0  0  0  0  0  0  0  0  0  0
   10.5723  -15.2109   24.2327 O   0  0  0  0  0  0  0  0  0  0  0  0
   11.3726  -19.4629   22.9935 O   0  0  0  0  0  0  0  0  0  0  0  0
    8.1236  -12.0028   26.1989 C   0  0  0  0  0  0  0  0  0  0  0  0
    7.0277  -12.9438   25.6699 C   0  0  2  0  0  0  0  0  0  0  0  0
    5.7151  -12.2736   25.9286 C   0  0  0  0  0  0  0  0  0  0  0  0
    7.2129  -14.2320   26.3826 C   0  0  0  0  0  0  0  0  0  0  0  0
    8.4491  -15.0012   26.0379 C   0  0  2  0  0  0  0  0  0  0  0  0
    8.3488  -15.5957   24.7018 N   0  0  0  0  0  0  0  0  0  0  0  0
    8.8302  -16.0363   27.0217 C   0  0  0  0  0  0  0  0  0  0  0  0
    9.4739  -15.7215   28.2208 O   0  0  0  0  0  0  0  0  0  0  0  0
    8.5780  -17.2324   26.7926 O   0  0  0  0  0  0  0  0  0  0  0  0
  1  2  1  0
  2  3  2  0
  4  5  1  0
  4  2  1  0
  6  7  1  6
  6  5  1  0
  8  6  1  0
  8 10  1  0
  9  8  2  0
 11 10  1  0
 11 12  1  6
 13 12  1  0
 13 17  1  0
 14 13  2  0
 15 11  1  0
 16 15  2  0
 19 18  1  1
 20 19  1  0
 21 19  1  0
 22 21  1  1
 22 23  1  0
 23 15  1  0
 24 25  1  0
 24 22  1  0
 26 24  2  0
M  END
$$$$
