QDL.pdb
     RDKit          3D

 26 25  0  0  1  0  0  0  0  0999 V2000
    9.6219  -15.5065   15.9183 N   0  0  0  0  0  0  0  0  0  0  0  0
    8.3824  -14.8470   16.1021 C   0  0  0  0  0  0  0  0  0  0  0  0
    7.4056  -15.2741   15.4109 O   0  0  0  0  0  0  0  0  0  0  0  0
    8.2131  -13.7129   17.0490 C   0  0  0  0  0  0  0  0  0  0  0  0
    7.2647  -14.1468   18.1342 C   0  0  0  0  0  0  0  0  0  0  0  0
    7.5961  -13.5591   19.4689 C   0  0  2  0  0  0  0  0  0  0  0  0
    8.6433  -12.5885   19.3961 N   0  0  0  0  0  0  0  0  0  0  0  0
    7.9726  -14.6387   20.4210 C   0  0  0  0  0  0  0  0  0  0  0  0
    7.1502  -15.5889   20.6124 O   0  0  0  0  0  0  0  0  0  0  0  0
    9.2102  -14.6374   21.1140 N   0  0  0  0  0  0  0  0  0  0  0  0
    9.5251  -15.7322   22.0118 C   0  0  1  0  0  0  0  0  0  0  0  0
   10.6724  -16.5111   21.4216 C   0  0  0  0  0  0  0  0  0  0  0  0
   11.1620  -17.5686   22.3208 C   0  0  0  0  0  0  0  0  0  0  0  0
   10.4278  -18.4078   22.9116 O   0  0  0  0  0  0  0  0  0  0  0  0
    9.7708  -15.2529   23.3889 C   0  0  0  0  0  0  0  0  0  0  0  0
   10.4251  -14.2028   23.5784 O   0  0  0  0  0  0  0  0  0  0  0  0
   12.5540  -17.6277   22.5209 O   0  0  0  0  0  0  0  0  0  0  0  0
    6.0509  -12.6646   26.0158 C   0  0  0  0  0  0  0  0  0  0  0  0
    7.2521  -13.4544   26.5633 C   0  0  2  0  0  0  0  0  0  0  0  0
    8.1986  -12.4562   27.1522 C   0  0  0  0  0  0  0  0  0  0  0  0
    7.7987  -14.2193   25.4154 C   0  0  0  0  0  0  0  0  0  0  0  0
    8.8363  -15.2458   25.7448 C   0  0  2  0  0  0  0  0  0  0  0  0
    9.2805  -15.9560   24.5420 N   0  0  0  0  0  0  0  0  0  0  0  0
    8.4390  -16.2176   26.7850 C   0  0  0  0  0  0  0  0  0  0  0  0
    9.0047  -16.2128   28.0622 O   0  0  0  0  0  0  0  0  0  0  0  0
    7.5744  -17.0758   26.5341 O   0  0  0  0  0  0  0  0  0  0  0  0
  1  2  1  0
  2  3  2  0
  4  5  1  0
  4  2  1  0
  6  7  1  6
  6  5  1  0
  8  6  1  0
  8 10  1  0
  9  8  2  0
 11 10  1  0
 11 12  1  6
 13 12  1  0
 13 17  1  0
 14 13  2  0
 15 11  1  0
 16 15  2  0
 19 18  1  6
 20 19  1  0
 21 19  1  0
 22 21  1  6
 22 23  1  0
 23 15  1  0
 24 25  1  0
 24 22  1  0
 26 24  2  0
M  END
$$$$
