EVF.pdb
     RDKit          3D

 28 28  0  0  1  0  0  0  0  0999 V2000
   14.4719  -12.1732  -15.7241 N   0  0  0  0  0  0  0  0  0  0  0  0
   15.2243  -12.2099  -14.5053 C   0  0  1  0  0  0  0  0  0  0  0  0
   16.5048  -12.9680  -14.6105 C   0  0  0  0  0  0  0  0  0  0  0  0
   16.3720  -14.4488  -14.6873 C   0  0  0  0  0  0  0  0  0  0  0  0
   16.2945  -15.1404  -13.3998 C   0  0  0  0  0  0  0  0  0  0  0  0
   15.2435  -15.4784  -12.8122 O   0  0  0  0  0  0  0  0  0  0  0  0
   15.5299  -10.8231  -14.0073 C   0  0  0  0  0  0  0  0  0  0  0  0
   16.0239   -9.9527  -14.7680 O   0  0  0  0  0  0  0  0  0  0  0  0
   17.4896  -15.4586  -12.7571 O   0  0  0  0  0  0  0  0  0  0  0  0
   13.1116   -8.5714  -12.8085 C   0  0  0  0  0  0  0  0  0  0  0  0
   14.1346   -8.5382  -11.6923 C   0  0  1  0  0  0  0  0  0  0  0  0
   13.5886   -9.3604  -10.5558 C   0  0  0  0  0  0  0  0  0  0  0  0
   15.4572   -9.0717  -12.2083 C   0  0  2  0  0  0  0  0  0  0  0  0
   15.2738  -10.4378  -12.6579 N   0  0  0  0  0  0  0  0  0  0  0  0
   16.5223   -8.9677  -11.1803 C   0  0  0  0  0  0  0  0  0  0  0  0
   16.5893   -9.8540  -10.2925 O   0  0  0  0  0  0  0  0  0  0  0  0
   17.4474   -7.8914  -11.1964 N   0  0  0  0  0  0  0  0  0  0  0  0
   18.3941   -7.6036  -10.1420 C   0  0  1  0  0  0  0  0  0  0  0  0
   19.7821   -8.0046  -10.4727 C   0  0  0  0  0  0  0  0  0  0  0  0
   20.3194   -7.1876  -11.5777 C   0  0  0  0  0  0  0  0  0  0  0  0
   20.1998   -7.5885  -12.9126 C   0  0  0  0  0  0  0  0  0  0  0  0
   20.6754   -6.8301  -13.9473 C   0  0  0  0  0  0  0  0  0  0  0  0
   21.2988   -5.6218  -13.6806 C   0  0  0  0  0  0  0  0  0  0  0  0
   21.4198   -5.2187  -12.3493 C   0  0  0  0  0  0  0  0  0  0  0  0
   20.9421   -5.9804  -11.3097 C   0  0  0  0  0  0  0  0  0  0  0  0
   18.2152   -6.2144   -9.6699 C   0  0  0  0  0  0  0  0  0  0  0  0
   18.7364   -5.8344   -8.4422 O   0  0  0  0  0  0  0  0  0  0  0  0
   17.6134   -5.3138  -10.3044 O   0  0  0  0  0  0  0  0  0  0  0  0
  2  1  1  6
  2  3  1  0
  3  4  1  0
  4  5  1  0
  5  9  1  0
  6  5  2  0
  7  8  2  0
  7  2  1  0
 11 10  1  6
 11 13  1  0
 11 12  1  0
 13 14  1  1
 14  7  1  0
 15 13  1  0
 16 15  2  0
 17 15  1  0
 18 17  1  0
 18 19  1  6
 19 20  1  0
 20 25  2  0
 20 21  1  0
 21 22  2  0
 22 23  1  0
 24 23  2  0
 25 24  1  0
 26 18  1  0
 27 26  1  0
 28 26  2  0
M  END
$$$$
