EVF.pdb
     RDKit          3D

 28 28  0  0  1  0  0  0  0  0999 V2000
   20.5814  -20.3015  -11.0587 N   0  0  0  0  0  0  0  0  0  0  0  0
   21.3702  -21.0550  -11.9876 C   0  0  1  0  0  0  0  0  0  0  0  0
   20.7187  -21.2447  -13.3162 C   0  0  0  0  0  0  0  0  0  0  0  0
   19.9438  -22.5053  -13.4793 C   0  0  0  0  0  0  0  0  0  0  0  0
   18.6630  -22.5515  -12.7725 C   0  0  0  0  0  0  0  0  0  0  0  0
   17.7562  -21.6931  -12.8431 O   0  0  0  0  0  0  0  0  0  0  0  0
   22.7182  -20.4217  -12.2028 C   0  0  0  0  0  0  0  0  0  0  0  0
   22.8281  -19.1949  -12.4545 O   0  0  0  0  0  0  0  0  0  0  0  0
   18.4152  -23.6430  -11.9419 O   0  0  0  0  0  0  0  0  0  0  0  0
   25.1549  -20.0899   -9.8308 C   0  0  0  0  0  0  0  0  0  0  0  0
   25.9747  -20.7028  -10.9469 C   0  0  1  0  0  0  0  0  0  0  0  0
   26.2231  -22.1427  -10.5854 C   0  0  0  0  0  0  0  0  0  0  0  0
   25.2258  -20.5569  -12.2576 C   0  0  2  0  0  0  0  0  0  0  0  0
   23.9235  -21.1813  -12.1309 N   0  0  0  0  0  0  0  0  0  0  0  0
   26.0001  -21.1213  -13.3907 C   0  0  0  0  0  0  0  0  0  0  0  0
   26.0171  -22.3679  -13.5453 O   0  0  0  0  0  0  0  0  0  0  0  0
   26.7078  -20.2740  -14.2829 N   0  0  0  0  0  0  0  0  0  0  0  0
   27.1614  -20.6608  -15.6002 C   0  0  1  0  0  0  0  0  0  0  0  0
   26.1111  -21.3169  -16.4144 C   0  0  0  0  0  0  0  0  0  0  0  0
   25.0416  -20.3630  -16.7658 C   0  0  0  0  0  0  0  0  0  0  0  0
   25.1877  -19.4505  -17.8160 C   0  0  0  0  0  0  0  0  0  0  0  0
   24.1958  -18.5751  -18.1649 C   0  0  0  0  0  0  0  0  0  0  0  0
   23.0004  -18.5802  -17.4644 C   0  0  0  0  0  0  0  0  0  0  0  0
   22.8512  -19.4898  -16.4156 C   0  0  0  0  0  0  0  0  0  0  0  0
   23.8476  -20.3693  -16.0649 C   0  0  0  0  0  0  0  0  0  0  0  0
   27.8684  -19.5320  -16.2411 C   0  0  0  0  0  0  0  0  0  0  0  0
   27.8315  -18.2765  -15.6531 O   0  0  0  0  0  0  0  0  0  0  0  0
   28.5250  -19.6106  -17.3081 O   0  0  0  0  0  0  0  0  0  0  0  0
  2  1  1  1
  2  3  1  0
  3  4  1  0
  4  5  1  0
  5  9  1  0
  6  5  2  0
  7  8  2  0
  7  2  1  0
 11 10  1  1
 11 13  1  0
 11 12  1  0
 13 14  1  1
 14  7  1  0
 15 13  1  0
 16 15  2  0
 17 15  1  0
 18 17  1  0
 18 19  1  6
 19 20  1  0
 20 25  2  0
 20 21  1  0
 21 22  2  0
 22 23  1  0
 24 23  2  0
 25 24  1  0
 26 18  1  0
 27 26  1  0
 28 26  2  0
M  END
$$$$
