EVF.pdb
     RDKit          3D

 28 28  0  0  1  0  0  0  0  0999 V2000
   17.0663  -13.2683  -19.8934 N   0  0  0  0  0  0  0  0  0  0  0  0
   16.6422  -12.6412  -18.6769 C   0  0  1  0  0  0  0  0  0  0  0  0
   17.0918  -13.3515  -17.4445 C   0  0  0  0  0  0  0  0  0  0  0  0
   16.6624  -14.7721  -17.3271 C   0  0  0  0  0  0  0  0  0  0  0  0
   17.0635  -15.4498  -16.0934 C   0  0  0  0  0  0  0  0  0  0  0  0
   17.7827  -14.9654  -15.1923 O   0  0  0  0  0  0  0  0  0  0  0  0
   17.1113  -11.2133  -18.6034 C   0  0  0  0  0  0  0  0  0  0  0  0
   18.1779  -10.8493  -19.1604 O   0  0  0  0  0  0  0  0  0  0  0  0
   16.6122  -16.7526  -15.8884 O   0  0  0  0  0  0  0  0  0  0  0  0
   16.0428   -6.5118  -17.6171 C   0  0  0  0  0  0  0  0  0  0  0  0
   15.6691   -7.9095  -18.0644 C   0  0  1  0  0  0  0  0  0  0  0  0
   15.3006   -7.8330  -19.5219 C   0  0  0  0  0  0  0  0  0  0  0  0
   16.8352   -8.8456  -17.8115 C   0  0  2  0  0  0  0  0  0  0  0  0
   16.3706  -10.2160  -17.9023 N   0  0  0  0  0  0  0  0  0  0  0  0
   17.4806   -8.5675  -16.5046 C   0  0  0  0  0  0  0  0  0  0  0  0
   16.8613   -8.8653  -15.4529 O   0  0  0  0  0  0  0  0  0  0  0  0
   18.7701   -7.9778  -16.4399 N   0  0  0  0  0  0  0  0  0  0  0  0
   19.4958   -7.7170  -15.2168 C   0  0  1  0  0  0  0  0  0  0  0  0
   20.9666   -7.8058  -15.3758 C   0  0  0  0  0  0  0  0  0  0  0  0
   21.6518   -7.5865  -14.0876 C   0  0  0  0  0  0  0  0  0  0  0  0
   22.0142   -6.3055  -13.6576 C   0  0  0  0  0  0  0  0  0  0  0  0
   22.6312   -6.0868  -12.4562 C   0  0  0  0  0  0  0  0  0  0  0  0
   22.9135   -7.1597  -11.6261 C   0  0  0  0  0  0  0  0  0  0  0  0
   22.5531   -8.4396  -12.0523 C   0  0  0  0  0  0  0  0  0  0  0  0
   21.9332   -8.6594  -13.2591 C   0  0  0  0  0  0  0  0  0  0  0  0
   18.9852   -6.4839  -14.5814 C   0  0  0  0  0  0  0  0  0  0  0  0
   18.7813   -6.4525  -13.2100 O   0  0  0  0  0  0  0  0  0  0  0  0
   18.7112   -5.4228  -15.1936 O   0  0  0  0  0  0  0  0  0  0  0  0
  2  1  1  6
  2  3  1  0
  3  4  1  0
  4  5  1  0
  5  9  1  0
  6  5  2  0
  7  8  2  0
  7  2  1  0
 11 10  1  6
 11 13  1  0
 11 12  1  0
 13 14  1  1
 14  7  1  0
 15 13  1  0
 16 15  2  0
 17 15  1  0
 18 17  1  0
 18 19  1  6
 19 20  1  0
 20 25  2  0
 20 21  1  0
 21 22  2  0
 22 23  1  0
 24 23  2  0
 25 24  1  0
 26 18  1  0
 27 26  1  0
 28 26  2  0
M  END
$$$$
