EVF.pdb
     RDKit          3D

 28 28  0  0  1  0  0  0  0  0999 V2000
   23.4224  -21.2732  -18.3151 N   0  0  0  0  0  0  0  0  0  0  0  0
   23.3702  -20.3893  -17.1886 C   0  0  1  0  0  0  0  0  0  0  0  0
   22.1061  -20.4891  -16.4027 C   0  0  0  0  0  0  0  0  0  0  0  0
   20.9031  -19.8853  -17.0386 C   0  0  0  0  0  0  0  0  0  0  0  0
   20.9227  -18.4271  -17.1625 C   0  0  0  0  0  0  0  0  0  0  0  0
   21.4051  -17.7797  -18.1177 O   0  0  0  0  0  0  0  0  0  0  0  0
   24.5305  -20.6176  -16.2580 C   0  0  0  0  0  0  0  0  0  0  0  0
   24.8366  -21.7739  -15.8712 O   0  0  0  0  0  0  0  0  0  0  0  0
   20.3574  -17.6771  -16.1327 O   0  0  0  0  0  0  0  0  0  0  0  0
   28.0350  -19.2065  -16.5231 C   0  0  0  0  0  0  0  0  0  0  0  0
   27.5587  -18.8726  -15.1249 C   0  0  1  0  0  0  0  0  0  0  0  0
   27.2268  -17.4046  -15.1004 C   0  0  0  0  0  0  0  0  0  0  0  0
   26.3637  -19.7410  -14.7814 C   0  0  2  0  0  0  0  0  0  0  0  0
   25.3292  -19.5381  -15.7767 N   0  0  0  0  0  0  0  0  0  0  0  0
   25.8703  -19.4668  -13.4091 C   0  0  0  0  0  0  0  0  0  0  0  0
   24.8269  -18.7807  -13.2715 O   0  0  0  0  0  0  0  0  0  0  0  0
   26.5595  -19.9672  -12.2737 N   0  0  0  0  0  0  0  0  0  0  0  0
   25.9323  -20.3235  -11.0206 C   0  0  1  0  0  0  0  0  0  0  0  0
   24.8140  -21.2838  -11.1752 C   0  0  0  0  0  0  0  0  0  0  0  0
   23.5252  -20.6549  -10.8282 C   0  0  0  0  0  0  0  0  0  0  0  0
   22.4808  -20.5618  -11.7542 C   0  0  0  0  0  0  0  0  0  0  0  0
   21.2740  -19.9998  -11.4386 C   0  0  0  0  0  0  0  0  0  0  0  0
   21.0635  -19.5014  -10.1630 C   0  0  0  0  0  0  0  0  0  0  0  0
   22.1039  -19.5928   -9.2362 C   0  0  0  0  0  0  0  0  0  0  0  0
   23.3162  -20.1574   -9.5532 C   0  0  0  0  0  0  0  0  0  0  0  0
   26.9640  -20.6839  -10.0254 C   0  0  0  0  0  0  0  0  0  0  0  0
   26.7899  -20.3272   -8.6966 O   0  0  0  0  0  0  0  0  0  0  0  0
   28.0218  -21.3085  -10.2839 O   0  0  0  0  0  0  0  0  0  0  0  0
  2  1  1  6
  2  3  1  0
  3  4  1  0
  4  5  1  0
  5  9  1  0
  6  5  2  0
  7  8  2  0
  7  2  1  0
 11 10  1  6
 11 13  1  0
 11 12  1  0
 13 14  1  6
 14  7  1  0
 15 13  1  0
 16 15  2  0
 17 15  1  0
 18 17  1  0
 18 19  1  6
 19 20  1  0
 20 25  2  0
 20 21  1  0
 21 22  2  0
 22 23  1  0
 24 23  2  0
 25 24  1  0
 26 18  1  0
 27 26  1  0
 28 26  2  0
M  END
$$$$
