EVF.pdb
     RDKit          3D

 28 28  0  0  1  0  0  0  0  0999 V2000
   26.9608  -19.2702  -15.8104 N   0  0  0  0  0  0  0  0  0  0  0  0
   27.3525  -20.0709  -14.6886 C   0  0  1  0  0  0  0  0  0  0  0  0
   28.8220  -20.0698  -14.4315 C   0  0  0  0  0  0  0  0  0  0  0  0
   29.6614  -20.6950  -15.4901 C   0  0  0  0  0  0  0  0  0  0  0  0
   29.0263  -21.7830  -16.2350 C   0  0  0  0  0  0  0  0  0  0  0  0
   28.6442  -21.7306  -17.4247 O   0  0  0  0  0  0  0  0  0  0  0  0
   26.6474  -19.6370  -13.4320 C   0  0  0  0  0  0  0  0  0  0  0  0
   26.5172  -18.4197  -13.1462 O   0  0  0  0  0  0  0  0  0  0  0  0
   28.8211  -22.9931  -15.5745 O   0  0  0  0  0  0  0  0  0  0  0  0
   23.3494  -19.9167  -12.8735 C   0  0  0  0  0  0  0  0  0  0  0  0
   23.8596  -20.5740  -11.6082 C   0  0  1  0  0  0  0  0  0  0  0  0
   23.7040  -22.0615  -11.7787 C   0  0  0  0  0  0  0  0  0  0  0  0
   25.3022  -20.1665  -11.3779 C   0  0  2  0  0  0  0  0  0  0  0  0
   26.0991  -20.5825  -12.5154 N   0  0  0  0  0  0  0  0  0  0  0  0
   25.8260  -20.7209  -10.1050 C   0  0  0  0  0  0  0  0  0  0  0  0
   26.1854  -21.9244  -10.0764 O   0  0  0  0  0  0  0  0  0  0  0  0
   25.9206  -19.9120   -8.9425 N   0  0  0  0  0  0  0  0  0  0  0  0
   26.1019  -20.4178   -7.6002 C   0  0  1  0  0  0  0  0  0  0  0  0
   26.5337  -19.3798   -6.6343 C   0  0  0  0  0  0  0  0  0  0  0  0
   27.9293  -19.6007   -6.2095 C   0  0  0  0  0  0  0  0  0  0  0  0
   28.3147  -20.7604   -5.5288 C   0  0  0  0  0  0  0  0  0  0  0  0
   29.6092  -20.9865   -5.1479 C   0  0  0  0  0  0  0  0  0  0  0  0
   30.5829  -20.0447   -5.4386 C   0  0  0  0  0  0  0  0  0  0  0  0
   30.2017  -18.8860   -6.1180 C   0  0  0  0  0  0  0  0  0  0  0  0
   28.9013  -18.6587   -6.5008 C   0  0  0  0  0  0  0  0  0  0  0  0
   24.9292  -21.2253   -7.2035 C   0  0  0  0  0  0  0  0  0  0  0  0
   25.0960  -22.3021   -6.3456 O   0  0  0  0  0  0  0  0  0  0  0  0
   23.7521  -21.0154   -7.5858 O   0  0  0  0  0  0  0  0  0  0  0  0
  2  1  1  6
  2  3  1  0
  3  4  1  0
  4  5  1  0
  5  9  1  0
  6  5  2  0
  7  8  2  0
  7  2  1  0
 11 10  1  6
 11 13  1  0
 11 12  1  0
 13 14  1  6
 14  7  1  0
 15 13  1  0
 16 15  2  0
 17 15  1  0
 18 17  1  0
 18 19  1  1
 19 20  1  0
 20 25  2  0
 20 21  1  0
 21 22  2  0
 22 23  1  0
 24 23  2  0
 25 24  1  0
 26 18  1  0
 27 26  1  0
 28 26  2  0
M  END
$$$$
