ASD.pdb
     RDKit          3D

 20 19  0  0  1  0  0  0  0  0999 V2000
    8.1804  -19.0560   18.9168 C   0  0  0  0  0  0  0  0  0  0  0  0
    8.0252  -17.6246   18.4514 C   0  0  2  0  0  0  0  0  0  0  0  0
    8.4630  -17.4480   17.0881 N   0  0  0  0  0  0  0  0  0  0  0  0
    8.7532  -16.7470   19.3934 C   0  0  0  0  0  0  0  0  0  0  0  0
    9.9826  -16.5609   19.1950 O   0  0  0  0  0  0  0  0  0  0  0  0
    7.0841  -15.2961   22.8689 O   0  0  0  0  0  0  0  0  0  0  0  0
    7.9378  -14.4638   22.1857 C   0  0  0  0  0  0  0  0  0  0  0  0
    8.9529  -15.2573   21.3464 C   0  0  2  0  0  0  0  0  0  0  0  0
    8.1585  -16.1080   20.4955 N   0  0  0  0  0  0  0  0  0  0  0  0
    9.8259  -16.0431   22.2494 C   0  0  0  0  0  0  0  0  0  0  0  0
    9.5054  -17.2371   22.4755 O   0  0  0  0  0  0  0  0  0  0  0  0
   10.9873  -15.5016   22.8535 N   0  0  0  0  0  0  0  0  0  0  0  0
   11.8607  -16.2485   23.7386 C   0  0  1  0  0  0  0  0  0  0  0  0
   13.1811  -15.5381   23.9339 C   0  0  0  0  0  0  0  0  0  0  0  0
   14.3593  -16.3472   23.6001 C   0  0  0  0  0  0  0  0  0  0  0  0
   14.5875  -17.3953   24.2434 O   0  0  0  0  0  0  0  0  0  0  0  0
   11.1113  -16.4774   24.9873 C   0  0  0  0  0  0  0  0  0  0  0  0
   11.3005  -17.5877   25.7884 O   0  0  0  0  0  0  0  0  0  0  0  0
   15.2436  -16.0003   22.5922 O   0  0  0  0  0  0  0  0  0  0  0  0
   10.2621  -15.6321   25.3464 O   0  0  0  0  0  0  0  0  0  0  0  0
  2  1  1  1
  2  3  1  0
  4  2  1  0
  4  5  2  0
  6  7  1  0
  8  7  1  1
  8  9  1  0
  9  4  1  0
 10  8  1  0
 11 10  2  0
 12 10  1  0
 13 17  1  0
 13 12  1  0
 13 14  1  1
 15 14  1  0
 15 16  2  0
 17 18  1  0
 19 15  1  0
 20 17  2  0
M  END
$$$$
