ASD.pdb
     RDKit          3D

 20 19  0  0  1  0  0  0  0  0999 V2000
    8.4045  -17.6365   20.1634 C   0  0  0  0  0  0  0  0  0  0  0  0
    8.5882  -16.1439   20.3302 C   0  0  2  0  0  0  0  0  0  0  0  0
    9.2713  -15.5533   19.2051 N   0  0  0  0  0  0  0  0  0  0  0  0
    9.2945  -15.9013   21.6069 C   0  0  0  0  0  0  0  0  0  0  0  0
   10.5262  -15.6443   21.5592 O   0  0  0  0  0  0  0  0  0  0  0  0
    7.3265  -15.0274   25.0528 O   0  0  0  0  0  0  0  0  0  0  0  0
    8.5977  -14.5707   24.8002 C   0  0  0  0  0  0  0  0  0  0  0  0
    9.4381  -15.6178   24.0507 C   0  0  2  0  0  0  0  0  0  0  0  0
    8.6769  -15.9396   22.8693 N   0  0  0  0  0  0  0  0  0  0  0  0
    9.6323  -16.8020   24.9196 C   0  0  0  0  0  0  0  0  0  0  0  0
    8.7333  -17.6802   24.9166 O   0  0  0  0  0  0  0  0  0  0  0  0
   10.7769  -16.9719   25.7371 N   0  0  0  0  0  0  0  0  0  0  0  0
   11.0130  -18.1401   26.5639 C   0  0  1  0  0  0  0  0  0  0  0  0
   12.4899  -18.4446   26.6742 C   0  0  0  0  0  0  0  0  0  0  0  0
   13.0839  -19.0115   25.4576 C   0  0  0  0  0  0  0  0  0  0  0  0
   12.3427  -19.3244   24.5000 O   0  0  0  0  0  0  0  0  0  0  0  0
   10.3531  -17.8896   27.8582 C   0  0  0  0  0  0  0  0  0  0  0  0
   10.1232  -18.8816   28.7927 O   0  0  0  0  0  0  0  0  0  0  0  0
   14.4459  -19.2197   25.3173 O   0  0  0  0  0  0  0  0  0  0  0  0
    9.9804  -16.7273   28.1318 O   0  0  0  0  0  0  0  0  0  0  0  0
  2  1  1  6
  2  3  1  0
  4  2  1  0
  4  5  2  0
  6  7  1  0
  8  7  1  1
  8  9  1  0
  9  4  1  0
 10  8  1  0
 11 10  2  0
 12 10  1  0
 13 17  1  0
 13 12  1  0
 13 14  1  1
 15 14  1  0
 15 16  2  0
 17 18  1  0
 19 15  1  0
 20 17  2  0
M  END
$$$$
