ASD.pdb
     RDKit          3D

 20 19  0  0  1  0  0  0  0  0999 V2000
    6.9917  -18.2038   19.7538 C   0  0  0  0  0  0  0  0  0  0  0  0
    7.3992  -16.8566   19.1986 C   0  0  2  0  0  0  0  0  0  0  0  0
    8.0009  -16.9688   17.8921 N   0  0  0  0  0  0  0  0  0  0  0  0
    8.2960  -16.2020   20.1758 C   0  0  0  0  0  0  0  0  0  0  0  0
    9.5380  -16.3036   19.9958 O   0  0  0  0  0  0  0  0  0  0  0  0
    6.9448  -14.5008   23.6811 O   0  0  0  0  0  0  0  0  0  0  0  0
    8.0003  -13.8909   23.0471 C   0  0  0  0  0  0  0  0  0  0  0  0
    8.8054  -14.8886   22.1979 C   0  0  2  0  0  0  0  0  0  0  0  0
    7.8484  -15.4739   21.2921 N   0  0  0  0  0  0  0  0  0  0  0  0
    9.4157  -15.9054   23.0859 C   0  0  0  0  0  0  0  0  0  0  0  0
    8.8016  -16.9916   23.2357 O   0  0  0  0  0  0  0  0  0  0  0  0
   10.6454  -15.6958   23.7576 N   0  0  0  0  0  0  0  0  0  0  0  0
   11.3087  -16.7041   24.5622 C   0  0  1  0  0  0  0  0  0  0  0  0
   12.7743  -16.3816   24.7468 C   0  0  0  0  0  0  0  0  0  0  0  0
   13.5623  -16.4150   23.5090 C   0  0  0  0  0  0  0  0  0  0  0  0
   13.1394  -17.0659   22.5284 O   0  0  0  0  0  0  0  0  0  0  0  0
   10.5535  -16.8106   25.8238 C   0  0  0  0  0  0  0  0  0  0  0  0
   10.5418  -17.9526   26.6024 O   0  0  0  0  0  0  0  0  0  0  0  0
   14.7699  -15.7504   23.3731 O   0  0  0  0  0  0  0  0  0  0  0  0
    9.8892  -15.8259   26.2158 O   0  0  0  0  0  0  0  0  0  0  0  0
  2  1  1  1
  2  3  1  0
  4  2  1  0
  4  5  2  0
  6  7  1  0
  8  7  1  1
  8  9  1  0
  9  4  1  0
 10  8  1  0
 11 10  2  0
 12 10  1  0
 13 17  1  0
 13 12  1  0
 13 14  1  1
 15 14  1  0
 15 16  2  0
 17 18  1  0
 19 15  1  0
 20 17  2  0
M  END
$$$$
