ASD.pdb
     RDKit          3D

 20 19  0  0  1  0  0  0  0  0999 V2000
    7.0682  -15.0076   19.6036 C   0  0  0  0  0  0  0  0  0  0  0  0
    7.4305  -13.6064   20.0449 C   0  0  2  0  0  0  0  0  0  0  0  0
    8.1551  -12.8878   19.0250 N   0  0  0  0  0  0  0  0  0  0  0  0
    8.1871  -13.6982   21.3125 C   0  0  0  0  0  0  0  0  0  0  0  0
    9.4392  -13.5758   21.2615 O   0  0  0  0  0  0  0  0  0  0  0  0
    6.4434  -14.6883   24.9543 O   0  0  0  0  0  0  0  0  0  0  0  0
    7.4931  -13.8018   24.9332 C   0  0  0  0  0  0  0  0  0  0  0  0
    8.4273  -14.0571   23.7388 C   0  0  2  0  0  0  0  0  0  0  0  0
    7.5957  -13.9132   22.5697 N   0  0  0  0  0  0  0  0  0  0  0  0
    8.9955  -15.4211   23.8453 C   0  0  0  0  0  0  0  0  0  0  0  0
    8.3454  -16.3648   23.3292 O   0  0  0  0  0  0  0  0  0  0  0  0
   10.2243  -15.6896   24.4975 N   0  0  0  0  0  0  0  0  0  0  0  0
   10.7794  -17.0199   24.6594 C   0  0  1  0  0  0  0  0  0  0  0  0
   12.2753  -17.0205   24.4398 C   0  0  0  0  0  0  0  0  0  0  0  0
   12.9232  -18.3140   24.6874 C   0  0  0  0  0  0  0  0  0  0  0  0
   12.6196  -19.2991   23.9791 O   0  0  0  0  0  0  0  0  0  0  0  0
   10.3677  -17.4967   25.9922 C   0  0  0  0  0  0  0  0  0  0  0  0
    9.9531  -16.6491   27.0023 O   0  0  0  0  0  0  0  0  0  0  0  0
   13.8686  -18.4986   25.6826 O   0  0  0  0  0  0  0  0  0  0  0  0
   10.3915  -18.7247   26.2290 O   0  0  0  0  0  0  0  0  0  0  0  0
  2  1  1  6
  2  3  1  0
  4  2  1  0
  4  5  2  0
  6  7  1  0
  8  7  1  1
  8  9  1  0
  9  4  1  0
 10  8  1  0
 11 10  2  0
 12 10  1  0
 13 17  1  0
 13 12  1  0
 13 14  1  1
 15 14  1  0
 15 16  2  0
 17 18  1  0
 19 15  1  0
 20 17  2  0
M  END
$$$$
