ASD.pdb
     RDKit          3D

 20 19  0  0  1  0  0  0  0  0999 V2000
    8.4226  -16.5598   16.9699 C   0  0  0  0  0  0  0  0  0  0  0  0
    8.6536  -17.3978   18.2084 C   0  0  2  0  0  0  0  0  0  0  0  0
    7.4543  -18.0781   18.6333 N   0  0  0  0  0  0  0  0  0  0  0  0
    9.2084  -16.5243   19.2651 C   0  0  0  0  0  0  0  0  0  0  0  0
   10.3693  -16.0652   19.1007 O   0  0  0  0  0  0  0  0  0  0  0  0
    7.1720  -15.5320   22.7740 O   0  0  0  0  0  0  0  0  0  0  0  0
    8.0473  -14.6489   22.1889 C   0  0  0  0  0  0  0  0  0  0  0  0
    9.1791  -15.3795   21.4473 C   0  0  2  0  0  0  0  0  0  0  0  0
    8.5210  -16.1747   20.4406 N   0  0  0  0  0  0  0  0  0  0  0  0
    9.9304  -16.2202   22.4083 C   0  0  0  0  0  0  0  0  0  0  0  0
    9.6003  -17.4288   22.5067 O   0  0  0  0  0  0  0  0  0  0  0  0
   10.9882  -15.7144   23.2036 N   0  0  0  0  0  0  0  0  0  0  0  0
   11.7015  -16.4991   24.1933 C   0  0  1  0  0  0  0  0  0  0  0  0
   13.1403  -16.0510   24.3155 C   0  0  0  0  0  0  0  0  0  0  0  0
   13.9398  -16.2432   23.0997 C   0  0  0  0  0  0  0  0  0  0  0  0
   13.9034  -17.3444   22.5078 O   0  0  0  0  0  0  0  0  0  0  0  0
   10.9344  -16.4051   25.4487 C   0  0  0  0  0  0  0  0  0  0  0  0
   11.1651  -17.2247   26.5374 O   0  0  0  0  0  0  0  0  0  0  0  0
   14.7446  -15.2489   22.5689 O   0  0  0  0  0  0  0  0  0  0  0  0
   10.0302  -15.5457   25.5418 O   0  0  0  0  0  0  0  0  0  0  0  0
  2  1  1  6
  2  3  1  0
  4  2  1  0
  4  5  2  0
  6  7  1  0
  8  7  1  1
  8  9  1  0
  9  4  1  0
 10  8  1  0
 11 10  2  0
 12 10  1  0
 13 17  1  0
 13 12  1  0
 13 14  1  1
 15 14  1  0
 15 16  2  0
 17 18  1  0
 19 15  1  0
 20 17  2  0
M  END
$$$$
