ARN.pdb
     RDKit          3D

 25 24  0  0  1  0  0  0  0  0999 V2000
   26.4970  -18.3024  -17.3281 C   0  0  0  0  0  0  0  0  0  0  0  0
   27.5591  -19.2399  -16.8144 C   0  0  2  0  0  0  0  0  0  0  0  0
   27.9927  -20.1298  -17.8512 N   0  0  0  0  0  0  0  0  0  0  0  0
   26.9835  -20.0345  -15.7070 C   0  0  0  0  0  0  0  0  0  0  0  0
   26.4217  -21.1427  -15.9792 O   0  0  0  0  0  0  0  0  0  0  0  0
   30.3225  -21.5275   -9.1911 N   0  0  0  0  0  0  0  0  0  0  0  0
   30.9337  -22.2491  -10.2464 C   0  0  0  0  0  0  0  0  0  0  0  0
   32.2116  -22.5043  -10.1845 N   0  0  0  0  0  0  0  0  0  0  0  0
   30.2333  -22.7160  -11.3742 N   0  0  0  0  0  0  0  0  0  0  0  0
   28.8640  -22.3556  -11.6368 C   0  0  0  0  0  0  0  0  0  0  0  0
   28.8080  -21.0748  -12.4482 C   0  0  0  0  0  0  0  0  0  0  0  0
   27.5529  -20.3335  -12.1588 C   0  0  0  0  0  0  0  0  0  0  0  0
   26.5548  -20.3251  -13.2775 C   0  0  2  0  0  0  0  0  0  0  0  0
   27.0665  -19.5555  -14.3912 N   0  0  0  0  0  0  0  0  0  0  0  0
   25.3417  -19.6329  -12.7642 C   0  0  0  0  0  0  0  0  0  0  0  0
   25.3570  -18.3818  -12.6657 O   0  0  0  0  0  0  0  0  0  0  0  0
   32.6991  -23.0874  -10.8792 N   0  0  0  0  0  0  0  0  0  0  0  0
   20.4674  -18.9635  -13.6041 C   0  0  0  0  0  0  0  0  0  0  0  0
   21.4281  -19.3055  -14.5924 O   0  0  0  0  0  0  0  0  0  0  0  0
   21.0940  -19.2243  -15.7850 C   0  0  0  0  0  0  0  0  0  0  0  0
   22.7697  -19.7392  -14.2005 C   0  0  1  0  0  0  0  0  0  0  0  0
   22.8866  -19.8270  -12.6980 N   0  0  0  0  0  0  0  0  0  0  0  0
   24.2122  -20.3970  -12.4032 C   0  0  0  0  0  0  0  0  0  0  0  0
   21.9321  -20.8804  -12.2293 O   0  0  0  0  0  0  0  0  0  0  0  0
   22.1546  -22.2264  -12.4123 O   0  0  0  0  0  0  0  0  0  0  0  0
  2  1  1  6
  2  3  1  0
  4  2  1  0
  5  4  2  0
  6  7  1  0
  7  8  2  0
  7  9  1  0
  9 10  1  0
 10 11  1  0
 11 12  1  0
 13 12  1  1
 13 14  1  0
 14  4  1  0
 15 16  2  0
 15 13  1  0
 18 20  1  0
 18 17  1  0
 19 18  2  0
 21 20  1  1
 21 22  1  0
 22 15  1  0
 23 21  1  0
 24 23  1  0
 25 23  2  0
M  END
$$$$
