ARN.pdb
     RDKit          3D

 25 24  0  0  1  0  0  0  0  0999 V2000
   20.6523  -16.5477  -14.6695 C   0  0  0  0  0  0  0  0  0  0  0  0
   21.2792  -17.2928  -15.8195 C   0  0  2  0  0  0  0  0  0  0  0  0
   21.2923  -18.7027  -15.5618 N   0  0  0  0  0  0  0  0  0  0  0  0
   22.6719  -16.8190  -15.9781 C   0  0  0  0  0  0  0  0  0  0  0  0
   22.8754  -15.5799  -16.1811 O   0  0  0  0  0  0  0  0  0  0  0  0
   27.9272  -21.1898  -11.5757 N   0  0  0  0  0  0  0  0  0  0  0  0
   26.6909  -21.1633  -12.2676 C   0  0  0  0  0  0  0  0  0  0  0  0
   25.9321  -22.2245  -12.2530 N   0  0  0  0  0  0  0  0  0  0  0  0
   26.2242  -20.0424  -12.9792 N   0  0  0  0  0  0  0  0  0  0  0  0
   26.8602  -18.7533  -12.8931 C   0  0  0  0  0  0  0  0  0  0  0  0
   26.0827  -17.7327  -13.7029 C   0  0  0  0  0  0  0  0  0  0  0  0
   25.9715  -18.1714  -15.1184 C   0  0  0  0  0  0  0  0  0  0  0  0
   25.1089  -17.3002  -15.9814 C   0  0  2  0  0  0  0  0  0  0  0  0
   23.7310  -17.7357  -15.9031 N   0  0  0  0  0  0  0  0  0  0  0  0
   25.5696  -17.4950  -17.3828 C   0  0  0  0  0  0  0  0  0  0  0  0
   25.0435  -18.4038  -18.0702 O   0  0  0  0  0  0  0  0  0  0  0  0
   25.0167  -22.2632  -12.7229 N   0  0  0  0  0  0  0  0  0  0  0  0
   26.3810  -15.6892  -22.4391 C   0  0  0  0  0  0  0  0  0  0  0  0
   27.2457  -15.4564  -21.3370 O   0  0  0  0  0  0  0  0  0  0  0  0
   28.4474  -15.2514  -21.5701 C   0  0  0  0  0  0  0  0  0  0  0  0
   26.7202  -15.4610  -19.9711 C   0  0  1  0  0  0  0  0  0  0  0  0
   26.9234  -16.8095  -19.3236 N   0  0  0  0  0  0  0  0  0  0  0  0
   26.5806  -16.6577  -17.8993 C   0  0  0  0  0  0  0  0  0  0  0  0
   28.3938  -17.0892  -19.3097 O   0  0  0  0  0  0  0  0  0  0  0  0
   29.1785  -16.9120  -18.1928 O   0  0  0  0  0  0  0  0  0  0  0  0
  2  1  1  1
  2  3  1  0
  4  2  1  0
  5  4  2  0
  6  7  1  0
  7  8  2  0
  7  9  1  0
  9 10  1  0
 10 11  1  0
 11 12  1  0
 13 12  1  1
 13 14  1  0
 14  4  1  0
 15 16  2  0
 15 13  1  0
 18 20  1  0
 18 17  1  0
 19 18  2  0
 21 20  1  6
 21 22  1  0
 22 15  1  0
 23 21  1  0
 24 23  1  0
 25 23  2  0
M  END
$$$$
