ARN.pdb
     RDKit          3D

 25 24  0  0  1  0  0  0  0  0999 V2000
   21.2718  -12.6803  -19.3061 C   0  0  0  0  0  0  0  0  0  0  0  0
   22.5339  -12.9912  -18.5437 C   0  0  2  0  0  0  0  0  0  0  0  0
   23.6904  -12.6830  -19.3326 N   0  0  0  0  0  0  0  0  0  0  0  0
   22.5407  -14.4355  -18.2227 C   0  0  0  0  0  0  0  0  0  0  0  0
   22.0165  -15.2469  -19.0503 O   0  0  0  0  0  0  0  0  0  0  0  0
   27.3918  -20.6046  -15.3545 N   0  0  0  0  0  0  0  0  0  0  0  0
   27.6901  -19.3780  -15.9979 C   0  0  0  0  0  0  0  0  0  0  0  0
   28.6121  -19.3526  -16.9206 N   0  0  0  0  0  0  0  0  0  0  0  0
   27.0399  -18.1665  -15.6976 N   0  0  0  0  0  0  0  0  0  0  0  0
   25.9860  -18.0771  -14.7204 C   0  0  0  0  0  0  0  0  0  0  0  0
   24.6456  -17.9140  -15.4121 C   0  0  0  0  0  0  0  0  0  0  0  0
   24.5095  -16.5390  -15.9590 C   0  0  0  0  0  0  0  0  0  0  0  0
   23.2466  -16.2894  -16.7275 C   0  0  2  0  0  0  0  0  0  0  0  0
   23.1184  -14.8786  -17.0238 N   0  0  0  0  0  0  0  0  0  0  0  0
   22.1191  -16.6720  -15.8350 C   0  0  0  0  0  0  0  0  0  0  0  0
   21.9460  -16.0284  -14.7715 O   0  0  0  0  0  0  0  0  0  0  0  0
   28.9042  -18.4865  -17.3947 N   0  0  0  0  0  0  0  0  0  0  0  0
   16.9972  -19.8725  -15.6793 C   0  0  0  0  0  0  0  0  0  0  0  0
   17.7903  -18.7237  -15.4192 O   0  0  0  0  0  0  0  0  0  0  0  0
   17.4330  -17.9611  -14.5076 C   0  0  0  0  0  0  0  0  0  0  0  0
   18.9921  -18.4601  -16.2116 C   0  0  2  0  0  0  0  0  0  0  0  0
   20.1399  -18.0466  -15.3225 N   0  0  0  0  0  0  0  0  0  0  0  0
   21.2789  -17.7429  -16.2054 C   0  0  0  0  0  0  0  0  0  0  0  0
   20.5869  -19.2581  -14.5657 O   0  0  0  0  0  0  0  0  0  0  0  0
   20.3684  -19.4202  -13.2164 O   0  0  0  0  0  0  0  0  0  0  0  0
  2  1  1  6
  2  3  1  0
  4  2  1  0
  5  4  2  0
  6  7  1  0
  7  8  2  0
  7  9  1  0
  9 10  1  0
 10 11  1  0
 11 12  1  0
 13 12  1  1
 13 14  1  0
 14  4  1  0
 15 16  2  0
 15 13  1  0
 18 20  1  0
 18 17  1  0
 19 18  2  0
 21 20  1  6
 21 22  1  0
 22 15  1  0
 23 21  1  0
 24 23  1  0
 25 23  2  0
M  END
$$$$
