ARN.pdb
     RDKit          3D

 25 24  0  0  1  0  0  0  0  0999 V2000
   29.6738  -19.6015  -19.4979 C   0  0  0  0  0  0  0  0  0  0  0  0
   29.0019  -20.5626  -18.5515 C   0  0  2  0  0  0  0  0  0  0  0  0
   28.1382  -21.4558  -19.2664 N   0  0  0  0  0  0  0  0  0  0  0  0
   28.1958  -19.7812  -17.5878 C   0  0  0  0  0  0  0  0  0  0  0  0
   28.7848  -18.9290  -16.8497 O   0  0  0  0  0  0  0  0  0  0  0  0
   21.0141  -20.5332  -15.7913 N   0  0  0  0  0  0  0  0  0  0  0  0
   20.5961  -19.1990  -15.5612 C   0  0  0  0  0  0  0  0  0  0  0  0
   19.5814  -18.9787  -14.7713 N   0  0  0  0  0  0  0  0  0  0  0  0
   21.2210  -18.0795  -16.1414 N   0  0  0  0  0  0  0  0  0  0  0  0
   22.3203  -18.2003  -17.0637 C   0  0  0  0  0  0  0  0  0  0  0  0
   23.6094  -18.4619  -16.3078 C   0  0  0  0  0  0  0  0  0  0  0  0
   24.6807  -18.8901  -17.2444 C   0  0  0  0  0  0  0  0  0  0  0  0
   25.9872  -19.2312  -16.5928 C   0  0  2  0  0  0  0  0  0  0  0  0
   26.8116  -19.9929  -17.5064 N   0  0  0  0  0  0  0  0  0  0  0  0
   25.6710  -20.1031  -15.4292 C   0  0  0  0  0  0  0  0  0  0  0  0
   25.1641  -21.2316  -15.6408 O   0  0  0  0  0  0  0  0  0  0  0  0
   19.1626  -18.0463  -14.6467 N   0  0  0  0  0  0  0  0  0  0  0  0
   25.8240  -22.1793  -10.8020 C   0  0  0  0  0  0  0  0  0  0  0  0
   26.2179  -20.8267  -10.6233 O   0  0  0  0  0  0  0  0  0  0  0  0
   26.5073  -20.4489   -9.4770 C   0  0  0  0  0  0  0  0  0  0  0  0
   26.2762  -19.9163  -11.7676 C   0  0  2  0  0  0  0  0  0  0  0  0
   25.7640  -20.5922  -13.0164 N   0  0  0  0  0  0  0  0  0  0  0  0
   25.9473  -19.6406  -14.1255 C   0  0  0  0  0  0  0  0  0  0  0  0
   24.2773  -20.7122  -12.8901 O   0  0  0  0  0  0  0  0  0  0  0  0
   23.6544  -21.8556  -12.4438 O   0  0  0  0  0  0  0  0  0  0  0  0
  2  1  1  6
  2  3  1  0
  4  2  1  0
  5  4  2  0
  6  7  1  0
  7  8  2  0
  7  9  1  0
  9 10  1  0
 10 11  1  0
 11 12  1  0
 13 12  1  6
 13 14  1  0
 14  4  1  0
 15 16  2  0
 15 13  1  0
 18 20  1  0
 18 17  1  0
 19 18  2  0
 21 20  1  6
 21 22  1  0
 22 15  1  0
 23 21  1  0
 24 23  1  0
 25 23  2  0
M  END
$$$$
