ARN.pdb
     RDKit          3D

 25 24  0  0  1  0  0  0  0  0999 V2000
   14.7251  -11.3605  -11.4281 C   0  0  0  0  0  0  0  0  0  0  0  0
   16.1073  -10.8583  -11.0992 C   0  0  2  0  0  0  0  0  0  0  0  0
   16.4600  -11.1940   -9.7510 N   0  0  0  0  0  0  0  0  0  0  0  0
   16.1158   -9.3861  -11.2471 C   0  0  0  0  0  0  0  0  0  0  0  0
   15.8487   -8.8859  -12.3857 O   0  0  0  0  0  0  0  0  0  0  0  0
   12.8200   -4.5667   -5.1333 N   0  0  0  0  0  0  0  0  0  0  0  0
   12.1420   -5.4178   -6.0408 C   0  0  0  0  0  0  0  0  0  0  0  0
   10.8526   -5.5760   -5.9207 N   0  0  0  0  0  0  0  0  0  0  0  0
   12.7862   -6.1124   -7.0816 N   0  0  0  0  0  0  0  0  0  0  0  0
   14.1942   -5.9715   -7.3484 C   0  0  0  0  0  0  0  0  0  0  0  0
   14.5794   -6.7919   -8.5651 C   0  0  0  0  0  0  0  0  0  0  0  0
   15.9920   -6.5261   -8.9423 C   0  0  0  0  0  0  0  0  0  0  0  0
   16.4211   -7.1343  -10.2437 C   0  0  2  0  0  0  0  0  0  0  0  0
   16.4158   -8.5779  -10.1407 N   0  0  0  0  0  0  0  0  0  0  0  0
   17.8246   -6.6991  -10.4781 C   0  0  0  0  0  0  0  0  0  0  0  0
   18.7161   -7.0820   -9.6819 O   0  0  0  0  0  0  0  0  0  0  0  0
   10.2986   -6.1574   -6.5652 N   0  0  0  0  0  0  0  0  0  0  0  0
   22.4676   -6.0930  -12.1225 C   0  0  0  0  0  0  0  0  0  0  0  0
   21.4644   -6.7068  -12.9184 O   0  0  0  0  0  0  0  0  0  0  0  0
   21.7649   -7.0557  -14.0709 C   0  0  0  0  0  0  0  0  0  0  0  0
   20.1192   -6.9154  -12.3810 C   0  0  1  0  0  0  0  0  0  0  0  0
   19.5339   -5.6160  -11.8833 N   0  0  0  0  0  0  0  0  0  0  0  0
   18.1149   -5.8716  -11.5831 C   0  0  0  0  0  0  0  0  0  0  0  0
   19.4894   -4.6661  -13.0392 O   0  0  0  0  0  0  0  0  0  0  0  0
   20.5338   -3.8288  -13.3601 O   0  0  0  0  0  0  0  0  0  0  0  0
  2  1  1  1
  2  3  1  0
  4  2  1  0
  5  4  2  0
  6  7  1  0
  7  8  2  0
  7  9  1  0
  9 10  1  0
 10 11  1  0
 11 12  1  0
 13 12  1  1
 13 14  1  0
 14  4  1  0
 15 16  2  0
 15 13  1  0
 18 20  1  0
 18 17  1  0
 19 18  2  0
 21 20  1  1
 21 22  1  0
 22 15  1  0
 23 21  1  0
 24 23  1  0
 25 23  2  0
M  END
$$$$
