ARN.pdb
     RDKit          3D

 25 24  0  0  1  0  0  0  0  0999 V2000
   25.7846  -21.2974  -11.0280 C   0  0  0  0  0  0  0  0  0  0  0  0
   24.8752  -21.6345  -12.1813 C   0  0  2  0  0  0  0  0  0  0  0  0
   25.4510  -22.6644  -12.9952 N   0  0  0  0  0  0  0  0  0  0  0  0
   24.6926  -20.4172  -13.0022 C   0  0  0  0  0  0  0  0  0  0  0  0
   24.1281  -19.4059  -12.4764 O   0  0  0  0  0  0  0  0  0  0  0  0
   29.0486  -21.9986  -15.7111 N   0  0  0  0  0  0  0  0  0  0  0  0
   28.5130  -21.8105  -17.0094 C   0  0  0  0  0  0  0  0  0  0  0  0
   28.2356  -22.8556  -17.7394 N   0  0  0  0  0  0  0  0  0  0  0  0
   28.2566  -20.5439  -17.5666 N   0  0  0  0  0  0  0  0  0  0  0  0
   28.3877  -19.3261  -16.8093 C   0  0  0  0  0  0  0  0  0  0  0  0
   27.3787  -19.3048  -15.6766 C   0  0  0  0  0  0  0  0  0  0  0  0
   26.0007  -19.1596  -16.2138 C   0  0  0  0  0  0  0  0  0  0  0  0
   24.9117  -19.2573  -15.1880 C   0  0  2  0  0  0  0  0  0  0  0  0
   25.1401  -20.4014  -14.3315 N   0  0  0  0  0  0  0  0  0  0  0  0
   23.6433  -19.4896  -15.9303 C   0  0  0  0  0  0  0  0  0  0  0  0
   23.2774  -20.6708  -16.1452 O   0  0  0  0  0  0  0  0  0  0  0  0
   27.8510  -22.7854  -18.6920 N   0  0  0  0  0  0  0  0  0  0  0  0
   18.7182  -18.7155  -16.3472 C   0  0  0  0  0  0  0  0  0  0  0  0
   19.4269  -18.8255  -15.1216 O   0  0  0  0  0  0  0  0  0  0  0  0
   18.7728  -19.0072  -14.0826 C   0  0  0  0  0  0  0  0  0  0  0  0
   20.8868  -18.7256  -15.1002 C   0  0  1  0  0  0  0  0  0  0  0  0
   21.4329  -18.5613  -16.4979 N   0  0  0  0  0  0  0  0  0  0  0  0
   22.8893  -18.3819  -16.3714 C   0  0  0  0  0  0  0  0  0  0  0  0
   20.9542  -17.2428  -17.0201 O   0  0  0  0  0  0  0  0  0  0  0  0
   19.8222  -17.1102  -17.7919 O   0  0  0  0  0  0  0  0  0  0  0  0
  2  1  1  1
  2  3  1  0
  4  2  1  0
  5  4  2  0
  6  7  1  0
  7  8  2  0
  7  9  1  0
  9 10  1  0
 10 11  1  0
 11 12  1  0
 13 12  1  6
 13 14  1  0
 14  4  1  0
 15 16  2  0
 15 13  1  0
 18 20  1  0
 18 17  1  0
 19 18  2  0
 21 20  1  6
 21 22  1  0
 22 15  1  0
 23 21  1  0
 24 23  1  0
 25 23  2  0
M  END
$$$$
