HES.pdb
     RDKit          3D

 26 26  0  0  1  0  0  0  0  0999 V2000
    9.3137  -16.5576   18.5362 N   0  0  0  0  0  0  0  0  0  0  0  0
    9.5199  -15.9405   19.8275 C   0  0  1  0  0  0  0  0  0  0  0  0
    8.3132  -15.1578   20.2151 C   0  0  0  0  0  0  0  0  0  0  0  0
    7.9008  -14.1551   19.2181 C   0  0  0  0  0  0  0  0  0  0  0  0
    8.5108  -12.9429   19.0052 C   0  0  0  0  0  0  0  0  0  0  0  0
    7.8429  -12.3156   18.0130 N   0  0  0  0  0  0  0  0  0  0  0  0
    6.8323  -13.0940   17.5948 C   0  0  0  0  0  0  0  0  0  0  0  0
    6.8871  -14.2091   18.3429 N   0  0  0  0  0  0  0  0  0  0  0  0
   10.0062  -16.9069   20.8094 C   0  0  0  0  0  0  0  0  0  0  0  0
    9.2393  -17.6918   21.4582 O   0  0  0  0  0  0  0  0  0  0  0  0
   11.3887  -17.0369   21.1086 N   0  0  0  0  0  0  0  0  0  0  0  0
   11.9235  -17.9765   22.0651 C   0  0  1  0  0  0  0  0  0  0  0  0
   13.3724  -18.2310   21.7530 C   0  0  0  0  0  0  0  0  0  0  0  0
   14.0753  -19.1793   22.6460 C   0  0  0  0  0  0  0  0  0  0  0  0
   15.4573  -19.4999   22.2712 C   0  0  0  0  0  0  0  0  0  0  0  0
   15.9897  -19.1547   21.1857 O   0  0  0  0  0  0  0  0  0  0  0  0
   11.8915  -17.4355   23.4498 C   0  0  0  0  0  0  0  0  0  0  0  0
   12.4507  -16.3322   23.6539 O   0  0  0  0  0  0  0  0  0  0  0  0
   16.2782  -20.2301   23.1327 O   0  0  0  0  0  0  0  0  0  0  0  0
    8.8703  -17.9448   25.8486 O   0  0  0  0  0  0  0  0  0  0  0  0
    9.8319  -17.0002   26.1973 C   0  0  0  0  0  0  0  0  0  0  0  0
   11.1984  -17.5640   25.8738 C   0  0  2  0  0  0  0  0  0  0  0  0
   11.2730  -18.0865   24.5402 N   0  0  0  0  0  0  0  0  0  0  0  0
   11.5454  -18.6079   26.8482 C   0  0  0  0  0  0  0  0  0  0  0  0
   11.6032  -18.3945   28.2172 O   0  0  0  0  0  0  0  0  0  0  0  0
   11.8054  -19.7616   26.4224 O   0  0  0  0  0  0  0  0  0  0  0  0
  2  1  1  6
  2  9  1  0
  3  4  1  0
  3  2  1  0
  4  8  1  0
  5  6  1  0
  5  4  2  0
  6  7  1  0
  7  8  2  0
  9 11  1  0
  9 10  2  0
 11 12  1  0
 12 17  1  0
 12 13  1  6
 13 14  1  0
 14 15  1  0
 15 19  1  0
 16 15  2  0
 17 18  2  0
 20 21  1  0
 22 21  1  1
 22 24  1  0
 23 17  1  0
 23 22  1  0
 24 25  1  0
 26 24  2  0
M  END
$$$$
