HES.pdb
     RDKit          3D

 26 26  0  0  1  0  0  0  0  0999 V2000
    9.4348  -15.7845   15.4407 N   0  0  0  0  0  0  0  0  0  0  0  0
    9.4835  -14.9306   16.6066 C   0  0  1  0  0  0  0  0  0  0  0  0
    8.1050  -14.5193   16.9931 C   0  0  0  0  0  0  0  0  0  0  0  0
    8.0259  -13.8248   18.2896 C   0  0  0  0  0  0  0  0  0  0  0  0
    8.2007  -12.4765   18.4852 C   0  0  0  0  0  0  0  0  0  0  0  0
    8.0503  -12.2299   19.8046 N   0  0  0  0  0  0  0  0  0  0  0  0
    7.7865  -13.3796   20.4454 C   0  0  0  0  0  0  0  0  0  0  0  0
    7.7766  -14.3374   19.5027 N   0  0  0  0  0  0  0  0  0  0  0  0
   10.3032  -15.5173   17.6641 C   0  0  0  0  0  0  0  0  0  0  0  0
   10.1701  -16.7193   18.0676 O   0  0  0  0  0  0  0  0  0  0  0  0
   11.3196  -14.7737   18.3213 N   0  0  0  0  0  0  0  0  0  0  0  0
   12.1940  -15.3188   19.3322 C   0  0  1  0  0  0  0  0  0  0  0  0
   13.5552  -14.6934   19.1997 C   0  0  0  0  0  0  0  0  0  0  0  0
   14.3810  -15.1627   18.0646 C   0  0  0  0  0  0  0  0  0  0  0  0
   15.7449  -14.6244   18.0056 C   0  0  0  0  0  0  0  0  0  0  0  0
   16.6579  -14.9322   18.8134 O   0  0  0  0  0  0  0  0  0  0  0  0
   11.7247  -14.9918   20.7048 C   0  0  0  0  0  0  0  0  0  0  0  0
   11.8118  -13.7982   21.0780 O   0  0  0  0  0  0  0  0  0  0  0  0
   16.1085  -13.7115   17.0138 O   0  0  0  0  0  0  0  0  0  0  0  0
    8.8449  -16.8447   22.6647 O   0  0  0  0  0  0  0  0  0  0  0  0
    9.3803  -15.6944   23.2381 C   0  0  0  0  0  0  0  0  0  0  0  0
   10.8711  -15.6780   22.9792 C   0  0  2  0  0  0  0  0  0  0  0  0
   11.1909  -15.9397   21.6059 N   0  0  0  0  0  0  0  0  0  0  0  0
   11.5345  -16.6577   23.8507 C   0  0  0  0  0  0  0  0  0  0  0  0
   11.5693  -16.5590   25.2334 O   0  0  0  0  0  0  0  0  0  0  0  0
   12.1045  -17.6434   23.3180 O   0  0  0  0  0  0  0  0  0  0  0  0
  2  1  1  6
  2  9  1  0
  3  4  1  0
  3  2  1  0
  4  8  1  0
  5  6  1  0
  5  4  2  0
  6  7  1  0
  7  8  2  0
  9 11  1  0
  9 10  2  0
 11 12  1  0
 12 17  1  0
 12 13  1  6
 13 14  1  0
 14 15  1  0
 15 19  1  0
 16 15  2  0
 17 18  2  0
 20 21  1  0
 22 21  1  6
 22 24  1  0
 23 17  1  0
 23 22  1  0
 24 25  1  0
 26 24  2  0
M  END
$$$$
