HES.pdb
     RDKit          3D

 26 26  0  0  1  0  0  0  0  0999 V2000
    8.6226  -16.9928   19.0393 N   0  0  0  0  0  0  0  0  0  0  0  0
    9.1955  -16.2655   20.1499 C   0  0  1  0  0  0  0  0  0  0  0  0
    8.2284  -15.2450   20.6421 C   0  0  0  0  0  0  0  0  0  0  0  0
    7.8280  -14.2567   19.6261 C   0  0  0  0  0  0  0  0  0  0  0  0
    8.2974  -12.9689   19.5362 C   0  0  0  0  0  0  0  0  0  0  0  0
    7.6944  -12.3847   18.4782 N   0  0  0  0  0  0  0  0  0  0  0  0
    6.8607  -13.2636   17.8995 C   0  0  0  0  0  0  0  0  0  0  0  0
    6.9586  -14.3966   18.6156 N   0  0  0  0  0  0  0  0  0  0  0  0
    9.7455  -17.1722   21.1549 C   0  0  0  0  0  0  0  0  0  0  0  0
    9.0834  -18.1332   21.6679 O   0  0  0  0  0  0  0  0  0  0  0  0
   11.0768  -17.0395   21.6324 N   0  0  0  0  0  0  0  0  0  0  0  0
   11.6832  -17.9305   22.5927 C   0  0  1  0  0  0  0  0  0  0  0  0
   13.1792  -17.8654   22.4533 C   0  0  0  0  0  0  0  0  0  0  0  0
   13.9598  -18.6777   23.4133 C   0  0  0  0  0  0  0  0  0  0  0  0
   15.4151  -18.6585   23.2262 C   0  0  0  0  0  0  0  0  0  0  0  0
   16.0270  -17.7850   22.5602 O   0  0  0  0  0  0  0  0  0  0  0  0
   11.3840  -17.5236   23.9912 C   0  0  0  0  0  0  0  0  0  0  0  0
   11.5056  -16.3098   24.2802 O   0  0  0  0  0  0  0  0  0  0  0  0
   16.2203  -19.6446   23.7991 O   0  0  0  0  0  0  0  0  0  0  0  0
    8.6492  -19.1443   26.4565 O   0  0  0  0  0  0  0  0  0  0  0  0
    9.2673  -17.9190   26.6910 C   0  0  0  0  0  0  0  0  0  0  0  0
   10.7406  -18.0559   26.3735 C   0  0  2  0  0  0  0  0  0  0  0  0
   10.9741  -18.4174   25.0054 N   0  0  0  0  0  0  0  0  0  0  0  0
   11.3494  -19.0470   27.2716 C   0  0  0  0  0  0  0  0  0  0  0  0
   11.4475  -18.8835   28.6451 O   0  0  0  0  0  0  0  0  0  0  0  0
   11.8090  -20.1049   26.7720 O   0  0  0  0  0  0  0  0  0  0  0  0
  2  1  1  6
  2  9  1  0
  3  4  1  0
  3  2  1  0
  4  8  1  0
  5  6  1  0
  5  4  2  0
  6  7  1  0
  7  8  2  0
  9 11  1  0
  9 10  2  0
 11 12  1  0
 12 17  1  0
 12 13  1  1
 13 14  1  0
 14 15  1  0
 15 19  1  0
 16 15  2  0
 17 18  2  0
 20 21  1  0
 22 21  1  6
 22 24  1  0
 23 17  1  0
 23 22  1  0
 24 25  1  0
 26 24  2  0
M  END
$$$$
