HES.pdb
     RDKit          3D

 26 26  0  0  1  0  0  0  0  0999 V2000
    7.7751  -17.0333   19.7438 N   0  0  0  0  0  0  0  0  0  0  0  0
    8.5636  -16.4761   20.8201 C   0  0  1  0  0  0  0  0  0  0  0  0
    7.9401  -15.2134   21.3057 C   0  0  0  0  0  0  0  0  0  0  0  0
    8.0133  -14.0986   20.3457 C   0  0  0  0  0  0  0  0  0  0  0  0
    8.6434  -14.1355   19.1257 C   0  0  0  0  0  0  0  0  0  0  0  0
    8.4881  -12.9253   18.5464 N   0  0  0  0  0  0  0  0  0  0  0  0
    7.7804  -12.1283   19.3626 C   0  0  0  0  0  0  0  0  0  0  0  0
    7.5023  -12.8641   20.4523 N   0  0  0  0  0  0  0  0  0  0  0  0
    8.8644  -17.4809   21.8371 C   0  0  0  0  0  0  0  0  0  0  0  0
    7.9687  -18.1713   22.4255 O   0  0  0  0  0  0  0  0  0  0  0  0
   10.1974  -17.7588   22.2419 N   0  0  0  0  0  0  0  0  0  0  0  0
   10.5480  -18.7092   23.2701 C   0  0  1  0  0  0  0  0  0  0  0  0
   12.0281  -18.9708   23.2194 C   0  0  0  0  0  0  0  0  0  0  0  0
   12.5475  -19.9691   24.1808 C   0  0  0  0  0  0  0  0  0  0  0  0
   13.9705  -20.3009   24.0461 C   0  0  0  0  0  0  0  0  0  0  0  0
   14.7867  -20.2986   25.0025 O   0  0  0  0  0  0  0  0  0  0  0  0
   10.2722  -18.1787   24.6316 C   0  0  0  0  0  0  0  0  0  0  0  0
   10.6607  -17.0152   24.8898 O   0  0  0  0  0  0  0  0  0  0  0  0
   14.5071  -20.6476   22.8047 O   0  0  0  0  0  0  0  0  0  0  0  0
    7.1295  -19.3259   26.7142 O   0  0  0  0  0  0  0  0  0  0  0  0
    7.7974  -18.1779   27.1316 C   0  0  0  0  0  0  0  0  0  0  0  0
    9.2837  -18.3922   26.9446 C   0  0  2  0  0  0  0  0  0  0  0  0
    9.6033  -18.9032   25.6431 N   0  0  0  0  0  0  0  0  0  0  0  0
    9.7863  -19.3010   27.9843 C   0  0  0  0  0  0  0  0  0  0  0  0
    9.6680  -19.0557   29.3440 O   0  0  0  0  0  0  0  0  0  0  0  0
   10.3568  -20.3625   27.6267 O   0  0  0  0  0  0  0  0  0  0  0  0
  2  1  1  6
  2  9  1  0
  3  4  1  0
  3  2  1  0
  4  8  1  0
  5  6  1  0
  5  4  2  0
  6  7  1  0
  7  8  2  0
  9 11  1  0
  9 10  2  0
 11 12  1  0
 12 17  1  0
 12 13  1  1
 13 14  1  0
 14 15  1  0
 15 19  1  0
 16 15  2  0
 17 18  2  0
 20 21  1  0
 22 21  1  6
 22 24  1  0
 23 17  1  0
 23 22  1  0
 24 25  1  0
 26 24  2  0
M  END
$$$$
