HES.pdb
     RDKit          3D

 26 26  0  0  1  0  0  0  0  0999 V2000
    7.5143  -17.2401   16.8635 N   0  0  0  0  0  0  0  0  0  0  0  0
    8.5779  -16.4907   17.4944 C   0  0  1  0  0  0  0  0  0  0  0  0
    8.3742  -15.0322   17.2699 C   0  0  0  0  0  0  0  0  0  0  0  0
    8.2736  -14.6505   15.8509 C   0  0  0  0  0  0  0  0  0  0  0  0
    8.4673  -15.4913   14.7821 C   0  0  0  0  0  0  0  0  0  0  0  0
    8.2867  -14.7703   13.6543 N   0  0  0  0  0  0  0  0  0  0  0  0
    7.9856  -13.5031   13.9791 C   0  0  0  0  0  0  0  0  0  0  0  0
    7.9832  -13.4536   15.3221 N   0  0  0  0  0  0  0  0  0  0  0  0
    8.7769  -16.9096   18.8798 C   0  0  0  0  0  0  0  0  0  0  0  0
    7.8582  -16.8681   19.7626 O   0  0  0  0  0  0  0  0  0  0  0  0
   10.0285  -17.3995   19.3399 N   0  0  0  0  0  0  0  0  0  0  0  0
   10.2598  -17.8975   20.6749 C   0  0  1  0  0  0  0  0  0  0  0  0
   11.4382  -18.8317   20.6580 C   0  0  0  0  0  0  0  0  0  0  0  0
   11.7402  -19.5239   21.9310 C   0  0  0  0  0  0  0  0  0  0  0  0
   12.8671  -20.4630   21.8920 C   0  0  0  0  0  0  0  0  0  0  0  0
   13.9761  -20.2089   21.3568 O   0  0  0  0  0  0  0  0  0  0  0  0
   10.6161  -16.8055   21.6191 C   0  0  0  0  0  0  0  0  0  0  0  0
   11.4160  -15.9286   21.2156 O   0  0  0  0  0  0  0  0  0  0  0  0
   12.7590  -21.7302   22.4681 O   0  0  0  0  0  0  0  0  0  0  0  0
    8.2581  -15.7338   24.7009 O   0  0  0  0  0  0  0  0  0  0  0  0
    9.2691  -14.8581   24.3144 C   0  0  0  0  0  0  0  0  0  0  0  0
   10.4650  -15.6716   23.8694 C   0  0  2  0  0  0  0  0  0  0  0  0
   10.1102  -16.6989   22.9337 N   0  0  0  0  0  0  0  0  0  0  0  0
   11.1265  -16.2597   25.0425 C   0  0  0  0  0  0  0  0  0  0  0  0
   11.7879  -15.5149   26.0072 O   0  0  0  0  0  0  0  0  0  0  0  0
   11.0941  -17.5082   25.1847 O   0  0  0  0  0  0  0  0  0  0  0  0
  2  1  1  1
  2  9  1  0
  3  4  1  0
  3  2  1  0
  4  8  1  0
  5  6  1  0
  5  4  2  0
  6  7  1  0
  7  8  2  0
  9 11  1  0
  9 10  2  0
 11 12  1  0
 12 17  1  0
 12 13  1  6
 13 14  1  0
 14 15  1  0
 15 19  1  0
 16 15  2  0
 17 18  2  0
 20 21  1  0
 22 21  1  1
 22 24  1  0
 23 17  1  0
 23 22  1  0
 24 25  1  0
 26 24  2  0
M  END
$$$$
