HES.pdb
     RDKit          3D

 26 26  0  0  1  0  0  0  0  0999 V2000
   15.5231  -28.4253   28.1346 N   0  0  0  0  0  0  0  0  0  0  0  0
   15.7854  -27.2406   28.9209 C   0  0  1  0  0  0  0  0  0  0  0  0
   16.6674  -26.3114   28.1609 C   0  0  0  0  0  0  0  0  0  0  0  0
   17.9631  -26.8945   27.7730 C   0  0  0  0  0  0  0  0  0  0  0  0
   18.9879  -27.2065   28.6328 C   0  0  0  0  0  0  0  0  0  0  0  0
   19.9993  -27.7179   27.8981 N   0  0  0  0  0  0  0  0  0  0  0  0
   19.6439  -27.7377   26.6037 C   0  0  0  0  0  0  0  0  0  0  0  0
   18.4000  -27.2316   26.5515 N   0  0  0  0  0  0  0  0  0  0  0  0
   14.5507  -26.6691   29.4532 C   0  0  0  0  0  0  0  0  0  0  0  0
   13.4352  -26.7161   28.8379 O   0  0  0  0  0  0  0  0  0  0  0  0
   14.5129  -26.0138   30.7131 N   0  0  0  0  0  0  0  0  0  0  0  0
   13.3215  -25.4361   31.2879 C   0  0  1  0  0  0  0  0  0  0  0  0
   13.4390  -25.4471   32.7872 C   0  0  0  0  0  0  0  0  0  0  0  0
   13.3238  -26.7699   33.4409 C   0  0  0  0  0  0  0  0  0  0  0  0
   13.4900  -26.7750   34.8989 C   0  0  0  0  0  0  0  0  0  0  0  0
   13.7502  -25.7510   35.5805 O   0  0  0  0  0  0  0  0  0  0  0  0
   13.1552  -24.0102   30.9004 C   0  0  0  0  0  0  0  0  0  0  0  0
   14.1636  -23.2689   30.9720 O   0  0  0  0  0  0  0  0  0  0  0  0
   13.3628  -27.9597   35.6265 O   0  0  0  0  0  0  0  0  0  0  0  0
    9.4745  -22.4603   29.6273 O   0  0  0  0  0  0  0  0  0  0  0  0
   10.6248  -21.9477   29.0335 C   0  0  0  0  0  0  0  0  0  0  0  0
   11.7742  -22.0954   30.0067 C   0  0  2  0  0  0  0  0  0  0  0  0
   11.9373  -23.4463   30.4598 N   0  0  0  0  0  0  0  0  0  0  0  0
   11.5706  -21.1969   31.1516 C   0  0  0  0  0  0  0  0  0  0  0  0
   11.6896  -19.8173   31.0781 O   0  0  0  0  0  0  0  0  0  0  0  0
   11.2714  -21.7020   32.2631 O   0  0  0  0  0  0  0  0  0  0  0  0
  2  1  1  6
  2  9  1  0
  3  4  1  0
  3  2  1  0
  4  8  1  0
  5  6  1  0
  5  4  2  0
  6  7  1  0
  7  8  2  0
  9 11  1  0
  9 10  2  0
 11 12  1  0
 12 17  1  0
 12 13  1  1
 13 14  1  0
 14 15  1  0
 15 19  1  0
 16 15  2  0
 17 18  2  0
 20 21  1  0
 22 21  1  6
 22 24  1  0
 23 17  1  0
 23 22  1  0
 24 25  1  0
 26 24  2  0
M  END
$$$$
