CLG.pdb
     RDKit          3D

 19 18  0  0  1  0  0  0  0  0999 V2000
   17.3063  -11.8100  -16.4170 N   0  0  0  0  0  0  0  0  0  0  0  0
   17.9138  -10.6224  -17.0741 C   0  0  1  0  0  0  0  0  0  0  0  0
   16.8010   -9.6987  -17.4362 C   0  0  0  0  0  0  0  0  0  0  0  0
   15.9446  -10.2503  -18.9058 S   0  0  0  0  0  0  0  0  0  0  0  0
   18.7720   -9.9995  -16.0359 C   0  0  0  0  0  0  0  0  0  0  0  0
   18.3526   -9.8586  -14.8309 O   0  0  0  0  0  0  0  0  0  0  0  0
   22.1048  -11.2868  -13.7364 C   0  0  0  0  0  0  0  0  0  0  0  0
   22.5810  -10.8274  -15.1122 C   0  0  2  0  0  0  0  0  0  0  0  0
   24.0085  -11.2433  -15.2771 C   0  0  0  0  0  0  0  0  0  0  0  0
   22.3159   -9.3670  -15.2252 C   0  0  0  0  0  0  0  0  0  0  0  0
   20.8700   -8.9670  -15.1885 C   0  0  2  0  0  0  0  0  0  0  0  0
   20.0903   -9.5128  -16.2369 N   0  0  0  0  0  0  0  0  0  0  0  0
   20.8450   -7.4872  -15.0685 C   0  0  0  0  0  0  0  0  0  0  0  0
   20.9281   -6.8423  -16.1469 O   0  0  0  0  0  0  0  0  0  0  0  0
   20.7386   -6.7619  -13.8756 N   0  0  0  0  0  0  0  0  0  0  0  0
   20.6024   -5.3104  -13.8347 C   0  0  0  0  0  0  0  0  0  0  0  0
   21.8764   -4.6291  -14.0612 C   0  0  0  0  0  0  0  0  0  0  0  0
   22.9375   -5.2627  -14.2562 O   0  0  0  0  0  0  0  0  0  0  0  0
   21.9258   -3.2490  -14.0627 O   0  0  0  0  0  0  0  0  0  0  0  0
  2  1  1  1
  2  3  1  0
  4  3  1  0
  5  6  2  0
  5  2  1  0
  8  7  1  1
  8 10  1  0
  9  8  1  0
 11 10  1  6
 11 12  1  0
 12  5  1  0
 13 15  1  0
 13 11  1  0
 14 13  2  0
 16 15  1  0
 17 16  1  0
 18 17  2  0
 19 17  1  0
M  END
$$$$
