CLG.pdb
     RDKit          3D

 19 18  0  0  1  0  0  0  0  0999 V2000
   21.9308  -18.7757  -16.7672 N   0  0  0  0  0  0  0  0  0  0  0  0
   21.7166  -17.5246  -17.5418 C   0  0  1  0  0  0  0  0  0  0  0  0
   20.2448  -17.3492  -17.7018 C   0  0  0  0  0  0  0  0  0  0  0  0
   19.6594  -18.0848  -19.2228 S   0  0  0  0  0  0  0  0  0  0  0  0
   22.2667  -16.4406  -16.6907 C   0  0  0  0  0  0  0  0  0  0  0  0
   21.8480  -16.2683  -15.4894 O   0  0  0  0  0  0  0  0  0  0  0  0
   26.1022  -15.9222  -14.7849 C   0  0  0  0  0  0  0  0  0  0  0  0
   26.0958  -15.4516  -16.2372 C   0  0  2  0  0  0  0  0  0  0  0  0
   27.5138  -15.2622  -16.6747 C   0  0  0  0  0  0  0  0  0  0  0  0
   25.2258  -14.2469  -16.3253 C   0  0  0  0  0  0  0  0  0  0  0  0
   23.7516  -14.5038  -16.2115 C   0  0  2  0  0  0  0  0  0  0  0  0
   23.2703  -15.5145  -17.0785 N   0  0  0  0  0  0  0  0  0  0  0  0
   23.0836  -13.1827  -16.3264 C   0  0  0  0  0  0  0  0  0  0  0  0
   23.3902  -12.3288  -15.4531 O   0  0  0  0  0  0  0  0  0  0  0  0
   22.1565  -12.8141  -17.3087 N   0  0  0  0  0  0  0  0  0  0  0  0
   21.5129  -11.5059  -17.3467 C   0  0  0  0  0  0  0  0  0  0  0  0
   22.1977  -10.5788  -18.2468 C   0  0  0  0  0  0  0  0  0  0  0  0
   21.8106   -9.3985  -18.3969 O   0  0  0  0  0  0  0  0  0  0  0  0
   23.3033  -11.0029  -18.9575 O   0  0  0  0  0  0  0  0  0  0  0  0
  2  1  1  1
  2  3  1  0
  4  3  1  0
  5  6  2  0
  5  2  1  0
  8  7  1  1
  8 10  1  0
  9  8  1  0
 11 10  1  6
 11 12  1  0
 12  5  1  0
 13 15  1  0
 13 11  1  0
 14 13  2  0
 16 15  1  0
 17 16  1  0
 18 17  2  0
 19 17  1  0
M  END
$$$$
