CLG.pdb
     RDKit          3D

 19 18  0  0  1  0  0  0  0  0999 V2000
   27.7445  -19.6391  -15.7608 N   0  0  0  0  0  0  0  0  0  0  0  0
   27.0791  -18.9078  -14.6502 C   0  0  1  0  0  0  0  0  0  0  0  0
   26.3579  -17.7499  -15.2516 C   0  0  0  0  0  0  0  0  0  0  0  0
   27.4453  -16.3492  -15.4815 S   0  0  0  0  0  0  0  0  0  0  0  0
   26.1050  -19.8704  -14.0786 C   0  0  0  0  0  0  0  0  0  0  0  0
   25.7857  -20.9402  -14.7121 O   0  0  0  0  0  0  0  0  0  0  0  0
   26.6995  -21.9403  -10.5642 C   0  0  0  0  0  0  0  0  0  0  0  0
   25.8744  -20.7162  -10.1751 C   0  0  2  0  0  0  0  0  0  0  0  0
   25.8546  -20.6196   -8.6824 C   0  0  0  0  0  0  0  0  0  0  0  0
   24.5442  -20.8314  -10.8332 C   0  0  0  0  0  0  0  0  0  0  0  0
   24.5498  -20.7105  -12.3290 C   0  0  2  0  0  0  0  0  0  0  0  0
   25.4456  -19.7346  -12.8288 N   0  0  0  0  0  0  0  0  0  0  0  0
   23.1324  -20.5589  -12.7448 C   0  0  0  0  0  0  0  0  0  0  0  0
   22.3087  -21.3416  -12.2016 O   0  0  0  0  0  0  0  0  0  0  0  0
   22.6441  -19.6335  -13.6751 N   0  0  0  0  0  0  0  0  0  0  0  0
   21.2369  -19.5446  -14.0478 C   0  0  0  0  0  0  0  0  0  0  0  0
   20.7987  -20.6989  -14.8315 C   0  0  0  0  0  0  0  0  0  0  0  0
   19.8491  -21.4249  -14.4617 O   0  0  0  0  0  0  0  0  0  0  0  0
   21.4406  -21.0091  -16.0143 O   0  0  0  0  0  0  0  0  0  0  0  0
  2  1  1  6
  2  3  1  0
  4  3  1  0
  5  6  2  0
  5  2  1  0
  8  7  1  1
  8 10  1  0
  9  8  1  0
 11 10  1  1
 11 12  1  0
 12  5  1  0
 13 15  1  0
 13 11  1  0
 14 13  2  0
 16 15  1  0
 17 16  1  0
 18 17  2  0
 19 17  1  0
M  END
$$$$
