CLG.pdb
     RDKit          3D

 19 18  0  0  1  0  0  0  0  0999 V2000
   19.2030  -11.4051  -18.1083 N   0  0  0  0  0  0  0  0  0  0  0  0
   18.3977  -11.2292  -16.8707 C   0  0  1  0  0  0  0  0  0  0  0  0
   18.1202  -12.5889  -16.3257 C   0  0  0  0  0  0  0  0  0  0  0  0
   17.0980  -13.5443  -17.4391 S   0  0  0  0  0  0  0  0  0  0  0  0
   19.2752  -10.4788  -15.9384 C   0  0  0  0  0  0  0  0  0  0  0  0
   18.8907  -10.2090  -14.7437 O   0  0  0  0  0  0  0  0  0  0  0  0
   24.7872  -11.0230  -14.9879 C   0  0  0  0  0  0  0  0  0  0  0  0
   23.2888  -10.8709  -14.7382 C   0  0  2  0  0  0  0  0  0  0  0  0
   22.6071  -12.1186  -15.2036 C   0  0  0  0  0  0  0  0  0  0  0  0
   22.8412   -9.6088  -15.3882 C   0  0  0  0  0  0  0  0  0  0  0  0
   21.3734   -9.3136  -15.2860 C   0  0  2  0  0  0  0  0  0  0  0  0
   20.5768   -9.9968  -16.2365 N   0  0  0  0  0  0  0  0  0  0  0  0
   21.2406   -7.8347  -15.2761 C   0  0  0  0  0  0  0  0  0  0  0  0
   21.8625   -7.2286  -14.3641 O   0  0  0  0  0  0  0  0  0  0  0  0
   20.4938   -7.0713  -16.1815 N   0  0  0  0  0  0  0  0  0  0  0  0
   20.4999   -5.6129  -16.1896 C   0  0  0  0  0  0  0  0  0  0  0  0
   19.3226   -5.0515  -15.5283 C   0  0  0  0  0  0  0  0  0  0  0  0
   18.4815   -5.7768  -14.9519 O   0  0  0  0  0  0  0  0  0  0  0  0
   19.1197   -3.6855  -15.5314 O   0  0  0  0  0  0  0  0  0  0  0  0
  2  1  1  6
  2  3  1  0
  4  3  1  0
  5  6  2  0
  5  2  1  0
  8  7  1  6
  8 10  1  0
  9  8  1  0
 11 10  1  6
 11 12  1  0
 12  5  1  0
 13 15  1  0
 13 11  1  0
 14 13  2  0
 16 15  1  0
 17 16  1  0
 18 17  2  0
 19 17  1  0
M  END
$$$$
