CLG.pdb
     RDKit          3D

 19 18  0  0  1  0  0  0  0  0999 V2000
   27.7912  -21.2097  -15.5893 N   0  0  0  0  0  0  0  0  0  0  0  0
   27.3837  -20.1876  -14.5891 C   0  0  1  0  0  0  0  0  0  0  0  0
   26.8584  -19.0140  -15.3437 C   0  0  0  0  0  0  0  0  0  0  0  0
   26.5595  -17.6213  -14.2628 S   0  0  0  0  0  0  0  0  0  0  0  0
   26.2905  -20.8197  -13.8096 C   0  0  0  0  0  0  0  0  0  0  0  0
   25.6047  -21.7874  -14.3006 O   0  0  0  0  0  0  0  0  0  0  0  0
   27.1678  -21.8228   -9.9131 C   0  0  0  0  0  0  0  0  0  0  0  0
   26.2453  -20.6150   -9.7692 C   0  0  2  0  0  0  0  0  0  0  0  0
   26.2608  -20.1813   -8.3376 C   0  0  0  0  0  0  0  0  0  0  0  0
   24.9125  -20.9879  -10.3174 C   0  0  0  0  0  0  0  0  0  0  0  0
   24.8356  -21.0991  -11.8119 C   0  0  2  0  0  0  0  0  0  0  0  0
   25.8934  -20.4534  -12.4969 N   0  0  0  0  0  0  0  0  0  0  0  0
   23.4649  -20.6765  -12.1960 C   0  0  0  0  0  0  0  0  0  0  0  0
   22.5263  -21.1329  -11.4912 O   0  0  0  0  0  0  0  0  0  0  0  0
   23.1352  -19.8271  -13.2590 N   0  0  0  0  0  0  0  0  0  0  0  0
   21.7612  -19.4892  -13.6128 C   0  0  0  0  0  0  0  0  0  0  0  0
   21.1937  -20.4257  -14.5821 C   0  0  0  0  0  0  0  0  0  0  0  0
   21.7590  -20.6709  -15.6710 O   0  0  0  0  0  0  0  0  0  0  0  0
   20.0018  -21.0646  -14.3022 O   0  0  0  0  0  0  0  0  0  0  0  0
  2  1  1  6
  2  3  1  0
  4  3  1  0
  5  6  2  0
  5  2  1  0
  8  7  1  1
  8 10  1  0
  9  8  1  0
 11 10  1  1
 11 12  1  0
 12  5  1  0
 13 15  1  0
 13 11  1  0
 14 13  2  0
 16 15  1  0
 17 16  1  0
 18 17  2  0
 19 17  1  0
M  END
$$$$
