CLG.pdb
     RDKit          3D

 19 18  0  0  1  0  0  0  0  0999 V2000
   23.3049  -17.6368  -16.2901 N   0  0  0  0  0  0  0  0  0  0  0  0
   22.6847  -18.5785  -15.3208 C   0  0  1  0  0  0  0  0  0  0  0  0
   21.5137  -19.2046  -15.9986 C   0  0  0  0  0  0  0  0  0  0  0  0
   20.0281  -18.2373  -15.7653 S   0  0  0  0  0  0  0  0  0  0  0  0
   23.7241  -19.6037  -15.0544 C   0  0  0  0  0  0  0  0  0  0  0  0
   24.6722  -19.8153  -15.8936 O   0  0  0  0  0  0  0  0  0  0  0  0
   26.7942  -20.1377  -11.6722 C   0  0  0  0  0  0  0  0  0  0  0  0
   25.3778  -20.6101  -11.3540 C   0  0  2  0  0  0  0  0  0  0  0  0
   25.3018  -20.9113   -9.8906 C   0  0  0  0  0  0  0  0  0  0  0  0
   25.0565  -21.7429  -12.2647 C   0  0  0  0  0  0  0  0  0  0  0  0
   24.8296  -21.3737  -13.7015 C   0  0  2  0  0  0  0  0  0  0  0  0
   23.7946  -20.4283  -13.9010 N   0  0  0  0  0  0  0  0  0  0  0  0
   24.6908  -22.6500  -14.4476 C   0  0  0  0  0  0  0  0  0  0  0  0
   23.5491  -23.1813  -14.4292 O   0  0  0  0  0  0  0  0  0  0  0  0
   25.7069  -23.3006  -15.1578 N   0  0  0  0  0  0  0  0  0  0  0  0
   25.4471  -24.3262  -16.1617 C   0  0  0  0  0  0  0  0  0  0  0  0
   25.4822  -25.6744  -15.5964 C   0  0  0  0  0  0  0  0  0  0  0  0
   25.6162  -25.8712  -14.3681 O   0  0  0  0  0  0  0  0  0  0  0  0
   25.3656  -26.7706  -16.4283 O   0  0  0  0  0  0  0  0  0  0  0  0
  2  1  1  6
  2  3  1  0
  4  3  1  0
  5  6  2  0
  5  2  1  0
  8  7  1  6
  8 10  1  0
  9  8  1  0
 11 10  1  1
 11 12  1  0
 12  5  1  0
 13 15  1  0
 13 11  1  0
 14 13  2  0
 16 15  1  0
 17 16  1  0
 18 17  2  0
 19 17  1  0
M  END
$$$$
