CLG.pdb
     RDKit          3D

 19 18  0  0  1  0  0  0  0  0999 V2000
   28.2525  -19.8224  -15.2409 N   0  0  0  0  0  0  0  0  0  0  0  0
   27.2571  -18.9437  -14.5716 C   0  0  1  0  0  0  0  0  0  0  0  0
   26.6062  -18.1230  -15.6325 C   0  0  0  0  0  0  0  0  0  0  0  0
   27.2037  -16.4379  -15.6153 S   0  0  0  0  0  0  0  0  0  0  0  0
   26.2663  -19.8681  -13.9665 C   0  0  0  0  0  0  0  0  0  0  0  0
   25.9849  -20.9900  -14.5235 O   0  0  0  0  0  0  0  0  0  0  0  0
   26.6999  -21.9741  -10.4636 C   0  0  0  0  0  0  0  0  0  0  0  0
   26.0146  -20.6640  -10.0832 C   0  0  2  0  0  0  0  0  0  0  0  0
   26.0348  -20.5401   -8.5925 C   0  0  0  0  0  0  0  0  0  0  0  0
   24.6668  -20.6510  -10.7148 C   0  0  0  0  0  0  0  0  0  0  0  0
   24.6554  -20.5893  -12.2142 C   0  0  2  0  0  0  0  0  0  0  0  0
   25.5502  -19.6387  -12.7624 N   0  0  0  0  0  0  0  0  0  0  0  0
   23.2340  -20.4465  -12.6193 C   0  0  0  0  0  0  0  0  0  0  0  0
   22.6639  -19.3780  -12.2738 O   0  0  0  0  0  0  0  0  0  0  0  0
   22.4877  -21.3857  -13.3413 N   0  0  0  0  0  0  0  0  0  0  0  0
   21.0621  -21.2351  -13.6095 C   0  0  0  0  0  0  0  0  0  0  0  0
   20.7759  -21.1379  -15.0403 C   0  0  0  0  0  0  0  0  0  0  0  0
   19.6052  -21.0598  -15.4748 O   0  0  0  0  0  0  0  0  0  0  0  0
   21.8157  -21.1308  -15.9492 O   0  0  0  0  0  0  0  0  0  0  0  0
  2  1  1  6
  2  3  1  0
  4  3  1  0
  5  6  2  0
  5  2  1  0
  8  7  1  1
  8 10  1  0
  9  8  1  0
 11 10  1  1
 11 12  1  0
 12  5  1  0
 13 15  1  0
 13 11  1  0
 14 13  2  0
 16 15  1  0
 17 16  1  0
 18 17  2  0
 19 17  1  0
M  END
$$$$
