HGH.pdb
     RDKit          3D

 25 26  0  0  1  0  0  0  0  0999 V2000
   39.4168   -8.5609  -10.4986 N   0  0  0  0  0  0  0  0  0  0  0  0
   39.3143   -7.5595  -11.5519 C   0  0  1  0  0  0  0  0  0  0  0  0
   38.1304   -7.9211  -12.4582 C   0  0  0  0  0  0  0  0  0  0  0  0
   38.3250   -9.2155  -13.1203 C   0  0  0  0  0  0  0  0  0  0  0  0
   38.6026   -9.3459  -14.4753 C   0  0  0  0  0  0  0  0  0  0  0  0
   38.7163  -10.6487  -14.7327 N   0  0  0  0  0  0  0  0  0  0  0  0
   38.5242  -11.3585  -13.6042 C   0  0  0  0  0  0  0  0  0  0  0  0
   38.2858  -10.4759  -12.6244 N   0  0  0  0  0  0  0  0  0  0  0  0
   39.1292   -6.2030  -10.9756 C   0  0  0  0  0  0  0  0  0  0  0  0
   39.1036   -5.2146  -11.7300 O   0  0  0  0  0  0  0  0  0  0  0  0
   38.9775   -5.9703   -9.5877 N   0  0  0  0  0  0  0  0  0  0  0  0
   38.8025   -4.6439   -9.0303 C   0  0  0  0  0  0  0  0  0  0  0  0
   39.6487   -4.5381   -7.7885 C   0  0  0  0  0  0  0  0  0  0  0  0
   40.1357   -5.5698   -7.2603 O   0  0  0  0  0  0  0  0  0  0  0  0
   39.9264   -3.2988   -7.1756 N   0  0  0  0  0  0  0  0  0  0  0  0
   40.7681   -3.2103   -5.9576 C   0  0  1  0  0  0  0  0  0  0  0  0
   42.0789   -2.6070   -6.2970 C   0  0  0  0  0  0  0  0  0  0  0  0
   42.9058   -3.5121   -7.1133 C   0  0  0  0  0  0  0  0  0  0  0  0
   43.8416   -4.4272   -6.5822 C   0  0  0  0  0  0  0  0  0  0  0  0
   44.4316   -5.1034   -7.5725 N   0  0  0  0  0  0  0  0  0  0  0  0
   43.9064   -4.6532   -8.7151 C   0  0  0  0  0  0  0  0  0  0  0  0
   43.0058   -3.7131   -8.4309 N   0  0  0  0  0  0  0  0  0  0  0  0
   40.0240   -2.3921   -4.9668 C   0  0  0  0  0  0  0  0  0  0  0  0
   38.9534   -1.8216   -5.3723 O   0  0  0  0  0  0  0  0  0  0  0  0
   40.4598   -2.2527   -3.6755 O   0  0  0  0  0  0  0  0  0  0  0  0
  2  1  1  1
  3  2  1  0
  4  3  1  0
  5  4  2  0
  6  7  1  0
  6  5  1  0
  7  8  2  0
  8  4  1  0
  9  2  1  0
 10  9  2  0
 11  9  1  0
 12 13  1  0
 12 11  1  0
 13 15  1  0
 14 13  2  0
 15 16  1  0
 16 17  1  6
 16 23  1  0
 18 22  1  0
 18 17  1  0
 19 18  2  0
 20 19  1  0
 20 21  1  0
 21 22  2  0
 23 24  2  0
 23 25  1  0
M  END
$$$$
