HGH.pdb
     RDKit          3D

 25 26  0  0  1  0  0  0  0  0999 V2000
   18.9523  -14.4971  -16.7997 N   0  0  0  0  0  0  0  0  0  0  0  0
   18.2741  -14.1371  -18.0380 C   0  0  1  0  0  0  0  0  0  0  0  0
   16.7831  -14.4691  -17.8945 C   0  0  0  0  0  0  0  0  0  0  0  0
   16.5659  -15.8899  -17.6011 C   0  0  0  0  0  0  0  0  0  0  0  0
   16.8173  -16.9053  -18.5153 C   0  0  0  0  0  0  0  0  0  0  0  0
   16.5117  -18.0583  -17.9204 N   0  0  0  0  0  0  0  0  0  0  0  0
   16.0761  -17.8273  -16.6670 C   0  0  0  0  0  0  0  0  0  0  0  0
   16.1123  -16.5009  -16.4800 N   0  0  0  0  0  0  0  0  0  0  0  0
   18.4560  -12.6941  -18.3403 C   0  0  0  0  0  0  0  0  0  0  0  0
   17.9148  -12.2059  -19.3480 O   0  0  0  0  0  0  0  0  0  0  0  0
   19.2267  -11.8285  -17.5278 N   0  0  0  0  0  0  0  0  0  0  0  0
   19.3695  -10.4134  -17.8063 C   0  0  0  0  0  0  0  0  0  0  0  0
   20.1980   -9.7975  -16.7092 C   0  0  0  0  0  0  0  0  0  0  0  0
   20.4450  -10.4433  -15.6592 O   0  0  0  0  0  0  0  0  0  0  0  0
   20.7230   -8.4926  -16.8107 N   0  0  0  0  0  0  0  0  0  0  0  0
   21.6279   -7.9408  -15.7733 C   0  0  1  0  0  0  0  0  0  0  0  0
   22.6264   -7.0452  -16.4042 C   0  0  0  0  0  0  0  0  0  0  0  0
   23.5122   -7.7738  -17.3283 C   0  0  0  0  0  0  0  0  0  0  0  0
   24.0686   -9.0437  -17.0583 C   0  0  0  0  0  0  0  0  0  0  0  0
   24.8256   -9.4386  -18.0864 N   0  0  0  0  0  0  0  0  0  0  0  0
   24.7722   -8.4673  -19.0018 C   0  0  0  0  0  0  0  0  0  0  0  0
   23.9930   -7.4888  -18.5425 N   0  0  0  0  0  0  0  0  0  0  0  0
   20.7817   -7.2180  -14.7902 C   0  0  0  0  0  0  0  0  0  0  0  0
   19.5466   -7.0680  -15.0872 O   0  0  0  0  0  0  0  0  0  0  0  0
   21.2956   -6.7331  -13.6166 O   0  0  0  0  0  0  0  0  0  0  0  0
  2  1  1  1
  3  2  1  0
  4  3  1  0
  5  4  2  0
  6  7  1  0
  6  5  1  0
  7  8  2  0
  8  4  1  0
  9  2  1  0
 10  9  2  0
 11  9  1  0
 12 13  1  0
 12 11  1  0
 13 15  1  0
 14 13  2  0
 15 16  1  0
 16 17  1  6
 16 23  1  0
 18 22  1  0
 18 17  1  0
 19 18  2  0
 20 19  1  0
 20 21  1  0
 21 22  2  0
 23 24  2  0
 23 25  1  0
M  END
$$$$
