HGH.pdb
     RDKit          3D

 25 26  0  0  1  0  0  0  0  0999 V2000
   14.5011  -20.6546    3.3602 N   0  0  0  0  0  0  0  0  0  0  0  0
   15.6783  -21.4780    3.6027 C   0  0  1  0  0  0  0  0  0  0  0  0
   16.5546  -21.4631    2.3435 C   0  0  0  0  0  0  0  0  0  0  0  0
   15.8266  -21.9482    1.1660 C   0  0  0  0  0  0  0  0  0  0  0  0
   15.5439  -23.2899    0.9424 C   0  0  0  0  0  0  0  0  0  0  0  0
   14.8778  -23.3676   -0.2096 N   0  0  0  0  0  0  0  0  0  0  0  0
   14.7212  -22.1367   -0.7337 C   0  0  0  0  0  0  0  0  0  0  0  0
   15.3033  -21.2759    0.1123 N   0  0  0  0  0  0  0  0  0  0  0  0
   16.4441  -20.9743    4.7718 C   0  0  0  0  0  0  0  0  0  0  0  0
   16.6353  -19.7520    4.8988 O   0  0  0  0  0  0  0  0  0  0  0  0
   16.9779  -21.8267    5.7677 N   0  0  0  0  0  0  0  0  0  0  0  0
   17.7280  -21.3300    6.9040 C   0  0  0  0  0  0  0  0  0  0  0  0
   18.1255  -22.5058    7.7578 C   0  0  0  0  0  0  0  0  0  0  0  0
   18.8236  -22.3361    8.7895 O   0  0  0  0  0  0  0  0  0  0  0  0
   17.7384  -23.8246    7.4422 N   0  0  0  0  0  0  0  0  0  0  0  0
   18.1862  -24.9781    8.2600 C   0  0  1  0  0  0  0  0  0  0  0  0
   17.0260  -25.8407    8.5873 C   0  0  0  0  0  0  0  0  0  0  0  0
   16.1710  -25.2412    9.6261 C   0  0  0  0  0  0  0  0  0  0  0  0
   16.5040  -24.0770   10.3533 C   0  0  0  0  0  0  0  0  0  0  0  0
   15.5294  -23.7857   11.2202 N   0  0  0  0  0  0  0  0  0  0  0  0
   14.5876  -24.7211   11.0722 C   0  0  0  0  0  0  0  0  0  0  0  0
   14.9779  -25.5758   10.1273 N   0  0  0  0  0  0  0  0  0  0  0  0
   19.2102  -25.7071    7.4694 C   0  0  0  0  0  0  0  0  0  0  0  0
   19.5678  -25.1825    6.3591 O   0  0  0  0  0  0  0  0  0  0  0  0
   19.7511  -26.8875    7.9061 O   0  0  0  0  0  0  0  0  0  0  0  0
  2  1  1  6
  3  2  1  0
  4  3  1  0
  5  4  2  0
  6  7  1  0
  6  5  1  0
  7  8  2  0
  8  4  1  0
  9  2  1  0
 10  9  2  0
 11  9  1  0
 12 13  1  0
 12 11  1  0
 13 15  1  0
 14 13  2  0
 15 16  1  0
 16 17  1  6
 16 23  1  0
 18 22  1  0
 18 17  1  0
 19 18  2  0
 20 19  1  0
 20 21  1  0
 21 22  2  0
 23 24  2  0
 23 25  1  0
M  END
$$$$
