HGH.pdb
     RDKit          3D

 25 26  0  0  1  0  0  0  0  0999 V2000
   28.1199  -34.0635  -15.2388 N   0  0  0  0  0  0  0  0  0  0  0  0
   26.8208  -33.4908  -15.5661 C   0  0  1  0  0  0  0  0  0  0  0  0
   26.1773  -34.3364  -16.6727 C   0  0  0  0  0  0  0  0  0  0  0  0
   26.9020  -34.2168  -17.9425 C   0  0  0  0  0  0  0  0  0  0  0  0
   27.3682  -35.3104  -18.6614 C   0  0  0  0  0  0  0  0  0  0  0  0
   27.9730  -34.8389  -19.7516 N   0  0  0  0  0  0  0  0  0  0  0  0
   27.9153  -33.4933  -19.7634 C   0  0  0  0  0  0  0  0  0  0  0  0
   27.2598  -33.1215  -18.6554 N   0  0  0  0  0  0  0  0  0  0  0  0
   25.9432  -33.4521  -14.3682 C   0  0  0  0  0  0  0  0  0  0  0  0
   24.7985  -32.9751  -14.4620 O   0  0  0  0  0  0  0  0  0  0  0  0
   26.3473  -33.9381  -13.1017 N   0  0  0  0  0  0  0  0  0  0  0  0
   25.4702  -33.9421  -11.9479 C   0  0  0  0  0  0  0  0  0  0  0  0
   26.2307  -33.3816  -10.7746 C   0  0  0  0  0  0  0  0  0  0  0  0
   27.4727  -33.2012  -10.8487 O   0  0  0  0  0  0  0  0  0  0  0  0
   25.5936  -33.0409   -9.5636 N   0  0  0  0  0  0  0  0  0  0  0  0
   26.3688  -32.5866   -8.3836 C   0  0  1  0  0  0  0  0  0  0  0  0
   25.4981  -31.7865   -7.4898 C   0  0  0  0  0  0  0  0  0  0  0  0
   24.3615  -32.5732   -6.9811 C   0  0  0  0  0  0  0  0  0  0  0  0
   24.1476  -33.9385   -7.2732 C   0  0  0  0  0  0  0  0  0  0  0  0
   23.0361  -34.3664   -6.6671 N   0  0  0  0  0  0  0  0  0  0  0  0
   22.5336  -33.3243   -5.9995 C   0  0  0  0  0  0  0  0  0  0  0  0
   23.3255  -32.2703   -6.1927 N   0  0  0  0  0  0  0  0  0  0  0  0
   26.8894  -33.8004   -7.7050 C   0  0  0  0  0  0  0  0  0  0  0  0
   26.4677  -34.9299   -8.1321 O   0  0  0  0  0  0  0  0  0  0  0  0
   27.7819  -33.7192   -6.6689 O   0  0  0  0  0  0  0  0  0  0  0  0
  2  1  1  1
  3  2  1  0
  4  3  1  0
  5  4  2  0
  6  7  1  0
  6  5  1  0
  7  8  2  0
  8  4  1  0
  9  2  1  0
 10  9  2  0
 11  9  1  0
 12 13  1  0
 12 11  1  0
 13 15  1  0
 14 13  2  0
 15 16  1  0
 16 17  1  1
 16 23  1  0
 18 22  1  0
 18 17  1  0
 19 18  2  0
 20 19  1  0
 20 21  1  0
 21 22  2  0
 23 24  2  0
 23 25  1  0
M  END
$$$$
