HGH.pdb
     RDKit          3D

 25 26  0  0  1  0  0  0  0  0999 V2000
   25.3964  -18.8618  -17.7394 N   0  0  0  0  0  0  0  0  0  0  0  0
   25.5905  -18.2914  -16.4129 C   0  0  1  0  0  0  0  0  0  0  0  0
   26.2018  -16.8925  -16.5656 C   0  0  0  0  0  0  0  0  0  0  0  0
   27.5026  -16.9360  -17.2421 C   0  0  0  0  0  0  0  0  0  0  0  0
   28.3492  -18.0367  -17.1988 C   0  0  0  0  0  0  0  0  0  0  0  0
   29.4315  -17.7323  -17.9149 N   0  0  0  0  0  0  0  0  0  0  0  0
   29.3163  -16.4869  -18.4147 C   0  0  0  0  0  0  0  0  0  0  0  0
   28.1359  -16.0077  -17.9993 N   0  0  0  0  0  0  0  0  0  0  0  0
   24.3027  -18.2155  -15.6763 C   0  0  0  0  0  0  0  0  0  0  0  0
   24.2772  -17.7209  -14.5355 O   0  0  0  0  0  0  0  0  0  0  0  0
   23.0800  -18.6848  -16.2131 N   0  0  0  0  0  0  0  0  0  0  0  0
   21.8271  -18.6125  -15.4881 C   0  0  0  0  0  0  0  0  0  0  0  0
   21.6418  -19.9042  -14.7355 C   0  0  0  0  0  0  0  0  0  0  0  0
   22.0790  -20.9843  -15.2076 O   0  0  0  0  0  0  0  0  0  0  0  0
   20.9813  -19.9569  -13.4906 N   0  0  0  0  0  0  0  0  0  0  0  0
   20.7960  -21.2385  -12.7677 C   0  0  1  0  0  0  0  0  0  0  0  0
   21.2556  -21.0941  -11.3658 C   0  0  0  0  0  0  0  0  0  0  0  0
   22.7251  -21.0999  -11.2658 C   0  0  0  0  0  0  0  0  0  0  0  0
   23.5903  -21.4829  -12.3145 C   0  0  0  0  0  0  0  0  0  0  0  0
   24.8623  -21.3815  -11.9172 N   0  0  0  0  0  0  0  0  0  0  0  0
   24.8397  -20.9480  -10.6541 C   0  0  0  0  0  0  0  0  0  0  0  0
   23.5712  -20.7852  -10.2800 N   0  0  0  0  0  0  0  0  0  0  0  0
   19.3532  -21.5817  -12.8427 C   0  0  0  0  0  0  0  0  0  0  0  0
   18.5537  -20.6515  -13.2056 O   0  0  0  0  0  0  0  0  0  0  0  0
   18.8947  -22.8364  -12.5394 O   0  0  0  0  0  0  0  0  0  0  0  0
  2  1  1  6
  3  2  1  0
  4  3  1  0
  5  4  2  0
  6  7  1  0
  6  5  1  0
  7  8  2  0
  8  4  1  0
  9  2  1  0
 10  9  2  0
 11  9  1  0
 12 13  1  0
 12 11  1  0
 13 15  1  0
 14 13  2  0
 15 16  1  0
 16 17  1  1
 16 23  1  0
 18 22  1  0
 18 17  1  0
 19 18  2  0
 20 19  1  0
 20 21  1  0
 21 22  2  0
 23 24  2  0
 23 25  1  0
M  END
$$$$
