HGH.pdb
     RDKit          3D

 25 26  0  0  1  0  0  0  0  0999 V2000
   22.2728   -2.6299  -14.8366 N   0  0  0  0  0  0  0  0  0  0  0  0
   22.2236   -3.8135  -15.6850 C   0  0  1  0  0  0  0  0  0  0  0  0
   23.5259   -3.8923  -16.4922 C   0  0  0  0  0  0  0  0  0  0  0  0
   23.6222   -2.8122  -17.4800 C   0  0  0  0  0  0  0  0  0  0  0  0
   22.5968   -1.9071  -17.7239 C   0  0  0  0  0  0  0  0  0  0  0  0
   23.0222   -1.0729  -18.6725 N   0  0  0  0  0  0  0  0  0  0  0  0
   24.2733   -1.4027  -19.0470 C   0  0  0  0  0  0  0  0  0  0  0  0
   24.6322   -2.4656  -18.3142 N   0  0  0  0  0  0  0  0  0  0  0  0
   22.0456   -5.0419  -14.8689 C   0  0  0  0  0  0  0  0  0  0  0  0
   22.5523   -5.1032  -13.7348 O   0  0  0  0  0  0  0  0  0  0  0  0
   21.3166   -6.1677  -15.3212 N   0  0  0  0  0  0  0  0  0  0  0  0
   21.1161   -7.3498  -14.5069 C   0  0  0  0  0  0  0  0  0  0  0  0
   20.2873   -8.3307  -15.2944 C   0  0  0  0  0  0  0  0  0  0  0  0
   19.7572   -7.9875  -16.3815 O   0  0  0  0  0  0  0  0  0  0  0  0
   20.0738   -9.6532  -14.8540 N   0  0  0  0  0  0  0  0  0  0  0  0
   19.2752  -10.6144  -15.6527 C   0  0  1  0  0  0  0  0  0  0  0  0
   19.4433  -11.9818  -15.1057 C   0  0  0  0  0  0  0  0  0  0  0  0
   18.6470  -12.9730  -15.8492 C   0  0  0  0  0  0  0  0  0  0  0  0
   18.5858  -13.0457  -17.2585 C   0  0  0  0  0  0  0  0  0  0  0  0
   17.7821  -14.0469  -17.6296 N   0  0  0  0  0  0  0  0  0  0  0  0
   17.3288  -14.6150  -16.5090 C   0  0  0  0  0  0  0  0  0  0  0  0
   17.8469  -13.9718  -15.4633 N   0  0  0  0  0  0  0  0  0  0  0  0
   17.8606  -10.1668  -15.5944 C   0  0  0  0  0  0  0  0  0  0  0  0
   17.4335   -9.7386  -14.4673 O   0  0  0  0  0  0  0  0  0  0  0  0
   17.0465  -10.2076  -16.6954 O   0  0  0  0  0  0  0  0  0  0  0  0
  2  1  1  1
  3  2  1  0
  4  3  1  0
  5  4  2  0
  6  7  1  0
  6  5  1  0
  7  8  2  0
  8  4  1  0
  9  2  1  0
 10  9  2  0
 11  9  1  0
 12 13  1  0
 12 11  1  0
 13 15  1  0
 14 13  2  0
 15 16  1  0
 16 17  1  1
 16 23  1  0
 18 22  1  0
 18 17  1  0
 19 18  2  0
 20 19  1  0
 20 21  1  0
 21 22  2  0
 23 24  2  0
 23 25  1  0
M  END
$$$$
