HGH.pdb
     RDKit          3D

 25 26  0  0  1  0  0  0  0  0999 V2000
   19.9626  -15.2588  -21.7822 N   0  0  0  0  0  0  0  0  0  0  0  0
   18.6276  -14.9980  -21.2601 C   0  0  1  0  0  0  0  0  0  0  0  0
   18.5921  -15.4034  -19.7809 C   0  0  0  0  0  0  0  0  0  0  0  0
   18.9901  -16.8021  -19.5884 C   0  0  0  0  0  0  0  0  0  0  0  0
   18.2844  -17.8761  -20.1161 C   0  0  0  0  0  0  0  0  0  0  0  0
   18.9216  -18.9876  -19.7485 N   0  0  0  0  0  0  0  0  0  0  0  0
   20.0031  -18.6741  -19.0095 C   0  0  0  0  0  0  0  0  0  0  0  0
   20.0377  -17.3378  -18.9164 N   0  0  0  0  0  0  0  0  0  0  0  0
   18.2714  -13.5638  -21.4121 C   0  0  0  0  0  0  0  0  0  0  0  0
   17.1711  -13.1582  -20.9979 O   0  0  0  0  0  0  0  0  0  0  0  0
   19.1332  -12.6162  -22.0144 N   0  0  0  0  0  0  0  0  0  0  0  0
   18.7979  -11.2103  -22.1230 C   0  0  0  0  0  0  0  0  0  0  0  0
   19.9761  -10.4889  -22.7235 C   0  0  0  0  0  0  0  0  0  0  0  0
   21.0096  -11.1234  -23.0547 O   0  0  0  0  0  0  0  0  0  0  0  0
   19.9707   -9.0948  -22.9364 N   0  0  0  0  0  0  0  0  0  0  0  0
   21.1296   -8.4024  -23.5506 C   0  0  1  0  0  0  0  0  0  0  0  0
   20.7328   -7.0373  -23.9703 C   0  0  0  0  0  0  0  0  0  0  0  0
   21.8441   -6.3147  -24.6125 C   0  0  0  0  0  0  0  0  0  0  0  0
   23.1690   -6.3002  -24.1230 C   0  0  0  0  0  0  0  0  0  0  0  0
   23.9429   -5.5595  -24.9220 N   0  0  0  0  0  0  0  0  0  0  0  0
   23.1603   -5.1014  -25.9026 C   0  0  0  0  0  0  0  0  0  0  0  0
   21.9222   -5.5543  -25.7090 N   0  0  0  0  0  0  0  0  0  0  0  0
   22.2139   -8.3745  -22.5364 C   0  0  0  0  0  0  0  0  0  0  0  0
   23.3885   -8.0836  -22.9507 O   0  0  0  0  0  0  0  0  0  0  0  0
   21.9717   -8.6461  -21.2157 O   0  0  0  0  0  0  0  0  0  0  0  0
  2  1  1  1
  3  2  1  0
  4  3  1  0
  5  4  2  0
  6  7  1  0
  6  5  1  0
  7  8  2  0
  8  4  1  0
  9  2  1  0
 10  9  2  0
 11  9  1  0
 12 13  1  0
 12 11  1  0
 13 15  1  0
 14 13  2  0
 15 16  1  0
 16 17  1  1
 16 23  1  0
 18 22  1  0
 18 17  1  0
 19 18  2  0
 20 19  1  0
 20 21  1  0
 21 22  2  0
 23 24  2  0
 23 25  1  0
M  END
$$$$
