HGH.pdb
     RDKit          3D

 25 26  0  0  1  0  0  0  0  0999 V2000
   27.4268  -18.8617  -17.6700 N   0  0  0  0  0  0  0  0  0  0  0  0
   27.2116  -17.5898  -16.9928 C   0  0  1  0  0  0  0  0  0  0  0  0
   27.5858  -16.4536  -17.9535 C   0  0  0  0  0  0  0  0  0  0  0  0
   28.9795  -16.5532  -18.4002 C   0  0  0  0  0  0  0  0  0  0  0  0
   29.3433  -16.7795  -19.7217 C   0  0  0  0  0  0  0  0  0  0  0  0
   30.6751  -16.8112  -19.7660 N   0  0  0  0  0  0  0  0  0  0  0  0
   31.1805  -16.6155  -18.5329 C   0  0  0  0  0  0  0  0  0  0  0  0
   30.1387  -16.4588  -17.7049 N   0  0  0  0  0  0  0  0  0  0  0  0
   25.7975  -17.4549  -16.5581 C   0  0  0  0  0  0  0  0  0  0  0  0
   25.4363  -16.4279  -15.9570 O   0  0  0  0  0  0  0  0  0  0  0  0
   24.8207  -18.4513  -16.7957 N   0  0  0  0  0  0  0  0  0  0  0  0
   23.4338  -18.2978  -16.4040 C   0  0  0  0  0  0  0  0  0  0  0  0
   23.0457  -19.4870  -15.5647 C   0  0  0  0  0  0  0  0  0  0  0  0
   23.2688  -20.6547  -15.9736 O   0  0  0  0  0  0  0  0  0  0  0  0
   22.4262  -19.3444  -14.3059 N   0  0  0  0  0  0  0  0  0  0  0  0
   21.9680  -20.5237  -13.5320 C   0  0  1  0  0  0  0  0  0  0  0  0
   22.3318  -20.3585  -12.1045 C   0  0  0  0  0  0  0  0  0  0  0  0
   23.7236  -20.7626  -11.8417 C   0  0  0  0  0  0  0  0  0  0  0  0
   24.6065  -21.2552  -12.8280 C   0  0  0  0  0  0  0  0  0  0  0  0
   25.7934  -21.5336  -12.2805 N   0  0  0  0  0  0  0  0  0  0  0  0
   25.6996  -21.2366  -10.9816 C   0  0  0  0  0  0  0  0  0  0  0  0
   24.4718  -20.7819  -10.7342 N   0  0  0  0  0  0  0  0  0  0  0  0
   20.4985  -20.6287  -13.7183 C   0  0  0  0  0  0  0  0  0  0  0  0
   19.8863  -19.5754  -14.1078 O   0  0  0  0  0  0  0  0  0  0  0  0
   19.8250  -21.7988  -13.4859 O   0  0  0  0  0  0  0  0  0  0  0  0
  2  1  1  6
  3  2  1  0
  4  3  1  0
  5  4  2  0
  6  7  1  0
  6  5  1  0
  7  8  2  0
  8  4  1  0
  9  2  1  0
 10  9  2  0
 11  9  1  0
 12 13  1  0
 12 11  1  0
 13 15  1  0
 14 13  2  0
 15 16  1  0
 16 17  1  1
 16 23  1  0
 18 22  1  0
 18 17  1  0
 19 18  2  0
 20 19  1  0
 20 21  1  0
 21 22  2  0
 23 24  2  0
 23 25  1  0
M  END
$$$$
