CSH.pdb
     RDKit          3D

 23 23  0  0  1  0  0  0  0  0999 V2000
    7.3418  -15.2567   18.9262 N   0  0  0  0  0  0  0  0  0  0  0  0
    8.0794  -14.5983   19.9605 C   0  0  1  0  0  0  0  0  0  0  0  0
    7.6675  -13.1486   20.1325 C   0  0  0  0  0  0  0  0  0  0  0  0
    8.5855  -12.3270   21.4332 S   0  0  0  0  0  0  0  0  0  0  0  0
    7.8921  -15.2856   21.2848 C   0  0  0  0  0  0  0  0  0  0  0  0
    6.7448  -15.5198   21.7412 O   0  0  0  0  0  0  0  0  0  0  0  0
   10.9453  -17.6146   22.8447 O   0  0  0  0  0  0  0  0  0  0  0  0
    9.6126  -17.7731   23.1324 C   0  0  0  0  0  0  0  0  0  0  0  0
    8.9035  -16.4241   23.2899 C   0  0  2  0  0  0  0  0  0  0  0  0
    9.0106  -15.6928   22.0637 N   0  0  0  0  0  0  0  0  0  0  0  0
    9.4700  -15.6799   24.4437 C   0  0  0  0  0  0  0  0  0  0  0  0
   10.4482  -14.9224   24.2521 O   0  0  0  0  0  0  0  0  0  0  0  0
    8.9461  -15.7984   25.7355 N   0  0  0  0  0  0  0  0  0  0  0  0
    9.4795  -15.0971   26.9107 C   0  0  1  0  0  0  0  0  0  0  0  0
    8.3882  -14.5554   27.7528 C   0  0  0  0  0  0  0  0  0  0  0  0
    7.5853  -13.5557   27.0489 C   0  0  0  0  0  0  0  0  0  0  0  0
    8.0366  -12.2748   26.7194 C   0  0  0  0  0  0  0  0  0  0  0  0
    7.0838  -11.5902   26.0815 N   0  0  0  0  0  0  0  0  0  0  0  0
    6.0324  -12.4159   25.9998 C   0  0  0  0  0  0  0  0  0  0  0  0
    6.3399  -13.5955   26.5829 N   0  0  0  0  0  0  0  0  0  0  0  0
   10.3365  -16.1011   27.5808 C   0  0  0  0  0  0  0  0  0  0  0  0
   11.1114  -15.8162   28.6798 O   0  0  0  0  0  0  0  0  0  0  0  0
   10.4135  -17.3153   27.1751 O   0  0  0  0  0  0  0  0  0  0  0  0
  2  1  1  6
  3  2  1  0
  4  3  1  0
  5  2  1  0
  5 10  1  0
  6  5  2  0
  7  8  1  0
  9 10  1  0
  9 11  1  0
  9  8  1  6
 11 13  1  0
 12 11  2  0
 13 14  1  0
 14 15  1  1
 15 16  1  0
 16 17  2  0
 17 18  1  0
 19 18  1  0
 20 16  1  0
 20 19  2  0
 21 22  1  0
 21 14  1  0
 23 21  2  0
M  END
$$$$
