CSH.pdb
     RDKit          3D

 23 23  0  0  1  0  0  0  0  0999 V2000
    9.7637  -16.4605   18.9536 N   0  0  0  0  0  0  0  0  0  0  0  0
    8.7394  -16.3045   19.9406 C   0  0  1  0  0  0  0  0  0  0  0  0
    7.8168  -17.5063   20.0127 C   0  0  0  0  0  0  0  0  0  0  0  0
    8.7084  -19.0375   20.2771 S   0  0  0  0  0  0  0  0  0  0  0  0
    9.3285  -16.0992   21.3088 C   0  0  0  0  0  0  0  0  0  0  0  0
   10.5355  -16.3580   21.5443 O   0  0  0  0  0  0  0  0  0  0  0  0
    6.8205  -15.3312   24.6733 O   0  0  0  0  0  0  0  0  0  0  0  0
    7.9907  -14.6299   24.5226 C   0  0  0  0  0  0  0  0  0  0  0  0
    9.0243  -15.4211   23.7145 C   0  0  2  0  0  0  0  0  0  0  0  0
    8.5356  -15.6047   22.3813 N   0  0  0  0  0  0  0  0  0  0  0  0
    9.3242  -16.7097   24.3895 C   0  0  0  0  0  0  0  0  0  0  0  0
    8.9666  -17.7765   23.8405 O   0  0  0  0  0  0  0  0  0  0  0  0
    9.9923  -16.7689   25.6173 N   0  0  0  0  0  0  0  0  0  0  0  0
   10.5957  -17.9881   26.1712 C   0  0  1  0  0  0  0  0  0  0  0  0
   11.8250  -18.3606   25.4338 C   0  0  0  0  0  0  0  0  0  0  0  0
   11.5410  -19.1779   24.2546 C   0  0  0  0  0  0  0  0  0  0  0  0
   10.8965  -20.4174   24.2935 C   0  0  0  0  0  0  0  0  0  0  0  0
   10.7785  -20.9249   23.0639 N   0  0  0  0  0  0  0  0  0  0  0  0
   11.3382  -20.0271   22.2424 C   0  0  0  0  0  0  0  0  0  0  0  0
   11.7946  -18.9796   22.9638 N   0  0  0  0  0  0  0  0  0  0  0  0
   10.8048  -17.6772   27.6034 C   0  0  0  0  0  0  0  0  0  0  0  0
   11.2839  -16.4685   28.0493 O   0  0  0  0  0  0  0  0  0  0  0  0
   10.5505  -18.5247   28.5319 O   0  0  0  0  0  0  0  0  0  0  0  0
  2  1  1  6
  3  2  1  0
  4  3  1  0
  5  2  1  0
  5 10  1  0
  6  5  2  0
  7  8  1  0
  9 10  1  0
  9 11  1  0
  9  8  1  1
 11 13  1  0
 12 11  2  0
 13 14  1  0
 14 15  1  6
 15 16  1  0
 16 17  2  0
 17 18  1  0
 19 18  1  0
 20 16  1  0
 20 19  2  0
 21 22  1  0
 21 14  1  0
 23 21  2  0
M  END
$$$$
