CSH.pdb
     RDKit          3D

 23 23  0  0  1  0  0  0  0  0999 V2000
    8.1197  -14.4468   17.2059 N   0  0  0  0  0  0  0  0  0  0  0  0
    8.5529  -14.0920   18.5227 C   0  0  1  0  0  0  0  0  0  0  0  0
    7.9654  -12.7740   18.9902 C   0  0  0  0  0  0  0  0  0  0  0  0
    8.5041  -12.3328   20.6408 S   0  0  0  0  0  0  0  0  0  0  0  0
    8.1667  -15.1444   19.5249 C   0  0  0  0  0  0  0  0  0  0  0  0
    7.0047  -15.6223   19.5532 O   0  0  0  0  0  0  0  0  0  0  0  0
   10.8813  -17.7794   21.0445 O   0  0  0  0  0  0  0  0  0  0  0  0
    9.5179  -17.9364   21.0698 C   0  0  0  0  0  0  0  0  0  0  0  0
    8.8055  -16.6348   21.4511 C   0  0  2  0  0  0  0  0  0  0  0  0
    9.1069  -15.6324   20.4743 N   0  0  0  0  0  0  0  0  0  0  0  0
    9.1943  -16.2219   22.8239 C   0  0  0  0  0  0  0  0  0  0  0  0
   10.2457  -15.5605   22.9805 O   0  0  0  0  0  0  0  0  0  0  0  0
    8.4243  -16.5483   23.9454 N   0  0  0  0  0  0  0  0  0  0  0  0
    8.7891  -16.2047   25.3261 C   0  0  1  0  0  0  0  0  0  0  0  0
    7.5881  -15.9039   26.1388 C   0  0  0  0  0  0  0  0  0  0  0  0
    7.1411  -14.5201   25.9812 C   0  0  0  0  0  0  0  0  0  0  0  0
    7.8335  -13.5481   25.2539 C   0  0  0  0  0  0  0  0  0  0  0  0
    7.1828  -12.3824   25.2889 N   0  0  0  0  0  0  0  0  0  0  0  0
    6.0864  -12.5974   26.0276 C   0  0  0  0  0  0  0  0  0  0  0  0
    6.0670  -13.8839   26.4407 N   0  0  0  0  0  0  0  0  0  0  0  0
    9.5793  -17.3645   25.7974 C   0  0  0  0  0  0  0  0  0  0  0  0
   10.4592  -17.2977   26.8513 O   0  0  0  0  0  0  0  0  0  0  0  0
    9.4941  -18.5197   25.2469 O   0  0  0  0  0  0  0  0  0  0  0  0
  2  1  1  6
  3  2  1  0
  4  3  1  0
  5  2  1  0
  5 10  1  0
  6  5  2  0
  7  8  1  0
  9 10  1  0
  9 11  1  0
  9  8  1  6
 11 13  1  0
 12 11  2  0
 13 14  1  0
 14 15  1  1
 15 16  1  0
 16 17  2  0
 17 18  1  0
 19 18  1  0
 20 16  1  0
 20 19  2  0
 21 22  1  0
 21 14  1  0
 23 21  2  0
M  END
$$$$
