CSH.pdb
     RDKit          3D

 23 23  0  0  1  0  0  0  0  0999 V2000
    7.7009  -18.4580   15.1095 N   0  0  0  0  0  0  0  0  0  0  0  0
    8.5288  -17.6267   15.9287 C   0  0  1  0  0  0  0  0  0  0  0  0
    8.2610  -16.1495   15.7120 C   0  0  0  0  0  0  0  0  0  0  0  0
    9.2430  -15.1113   16.7923 S   0  0  0  0  0  0  0  0  0  0  0  0
    8.3185  -17.9188   17.3887 C   0  0  0  0  0  0  0  0  0  0  0  0
    7.1975  -17.7522   17.9319 O   0  0  0  0  0  0  0  0  0  0  0  0
   11.3610  -19.8301   19.6189 O   0  0  0  0  0  0  0  0  0  0  0  0
   10.0312  -19.9396   19.9411 C   0  0  0  0  0  0  0  0  0  0  0  0
    9.2600  -18.6596   19.6033 C   0  0  2  0  0  0  0  0  0  0  0  0
    9.3846  -18.3939   18.2019 N   0  0  0  0  0  0  0  0  0  0  0  0
    9.7484  -17.5325   20.4383 C   0  0  0  0  0  0  0  0  0  0  0  0
   10.7796  -16.9189   20.0811 O   0  0  0  0  0  0  0  0  0  0  0  0
    9.0938  -17.1356   21.6094 N   0  0  0  0  0  0  0  0  0  0  0  0
    9.5766  -16.0786   22.5077 C   0  0  1  0  0  0  0  0  0  0  0  0
    8.5340  -15.0518   22.7363 C   0  0  0  0  0  0  0  0  0  0  0  0
    8.3803  -14.1503   21.5948 C   0  0  0  0  0  0  0  0  0  0  0  0
    9.1859  -14.1826   20.4532 C   0  0  0  0  0  0  0  0  0  0  0  0
    8.8076  -13.2419   19.5840 N   0  0  0  0  0  0  0  0  0  0  0  0
    7.7732  -12.6110   20.1549 C   0  0  0  0  0  0  0  0  0  0  0  0
    7.5212  -13.1614   21.3630 N   0  0  0  0  0  0  0  0  0  0  0  0
   10.0104  -16.8002   23.7253 C   0  0  0  0  0  0  0  0  0  0  0  0
    9.8224  -18.1495   23.9080 O   0  0  0  0  0  0  0  0  0  0  0  0
   10.5958  -16.2071   24.7003 O   0  0  0  0  0  0  0  0  0  0  0  0
  2  1  1  6
  3  2  1  0
  4  3  1  0
  5  2  1  0
  5 10  1  0
  6  5  2  0
  7  8  1  0
  9 10  1  0
  9 11  1  0
  9  8  1  1
 11 13  1  0
 12 11  2  0
 13 14  1  0
 14 15  1  1
 15 16  1  0
 16 17  2  0
 17 18  1  0
 19 18  1  0
 20 16  1  0
 20 19  2  0
 21 22  1  0
 21 14  1  0
 23 21  2  0
M  END
$$$$
