CSH.pdb
     RDKit          3D

 23 23  0  0  1  0  0  0  0  0999 V2000
    7.8951  -12.9087   16.3589 N   0  0  0  0  0  0  0  0  0  0  0  0
    7.9351  -14.1964   16.9815 C   0  0  1  0  0  0  0  0  0  0  0  0
    8.7318  -15.2048   16.1757 C   0  0  0  0  0  0  0  0  0  0  0  0
    7.9083  -15.6669   14.6533 S   0  0  0  0  0  0  0  0  0  0  0  0
    8.5499  -14.1199   18.3517 C   0  0  0  0  0  0  0  0  0  0  0  0
    9.6216  -13.4945   18.5512 O   0  0  0  0  0  0  0  0  0  0  0  0
    6.9672  -16.5079   21.4235 O   0  0  0  0  0  0  0  0  0  0  0  0
    7.4364  -15.2664   21.7735 C   0  0  0  0  0  0  0  0  0  0  0  0
    8.4933  -14.7619   20.7857 C   0  0  2  0  0  0  0  0  0  0  0  0
    7.9359  -14.7546   19.4669 N   0  0  0  0  0  0  0  0  0  0  0  0
    9.7188  -15.5959   20.8773 C   0  0  0  0  0  0  0  0  0  0  0  0
    9.8732  -16.5339   20.0625 O   0  0  0  0  0  0  0  0  0  0  0  0
   10.7044  -15.3670   21.8435 N   0  0  0  0  0  0  0  0  0  0  0  0
   11.8883  -16.2156   22.0328 C   0  0  1  0  0  0  0  0  0  0  0  0
   13.1323  -15.4121   22.0133 C   0  0  0  0  0  0  0  0  0  0  0  0
   13.5480  -15.0620   20.6554 C   0  0  0  0  0  0  0  0  0  0  0  0
   12.7738  -15.2860   19.5136 C   0  0  0  0  0  0  0  0  0  0  0  0
   13.4143  -14.8630   18.4208 N   0  0  0  0  0  0  0  0  0  0  0  0
   14.5848  -14.3730   18.8495 C   0  0  0  0  0  0  0  0  0  0  0  0
   14.6592  -14.4953   20.1931 N   0  0  0  0  0  0  0  0  0  0  0  0
   11.6318  -16.9262   23.3059 C   0  0  0  0  0  0  0  0  0  0  0  0
   12.4554  -17.9108   23.7977 O   0  0  0  0  0  0  0  0  0  0  0  0
   10.6132  -16.6675   24.0410 O   0  0  0  0  0  0  0  0  0  0  0  0
  2  1  1  6
  3  2  1  0
  4  3  1  0
  5  2  1  0
  5 10  1  0
  6  5  2  0
  7  8  1  0
  9 10  1  0
  9 11  1  0
  9  8  1  1
 11 13  1  0
 12 11  2  0
 13 14  1  0
 14 15  1  1
 15 16  1  0
 16 17  2  0
 17 18  1  0
 19 18  1  0
 20 16  1  0
 20 19  2  0
 21 22  1  0
 21 14  1  0
 23 21  2  0
M  END
$$$$
