CSH.pdb
     RDKit          3D

 23 23  0  0  1  0  0  0  0  0999 V2000
    7.6514  -14.7401   17.8809 N   0  0  0  0  0  0  0  0  0  0  0  0
    8.4315  -14.3284   19.0076 C   0  0  1  0  0  0  0  0  0  0  0  0
    7.9569  -13.0108   19.5903 C   0  0  0  0  0  0  0  0  0  0  0  0
    8.5614  -11.5987   18.6684 S   0  0  0  0  0  0  0  0  0  0  0  0
    8.3862  -15.3550   20.1055 C   0  0  0  0  0  0  0  0  0  0  0  0
    7.2940  -15.8180   20.5203 O   0  0  0  0  0  0  0  0  0  0  0  0
   11.6557  -17.7323   20.9613 O   0  0  0  0  0  0  0  0  0  0  0  0
   10.3689  -18.0305   21.3347 C   0  0  0  0  0  0  0  0  0  0  0  0
    9.6063  -16.7802   21.7847 C   0  0  2  0  0  0  0  0  0  0  0  0
    9.5813  -15.8347   20.7099 N   0  0  0  0  0  0  0  0  0  0  0  0
   10.2214  -16.2212   23.0157 C   0  0  0  0  0  0  0  0  0  0  0  0
   11.2576  -15.5264   22.9109 O   0  0  0  0  0  0  0  0  0  0  0  0
    9.6804  -16.4460   24.2861 N   0  0  0  0  0  0  0  0  0  0  0  0
   10.2946  -15.9858   25.5385 C   0  0  1  0  0  0  0  0  0  0  0  0
    9.2655  -15.5677   26.5182 C   0  0  0  0  0  0  0  0  0  0  0  0
    9.8496  -15.1144   27.7802 C   0  0  0  0  0  0  0  0  0  0  0  0
   11.2226  -15.0086   28.0182 C   0  0  0  0  0  0  0  0  0  0  0  0
   11.4525  -14.5687   29.2580 N   0  0  0  0  0  0  0  0  0  0  0  0
   10.2464  -14.3928   29.8132 C   0  0  0  0  0  0  0  0  0  0  0  0
    9.2872  -14.7223   28.9203 N   0  0  0  0  0  0  0  0  0  0  0  0
   11.1369  -17.1224   25.9746 C   0  0  0  0  0  0  0  0  0  0  0  0
   12.3380  -16.9637   26.6240 O   0  0  0  0  0  0  0  0  0  0  0  0
   10.7979  -18.3427   25.7724 O   0  0  0  0  0  0  0  0  0  0  0  0
  2  1  1  6
  3  2  1  0
  4  3  1  0
  5  2  1  0
  5 10  1  0
  6  5  2  0
  7  8  1  0
  9 10  1  0
  9 11  1  0
  9  8  1  6
 11 13  1  0
 12 11  2  0
 13 14  1  0
 14 15  1  1
 15 16  1  0
 16 17  2  0
 17 18  1  0
 19 18  1  0
 20 16  1  0
 20 19  2  0
 21 22  1  0
 21 14  1  0
 23 21  2  0
M  END
$$$$
