CSH.pdb
     RDKit          3D

 23 23  0  0  1  0  0  0  0  0999 V2000
    8.2469  -16.5008   13.5754 N   0  0  0  0  0  0  0  0  0  0  0  0
    8.8714  -15.7717   14.6366 C   0  0  1  0  0  0  0  0  0  0  0  0
    8.2180  -14.4239   14.8760 C   0  0  0  0  0  0  0  0  0  0  0  0
    8.9514  -13.5439   16.2533 S   0  0  0  0  0  0  0  0  0  0  0  0
    8.8197  -16.5393   15.9285 C   0  0  0  0  0  0  0  0  0  0  0  0
    7.7696  -17.1219   16.2990 O   0  0  0  0  0  0  0  0  0  0  0  0
   12.1187  -18.3162   17.3653 O   0  0  0  0  0  0  0  0  0  0  0  0
   10.8508  -18.6343   17.7841 C   0  0  0  0  0  0  0  0  0  0  0  0
    9.9925  -17.3822   17.9910 C   0  0  2  0  0  0  0  0  0  0  0  0
    9.9606  -16.6299   16.7732 N   0  0  0  0  0  0  0  0  0  0  0  0
   10.5131  -16.5881   19.1331 C   0  0  0  0  0  0  0  0  0  0  0  0
   11.4773  -15.8131   18.9401 O   0  0  0  0  0  0  0  0  0  0  0  0
    9.9610  -16.6784   20.4154 N   0  0  0  0  0  0  0  0  0  0  0  0
   10.3605  -15.8328   21.5480 C   0  0  1  0  0  0  0  0  0  0  0  0
    9.2070  -15.0734   22.0831 C   0  0  0  0  0  0  0  0  0  0  0  0
    8.5576  -14.2532   21.0608 C   0  0  0  0  0  0  0  0  0  0  0  0
    9.1746  -13.1890   20.3976 C   0  0  0  0  0  0  0  0  0  0  0  0
    8.3353  -12.6310   19.5214 N   0  0  0  0  0  0  0  0  0  0  0  0
    7.1930  -13.3238   19.6168 C   0  0  0  0  0  0  0  0  0  0  0  0
    7.3328  -14.2973   20.5435 N   0  0  0  0  0  0  0  0  0  0  0  0
   10.9801  -16.7733   22.5089 C   0  0  0  0  0  0  0  0  0  0  0  0
   11.6224  -16.3656   23.6537 O   0  0  0  0  0  0  0  0  0  0  0  0
   10.9585  -18.0436   22.3338 O   0  0  0  0  0  0  0  0  0  0  0  0
  2  1  1  6
  3  2  1  0
  4  3  1  0
  5  2  1  0
  5 10  1  0
  6  5  2  0
  7  8  1  0
  9 10  1  0
  9 11  1  0
  9  8  1  6
 11 13  1  0
 12 11  2  0
 13 14  1  0
 14 15  1  1
 15 16  1  0
 16 17  2  0
 17 18  1  0
 19 18  1  0
 20 16  1  0
 20 19  2  0
 21 22  1  0
 21 14  1  0
 23 21  2  0
M  END
$$$$
