CSH.pdb
     RDKit          3D

 23 23  0  0  1  0  0  0  0  0999 V2000
    8.0407  -15.4956   17.1098 N   0  0  0  0  0  0  0  0  0  0  0  0
    8.6261  -15.0347   18.3315 C   0  0  1  0  0  0  0  0  0  0  0  0
    8.0377  -13.7153   18.7939 C   0  0  0  0  0  0  0  0  0  0  0  0
    8.3581  -12.3824   17.6406 S   0  0  0  0  0  0  0  0  0  0  0  0
    8.4322  -16.0334   19.4388 C   0  0  0  0  0  0  0  0  0  0  0  0
    7.7367  -17.0665   19.2705 O   0  0  0  0  0  0  0  0  0  0  0  0
   10.9450  -17.8256   20.7578 O   0  0  0  0  0  0  0  0  0  0  0  0
    9.7016  -18.0903   21.2754 C   0  0  0  0  0  0  0  0  0  0  0  0
    9.0080  -16.8140   21.7624 C   0  0  2  0  0  0  0  0  0  0  0  0
    9.0317  -15.8390   20.7141 N   0  0  0  0  0  0  0  0  0  0  0  0
    9.6545  -16.3231   23.0062 C   0  0  0  0  0  0  0  0  0  0  0  0
   10.9012  -16.3844   23.1034 O   0  0  0  0  0  0  0  0  0  0  0  0
    8.9158  -15.7953   24.0706 N   0  0  0  0  0  0  0  0  0  0  0  0
    9.3453  -15.8363   25.4746 C   0  0  1  0  0  0  0  0  0  0  0  0
    8.2138  -15.5607   26.3896 C   0  0  0  0  0  0  0  0  0  0  0  0
    7.5261  -14.3114   26.0645 C   0  0  0  0  0  0  0  0  0  0  0  0
    7.9740  -13.3922   25.1118 C   0  0  0  0  0  0  0  0  0  0  0  0
    7.1411  -12.3511   25.0351 N   0  0  0  0  0  0  0  0  0  0  0  0
    6.1696  -12.5935   25.9247 C   0  0  0  0  0  0  0  0  0  0  0  0
    6.4065  -13.7730   26.5401 N   0  0  0  0  0  0  0  0  0  0  0  0
    9.9562  -17.1754   25.6335 C   0  0  0  0  0  0  0  0  0  0  0  0
   11.0273  -17.4212   26.4592 O   0  0  0  0  0  0  0  0  0  0  0  0
    9.5217  -18.2049   25.0039 O   0  0  0  0  0  0  0  0  0  0  0  0
  2  1  1  6
  3  2  1  0
  4  3  1  0
  5  2  1  0
  5 10  1  0
  6  5  2  0
  7  8  1  0
  9 10  1  0
  9 11  1  0
  9  8  1  6
 11 13  1  0
 12 11  2  0
 13 14  1  0
 14 15  1  1
 15 16  1  0
 16 17  2  0
 17 18  1  0
 19 18  1  0
 20 16  1  0
 20 19  2  0
 21 22  1  0
 21 14  1  0
 23 21  2  0
M  END
$$$$
