CSH.pdb
     RDKit          3D

 23 23  0  0  1  0  0  0  0  0999 V2000
    8.4754  -14.8705   17.7433 N   0  0  0  0  0  0  0  0  0  0  0  0
    8.5939  -14.3003   19.0503 C   0  0  1  0  0  0  0  0  0  0  0  0
    7.6833  -13.1028   19.2445 C   0  0  0  0  0  0  0  0  0  0  0  0
    8.5235  -11.7242   20.0210 S   0  0  0  0  0  0  0  0  0  0  0  0
    8.2571  -15.3065   20.1158 C   0  0  0  0  0  0  0  0  0  0  0  0
    7.4893  -16.2731   19.8802 O   0  0  0  0  0  0  0  0  0  0  0  0
    9.5332  -18.5171   22.6982 O   0  0  0  0  0  0  0  0  0  0  0  0
    9.4867  -17.4793   21.8011 C   0  0  0  0  0  0  0  0  0  0  0  0
    8.7790  -16.2544   22.3893 C   0  0  2  0  0  0  0  0  0  0  0  0
    8.7986  -15.1949   21.4265 N   0  0  0  0  0  0  0  0  0  0  0  0
    9.4149  -15.8636   23.6735 C   0  0  0  0  0  0  0  0  0  0  0  0
   10.5717  -15.3852   23.6534 O   0  0  0  0  0  0  0  0  0  0  0  0
    8.7633  -16.0129   24.9024 N   0  0  0  0  0  0  0  0  0  0  0  0
    9.3291  -15.5981   26.1929 C   0  0  1  0  0  0  0  0  0  0  0  0
    8.2632  -15.2143   27.1470 C   0  0  0  0  0  0  0  0  0  0  0  0
    7.4542  -14.0978   26.6588 C   0  0  0  0  0  0  0  0  0  0  0  0
    7.8563  -12.7599   26.6965 C   0  0  0  0  0  0  0  0  0  0  0  0
    6.9106  -11.9700   26.1816 N   0  0  0  0  0  0  0  0  0  0  0  0
    5.9122  -12.7848   25.8166 C   0  0  0  0  0  0  0  0  0  0  0  0
    6.2448  -14.0622   26.1059 N   0  0  0  0  0  0  0  0  0  0  0  0
   10.1549  -16.7501   26.6200 C   0  0  0  0  0  0  0  0  0  0  0  0
   10.3077  -17.8881   25.8644 O   0  0  0  0  0  0  0  0  0  0  0  0
   10.7881  -16.7621   27.7353 O   0  0  0  0  0  0  0  0  0  0  0  0
  2  1  1  6
  3  2  1  0
  4  3  1  0
  5  2  1  0
  5 10  1  0
  6  5  2  0
  7  8  1  0
  9 10  1  0
  9 11  1  0
  9  8  1  6
 11 13  1  0
 12 11  2  0
 13 14  1  0
 14 15  1  1
 15 16  1  0
 16 17  2  0
 17 18  1  0
 19 18  1  0
 20 16  1  0
 20 19  2  0
 21 22  1  0
 21 14  1  0
 23 21  2  0
M  END
$$$$
