MLM.pdb
     RDKit          3D

 25 24  0  0  1  0  0  0  0  0999 V2000
   21.9050  -23.2223  -19.4326 C   0  0  0  0  0  0  0  0  0  0  0  0
   23.6420  -23.7866  -19.3123 S   0  0  0  0  0  0  0  0  0  0  0  0
   23.7697  -24.9034  -17.9013 C   0  0  0  0  0  0  0  0  0  0  0  0
   23.7588  -24.0740  -16.6148 C   0  0  0  0  0  0  0  0  0  0  0  0
   25.1192  -23.3793  -16.5580 C   0  0  2  0  0  0  0  0  0  0  0  0
   26.0589  -24.3752  -16.0835 N   0  0  0  0  0  0  0  0  0  0  0  0
   25.1021  -22.2682  -15.5735 C   0  0  0  0  0  0  0  0  0  0  0  0
   25.1754  -22.4702  -14.3297 O   0  0  0  0  0  0  0  0  0  0  0  0
   27.7884  -18.7438  -14.4489 C   0  0  0  0  0  0  0  0  0  0  0  0
   27.2351  -18.7798  -15.9027 C   0  0  1  0  0  0  0  0  0  0  0  0
   27.7442  -20.0910  -16.4529 C   0  0  0  0  0  0  0  0  0  0  0  0
   25.7712  -18.7345  -15.7584 C   0  0  0  0  0  0  0  0  0  0  0  0
   25.0347  -19.7837  -15.0259 C   0  0  2  0  0  0  0  0  0  0  0  0
   25.0026  -20.9352  -15.9930 N   0  0  0  0  0  0  0  0  0  0  0  0
   23.6491  -19.5833  -14.6518 C   0  0  0  0  0  0  0  0  0  0  0  0
   23.3858  -18.8970  -13.5879 O   0  0  0  0  0  0  0  0  0  0  0  0
   19.0204  -20.0268  -18.8133 C   0  0  0  0  0  0  0  0  0  0  0  0
   17.8991  -19.5418  -17.4810 S   0  0  0  0  0  0  0  0  0  0  0  0
   18.8300  -19.4311  -15.9509 C   0  0  0  0  0  0  0  0  0  0  0  0
   20.2666  -19.7239  -16.0766 C   0  0  0  0  0  0  0  0  0  0  0  0
   21.1338  -19.6812  -14.8545 C   0  0  2  0  0  0  0  0  0  0  0  0
   22.4820  -20.0482  -15.3257 N   0  0  0  0  0  0  0  0  0  0  0  0
   20.7032  -20.4523  -13.7061 C   0  0  0  0  0  0  0  0  0  0  0  0
   19.9189  -19.9820  -12.6627 O   0  0  0  0  0  0  0  0  0  0  0  0
   21.0459  -21.6733  -13.5807 O   0  0  0  0  0  0  0  0  0  0  0  0
  1  2  1  0
  2  3  1  0
  4  3  1  0
  4  5  1  0
  5  7  1  0
  5  6  1  1
  7  8  2  0
 10  9  1  1
 11 10  1  0
 13 12  1  6
 12 10  1  0
 14 13  1  0
 14  7  1  0
 15 16  2  0
 15 13  1  0
 17 18  1  0
 19 20  1  0
 19 18  1  0
 21 20  1  6
 21 22  1  0
 21 23  1  0
 22 15  1  0
 23 24  1  0
 25 23  2  0
M  END
$$$$
