MLM.pdb
     RDKit          3D

 25 24  0  0  1  0  0  0  0  0999 V2000
   17.7204  -25.3832  -11.1784 C   0  0  0  0  0  0  0  0  0  0  0  0
   17.6504  -25.9466  -12.9185 S   0  0  0  0  0  0  0  0  0  0  0  0
   19.2406  -26.6936  -13.3278 C   0  0  0  0  0  0  0  0  0  0  0  0
   20.3226  -25.6126  -13.2659 C   0  0  0  0  0  0  0  0  0  0  0  0
   21.6486  -26.3402  -13.4866 C   0  0  2  0  0  0  0  0  0  0  0  0
   21.9216  -27.0586  -12.2580 N   0  0  0  0  0  0  0  0  0  0  0  0
   22.7525  -25.3702  -13.6981 C   0  0  0  0  0  0  0  0  0  0  0  0
   23.1244  -24.5674  -12.7979 O   0  0  0  0  0  0  0  0  0  0  0  0
   27.7786  -25.8292  -16.5537 C   0  0  0  0  0  0  0  0  0  0  0  0
   26.9901  -24.6653  -15.8868 C   0  0  1  0  0  0  0  0  0  0  0  0
   27.1597  -23.5134  -16.8488 C   0  0  0  0  0  0  0  0  0  0  0  0
   25.6029  -25.1469  -15.7889 C   0  0  0  0  0  0  0  0  0  0  0  0
   24.5414  -24.3242  -15.1754 C   0  0  2  0  0  0  0  0  0  0  0  0
   23.4325  -25.3080  -14.9214 N   0  0  0  0  0  0  0  0  0  0  0  0
   23.9149  -23.2547  -15.9263 C   0  0  0  0  0  0  0  0  0  0  0  0
   22.6950  -23.4084  -16.3265 O   0  0  0  0  0  0  0  0  0  0  0  0
   21.1298  -21.2959  -12.5213 C   0  0  0  0  0  0  0  0  0  0  0  0
   21.4544  -19.5796  -12.9865 S   0  0  0  0  0  0  0  0  0  0  0  0
   22.1570  -19.5491  -14.6374 C   0  0  0  0  0  0  0  0  0  0  0  0
   23.0270  -20.6905  -14.9622 C   0  0  0  0  0  0  0  0  0  0  0  0
   23.6490  -20.7749  -16.3235 C   0  0  2  0  0  0  0  0  0  0  0  0
   24.4746  -21.9963  -16.2949 N   0  0  0  0  0  0  0  0  0  0  0  0
   24.3703  -19.6119  -16.7987 C   0  0  0  0  0  0  0  0  0  0  0  0
   23.7972  -18.4285  -17.2413 O   0  0  0  0  0  0  0  0  0  0  0  0
   25.6438  -19.6140  -16.8445 O   0  0  0  0  0  0  0  0  0  0  0  0
  1  2  1  0
  2  3  1  0
  4  3  1  0
  4  5  1  0
  5  7  1  0
  5  6  1  1
  7  8  2  0
 10  9  1  6
 11 10  1  0
 13 12  1  6
 12 10  1  0
 14 13  1  0
 14  7  1  0
 15 16  2  0
 15 13  1  0
 17 18  1  0
 19 20  1  0
 19 18  1  0
 21 20  1  1
 21 22  1  0
 21 23  1  0
 22 15  1  0
 23 24  1  0
 25 23  2  0
M  END
$$$$
