MLM.pdb
     RDKit          3D

 25 24  0  0  1  0  0  0  0  0999 V2000
   19.7333  -21.9210  -12.2742 C   0  0  0  0  0  0  0  0  0  0  0  0
   19.3292  -20.2813  -12.9800 S   0  0  0  0  0  0  0  0  0  0  0  0
   20.8502  -19.5645  -13.6334 C   0  0  0  0  0  0  0  0  0  0  0  0
   22.0069  -20.5281  -13.3562 C   0  0  0  0  0  0  0  0  0  0  0  0
   23.2735  -19.7913  -13.7915 C   0  0  2  0  0  0  0  0  0  0  0  0
   23.1813  -19.6504  -15.2308 N   0  0  0  0  0  0  0  0  0  0  0  0
   24.4820  -20.6003  -13.4927 C   0  0  0  0  0  0  0  0  0  0  0  0
   24.5668  -21.8217  -13.7996 O   0  0  0  0  0  0  0  0  0  0  0  0
   29.2021  -18.6841  -14.6619 C   0  0  0  0  0  0  0  0  0  0  0  0
   27.9329  -19.5711  -14.5086 C   0  0  1  0  0  0  0  0  0  0  0  0
   28.1722  -20.7161  -15.4641 C   0  0  0  0  0  0  0  0  0  0  0  0
   27.9187  -19.9814  -13.0953 C   0  0  0  0  0  0  0  0  0  0  0  0
   26.8339  -20.8185  -12.5453 C   0  0  2  0  0  0  0  0  0  0  0  0
   25.5892  -20.0312  -12.8501 N   0  0  0  0  0  0  0  0  0  0  0  0
   26.7593  -21.0819  -11.1222 C   0  0  0  0  0  0  0  0  0  0  0  0
   27.5353  -21.9838  -10.6157 O   0  0  0  0  0  0  0  0  0  0  0  0
   27.4217  -19.0830   -5.1437 C   0  0  0  0  0  0  0  0  0  0  0  0
   28.5251  -19.1613   -6.5735 S   0  0  0  0  0  0  0  0  0  0  0  0
   27.8054  -20.2530   -7.8023 C   0  0  0  0  0  0  0  0  0  0  0  0
   26.3344  -20.2614   -7.8389 C   0  0  0  0  0  0  0  0  0  0  0  0
   25.6307  -21.0999   -8.8631 C   0  0  2  0  0  0  0  0  0  0  0  0
   25.9207  -20.4529  -10.1560 N   0  0  0  0  0  0  0  0  0  0  0  0
   24.2192  -21.3546   -8.6585 C   0  0  0  0  0  0  0  0  0  0  0  0
   23.6693  -22.0637   -7.6004 O   0  0  0  0  0  0  0  0  0  0  0  0
   23.3561  -20.9216   -9.4900 O   0  0  0  0  0  0  0  0  0  0  0  0
  1  2  1  0
  2  3  1  0
  4  3  1  0
  4  5  1  0
  5  7  1  0
  5  6  1  6
  7  8  2  0
 10  9  1  1
 11 10  1  0
 13 12  1  1
 12 10  1  0
 14 13  1  0
 14  7  1  0
 15 16  2  0
 15 13  1  0
 17 18  1  0
 19 20  1  0
 19 18  1  0
 21 20  1  1
 21 22  1  0
 21 23  1  0
 22 15  1  0
 23 24  1  0
 25 23  2  0
M  END
$$$$
