MLM.pdb
     RDKit          3D

 25 24  0  0  1  0  0  0  0  0999 V2000
   28.2744  -18.3990   -5.7106 C   0  0  0  0  0  0  0  0  0  0  0  0
   27.1011  -19.7148   -6.2029 S   0  0  0  0  0  0  0  0  0  0  0  0
   27.7162  -20.4723   -7.7202 C   0  0  0  0  0  0  0  0  0  0  0  0
   27.1764  -19.6851   -8.9169 C   0  0  0  0  0  0  0  0  0  0  0  0
   26.0515  -20.5391   -9.5015 C   0  0  2  0  0  0  0  0  0  0  0  0
   26.6082  -21.8643   -9.6861 N   0  0  0  0  0  0  0  0  0  0  0  0
   25.6430  -20.0304  -10.8350 C   0  0  0  0  0  0  0  0  0  0  0  0
   25.1767  -18.8689  -10.9981 O   0  0  0  0  0  0  0  0  0  0  0  0
   28.9178  -20.6526  -14.9494 C   0  0  0  0  0  0  0  0  0  0  0  0
   27.9130  -19.9261  -14.0093 C   0  0  1  0  0  0  0  0  0  0  0  0
   27.8391  -18.5253  -14.5695 C   0  0  0  0  0  0  0  0  0  0  0  0
   26.6533  -20.6758  -14.1394 C   0  0  0  0  0  0  0  0  0  0  0  0
   25.4547  -20.3132  -13.3572 C   0  0  2  0  0  0  0  0  0  0  0  0
   25.7610  -20.8309  -11.9787 N   0  0  0  0  0  0  0  0  0  0  0  0
   24.1641  -20.8860  -13.6833 C   0  0  0  0  0  0  0  0  0  0  0  0
   23.6287  -20.6015  -14.8254 O   0  0  0  0  0  0  0  0  0  0  0  0
   21.5833  -20.6538   -8.4147 C   0  0  0  0  0  0  0  0  0  0  0  0
   20.0806  -20.2359   -9.3284 S   0  0  0  0  0  0  0  0  0  0  0  0
   20.2654  -20.7798  -11.0284 C   0  0  0  0  0  0  0  0  0  0  0  0
   21.6289  -21.1853  -11.4050 C   0  0  0  0  0  0  0  0  0  0  0  0
   21.9050  -21.6088  -12.8162 C   0  0  2  0  0  0  0  0  0  0  0  0
   23.3692  -21.7660  -12.8919 N   0  0  0  0  0  0  0  0  0  0  0  0
   21.3663  -20.7817  -13.8766 C   0  0  0  0  0  0  0  0  0  0  0  0
   20.6151  -21.2319  -14.9527 O   0  0  0  0  0  0  0  0  0  0  0  0
   21.5694  -19.5237  -13.8830 O   0  0  0  0  0  0  0  0  0  0  0  0
  1  2  1  0
  2  3  1  0
  4  3  1  0
  4  5  1  0
  5  7  1  0
  5  6  1  6
  7  8  2  0
 10  9  1  6
 11 10  1  0
 13 12  1  6
 12 10  1  0
 14 13  1  0
 14  7  1  0
 15 16  2  0
 15 13  1  0
 17 18  1  0
 19 20  1  0
 19 18  1  0
 21 20  1  1
 21 22  1  0
 21 23  1  0
 22 15  1  0
 23 24  1  0
 25 23  2  0
M  END
$$$$
