MLM.pdb
     RDKit          3D

 25 24  0  0  1  0  0  0  0  0999 V2000
   21.1135  -16.5464  -18.4705 C   0  0  0  0  0  0  0  0  0  0  0  0
   22.6308  -15.5472  -18.2483 S   0  0  0  0  0  0  0  0  0  0  0  0
   23.9712  -16.6626  -17.7863 C   0  0  0  0  0  0  0  0  0  0  0  0
   23.3717  -17.9003  -17.1142 C   0  0  0  0  0  0  0  0  0  0  0  0
   24.5513  -18.6451  -16.4894 C   0  0  2  0  0  0  0  0  0  0  0  0
   25.3416  -19.1457  -17.5962 N   0  0  0  0  0  0  0  0  0  0  0  0
   24.0799  -19.8141  -15.7050 C   0  0  0  0  0  0  0  0  0  0  0  0
   23.7991  -20.9189  -16.2470 O   0  0  0  0  0  0  0  0  0  0  0  0
   26.7818  -21.4763  -11.6117 C   0  0  0  0  0  0  0  0  0  0  0  0
   25.9462  -21.4462  -12.9239 C   0  0  1  0  0  0  0  0  0  0  0  0
   26.0431  -22.8591  -13.4490 C   0  0  0  0  0  0  0  0  0  0  0  0
   24.5865  -21.0691  -12.5056 C   0  0  0  0  0  0  0  0  0  0  0  0
   23.4931  -20.9119  -13.4852 C   0  0  2  0  0  0  0  0  0  0  0  0
   23.9268  -19.7345  -14.3147 N   0  0  0  0  0  0  0  0  0  0  0  0
   22.1548  -20.5736  -13.0440 C   0  0  0  0  0  0  0  0  0  0  0  0
   21.8780  -19.3360  -12.7918 O   0  0  0  0  0  0  0  0  0  0  0  0
   20.4869  -18.6812  -17.4469 C   0  0  0  0  0  0  0  0  0  0  0  0
   19.3226  -20.0640  -17.4323 S   0  0  0  0  0  0  0  0  0  0  0  0
   18.8715  -20.4245  -15.7333 C   0  0  0  0  0  0  0  0  0  0  0  0
   19.9909  -20.8248  -14.8661 C   0  0  0  0  0  0  0  0  0  0  0  0
   19.7250  -21.1461  -13.4262 C   0  0  2  0  0  0  0  0  0  0  0  0
   21.0473  -21.4499  -12.8487 N   0  0  0  0  0  0  0  0  0  0  0  0
   18.7336  -22.1639  -13.1438 C   0  0  0  0  0  0  0  0  0  0  0  0
   18.8819  -23.5244  -13.3717 O   0  0  0  0  0  0  0  0  0  0  0  0
   17.6035  -21.8468  -12.6475 O   0  0  0  0  0  0  0  0  0  0  0  0
  1  2  1  0
  2  3  1  0
  4  3  1  0
  4  5  1  0
  5  7  1  0
  5  6  1  6
  7  8  2  0
 10  9  1  1
 11 10  1  0
 13 12  1  1
 12 10  1  0
 14 13  1  0
 14  7  1  0
 15 16  2  0
 15 13  1  0
 17 18  1  0
 19 20  1  0
 19 18  1  0
 21 20  1  6
 21 22  1  0
 21 23  1  0
 22 15  1  0
 23 24  1  0
 25 23  2  0
M  END
$$$$
