MLM.pdb
     RDKit          3D

 25 24  0  0  1  0  0  0  0  0999 V2000
   27.9974  -23.4106  -16.8194 C   0  0  0  0  0  0  0  0  0  0  0  0
   28.5366  -21.6914  -17.1415 S   0  0  0  0  0  0  0  0  0  0  0  0
   29.5483  -21.1533  -15.7482 C   0  0  0  0  0  0  0  0  0  0  0  0
   28.8659  -21.5868  -14.4484 C   0  0  0  0  0  0  0  0  0  0  0  0
   27.6269  -20.7015  -14.3154 C   0  0  2  0  0  0  0  0  0  0  0  0
   28.0970  -19.4259  -13.8133 N   0  0  0  0  0  0  0  0  0  0  0  0
   26.6844  -21.2619  -13.3146 C   0  0  0  0  0  0  0  0  0  0  0  0
   26.2144  -22.4292  -13.4128 O   0  0  0  0  0  0  0  0  0  0  0  0
   26.5021  -19.3866   -8.0162 C   0  0  0  0  0  0  0  0  0  0  0  0
   26.6412  -20.4113   -9.1789 C   0  0  1  0  0  0  0  0  0  0  0  0
   26.6311  -21.7525   -8.4843 C   0  0  0  0  0  0  0  0  0  0  0  0
   25.4645  -20.1857  -10.0334 C   0  0  0  0  0  0  0  0  0  0  0  0
   25.2254  -20.9923  -11.2468 C   0  0  2  0  0  0  0  0  0  0  0  0
   26.2753  -20.5063  -12.2080 N   0  0  0  0  0  0  0  0  0  0  0  0
   23.9791  -20.8701  -11.9760 C   0  0  0  0  0  0  0  0  0  0  0  0
   23.6873  -19.7348  -12.5218 O   0  0  0  0  0  0  0  0  0  0  0  0
   23.4345  -23.4081  -16.5988 C   0  0  0  0  0  0  0  0  0  0  0  0
   21.6500  -23.6551  -16.4495 S   0  0  0  0  0  0  0  0  0  0  0  0
   21.0122  -22.5365  -15.1998 C   0  0  0  0  0  0  0  0  0  0  0  0
   21.5460  -22.7507  -13.8454 C   0  0  0  0  0  0  0  0  0  0  0  0
   21.7543  -21.5713  -12.9438 C   0  0  2  0  0  0  0  0  0  0  0  0
   22.9886  -21.8719  -12.1951 N   0  0  0  0  0  0  0  0  0  0  0  0
   20.6506  -21.1841  -12.0890 C   0  0  0  0  0  0  0  0  0  0  0  0
   19.5041  -20.5187  -12.4982 O   0  0  0  0  0  0  0  0  0  0  0  0
   20.6762  -21.4429  -10.8415 O   0  0  0  0  0  0  0  0  0  0  0  0
  1  2  1  0
  2  3  1  0
  4  3  1  0
  4  5  1  0
  5  7  1  0
  5  6  1  1
  7  8  2  0
 10  9  1  1
 11 10  1  0
 13 12  1  1
 12 10  1  0
 14 13  1  0
 14  7  1  0
 15 16  2  0
 15 13  1  0
 17 18  1  0
 19 20  1  0
 19 18  1  0
 21 20  1  1
 21 22  1  0
 21 23  1  0
 22 15  1  0
 23 24  1  0
 25 23  2  0
M  END
$$$$
