APH.pdb
     RDKit          3D

 23 24  0  0  1  0  0  0  0  0999 V2000
   19.9042  -10.4096  -18.7214 C   0  0  0  0  0  0  0  0  0  0  0  0
   19.7878  -11.1742  -17.4100 C   0  0  2  0  0  0  0  0  0  0  0  0
   18.5059  -11.7924  -17.3829 N   0  0  0  0  0  0  0  0  0  0  0  0
   20.0685  -10.3276  -16.2501 C   0  0  0  0  0  0  0  0  0  0  0  0
   19.0857   -9.7247  -15.7323 O   0  0  0  0  0  0  0  0  0  0  0  0
   21.3398  -10.1723  -15.7199 N   0  0  0  0  0  0  0  0  0  0  0  0
   22.5293  -10.8975  -16.2063 C   0  0  0  0  0  0  0  0  0  0  0  0
   23.2803  -11.1041  -14.8805 C   0  0  0  0  0  0  0  0  0  0  0  0
   23.2362   -9.6547  -14.3764 C   0  0  0  0  0  0  0  0  0  0  0  0
   21.7574   -9.3229  -14.6464 C   0  0  1  0  0  0  0  0  0  0  0  0
   21.7948   -7.8756  -15.0683 C   0  0  0  0  0  0  0  0  0  0  0  0
   22.1107   -7.5334  -16.2369 O   0  0  0  0  0  0  0  0  0  0  0  0
   21.4745   -6.8362  -14.1628 N   0  0  0  0  0  0  0  0  0  0  0  0
   21.4636   -5.4310  -14.5090 C   0  0  1  0  0  0  0  0  0  0  0  0
   20.0456   -4.9570  -14.2859 C   0  0  0  0  0  0  0  0  0  0  0  0
   19.0811   -5.4283  -15.2784 C   0  0  0  0  0  0  0  0  0  0  0  0
   18.9492   -5.0936  -16.6077 C   0  0  0  0  0  0  0  0  0  0  0  0
   17.9006   -5.7837  -17.1317 N   0  0  0  0  0  0  0  0  0  0  0  0
   17.3849   -6.5377  -16.1465 C   0  0  0  0  0  0  0  0  0  0  0  0
   18.0939   -6.3231  -15.0366 N   0  0  0  0  0  0  0  0  0  0  0  0
   22.3610   -4.6277  -13.6791 C   0  0  0  0  0  0  0  0  0  0  0  0
   22.7974   -3.3571  -13.9902 O   0  0  0  0  0  0  0  0  0  0  0  0
   22.7717   -5.1308  -12.5931 O   0  0  0  0  0  0  0  0  0  0  0  0
  2  3  1  0
  2  1  1  6
  4  2  1  0
  5  4  2  0
  6  4  1  0
  7  6  1  0
  8  7  1  0
  9  8  1  0
  9 10  1  0
 10 11  1  6
 10  6  1  0
 11 13  1  0
 12 11  2  0
 13 14  1  0
 14 15  1  1
 14 21  1  0
 16 15  1  0
 17 16  2  0
 18 17  1  0
 19 18  1  0
 19 20  2  0
 20 16  1  0
 21 23  2  0
 21 22  1  0
M  END
$$$$
