APH.pdb
     RDKit          3D

 23 24  0  0  1  0  0  0  0  0999 V2000
   14.3325  -10.1468  -14.5665 C   0  0  0  0  0  0  0  0  0  0  0  0
   15.7459  -10.4881  -14.1153 C   0  0  2  0  0  0  0  0  0  0  0  0
   15.7180  -11.7999  -13.5634 N   0  0  0  0  0  0  0  0  0  0  0  0
   16.2998   -9.4733  -13.2185 C   0  0  0  0  0  0  0  0  0  0  0  0
   16.2312   -9.7086  -11.9786 O   0  0  0  0  0  0  0  0  0  0  0  0
   16.8787   -8.2992  -13.6744 N   0  0  0  0  0  0  0  0  0  0  0  0
   16.9495   -7.9140  -15.0971 C   0  0  0  0  0  0  0  0  0  0  0  0
   18.3176   -7.2126  -15.1190 C   0  0  0  0  0  0  0  0  0  0  0  0
   18.0992   -6.2705  -13.9268 C   0  0  0  0  0  0  0  0  0  0  0  0
   17.4992   -7.2595  -12.9112 C   0  0  1  0  0  0  0  0  0  0  0  0
   16.4783   -6.4290  -12.1749 C   0  0  0  0  0  0  0  0  0  0  0  0
   15.3816   -6.1070  -12.7003 O   0  0  0  0  0  0  0  0  0  0  0  0
   16.7124   -5.9745  -10.8552 N   0  0  0  0  0  0  0  0  0  0  0  0
   15.7914   -5.1480  -10.1047 C   0  0  1  0  0  0  0  0  0  0  0  0
   15.7998   -5.6891   -8.6932 C   0  0  0  0  0  0  0  0  0  0  0  0
   14.9677   -6.8737   -8.4886 C   0  0  0  0  0  0  0  0  0  0  0  0
   14.1277   -7.5231   -9.3656 C   0  0  0  0  0  0  0  0  0  0  0  0
   13.5563   -8.5786   -8.7254 N   0  0  0  0  0  0  0  0  0  0  0  0
   14.0309   -8.5893   -7.4684 C   0  0  0  0  0  0  0  0  0  0  0  0
   14.8766   -7.5666   -7.3287 N   0  0  0  0  0  0  0  0  0  0  0  0
   16.1829   -3.7392  -10.0675 C   0  0  0  0  0  0  0  0  0  0  0  0
   17.4061   -3.2491  -10.4741 O   0  0  0  0  0  0  0  0  0  0  0  0
   15.3407   -2.9022   -9.6300 O   0  0  0  0  0  0  0  0  0  0  0  0
  2  3  1  0
  2  1  1  1
  4  2  1  0
  5  4  2  0
  6  4  1  0
  7  6  1  0
  8  7  1  0
  9  8  1  0
  9 10  1  0
 10 11  1  6
 10  6  1  0
 11 13  1  0
 12 11  2  0
 13 14  1  0
 14 15  1  1
 14 21  1  0
 16 15  1  0
 17 16  2  0
 18 17  1  0
 19 18  1  0
 19 20  2  0
 20 16  1  0
 21 23  2  0
 21 22  1  0
M  END
$$$$
