APH.pdb
     RDKit          3D

 23 24  0  0  1  0  0  0  0  0999 V2000
   27.5181  -18.2190  -15.8834 C   0  0  0  0  0  0  0  0  0  0  0  0
   27.9634  -19.6746  -15.8552 C   0  0  2  0  0  0  0  0  0  0  0  0
   27.5126  -20.2874  -17.0583 N   0  0  0  0  0  0  0  0  0  0  0  0
   27.5331  -20.3606  -14.6366 C   0  0  0  0  0  0  0  0  0  0  0  0
   26.4077  -20.9349  -14.6720 O   0  0  0  0  0  0  0  0  0  0  0  0
   28.2987  -20.3976  -13.4817 N   0  0  0  0  0  0  0  0  0  0  0  0
   29.6610  -19.8401  -13.3783 C   0  0  0  0  0  0  0  0  0  0  0  0
   30.3009  -20.8656  -12.4279 C   0  0  0  0  0  0  0  0  0  0  0  0
   29.2228  -20.8529  -11.3351 C   0  0  0  0  0  0  0  0  0  0  0  0
   27.9577  -20.9513  -12.2067 C   0  0  1  0  0  0  0  0  0  0  0  0
   26.9613  -20.0865  -11.4764 C   0  0  0  0  0  0  0  0  0  0  0  0
   26.7238  -18.9034  -11.8319 O   0  0  0  0  0  0  0  0  0  0  0  0
   26.2479  -20.5720  -10.3546 N   0  0  0  0  0  0  0  0  0  0  0  0
   24.8982  -20.1747  -10.0154 C   0  0  1  0  0  0  0  0  0  0  0  0
   24.0106  -20.7439  -11.0986 C   0  0  0  0  0  0  0  0  0  0  0  0
   22.5908  -20.4268  -10.9537 C   0  0  0  0  0  0  0  0  0  0  0  0
   21.9438  -19.7066   -9.9744 C   0  0  0  0  0  0  0  0  0  0  0  0
   20.6134  -19.6798  -10.2563 N   0  0  0  0  0  0  0  0  0  0  0  0
   20.4308  -20.3720  -11.3933 C   0  0  0  0  0  0  0  0  0  0  0  0
   21.6173  -20.8189  -11.8095 N   0  0  0  0  0  0  0  0  0  0  0  0
   24.4529  -20.6969   -8.7237 C   0  0  0  0  0  0  0  0  0  0  0  0
   23.9765  -19.9274   -7.6833 O   0  0  0  0  0  0  0  0  0  0  0  0
   24.5068  -21.9479   -8.5407 O   0  0  0  0  0  0  0  0  0  0  0  0
  2  3  1  0
  2  1  1  1
  4  2  1  0
  5  4  2  0
  6  4  1  0
  7  6  1  0
  8  7  1  0
  9  8  1  0
  9 10  1  0
 10 11  1  1
 10  6  1  0
 11 13  1  0
 12 11  2  0
 13 14  1  0
 14 15  1  6
 14 21  1  0
 16 15  1  0
 17 16  2  0
 18 17  1  0
 19 18  1  0
 19 20  2  0
 20 16  1  0
 21 23  2  0
 21 22  1  0
M  END
$$$$
