APH.pdb
     RDKit          3D

 23 24  0  0  1  0  0  0  0  0999 V2000
   19.8848  -11.5370  -18.7405 C   0  0  0  0  0  0  0  0  0  0  0  0
   19.9147  -12.2723  -17.4078 C   0  0  2  0  0  0  0  0  0  0  0  0
   18.6348  -12.8639  -17.2123 N   0  0  0  0  0  0  0  0  0  0  0  0
   20.3484  -11.4081  -16.3096 C   0  0  0  0  0  0  0  0  0  0  0  0
   19.4423  -10.8148  -15.6580 O   0  0  0  0  0  0  0  0  0  0  0  0
   21.6810  -11.2268  -15.9740 N   0  0  0  0  0  0  0  0  0  0  0  0
   22.7937  -11.9815  -16.5820 C   0  0  0  0  0  0  0  0  0  0  0  0
   23.7254  -12.1151  -15.3661 C   0  0  0  0  0  0  0  0  0  0  0  0
   23.7455  -10.6395  -14.9432 C   0  0  0  0  0  0  0  0  0  0  0  0
   22.2416  -10.3192  -15.0197 C   0  0  1  0  0  0  0  0  0  0  0  0
   22.2116   -8.8982  -15.5235 C   0  0  0  0  0  0  0  0  0  0  0  0
   22.1043   -8.6307  -16.7480 O   0  0  0  0  0  0  0  0  0  0  0  0
   22.3032   -7.8001  -14.6353 N   0  0  0  0  0  0  0  0  0  0  0  0
   22.1326   -6.4184  -15.0305 C   0  0  1  0  0  0  0  0  0  0  0  0
   20.6880   -6.2804  -15.4540 C   0  0  0  0  0  0  0  0  0  0  0  0
   20.3082   -4.9413  -15.9010 C   0  0  0  0  0  0  0  0  0  0  0  0
   21.0765   -3.9517  -16.4727 C   0  0  0  0  0  0  0  0  0  0  0  0
   20.2884   -2.8702  -16.7166 N   0  0  0  0  0  0  0  0  0  0  0  0
   19.0473   -3.1779  -16.3041 C   0  0  0  0  0  0  0  0  0  0  0  0
   19.0615   -4.4197  -15.8156 N   0  0  0  0  0  0  0  0  0  0  0  0
   22.3938   -5.4737  -13.9449 C   0  0  0  0  0  0  0  0  0  0  0  0
   22.9791   -4.2348  -14.1006 O   0  0  0  0  0  0  0  0  0  0  0  0
   22.0604   -5.8128  -12.7722 O   0  0  0  0  0  0  0  0  0  0  0  0
  2  3  1  0
  2  1  1  6
  4  2  1  0
  5  4  2  0
  6  4  1  0
  7  6  1  0
  8  7  1  0
  9  8  1  0
  9 10  1  0
 10 11  1  6
 10  6  1  0
 11 13  1  0
 12 11  2  0
 13 14  1  0
 14 15  1  1
 14 21  1  0
 16 15  1  0
 17 16  2  0
 18 17  1  0
 19 18  1  0
 19 20  2  0
 20 16  1  0
 21 23  2  0
 21 22  1  0
M  END
$$$$
