APH.pdb
     RDKit          3D

 23 24  0  0  1  0  0  0  0  0999 V2000
   16.0441  -12.3295  -14.8542 C   0  0  0  0  0  0  0  0  0  0  0  0
   17.1069  -12.6915  -15.8823 C   0  0  2  0  0  0  0  0  0  0  0  0
   17.6072  -13.9821  -15.5501 N   0  0  0  0  0  0  0  0  0  0  0  0
   18.1390  -11.6608  -15.9964 C   0  0  0  0  0  0  0  0  0  0  0  0
   19.1678  -11.8008  -15.2755 O   0  0  0  0  0  0  0  0  0  0  0  0
   18.0252  -10.5703  -16.8445 N   0  0  0  0  0  0  0  0  0  0  0  0
   16.8732  -10.3374  -17.7368 C   0  0  0  0  0  0  0  0  0  0  0  0
   17.5897   -9.7114  -18.9447 C   0  0  0  0  0  0  0  0  0  0  0  0
   18.3933   -8.6419  -18.1917 C   0  0  0  0  0  0  0  0  0  0  0  0
   18.9452   -9.4900  -17.0315 C   0  0  1  0  0  0  0  0  0  0  0  0
   18.9261   -8.5380  -15.8621 C   0  0  0  0  0  0  0  0  0  0  0  0
   17.9466   -8.4734  -15.0754 O   0  0  0  0  0  0  0  0  0  0  0  0
   20.0148   -7.6729  -15.5992 N   0  0  0  0  0  0  0  0  0  0  0  0
   20.0372   -6.6954  -14.5322 C   0  0  1  0  0  0  0  0  0  0  0  0
   21.4159   -6.7792  -13.9179 C   0  0  0  0  0  0  0  0  0  0  0  0
   22.5169   -6.7066  -14.8770 C   0  0  0  0  0  0  0  0  0  0  0  0
   23.1434   -5.6063  -15.4184 C   0  0  0  0  0  0  0  0  0  0  0  0
   24.1132   -6.0300  -16.2730 N   0  0  0  0  0  0  0  0  0  0  0  0
   24.0939   -7.3734  -16.2664 C   0  0  0  0  0  0  0  0  0  0  0  0
   23.1363   -7.7768  -15.4291 N   0  0  0  0  0  0  0  0  0  0  0  0
   19.8167   -5.3276  -15.0012 C   0  0  0  0  0  0  0  0  0  0  0  0
   19.8912   -4.9231  -16.3174 O   0  0  0  0  0  0  0  0  0  0  0  0
   19.5368   -4.4443  -14.1394 O   0  0  0  0  0  0  0  0  0  0  0  0
  2  3  1  0
  2  1  1  1
  4  2  1  0
  5  4  2  0
  6  4  1  0
  7  6  1  0
  8  7  1  0
  9  8  1  0
  9 10  1  0
 10 11  1  1
 10  6  1  0
 11 13  1  0
 12 11  2  0
 13 14  1  0
 14 15  1  6
 14 21  1  0
 16 15  1  0
 17 16  2  0
 18 17  1  0
 19 18  1  0
 19 20  2  0
 20 16  1  0
 21 23  2  0
 21 22  1  0
M  END
$$$$
