APH.pdb
     RDKit          3D

 23 24  0  0  1  0  0  0  0  0999 V2000
   22.2489  -31.7805   -8.5849 C   0  0  0  0  0  0  0  0  0  0  0  0
   22.8621  -32.9879   -9.2805 C   0  0  2  0  0  0  0  0  0  0  0  0
   21.7946  -33.8025   -9.7527 N   0  0  0  0  0  0  0  0  0  0  0  0
   23.8185  -33.6914   -8.4253 C   0  0  0  0  0  0  0  0  0  0  0  0
   23.3511  -34.5786   -7.6558 O   0  0  0  0  0  0  0  0  0  0  0  0
   25.1781  -33.4219   -8.4340 N   0  0  0  0  0  0  0  0  0  0  0  0
   25.8086  -32.3936   -9.2840 C   0  0  0  0  0  0  0  0  0  0  0  0
   27.1403  -33.0906   -9.6080 C   0  0  0  0  0  0  0  0  0  0  0  0
   27.5447  -33.4659   -8.1754 C   0  0  0  0  0  0  0  0  0  0  0  0
   26.2124  -34.0436   -7.6644 C   0  0  1  0  0  0  0  0  0  0  0  0
   26.1700  -33.6036   -6.2227 C   0  0  0  0  0  0  0  0  0  0  0  0
   25.8453  -32.4331   -5.8957 O   0  0  0  0  0  0  0  0  0  0  0  0
   26.4955  -34.4936   -5.1715 N   0  0  0  0  0  0  0  0  0  0  0  0
   26.5062  -34.1283   -3.7711 C   0  0  1  0  0  0  0  0  0  0  0  0
   25.6420  -35.1493   -3.0667 C   0  0  0  0  0  0  0  0  0  0  0  0
   24.2055  -34.9877   -3.2848 C   0  0  0  0  0  0  0  0  0  0  0  0
   23.4194  -33.8617   -3.1824 C   0  0  0  0  0  0  0  0  0  0  0  0
   22.1336  -34.1964   -3.4740 N   0  0  0  0  0  0  0  0  0  0  0  0
   22.1154  -35.5103   -3.7543 C   0  0  0  0  0  0  0  0  0  0  0  0
   23.3583  -35.9825   -3.6402 N   0  0  0  0  0  0  0  0  0  0  0  0
   27.8434  -34.1597   -3.1792 C   0  0  0  0  0  0  0  0  0  0  0  0
   28.9879  -34.5601   -3.8361 O   0  0  0  0  0  0  0  0  0  0  0  0
   27.9660  -33.7936   -1.9741 O   0  0  0  0  0  0  0  0  0  0  0  0
  2  3  1  0
  2  1  1  1
  4  2  1  0
  5  4  2  0
  6  4  1  0
  7  6  1  0
  8  7  1  0
  9  8  1  0
  9 10  1  0
 10 11  1  1
 10  6  1  0
 11 13  1  0
 12 11  2  0
 13 14  1  0
 14 15  1  1
 14 21  1  0
 16 15  1  0
 17 16  2  0
 18 17  1  0
 19 18  1  0
 19 20  2  0
 20 16  1  0
 21 23  2  0
 21 22  1  0
M  END
$$$$
