APH.pdb
     RDKit          3D

 23 24  0  0  1  0  0  0  0  0999 V2000
   21.8386  -13.1492  -19.4209 C   0  0  0  0  0  0  0  0  0  0  0  0
   21.7808  -13.7398  -18.0189 C   0  0  2  0  0  0  0  0  0  0  0  0
   20.7436  -14.7146  -18.0034 N   0  0  0  0  0  0  0  0  0  0  0  0
   21.6477  -12.7082  -16.9898 C   0  0  0  0  0  0  0  0  0  0  0  0
   20.4837  -12.2665  -16.7715 O   0  0  0  0  0  0  0  0  0  0  0  0
   22.7261  -12.2168  -16.2708 N   0  0  0  0  0  0  0  0  0  0  0  0
   24.1113  -12.6997  -16.4304 C   0  0  0  0  0  0  0  0  0  0  0  0
   24.6024  -12.5961  -14.9770 C   0  0  0  0  0  0  0  0  0  0  0  0
   24.1643  -11.1509  -14.7009 C   0  0  0  0  0  0  0  0  0  0  0  0
   22.7356  -11.1909  -15.2729 C   0  0  1  0  0  0  0  0  0  0  0  0
   22.5647   -9.8229  -15.8839 C   0  0  0  0  0  0  0  0  0  0  0  0
   22.9548   -9.5645  -17.0516 O   0  0  0  0  0  0  0  0  0  0  0  0
   21.9552   -8.7667  -15.1656 N   0  0  0  0  0  0  0  0  0  0  0  0
   21.6504   -7.4694  -15.7301 C   0  0  1  0  0  0  0  0  0  0  0  0
   20.5898   -7.7096  -16.7802 C   0  0  0  0  0  0  0  0  0  0  0  0
   19.2751   -8.0664  -16.2495 C   0  0  0  0  0  0  0  0  0  0  0  0
   18.6597   -9.2959  -16.1724 C   0  0  0  0  0  0  0  0  0  0  0  0
   17.4336   -9.1378  -15.6049 N   0  0  0  0  0  0  0  0  0  0  0  0
   17.2843   -7.8309  -15.3314 C   0  0  0  0  0  0  0  0  0  0  0  0
   18.3893   -7.1906  -15.7187 N   0  0  0  0  0  0  0  0  0  0  0  0
   21.1273   -6.5227  -14.7454 C   0  0  0  0  0  0  0  0  0  0  0  0
   21.0148   -5.1623  -14.9409 O   0  0  0  0  0  0  0  0  0  0  0  0
   20.7483   -6.9800  -13.6280 O   0  0  0  0  0  0  0  0  0  0  0  0
  2  3  1  0
  2  1  1  6
  4  2  1  0
  5  4  2  0
  6  4  1  0
  7  6  1  0
  8  7  1  0
  9  8  1  0
  9 10  1  0
 10 11  1  6
 10  6  1  0
 11 13  1  0
 12 11  2  0
 13 14  1  0
 14 15  1  6
 14 21  1  0
 16 15  1  0
 17 16  2  0
 18 17  1  0
 19 18  1  0
 19 20  2  0
 20 16  1  0
 21 23  2  0
 21 22  1  0
M  END
$$$$
