APH.pdb
     RDKit          3D

 23 24  0  0  1  0  0  0  0  0999 V2000
   21.6511  -14.5741  -19.5264 C   0  0  0  0  0  0  0  0  0  0  0  0
   22.2172  -15.0970  -18.2133 C   0  0  2  0  0  0  0  0  0  0  0  0
   21.5153  -16.2912  -17.8856 N   0  0  0  0  0  0  0  0  0  0  0  0
   22.1962  -14.0822  -17.1595 C   0  0  0  0  0  0  0  0  0  0  0  0
   21.1065  -13.9269  -16.5383 O   0  0  0  0  0  0  0  0  0  0  0  0
   23.3008  -13.3109  -16.8333 N   0  0  0  0  0  0  0  0  0  0  0  0
   24.6223  -13.4519  -17.4745 C   0  0  0  0  0  0  0  0  0  0  0  0
   25.5374  -13.1630  -16.2730 C   0  0  0  0  0  0  0  0  0  0  0  0
   24.8818  -11.8549  -15.8087 C   0  0  0  0  0  0  0  0  0  0  0  0
   23.3992  -12.2663  -15.8599 C   0  0  1  0  0  0  0  0  0  0  0  0
   22.7034  -11.0111  -16.3228 C   0  0  0  0  0  0  0  0  0  0  0  0
   22.6876  -10.6694  -17.5334 O   0  0  0  0  0  0  0  0  0  0  0  0
   22.0353  -10.1603  -15.4102 N   0  0  0  0  0  0  0  0  0  0  0  0
   21.3413   -8.9478  -15.7878 C   0  0  1  0  0  0  0  0  0  0  0  0
   19.8663   -9.2705  -15.7138 C   0  0  0  0  0  0  0  0  0  0  0  0
   18.9807   -8.1657  -16.0779 C   0  0  0  0  0  0  0  0  0  0  0  0
   19.2877   -6.8780  -16.4571 C   0  0  0  0  0  0  0  0  0  0  0  0
   18.1308   -6.2029  -16.6942 N   0  0  0  0  0  0  0  0  0  0  0  0
   17.1165   -7.0543  -16.4668 C   0  0  0  0  0  0  0  0  0  0  0  0
   17.6282   -8.2301  -16.0975 N   0  0  0  0  0  0  0  0  0  0  0  0
   21.6194   -7.8242  -14.8935 C   0  0  0  0  0  0  0  0  0  0  0  0
   21.7478   -7.9189  -13.5238 O   0  0  0  0  0  0  0  0  0  0  0  0
   21.7528   -6.6763  -15.4092 O   0  0  0  0  0  0  0  0  0  0  0  0
  2  3  1  0
  2  1  1  6
  4  2  1  0
  5  4  2  0
  6  4  1  0
  7  6  1  0
  8  7  1  0
  9  8  1  0
  9 10  1  0
 10 11  1  6
 10  6  1  0
 11 13  1  0
 12 11  2  0
 13 14  1  0
 14 15  1  1
 14 21  1  0
 16 15  1  0
 17 16  2  0
 18 17  1  0
 19 18  1  0
 19 20  2  0
 20 16  1  0
 21 23  2  0
 21 22  1  0
M  END
$$$$
