APH.pdb
     RDKit          3D

 23 24  0  0  1  0  0  0  0  0999 V2000
   16.7064   -9.5547  -16.9462 C   0  0  0  0  0  0  0  0  0  0  0  0
   17.9553  -10.2434  -17.4788 C   0  0  2  0  0  0  0  0  0  0  0  0
   17.9695  -11.5704  -16.9638 N   0  0  0  0  0  0  0  0  0  0  0  0
   19.1706   -9.4791  -17.1965 C   0  0  0  0  0  0  0  0  0  0  0  0
   19.8245   -9.8067  -16.1656 O   0  0  0  0  0  0  0  0  0  0  0  0
   19.6114   -8.4396  -18.0006 N   0  0  0  0  0  0  0  0  0  0  0  0
   18.9725   -8.0552  -19.2740 C   0  0  0  0  0  0  0  0  0  0  0  0
   20.2126   -7.6447  -20.0851 C   0  0  0  0  0  0  0  0  0  0  0  0
   20.8426   -6.6960  -19.0557 C   0  0  0  0  0  0  0  0  0  0  0  0
   20.7188   -7.5584  -17.7866 C   0  0  1  0  0  0  0  0  0  0  0  0
   20.4225   -6.5498  -16.7054 C   0  0  0  0  0  0  0  0  0  0  0  0
   19.2617   -6.1047  -16.5136 O   0  0  0  0  0  0  0  0  0  0  0  0
   21.4432   -6.0590  -15.8568 N   0  0  0  0  0  0  0  0  0  0  0  0
   21.2126   -5.1719  -14.7367 C   0  0  1  0  0  0  0  0  0  0  0  0
   21.6608   -5.9274  -13.5065 C   0  0  0  0  0  0  0  0  0  0  0  0
   20.7953   -7.0426  -13.1259 C   0  0  0  0  0  0  0  0  0  0  0  0
   19.6409   -7.5044  -13.7179 C   0  0  0  0  0  0  0  0  0  0  0  0
   19.1773   -8.5665  -13.0055 N   0  0  0  0  0  0  0  0  0  0  0  0
   20.0276   -8.7658  -11.9845 C   0  0  0  0  0  0  0  0  0  0  0  0
   20.9966   -7.8513  -12.0586 N   0  0  0  0  0  0  0  0  0  0  0  0
   21.9745   -3.9264  -14.8238 C   0  0  0  0  0  0  0  0  0  0  0  0
   21.7044   -2.7840  -14.1001 O   0  0  0  0  0  0  0  0  0  0  0  0
   22.9560   -3.8875  -15.6215 O   0  0  0  0  0  0  0  0  0  0  0  0
  2  3  1  0
  2  1  1  1
  4  2  1  0
  5  4  2  0
  6  4  1  0
  7  6  1  0
  8  7  1  0
  9  8  1  0
  9 10  1  0
 10 11  1  1
 10  6  1  0
 11 13  1  0
 12 11  2  0
 13 14  1  0
 14 15  1  1
 14 21  1  0
 16 15  1  0
 17 16  2  0
 18 17  1  0
 19 18  1  0
 19 20  2  0
 20 16  1  0
 21 23  2  0
 21 22  1  0
M  END
$$$$
