APH.pdb
     RDKit          3D

 23 24  0  0  1  0  0  0  0  0999 V2000
   24.7477  -13.9000  -18.8577 C   0  0  0  0  0  0  0  0  0  0  0  0
   25.0276  -14.3001  -17.4157 C   0  0  2  0  0  0  0  0  0  0  0  0
   24.4666  -15.5920  -17.2094 N   0  0  0  0  0  0  0  0  0  0  0  0
   24.5683  -13.2892  -16.4628 C   0  0  0  0  0  0  0  0  0  0  0  0
   23.3890  -13.4117  -16.0248 O   0  0  0  0  0  0  0  0  0  0  0  0
   25.3630  -12.2350  -16.0403 N   0  0  0  0  0  0  0  0  0  0  0  0
   26.7688  -12.0483  -16.4479 C   0  0  0  0  0  0  0  0  0  0  0  0
   27.3512  -11.4657  -15.1496 C   0  0  0  0  0  0  0  0  0  0  0  0
   26.3114  -10.3598  -14.9207 C   0  0  0  0  0  0  0  0  0  0  0  0
   25.0166  -11.1554  -15.1667 C   0  0  1  0  0  0  0  0  0  0  0  0
   24.1169  -10.1570  -15.8506 C   0  0  0  0  0  0  0  0  0  0  0  0
   24.2395   -9.8812  -17.0718 O   0  0  0  0  0  0  0  0  0  0  0  0
   23.0915   -9.4849  -15.1436 N   0  0  0  0  0  0  0  0  0  0  0  0
   22.1866   -8.5259  -15.7404 C   0  0  1  0  0  0  0  0  0  0  0  0
   20.9106   -9.2818  -16.0331 C   0  0  0  0  0  0  0  0  0  0  0  0
   19.8545   -8.4809  -16.6499 C   0  0  0  0  0  0  0  0  0  0  0  0
   18.7849   -7.8356  -16.0702 C   0  0  0  0  0  0  0  0  0  0  0  0
   18.0635   -7.2195  -17.0450 N   0  0  0  0  0  0  0  0  0  0  0  0
   18.6716   -7.4751  -18.2155 C   0  0  0  0  0  0  0  0  0  0  0  0
   19.7448   -8.2313  -17.9763 N   0  0  0  0  0  0  0  0  0  0  0  0
   21.8729   -7.4042  -14.8557 C   0  0  0  0  0  0  0  0  0  0  0  0
   21.6114   -6.1170  -15.2758 O   0  0  0  0  0  0  0  0  0  0  0  0
   21.8376   -7.6247  -13.6101 O   0  0  0  0  0  0  0  0  0  0  0  0
  2  3  1  0
  2  1  1  6
  4  2  1  0
  5  4  2  0
  6  4  1  0
  7  6  1  0
  8  7  1  0
  9  8  1  0
  9 10  1  0
 10 11  1  6
 10  6  1  0
 11 13  1  0
 12 11  2  0
 13 14  1  0
 14 15  1  1
 14 21  1  0
 16 15  1  0
 17 16  2  0
 18 17  1  0
 19 18  1  0
 19 20  2  0
 20 16  1  0
 21 23  2  0
 21 22  1  0
M  END
$$$$
