VCY.pdb
     RDKit          3D

 26 26  0  0  1  0  0  0  0  0999 V2000
   28.6854  -23.8795  -20.2644 C   0  0  0  0  0  0  0  0  0  0  0  0
   28.3020  -23.4779  -18.8685 C   0  0  1  0  0  0  0  0  0  0  0  0
   27.6809  -24.6148  -18.0936 C   0  0  0  0  0  0  0  0  0  0  0  0
   29.4843  -22.8815  -18.1001 C   0  0  2  0  0  0  0  0  0  0  0  0
   30.4445  -23.9396  -17.8064 N   0  0  0  0  0  0  0  0  0  0  0  0
   28.9605  -22.2986  -16.8529 C   0  0  0  0  0  0  0  0  0  0  0  0
   29.1879  -22.8912  -15.7670 O   0  0  0  0  0  0  0  0  0  0  0  0
   28.2114  -21.1085  -16.7698 N   0  0  0  0  0  0  0  0  0  0  0  0
   27.7231  -20.5403  -15.5482 C   0  0  1  0  0  0  0  0  0  0  0  0
   28.1344  -19.1096  -15.3394 C   0  0  0  0  0  0  0  0  0  0  0  0
   27.4708  -18.4959  -13.7703 S   0  0  0  0  0  0  0  0  0  0  0  0
   26.2496  -20.6531  -15.4079 C   0  0  0  0  0  0  0  0  0  0  0  0
   25.4658  -20.1573  -16.2897 O   0  0  0  0  0  0  0  0  0  0  0  0
   18.3299  -21.2325  -11.4926 O   0  0  0  0  0  0  0  0  0  0  0  0
   19.7062  -21.2334  -11.7626 C   0  0  0  0  0  0  0  0  0  0  0  0
   20.5495  -20.2402  -11.3129 C   0  0  0  0  0  0  0  0  0  0  0  0
   21.9058  -20.2622  -11.5919 C   0  0  0  0  0  0  0  0  0  0  0  0
   22.4317  -21.2959  -12.3347 C   0  0  0  0  0  0  0  0  0  0  0  0
   23.8697  -21.3740  -12.6738 C   0  0  0  0  0  0  0  0  0  0  0  0
   24.1492  -21.1998  -14.1495 C   0  0  2  0  0  0  0  0  0  0  0  0
   25.6064  -21.3005  -14.3196 N   0  0  0  0  0  0  0  0  0  0  0  0
   23.6416  -19.9277  -14.6986 C   0  0  0  0  0  0  0  0  0  0  0  0
   24.1768  -18.8155  -14.4780 O   0  0  0  0  0  0  0  0  0  0  0  0
   21.5868  -22.2855  -12.7821 C   0  0  0  0  0  0  0  0  0  0  0  0
   20.2248  -22.2677  -12.5043 C   0  0  0  0  0  0  0  0  0  0  0  0
   22.5138  -19.9542  -15.5018 O   0  0  0  0  0  0  0  0  0  0  0  0
  2  1  1  6
  3  2  1  0
  4  2  1  0
  4  5  1  1
  6  4  1  0
  6  7  2  0
  8  6  1  0
  9  8  1  0
  9 10  1  6
 11 10  1  0
 12  9  1  0
 12 21  1  0
 13 12  2  0
 14 15  1  0
 15 25  2  0
 15 16  1  0
 16 17  2  0
 17 18  1  0
 18 19  1  0
 20 19  1  1
 20 22  1  0
 21 20  1  0
 22 23  2  0
 22 26  1  0
 24 18  2  0
 25 24  1  0
M  END
$$$$
