VCY.pdb
     RDKit          3D

 26 26  0  0  1  0  0  0  0  0999 V2000
   21.6510   -9.5498  -17.8921 C   0  0  0  0  0  0  0  0  0  0  0  0
   20.6510  -10.6661  -17.7889 C   0  0  1  0  0  0  0  0  0  0  0  0
   21.0629  -11.8819  -18.5832 C   0  0  0  0  0  0  0  0  0  0  0  0
   20.3630  -11.0428  -16.3331 C   0  0  2  0  0  0  0  0  0  0  0  0
   19.3875  -12.1269  -16.3053 N   0  0  0  0  0  0  0  0  0  0  0  0
   19.8270   -9.8482  -15.6583 C   0  0  0  0  0  0  0  0  0  0  0  0
   18.7656   -9.3333  -16.0943 O   0  0  0  0  0  0  0  0  0  0  0  0
   20.4133   -9.2200  -14.5420 N   0  0  0  0  0  0  0  0  0  0  0  0
   19.8595   -8.0841  -13.8662 C   0  0  1  0  0  0  0  0  0  0  0  0
   19.9011   -8.1920  -12.3674 C   0  0  0  0  0  0  0  0  0  0  0  0
   18.6777   -9.3998  -11.7982 S   0  0  0  0  0  0  0  0  0  0  0  0
   20.4837   -6.8036  -14.2838 C   0  0  0  0  0  0  0  0  0  0  0  0
   21.6920   -6.7678  -14.7038 O   0  0  0  0  0  0  0  0  0  0  0  0
   22.2907   -0.1763  -19.3623 O   0  0  0  0  0  0  0  0  0  0  0  0
   21.9402   -1.2878  -18.5823 C   0  0  0  0  0  0  0  0  0  0  0  0
   22.8202   -1.8835  -17.7045 C   0  0  0  0  0  0  0  0  0  0  0  0
   22.4515   -2.9807  -16.9442 C   0  0  0  0  0  0  0  0  0  0  0  0
   21.1790   -3.4942  -17.0617 C   0  0  0  0  0  0  0  0  0  0  0  0
   20.7253   -4.6683  -16.2842 C   0  0  0  0  0  0  0  0  0  0  0  0
   20.4465   -4.3555  -14.8315 C   0  0  2  0  0  0  0  0  0  0  0  0
   19.8142   -5.5513  -14.2544 N   0  0  0  0  0  0  0  0  0  0  0  0
   19.5961   -3.1651  -14.6384 C   0  0  0  0  0  0  0  0  0  0  0  0
   18.3442   -3.2092  -14.5858 O   0  0  0  0  0  0  0  0  0  0  0  0
   20.3032   -2.8971  -17.9391 C   0  0  0  0  0  0  0  0  0  0  0  0
   20.6688   -1.7956  -18.7042 C   0  0  0  0  0  0  0  0  0  0  0  0
   20.2052   -1.9283  -14.5076 O   0  0  0  0  0  0  0  0  0  0  0  0
  2  1  1  1
  3  2  1  0
  4  2  1  0
  4  5  1  6
  6  4  1  0
  6  7  2  0
  8  6  1  0
  9  8  1  0
  9 10  1  1
 11 10  1  0
 12  9  1  0
 12 21  1  0
 13 12  2  0
 14 15  1  0
 15 25  2  0
 15 16  1  0
 16 17  2  0
 17 18  1  0
 18 19  1  0
 20 19  1  6
 20 22  1  0
 21 20  1  0
 22 23  2  0
 22 26  1  0
 24 18  2  0
 25 24  1  0
M  END
$$$$
