VCY.pdb
     RDKit          3D

 26 26  0  0  1  0  0  0  0  0999 V2000
   27.2975  -12.2189  -20.5470 C   0  0  0  0  0  0  0  0  0  0  0  0
   26.1396  -11.5318  -19.8808 C   0  0  1  0  0  0  0  0  0  0  0  0
   25.1349  -11.0035  -20.8760 C   0  0  0  0  0  0  0  0  0  0  0  0
   25.4565  -12.4335  -18.8490 C   0  0  2  0  0  0  0  0  0  0  0  0
   24.8226  -13.5517  -19.5385 N   0  0  0  0  0  0  0  0  0  0  0  0
   24.4487  -11.6237  -18.1430 C   0  0  0  0  0  0  0  0  0  0  0  0
   23.3912  -11.3128  -18.7488 O   0  0  0  0  0  0  0  0  0  0  0  0
   24.5698  -11.1583  -16.8189 N   0  0  0  0  0  0  0  0  0  0  0  0
   23.5511  -10.4356  -16.1163 C   0  0  1  0  0  0  0  0  0  0  0  0
   23.1343  -11.0800  -14.8237 C   0  0  0  0  0  0  0  0  0  0  0  0
   22.7344  -12.8243  -15.1007 S   0  0  0  0  0  0  0  0  0  0  0  0
   23.9187   -9.0199  -15.8630 C   0  0  0  0  0  0  0  0  0  0  0  0
   25.1264   -8.6924  -15.5951 O   0  0  0  0  0  0  0  0  0  0  0  0
   24.4560   -0.3552  -17.0413 O   0  0  0  0  0  0  0  0  0  0  0  0
   24.2777   -1.7463  -17.0493 C   0  0  0  0  0  0  0  0  0  0  0  0
   25.3354   -2.6286  -16.9980 C   0  0  0  0  0  0  0  0  0  0  0  0
   25.1349   -3.9989  -17.0070 C   0  0  0  0  0  0  0  0  0  0  0  0
   23.8533   -4.4994  -17.0685 C   0  0  0  0  0  0  0  0  0  0  0  0
   23.5718   -5.9516  -17.0892 C   0  0  0  0  0  0  0  0  0  0  0  0
   23.4508   -6.5598  -15.7102 C   0  0  2  0  0  0  0  0  0  0  0  0
   22.9916   -7.9444  -15.8966 N   0  0  0  0  0  0  0  0  0  0  0  0
   22.5391   -5.8182  -14.8179 C   0  0  0  0  0  0  0  0  0  0  0  0
   22.9084   -4.8752  -14.0787 O   0  0  0  0  0  0  0  0  0  0  0  0
   22.7999   -3.6155  -17.1198 C   0  0  0  0  0  0  0  0  0  0  0  0
   22.9963   -2.2394  -17.1108 C   0  0  0  0  0  0  0  0  0  0  0  0
   21.2017   -6.1766  -14.7887 O   0  0  0  0  0  0  0  0  0  0  0  0
  2  1  1  6
  3  2  1  0
  4  2  1  0
  4  5  1  6
  6  4  1  0
  6  7  2  0
  8  6  1  0
  9  8  1  0
  9 10  1  1
 11 10  1  0
 12  9  1  0
 12 21  1  0
 13 12  2  0
 14 15  1  0
 15 25  2  0
 15 16  1  0
 16 17  2  0
 17 18  1  0
 18 19  1  0
 20 19  1  6
 20 22  1  0
 21 20  1  0
 22 23  2  0
 22 26  1  0
 24 18  2  0
 25 24  1  0
M  END
$$$$
