VCY.pdb
     RDKit          3D

 26 26  0  0  1  0  0  0  0  0999 V2000
   20.4011  -11.0679  -16.4580 C   0  0  0  0  0  0  0  0  0  0  0  0
   19.0760  -11.5551  -16.9714 C   0  0  1  0  0  0  0  0  0  0  0  0
   18.8905  -13.0391  -16.7657 C   0  0  0  0  0  0  0  0  0  0  0  0
   17.9063  -10.7744  -16.3661 C   0  0  2  0  0  0  0  0  0  0  0  0
   16.6573  -11.2727  -16.9313 N   0  0  0  0  0  0  0  0  0  0  0  0
   18.0943   -9.3526  -16.7021 C   0  0  0  0  0  0  0  0  0  0  0  0
   18.0708   -9.0096  -17.9119 O   0  0  0  0  0  0  0  0  0  0  0  0
   18.3017   -8.3218  -15.7646 N   0  0  0  0  0  0  0  0  0  0  0  0
   18.4762   -6.9402  -16.1028 C   0  0  1  0  0  0  0  0  0  0  0  0
   17.1879   -6.2191  -16.3856 C   0  0  0  0  0  0  0  0  0  0  0  0
   16.0091   -6.5043  -15.0409 S   0  0  0  0  0  0  0  0  0  0  0  0
   19.2452   -6.1885  -15.0794 C   0  0  0  0  0  0  0  0  0  0  0  0
   18.9760   -6.3105  -13.8343 O   0  0  0  0  0  0  0  0  0  0  0  0
   23.1545  -10.7208  -14.4842 O   0  0  0  0  0  0  0  0  0  0  0  0
   22.9837   -9.3297  -14.4343 C   0  0  0  0  0  0  0  0  0  0  0  0
   22.5870   -8.6732  -13.2892 C   0  0  0  0  0  0  0  0  0  0  0  0
   22.4250   -7.2980  -13.2636 C   0  0  0  0  0  0  0  0  0  0  0  0
   22.6636   -6.5627  -14.4034 C   0  0  0  0  0  0  0  0  0  0  0  0
   22.5015   -5.0927  -14.4444 C   0  0  0  0  0  0  0  0  0  0  0  0
   21.0645   -4.6428  -14.3079 C   0  0  2  0  0  0  0  0  0  0  0  0
   20.3104   -5.3003  -15.3857 N   0  0  0  0  0  0  0  0  0  0  0  0
   20.8983   -3.1778  -14.3669 C   0  0  0  0  0  0  0  0  0  0  0  0
   21.4242   -2.3873  -13.5480 O   0  0  0  0  0  0  0  0  0  0  0  0
   23.0593   -7.2216  -15.5447 C   0  0  0  0  0  0  0  0  0  0  0  0
   23.2234   -8.6016  -15.5751 C   0  0  0  0  0  0  0  0  0  0  0  0
   20.1211   -2.6380  -15.3781 O   0  0  0  0  0  0  0  0  0  0  0  0
  2  1  1  1
  3  2  1  0
  4  2  1  0
  4  5  1  6
  6  4  1  0
  6  7  2  0
  8  6  1  0
  9  8  1  0
  9 10  1  1
 11 10  1  0
 12  9  1  0
 12 21  1  0
 13 12  2  0
 14 15  1  0
 15 25  2  0
 15 16  1  0
 16 17  2  0
 17 18  1  0
 18 19  1  0
 20 19  1  6
 20 22  1  0
 21 20  1  0
 22 23  2  0
 22 26  1  0
 24 18  2  0
 25 24  1  0
M  END
$$$$
