VCY.pdb
     RDKit          3D

 26 26  0  0  1  0  0  0  0  0999 V2000
   20.3420  -23.0862  -21.5040 C   0  0  0  0  0  0  0  0  0  0  0  0
   20.7945  -22.2040  -20.3755 C   0  0  1  0  0  0  0  0  0  0  0  0
   21.7946  -22.8892  -19.4759 C   0  0  0  0  0  0  0  0  0  0  0  0
   21.3469  -20.8682  -20.8802 C   0  0  2  0  0  0  0  0  0  0  0  0
   22.5493  -21.1166  -21.6677 N   0  0  0  0  0  0  0  0  0  0  0  0
   21.6620  -20.0399  -19.7037 C   0  0  0  0  0  0  0  0  0  0  0  0
   22.8678  -19.7946  -19.4431 O   0  0  0  0  0  0  0  0  0  0  0  0
   20.7085  -19.4861  -18.8269 N   0  0  0  0  0  0  0  0  0  0  0  0
   21.0233  -18.6343  -17.7184 C   0  0  1  0  0  0  0  0  0  0  0  0
   20.0034  -17.5573  -17.4742 C   0  0  0  0  0  0  0  0  0  0  0  0
   20.3701  -16.1112  -18.5006 S   0  0  0  0  0  0  0  0  0  0  0  0
   21.2537  -19.3869  -16.4598 C   0  0  0  0  0  0  0  0  0  0  0  0
   20.5709  -20.4340  -16.1859 O   0  0  0  0  0  0  0  0  0  0  0  0
   24.3274  -21.5760   -8.3994 O   0  0  0  0  0  0  0  0  0  0  0  0
   24.1517  -21.0132   -9.6720 C   0  0  0  0  0  0  0  0  0  0  0  0
   24.8645  -21.4359  -10.7733 C   0  0  0  0  0  0  0  0  0  0  0  0
   24.6739  -20.8650  -12.0206 C   0  0  0  0  0  0  0  0  0  0  0  0
   23.7534  -19.8518  -12.1724 C   0  0  0  0  0  0  0  0  0  0  0  0
   23.5081  -19.1953  -13.4753 C   0  0  0  0  0  0  0  0  0  0  0  0
   22.3299  -19.7727  -14.2265 C   0  0  2  0  0  0  0  0  0  0  0  0
   22.2205  -19.0209  -15.4857 N   0  0  0  0  0  0  0  0  0  0  0  0
   21.0648  -19.7179  -13.4690 C   0  0  0  0  0  0  0  0  0  0  0  0
   20.6656  -20.6403  -12.7194 O   0  0  0  0  0  0  0  0  0  0  0  0
   23.0438  -19.4323  -11.0707 C   0  0  0  0  0  0  0  0  0  0  0  0
   23.2317  -20.0024   -9.8169 C   0  0  0  0  0  0  0  0  0  0  0  0
   20.2689  -18.5906  -13.5864 O   0  0  0  0  0  0  0  0  0  0  0  0
  2  1  1  6
  3  2  1  0
  4  2  1  0
  4  5  1  1
  6  4  1  0
  6  7  2  0
  8  6  1  0
  9  8  1  0
  9 10  1  1
 11 10  1  0
 12  9  1  0
 12 21  1  0
 13 12  2  0
 14 15  1  0
 15 25  2  0
 15 16  1  0
 16 17  2  0
 17 18  1  0
 18 19  1  0
 20 19  1  1
 20 22  1  0
 21 20  1  0
 22 23  2  0
 22 26  1  0
 24 18  2  0
 25 24  1  0
M  END
$$$$
