VCY.pdb
     RDKit          3D

 26 26  0  0  1  0  0  0  0  0999 V2000
   17.8203  -13.1683  -17.3886 C   0  0  0  0  0  0  0  0  0  0  0  0
   17.9649  -11.7675  -16.8657 C   0  0  1  0  0  0  0  0  0  0  0  0
   18.1014  -10.7515  -17.9739 C   0  0  0  0  0  0  0  0  0  0  0  0
   16.8203  -11.3885  -15.9221 C   0  0  2  0  0  0  0  0  0  0  0  0
   15.5685  -11.3789  -16.6709 N   0  0  0  0  0  0  0  0  0  0  0  0
   17.1093  -10.0490  -15.3817 C   0  0  0  0  0  0  0  0  0  0  0  0
   16.7885   -9.0410  -16.0621 O   0  0  0  0  0  0  0  0  0  0  0  0
   17.7265   -9.7945  -14.1412 N   0  0  0  0  0  0  0  0  0  0  0  0
   18.0440   -8.4879  -13.6456 C   0  0  1  0  0  0  0  0  0  0  0  0
   17.6794   -8.2833  -12.2017 C   0  0  0  0  0  0  0  0  0  0  0  0
   15.9652   -8.7924  -11.9165 S   0  0  0  0  0  0  0  0  0  0  0  0
   19.4690   -8.1246  -13.8485 C   0  0  0  0  0  0  0  0  0  0  0  0
   20.3694   -9.0282  -13.9501 O   0  0  0  0  0  0  0  0  0  0  0  0
   26.2170   -5.4998  -18.4152 O   0  0  0  0  0  0  0  0  0  0  0  0
   25.0672   -5.9186  -17.7299 C   0  0  0  0  0  0  0  0  0  0  0  0
   25.1121   -6.8282  -16.6954 C   0  0  0  0  0  0  0  0  0  0  0  0
   23.9631   -7.2270  -16.0330 C   0  0  0  0  0  0  0  0  0  0  0  0
   22.7444   -6.7080  -16.4103 C   0  0  0  0  0  0  0  0  0  0  0  0
   21.4799   -7.0984  -15.7490 C   0  0  0  0  0  0  0  0  0  0  0  0
   21.3199   -6.5115  -14.3647 C   0  0  2  0  0  0  0  0  0  0  0  0
   19.9377   -6.7873  -13.9448 N   0  0  0  0  0  0  0  0  0  0  0  0
   21.6112   -5.0664  -14.3009 C   0  0  0  0  0  0  0  0  0  0  0  0
   22.7603   -4.5986  -14.1197 O   0  0  0  0  0  0  0  0  0  0  0  0
   22.7035   -5.8003  -17.4436 C   0  0  0  0  0  0  0  0  0  0  0  0
   23.8542   -5.3969  -18.1112 C   0  0  0  0  0  0  0  0  0  0  0  0
   20.5649   -4.1711  -14.4479 O   0  0  0  0  0  0  0  0  0  0  0  0
  2  1  1  6
  3  2  1  0
  4  2  1  0
  4  5  1  6
  6  4  1  0
  6  7  2  0
  8  6  1  0
  9  8  1  0
  9 10  1  1
 11 10  1  0
 12  9  1  0
 12 21  1  0
 13 12  2  0
 14 15  1  0
 15 25  2  0
 15 16  1  0
 16 17  2  0
 17 18  1  0
 18 19  1  0
 20 19  1  6
 20 22  1  0
 21 20  1  0
 22 23  2  0
 22 26  1  0
 24 18  2  0
 25 24  1  0
M  END
$$$$
