VCY.pdb
     RDKit          3D

 26 26  0  0  1  0  0  0  0  0999 V2000
   28.1636  -17.5375  -17.7662 C   0  0  0  0  0  0  0  0  0  0  0  0
   27.7516  -18.4999  -16.6887 C   0  0  1  0  0  0  0  0  0  0  0  0
   26.2686  -18.7816  -16.7062 C   0  0  0  0  0  0  0  0  0  0  0  0
   28.5510  -19.8041  -16.7509 C   0  0  2  0  0  0  0  0  0  0  0  0
   28.2140  -20.5117  -17.9811 N   0  0  0  0  0  0  0  0  0  0  0  0
   28.1851  -20.6110  -15.5741 C   0  0  0  0  0  0  0  0  0  0  0  0
   27.1362  -21.3038  -15.6191 O   0  0  0  0  0  0  0  0  0  0  0  0
   28.9252  -20.6756  -14.3772 N   0  0  0  0  0  0  0  0  0  0  0  0
   28.4924  -21.3530  -13.1909 C   0  0  1  0  0  0  0  0  0  0  0  0
   29.5913  -21.5852  -12.1917 C   0  0  0  0  0  0  0  0  0  0  0  0
   29.8397  -20.0998  -11.1863 S   0  0  0  0  0  0  0  0  0  0  0  0
   27.3552  -20.6737  -12.5210 C   0  0  0  0  0  0  0  0  0  0  0  0
   27.2447  -19.3990  -12.5448 O   0  0  0  0  0  0  0  0  0  0  0  0
   19.1459  -18.9584   -9.8457 O   0  0  0  0  0  0  0  0  0  0  0  0
   20.3307  -19.5048  -10.3600 C   0  0  0  0  0  0  0  0  0  0  0  0
   20.9012  -19.0628  -11.5343 C   0  0  0  0  0  0  0  0  0  0  0  0
   22.0722  -19.6178  -12.0228 C   0  0  0  0  0  0  0  0  0  0  0  0
   22.6868  -20.6344  -11.3259 C   0  0  0  0  0  0  0  0  0  0  0  0
   23.9344  -21.2745  -11.7974 C   0  0  0  0  0  0  0  0  0  0  0  0
   25.1864  -20.6179  -11.2609 C   0  0  2  0  0  0  0  0  0  0  0  0
   26.3266  -21.3589  -11.8208 N   0  0  0  0  0  0  0  0  0  0  0  0
   25.2502  -20.5885   -9.7870 C   0  0  0  0  0  0  0  0  0  0  0  0
   25.7248  -21.5204   -9.0954 O   0  0  0  0  0  0  0  0  0  0  0  0
   22.1143  -21.0731  -10.1541 C   0  0  0  0  0  0  0  0  0  0  0  0
   20.9391  -20.5190   -9.6598 C   0  0  0  0  0  0  0  0  0  0  0  0
   24.7616  -19.4754   -9.1235 O   0  0  0  0  0  0  0  0  0  0  0  0
  2  1  1  6
  3  2  1  0
  4  2  1  0
  4  5  1  6
  6  4  1  0
  6  7  2  0
  8  6  1  0
  9  8  1  0
  9 10  1  1
 11 10  1  0
 12  9  1  0
 12 21  1  0
 13 12  2  0
 14 15  1  0
 15 25  2  0
 15 16  1  0
 16 17  2  0
 17 18  1  0
 18 19  1  0
 20 19  1  1
 20 22  1  0
 21 20  1  0
 22 23  2  0
 22 26  1  0
 24 18  2  0
 25 24  1  0
M  END
$$$$
