LIL.pdb
     RDKit          3D

 25 24  0  0  1  0  0  0  0  0999 V2000
   21.1615  -18.7921  -13.4155 C   0  0  0  0  0  0  0  0  0  0  0  0
   20.7075  -20.1442  -12.9119 C   0  0  2  0  0  0  0  0  0  0  0  0
   19.4700  -19.9056  -12.0680 C   0  0  0  0  0  0  0  0  0  0  0  0
   21.7375  -20.8363  -12.0899 C   0  0  0  0  0  0  0  0  0  0  0  0
   23.1000  -20.8645  -12.7269 C   0  0  2  0  0  0  0  0  0  0  0  0
   23.0682  -21.8020  -13.8339 N   0  0  0  0  0  0  0  0  0  0  0  0
   24.1684  -21.3087  -11.7999 C   0  0  0  0  0  0  0  0  0  0  0  0
   24.1964  -22.4748  -11.3311 O   0  0  0  0  0  0  0  0  0  0  0  0
   29.1540  -21.4677  -13.2419 C   0  0  0  0  0  0  0  0  0  0  0  0
   27.8245  -21.5419  -12.5747 C   0  0  0  0  0  0  0  0  0  0  0  0
   27.6646  -20.8389  -11.2919 C   0  0  2  0  0  0  0  0  0  0  0  0
   28.7253  -21.3461  -10.3375 C   0  0  0  0  0  0  0  0  0  0  0  0
   26.3475  -20.8311  -10.6241 C   0  0  2  0  0  0  0  0  0  0  0  0
   25.2219  -20.3994  -11.4043 N   0  0  0  0  0  0  0  0  0  0  0  0
   26.3748  -20.1750   -9.2785 C   0  0  0  0  0  0  0  0  0  0  0  0
   26.1114  -18.9509   -9.1586 O   0  0  0  0  0  0  0  0  0  0  0  0
   28.9903  -19.5978   -4.7573 C   0  0  0  0  0  0  0  0  0  0  0  0
   27.7687  -20.4943   -4.4273 C   0  0  2  0  0  0  0  0  0  0  0  0
   28.2008  -21.5017   -3.3778 C   0  0  0  0  0  0  0  0  0  0  0  0
   27.3620  -21.0941   -5.7337 C   0  0  0  0  0  0  0  0  0  0  0  0
   26.9744  -20.1759   -6.8211 C   0  0  2  0  0  0  0  0  0  0  0  0
   26.6914  -20.8738   -8.0850 N   0  0  0  0  0  0  0  0  0  0  0  0
   27.9331  -19.0877   -7.0403 C   0  0  0  0  0  0  0  0  0  0  0  0
   28.9860  -19.2825   -7.6630 O   0  0  0  0  0  0  0  0  0  0  0  0
   27.6540  -17.8300   -6.5408 O   0  0  0  0  0  0  0  0  0  0  0  0
  2  1  1  1
  3  2  1  0
  4  2  1  0
  4  5  1  0
  5  6  1  6
  7  5  1  0
  7  8  2  0
  9 10  1  0
 11 13  1  0
 11 10  1  0
 11 12  1  1
 13 14  1  6
 14  7  1  0
 15 13  1  0
 16 15  2  0
 18 17  1  6
 18 20  1  0
 19 18  1  0
 21 20  1  1
 21 23  1  0
 21 22  1  0
 22 15  1  0
 23 25  1  0
 24 23  2  0
M  END
$$$$
