LIL.pdb
     RDKit          3D

 25 24  0  0  1  0  0  0  0  0999 V2000
   19.6081  -18.6281  -11.0775 C   0  0  0  0  0  0  0  0  0  0  0  0
   20.5985  -19.1897  -12.0732 C   0  0  2  0  0  0  0  0  0  0  0  0
   19.7891  -19.8489  -13.1737 C   0  0  0  0  0  0  0  0  0  0  0  0
   21.5227  -20.1914  -11.4749 C   0  0  0  0  0  0  0  0  0  0  0  0
   22.7902  -20.3889  -12.2606 C   0  0  2  0  0  0  0  0  0  0  0  0
   22.5181  -21.3168  -13.3424 N   0  0  0  0  0  0  0  0  0  0  0  0
   23.8943  -20.9605  -11.4528 C   0  0  0  0  0  0  0  0  0  0  0  0
   23.8722  -22.1507  -11.0488 O   0  0  0  0  0  0  0  0  0  0  0  0
   28.5330  -21.7242  -13.4675 C   0  0  0  0  0  0  0  0  0  0  0  0
   27.2936  -21.5579  -12.6585 C   0  0  0  0  0  0  0  0  0  0  0  0
   27.4094  -20.8595  -11.3684 C   0  0  2  0  0  0  0  0  0  0  0  0
   28.5427  -21.4909  -10.5872 C   0  0  0  0  0  0  0  0  0  0  0  0
   26.2190  -20.7195  -10.5059 C   0  0  2  0  0  0  0  0  0  0  0  0
   25.0425  -20.1528  -11.1030 N   0  0  0  0  0  0  0  0  0  0  0  0
   26.5244  -20.0949   -9.1797 C   0  0  0  0  0  0  0  0  0  0  0  0
   25.8553  -19.1135   -8.7661 O   0  0  0  0  0  0  0  0  0  0  0  0
   28.0390  -18.1333   -5.0191 C   0  0  0  0  0  0  0  0  0  0  0  0
   26.9479  -19.2117   -4.7925 C   0  0  2  0  0  0  0  0  0  0  0  0
   27.4509  -20.1655   -3.7246 C   0  0  0  0  0  0  0  0  0  0  0  0
   26.7340  -19.8364   -6.1325 C   0  0  0  0  0  0  0  0  0  0  0  0
   27.8830  -19.8945   -7.0556 C   0  0  2  0  0  0  0  0  0  0  0  0
   27.5607  -20.5581   -8.3285 N   0  0  0  0  0  0  0  0  0  0  0  0
   29.0856  -20.4860   -6.4595 C   0  0  0  0  0  0  0  0  0  0  0  0
   29.6731  -19.9270   -5.5233 O   0  0  0  0  0  0  0  0  0  0  0  0
   29.5669  -21.6828   -6.9548 O   0  0  0  0  0  0  0  0  0  0  0  0
  2  1  1  1
  3  2  1  0
  4  2  1  0
  4  5  1  0
  5  6  1  6
  7  5  1  0
  7  8  2  0
  9 10  1  0
 11 13  1  0
 11 10  1  0
 11 12  1  1
 13 14  1  6
 14  7  1  0
 15 13  1  0
 16 15  2  0
 18 17  1  6
 18 20  1  0
 19 18  1  0
 21 20  1  1
 21 23  1  0
 21 22  1  0
 22 15  1  0
 23 25  1  0
 24 23  2  0
M  END
$$$$
