LIL.pdb
     RDKit          3D

 25 24  0  0  1  0  0  0  0  0999 V2000
   29.2752  -19.1066  -16.0884 C   0  0  0  0  0  0  0  0  0  0  0  0
   27.8508  -18.6107  -16.2026 C   0  0  2  0  0  0  0  0  0  0  0  0
   27.9033  -17.2926  -16.9512 C   0  0  0  0  0  0  0  0  0  0  0  0
   27.1988  -18.4003  -14.8811 C   0  0  0  0  0  0  0  0  0  0  0  0
   27.4128  -19.5330  -13.9147 C   0  0  2  0  0  0  0  0  0  0  0  0
   26.8412  -20.7374  -14.4875 N   0  0  0  0  0  0  0  0  0  0  0  0
   26.7586  -19.3120  -12.6027 C   0  0  0  0  0  0  0  0  0  0  0  0
   26.6244  -18.1613  -12.1147 O   0  0  0  0  0  0  0  0  0  0  0  0
   21.7710  -20.7954  -11.7165 C   0  0  0  0  0  0  0  0  0  0  0  0
   23.1647  -20.2702  -11.7282 C   0  0  0  0  0  0  0  0  0  0  0  0
   24.0778  -20.7348  -10.6718 C   0  0  2  0  0  0  0  0  0  0  0  0
   23.4180  -20.4868   -9.3316 C   0  0  0  0  0  0  0  0  0  0  0  0
   25.4712  -20.2463  -10.6460 C   0  0  2  0  0  0  0  0  0  0  0  0
   26.2502  -20.4301  -11.8382 N   0  0  0  0  0  0  0  0  0  0  0  0
   26.2206  -20.6725   -9.4218 C   0  0  0  0  0  0  0  0  0  0  0  0
   26.5400  -21.8776   -9.2549 O   0  0  0  0  0  0  0  0  0  0  0  0
   29.0477  -18.1698   -4.5259 C   0  0  0  0  0  0  0  0  0  0  0  0
   28.6326  -19.5255   -5.1542 C   0  0  2  0  0  0  0  0  0  0  0  0
   29.8853  -20.3670   -5.3146 C   0  0  0  0  0  0  0  0  0  0  0  0
   27.9554  -19.1688   -6.4371 C   0  0  0  0  0  0  0  0  0  0  0  0
   27.1961  -20.2259   -7.1312 C   0  0  2  0  0  0  0  0  0  0  0  0
   26.6074  -19.7680   -8.3994 N   0  0  0  0  0  0  0  0  0  0  0  0
   26.1748  -20.8621   -6.2924 C   0  0  0  0  0  0  0  0  0  0  0  0
   24.9887  -20.5115   -6.3572 O   0  0  0  0  0  0  0  0  0  0  0  0
   26.5471  -21.8648   -5.4176 O   0  0  0  0  0  0  0  0  0  0  0  0
  2  1  1  1
  3  2  1  0
  4  2  1  0
  4  5  1  0
  5  6  1  6
  7  5  1  0
  7  8  2  0
  9 10  1  0
 11 13  1  0
 11 10  1  0
 11 12  1  1
 13 14  1  6
 14  7  1  0
 15 13  1  0
 16 15  2  0
 18 17  1  6
 18 20  1  0
 19 18  1  0
 21 20  1  1
 21 23  1  0
 21 22  1  0
 22 15  1  0
 23 25  1  0
 24 23  2  0
M  END
$$$$
