LIL.pdb
     RDKit          3D

 25 24  0  0  1  0  0  0  0  0999 V2000
   37.5168  -27.3020    3.2837 C   0  0  0  0  0  0  0  0  0  0  0  0
   38.2310  -27.1285    4.6057 C   0  0  2  0  0  0  0  0  0  0  0  0
   38.2122  -28.4792    5.2955 C   0  0  0  0  0  0  0  0  0  0  0  0
   37.5877  -26.1167    5.4877 C   0  0  0  0  0  0  0  0  0  0  0  0
   37.5315  -24.7392    4.8860 C   0  0  2  0  0  0  0  0  0  0  0  0
   38.8832  -24.2170    4.8111 N   0  0  0  0  0  0  0  0  0  0  0  0
   36.7307  -23.7840    5.6888 C   0  0  0  0  0  0  0  0  0  0  0  0
   37.2519  -23.0693    6.5820 O   0  0  0  0  0  0  0  0  0  0  0  0
   31.8235  -21.5370    3.7308 C   0  0  0  0  0  0  0  0  0  0  0  0
   33.1550  -21.7186    4.3730 C   0  0  0  0  0  0  0  0  0  0  0  0
   33.1928  -22.3650    5.6944 C   0  0  2  0  0  0  0  0  0  0  0  0
   32.4564  -21.4790    6.6772 C   0  0  0  0  0  0  0  0  0  0  0  0
   34.4893  -22.7823    6.2650 C   0  0  2  0  0  0  0  0  0  0  0  0
   35.3083  -23.6470    5.4628 N   0  0  0  0  0  0  0  0  0  0  0  0
   34.3801  -23.2723    7.6756 C   0  0  0  0  0  0  0  0  0  0  0  0
   33.9787  -24.4394    7.9177 O   0  0  0  0  0  0  0  0  0  0  0  0
   36.1019  -21.6681   13.2182 C   0  0  0  0  0  0  0  0  0  0  0  0
   35.7391  -22.9697   12.4572 C   0  0  2  0  0  0  0  0  0  0  0  0
   36.7421  -24.0367   12.8556 C   0  0  0  0  0  0  0  0  0  0  0  0
   35.7706  -22.5965   11.0110 C   0  0  0  0  0  0  0  0  0  0  0  0
   34.6155  -22.9782   10.1769 C   0  0  2  0  0  0  0  0  0  0  0  0
   34.7133  -22.4721    8.7989 N   0  0  0  0  0  0  0  0  0  0  0  0
   33.3215  -22.6161   10.7650 C   0  0  0  0  0  0  0  0  0  0  0  0
   32.7623  -21.5517   10.4674 O   0  0  0  0  0  0  0  0  0  0  0  0
   32.7234  -23.4771   11.6651 O   0  0  0  0  0  0  0  0  0  0  0  0
  2  1  1  6
  3  2  1  0
  4  2  1  0
  4  5  1  0
  5  6  1  1
  7  5  1  0
  7  8  2  0
  9 10  1  0
 11 13  1  0
 11 10  1  0
 11 12  1  1
 13 14  1  6
 14  7  1  0
 15 13  1  0
 16 15  2  0
 18 17  1  1
 18 20  1  0
 19 18  1  0
 21 20  1  1
 21 23  1  0
 21 22  1  0
 22 15  1  0
 23 25  1  0
 24 23  2  0
M  END
$$$$
