LIL.pdb
     RDKit          3D

 25 24  0  0  1  0  0  0  0  0999 V2000
   29.1455  -21.3481  -16.3912 C   0  0  0  0  0  0  0  0  0  0  0  0
   27.9118  -21.6095  -17.2265 C   0  0  2  0  0  0  0  0  0  0  0  0
   27.7641  -20.4327  -18.1719 C   0  0  0  0  0  0  0  0  0  0  0  0
   26.6735  -21.7442  -16.4115 C   0  0  0  0  0  0  0  0  0  0  0  0
   26.8332  -22.6399  -15.2136 C   0  0  2  0  0  0  0  0  0  0  0  0
   26.8633  -24.0162  -15.6720 N   0  0  0  0  0  0  0  0  0  0  0  0
   25.7190  -22.5198  -14.2427 C   0  0  0  0  0  0  0  0  0  0  0  0
   24.6980  -23.2499  -14.3123 O   0  0  0  0  0  0  0  0  0  0  0  0
   26.4192  -20.5935   -8.8853 C   0  0  0  0  0  0  0  0  0  0  0  0
   26.0444  -21.3146  -10.1334 C   0  0  0  0  0  0  0  0  0  0  0  0
   24.9825  -20.7290  -10.9670 C   0  0  2  0  0  0  0  0  0  0  0  0
   23.7219  -20.6360  -10.1332 C   0  0  0  0  0  0  0  0  0  0  0  0
   24.6746  -21.3271  -12.2817 C   0  0  2  0  0  0  0  0  0  0  0  0
   25.7778  -21.5459  -13.1745 N   0  0  0  0  0  0  0  0  0  0  0  0
   23.5235  -20.6650  -12.9734 C   0  0  0  0  0  0  0  0  0  0  0  0
   23.6365  -19.4977  -13.4280 O   0  0  0  0  0  0  0  0  0  0  0  0
   18.8998  -21.4917  -15.8942 C   0  0  0  0  0  0  0  0  0  0  0  0
   20.1593  -20.6813  -16.2968 C   0  0  2  0  0  0  0  0  0  0  0  0
   20.4246  -20.9349  -17.7694 C   0  0  0  0  0  0  0  0  0  0  0  0
   21.2382  -21.1580  -15.3801 C   0  0  0  0  0  0  0  0  0  0  0  0
   21.2027  -20.6989  -13.9788 C   0  0  2  0  0  0  0  0  0  0  0  0
   22.2655  -21.2955  -13.1547 N   0  0  0  0  0  0  0  0  0  0  0  0
   19.8961  -20.8754  -13.3362 C   0  0  0  0  0  0  0  0  0  0  0  0
   19.6766  -21.8430  -12.5949 O   0  0  0  0  0  0  0  0  0  0  0  0
   18.8987  -19.9472  -13.5664 O   0  0  0  0  0  0  0  0  0  0  0  0
  2  1  1  1
  3  2  1  0
  4  2  1  0
  4  5  1  0
  5  6  1  6
  7  5  1  0
  7  8  2  0
  9 10  1  0
 11 13  1  0
 11 10  1  0
 11 12  1  1
 13 14  1  6
 14  7  1  0
 15 13  1  0
 16 15  2  0
 18 17  1  1
 18 20  1  0
 19 18  1  0
 21 20  1  6
 21 23  1  0
 21 22  1  0
 22 15  1  0
 23 25  1  0
 24 23  2  0
M  END
$$$$
