LIL.pdb
     RDKit          3D

 25 24  0  0  1  0  0  0  0  0999 V2000
   20.2750  -20.8463  -18.4538 C   0  0  0  0  0  0  0  0  0  0  0  0
   20.9600  -19.9867  -17.4147 C   0  0  2  0  0  0  0  0  0  0  0  0
   21.2914  -18.6672  -18.0854 C   0  0  0  0  0  0  0  0  0  0  0  0
   22.2101  -20.5969  -16.8850 C   0  0  0  0  0  0  0  0  0  0  0  0
   22.4297  -20.3472  -15.4179 C   0  0  2  0  0  0  0  0  0  0  0  0
   22.5203  -18.9146  -15.2061 N   0  0  0  0  0  0  0  0  0  0  0  0
   23.6822  -20.9518  -14.9043 C   0  0  0  0  0  0  0  0  0  0  0  0
   23.9366  -22.1741  -15.0507 O   0  0  0  0  0  0  0  0  0  0  0  0
   28.6828  -18.4004  -15.1915 C   0  0  0  0  0  0  0  0  0  0  0  0
   27.5032  -19.3085  -15.1447 C   0  0  0  0  0  0  0  0  0  0  0  0
   27.0940  -19.8282  -13.8302 C   0  0  2  0  0  0  0  0  0  0  0  0
   28.2838  -20.5251  -13.2042 C   0  0  0  0  0  0  0  0  0  0  0  0
   25.8957  -20.6849  -13.7258 C   0  0  2  0  0  0  0  0  0  0  0  0
   24.6588  -20.1401  -14.2110 N   0  0  0  0  0  0  0  0  0  0  0  0
   25.7352  -21.3088  -12.3742 C   0  0  0  0  0  0  0  0  0  0  0  0
   26.7030  -21.8895  -11.8192 O   0  0  0  0  0  0  0  0  0  0  0  0
   26.2015  -21.7948   -8.0658 C   0  0  0  0  0  0  0  0  0  0  0  0
   26.6790  -20.6720   -9.0230 C   0  0  2  0  0  0  0  0  0  0  0  0
   27.4263  -19.6420   -8.1960 C   0  0  0  0  0  0  0  0  0  0  0  0
   25.4356  -20.1616   -9.6750 C   0  0  0  0  0  0  0  0  0  0  0  0
   24.4716  -21.1530  -10.1885 C   0  0  2  0  0  0  0  0  0  0  0  0
   24.5134  -21.2855  -11.6532 N   0  0  0  0  0  0  0  0  0  0  0  0
   23.0960  -20.9243   -9.7338 C   0  0  0  0  0  0  0  0  0  0  0  0
   22.2757  -20.3403  -10.4551 O   0  0  0  0  0  0  0  0  0  0  0  0
   22.7158  -21.3667   -8.4813 O   0  0  0  0  0  0  0  0  0  0  0  0
  2  1  1  6
  3  2  1  0
  4  2  1  0
  4  5  1  0
  5  6  1  6
  7  5  1  0
  7  8  2  0
  9 10  1  0
 11 13  1  0
 11 10  1  0
 11 12  1  6
 13 14  1  1
 14  7  1  0
 15 13  1  0
 16 15  2  0
 18 17  1  1
 18 20  1  0
 19 18  1  0
 21 20  1  6
 21 23  1  0
 21 22  1  0
 22 15  1  0
 23 25  1  0
 24 23  2  0
M  END
$$$$
