PGL.pdb
     RDKit          3D

 20 20  0  0  1  0  0  0  0  0999 V2000
    7.8032  -15.1549   19.7064 N   0  0  0  0  0  0  0  0  0  0  0  0
    6.6142  -14.5378   20.2371 C   0  0  0  0  0  0  0  0  0  0  0  0
    6.8039  -13.0565   20.2061 C   0  0  0  0  0  0  0  0  0  0  0  0
    8.2758  -12.8402   19.8415 C   0  0  0  0  0  0  0  0  0  0  0  0
    8.8890  -14.2158   19.8923 C   0  0  1  0  0  0  0  0  0  0  0  0
    9.5654  -14.5211   21.1479 C   0  0  0  0  0  0  0  0  0  0  0  0
   10.4548  -13.7319   21.5818 O   0  0  0  0  0  0  0  0  0  0  0  0
    9.2069  -15.7117   21.8646 N   0  0  0  0  0  0  0  0  0  0  0  0
   10.0919  -16.3040   22.8335 C   0  0  0  0  0  0  0  0  0  0  0  0
    9.6414  -15.9557   24.2006 C   0  0  0  0  0  0  0  0  0  0  0  0
   10.4294  -16.1463   25.1971 O   0  0  0  0  0  0  0  0  0  0  0  0
    8.1768  -12.2924   25.8301 C   0  0  0  0  0  0  0  0  0  0  0  0
    7.0068  -13.0015   26.5825 C   0  0  1  0  0  0  0  0  0  0  0  0
    5.8319  -12.0426   26.3671 C   0  0  0  0  0  0  0  0  0  0  0  0
    6.8084  -14.3388   25.9819 C   0  0  0  0  0  0  0  0  0  0  0  0
    7.9604  -15.2581   25.9507 C   0  0  2  0  0  0  0  0  0  0  0  0
    8.3819  -15.4191   24.5174 N   0  0  0  0  0  0  0  0  0  0  0  0
    7.7977  -16.6105   26.4405 C   0  0  0  0  0  0  0  0  0  0  0  0
    7.9368  -16.9426   27.6387 O   0  0  0  0  0  0  0  0  0  0  0  0
    7.4609  -17.6617   25.5578 O   0  0  0  0  0  0  0  0  0  0  0  0
  2  1  1  0
  3  2  1  0
  3  4  1  0
  5  1  1  0
  5  4  1  0
  5  6  1  1
  7  6  2  0
  8  6  1  0
  9 10  1  0
  9  8  1  0
 10 17  1  0
 11 10  2  0
 13 12  1  6
 13 15  1  0
 13 14  1  0
 16 15  1  6
 16 18  1  0
 17 16  1  0
 18 20  1  0
 19 18  2  0
M  END
$$$$
