PGL.pdb
     RDKit          3D

 20 20  0  0  1  0  0  0  0  0999 V2000
    9.1509  -14.7212   18.9571 N   0  0  0  0  0  0  0  0  0  0  0  0
    8.0688  -14.6054   18.0128 C   0  0  0  0  0  0  0  0  0  0  0  0
    7.4700  -13.2442   18.1540 C   0  0  0  0  0  0  0  0  0  0  0  0
    8.1144  -12.6420   19.4063 C   0  0  0  0  0  0  0  0  0  0  0  0
    8.8873  -13.7787   20.0237 C   0  0  1  0  0  0  0  0  0  0  0  0
    8.1791  -14.4681   21.0964 C   0  0  0  0  0  0  0  0  0  0  0  0
    7.2677  -13.8596   21.7299 O   0  0  0  0  0  0  0  0  0  0  0  0
    8.5320  -15.8233   21.4101 N   0  0  0  0  0  0  0  0  0  0  0  0
    7.9745  -16.5032   22.5503 C   0  0  0  0  0  0  0  0  0  0  0  0
    8.4693  -15.8760   23.7973 C   0  0  0  0  0  0  0  0  0  0  0  0
    9.7333  -15.8081   24.0161 O   0  0  0  0  0  0  0  0  0  0  0  0
    5.5098  -12.1795   26.8480 C   0  0  0  0  0  0  0  0  0  0  0  0
    6.6681  -12.7886   25.9964 C   0  0  1  0  0  0  0  0  0  0  0  0
    7.6458  -11.6171   25.8631 C   0  0  0  0  0  0  0  0  0  0  0  0
    7.2205  -13.9521   26.7243 C   0  0  0  0  0  0  0  0  0  0  0  0
    8.2548  -14.7583   26.0513 C   0  0  2  0  0  0  0  0  0  0  0  0
    7.6500  -15.3316   24.8008 N   0  0  0  0  0  0  0  0  0  0  0  0
    8.8220  -15.8974   26.7413 C   0  0  0  0  0  0  0  0  0  0  0  0
    9.7618  -15.8210   27.5636 O   0  0  0  0  0  0  0  0  0  0  0  0
    8.3241  -17.2004   26.5128 O   0  0  0  0  0  0  0  0  0  0  0  0
  2  1  1  0
  3  2  1  0
  3  4  1  0
  5  1  1  0
  5  4  1  0
  5  6  1  1
  7  6  2  0
  8  6  1  0
  9 10  1  0
  9  8  1  0
 10 17  1  0
 11 10  2  0
 13 12  1  1
 13 15  1  0
 13 14  1  0
 16 15  1  1
 16 18  1  0
 17 16  1  0
 18 20  1  0
 19 18  2  0
M  END
$$$$
