PGL.pdb
     RDKit          3D

 20 20  0  0  1  0  0  0  0  0999 V2000
    7.5631  -15.1195   20.0235 N   0  0  0  0  0  0  0  0  0  0  0  0
    6.5158  -14.4118   20.7153 C   0  0  0  0  0  0  0  0  0  0  0  0
    6.7919  -12.9478   20.6071 C   0  0  0  0  0  0  0  0  0  0  0  0
    8.1974  -12.8399   20.0077 C   0  0  0  0  0  0  0  0  0  0  0  0
    8.7221  -14.2525   20.0051 C   0  0  1  0  0  0  0  0  0  0  0  0
    9.5697  -14.5758   21.1472 C   0  0  0  0  0  0  0  0  0  0  0  0
   10.5371  -13.8130   21.4380 O   0  0  0  0  0  0  0  0  0  0  0  0
    9.2875  -15.7536   21.9171 N   0  0  0  0  0  0  0  0  0  0  0  0
   10.2278  -16.2702   22.8773 C   0  0  0  0  0  0  0  0  0  0  0  0
    9.7380  -16.0042   24.2494 C   0  0  0  0  0  0  0  0  0  0  0  0
   10.4999  -16.2486   25.2544 O   0  0  0  0  0  0  0  0  0  0  0  0
    5.7297  -12.2968   25.6938 C   0  0  0  0  0  0  0  0  0  0  0  0
    7.0959  -13.0503   25.6317 C   0  0  1  0  0  0  0  0  0  0  0  0
    7.9686  -12.2551   26.6075 C   0  0  0  0  0  0  0  0  0  0  0  0
    6.8721  -14.4560   26.0347 C   0  0  0  0  0  0  0  0  0  0  0  0
    8.0229  -15.3764   25.9929 C   0  0  2  0  0  0  0  0  0  0  0  0
    8.4669  -15.4930   24.5620 N   0  0  0  0  0  0  0  0  0  0  0  0
    7.8501  -16.7432   26.4370 C   0  0  0  0  0  0  0  0  0  0  0  0
    7.4966  -17.6826   25.6902 O   0  0  0  0  0  0  0  0  0  0  0  0
    8.0810  -17.0981   27.7856 O   0  0  0  0  0  0  0  0  0  0  0  0
  2  1  1  0
  3  2  1  0
  3  4  1  0
  5  1  1  0
  5  4  1  0
  5  6  1  1
  7  6  2  0
  8  6  1  0
  9 10  1  0
  9  8  1  0
 10 17  1  0
 11 10  2  0
 13 12  1  1
 13 15  1  0
 13 14  1  0
 16 15  1  6
 16 18  1  0
 17 16  1  0
 18 20  1  0
 19 18  2  0
M  END
$$$$
