PGL.pdb
     RDKit          3D

 20 20  0  0  1  0  0  0  0  0999 V2000
    7.7305  -14.7153   18.5329 N   0  0  0  0  0  0  0  0  0  0  0  0
    6.8375  -13.7012   19.0332 C   0  0  0  0  0  0  0  0  0  0  0  0
    7.6275  -12.4534   19.2576 C   0  0  0  0  0  0  0  0  0  0  0  0
    9.0936  -12.8605   19.0812 C   0  0  0  0  0  0  0  0  0  0  0  0
    9.0636  -14.3632   18.9736 C   0  0  1  0  0  0  0  0  0  0  0  0
    9.3436  -15.0565   20.2259 C   0  0  0  0  0  0  0  0  0  0  0  0
   10.4880  -14.9446   20.7550 O   0  0  0  0  0  0  0  0  0  0  0  0
    8.3134  -15.8514   20.8313 N   0  0  0  0  0  0  0  0  0  0  0  0
    8.5697  -16.6578   21.9963 C   0  0  0  0  0  0  0  0  0  0  0  0
    8.7493  -15.7846   23.1789 C   0  0  0  0  0  0  0  0  0  0  0  0
    9.9346  -15.4920   23.5784 O   0  0  0  0  0  0  0  0  0  0  0  0
    7.4189  -11.2177   26.2906 C   0  0  0  0  0  0  0  0  0  0  0  0
    6.9614  -12.6710   26.6319 C   0  0  1  0  0  0  0  0  0  0  0  0
    5.5737  -12.4569   27.2439 C   0  0  0  0  0  0  0  0  0  0  0  0
    6.9509  -13.4625   25.3820 C   0  0  0  0  0  0  0  0  0  0  0  0
    7.9873  -14.4970   25.2128 C   0  0  2  0  0  0  0  0  0  0  0  0
    7.7010  -15.2300   23.9326 N   0  0  0  0  0  0  0  0  0  0  0  0
    8.1162  -15.5371   26.2113 C   0  0  0  0  0  0  0  0  0  0  0  0
    7.4226  -16.5781   26.2313 O   0  0  0  0  0  0  0  0  0  0  0  0
    9.0668  -15.4249   27.2512 O   0  0  0  0  0  0  0  0  0  0  0  0
  2  1  1  0
  3  2  1  0
  3  4  1  0
  5  1  1  0
  5  4  1  0
  5  6  1  1
  7  6  2  0
  8  6  1  0
  9 10  1  0
  9  8  1  0
 10 17  1  0
 11 10  2  0
 13 12  1  6
 13 15  1  0
 13 14  1  0
 16 15  1  1
 16 18  1  0
 17 16  1  0
 18 20  1  0
 19 18  2  0
M  END
$$$$
