PGL.pdb
     RDKit          3D

 20 20  0  0  1  0  0  0  0  0999 V2000
    8.3748  -18.5547   19.6892 N   0  0  0  0  0  0  0  0  0  0  0  0
    7.3117  -18.7166   18.7302 C   0  0  0  0  0  0  0  0  0  0  0  0
    7.7214  -18.0428   17.4615 C   0  0  0  0  0  0  0  0  0  0  0  0
    8.9973  -17.2675   17.8038 C   0  0  0  0  0  0  0  0  0  0  0  0
    9.1217  -17.3769   19.3016 C   0  0  1  0  0  0  0  0  0  0  0  0
    8.5973  -16.2267   20.0291 C   0  0  0  0  0  0  0  0  0  0  0  0
    9.0066  -15.0659   19.7336 O   0  0  0  0  0  0  0  0  0  0  0  0
    7.6273  -16.4370   21.0657 N   0  0  0  0  0  0  0  0  0  0  0  0
    7.0189  -15.3347   21.7642 C   0  0  0  0  0  0  0  0  0  0  0  0
    7.7826  -15.0430   22.9991 C   0  0  0  0  0  0  0  0  0  0  0  0
    9.0467  -14.8261   22.9279 O   0  0  0  0  0  0  0  0  0  0  0  0
    5.4622  -11.8276   26.8214 C   0  0  0  0  0  0  0  0  0  0  0  0
    6.5733  -12.3137   25.8380 C   0  0  1  0  0  0  0  0  0  0  0  0
    7.6352  -11.2160   25.9537 C   0  0  0  0  0  0  0  0  0  0  0  0
    7.0372  -13.6470   26.2804 C   0  0  0  0  0  0  0  0  0  0  0  0
    7.9977  -14.3626   25.4211 C   0  0  2  0  0  0  0  0  0  0  0  0
    7.2286  -14.9833   24.2891 N   0  0  0  0  0  0  0  0  0  0  0  0
    8.7711  -15.4507   25.9807 C   0  0  0  0  0  0  0  0  0  0  0  0
    9.7613  -15.2933   26.7291 O   0  0  0  0  0  0  0  0  0  0  0  0
    8.4339  -16.7943   25.7000 O   0  0  0  0  0  0  0  0  0  0  0  0
  2  1  1  0
  3  2  1  0
  3  4  1  0
  5  1  1  0
  5  4  1  0
  5  6  1  1
  7  6  2  0
  8  6  1  0
  9 10  1  0
  9  8  1  0
 10 17  1  0
 11 10  2  0
 13 12  1  1
 13 15  1  0
 13 14  1  0
 16 15  1  1
 16 18  1  0
 17 16  1  0
 18 20  1  0
 19 18  2  0
M  END
$$$$
