PGL.pdb
     RDKit          3D

 20 20  0  0  1  0  0  0  0  0999 V2000
    7.6695  -14.9229   19.5905 N   0  0  0  0  0  0  0  0  0  0  0  0
    6.5492  -14.1859   20.1175 C   0  0  0  0  0  0  0  0  0  0  0  0
    6.8716  -12.7293   20.0410 C   0  0  0  0  0  0  0  0  0  0  0  0
    8.3515  -12.6579   19.6520 C   0  0  0  0  0  0  0  0  0  0  0  0
    8.8384  -14.0815   19.7354 C   0  0  1  0  0  0  0  0  0  0  0  0
    9.5032  -14.4117   20.9909 C   0  0  0  0  0  0  0  0  0  0  0  0
   10.5063  -13.7334   21.3594 O   0  0  0  0  0  0  0  0  0  0  0  0
    9.0042  -15.5004   21.7819 N   0  0  0  0  0  0  0  0  0  0  0  0
    9.8750  -16.2888   22.6145 C   0  0  0  0  0  0  0  0  0  0  0  0
    9.6448  -15.9523   24.0382 C   0  0  0  0  0  0  0  0  0  0  0  0
   10.5649  -16.1873   24.9033 O   0  0  0  0  0  0  0  0  0  0  0  0
    5.6097  -12.4885   26.0238 C   0  0  0  0  0  0  0  0  0  0  0  0
    7.0251  -13.0988   25.7745 C   0  0  1  0  0  0  0  0  0  0  0  0
    7.9430  -12.1688   26.5737 C   0  0  0  0  0  0  0  0  0  0  0  0
    7.0214  -14.4977   26.2557 C   0  0  0  0  0  0  0  0  0  0  0  0
    8.2322  -15.3075   26.0293 C   0  0  2  0  0  0  0  0  0  0  0  0
    8.4657  -15.3813   24.5466 N   0  0  0  0  0  0  0  0  0  0  0  0
    8.2537  -16.6848   26.4741 C   0  0  0  0  0  0  0  0  0  0  0  0
    8.5532  -17.0408   27.6356 O   0  0  0  0  0  0  0  0  0  0  0  0
    7.9249  -17.7347   25.5868 O   0  0  0  0  0  0  0  0  0  0  0  0
  2  1  1  0
  3  2  1  0
  3  4  1  0
  5  1  1  0
  5  4  1  0
  5  6  1  1
  7  6  2  0
  8  6  1  0
  9 10  1  0
  9  8  1  0
 10 17  1  0
 11 10  2  0
 13 12  1  1
 13 15  1  0
 13 14  1  0
 16 15  1  6
 16 18  1  0
 17 16  1  0
 18 20  1  0
 19 18  2  0
M  END
$$$$
