PGL.pdb
     RDKit          3D

 20 20  0  0  1  0  0  0  0  0999 V2000
    7.6099  -14.8326   19.4580 N   0  0  0  0  0  0  0  0  0  0  0  0
    6.5057  -14.0865   20.0056 C   0  0  0  0  0  0  0  0  0  0  0  0
    6.9105  -12.6513   20.0936 C   0  0  0  0  0  0  0  0  0  0  0  0
    8.4102  -12.6296   19.7825 C   0  0  0  0  0  0  0  0  0  0  0  0
    8.8139  -14.0808   19.7419 C   0  0  1  0  0  0  0  0  0  0  0  0
    9.3938  -14.5735   20.9862 C   0  0  0  0  0  0  0  0  0  0  0  0
   10.4262  -14.0112   21.4554 O   0  0  0  0  0  0  0  0  0  0  0  0
    8.7797  -15.6867   21.6520 N   0  0  0  0  0  0  0  0  0  0  0  0
    9.5308  -16.5515   22.5244 C   0  0  0  0  0  0  0  0  0  0  0  0
    9.3399  -16.1302   23.9313 C   0  0  0  0  0  0  0  0  0  0  0  0
   10.2828  -16.3161   24.7837 O   0  0  0  0  0  0  0  0  0  0  0  0
    5.8325  -12.2002   25.9190 C   0  0  0  0  0  0  0  0  0  0  0  0
    7.1540  -13.0143   25.7498 C   0  0  1  0  0  0  0  0  0  0  0  0
    8.1274  -12.2815   26.6781 C   0  0  0  0  0  0  0  0  0  0  0  0
    6.8915  -14.4166   26.1413 C   0  0  0  0  0  0  0  0  0  0  0  0
    7.9614  -15.4060   25.9190 C   0  0  2  0  0  0  0  0  0  0  0  0
    8.1759  -15.5264   24.4365 N   0  0  0  0  0  0  0  0  0  0  0  0
    7.7705  -16.7666   26.3748 C   0  0  0  0  0  0  0  0  0  0  0  0
    7.1978  -17.6552   25.7057 O   0  0  0  0  0  0  0  0  0  0  0  0
    8.2390  -17.1744   27.6444 O   0  0  0  0  0  0  0  0  0  0  0  0
  2  1  1  0
  3  2  1  0
  3  4  1  0
  5  1  1  0
  5  4  1  0
  5  6  1  1
  7  6  2  0
  8  6  1  0
  9 10  1  0
  9  8  1  0
 10 17  1  0
 11 10  2  0
 13 12  1  1
 13 15  1  0
 13 14  1  0
 16 15  1  6
 16 18  1  0
 17 16  1  0
 18 20  1  0
 19 18  2  0
M  END
$$$$
