PGL.pdb
     RDKit          3D

 20 20  0  0  1  0  0  0  0  0999 V2000
    7.9202  -14.6306   18.2904 N   0  0  0  0  0  0  0  0  0  0  0  0
    7.0533  -13.4816   18.3563 C   0  0  0  0  0  0  0  0  0  0  0  0
    7.8216  -12.3515   18.9597 C   0  0  0  0  0  0  0  0  0  0  0  0
    9.1289  -12.9696   19.4648 C   0  0  0  0  0  0  0  0  0  0  0  0
    8.9362  -14.4557   19.3065 C   0  0  1  0  0  0  0  0  0  0  0  0
    8.5059  -15.1342   20.5238 C   0  0  0  0  0  0  0  0  0  0  0  0
    7.3130  -14.9953   20.9235 O   0  0  0  0  0  0  0  0  0  0  0  0
    9.4465  -15.9457   21.2426 N   0  0  0  0  0  0  0  0  0  0  0  0
    9.0601  -16.6920   22.4117 C   0  0  0  0  0  0  0  0  0  0  0  0
    9.0837  -15.8077   23.5995 C   0  0  0  0  0  0  0  0  0  0  0  0
   10.2044  -15.3479   24.0269 O   0  0  0  0  0  0  0  0  0  0  0  0
    7.8371  -11.7783   26.8264 C   0  0  0  0  0  0  0  0  0  0  0  0
    6.7400  -12.8877   26.8856 C   0  0  1  0  0  0  0  0  0  0  0  0
    5.4396  -12.0795   26.9286 C   0  0  0  0  0  0  0  0  0  0  0  0
    6.8762  -13.7430   25.6861 C   0  0  0  0  0  0  0  0  0  0  0  0
    8.0911  -14.5686   25.5628 C   0  0  2  0  0  0  0  0  0  0  0  0
    7.9489  -15.4151   24.3294 N   0  0  0  0  0  0  0  0  0  0  0  0
    8.4177  -15.5058   26.6166 C   0  0  0  0  0  0  0  0  0  0  0  0
    9.2482  -15.2774   27.5240 O   0  0  0  0  0  0  0  0  0  0  0  0
    7.7916  -16.7716   26.6757 O   0  0  0  0  0  0  0  0  0  0  0  0
  2  1  1  0
  3  2  1  0
  3  4  1  0
  5  1  1  0
  5  4  1  0
  5  6  1  1
  7  6  2  0
  8  6  1  0
  9 10  1  0
  9  8  1  0
 10 17  1  0
 11 10  2  0
 13 12  1  6
 13 15  1  0
 13 14  1  0
 16 15  1  1
 16 18  1  0
 17 16  1  0
 18 20  1  0
 19 18  2  0
M  END
$$$$
