PGL.pdb
     RDKit          3D

 20 20  0  0  1  0  0  0  0  0999 V2000
    7.3644  -16.0460   20.8108 N   0  0  0  0  0  0  0  0  0  0  0  0
    6.5977  -14.8263   20.7843 C   0  0  0  0  0  0  0  0  0  0  0  0
    6.9082  -14.1077   19.5121 C   0  0  0  0  0  0  0  0  0  0  0  0
    8.0870  -14.8644   18.8923 C   0  0  0  0  0  0  0  0  0  0  0  0
    8.5137  -15.8446   19.9542 C   0  0  1  0  0  0  0  0  0  0  0  0
    9.6344  -15.3901   20.7696 C   0  0  0  0  0  0  0  0  0  0  0  0
   10.7093  -15.0336   20.2041 O   0  0  0  0  0  0  0  0  0  0  0  0
    9.4931  -15.3572   22.1974 N   0  0  0  0  0  0  0  0  0  0  0  0
   10.6355  -15.4350   23.0703 C   0  0  0  0  0  0  0  0  0  0  0  0
   10.1962  -15.3201   24.4799 C   0  0  0  0  0  0  0  0  0  0  0  0
   11.0708  -15.3306   25.4208 O   0  0  0  0  0  0  0  0  0  0  0  0
    7.9922  -12.5052   25.3001 C   0  0  0  0  0  0  0  0  0  0  0  0
    7.3433  -13.0263   26.6211 C   0  0  1  0  0  0  0  0  0  0  0  0
    5.9828  -12.3228   26.6335 C   0  0  0  0  0  0  0  0  0  0  0  0
    7.2559  -14.5014   26.5478 C   0  0  0  0  0  0  0  0  0  0  0  0
    8.5069  -15.2570   26.3555 C   0  0  2  0  0  0  0  0  0  0  0  0
    8.8593  -15.1996   24.8958 N   0  0  0  0  0  0  0  0  0  0  0  0
    8.5385  -16.6659   26.6864 C   0  0  0  0  0  0  0  0  0  0  0  0
    8.4258  -17.1147   27.8488 O   0  0  0  0  0  0  0  0  0  0  0  0
    8.7036  -17.6406   25.6762 O   0  0  0  0  0  0  0  0  0  0  0  0
  2  1  1  0
  3  2  1  0
  3  4  1  0
  5  1  1  0
  5  4  1  0
  5  6  1  1
  7  6  2  0
  8  6  1  0
  9 10  1  0
  9  8  1  0
 10 17  1  0
 11 10  2  0
 13 12  1  6
 13 15  1  0
 13 14  1  0
 16 15  1  6
 16 18  1  0
 17 16  1  0
 18 20  1  0
 19 18  2  0
M  END
$$$$
