PGL.pdb
     RDKit          3D

 20 20  0  0  1  0  0  0  0  0999 V2000
    8.5171  -14.8534   19.1213 N   0  0  0  0  0  0  0  0  0  0  0  0
    7.2829  -14.4649   18.4873 C   0  0  0  0  0  0  0  0  0  0  0  0
    7.0794  -13.0033   18.7190 C   0  0  0  0  0  0  0  0  0  0  0  0
    8.1537  -12.5964   19.7322 C   0  0  0  0  0  0  0  0  0  0  0  0
    8.7728  -13.8963   20.1768 C   0  0  1  0  0  0  0  0  0  0  0  0
    8.2311  -14.4181   21.4264 C   0  0  0  0  0  0  0  0  0  0  0  0
    7.6671  -13.6264   22.2372 O   0  0  0  0  0  0  0  0  0  0  0  0
    8.3498  -15.8201   21.7094 N   0  0  0  0  0  0  0  0  0  0  0  0
    9.4298  -16.3396   22.5074 C   0  0  0  0  0  0  0  0  0  0  0  0
    9.2232  -15.9730   23.9273 C   0  0  0  0  0  0  0  0  0  0  0  0
   10.2212  -15.9770   24.7361 O   0  0  0  0  0  0  0  0  0  0  0  0
    5.6452  -12.3567   26.2713 C   0  0  0  0  0  0  0  0  0  0  0  0
    6.9419  -13.1483   25.9112 C   0  0  1  0  0  0  0  0  0  0  0  0
    8.0123  -12.4526   26.7575 C   0  0  0  0  0  0  0  0  0  0  0  0
    6.7320  -14.5708   26.2592 C   0  0  0  0  0  0  0  0  0  0  0  0
    7.8277  -15.5170   25.9816 C   0  0  2  0  0  0  0  0  0  0  0  0
    7.9876  -15.6112   24.4904 N   0  0  0  0  0  0  0  0  0  0  0  0
    7.7048  -16.8893   26.4258 C   0  0  0  0  0  0  0  0  0  0  0  0
    7.1391  -17.7902   25.7674 O   0  0  0  0  0  0  0  0  0  0  0  0
    8.2376  -17.2950   27.6705 O   0  0  0  0  0  0  0  0  0  0  0  0
  2  1  1  0
  3  2  1  0
  3  4  1  0
  5  1  1  0
  5  4  1  0
  5  6  1  1
  7  6  2  0
  8  6  1  0
  9 10  1  0
  9  8  1  0
 10 17  1  0
 11 10  2  0
 13 12  1  1
 13 15  1  0
 13 14  1  0
 16 15  1  6
 16 18  1  0
 17 16  1  0
 18 20  1  0
 19 18  2  0
M  END
$$$$
