TMA.pdb
     RDKit          3D

 21 20  0  0  1  0  0  0  0  0999 V2000
   22.2857  -21.9987  -15.4693 C   0  0  0  0  0  0  0  0  0  0  0  0
   21.1447  -21.1516  -14.9462 C   0  0  1  0  0  0  0  0  0  0  0  0
   19.9357  -21.6838  -15.3632 O   0  0  0  0  0  0  0  0  0  0  0  0
   21.2454  -21.0931  -13.4378 C   0  0  2  0  0  0  0  0  0  0  0  0
   20.1335  -20.3348  -12.9253 N   0  0  0  0  0  0  0  0  0  0  0  0
   22.5507  -20.5494  -12.9908 C   0  0  0  0  0  0  0  0  0  0  0  0
   22.8746  -19.3739  -13.2995 O   0  0  0  0  0  0  0  0  0  0  0  0
   27.3981  -19.1785   -7.8098 C   0  0  0  0  0  0  0  0  0  0  0  0
   26.0976  -20.1292   -8.5900 S   0  0  0  0  0  0  0  0  0  0  0  0
   26.5748  -20.9677  -10.0896 C   0  0  0  0  0  0  0  0  0  0  0  0
   25.4737  -21.6722  -10.8057 C   0  0  0  0  0  0  0  0  0  0  0  0
   24.8233  -20.9104  -11.9132 C   0  0  2  0  0  0  0  0  0  0  0  0
   23.4886  -21.2820  -12.2165 N   0  0  0  0  0  0  0  0  0  0  0  0
   25.6945  -20.8578  -13.0916 C   0  0  0  0  0  0  0  0  0  0  0  0
   25.8407  -21.8784  -13.8010 O   0  0  0  0  0  0  0  0  0  0  0  0
   28.0187  -18.2823  -14.5008 C   0  0  0  0  0  0  0  0  0  0  0  0
   27.2422  -19.5751  -14.6159 C   0  0  2  0  0  0  0  0  0  0  0  0
   26.3809  -19.6717  -13.4513 N   0  0  0  0  0  0  0  0  0  0  0  0
   28.2317  -20.6835  -14.6736 C   0  0  0  0  0  0  0  0  0  0  0  0
   28.6040  -21.3106  -13.6409 O   0  0  0  0  0  0  0  0  0  0  0  0
   28.7413  -21.0138  -15.9102 O   0  0  0  0  0  0  0  0  0  0  0  0
  2  3  1  0
  2  4  1  0
  2  1  1  1
  4  5  1  6
  6  4  1  0
  6  7  2  0
  9  8  1  0
  9 10  1  0
 10 11  1  0
 12 11  1  1
 12 13  1  0
 12 14  1  0
 13  6  1  0
 14 15  2  0
 14 18  1  0
 17 16  1  1
 17 19  1  0
 18 17  1  0
 19 20  2  0
 19 21  1  0
M  END
$$$$
