TMA.pdb
     RDKit          3D

 21 20  0  0  1  0  0  0  0  0999 V2000
   29.0242  -18.8988  -13.9668 C   0  0  0  0  0  0  0  0  0  0  0  0
   27.6619  -19.2875  -14.5015 C   0  0  1  0  0  0  0  0  0  0  0  0
   27.5399  -18.8763  -15.8187 O   0  0  0  0  0  0  0  0  0  0  0  0
   27.5029  -20.7854  -14.3609 C   0  0  2  0  0  0  0  0  0  0  0  0
   26.2652  -21.1832  -14.9806 N   0  0  0  0  0  0  0  0  0  0  0  0
   27.5889  -21.2209  -12.9459 C   0  0  0  0  0  0  0  0  0  0  0  0
   28.6435  -21.0127  -12.2930 O   0  0  0  0  0  0  0  0  0  0  0  0
   27.7626  -20.2093   -6.7214 C   0  0  0  0  0  0  0  0  0  0  0  0
   26.6668  -19.2277   -7.7410 S   0  0  0  0  0  0  0  0  0  0  0  0
   25.7467  -20.1487   -8.9595 C   0  0  0  0  0  0  0  0  0  0  0  0
   26.5270  -20.5894  -10.1503 C   0  0  0  0  0  0  0  0  0  0  0  0
   25.7673  -21.3593  -11.1799 C   0  0  2  0  0  0  0  0  0  0  0  0
   26.5351  -21.8752  -12.2550 N   0  0  0  0  0  0  0  0  0  0  0  0
   24.5810  -20.6161  -11.6165 C   0  0  0  0  0  0  0  0  0  0  0  0
   24.6917  -19.4182  -11.9616 O   0  0  0  0  0  0  0  0  0  0  0  0
   22.1964  -21.3658  -13.7731 C   0  0  0  0  0  0  0  0  0  0  0  0
   22.1916  -20.6846  -12.4228 C   0  0  2  0  0  0  0  0  0  0  0  0
   23.3018  -21.2237  -11.6584 N   0  0  0  0  0  0  0  0  0  0  0  0
   20.8801  -20.9736  -11.7845 C   0  0  0  0  0  0  0  0  0  0  0  0
   20.7711  -21.7313  -10.7784 O   0  0  0  0  0  0  0  0  0  0  0  0
   19.7645  -20.3796  -12.3327 O   0  0  0  0  0  0  0  0  0  0  0  0
  2  3  1  0
  2  4  1  0
  2  1  1  6
  4  5  1  1
  6  4  1  0
  6  7  2  0
  9  8  1  0
  9 10  1  0
 10 11  1  0
 12 11  1  6
 12 13  1  0
 12 14  1  0
 13  6  1  0
 14 15  2  0
 14 18  1  0
 17 16  1  6
 17 19  1  0
 18 17  1  0
 19 20  2  0
 19 21  1  0
M  END
$$$$
