TMA.pdb
     RDKit          3D

 21 20  0  0  1  0  0  0  0  0999 V2000
   16.9762   -9.7453  -19.8446 C   0  0  0  0  0  0  0  0  0  0  0  0
   17.8761   -9.3232  -18.7023 C   0  0  1  0  0  0  0  0  0  0  0  0
   17.1070   -8.9452  -17.6139 O   0  0  0  0  0  0  0  0  0  0  0  0
   18.7978  -10.4756  -18.3690 C   0  0  2  0  0  0  0  0  0  0  0  0
   18.0015  -11.6238  -18.0201 N   0  0  0  0  0  0  0  0  0  0  0  0
   19.7675  -10.1193  -17.3050 C   0  0  0  0  0  0  0  0  0  0  0  0
   19.4597  -10.2935  -16.0979 O   0  0  0  0  0  0  0  0  0  0  0  0
   26.8554  -10.3818  -14.6367 C   0  0  0  0  0  0  0  0  0  0  0  0
   26.0775   -9.6698  -16.0831 S   0  0  0  0  0  0  0  0  0  0  0  0
   24.4106   -9.0886  -15.8315 C   0  0  0  0  0  0  0  0  0  0  0  0
   23.4181   -9.5345  -16.8500 C   0  0  0  0  0  0  0  0  0  0  0  0
   22.0012   -9.1355  -16.5988 C   0  0  2  0  0  0  0  0  0  0  0  0
   21.0561   -9.5797  -17.5585 N   0  0  0  0  0  0  0  0  0  0  0  0
   21.9069   -7.7009  -16.3104 C   0  0  0  0  0  0  0  0  0  0  0  0
   21.9625   -6.8746  -17.2486 O   0  0  0  0  0  0  0  0  0  0  0  0
   21.3675   -5.6991  -13.1838 C   0  0  0  0  0  0  0  0  0  0  0  0
   21.7086   -5.8092  -14.6531 C   0  0  2  0  0  0  0  0  0  0  0  0
   21.7528   -7.2215  -14.9860 N   0  0  0  0  0  0  0  0  0  0  0  0
   23.0238   -5.1453  -14.8544 C   0  0  0  0  0  0  0  0  0  0  0  0
   24.0791   -5.7976  -15.0978 O   0  0  0  0  0  0  0  0  0  0  0  0
   23.0596   -3.7710  -14.7661 O   0  0  0  0  0  0  0  0  0  0  0  0
  2  3  1  0
  2  4  1  0
  2  1  1  6
  4  5  1  1
  6  4  1  0
  6  7  2  0
  9  8  1  0
  9 10  1  0
 10 11  1  0
 12 11  1  6
 12 13  1  0
 12 14  1  0
 13  6  1  0
 14 15  2  0
 14 18  1  0
 17 16  1  1
 17 19  1  0
 18 17  1  0
 19 20  2  0
 19 21  1  0
M  END
$$$$
