TMA.pdb
     RDKit          3D

 21 20  0  0  1  0  0  0  0  0999 V2000
   20.5961  -36.0553  -12.2000 C   0  0  0  0  0  0  0  0  0  0  0  0
   21.7883  -36.8556  -12.6806 C   0  0  1  0  0  0  0  0  0  0  0  0
   21.7232  -37.0151  -14.0551 O   0  0  0  0  0  0  0  0  0  0  0  0
   23.0495  -36.1366  -12.2549 C   0  0  2  0  0  0  0  0  0  0  0  0
   24.1892  -36.8459  -12.7763 N   0  0  0  0  0  0  0  0  0  0  0  0
   23.1190  -35.9646  -10.7836 C   0  0  0  0  0  0  0  0  0  0  0  0
   23.3270  -36.9639  -10.0487 O   0  0  0  0  0  0  0  0  0  0  0  0
   26.7214  -32.5144   -6.1906 C   0  0  0  0  0  0  0  0  0  0  0  0
   26.6009  -32.5959   -7.9746 S   0  0  0  0  0  0  0  0  0  0  0  0
   25.4100  -33.7690   -8.5953 C   0  0  0  0  0  0  0  0  0  0  0  0
   23.9884  -33.4762   -8.2565 C   0  0  0  0  0  0  0  0  0  0  0  0
   22.9857  -34.4773   -8.7278 C   0  0  2  0  0  0  0  0  0  0  0  0
   22.9629  -34.7161  -10.1256 N   0  0  0  0  0  0  0  0  0  0  0  0
   21.6618  -34.1941   -8.1644 C   0  0  0  0  0  0  0  0  0  0  0  0
   20.9402  -33.3153   -8.6871 O   0  0  0  0  0  0  0  0  0  0  0  0
   19.7080  -35.5856   -5.2765 C   0  0  0  0  0  0  0  0  0  0  0  0
   19.9105  -34.5831   -6.3906 C   0  0  2  0  0  0  0  0  0  0  0  0
   21.1738  -34.8955   -7.0342 N   0  0  0  0  0  0  0  0  0  0  0  0
   19.9160  -33.2299   -5.7745 C   0  0  0  0  0  0  0  0  0  0  0  0
   20.9836  -32.6560   -5.4148 O   0  0  0  0  0  0  0  0  0  0  0  0
   18.6992  -32.6070   -5.6033 O   0  0  0  0  0  0  0  0  0  0  0  0
  2  3  1  0
  2  4  1  0
  2  1  1  6
  4  5  1  1
  6  4  1  0
  6  7  2  0
  9  8  1  0
  9 10  1  0
 10 11  1  0
 12 11  1  6
 12 13  1  0
 12 14  1  0
 13  6  1  0
 14 15  2  0
 14 18  1  0
 17 16  1  1
 17 19  1  0
 18 17  1  0
 19 20  2  0
 19 21  1  0
M  END
$$$$
