TMA.pdb
     RDKit          3D

 21 20  0  0  1  0  0  0  0  0999 V2000
   26.5421  -17.5474  -15.1027 C   0  0  0  0  0  0  0  0  0  0  0  0
   27.1941  -18.5088  -16.0741 C   0  0  1  0  0  0  0  0  0  0  0  0
   28.0649  -17.8203  -16.9027 O   0  0  0  0  0  0  0  0  0  0  0  0
   27.9024  -19.5839  -15.2795 C   0  0  2  0  0  0  0  0  0  0  0  0
   28.6698  -20.4021  -16.1827 N   0  0  0  0  0  0  0  0  0  0  0  0
   26.9567  -20.3825  -14.4628 C   0  0  0  0  0  0  0  0  0  0  0  0
   26.2647  -21.2792  -15.0098 O   0  0  0  0  0  0  0  0  0  0  0  0
   26.4017  -19.8998   -7.6911 C   0  0  0  0  0  0  0  0  0  0  0  0
   25.2395  -21.1794   -8.1559 S   0  0  0  0  0  0  0  0  0  0  0  0
   24.9945  -21.3715   -9.9117 C   0  0  0  0  0  0  0  0  0  0  0  0
   26.0101  -20.7046  -10.7750 C   0  0  0  0  0  0  0  0  0  0  0  0
   25.7911  -20.8194  -12.2477 C   0  0  2  0  0  0  0  0  0  0  0  0
   26.7709  -20.2024  -13.0668 N   0  0  0  0  0  0  0  0  0  0  0  0
   24.4180  -20.4454  -12.6013 C   0  0  0  0  0  0  0  0  0  0  0  0
   24.0587  -19.2498  -12.5138 O   0  0  0  0  0  0  0  0  0  0  0  0
   21.7919  -22.0654  -14.6047 C   0  0  0  0  0  0  0  0  0  0  0  0
   22.1558  -21.0654  -13.5300 C   0  0  2  0  0  0  0  0  0  0  0  0
   23.4794  -21.4102  -13.0435 N   0  0  0  0  0  0  0  0  0  0  0  0
   21.1242  -21.1646  -12.4638 C   0  0  0  0  0  0  0  0  0  0  0  0
   21.3784  -21.6409  -11.3206 O   0  0  0  0  0  0  0  0  0  0  0  0
   19.8577  -20.7131  -12.7640 O   0  0  0  0  0  0  0  0  0  0  0  0
  2  3  1  0
  2  4  1  0
  2  1  1  1
  4  5  1  6
  6  4  1  0
  6  7  2  0
  9  8  1  0
  9 10  1  0
 10 11  1  0
 12 11  1  1
 12 13  1  0
 12 14  1  0
 13  6  1  0
 14 15  2  0
 14 18  1  0
 17 16  1  6
 17 19  1  0
 18 17  1  0
 19 20  2  0
 19 21  1  0
M  END
$$$$
