TMA.pdb
     RDKit          3D

 21 20  0  0  1  0  0  0  0  0999 V2000
   28.3330   -8.7773  -17.5115 C   0  0  0  0  0  0  0  0  0  0  0  0
   28.5346   -9.7693  -18.6377 C   0  0  1  0  0  0  0  0  0  0  0  0
   29.8769   -9.8304  -18.9745 O   0  0  0  0  0  0  0  0  0  0  0  0
   28.0030  -11.1135  -18.1914 C   0  0  2  0  0  0  0  0  0  0  0  0
   28.3410  -12.1014  -19.1834 N   0  0  0  0  0  0  0  0  0  0  0  0
   26.5466  -11.0690  -17.9155 C   0  0  0  0  0  0  0  0  0  0  0  0
   25.7334  -10.9911  -18.8719 O   0  0  0  0  0  0  0  0  0  0  0  0
   20.5009  -12.8702  -13.0318 C   0  0  0  0  0  0  0  0  0  0  0  0
   22.2525  -12.8849  -13.4002 S   0  0  0  0  0  0  0  0  0  0  0  0
   22.7387  -11.8708  -14.7840 C   0  0  0  0  0  0  0  0  0  0  0  0
   24.1924  -11.8924  -15.1121 C   0  0  0  0  0  0  0  0  0  0  0  0
   24.6134  -11.0442  -16.2667 C   0  0  2  0  0  0  0  0  0  0  0  0
   25.9878  -11.1092  -16.6108 N   0  0  0  0  0  0  0  0  0  0  0  0
   24.1161   -9.6731  -16.1150 C   0  0  0  0  0  0  0  0  0  0  0  0
   24.6624   -8.9022  -15.2944 O   0  0  0  0  0  0  0  0  0  0  0  0
   21.5148   -7.6489  -17.9044 C   0  0  0  0  0  0  0  0  0  0  0  0
   22.5525   -7.8223  -16.8179 C   0  0  2  0  0  0  0  0  0  0  0  0
   23.0239   -9.1939  -16.8799 N   0  0  0  0  0  0  0  0  0  0  0  0
   21.8929   -7.5152  -15.5211 C   0  0  0  0  0  0  0  0  0  0  0  0
   21.3788   -8.4139  -14.7957 O   0  0  0  0  0  0  0  0  0  0  0  0
   21.8576   -6.1962  -15.1253 O   0  0  0  0  0  0  0  0  0  0  0  0
  2  3  1  0
  2  4  1  0
  2  1  1  1
  4  5  1  6
  6  4  1  0
  6  7  2  0
  9  8  1  0
  9 10  1  0
 10 11  1  0
 12 11  1  1
 12 13  1  0
 12 14  1  0
 13  6  1  0
 14 15  2  0
 14 18  1  0
 17 16  1  6
 17 19  1  0
 18 17  1  0
 19 20  2  0
 19 21  1  0
M  END
$$$$
