DHA.pdb
     RDKit          3D

 24 24  0  0  1  0  0  0  0  0999 V2000
   28.8455  -34.5603   -5.9117 N   0  0  0  0  0  0  0  0  0  0  0  0
   28.9105  -34.9171   -4.5355 C   0  0  1  0  0  0  0  0  0  0  0  0
   30.1387  -34.3976   -3.8237 C   0  0  0  0  0  0  0  0  0  0  0  0
   30.8188  -35.5284   -3.1502 C   0  0  0  0  0  0  0  0  0  0  0  0
   30.2522  -36.6552   -3.1645 O   0  0  0  0  0  0  0  0  0  0  0  0
   27.6666  -34.4105   -3.8694 C   0  0  0  0  0  0  0  0  0  0  0  0
   27.4196  -33.1833   -3.7932 O   0  0  0  0  0  0  0  0  0  0  0  0
   32.0449  -35.4291   -2.5009 O   0  0  0  0  0  0  0  0  0  0  0  0
   26.7017  -35.2888   -3.2886 N   0  0  0  0  0  0  0  0  0  0  0  0
   25.5440  -34.7875   -2.5916 C   0  0  1  0  0  0  0  0  0  0  0  0
   24.2541  -34.9823   -3.3474 C   0  0  0  0  0  0  0  0  0  0  0  0
   24.2364  -34.1920   -4.6035 C   0  0  0  0  0  0  0  0  0  0  0  0
   25.2600  -33.3836   -5.0930 C   0  0  0  0  0  0  0  0  0  0  0  0
   24.8252  -32.8548   -6.2480 N   0  0  0  0  0  0  0  0  0  0  0  0
   23.5982  -33.2788   -6.5122 C   0  0  0  0  0  0  0  0  0  0  0  0
   23.2415  -34.1005   -5.4936 N   0  0  0  0  0  0  0  0  0  0  0  0
   25.4538  -35.3545   -1.2118 C   0  0  0  0  0  0  0  0  0  0  0  0
   26.0041  -36.4377   -0.9084 O   0  0  0  0  0  0  0  0  0  0  0  0
   24.0079  -36.5794    1.0449 C   0  0  0  0  0  0  0  0  0  0  0  0
   24.6416  -35.1834    1.1251 C   0  0  2  0  0  0  0  0  0  0  0  0
   24.7321  -34.6631   -0.2130 N   0  0  0  0  0  0  0  0  0  0  0  0
   25.9585  -35.2137    1.7692 C   0  0  0  0  0  0  0  0  0  0  0  0
   26.9753  -34.9370    1.1025 O   0  0  0  0  0  0  0  0  0  0  0  0
   26.0440  -35.5520    3.1213 O   0  0  0  0  0  0  0  0  0  0  0  0
  2  1  1  6
  2  3  1  0
  2  6  1  0
  3  4  1  0
  4  5  2  0
  4  8  1  0
  6  7  2  0
  9  6  1  0
  9 10  1  0
 10 17  1  0
 10 11  1  6
 11 12  1  0
 12 13  2  0
 13 14  1  0
 15 14  1  0
 16 12  1  0
 16 15  2  0
 17 18  2  0
 20 19  1  6
 20 22  1  0
 21 20  1  0
 21 17  1  0
 22 23  2  0
 22 24  1  0
M  END
$$$$
