DHA.pdb
     RDKit          3D

 24 24  0  0  1  0  0  0  0  0999 V2000
   21.0163  -10.6890  -17.4066 N   0  0  0  0  0  0  0  0  0  0  0  0
   21.5043   -9.3521  -17.4085 C   0  0  1  0  0  0  0  0  0  0  0  0
   21.2234   -8.5974  -18.6877 C   0  0  0  0  0  0  0  0  0  0  0  0
   22.0299   -9.1873  -19.7815 C   0  0  0  0  0  0  0  0  0  0  0  0
   21.5486  -10.1688  -20.4109 O   0  0  0  0  0  0  0  0  0  0  0  0
   20.8985   -8.6392  -16.2370 C   0  0  0  0  0  0  0  0  0  0  0  0
   19.6554   -8.5644  -16.0892 O   0  0  0  0  0  0  0  0  0  0  0  0
   23.2869   -8.7287  -20.1614 O   0  0  0  0  0  0  0  0  0  0  0  0
   21.6955   -8.0103  -15.2325 N   0  0  0  0  0  0  0  0  0  0  0  0
   21.1007   -7.2914  -14.1339 C   0  0  1  0  0  0  0  0  0  0  0  0
   21.7596   -7.5667  -12.8062 C   0  0  0  0  0  0  0  0  0  0  0  0
   21.0569   -6.8738  -11.6976 C   0  0  0  0  0  0  0  0  0  0  0  0
   19.9159   -6.0811  -11.8017 C   0  0  0  0  0  0  0  0  0  0  0  0
   19.6218   -5.6510  -10.5643 N   0  0  0  0  0  0  0  0  0  0  0  0
   20.5032   -6.1219   -9.6945 C   0  0  0  0  0  0  0  0  0  0  0  0
   21.3853   -6.8726  -10.4005 N   0  0  0  0  0  0  0  0  0  0  0  0
   21.0405   -5.8247  -14.4145 C   0  0  0  0  0  0  0  0  0  0  0  0
   20.5222   -5.0210  -13.6061 O   0  0  0  0  0  0  0  0  0  0  0  0
   22.4503   -3.6248  -17.0866 C   0  0  0  0  0  0  0  0  0  0  0  0
   21.4715   -3.9183  -15.9409 C   0  0  2  0  0  0  0  0  0  0  0  0
   21.5768   -5.3165  -15.6189 N   0  0  0  0  0  0  0  0  0  0  0  0
   20.0932   -3.5600  -16.2900 C   0  0  0  0  0  0  0  0  0  0  0  0
   19.3323   -4.4292  -16.7594 O   0  0  0  0  0  0  0  0  0  0  0  0
   19.6620   -2.2476  -16.0865 O   0  0  0  0  0  0  0  0  0  0  0  0
  2  1  1  6
  2  3  1  0
  2  6  1  0
  3  4  1  0
  4  5  2  0
  4  8  1  0
  6  7  2  0
  9  6  1  0
  9 10  1  0
 10 17  1  0
 10 11  1  1
 11 12  1  0
 12 13  2  0
 13 14  1  0
 15 14  1  0
 16 12  1  0
 16 15  2  0
 17 18  2  0
 20 19  1  6
 20 22  1  0
 21 20  1  0
 21 17  1  0
 22 23  2  0
 22 24  1  0
M  END
$$$$
