PHF.pdb
     RDKit          3D

 29 31  0  0  1  0  0  0  0  0999 V2000
    9.5420  -14.0927   18.8335 N   0  0  0  0  0  0  0  0  0  0  0  0
    8.2704  -14.4082   18.2106 C   0  0  0  0  0  0  0  0  0  0  0  0
    7.2528  -13.4696   18.7734 C   0  0  0  0  0  0  0  0  0  0  0  0
    8.0318  -12.6340   19.7644 C   0  0  0  0  0  0  0  0  0  0  0  0
    9.2244  -13.4963   20.1162 C   0  0  1  0  0  0  0  0  0  0  0  0
    8.8892  -14.5665   21.0671 C   0  0  0  0  0  0  0  0  0  0  0  0
    7.8212  -14.5000   21.7499 O   0  0  0  0  0  0  0  0  0  0  0  0
    9.6844  -15.7103   21.2974 N   0  0  0  0  0  0  0  0  0  0  0  0
    9.4540  -16.6606   22.3902 C   0  0  1  0  0  0  0  0  0  0  0  0
   10.2276  -17.8879   22.0004 C   0  0  0  0  0  0  0  0  0  0  0  0
    9.7111  -18.5987   20.8387 C   0  0  0  0  0  0  0  0  0  0  0  0
    8.3828  -18.5534   20.4313 C   0  0  0  0  0  0  0  0  0  0  0  0
    8.3066  -19.3239   19.3428 N   0  0  0  0  0  0  0  0  0  0  0  0
    9.5335  -19.8335   19.0746 C   0  0  0  0  0  0  0  0  0  0  0  0
   10.4033  -19.3826   20.0035 N   0  0  0  0  0  0  0  0  0  0  0  0
   10.0757  -16.1067   23.6428 C   0  0  0  0  0  0  0  0  0  0  0  0
   11.0899  -15.3763   23.6651 O   0  0  0  0  0  0  0  0  0  0  0  0
    9.5250  -16.3915   24.9439 N   0  0  0  0  0  0  0  0  0  0  0  0
   10.1444  -15.9234   26.1702 C   0  0  1  0  0  0  0  0  0  0  0  0
   10.0159  -14.4230   26.3218 C   0  0  0  0  0  0  0  0  0  0  0  0
    8.6061  -13.9671   26.3449 C   0  0  0  0  0  0  0  0  0  0  0  0
    8.2099  -12.7826   26.9213 C   0  0  0  0  0  0  0  0  0  0  0  0
    6.8845  -12.3621   26.9430 C   0  0  0  0  0  0  0  0  0  0  0  0
    5.9193  -13.1506   26.3692 C   0  0  0  0  0  0  0  0  0  0  0  0
    6.2679  -14.3416   25.7817 C   0  0  0  0  0  0  0  0  0  0  0  0
    7.5866  -14.7375   25.7724 C   0  0  0  0  0  0  0  0  0  0  0  0
    9.4890  -16.5508   27.3416 C   0  0  0  0  0  0  0  0  0  0  0  0
    8.4779  -17.2706   27.2070 O   0  0  0  0  0  0  0  0  0  0  0  0
    9.9755  -16.3607   28.6291 O   0  0  0  0  0  0  0  0  0  0  0  0
  1  5  1  0
  2  1  1  0
  2  3  1  0
  3  4  1  0
  5  6  1  1
  5  4  1  0
  6  7  2  0
  8  9  1  0
  8  6  1  0
 10 11  1  0
  9 10  1  6
 11 12  2  0
 13 12  1  0
 14 13  1  0
 15 14  2  0
 15 11  1  0
 16  9  1  0
 17 16  2  0
 18 16  1  0
 19 18  1  0
 19 27  1  0
 19 20  1  1
 21 22  2  0
 21 20  1  0
 23 22  1  0
 24 23  2  0
 25 24  1  0
 25 26  2  0
 26 21  1  0
 27 29  1  0
 28 27  2  0
M  END
$$$$
