PHF.pdb
     RDKit          3D

 29 31  0  0  1  0  0  0  0  0999 V2000
    9.2639  -13.9756   19.1214 N   0  0  0  0  0  0  0  0  0  0  0  0
    7.9978  -14.1530   18.4359 C   0  0  0  0  0  0  0  0  0  0  0  0
    7.0291  -13.1823   19.0295 C   0  0  0  0  0  0  0  0  0  0  0  0
    7.8273  -12.4760   20.1024 C   0  0  0  0  0  0  0  0  0  0  0  0
    8.9409  -13.4460   20.4318 C   0  0  1  0  0  0  0  0  0  0  0  0
    8.4940  -14.5507   21.2930 C   0  0  0  0  0  0  0  0  0  0  0  0
    7.3885  -14.4687   21.9114 O   0  0  0  0  0  0  0  0  0  0  0  0
    9.2168  -15.7456   21.5015 N   0  0  0  0  0  0  0  0  0  0  0  0
    8.8564  -16.7560   22.5014 C   0  0  1  0  0  0  0  0  0  0  0  0
    9.5961  -17.9937   22.0793 C   0  0  0  0  0  0  0  0  0  0  0  0
    9.1149  -18.6100   20.8505 C   0  0  0  0  0  0  0  0  0  0  0  0
    7.8024  -18.5193   20.4017 C   0  0  0  0  0  0  0  0  0  0  0  0
    7.7580  -19.2058   19.2566 N   0  0  0  0  0  0  0  0  0  0  0  0
    8.9891  -19.7081   18.9939 C   0  0  0  0  0  0  0  0  0  0  0  0
    9.8294  -19.3375   19.9836 N   0  0  0  0  0  0  0  0  0  0  0  0
    9.4069  -16.3262   23.8335 C   0  0  0  0  0  0  0  0  0  0  0  0
   10.5206  -15.7823   23.9958 O   0  0  0  0  0  0  0  0  0  0  0  0
    8.6618  -16.5200   25.0519 N   0  0  0  0  0  0  0  0  0  0  0  0
    9.2062  -16.1930   26.3570 C   0  0  1  0  0  0  0  0  0  0  0  0
    8.1604  -15.5715   27.2572 C   0  0  0  0  0  0  0  0  0  0  0  0
    7.7177  -14.2377   26.7871 C   0  0  0  0  0  0  0  0  0  0  0  0
    6.5105  -14.0245   26.1633 C   0  0  0  0  0  0  0  0  0  0  0  0
    6.1024  -12.7708   25.7210 C   0  0  0  0  0  0  0  0  0  0  0  0
    6.9275  -11.6906   25.9075 C   0  0  0  0  0  0  0  0  0  0  0  0
    8.1423  -11.8552   26.5257 C   0  0  0  0  0  0  0  0  0  0  0  0
    8.5252  -13.1062   26.9552 C   0  0  0  0  0  0  0  0  0  0  0  0
    9.6998  -17.4210   27.0233 C   0  0  0  0  0  0  0  0  0  0  0  0
   10.2671  -17.3693   28.1341 O   0  0  0  0  0  0  0  0  0  0  0  0
    9.5489  -18.6715   26.4366 O   0  0  0  0  0  0  0  0  0  0  0  0
  1  5  1  0
  2  1  1  0
  2  3  1  0
  3  4  1  0
  5  6  1  1
  5  4  1  0
  6  7  2  0
  8  9  1  0
  8  6  1  0
 10 11  1  0
  9 10  1  6
 11 12  2  0
 13 12  1  0
 14 13  1  0
 15 14  2  0
 15 11  1  0
 16  9  1  0
 17 16  2  0
 18 16  1  0
 19 18  1  0
 19 27  1  0
 19 20  1  1
 21 22  2  0
 21 20  1  0
 23 22  1  0
 24 23  2  0
 25 24  1  0
 25 26  2  0
 26 21  1  0
 27 29  1  0
 28 27  2  0
M  END
$$$$
