PHF.pdb
     RDKit          3D

 29 31  0  0  1  0  0  0  0  0999 V2000
    9.3359  -14.2352   18.3978 N   0  0  0  0  0  0  0  0  0  0  0  0
    8.0543  -14.6257   17.8417 C   0  0  0  0  0  0  0  0  0  0  0  0
    7.0035  -13.8179   18.5319 C   0  0  0  0  0  0  0  0  0  0  0  0
    7.7779  -12.9767   19.5219 C   0  0  0  0  0  0  0  0  0  0  0  0
    9.0621  -13.7478   19.7355 C   0  0  1  0  0  0  0  0  0  0  0  0
    8.8892  -14.8989   20.6338 C   0  0  0  0  0  0  0  0  0  0  0  0
    7.7678  -15.1096   21.1900 O   0  0  0  0  0  0  0  0  0  0  0  0
    9.9038  -15.8302   20.9453 N   0  0  0  0  0  0  0  0  0  0  0  0
    9.8083  -16.8117   22.0308 C   0  0  1  0  0  0  0  0  0  0  0  0
   11.0238  -17.6799   21.8704 C   0  0  0  0  0  0  0  0  0  0  0  0
   11.0817  -18.4350   20.6262 C   0  0  0  0  0  0  0  0  0  0  0  0
   10.0190  -19.1739   20.1193 C   0  0  0  0  0  0  0  0  0  0  0  0
   10.4582  -19.7128   18.9786 N   0  0  0  0  0  0  0  0  0  0  0  0
   11.7424  -19.3308   18.7743 C   0  0  0  0  0  0  0  0  0  0  0  0
   12.1274  -18.5382   19.7974 N   0  0  0  0  0  0  0  0  0  0  0  0
    9.9344  -16.0860   23.3422 C   0  0  0  0  0  0  0  0  0  0  0  0
   10.3368  -14.9086   23.4626 O   0  0  0  0  0  0  0  0  0  0  0  0
    9.5887  -16.7217   24.5886 N   0  0  0  0  0  0  0  0  0  0  0  0
    8.9371  -16.0079   25.6714 C   0  0  1  0  0  0  0  0  0  0  0  0
    7.5936  -15.4559   25.2460 C   0  0  0  0  0  0  0  0  0  0  0  0
    7.3270  -14.1063   25.7971 C   0  0  0  0  0  0  0  0  0  0  0  0
    6.1312  -13.4485   25.6252 C   0  0  0  0  0  0  0  0  0  0  0  0
    5.8885  -12.1802   26.1418 C   0  0  0  0  0  0  0  0  0  0  0  0
    6.8732  -11.5451   26.8555 C   0  0  0  0  0  0  0  0  0  0  0  0
    8.0833  -12.1631   27.0528 C   0  0  0  0  0  0  0  0  0  0  0  0
    8.3008  -13.4190   26.5318 C   0  0  0  0  0  0  0  0  0  0  0  0
    8.7055  -16.9214   26.8148 C   0  0  0  0  0  0  0  0  0  0  0  0
    8.4304  -16.4790   27.9492 O   0  0  0  0  0  0  0  0  0  0  0  0
    8.7862  -18.3004   26.6652 O   0  0  0  0  0  0  0  0  0  0  0  0
  1  5  1  0
  2  1  1  0
  2  3  1  0
  3  4  1  0
  5  6  1  1
  5  4  1  0
  6  7  2  0
  8  9  1  0
  8  6  1  0
 10 11  1  0
  9 10  1  6
 11 12  2  0
 13 12  1  0
 14 13  1  0
 15 14  2  0
 15 11  1  0
 16  9  1  0
 17 16  2  0
 18 16  1  0
 19 18  1  0
 19 27  1  0
 19 20  1  6
 21 22  2  0
 21 20  1  0
 23 22  1  0
 24 23  2  0
 25 24  1  0
 25 26  2  0
 26 21  1  0
 27 29  1  0
 28 27  2  0
M  END
$$$$
