PHF.pdb
     RDKit          3D

 29 31  0  0  1  0  0  0  0  0999 V2000
    8.4536  -14.3432   18.4916 N   0  0  0  0  0  0  0  0  0  0  0  0
    7.0577  -13.9854   18.6583 C   0  0  0  0  0  0  0  0  0  0  0  0
    6.9967  -12.8834   19.6658 C   0  0  0  0  0  0  0  0  0  0  0  0
    8.4396  -12.6713   20.0663 C   0  0  0  0  0  0  0  0  0  0  0  0
    9.1114  -13.9855   19.7331 C   0  0  1  0  0  0  0  0  0  0  0  0
    8.8401  -15.0300   20.7318 C   0  0  0  0  0  0  0  0  0  0  0  0
    7.6756  -15.5242   20.8358 O   0  0  0  0  0  0  0  0  0  0  0  0
    9.8018  -15.5539   21.6231 N   0  0  0  0  0  0  0  0  0  0  0  0
    9.5492  -16.6770   22.5316 C   0  0  1  0  0  0  0  0  0  0  0  0
   10.6567  -17.6527   22.2519 C   0  0  0  0  0  0  0  0  0  0  0  0
   10.5236  -18.3952   21.0059 C   0  0  0  0  0  0  0  0  0  0  0  0
    9.4337  -19.2013   20.6981 C   0  0  0  0  0  0  0  0  0  0  0  0
    9.6798  -19.7029   19.4847 N   0  0  0  0  0  0  0  0  0  0  0  0
   10.8731  -19.2340   19.0456 C   0  0  0  0  0  0  0  0  0  0  0  0
   11.3950  -18.4230   19.9905 N   0  0  0  0  0  0  0  0  0  0  0  0
    9.7130  -16.1923   23.9460 C   0  0  0  0  0  0  0  0  0  0  0  0
   10.6002  -15.3960   24.3219 O   0  0  0  0  0  0  0  0  0  0  0  0
    8.8286  -16.6291   24.9968 N   0  0  0  0  0  0  0  0  0  0  0  0
    9.0230  -16.2510   26.3845 C   0  0  1  0  0  0  0  0  0  0  0  0
    7.7358  -15.7657   27.0154 C   0  0  0  0  0  0  0  0  0  0  0  0
    7.4105  -14.3663   26.6523 C   0  0  0  0  0  0  0  0  0  0  0  0
    6.6422  -14.0335   25.5609 C   0  0  0  0  0  0  0  0  0  0  0  0
    6.3436  -12.7179   25.2232 C   0  0  0  0  0  0  0  0  0  0  0  0
    6.8283  -11.6973   26.0016 C   0  0  0  0  0  0  0  0  0  0  0  0
    7.5997  -11.9815   27.1013 C   0  0  0  0  0  0  0  0  0  0  0  0
    7.8824  -13.2918   27.4161 C   0  0  0  0  0  0  0  0  0  0  0  0
    9.4947  -17.4175   27.1672 C   0  0  0  0  0  0  0  0  0  0  0  0
    9.4464  -18.5727   26.6968 O   0  0  0  0  0  0  0  0  0  0  0  0
   10.0066  -17.2671   28.4501 O   0  0  0  0  0  0  0  0  0  0  0  0
  1  5  1  0
  2  1  1  0
  2  3  1  0
  3  4  1  0
  5  6  1  1
  5  4  1  0
  6  7  2  0
  8  9  1  0
  8  6  1  0
 10 11  1  0
  9 10  1  6
 11 12  2  0
 13 12  1  0
 14 13  1  0
 15 14  2  0
 15 11  1  0
 16  9  1  0
 17 16  2  0
 18 16  1  0
 19 18  1  0
 19 27  1  0
 19 20  1  1
 21 22  2  0
 21 20  1  0
 23 22  1  0
 24 23  2  0
 25 24  1  0
 25 26  2  0
 26 21  1  0
 27 29  1  0
 28 27  2  0
M  END
$$$$
