PHF.pdb
     RDKit          3D

 29 31  0  0  1  0  0  0  0  0999 V2000
    9.1687  -14.0960   18.9953 N   0  0  0  0  0  0  0  0  0  0  0  0
    7.8670  -14.2624   18.3770 C   0  0  0  0  0  0  0  0  0  0  0  0
    6.9624  -13.2226   18.9547 C   0  0  0  0  0  0  0  0  0  0  0  0
    7.8340  -12.4885   19.9490 C   0  0  0  0  0  0  0  0  0  0  0  0
    8.9254  -13.4811   20.2855 C   0  0  1  0  0  0  0  0  0  0  0  0
    8.4782  -14.5171   21.2281 C   0  0  0  0  0  0  0  0  0  0  0  0
    7.3336  -14.4333   21.7703 O   0  0  0  0  0  0  0  0  0  0  0  0
    9.2425  -15.6450   21.5991 N   0  0  0  0  0  0  0  0  0  0  0  0
    8.8385  -16.6029   22.6335 C   0  0  1  0  0  0  0  0  0  0  0  0
    9.5120  -17.8893   22.2485 C   0  0  0  0  0  0  0  0  0  0  0  0
    9.0113  -18.5055   21.0273 C   0  0  0  0  0  0  0  0  0  0  0  0
    7.6761  -18.4845   20.6413 C   0  0  0  0  0  0  0  0  0  0  0  0
    7.6192  -19.1460   19.4820 N   0  0  0  0  0  0  0  0  0  0  0  0
    8.8643  -19.5662   19.1507 C   0  0  0  0  0  0  0  0  0  0  0  0
    9.7265  -19.1680   20.1104 N   0  0  0  0  0  0  0  0  0  0  0  0
    9.4189  -16.1583   23.9479 C   0  0  0  0  0  0  0  0  0  0  0  0
   10.5307  -15.6018   24.0775 O   0  0  0  0  0  0  0  0  0  0  0  0
    8.7079  -16.3515   25.1866 N   0  0  0  0  0  0  0  0  0  0  0  0
    9.2510  -15.9389   26.4677 C   0  0  1  0  0  0  0  0  0  0  0  0
    8.1923  -15.3044   27.3436 C   0  0  0  0  0  0  0  0  0  0  0  0
    7.6256  -14.0682   26.7548 C   0  0  0  0  0  0  0  0  0  0  0  0
    8.2015  -12.8291   26.9134 C   0  0  0  0  0  0  0  0  0  0  0  0
    7.6625  -11.6720   26.3614 C   0  0  0  0  0  0  0  0  0  0  0  0
    6.5080  -11.7531   25.6246 C   0  0  0  0  0  0  0  0  0  0  0  0
    5.8976  -12.9689   25.4393 C   0  0  0  0  0  0  0  0  0  0  0  0
    6.4496  -14.1011   25.9955 C   0  0  0  0  0  0  0  0  0  0  0  0
    9.7888  -17.1137   27.1931 C   0  0  0  0  0  0  0  0  0  0  0  0
   10.3835  -16.9829   28.2829 O   0  0  0  0  0  0  0  0  0  0  0  0
    9.6505  -18.4004   26.6871 O   0  0  0  0  0  0  0  0  0  0  0  0
  1  5  1  0
  2  1  1  0
  2  3  1  0
  3  4  1  0
  5  6  1  1
  5  4  1  0
  6  7  2  0
  8  9  1  0
  8  6  1  0
 10 11  1  0
  9 10  1  6
 11 12  2  0
 13 12  1  0
 14 13  1  0
 15 14  2  0
 15 11  1  0
 16  9  1  0
 17 16  2  0
 18 16  1  0
 19 18  1  0
 19 27  1  0
 19 20  1  1
 21 22  2  0
 21 20  1  0
 23 22  1  0
 24 23  2  0
 25 24  1  0
 25 26  2  0
 26 21  1  0
 27 29  1  0
 28 27  2  0
M  END
$$$$
