PHF.pdb
     RDKit          3D

 29 31  0  0  1  0  0  0  0  0999 V2000
    9.1970  -18.6334   20.8994 N   0  0  0  0  0  0  0  0  0  0  0  0
    9.4208  -18.1900   19.5364 C   0  0  0  0  0  0  0  0  0  0  0  0
   10.8813  -17.9080   19.3930 C   0  0  0  0  0  0  0  0  0  0  0  0
   11.4477  -18.1962   20.7654 C   0  0  0  0  0  0  0  0  0  0  0  0
   10.2608  -18.0489   21.6922 C   0  0  1  0  0  0  0  0  0  0  0  0
    9.9289  -16.6435   21.9690 C   0  0  0  0  0  0  0  0  0  0  0  0
   10.8549  -15.7885   22.1199 O   0  0  0  0  0  0  0  0  0  0  0  0
    8.6151  -16.1399   22.0869 N   0  0  0  0  0  0  0  0  0  0  0  0
    8.2992  -14.7564   22.4568 C   0  0  1  0  0  0  0  0  0  0  0  0
    7.2597  -14.3218   21.4631 C   0  0  0  0  0  0  0  0  0  0  0  0
    7.7335  -14.1947   20.0916 C   0  0  0  0  0  0  0  0  0  0  0  0
    8.3385  -13.0503   19.5849 C   0  0  0  0  0  0  0  0  0  0  0  0
    8.6265  -13.3222   18.3090 N   0  0  0  0  0  0  0  0  0  0  0  0
    8.2210  -14.5833   18.0228 C   0  0  0  0  0  0  0  0  0  0  0  0
    7.6674  -15.1229   19.1297 N   0  0  0  0  0  0  0  0  0  0  0  0
    7.6577  -14.7612   23.8172 C   0  0  0  0  0  0  0  0  0  0  0  0
    6.9815  -15.7069   24.2764 O   0  0  0  0  0  0  0  0  0  0  0  0
    7.7841  -13.6376   24.7110 N   0  0  0  0  0  0  0  0  0  0  0  0
    7.1066  -13.5839   25.9935 C   0  0  1  0  0  0  0  0  0  0  0  0
    7.9423  -12.8725   27.0357 C   0  0  0  0  0  0  0  0  0  0  0  0
    9.0711  -13.6973   27.5272 C   0  0  0  0  0  0  0  0  0  0  0  0
   10.0978  -14.1232   26.7168 C   0  0  0  0  0  0  0  0  0  0  0  0
   11.1525  -14.9003   27.1834 C   0  0  0  0  0  0  0  0  0  0  0  0
   11.1849  -15.2659   28.5054 C   0  0  0  0  0  0  0  0  0  0  0  0
   10.1817  -14.8639   29.3521 C   0  0  0  0  0  0  0  0  0  0  0  0
    9.1474  -14.0948   28.8676 C   0  0  0  0  0  0  0  0  0  0  0  0
    5.8288  -12.8454   25.8620 C   0  0  0  0  0  0  0  0  0  0  0  0
    5.5790  -12.1630   24.8470 O   0  0  0  0  0  0  0  0  0  0  0  0
    4.8649  -12.8862   26.8620 O   0  0  0  0  0  0  0  0  0  0  0  0
  1  5  1  0
  2  1  1  0
  2  3  1  0
  3  4  1  0
  5  6  1  6
  5  4  1  0
  6  7  2  0
  8  9  1  0
  8  6  1  0
 10 11  1  0
  9 10  1  6
 11 12  2  0
 13 12  1  0
 14 13  1  0
 15 14  2  0
 15 11  1  0
 16  9  1  0
 17 16  2  0
 18 16  1  0
 19 18  1  0
 19 27  1  0
 19 20  1  1
 21 22  2  0
 21 20  1  0
 23 22  1  0
 24 23  2  0
 25 24  1  0
 25 26  2  0
 26 21  1  0
 27 29  1  0
 28 27  2  0
M  END
$$$$
