PHF.pdb
     RDKit          3D

 29 31  0  0  1  0  0  0  0  0999 V2000
    9.0170  -14.8639   18.5340 N   0  0  0  0  0  0  0  0  0  0  0  0
    7.6471  -14.7543   18.0696 C   0  0  0  0  0  0  0  0  0  0  0  0
    7.1652  -13.3840   18.4204 C   0  0  0  0  0  0  0  0  0  0  0  0
    8.3412  -12.7514   19.1304 C   0  0  0  0  0  0  0  0  0  0  0  0
    9.1439  -13.9302   19.6359 C   0  0  1  0  0  0  0  0  0  0  0  0
    8.5614  -14.5373   20.8417 C   0  0  0  0  0  0  0  0  0  0  0  0
    8.2913  -13.8159   21.8507 O   0  0  0  0  0  0  0  0  0  0  0  0
    8.2633  -15.9103   20.9821 N   0  0  0  0  0  0  0  0  0  0  0  0
    7.7467  -16.5135   22.2149 C   0  0  1  0  0  0  0  0  0  0  0  0
    7.6615  -17.9833   21.9159 C   0  0  0  0  0  0  0  0  0  0  0  0
    7.2070  -18.8121   23.0241 C   0  0  0  0  0  0  0  0  0  0  0  0
    7.9906  -19.7836   23.6360 C   0  0  0  0  0  0  0  0  0  0  0  0
    7.2296  -20.3181   24.5950 N   0  0  0  0  0  0  0  0  0  0  0  0
    6.0181  -19.7105   24.5887 C   0  0  0  0  0  0  0  0  0  0  0  0
    6.0060  -18.7767   23.6136 N   0  0  0  0  0  0  0  0  0  0  0  0
    8.7692  -16.3265   23.3020 C   0  0  0  0  0  0  0  0  0  0  0  0
   10.0056  -16.3340   23.1183 O   0  0  0  0  0  0  0  0  0  0  0  0
    8.3778  -16.1198   24.6736 N   0  0  0  0  0  0  0  0  0  0  0  0
    9.3437  -16.0323   25.7534 C   0  0  1  0  0  0  0  0  0  0  0  0
    9.6354  -14.5944   26.1249 C   0  0  0  0  0  0  0  0  0  0  0  0
    8.4291  -13.7346   26.0830 C   0  0  0  0  0  0  0  0  0  0  0  0
    8.4180  -12.4849   25.5084 C   0  0  0  0  0  0  0  0  0  0  0  0
    7.2835  -11.6813   25.4756 C   0  0  0  0  0  0  0  0  0  0  0  0
    6.1180  -12.1401   26.0357 C   0  0  0  0  0  0  0  0  0  0  0  0
    6.0815  -13.3817   26.6206 C   0  0  0  0  0  0  0  0  0  0  0  0
    7.2174  -14.1597   26.6412 C   0  0  0  0  0  0  0  0  0  0  0  0
    8.8176  -16.7102   26.9614 C   0  0  0  0  0  0  0  0  0  0  0  0
    7.6245  -17.0706   27.0314 O   0  0  0  0  0  0  0  0  0  0  0  0
    9.6320  -16.9683   28.0571 O   0  0  0  0  0  0  0  0  0  0  0  0
  1  5  1  0
  2  1  1  0
  2  3  1  0
  3  4  1  0
  5  6  1  1
  5  4  1  0
  6  7  2  0
  8  9  1  0
  8  6  1  0
 10 11  1  0
  9 10  1  6
 11 12  2  0
 13 12  1  0
 14 13  1  0
 15 14  2  0
 15 11  1  0
 16  9  1  0
 17 16  2  0
 18 16  1  0
 19 18  1  0
 19 27  1  0
 19 20  1  1
 21 22  2  0
 21 20  1  0
 23 22  1  0
 24 23  2  0
 25 24  1  0
 25 26  2  0
 26 21  1  0
 27 29  1  0
 28 27  2  0
M  END
$$$$
