PHF.pdb
     RDKit          3D

 29 31  0  0  1  0  0  0  0  0999 V2000
    9.2398  -14.1939   19.1048 N   0  0  0  0  0  0  0  0  0  0  0  0
    7.8983  -14.2087   18.5530 C   0  0  0  0  0  0  0  0  0  0  0  0
    7.1306  -13.1119   19.2168 C   0  0  0  0  0  0  0  0  0  0  0  0
    8.1194  -12.5068   20.1880 C   0  0  0  0  0  0  0  0  0  0  0  0
    9.1239  -13.6126   20.4279 C   0  0  1  0  0  0  0  0  0  0  0  0
    8.6260  -14.6393   21.3552 C   0  0  0  0  0  0  0  0  0  0  0  0
    7.4594  -14.5418   21.8461 O   0  0  0  0  0  0  0  0  0  0  0  0
    9.3623  -15.7722   21.7651 N   0  0  0  0  0  0  0  0  0  0  0  0
    8.9232  -16.6977   22.8145 C   0  0  1  0  0  0  0  0  0  0  0  0
    9.5983  -17.9987   22.4851 C   0  0  0  0  0  0  0  0  0  0  0  0
    9.1450  -18.6340   21.2553 C   0  0  0  0  0  0  0  0  0  0  0  0
    7.8181  -18.6613   20.8421 C   0  0  0  0  0  0  0  0  0  0  0  0
    7.8085  -19.3260   19.6833 N   0  0  0  0  0  0  0  0  0  0  0  0
    9.0743  -19.7019   19.3783 C   0  0  0  0  0  0  0  0  0  0  0  0
    9.9020  -19.2718   20.3545 N   0  0  0  0  0  0  0  0  0  0  0  0
    9.4699  -16.2194   24.1315 C   0  0  0  0  0  0  0  0  0  0  0  0
   10.5426  -15.5917   24.2654 O   0  0  0  0  0  0  0  0  0  0  0  0
    8.7698  -16.4617   25.3678 N   0  0  0  0  0  0  0  0  0  0  0  0
    9.2937  -16.0398   26.6539 C   0  0  1  0  0  0  0  0  0  0  0  0
    8.2299  -15.3688   27.4959 C   0  0  0  0  0  0  0  0  0  0  0  0
    7.6696  -14.1565   26.8536 C   0  0  0  0  0  0  0  0  0  0  0  0
    8.2469  -12.9131   26.9656 C   0  0  0  0  0  0  0  0  0  0  0  0
    7.7139  -11.7784   26.3634 C   0  0  0  0  0  0  0  0  0  0  0  0
    6.5641  -11.8874   25.6229 C   0  0  0  0  0  0  0  0  0  0  0  0
    5.9524  -13.1087   25.4832 C   0  0  0  0  0  0  0  0  0  0  0  0
    6.4984  -14.2183   26.0886 C   0  0  0  0  0  0  0  0  0  0  0  0
    9.7902  -17.2136   27.4097 C   0  0  0  0  0  0  0  0  0  0  0  0
   10.4061  -17.0747   28.4865 O   0  0  0  0  0  0  0  0  0  0  0  0
    9.5882  -18.5083   26.9475 O   0  0  0  0  0  0  0  0  0  0  0  0
  1  5  1  0
  2  1  1  0
  2  3  1  0
  3  4  1  0
  5  6  1  1
  5  4  1  0
  6  7  2  0
  8  9  1  0
  8  6  1  0
 10 11  1  0
  9 10  1  6
 11 12  2  0
 13 12  1  0
 14 13  1  0
 15 14  2  0
 15 11  1  0
 16  9  1  0
 17 16  2  0
 18 16  1  0
 19 18  1  0
 19 27  1  0
 19 20  1  1
 21 22  2  0
 21 20  1  0
 23 22  1  0
 24 23  2  0
 25 24  1  0
 25 26  2  0
 26 21  1  0
 27 29  1  0
 28 27  2  0
M  END
$$$$
