PHF.pdb
     RDKit          3D

 29 31  0  0  1  0  0  0  0  0999 V2000
    9.0314  -14.2466   18.7632 N   0  0  0  0  0  0  0  0  0  0  0  0
    7.6445  -14.1634   18.3462 C   0  0  0  0  0  0  0  0  0  0  0  0
    7.0012  -13.0800   19.1497 C   0  0  0  0  0  0  0  0  0  0  0  0
    8.1081  -12.5872   20.0549 C   0  0  0  0  0  0  0  0  0  0  0  0
    9.0723  -13.7511   20.1250 C   0  0  1  0  0  0  0  0  0  0  0  0
    8.6126  -14.8142   21.0308 C   0  0  0  0  0  0  0  0  0  0  0  0
    7.5455  -14.6619   21.7012 O   0  0  0  0  0  0  0  0  0  0  0  0
    9.2819  -16.0416   21.2288 N   0  0  0  0  0  0  0  0  0  0  0  0
    8.8946  -17.0309   22.2397 C   0  0  1  0  0  0  0  0  0  0  0  0
    9.7650  -18.2234   21.9620 C   0  0  0  0  0  0  0  0  0  0  0  0
    9.3809  -19.4426   22.6603 C   0  0  0  0  0  0  0  0  0  0  0  0
    8.2887  -19.5331   23.5154 C   0  0  0  0  0  0  0  0  0  0  0  0
    8.2690  -20.7952   23.9527 N   0  0  0  0  0  0  0  0  0  0  0  0
    9.3038  -21.4720   23.3979 C   0  0  0  0  0  0  0  0  0  0  0  0
    9.9923  -20.6313   22.5965 N   0  0  0  0  0  0  0  0  0  0  0  0
    9.2678  -16.4982   23.5958 C   0  0  0  0  0  0  0  0  0  0  0  0
   10.2795  -15.8015   23.8276 O   0  0  0  0  0  0  0  0  0  0  0  0
    8.4566  -16.7651   24.7568 N   0  0  0  0  0  0  0  0  0  0  0  0
    8.7959  -16.2617   26.0752 C   0  0  1  0  0  0  0  0  0  0  0  0
    7.5925  -15.6607   26.7689 C   0  0  0  0  0  0  0  0  0  0  0  0
    7.3808  -14.2361   26.4199 C   0  0  0  0  0  0  0  0  0  0  0  0
    8.2651  -13.2401   26.7636 C   0  0  0  0  0  0  0  0  0  0  0  0
    8.0588  -11.9042   26.4363 C   0  0  0  0  0  0  0  0  0  0  0  0
    6.9305  -11.5486   25.7414 C   0  0  0  0  0  0  0  0  0  0  0  0
    6.0195  -12.5089   25.3768 C   0  0  0  0  0  0  0  0  0  0  0  0
    6.2449  -13.8253   25.7119 C   0  0  0  0  0  0  0  0  0  0  0  0
    9.2997  -17.3654   26.9258 C   0  0  0  0  0  0  0  0  0  0  0  0
    9.1822  -18.5572   26.5737 O   0  0  0  0  0  0  0  0  0  0  0  0
    9.9198  -17.1134   28.1435 O   0  0  0  0  0  0  0  0  0  0  0  0
  1  5  1  0
  2  1  1  0
  2  3  1  0
  3  4  1  0
  5  6  1  1
  5  4  1  0
  6  7  2  0
  8  9  1  0
  8  6  1  0
 10 11  1  0
  9 10  1  6
 11 12  2  0
 13 12  1  0
 14 13  1  0
 15 14  2  0
 15 11  1  0
 16  9  1  0
 17 16  2  0
 18 16  1  0
 19 18  1  0
 19 27  1  0
 19 20  1  1
 21 22  2  0
 21 20  1  0
 23 22  1  0
 24 23  2  0
 25 24  1  0
 25 26  2  0
 26 21  1  0
 27 29  1  0
 28 27  2  0
M  END
$$$$
