PHF.pdb
     RDKit          3D

 29 31  0  0  1  0  0  0  0  0999 V2000
    6.1303  -18.1609   21.9234 N   0  0  0  0  0  0  0  0  0  0  0  0
    5.6157  -17.5244   20.7258 C   0  0  0  0  0  0  0  0  0  0  0  0
    6.1641  -18.2708   19.5530 C   0  0  0  0  0  0  0  0  0  0  0  0
    7.0340  -19.3414   20.1729 C   0  0  0  0  0  0  0  0  0  0  0  0
    7.3784  -18.7908   21.5395 C   0  0  1  0  0  0  0  0  0  0  0  0
    8.4312  -17.7658   21.4888 C   0  0  0  0  0  0  0  0  0  0  0  0
    9.5858  -18.0602   21.0511 O   0  0  0  0  0  0  0  0  0  0  0  0
    8.2640  -16.4258   21.9015 N   0  0  0  0  0  0  0  0  0  0  0  0
    9.3718  -15.4840   22.0919 C   0  0  1  0  0  0  0  0  0  0  0  0
    8.8282  -14.1572   21.6436 C   0  0  0  0  0  0  0  0  0  0  0  0
    8.4745  -14.0813   20.2327 C   0  0  0  0  0  0  0  0  0  0  0  0
    8.6630  -15.1221   19.3306 C   0  0  0  0  0  0  0  0  0  0  0  0
    8.2204  -14.6716   18.1534 N   0  0  0  0  0  0  0  0  0  0  0  0
    7.7720  -13.4018   18.3057 C   0  0  0  0  0  0  0  0  0  0  0  0
    7.9304  -13.0374   19.5961 N   0  0  0  0  0  0  0  0  0  0  0  0
    9.6652  -15.3843   23.5637 C   0  0  0  0  0  0  0  0  0  0  0  0
   10.5955  -14.7091   24.0549 O   0  0  0  0  0  0  0  0  0  0  0  0
    8.8665  -16.0846   24.5378 N   0  0  0  0  0  0  0  0  0  0  0  0
    9.1685  -16.0556   25.9572 C   0  0  1  0  0  0  0  0  0  0  0  0
    7.9486  -15.6998   26.7793 C   0  0  0  0  0  0  0  0  0  0  0  0
    7.5734  -14.2711   26.6611 C   0  0  0  0  0  0  0  0  0  0  0  0
    6.3640  -13.8521   26.1573 C   0  0  0  0  0  0  0  0  0  0  0  0
    6.0194  -12.5094   26.0455 C   0  0  0  0  0  0  0  0  0  0  0  0
    6.9126  -11.5499   26.4505 C   0  0  0  0  0  0  0  0  0  0  0  0
    8.1323  -11.9210   26.9601 C   0  0  0  0  0  0  0  0  0  0  0  0
    8.4516  -13.2566   27.0612 C   0  0  0  0  0  0  0  0  0  0  0  0
    9.6377  -17.3883   26.4037 C   0  0  0  0  0  0  0  0  0  0  0  0
    9.9743  -17.5906   27.5886 O   0  0  0  0  0  0  0  0  0  0  0  0
    9.7197  -18.4582   25.5210 O   0  0  0  0  0  0  0  0  0  0  0  0
  1  5  1  0
  2  1  1  0
  2  3  1  0
  3  4  1  0
  5  6  1  6
  5  4  1  0
  6  7  2  0
  8  9  1  0
  8  6  1  0
 10 11  1  0
  9 10  1  1
 11 12  2  0
 13 12  1  0
 14 13  1  0
 15 14  2  0
 15 11  1  0
 16  9  1  0
 17 16  2  0
 18 16  1  0
 19 18  1  0
 19 27  1  0
 19 20  1  1
 21 22  2  0
 21 20  1  0
 23 22  1  0
 24 23  2  0
 25 24  1  0
 25 26  2  0
 26 21  1  0
 27 29  1  0
 28 27  2  0
M  END
$$$$
