GDT.pdb
     RDKit          3D

 20 19  0  0  1  0  0  0  0  0999 V2000
   23.0151  -11.6984  -19.6281 N   0  0  0  0  0  0  0  0  0  0  0  0
   23.5237  -11.0685  -18.4281 C   0  0  0  0  0  0  0  0  0  0  0  0
   22.6320   -9.9354  -18.0029 C   0  0  0  0  0  0  0  0  0  0  0  0
   22.5689   -8.8594  -18.6255 O   0  0  0  0  0  0  0  0  0  0  0  0
   21.8568  -10.1424  -16.8521 N   0  0  0  0  0  0  0  0  0  0  0  0
   20.8220   -9.1627  -16.3976 C   0  0  1  0  0  0  0  0  0  0  0  0
   19.9431   -9.9664  -15.5101 C   0  0  0  0  0  0  0  0  0  0  0  0
   18.8523   -9.3373  -14.7958 C   0  0  0  0  0  0  0  0  0  0  0  0
   18.3686   -8.2142  -15.0054 O   0  0  0  0  0  0  0  0  0  0  0  0
   21.5964   -8.1531  -15.5991 C   0  0  0  0  0  0  0  0  0  0  0  0
   22.4440   -8.6157  -14.7610 O   0  0  0  0  0  0  0  0  0  0  0  0
   18.2378  -10.0570  -13.7230 O   0  0  0  0  0  0  0  0  0  0  0  0
   24.1724   -5.6561  -16.4967 C   0  0  0  0  0  0  0  0  0  0  0  0
   23.1738   -4.9517  -15.6268 C   0  0  1  0  0  0  0  0  0  0  0  0
   22.4628   -4.0747  -16.4694 O   0  0  0  0  0  0  0  0  0  0  0  0
   22.2568   -5.8577  -14.8868 C   0  0  2  0  0  0  0  0  0  0  0  0
   21.4833   -6.7594  -15.6880 N   0  0  0  0  0  0  0  0  0  0  0  0
   21.5575   -5.2374  -13.7349 C   0  0  0  0  0  0  0  0  0  0  0  0
   22.3724   -4.5786  -12.7863 O   0  0  0  0  0  0  0  0  0  0  0  0
   20.3563   -5.2147  -13.4841 O   0  0  0  0  0  0  0  0  0  0  0  0
  2  1  1  0
  2  3  1  0
  3  4  2  0
  5  3  1  0
  5  6  1  0
  6  7  1  1
  7  8  1  0
  8 12  1  0
  9  8  2  0
 10 11  2  0
 10  6  1  0
 14 13  1  6
 14 16  1  0
 15 14  1  0
 16 17  1  6
 17 10  1  0
 18 19  1  0
 18 16  1  0
 20 18  2  0
M  END
$$$$
