GDT.pdb
     RDKit          3D

 20 19  0  0  1  0  0  0  0  0999 V2000
   15.3673  -11.6595  -14.7719 N   0  0  0  0  0  0  0  0  0  0  0  0
   15.8762  -10.3434  -15.0949 C   0  0  0  0  0  0  0  0  0  0  0  0
   17.3445  -10.2500  -14.7862 C   0  0  0  0  0  0  0  0  0  0  0  0
   17.9268  -11.0563  -14.0379 O   0  0  0  0  0  0  0  0  0  0  0  0
   18.0480   -9.1956  -15.3875 N   0  0  0  0  0  0  0  0  0  0  0  0
   19.5157   -8.9934  -15.1820 C   0  0  1  0  0  0  0  0  0  0  0  0
   20.0523   -8.8864  -16.5629 C   0  0  0  0  0  0  0  0  0  0  0  0
   21.4513   -8.5864  -16.7833 C   0  0  0  0  0  0  0  0  0  0  0  0
   22.4196   -9.0096  -16.1332 O   0  0  0  0  0  0  0  0  0  0  0  0
   19.6099   -7.6709  -14.4758 C   0  0  0  0  0  0  0  0  0  0  0  0
   18.8267   -6.7470  -14.8857 O   0  0  0  0  0  0  0  0  0  0  0  0
   21.7969   -7.7090  -17.8590 O   0  0  0  0  0  0  0  0  0  0  0  0
   18.7060   -6.5716  -11.1156 C   0  0  0  0  0  0  0  0  0  0  0  0
   20.0735   -6.0105  -11.3712 C   0  0  1  0  0  0  0  0  0  0  0  0
   20.9572   -6.7249  -10.5383 O   0  0  0  0  0  0  0  0  0  0  0  0
   20.5035   -6.0641  -12.7930 C   0  0  2  0  0  0  0  0  0  0  0  0
   20.4658   -7.3558  -13.4122 N   0  0  0  0  0  0  0  0  0  0  0  0
   21.6681   -5.2086  -13.1283 C   0  0  0  0  0  0  0  0  0  0  0  0
   22.7075   -5.8228  -13.8635 O   0  0  0  0  0  0  0  0  0  0  0  0
   21.8610   -4.0279  -12.8545 O   0  0  0  0  0  0  0  0  0  0  0  0
  2  1  1  0
  2  3  1  0
  3  4  2  0
  5  3  1  0
  5  6  1  0
  6  7  1  6
  7  8  1  0
  8 12  1  0
  9  8  2  0
 10 11  2  0
 10  6  1  0
 14 13  1  6
 14 16  1  0
 15 14  1  0
 16 17  1  1
 17 10  1  0
 18 19  1  0
 18 16  1  0
 20 18  2  0
M  END
$$$$
