GDT.pdb
     RDKit          3D

 20 19  0  0  1  0  0  0  0  0999 V2000
   26.3583  -21.7729  -12.1271 N   0  0  0  0  0  0  0  0  0  0  0  0
   25.3168  -20.9805  -11.5084 C   0  0  0  0  0  0  0  0  0  0  0  0
   24.0040  -21.1844  -12.2119 C   0  0  0  0  0  0  0  0  0  0  0  0
   23.8603  -21.9950  -13.1454 O   0  0  0  0  0  0  0  0  0  0  0  0
   22.9239  -20.4083  -11.7656 N   0  0  0  0  0  0  0  0  0  0  0  0
   21.5427  -20.5676  -12.3170 C   0  0  1  0  0  0  0  0  0  0  0  0
   20.6691  -20.0591  -11.2287 C   0  0  0  0  0  0  0  0  0  0  0  0
   19.2285  -20.1141  -11.3604 C   0  0  0  0  0  0  0  0  0  0  0  0
   18.5804  -20.4650  -12.3585 O   0  0  0  0  0  0  0  0  0  0  0  0
   21.5082  -19.6397  -13.4978 C   0  0  0  0  0  0  0  0  0  0  0  0
   22.0326  -18.4853  -13.3330 O   0  0  0  0  0  0  0  0  0  0  0  0
   18.4283  -19.7289  -10.2389 O   0  0  0  0  0  0  0  0  0  0  0  0
   23.1500  -19.3748  -16.7749 C   0  0  0  0  0  0  0  0  0  0  0  0
   21.6786  -19.2235  -17.0246 C   0  0  1  0  0  0  0  0  0  0  0  0
   21.2600  -20.4100  -17.6584 O   0  0  0  0  0  0  0  0  0  0  0  0
   20.8743  -18.9450  -15.8061 C   0  0  2  0  0  0  0  0  0  0  0  0
   20.9640  -19.9186  -14.7584 N   0  0  0  0  0  0  0  0  0  0  0  0
   19.5283  -18.3754  -16.0601 C   0  0  0  0  0  0  0  0  0  0  0  0
   19.4713  -17.2628  -16.9300 O   0  0  0  0  0  0  0  0  0  0  0  0
   18.4426  -18.7367  -15.6164 O   0  0  0  0  0  0  0  0  0  0  0  0
  2  1  1  0
  2  3  1  0
  3  4  2  0
  5  3  1  0
  5  6  1  0
  6  7  1  1
  7  8  1  0
  8 12  1  0
  9  8  2  0
 10 11  2  0
 10  6  1  0
 14 13  1  1
 14 16  1  0
 15 14  1  0
 16 17  1  6
 17 10  1  0
 18 19  1  0
 18 16  1  0
 20 18  2  0
M  END
$$$$
