GDT.pdb
     RDKit          3D

 20 19  0  0  1  0  0  0  0  0999 V2000
   10.8407  -13.8073  -10.0271 N   0  0  0  0  0  0  0  0  0  0  0  0
   11.1987  -12.4598  -10.4164 C   0  0  0  0  0  0  0  0  0  0  0  0
   12.6581  -12.3772  -10.7674 C   0  0  0  0  0  0  0  0  0  0  0  0
   13.4479  -13.3218  -10.5853 O   0  0  0  0  0  0  0  0  0  0  0  0
   13.1048  -11.1676  -11.3202 N   0  0  0  0  0  0  0  0  0  0  0  0
   14.5182  -10.9654  -11.7657 C   0  0  1  0  0  0  0  0  0  0  0  0
   14.4606  -11.1946  -13.2321 C   0  0  0  0  0  0  0  0  0  0  0  0
   15.6712  -11.1671  -14.0254 C   0  0  0  0  0  0  0  0  0  0  0  0
   16.8271  -11.3955  -13.6364 O   0  0  0  0  0  0  0  0  0  0  0  0
   14.7947   -9.5191  -11.4685 C   0  0  0  0  0  0  0  0  0  0  0  0
   13.8416   -8.6970  -11.6937 O   0  0  0  0  0  0  0  0  0  0  0  0
   15.5659  -10.8448  -15.4151 O   0  0  0  0  0  0  0  0  0  0  0  0
   15.4274   -7.4494   -8.3689 C   0  0  0  0  0  0  0  0  0  0  0  0
   16.5174   -7.1760   -9.3626 C   0  0  1  0  0  0  0  0  0  0  0  0
   17.6657   -7.8367   -8.8833 O   0  0  0  0  0  0  0  0  0  0  0  0
   16.1960   -7.5853  -10.7549 C   0  0  2  0  0  0  0  0  0  0  0  0
   15.9894   -8.9876  -10.9654 N   0  0  0  0  0  0  0  0  0  0  0  0
   16.9522   -6.8670  -11.8098 C   0  0  0  0  0  0  0  0  0  0  0  0
   16.9360   -5.4552  -11.7432 O   0  0  0  0  0  0  0  0  0  0  0  0
   17.5983   -7.3297  -12.7451 O   0  0  0  0  0  0  0  0  0  0  0  0
  2  1  1  0
  2  3  1  0
  3  4  2  0
  5  3  1  0
  5  6  1  0
  6  7  1  6
  7  8  1  0
  8 12  1  0
  9  8  2  0
 10 11  2  0
 10  6  1  0
 14 13  1  1
 14 16  1  0
 15 14  1  0
 16 17  1  1
 17 10  1  0
 18 19  1  0
 18 16  1  0
 20 18  2  0
M  END
$$$$
