GDT.pdb
     RDKit          3D

 20 19  0  0  1  0  0  0  0  0999 V2000
   13.7546  -13.5446  -14.2501 N   0  0  0  0  0  0  0  0  0  0  0  0
   13.9430  -12.1465  -14.5746 C   0  0  0  0  0  0  0  0  0  0  0  0
   14.9782  -11.5268  -13.6778 C   0  0  0  0  0  0  0  0  0  0  0  0
   15.1527  -11.8912  -12.5004 O   0  0  0  0  0  0  0  0  0  0  0  0
   15.7567  -10.4995  -14.2316 N   0  0  0  0  0  0  0  0  0  0  0  0
   16.8559   -9.8295  -13.4699 C   0  0  1  0  0  0  0  0  0  0  0  0
   17.7803   -9.3550  -14.5314 C   0  0  0  0  0  0  0  0  0  0  0  0
   18.9976   -8.6538  -14.1821 C   0  0  0  0  0  0  0  0  0  0  0  0
   19.4100   -8.3914  -13.0416 O   0  0  0  0  0  0  0  0  0  0  0  0
   16.1828   -8.6665  -12.7984 C   0  0  0  0  0  0  0  0  0  0  0  0
   15.2545   -8.0848  -13.4577 O   0  0  0  0  0  0  0  0  0  0  0  0
   19.8456   -8.1963  -15.2393 O   0  0  0  0  0  0  0  0  0  0  0  0
   16.2889   -7.5100   -8.5418 C   0  0  0  0  0  0  0  0  0  0  0  0
   15.2528   -7.2157   -9.5859 C   0  0  1  0  0  0  0  0  0  0  0  0
   14.5628   -6.0684   -9.1474 O   0  0  0  0  0  0  0  0  0  0  0  0
   15.7973   -7.0319  -10.9567 C   0  0  2  0  0  0  0  0  0  0  0  0
   16.4696   -8.1639  -11.5223 N   0  0  0  0  0  0  0  0  0  0  0  0
   16.4117   -5.7065  -11.2147 C   0  0  0  0  0  0  0  0  0  0  0  0
   15.6023   -4.5776  -10.9530 O   0  0  0  0  0  0  0  0  0  0  0  0
   17.5373   -5.4466  -11.6290 O   0  0  0  0  0  0  0  0  0  0  0  0
  2  1  1  0
  2  3  1  0
  3  4  2  0
  5  3  1  0
  5  6  1  0
  6  7  1  6
  7  8  1  0
  8 12  1  0
  9  8  2  0
 10 11  2  0
 10  6  1  0
 14 13  1  1
 14 16  1  0
 15 14  1  0
 16 17  1  1
 17 10  1  0
 18 19  1  0
 18 16  1  0
 20 18  2  0
M  END
$$$$
