GDT.pdb
     RDKit          3D

 20 19  0  0  1  0  0  0  0  0999 V2000
   16.5899  -12.0470  -15.8383 N   0  0  0  0  0  0  0  0  0  0  0  0
   17.0084  -11.2523  -14.7031 C   0  0  0  0  0  0  0  0  0  0  0  0
   17.4552   -9.8867  -15.1451 C   0  0  0  0  0  0  0  0  0  0  0  0
   17.9567   -9.6728  -16.2640 O   0  0  0  0  0  0  0  0  0  0  0  0
   17.2810   -8.8400  -14.2274 N   0  0  0  0  0  0  0  0  0  0  0  0
   17.5890   -7.4168  -14.5692 C   0  0  1  0  0  0  0  0  0  0  0  0
   16.5241   -6.6500  -13.8733 C   0  0  0  0  0  0  0  0  0  0  0  0
   15.2395   -6.4410  -14.5072 C   0  0  0  0  0  0  0  0  0  0  0  0
   14.1283   -6.7938  -14.0824 O   0  0  0  0  0  0  0  0  0  0  0  0
   18.9243   -7.1650  -13.9288 C   0  0  0  0  0  0  0  0  0  0  0  0
   19.0250   -7.4492  -12.6862 O   0  0  0  0  0  0  0  0  0  0  0  0
   15.2045   -5.7569  -15.7630 O   0  0  0  0  0  0  0  0  0  0  0  0
   22.0885   -8.8831  -14.3358 C   0  0  0  0  0  0  0  0  0  0  0  0
   22.4155   -7.4205  -14.3975 C   0  0  1  0  0  0  0  0  0  0  0  0
   22.7408   -7.1432  -15.7399 O   0  0  0  0  0  0  0  0  0  0  0  0
   21.3339   -6.5280  -13.9046 C   0  0  2  0  0  0  0  0  0  0  0  0
   20.0665   -6.6559  -14.5608 N   0  0  0  0  0  0  0  0  0  0  0  0
   21.7637   -5.1484  -13.5692 C   0  0  0  0  0  0  0  0  0  0  0  0
   22.8052   -5.0282  -12.6212 O   0  0  0  0  0  0  0  0  0  0  0  0
   21.3380   -4.0820  -14.0026 O   0  0  0  0  0  0  0  0  0  0  0  0
  2  1  1  0
  2  3  1  0
  3  4  2  0
  5  3  1  0
  5  6  1  0
  6  7  1  1
  7  8  1  0
  8 12  1  0
  9  8  2  0
 10 11  2  0
 10  6  1  0
 14 13  1  6
 14 16  1  0
 15 14  1  0
 16 17  1  6
 17 10  1  0
 18 19  1  0
 18 16  1  0
 20 18  2  0
M  END
$$$$
