SKC.pdb
     RDKit          3D

 22 21  0  0  1  0  0  0  0  0999 V2000
   10.4380  -12.9853   18.7693 O   0  0  0  0  0  0  0  0  0  0  0  0
    9.9437  -13.3645   20.0345 C   0  0  0  0  0  0  0  0  0  0  0  0
    8.5001  -13.8391   19.8242 C   0  0  2  0  0  0  0  0  0  0  0  0
    7.6849  -12.8100   19.2581 N   0  0  0  0  0  0  0  0  0  0  0  0
    8.0104  -14.2743   21.1538 C   0  0  0  0  0  0  0  0  0  0  0  0
    7.2966  -13.4744   21.8098 O   0  0  0  0  0  0  0  0  0  0  0  0
    8.3025  -15.5349   21.7194 N   0  0  0  0  0  0  0  0  0  0  0  0
    7.7174  -16.0313   22.9466 C   0  0  1  0  0  0  0  0  0  0  0  0
    7.7265  -17.5353   23.0155 C   0  0  0  0  0  0  0  0  0  0  0  0
    7.1524  -18.0484   24.3172 C   0  0  0  0  0  0  0  0  0  0  0  0
    7.0220  -19.5534   24.3148 C   0  0  0  0  0  0  0  0  0  0  0  0
    6.3443  -19.9761   25.6005 C   0  0  0  0  0  0  0  0  0  0  0  0
    6.2796  -21.4070   25.6660 N   0  0  0  0  0  0  0  0  0  0  0  0
    8.4175  -15.4075   24.0879 C   0  0  0  0  0  0  0  0  0  0  0  0
    9.6693  -15.4013   24.1037 O   0  0  0  0  0  0  0  0  0  0  0  0
    7.7397  -14.8064   25.1833 N   0  0  0  0  0  0  0  0  0  0  0  0
    8.4649  -14.1433   26.2648 C   0  0  1  0  0  0  0  0  0  0  0  0
    7.4979  -13.3779   27.1092 C   0  0  0  0  0  0  0  0  0  0  0  0
    6.5675  -12.2676   25.9839 S   0  0  0  0  0  0  0  0  0  0  0  0
    9.1945  -15.1353   27.0962 C   0  0  0  0  0  0  0  0  0  0  0  0
    9.1743  -16.4950   26.8298 O   0  0  0  0  0  0  0  0  0  0  0  0
    9.8672  -14.7548   28.0897 O   0  0  0  0  0  0  0  0  0  0  0  0
  1  2  1  0
  2  3  1  0
  3  5  1  0
  3  4  1  1
  5  6  2  0
  7  8  1  0
  7  5  1  0
  9 10  1  0
  8  9  1  1
 11 10  1  0
 12 11  1  0
 13 12  1  0
 14  8  1  0
 14 15  2  0
 16 14  1  0
 17 16  1  0
 17 20  1  0
 17 18  1  1
 19 18  1  0
 20 21  1  0
 22 20  2  0
M  END
$$$$
