SKC.pdb
     RDKit          3D

 22 21  0  0  1  0  0  0  0  0999 V2000
    9.9983  -13.6534   19.2017 O   0  0  0  0  0  0  0  0  0  0  0  0
    9.3700  -13.6140   20.4637 C   0  0  0  0  0  0  0  0  0  0  0  0
    8.0556  -14.3937   20.3309 C   0  0  2  0  0  0  0  0  0  0  0  0
    7.0406  -13.6106   19.6979 N   0  0  0  0  0  0  0  0  0  0  0  0
    7.6752  -14.7995   21.7048 C   0  0  0  0  0  0  0  0  0  0  0  0
    7.0575  -13.9670   22.4155 O   0  0  0  0  0  0  0  0  0  0  0  0
    7.9691  -16.0667   22.2544 N   0  0  0  0  0  0  0  0  0  0  0  0
    7.6157  -16.4727   23.5980 C   0  0  1  0  0  0  0  0  0  0  0  0
    7.4754  -17.9664   23.7244 C   0  0  0  0  0  0  0  0  0  0  0  0
    7.2076  -18.3937   25.1503 C   0  0  0  0  0  0  0  0  0  0  0  0
    7.2124  -19.8977   25.2923 C   0  0  0  0  0  0  0  0  0  0  0  0
    6.7962  -20.2451   26.7054 C   0  0  0  0  0  0  0  0  0  0  0  0
    6.7769  -21.6697   26.8681 N   0  0  0  0  0  0  0  0  0  0  0  0
    8.6120  -15.9157   24.5355 C   0  0  0  0  0  0  0  0  0  0  0  0
    9.8281  -15.9979   24.2500 O   0  0  0  0  0  0  0  0  0  0  0  0
    8.2616  -15.2835   25.7595 N   0  0  0  0  0  0  0  0  0  0  0  0
    9.2719  -14.6991   26.6388 C   0  0  1  0  0  0  0  0  0  0  0  0
    8.6277  -13.6758   27.5172 C   0  0  0  0  0  0  0  0  0  0  0  0
    9.9348  -13.0252   28.6277 S   0  0  0  0  0  0  0  0  0  0  0  0
    9.9199  -15.7482   27.4677 C   0  0  0  0  0  0  0  0  0  0  0  0
    9.2144  -16.7993   28.0311 O   0  0  0  0  0  0  0  0  0  0  0  0
   11.1591  -15.7068   27.6845 O   0  0  0  0  0  0  0  0  0  0  0  0
  1  2  1  0
  2  3  1  0
  3  5  1  0
  3  4  1  1
  5  6  2  0
  7  8  1  0
  7  5  1  0
  9 10  1  0
  8  9  1  6
 11 10  1  0
 12 11  1  0
 13 12  1  0
 14  8  1  0
 14 15  2  0
 16 14  1  0
 17 16  1  0
 17 20  1  0
 17 18  1  1
 19 18  1  0
 20 21  1  0
 22 20  2  0
M  END
$$$$
