SKC.pdb
     RDKit          3D

 22 21  0  0  1  0  0  0  0  0999 V2000
    9.8014  -12.5889   19.2104 O   0  0  0  0  0  0  0  0  0  0  0  0
    8.7919  -12.7347   20.1844 C   0  0  0  0  0  0  0  0  0  0  0  0
    8.1241  -14.0928   19.9332 C   0  0  2  0  0  0  0  0  0  0  0  0
    7.0947  -13.9986   18.9455 N   0  0  0  0  0  0  0  0  0  0  0  0
    7.6028  -14.5458   21.2447 C   0  0  0  0  0  0  0  0  0  0  0  0
    6.4888  -14.1020   21.6213 O   0  0  0  0  0  0  0  0  0  0  0  0
    8.2891  -15.4458   22.0892 N   0  0  0  0  0  0  0  0  0  0  0  0
    7.7767  -15.9252   23.3552 C   0  0  1  0  0  0  0  0  0  0  0  0
    8.0929  -17.3792   23.5848 C   0  0  0  0  0  0  0  0  0  0  0  0
    7.6462  -17.8494   24.9512 C   0  0  0  0  0  0  0  0  0  0  0  0
    7.8663  -19.3332   25.1302 C   0  0  0  0  0  0  0  0  0  0  0  0
    7.4069  -19.7198   26.5196 C   0  0  0  0  0  0  0  0  0  0  0  0
    7.6624  -21.1128   26.7439 N   0  0  0  0  0  0  0  0  0  0  0  0
    8.2935  -15.0560   24.4318 C   0  0  0  0  0  0  0  0  0  0  0  0
    9.5177  -14.7973   24.4696 O   0  0  0  0  0  0  0  0  0  0  0  0
    7.4667  -14.4898   25.4401 N   0  0  0  0  0  0  0  0  0  0  0  0
    8.0242  -13.7031   26.5381 C   0  0  1  0  0  0  0  0  0  0  0  0
    6.9334  -12.9035   27.1744 C   0  0  0  0  0  0  0  0  0  0  0  0
    6.1146  -11.9549   25.8348 S   0  0  0  0  0  0  0  0  0  0  0  0
    8.6650  -14.5858   27.5470 C   0  0  0  0  0  0  0  0  0  0  0  0
    8.6712  -15.9671   27.4372 O   0  0  0  0  0  0  0  0  0  0  0  0
    9.2334  -14.0872   28.5533 O   0  0  0  0  0  0  0  0  0  0  0  0
  1  2  1  0
  2  3  1  0
  3  5  1  0
  3  4  1  6
  5  6  2  0
  7  8  1  0
  7  5  1  0
  9 10  1  0
  8  9  1  1
 11 10  1  0
 12 11  1  0
 13 12  1  0
 14  8  1  0
 14 15  2  0
 16 14  1  0
 17 16  1  0
 17 20  1  0
 17 18  1  1
 19 18  1  0
 20 21  1  0
 22 20  2  0
M  END
$$$$
