SKC.pdb
     RDKit          3D

 22 21  0  0  1  0  0  0  0  0999 V2000
   10.7174  -20.8047   21.3490 O   0  0  0  0  0  0  0  0  0  0  0  0
    9.5495  -20.2559   20.7801 C   0  0  0  0  0  0  0  0  0  0  0  0
    9.9907  -19.4416   19.5571 C   0  0  2  0  0  0  0  0  0  0  0  0
   10.8952  -20.1796   18.7318 N   0  0  0  0  0  0  0  0  0  0  0  0
   10.6015  -18.1991   20.0865 C   0  0  0  0  0  0  0  0  0  0  0  0
   11.8555  -18.1370   20.1441 O   0  0  0  0  0  0  0  0  0  0  0  0
    9.8515  -17.0867   20.5274 N   0  0  0  0  0  0  0  0  0  0  0  0
   10.4337  -15.8508   21.0053 C   0  0  1  0  0  0  0  0  0  0  0  0
    9.4505  -14.7108   20.9829 C   0  0  0  0  0  0  0  0  0  0  0  0
    8.9721  -14.4000   19.5822 C   0  0  0  0  0  0  0  0  0  0  0  0
    7.9264  -13.3097   19.5788 C   0  0  0  0  0  0  0  0  0  0  0  0
    7.4695  -13.0908   18.1525 C   0  0  0  0  0  0  0  0  0  0  0  0
    6.4306  -12.1029   18.1231 N   0  0  0  0  0  0  0  0  0  0  0  0
   10.9987  -16.0855   22.3498 C   0  0  0  0  0  0  0  0  0  0  0  0
   10.2303  -16.1023   23.3379 O   0  0  0  0  0  0  0  0  0  0  0  0
   12.3845  -16.2960   22.5864 N   0  0  0  0  0  0  0  0  0  0  0  0
   12.9319  -16.3565   23.9400 C   0  0  1  0  0  0  0  0  0  0  0  0
   12.8182  -17.7549   24.4551 C   0  0  0  0  0  0  0  0  0  0  0  0
   12.5481  -17.6376   26.2657 S   0  0  0  0  0  0  0  0  0  0  0  0
   14.3525  -15.9213   23.9542 C   0  0  0  0  0  0  0  0  0  0  0  0
   15.0318  -15.5450   22.8066 O   0  0  0  0  0  0  0  0  0  0  0  0
   14.9911  -15.8827   25.0382 O   0  0  0  0  0  0  0  0  0  0  0  0
  1  2  1  0
  2  3  1  0
  3  5  1  0
  3  4  1  1
  5  6  2  0
  7  8  1  0
  7  5  1  0
  9 10  1  0
  8  9  1  1
 11 10  1  0
 12 11  1  0
 13 12  1  0
 14  8  1  0
 14 15  2  0
 16 14  1  0
 17 16  1  0
 17 20  1  0
 17 18  1  6
 19 18  1  0
 20 21  1  0
 22 20  2  0
M  END
$$$$
