SKC.pdb
     RDKit          3D

 22 21  0  0  1  0  0  0  0  0999 V2000
    9.3090  -12.9918   19.0195 O   0  0  0  0  0  0  0  0  0  0  0  0
    8.4783  -13.0892   20.1550 C   0  0  0  0  0  0  0  0  0  0  0  0
    7.8161  -14.4721   20.1045 C   0  0  2  0  0  0  0  0  0  0  0  0
    6.7221  -14.4985   19.1845 N   0  0  0  0  0  0  0  0  0  0  0  0
    7.3899  -14.7770   21.4910 C   0  0  0  0  0  0  0  0  0  0  0  0
    6.2713  -14.3484   21.8715 O   0  0  0  0  0  0  0  0  0  0  0  0
    8.1714  -15.5205   22.4025 N   0  0  0  0  0  0  0  0  0  0  0  0
    7.7119  -15.9510   23.7058 C   0  0  1  0  0  0  0  0  0  0  0  0
    8.0490  -17.3921   23.9822 C   0  0  0  0  0  0  0  0  0  0  0  0
    7.6111  -17.8235   25.3641 C   0  0  0  0  0  0  0  0  0  0  0  0
    7.9829  -19.2608   25.6438 C   0  0  0  0  0  0  0  0  0  0  0  0
    7.3424  -19.6737   26.9516 C   0  0  0  0  0  0  0  0  0  0  0  0
    7.5265  -21.0807   27.1578 N   0  0  0  0  0  0  0  0  0  0  0  0
    8.2622  -15.0347   24.7253 C   0  0  0  0  0  0  0  0  0  0  0  0
    9.4887  -14.7843   24.7194 O   0  0  0  0  0  0  0  0  0  0  0  0
    7.4655  -14.4136   25.7255 N   0  0  0  0  0  0  0  0  0  0  0  0
    8.0353  -13.4699   26.6847 C   0  0  1  0  0  0  0  0  0  0  0  0
    6.9444  -12.6105   27.2374 C   0  0  0  0  0  0  0  0  0  0  0  0
    6.0765  -11.8613   25.8054 S   0  0  0  0  0  0  0  0  0  0  0  0
    8.7256  -14.1896   27.7861 C   0  0  0  0  0  0  0  0  0  0  0  0
    9.4062  -13.5327   28.7988 O   0  0  0  0  0  0  0  0  0  0  0  0
    8.7087  -15.4475   27.8277 O   0  0  0  0  0  0  0  0  0  0  0  0
  1  2  1  0
  2  3  1  0
  3  5  1  0
  3  4  1  6
  5  6  2  0
  7  8  1  0
  7  5  1  0
  9 10  1  0
  8  9  1  1
 11 10  1  0
 12 11  1  0
 13 12  1  0
 14  8  1  0
 14 15  2  0
 16 14  1  0
 17 16  1  0
 17 20  1  0
 17 18  1  1
 19 18  1  0
 20 21  1  0
 22 20  2  0
M  END
$$$$
