SKC.pdb
     RDKit          3D

 22 21  0  0  1  0  0  0  0  0999 V2000
    9.5443  -13.8858   18.6586 O   0  0  0  0  0  0  0  0  0  0  0  0
    9.0840  -13.8299   19.9905 C   0  0  0  0  0  0  0  0  0  0  0  0
    7.6844  -14.4579   20.0042 C   0  0  2  0  0  0  0  0  0  0  0  0
    6.6970  -13.5542   19.5021 N   0  0  0  0  0  0  0  0  0  0  0  0
    7.4218  -14.8511   21.4090 C   0  0  0  0  0  0  0  0  0  0  0  0
    6.9374  -13.9868   22.1822 O   0  0  0  0  0  0  0  0  0  0  0  0
    7.6861  -16.1402   21.9216 N   0  0  0  0  0  0  0  0  0  0  0  0
    7.3150  -16.5795   23.2498 C   0  0  1  0  0  0  0  0  0  0  0  0
    7.3679  -18.0775   23.3909 C   0  0  0  0  0  0  0  0  0  0  0  0
    7.1009  -18.5247   24.8108 C   0  0  0  0  0  0  0  0  0  0  0  0
    7.2740  -20.0172   24.9676 C   0  0  0  0  0  0  0  0  0  0  0  0
    6.9375  -20.3895   26.3956 C   0  0  0  0  0  0  0  0  0  0  0  0
    6.9931  -21.8139   26.5506 N   0  0  0  0  0  0  0  0  0  0  0  0
    8.1740  -15.8871   24.2319 C   0  0  0  0  0  0  0  0  0  0  0  0
    9.4046  -15.8096   24.0154 O   0  0  0  0  0  0  0  0  0  0  0  0
    7.6741  -15.2965   25.4243 N   0  0  0  0  0  0  0  0  0  0  0  0
    8.5365  -14.5318   26.3226 C   0  0  1  0  0  0  0  0  0  0  0  0
    7.7552  -13.4022   26.9121 C   0  0  0  0  0  0  0  0  0  0  0  0
    8.9184  -12.4280   27.9430 S   0  0  0  0  0  0  0  0  0  0  0  0
    9.0738  -15.3990   27.4028 C   0  0  0  0  0  0  0  0  0  0  0  0
    8.6951  -16.7229   27.5583 O   0  0  0  0  0  0  0  0  0  0  0  0
    9.9089  -14.9403   28.2253 O   0  0  0  0  0  0  0  0  0  0  0  0
  1  2  1  0
  2  3  1  0
  3  5  1  0
  3  4  1  1
  5  6  2  0
  7  8  1  0
  7  5  1  0
  9 10  1  0
  8  9  1  6
 11 10  1  0
 12 11  1  0
 13 12  1  0
 14  8  1  0
 14 15  2  0
 16 14  1  0
 17 16  1  0
 17 20  1  0
 17 18  1  1
 19 18  1  0
 20 21  1  0
 22 20  2  0
M  END
$$$$
