SKC.pdb
     RDKit          3D

 22 21  0  0  1  0  0  0  0  0999 V2000
    7.2989  -14.0291   17.1899 O   0  0  0  0  0  0  0  0  0  0  0  0
    7.1142  -13.0453   18.1833 C   0  0  0  0  0  0  0  0  0  0  0  0
    8.4088  -12.9939   19.0048 C   0  0  2  0  0  0  0  0  0  0  0  0
    9.5647  -12.9612   18.1641 N   0  0  0  0  0  0  0  0  0  0  0  0
    8.3883  -14.1876   19.8833 C   0  0  0  0  0  0  0  0  0  0  0  0
    7.4002  -14.3422   20.6446 O   0  0  0  0  0  0  0  0  0  0  0  0
    9.4161  -15.1557   19.9095 N   0  0  0  0  0  0  0  0  0  0  0  0
    9.4528  -16.2789   20.8216 C   0  0  1  0  0  0  0  0  0  0  0  0
   10.3159  -17.4014   20.3099 C   0  0  0  0  0  0  0  0  0  0  0  0
   10.3995  -18.5479   21.2928 C   0  0  0  0  0  0  0  0  0  0  0  0
   11.3170  -19.6413   20.7980 C   0  0  0  0  0  0  0  0  0  0  0  0
   11.3447  -20.7458   21.8325 C   0  0  0  0  0  0  0  0  0  0  0  0
   12.2130  -21.7990   21.3932 N   0  0  0  0  0  0  0  0  0  0  0  0
    9.8823  -15.7937   22.1490 C   0  0  0  0  0  0  0  0  0  0  0  0
   10.9437  -15.1366   22.2420 O   0  0  0  0  0  0  0  0  0  0  0  0
    9.1474  -16.0348   23.3416 N   0  0  0  0  0  0  0  0  0  0  0  0
    9.6391  -15.6011   24.6476 C   0  0  1  0  0  0  0  0  0  0  0  0
    8.7692  -14.4992   25.1602 C   0  0  0  0  0  0  0  0  0  0  0  0
    7.0458  -15.1274   25.1450 S   0  0  0  0  0  0  0  0  0  0  0  0
    9.6490  -16.7332   25.6099 C   0  0  0  0  0  0  0  0  0  0  0  0
   10.1887  -16.6298   26.8820 O   0  0  0  0  0  0  0  0  0  0  0  0
    9.1542  -17.8438   25.2845 O   0  0  0  0  0  0  0  0  0  0  0  0
  1  2  1  0
  2  3  1  0
  3  5  1  0
  3  4  1  6
  5  6  2  0
  7  8  1  0
  7  5  1  0
  9 10  1  0
  8  9  1  6
 11 10  1  0
 12 11  1  0
 13 12  1  0
 14  8  1  0
 14 15  2  0
 16 14  1  0
 17 16  1  0
 17 20  1  0
 17 18  1  1
 19 18  1  0
 20 21  1  0
 22 20  2  0
M  END
$$$$
