SKC.pdb
     RDKit          3D

 22 21  0  0  1  0  0  0  0  0999 V2000
   -4.3130  -22.2324   30.6294 O   0  0  0  0  0  0  0  0  0  0  0  0
   -4.3156  -22.7706   31.9329 C   0  0  0  0  0  0  0  0  0  0  0  0
   -3.5158  -24.0785   31.8758 C   0  0  2  0  0  0  0  0  0  0  0  0
   -4.2161  -25.0924   31.1508 N   0  0  0  0  0  0  0  0  0  0  0  0
   -3.2621  -24.4695   33.2828 C   0  0  0  0  0  0  0  0  0  0  0  0
   -4.1961  -25.0191   33.9194 O   0  0  0  0  0  0  0  0  0  0  0  0
   -2.0315  -24.2578   33.9424 N   0  0  0  0  0  0  0  0  0  0  0  0
   -1.7258  -24.7451   35.2705 C   0  0  1  0  0  0  0  0  0  0  0  0
   -0.2555  -25.0103   35.4566 C   0  0  0  0  0  0  0  0  0  0  0  0
    0.0560  -25.5421   36.8378 C   0  0  0  0  0  0  0  0  0  0  0  0
    1.5025  -25.9597   36.9618 C   0  0  0  0  0  0  0  0  0  0  0  0
    1.7237  -26.5069   38.3555 C   0  0  0  0  0  0  0  0  0  0  0  0
    3.0628  -27.0062   38.4728 N   0  0  0  0  0  0  0  0  0  0  0  0
   -2.2579  -23.7845   36.2585 C   0  0  0  0  0  0  0  0  0  0  0  0
   -2.1824  -22.5586   36.0164 O   0  0  0  0  0  0  0  0  0  0  0  0
   -2.8585  -24.1805   37.4845 N   0  0  0  0  0  0  0  0  0  0  0  0
   -3.5493  -23.2231   38.3457 C   0  0  1  0  0  0  0  0  0  0  0  0
   -4.6726  -22.5969   37.5840 C   0  0  0  0  0  0  0  0  0  0  0  0
   -5.6213  -21.5739   38.7750 S   0  0  0  0  0  0  0  0  0  0  0  0
   -4.0703  -23.8917   39.5659 C   0  0  0  0  0  0  0  0  0  0  0  0
   -4.1211  -23.2636   40.8001 O   0  0  0  0  0  0  0  0  0  0  0  0
   -4.4896  -25.0770   39.5072 O   0  0  0  0  0  0  0  0  0  0  0  0
  1  2  1  0
  2  3  1  0
  3  5  1  0
  3  4  1  1
  5  6  2  0
  7  8  1  0
  7  5  1  0
  9 10  1  0
  8  9  1  6
 11 10  1  0
 12 11  1  0
 13 12  1  0
 14  8  1  0
 14 15  2  0
 16 14  1  0
 17 16  1  0
 17 20  1  0
 17 18  1  6
 19 18  1  0
 20 21  1  0
 22 20  2  0
M  END
$$$$
