SKC.pdb
     RDKit          3D

 22 21  0  0  1  0  0  0  0  0999 V2000
    9.5066  -13.2206   19.2296 O   0  0  0  0  0  0  0  0  0  0  0  0
    8.5729  -13.2136   20.2865 C   0  0  0  0  0  0  0  0  0  0  0  0
    7.7318  -14.4888   20.1454 C   0  0  2  0  0  0  0  0  0  0  0  0
    6.6484  -14.3062   19.2306 N   0  0  0  0  0  0  0  0  0  0  0  0
    7.2622  -14.8271   21.5100 C   0  0  0  0  0  0  0  0  0  0  0  0
    6.2097  -14.2789   21.9239 O   0  0  0  0  0  0  0  0  0  0  0  0
    7.9325  -15.7289   22.3654 N   0  0  0  0  0  0  0  0  0  0  0  0
    7.4730  -16.0881   23.6901 C   0  0  1  0  0  0  0  0  0  0  0  0
    7.7128  -17.5412   24.0027 C   0  0  0  0  0  0  0  0  0  0  0  0
    7.3786  -17.8765   25.4391 C   0  0  0  0  0  0  0  0  0  0  0  0
    7.7407  -19.3035   25.7778 C   0  0  0  0  0  0  0  0  0  0  0  0
    7.3440  -19.5687   27.2141 C   0  0  0  0  0  0  0  0  0  0  0  0
    7.6534  -20.9257   27.5592 N   0  0  0  0  0  0  0  0  0  0  0  0
    8.1098  -15.1850   24.6702 C   0  0  0  0  0  0  0  0  0  0  0  0
    9.3523  -15.0351   24.6412 O   0  0  0  0  0  0  0  0  0  0  0  0
    7.3803  -14.4676   25.6570 N   0  0  0  0  0  0  0  0  0  0  0  0
    8.0520  -13.6588   26.6719 C   0  0  1  0  0  0  0  0  0  0  0  0
    7.0970  -12.6366   27.1984 C   0  0  0  0  0  0  0  0  0  0  0  0
    6.7436  -11.4761   25.8224 S   0  0  0  0  0  0  0  0  0  0  0  0
    8.5495  -14.5120   27.7819 C   0  0  0  0  0  0  0  0  0  0  0  0
    9.2627  -14.0032   28.8555 O   0  0  0  0  0  0  0  0  0  0  0  0
    8.3295  -15.7513   27.7742 O   0  0  0  0  0  0  0  0  0  0  0  0
  1  2  1  0
  2  3  1  0
  3  5  1  0
  3  4  1  6
  5  6  2  0
  7  8  1  0
  7  5  1  0
  9 10  1  0
  8  9  1  1
 11 10  1  0
 12 11  1  0
 13 12  1  0
 14  8  1  0
 14 15  2  0
 16 14  1  0
 17 16  1  0
 17 20  1  0
 17 18  1  1
 19 18  1  0
 20 21  1  0
 22 20  2  0
M  END
$$$$
