FKD.pdb
     RDKit          3D

 29 29  0  0  1  0  0  0  0  0999 V2000
    6.1396  -16.0019   24.1856 N   0  0  0  0  0  0  0  0  0  0  0  0
    7.4163  -15.3309   24.0340 C   0  0  1  0  0  0  0  0  0  0  0  0
    7.9318  -14.7867   25.3274 C   0  0  0  0  0  0  0  0  0  0  0  0
    7.2005  -13.6233   25.8293 C   0  0  0  0  0  0  0  0  0  0  0  0
    6.4189  -13.6344   26.9699 C   0  0  0  0  0  0  0  0  0  0  0  0
    5.7378  -12.5184   27.4227 C   0  0  0  0  0  0  0  0  0  0  0  0
    5.8420  -11.3366   26.7034 C   0  0  0  0  0  0  0  0  0  0  0  0
    6.6127  -11.2906   25.5619 C   0  0  0  0  0  0  0  0  0  0  0  0
    7.2873  -12.4380   25.1334 C   0  0  0  0  0  0  0  0  0  0  0  0
    8.4151  -16.3134   23.5365 C   0  0  0  0  0  0  0  0  0  0  0  0
    8.8618  -17.1397   24.3931 O   0  0  0  0  0  0  0  0  0  0  0  0
    8.8406  -16.3254   22.1905 N   0  0  0  0  0  0  0  0  0  0  0  0
    9.8363  -17.2723   21.7388 C   0  0  1  0  0  0  0  0  0  0  0  0
    9.9098  -17.1299   20.2358 C   0  0  0  0  0  0  0  0  0  0  0  0
   10.8359  -18.0898   19.5700 C   0  0  0  0  0  0  0  0  0  0  0  0
   10.7435  -18.0458   18.0617 C   0  0  0  0  0  0  0  0  0  0  0  0
   11.6547  -19.1523   17.5252 C   0  0  0  0  0  0  0  0  0  0  0  0
   11.5471  -19.2131   16.0871 N   0  0  0  0  0  0  0  0  0  0  0  0
   11.1281  -16.9985   22.4088 C   0  0  0  0  0  0  0  0  0  0  0  0
   11.5243  -15.8173   22.5181 O   0  0  0  0  0  0  0  0  0  0  0  0
   11.9589  -18.0052   22.9434 N   0  0  0  0  0  0  0  0  0  0  0  0
   13.2224  -17.7500   23.6204 C   0  0  1  0  0  0  0  0  0  0  0  0
   13.4698  -18.7192   24.7268 C   0  0  0  0  0  0  0  0  0  0  0  0
   14.9153  -18.7868   25.0217 C   0  0  0  0  0  0  0  0  0  0  0  0
   15.7486  -18.0652   24.4244 O   0  0  0  0  0  0  0  0  0  0  0  0
   14.2871  -17.7031   22.6253 C   0  0  0  0  0  0  0  0  0  0  0  0
   14.2881  -18.5270   21.5008 O   0  0  0  0  0  0  0  0  0  0  0  0
   15.4359  -19.6633   25.9877 O   0  0  0  0  0  0  0  0  0  0  0  0
   15.2473  -16.8779   22.7978 O   0  0  0  0  0  0  0  0  0  0  0  0
  2  1  1  1
  2 10  1  0
  2  3  1  0
  3  4  1  0
  4  5  2  0
  4  9  1  0
  5  6  1  0
  6  7  2  0
  8  7  1  0
  9  8  2  0
 10 12  1  0
 11 10  2  0
 12 13  1  0
 13 14  1  6
 14 15  1  0
 15 16  1  0
 16 17  1  0
 17 18  1  0
 19 20  2  0
 19 13  1  0
 21 19  1  0
 22 26  1  0
 22 21  1  0
 22 23  1  1
 24 25  2  0
 24 23  1  0
 26 27  1  0
 28 24  1  0
 29 26  2  0
M  END
$$$$
