FKD.pdb
     RDKit          3D

 29 29  0  0  1  0  0  0  0  0999 V2000
    6.3872  -16.6330   25.6463 N   0  0  0  0  0  0  0  0  0  0  0  0
    6.7838  -15.4868   24.8511 C   0  0  1  0  0  0  0  0  0  0  0  0
    7.8817  -14.7002   25.4920 C   0  0  0  0  0  0  0  0  0  0  0  0
    7.4228  -13.6388   26.3880 C   0  0  0  0  0  0  0  0  0  0  0  0
    6.2854  -12.8827   26.1723 C   0  0  0  0  0  0  0  0  0  0  0  0
    5.8737  -11.8844   27.0373 C   0  0  0  0  0  0  0  0  0  0  0  0
    6.6329  -11.6292   28.1701 C   0  0  0  0  0  0  0  0  0  0  0  0
    7.7725  -12.3641   28.4157 C   0  0  0  0  0  0  0  0  0  0  0  0
    8.1588  -13.3657   27.5197 C   0  0  0  0  0  0  0  0  0  0  0  0
    7.2909  -15.9692   23.5394 C   0  0  0  0  0  0  0  0  0  0  0  0
    7.3572  -17.2304   23.3946 O   0  0  0  0  0  0  0  0  0  0  0  0
    7.6758  -15.0759   22.5162 N   0  0  0  0  0  0  0  0  0  0  0  0
    8.1889  -15.5710   21.2577 C   0  0  1  0  0  0  0  0  0  0  0  0
    7.9340  -14.4860   20.2366 C   0  0  0  0  0  0  0  0  0  0  0  0
    8.3681  -14.8280   18.8521 C   0  0  0  0  0  0  0  0  0  0  0  0
    8.0497  -13.7410   17.8507 C   0  0  0  0  0  0  0  0  0  0  0  0
    8.4846  -14.2569   16.4771 C   0  0  0  0  0  0  0  0  0  0  0  0
    8.1689  -13.2736   15.4686 N   0  0  0  0  0  0  0  0  0  0  0  0
    9.6243  -15.9056   21.3989 C   0  0  0  0  0  0  0  0  0  0  0  0
   10.3699  -15.1453   22.0548 O   0  0  0  0  0  0  0  0  0  0  0  0
   10.2185  -17.0511   20.8294 N   0  0  0  0  0  0  0  0  0  0  0  0
   11.6422  -17.3501   20.8885 C   0  0  1  0  0  0  0  0  0  0  0  0
   11.9215  -18.5882   21.6720 C   0  0  0  0  0  0  0  0  0  0  0  0
   12.1457  -18.2451   23.0908 C   0  0  0  0  0  0  0  0  0  0  0  0
   13.0797  -17.4903   23.4512 O   0  0  0  0  0  0  0  0  0  0  0  0
   12.1731  -17.3762   19.5308 C   0  0  0  0  0  0  0  0  0  0  0  0
   13.3091  -16.6559   19.1646 O   0  0  0  0  0  0  0  0  0  0  0  0
   11.3246  -18.7455   24.1145 O   0  0  0  0  0  0  0  0  0  0  0  0
   11.5708  -18.0839   18.6538 O   0  0  0  0  0  0  0  0  0  0  0  0
  2  1  1  1
  2 10  1  0
  2  3  1  0
  3  4  1  0
  4  5  2  0
  4  9  1  0
  5  6  1  0
  6  7  2  0
  8  7  1  0
  9  8  2  0
 10 12  1  0
 11 10  2  0
 12 13  1  0
 13 14  1  6
 14 15  1  0
 15 16  1  0
 16 17  1  0
 17 18  1  0
 19 20  2  0
 19 13  1  0
 21 19  1  0
 22 26  1  0
 22 21  1  0
 22 23  1  6
 24 25  2  0
 24 23  1  0
 26 27  1  0
 28 24  1  0
 29 26  2  0
M  END
$$$$
