FKD.pdb
     RDKit          3D

 29 29  0  0  1  0  0  0  0  0999 V2000
    5.8353  -17.9338   25.5921 N   0  0  0  0  0  0  0  0  0  0  0  0
    6.2390  -16.5604   25.3597 C   0  0  1  0  0  0  0  0  0  0  0  0
    6.9238  -15.9587   26.5445 C   0  0  0  0  0  0  0  0  0  0  0  0
    6.9823  -14.4971   26.5325 C   0  0  0  0  0  0  0  0  0  0  0  0
    8.1003  -13.7709   26.1657 C   0  0  0  0  0  0  0  0  0  0  0  0
    8.1280  -12.3876   26.1629 C   0  0  0  0  0  0  0  0  0  0  0  0
    6.9864  -11.6973   26.5440 C   0  0  0  0  0  0  0  0  0  0  0  0
    5.8544  -12.3899   26.9156 C   0  0  0  0  0  0  0  0  0  0  0  0
    5.8622  -13.7882   26.9066 C   0  0  0  0  0  0  0  0  0  0  0  0
    7.2032  -16.5320   24.2282 C   0  0  0  0  0  0  0  0  0  0  0  0
    8.0598  -17.4708   24.1994 O   0  0  0  0  0  0  0  0  0  0  0  0
    7.1668  -15.5198   23.2447 N   0  0  0  0  0  0  0  0  0  0  0  0
    8.0653  -15.5579   22.1119 C   0  0  1  0  0  0  0  0  0  0  0  0
    7.5835  -14.4967   21.1493 C   0  0  0  0  0  0  0  0  0  0  0  0
    8.3524  -14.4261   19.8741 C   0  0  0  0  0  0  0  0  0  0  0  0
    7.7971  -13.4038   18.9087 C   0  0  0  0  0  0  0  0  0  0  0  0
    8.6334  -13.4954   17.6302 C   0  0  0  0  0  0  0  0  0  0  0  0
    8.1825  -12.5022   16.6848 N   0  0  0  0  0  0  0  0  0  0  0  0
    9.4562  -15.3352   22.5683 C   0  0  0  0  0  0  0  0  0  0  0  0
    9.6590  -14.8212   23.6903 O   0  0  0  0  0  0  0  0  0  0  0  0
   10.5922  -15.6723   21.8032 N   0  0  0  0  0  0  0  0  0  0  0  0
   11.8460  -16.1521   22.3668 C   0  0  1  0  0  0  0  0  0  0  0  0
   11.6378  -17.2970   23.2999 C   0  0  0  0  0  0  0  0  0  0  0  0
   12.9416  -17.7948   23.7830 C   0  0  0  0  0  0  0  0  0  0  0  0
   13.5302  -18.7554   23.2328 O   0  0  0  0  0  0  0  0  0  0  0  0
   12.7718  -16.4372   21.2771 C   0  0  0  0  0  0  0  0  0  0  0  0
   12.3679  -16.4425   19.9429 O   0  0  0  0  0  0  0  0  0  0  0  0
   13.5938  -17.2193   24.8857 O   0  0  0  0  0  0  0  0  0  0  0  0
   13.9911  -16.6907   21.5632 O   0  0  0  0  0  0  0  0  0  0  0  0
  2  1  1  1
  2 10  1  0
  2  3  1  0
  3  4  1  0
  4  5  2  0
  4  9  1  0
  5  6  1  0
  6  7  2  0
  8  7  1  0
  9  8  2  0
 10 12  1  0
 11 10  2  0
 12 13  1  0
 13 14  1  6
 14 15  1  0
 15 16  1  0
 16 17  1  0
 17 18  1  0
 19 20  2  0
 19 13  1  0
 21 19  1  0
 22 26  1  0
 22 21  1  0
 22 23  1  6
 24 25  2  0
 24 23  1  0
 26 27  1  0
 28 24  1  0
 29 26  2  0
M  END
$$$$
