FKD.pdb
     RDKit          3D

 29 29  0  0  1  0  0  0  0  0999 V2000
    6.2767  -17.3288   25.5776 N   0  0  0  0  0  0  0  0  0  0  0  0
    6.6632  -16.0351   25.0480 C   0  0  1  0  0  0  0  0  0  0  0  0
    7.4755  -15.2406   26.0195 C   0  0  0  0  0  0  0  0  0  0  0  0
    6.8655  -13.9745   26.4258 C   0  0  0  0  0  0  0  0  0  0  0  0
    5.9520  -13.2750   25.6590 C   0  0  0  0  0  0  0  0  0  0  0  0
    5.3897  -12.0789   26.0683 C   0  0  0  0  0  0  0  0  0  0  0  0
    5.7566  -11.5570   27.3003 C   0  0  0  0  0  0  0  0  0  0  0  0
    6.6648  -12.2284   28.0901 C   0  0  0  0  0  0  0  0  0  0  0  0
    7.2130  -13.4352   27.6446 C   0  0  0  0  0  0  0  0  0  0  0  0
    7.5007  -16.2464   23.8379 C   0  0  0  0  0  0  0  0  0  0  0  0
    8.1612  -17.3318   23.7970 O   0  0  0  0  0  0  0  0  0  0  0  0
    7.5570  -15.2950   22.7964 N   0  0  0  0  0  0  0  0  0  0  0  0
    8.5377  -15.4133   21.7399 C   0  0  1  0  0  0  0  0  0  0  0  0
    8.2841  -14.2638   20.7916 C   0  0  0  0  0  0  0  0  0  0  0  0
    8.3183  -14.6359   19.3485 C   0  0  0  0  0  0  0  0  0  0  0  0
    8.0854  -13.4567   18.4316 C   0  0  0  0  0  0  0  0  0  0  0  0
    7.9358  -14.0146   17.0144 C   0  0  0  0  0  0  0  0  0  0  0  0
    7.6521  -12.9367   16.0973 N   0  0  0  0  0  0  0  0  0  0  0  0
    9.9009  -15.3954   22.3177 C   0  0  0  0  0  0  0  0  0  0  0  0
   10.0651  -14.9924   23.4902 O   0  0  0  0  0  0  0  0  0  0  0  0
   11.0514  -15.8125   21.6163 N   0  0  0  0  0  0  0  0  0  0  0  0
   12.1457  -16.5654   22.2127 C   0  0  1  0  0  0  0  0  0  0  0  0
   11.6581  -17.7482   22.9795 C   0  0  0  0  0  0  0  0  0  0  0  0
   12.8061  -18.5139   23.5055 C   0  0  0  0  0  0  0  0  0  0  0  0
   13.4048  -19.3712   22.8136 O   0  0  0  0  0  0  0  0  0  0  0  0
   13.1127  -16.8924   21.1715 C   0  0  0  0  0  0  0  0  0  0  0  0
   12.7220  -17.2430   19.8801 O   0  0  0  0  0  0  0  0  0  0  0  0
   13.2904  -18.3239   24.8100 O   0  0  0  0  0  0  0  0  0  0  0  0
   14.3566  -16.8551   21.4610 O   0  0  0  0  0  0  0  0  0  0  0  0
  2  1  1  1
  2 10  1  0
  2  3  1  0
  3  4  1  0
  4  5  2  0
  4  9  1  0
  5  6  1  0
  6  7  2  0
  8  7  1  0
  9  8  2  0
 10 12  1  0
 11 10  2  0
 12 13  1  0
 13 14  1  6
 14 15  1  0
 15 16  1  0
 16 17  1  0
 17 18  1  0
 19 20  2  0
 19 13  1  0
 21 19  1  0
 22 26  1  0
 22 21  1  0
 22 23  1  6
 24 25  2  0
 24 23  1  0
 26 27  1  0
 28 24  1  0
 29 26  2  0
M  END
$$$$
