FKD.pdb
     RDKit          3D

 29 29  0  0  1  0  0  0  0  0999 V2000
    6.1833  -17.6492   25.9307 N   0  0  0  0  0  0  0  0  0  0  0  0
    6.5941  -16.3361   25.4720 C   0  0  1  0  0  0  0  0  0  0  0  0
    7.4499  -15.6251   26.4704 C   0  0  0  0  0  0  0  0  0  0  0  0
    7.0972  -14.2207   26.6792 C   0  0  0  0  0  0  0  0  0  0  0  0
    5.8604  -13.6810   26.3777 C   0  0  0  0  0  0  0  0  0  0  0  0
    5.5533  -12.3481   26.5861 C   0  0  0  0  0  0  0  0  0  0  0  0
    6.5262  -11.5156   27.1202 C   0  0  0  0  0  0  0  0  0  0  0  0
    7.7698  -12.0208   27.4322 C   0  0  0  0  0  0  0  0  0  0  0  0
    8.0453  -13.3733   27.2082 C   0  0  0  0  0  0  0  0  0  0  0  0
    7.3980  -16.4946   24.2314 C   0  0  0  0  0  0  0  0  0  0  0  0
    8.0385  -17.5865   24.1153 O   0  0  0  0  0  0  0  0  0  0  0  0
    7.4453  -15.4889   23.2417 N   0  0  0  0  0  0  0  0  0  0  0  0
    8.1935  -15.6891   22.0201 C   0  0  1  0  0  0  0  0  0  0  0  0
    7.7932  -14.5699   21.0863 C   0  0  0  0  0  0  0  0  0  0  0  0
    8.4215  -14.6389   19.7362 C   0  0  0  0  0  0  0  0  0  0  0  0
    7.8766  -13.6019   18.7805 C   0  0  0  0  0  0  0  0  0  0  0  0
    8.5141  -13.8726   17.4158 C   0  0  0  0  0  0  0  0  0  0  0  0
    8.1252  -12.8389   16.4864 N   0  0  0  0  0  0  0  0  0  0  0  0
    9.6439  -15.7023   22.3177 C   0  0  0  0  0  0  0  0  0  0  0  0
   10.1211  -14.8362   23.0835 O   0  0  0  0  0  0  0  0  0  0  0  0
   10.5421  -16.6487   21.7818 N   0  0  0  0  0  0  0  0  0  0  0  0
   11.9712  -16.6696   22.0593 C   0  0  1  0  0  0  0  0  0  0  0  0
   12.4934  -18.0597   22.1993 C   0  0  0  0  0  0  0  0  0  0  0  0
   12.3215  -18.5231   23.5910 C   0  0  0  0  0  0  0  0  0  0  0  0
   11.7484  -19.6043   23.8642 O   0  0  0  0  0  0  0  0  0  0  0  0
   12.6579  -15.8785   21.0450 C   0  0  0  0  0  0  0  0  0  0  0  0
   12.1871  -15.7803   19.7366 O   0  0  0  0  0  0  0  0  0  0  0  0
   12.7908  -17.7781   24.6851 O   0  0  0  0  0  0  0  0  0  0  0  0
   13.7260  -15.2594   21.3743 O   0  0  0  0  0  0  0  0  0  0  0  0
  2  1  1  1
  2 10  1  0
  2  3  1  0
  3  4  1  0
  4  5  2  0
  4  9  1  0
  5  6  1  0
  6  7  2  0
  8  7  1  0
  9  8  2  0
 10 12  1  0
 11 10  2  0
 12 13  1  0
 13 14  1  6
 14 15  1  0
 15 16  1  0
 16 17  1  0
 17 18  1  0
 19 20  2  0
 19 13  1  0
 21 19  1  0
 22 26  1  0
 22 21  1  0
 22 23  1  6
 24 25  2  0
 24 23  1  0
 26 27  1  0
 28 24  1  0
 29 26  2  0
M  END
$$$$
