FKD.pdb
     RDKit          3D

 29 29  0  0  1  0  0  0  0  0999 V2000
    5.5102  -17.1184   24.6799 N   0  0  0  0  0  0  0  0  0  0  0  0
    6.3135  -15.9195   24.5354 C   0  0  1  0  0  0  0  0  0  0  0  0
    7.1492  -15.6437   25.7438 C   0  0  0  0  0  0  0  0  0  0  0  0
    7.2203  -14.2322   26.1216 C   0  0  0  0  0  0  0  0  0  0  0  0
    8.2676  -13.3939   25.7867 C   0  0  0  0  0  0  0  0  0  0  0  0
    8.3091  -12.0614   26.1570 C   0  0  0  0  0  0  0  0  0  0  0  0
    7.2560  -11.5419   26.8959 C   0  0  0  0  0  0  0  0  0  0  0  0
    6.1961  -12.3498   27.2469 C   0  0  0  0  0  0  0  0  0  0  0  0
    6.1875  -13.6922   26.8555 C   0  0  0  0  0  0  0  0  0  0  0  0
    7.2402  -16.1023   23.3872 C   0  0  0  0  0  0  0  0  0  0  0  0
    7.4265  -17.2998   23.0036 O   0  0  0  0  0  0  0  0  0  0  0  0
    7.8750  -15.0074   22.7616 N   0  0  0  0  0  0  0  0  0  0  0  0
    8.6057  -15.1845   21.5260 C   0  0  1  0  0  0  0  0  0  0  0  0
    8.7695  -13.8067   20.9260 C   0  0  0  0  0  0  0  0  0  0  0  0
    7.8124  -13.4952   19.8265 C   0  0  0  0  0  0  0  0  0  0  0  0
    8.2681  -14.0202   18.4840 C   0  0  0  0  0  0  0  0  0  0  0  0
    7.1950  -13.6319   17.4642 C   0  0  0  0  0  0  0  0  0  0  0  0
    7.5313  -14.1843   16.1737 N   0  0  0  0  0  0  0  0  0  0  0  0
    9.8984  -15.8526   21.8000 C   0  0  0  0  0  0  0  0  0  0  0  0
   10.5934  -16.2600   20.8434 O   0  0  0  0  0  0  0  0  0  0  0  0
   10.4079  -16.0641   23.0981 N   0  0  0  0  0  0  0  0  0  0  0  0
   11.7739  -16.4793   23.3838 C   0  0  1  0  0  0  0  0  0  0  0  0
   12.7272  -15.3329   23.3419 C   0  0  0  0  0  0  0  0  0  0  0  0
   14.1084  -15.8209   23.5298 C   0  0  0  0  0  0  0  0  0  0  0  0
   14.7713  -15.5552   24.5603 O   0  0  0  0  0  0  0  0  0  0  0  0
   11.7874  -17.2148   24.6427 C   0  0  0  0  0  0  0  0  0  0  0  0
   11.0357  -16.8116   25.7454 O   0  0  0  0  0  0  0  0  0  0  0  0
   14.7552  -16.6095   22.5644 O   0  0  0  0  0  0  0  0  0  0  0  0
   12.5155  -18.2611   24.7301 O   0  0  0  0  0  0  0  0  0  0  0  0
  2  1  1  1
  2 10  1  0
  2  3  1  0
  3  4  1  0
  4  5  2  0
  4  9  1  0
  5  6  1  0
  6  7  2  0
  8  7  1  0
  9  8  2  0
 10 12  1  0
 11 10  2  0
 12 13  1  0
 13 14  1  1
 14 15  1  0
 15 16  1  0
 16 17  1  0
 17 18  1  0
 19 20  2  0
 19 13  1  0
 21 19  1  0
 22 26  1  0
 22 21  1  0
 22 23  1  1
 24 25  2  0
 24 23  1  0
 26 27  1  0
 28 24  1  0
 29 26  2  0
M  END
$$$$
