FKD.pdb
     RDKit          3D

 29 29  0  0  1  0  0  0  0  0999 V2000
    5.7741  -17.1268   25.4788 N   0  0  0  0  0  0  0  0  0  0  0  0
    6.7143  -16.1319   24.9999 C   0  0  1  0  0  0  0  0  0  0  0  0
    7.2398  -15.2673   26.1004 C   0  0  0  0  0  0  0  0  0  0  0  0
    6.7982  -13.8740   26.0393 C   0  0  0  0  0  0  0  0  0  0  0  0
    5.9873  -13.2775   26.9872 C   0  0  0  0  0  0  0  0  0  0  0  0
    5.5848  -11.9563   26.9049 C   0  0  0  0  0  0  0  0  0  0  0  0
    6.0118  -11.1954   25.8262 C   0  0  0  0  0  0  0  0  0  0  0  0
    6.8209  -11.7585   24.8632 C   0  0  0  0  0  0  0  0  0  0  0  0
    7.2083  -13.0972   24.9785 C   0  0  0  0  0  0  0  0  0  0  0  0
    7.8771  -16.8295   24.3900 C   0  0  0  0  0  0  0  0  0  0  0  0
    8.2842  -17.8713   24.9939 O   0  0  0  0  0  0  0  0  0  0  0  0
    8.4911  -16.3595   23.2088 N   0  0  0  0  0  0  0  0  0  0  0  0
    9.5240  -17.1327   22.5552 C   0  0  1  0  0  0  0  0  0  0  0  0
    9.5681  -16.6589   21.1204 C   0  0  0  0  0  0  0  0  0  0  0  0
    8.9477  -17.5971   20.1420 C   0  0  0  0  0  0  0  0  0  0  0  0
    9.0250  -17.0968   18.7175 C   0  0  0  0  0  0  0  0  0  0  0  0
    8.3811  -18.1662   17.8322 C   0  0  0  0  0  0  0  0  0  0  0  0
    8.4219  -17.7418   16.4531 N   0  0  0  0  0  0  0  0  0  0  0  0
   10.8111  -16.9491   23.2638 C   0  0  0  0  0  0  0  0  0  0  0  0
   11.1613  -15.8002   23.6122 O   0  0  0  0  0  0  0  0  0  0  0  0
   11.6870  -18.0090   23.5784 N   0  0  0  0  0  0  0  0  0  0  0  0
   12.9990  -17.8342   24.1850 C   0  0  1  0  0  0  0  0  0  0  0  0
   13.3835  -19.0004   25.0316 C   0  0  0  0  0  0  0  0  0  0  0  0
   12.5348  -19.0462   26.2393 C   0  0  0  0  0  0  0  0  0  0  0  0
   12.3368  -18.0323   26.9498 O   0  0  0  0  0  0  0  0  0  0  0  0
   13.9627  -17.5201   23.1368 C   0  0  0  0  0  0  0  0  0  0  0  0
   15.2518  -17.0740   23.4240 O   0  0  0  0  0  0  0  0  0  0  0  0
   11.9025  -20.2282   26.6583 O   0  0  0  0  0  0  0  0  0  0  0  0
   13.6054  -17.6599   21.9180 O   0  0  0  0  0  0  0  0  0  0  0  0
  2  1  1  1
  2 10  1  0
  2  3  1  0
  3  4  1  0
  4  5  2  0
  4  9  1  0
  5  6  1  0
  6  7  2  0
  8  7  1  0
  9  8  2  0
 10 12  1  0
 11 10  2  0
 12 13  1  0
 13 14  1  6
 14 15  1  0
 15 16  1  0
 16 17  1  0
 17 18  1  0
 19 20  2  0
 19 13  1  0
 21 19  1  0
 22 26  1  0
 22 21  1  0
 22 23  1  6
 24 25  2  0
 24 23  1  0
 26 27  1  0
 28 24  1  0
 29 26  2  0
M  END
$$$$
