KNV.pdb
     RDKit          3D

 25 24  0  0  1  0  0  0  0  0999 V2000
    7.5465  -16.9533   20.0011 N   0  0  0  0  0  0  0  0  0  0  0  0
    6.4008  -16.8107   20.8842 C   0  0  1  0  0  0  0  0  0  0  0  0
    5.4876  -17.9813   20.5970 C   0  0  0  0  0  0  0  0  0  0  0  0
    5.7330  -18.3989   19.1548 C   0  0  0  0  0  0  0  0  0  0  0  0
    4.8806  -19.5922   18.7791 C   0  0  0  0  0  0  0  0  0  0  0  0
    5.0888  -19.9021   17.3313 C   0  0  0  0  0  0  0  0  0  0  0  0
    4.2206  -21.0382   16.9856 N   0  0  0  0  0  0  0  0  0  0  0  0
    6.8232  -16.7786   22.3108 C   0  0  0  0  0  0  0  0  0  0  0  0
    5.9604  -16.6192   23.2178 O   0  0  0  0  0  0  0  0  0  0  0  0
    9.4432  -17.3346   26.7994 N   0  0  0  0  0  0  0  0  0  0  0  0
   10.1266  -17.9622   25.7310 C   0  0  0  0  0  0  0  0  0  0  0  0
   11.1640  -18.6860   25.9594 O   0  0  0  0  0  0  0  0  0  0  0  0
    9.7447  -17.8584   24.3127 C   0  0  0  0  0  0  0  0  0  0  0  0
    8.5685  -16.9490   24.1503 C   0  0  2  0  0  0  0  0  0  0  0  0
    8.1672  -16.9200   22.7173 N   0  0  0  0  0  0  0  0  0  0  0  0
    8.7369  -15.5718   24.6202 C   0  0  0  0  0  0  0  0  0  0  0  0
    9.5546  -14.8022   23.9902 O   0  0  0  0  0  0  0  0  0  0  0  0
    6.1286  -12.6830   26.7733 C   0  0  0  0  0  0  0  0  0  0  0  0
    7.3385  -12.5558   25.8965 C   0  0  2  0  0  0  0  0  0  0  0  0
    6.9608  -12.3586   24.4321 C   0  0  0  0  0  0  0  0  0  0  0  0
    8.3737  -13.5788   26.1092 C   0  0  2  0  0  0  0  0  0  0  0  0
    8.1318  -14.9104   25.6883 N   0  0  0  0  0  0  0  0  0  0  0  0
    8.7688  -13.5781   27.5327 C   0  0  0  0  0  0  0  0  0  0  0  0
    9.2635  -12.4211   28.0989 O   0  0  0  0  0  0  0  0  0  0  0  0
    8.6775  -14.5935   28.2725 O   0  0  0  0  0  0  0  0  0  0  0  0
  2  3  1  0
  2  1  1  6
  4  3  1  0
  5  4  1  0
  6  5  1  0
  7  6  1  0
  8  9  2  0
  8  2  1  0
 10 11  1  0
 11 13  1  0
 12 11  2  0
 14 13  1  6
 14 15  1  0
 15  8  1  0
 16 14  1  0
 16 17  2  0
 19 18  1  1
 20 19  1  0
 21 19  1  0
 21 22  1  1
 22 16  1  0
 23 21  1  0
 24 23  1  0
 25 23  2  0
M  END
$$$$
