KNV.pdb
     RDKit          3D

 25 24  0  0  1  0  0  0  0  0999 V2000
    8.4170  -15.9713   19.5257 N   0  0  0  0  0  0  0  0  0  0  0  0
    7.8216  -14.8392   20.2159 C   0  0  1  0  0  0  0  0  0  0  0  0
    6.6304  -14.4091   19.3895 C   0  0  0  0  0  0  0  0  0  0  0  0
    7.0255  -14.5469   17.9268 C   0  0  0  0  0  0  0  0  0  0  0  0
    8.1617  -13.6096   17.5773 C   0  0  0  0  0  0  0  0  0  0  0  0
    8.4143  -13.6793   16.1052 C   0  0  0  0  0  0  0  0  0  0  0  0
    9.5826  -12.8358   15.8094 N   0  0  0  0  0  0  0  0  0  0  0  0
    7.4265  -15.2037   21.6035 C   0  0  0  0  0  0  0  0  0  0  0  0
    6.7473  -14.3962   22.2958 O   0  0  0  0  0  0  0  0  0  0  0  0
    6.8178  -17.6945   26.1994 N   0  0  0  0  0  0  0  0  0  0  0  0
    7.3994  -18.5709   25.2529 C   0  0  0  0  0  0  0  0  0  0  0  0
    7.6736  -19.7849   25.5742 O   0  0  0  0  0  0  0  0  0  0  0  0
    7.7386  -18.2060   23.8672 C   0  0  0  0  0  0  0  0  0  0  0  0
    7.3879  -16.7770   23.5991 C   0  0  2  0  0  0  0  0  0  0  0  0
    7.7767  -16.4316   22.2045 N   0  0  0  0  0  0  0  0  0  0  0  0
    7.9610  -15.7815   24.5081 C   0  0  0  0  0  0  0  0  0  0  0  0
    9.2148  -15.5061   24.4079 O   0  0  0  0  0  0  0  0  0  0  0  0
    7.7677  -11.5111   26.9178 C   0  0  0  0  0  0  0  0  0  0  0  0
    7.0640  -12.6948   26.3243 C   0  0  2  0  0  0  0  0  0  0  0  0
    5.7167  -12.9487   26.9924 C   0  0  0  0  0  0  0  0  0  0  0  0
    7.8899  -13.9030   26.1777 C   0  0  2  0  0  0  0  0  0  0  0  0
    7.3527  -15.0365   25.5178 N   0  0  0  0  0  0  0  0  0  0  0  0
    8.3999  -14.3039   27.5050 C   0  0  0  0  0  0  0  0  0  0  0  0
    9.1644  -13.4165   28.2344 O   0  0  0  0  0  0  0  0  0  0  0  0
    8.1715  -15.4315   28.0179 O   0  0  0  0  0  0  0  0  0  0  0  0
  2  3  1  0
  2  1  1  6
  4  3  1  0
  5  4  1  0
  6  5  1  0
  7  6  1  0
  8  9  2  0
  8  2  1  0
 10 11  1  0
 11 13  1  0
 12 11  2  0
 14 13  1  1
 14 15  1  0
 15  8  1  0
 16 14  1  0
 16 17  2  0
 19 18  1  1
 20 19  1  0
 21 19  1  0
 21 22  1  1
 22 16  1  0
 23 21  1  0
 24 23  1  0
 25 23  2  0
M  END
$$$$
