KNV.pdb
     RDKit          3D

 25 24  0  0  1  0  0  0  0  0999 V2000
    9.9310  -14.7500   19.2029 N   0  0  0  0  0  0  0  0  0  0  0  0
    8.7329  -14.1051   19.7141 C   0  0  1  0  0  0  0  0  0  0  0  0
    7.6559  -14.3099   18.6724 C   0  0  0  0  0  0  0  0  0  0  0  0
    8.3076  -14.1238   17.3103 C   0  0  0  0  0  0  0  0  0  0  0  0
    7.2936  -14.2677   16.1955 C   0  0  0  0  0  0  0  0  0  0  0  0
    8.0027  -14.1971   14.8810 C   0  0  0  0  0  0  0  0  0  0  0  0
    7.0017  -14.3859   13.8198 N   0  0  0  0  0  0  0  0  0  0  0  0
    8.3389  -14.6719   21.0324 C   0  0  0  0  0  0  0  0  0  0  0  0
    7.2829  -14.2737   21.5970 O   0  0  0  0  0  0  0  0  0  0  0  0
    7.9577  -18.4138   21.2286 N   0  0  0  0  0  0  0  0  0  0  0  0
    9.0391  -18.5468   22.1315 C   0  0  0  0  0  0  0  0  0  0  0  0
    9.8042  -19.5785   22.0813 O   0  0  0  0  0  0  0  0  0  0  0  0
    9.3874  -17.5686   23.1756 C   0  0  0  0  0  0  0  0  0  0  0  0
    8.6389  -16.2903   22.9689 C   0  0  2  0  0  0  0  0  0  0  0  0
    9.0977  -15.6542   21.7040 N   0  0  0  0  0  0  0  0  0  0  0  0
    8.7193  -15.3036   24.0485 C   0  0  0  0  0  0  0  0  0  0  0  0
    9.8612  -14.7694   24.3103 O   0  0  0  0  0  0  0  0  0  0  0  0
    6.0196  -12.3787   25.0399 C   0  0  0  0  0  0  0  0  0  0  0  0
    6.7378  -12.9511   26.2253 C   0  0  2  0  0  0  0  0  0  0  0  0
    7.0690  -11.8808   27.2602 C   0  0  0  0  0  0  0  0  0  0  0  0
    7.8691  -13.8342   25.9030 C   0  0  2  0  0  0  0  0  0  0  0  0
    7.7202  -14.8122   24.8880 N   0  0  0  0  0  0  0  0  0  0  0  0
    8.3452  -14.4818   27.1425 C   0  0  0  0  0  0  0  0  0  0  0  0
    8.8413  -13.7027   28.1676 O   0  0  0  0  0  0  0  0  0  0  0  0
    8.3230  -15.7288   27.3194 O   0  0  0  0  0  0  0  0  0  0  0  0
  2  3  1  0
  2  1  1  6
  4  3  1  0
  5  4  1  0
  6  5  1  0
  7  6  1  0
  8  9  2  0
  8  2  1  0
 10 11  1  0
 11 13  1  0
 12 11  2  0
 14 13  1  1
 14 15  1  0
 15  8  1  0
 16 14  1  0
 16 17  2  0
 19 18  1  6
 20 19  1  0
 21 19  1  0
 21 22  1  6
 22 16  1  0
 23 21  1  0
 24 23  1  0
 25 23  2  0
M  END
$$$$
