KNV.pdb
     RDKit          3D

 25 24  0  0  1  0  0  0  0  0999 V2000
    6.7561  -17.2753   19.7001 N   0  0  0  0  0  0  0  0  0  0  0  0
    7.5936  -16.4509   20.5555 C   0  0  1  0  0  0  0  0  0  0  0  0
    7.5581  -15.0546   19.9760 C   0  0  0  0  0  0  0  0  0  0  0  0
    7.9637  -15.1648   18.5139 C   0  0  0  0  0  0  0  0  0  0  0  0
    8.0237  -13.8011   17.8594 C   0  0  0  0  0  0  0  0  0  0  0  0
    8.3884  -13.9685   16.4191 C   0  0  0  0  0  0  0  0  0  0  0  0
    8.3821  -12.6360   15.7961 N   0  0  0  0  0  0  0  0  0  0  0  0
    7.1116  -16.4754   21.9632 C   0  0  0  0  0  0  0  0  0  0  0  0
    5.8970  -16.2440   22.2154 O   0  0  0  0  0  0  0  0  0  0  0  0
    7.4556  -20.1948   23.7715 N   0  0  0  0  0  0  0  0  0  0  0  0
    6.9403  -19.0993   24.5040 C   0  0  0  0  0  0  0  0  0  0  0  0
    5.6731  -18.9732   24.6789 O   0  0  0  0  0  0  0  0  0  0  0  0
    7.7577  -18.0369   25.1136 C   0  0  0  0  0  0  0  0  0  0  0  0
    7.4731  -16.7186   24.4671 C   0  0  2  0  0  0  0  0  0  0  0  0
    7.9566  -16.7497   23.0598 N   0  0  0  0  0  0  0  0  0  0  0  0
    8.0244  -15.5335   25.1284 C   0  0  0  0  0  0  0  0  0  0  0  0
    9.2457  -15.2054   24.8859 O   0  0  0  0  0  0  0  0  0  0  0  0
    6.1035  -12.3838   27.7791 C   0  0  0  0  0  0  0  0  0  0  0  0
    7.2165  -12.2807   26.7794 C   0  0  2  0  0  0  0  0  0  0  0  0
    6.7447  -11.6680   25.4648 C   0  0  0  0  0  0  0  0  0  0  0  0
    8.0183  -13.5021   26.6100 C   0  0  2  0  0  0  0  0  0  0  0  0
    7.4247  -14.6474   26.0228 N   0  0  0  0  0  0  0  0  0  0  0  0
    8.6173  -13.8712   27.9090 C   0  0  0  0  0  0  0  0  0  0  0  0
    9.4204  -12.9633   28.5682 O   0  0  0  0  0  0  0  0  0  0  0  0
    8.4322  -14.9893   28.4590 O   0  0  0  0  0  0  0  0  0  0  0  0
  2  3  1  0
  2  1  1  6
  4  3  1  0
  5  4  1  0
  6  5  1  0
  7  6  1  0
  8  9  2  0
  8  2  1  0
 10 11  1  0
 11 13  1  0
 12 11  2  0
 14 13  1  1
 14 15  1  0
 15  8  1  0
 16 14  1  0
 16 17  2  0
 19 18  1  1
 20 19  1  0
 21 19  1  0
 21 22  1  1
 22 16  1  0
 23 21  1  0
 24 23  1  0
 25 23  2  0
M  END
$$$$
