KNV.pdb
     RDKit          3D

 25 24  0  0  1  0  0  0  0  0999 V2000
    5.8933  -17.6075   19.8782 N   0  0  0  0  0  0  0  0  0  0  0  0
    6.8507  -16.8596   20.6762 C   0  0  1  0  0  0  0  0  0  0  0  0
    6.7135  -15.4103   20.2665 C   0  0  0  0  0  0  0  0  0  0  0  0
    7.7738  -15.1403   19.2095 C   0  0  0  0  0  0  0  0  0  0  0  0
    7.7158  -13.7050   18.7318 C   0  0  0  0  0  0  0  0  0  0  0  0
    8.6293  -13.5454   17.5590 C   0  0  0  0  0  0  0  0  0  0  0  0
    8.4510  -12.1834   17.0325 N   0  0  0  0  0  0  0  0  0  0  0  0
    6.5996  -17.0468   22.1310 C   0  0  0  0  0  0  0  0  0  0  0  0
    5.4194  -17.2034   22.5496 O   0  0  0  0  0  0  0  0  0  0  0  0
    8.5930  -19.0216   27.3924 N   0  0  0  0  0  0  0  0  0  0  0  0
    7.5930  -18.4817   26.5494 C   0  0  0  0  0  0  0  0  0  0  0  0
    6.5330  -17.9568   27.0526 O   0  0  0  0  0  0  0  0  0  0  0  0
    7.6533  -18.4646   25.0782 C   0  0  0  0  0  0  0  0  0  0  0  0
    7.3586  -17.0945   24.5560 C   0  0  2  0  0  0  0  0  0  0  0  0
    7.6317  -17.0596   23.0933 N   0  0  0  0  0  0  0  0  0  0  0  0
    8.0698  -15.9844   25.1945 C   0  0  0  0  0  0  0  0  0  0  0  0
    9.3574  -15.9965   25.1935 O   0  0  0  0  0  0  0  0  0  0  0  0
    7.6865  -11.9224   27.9697 C   0  0  0  0  0  0  0  0  0  0  0  0
    7.7813  -12.4825   26.5819 C   0  0  2  0  0  0  0  0  0  0  0  0
    6.4878  -12.2827   25.7989 C   0  0  0  0  0  0  0  0  0  0  0  0
    8.3217  -13.8477   26.4954 C   0  0  2  0  0  0  0  0  0  0  0  0
    7.5694  -14.8526   25.8373 N   0  0  0  0  0  0  0  0  0  0  0  0
    8.6809  -14.3122   27.8510 C   0  0  0  0  0  0  0  0  0  0  0  0
    9.6416  -13.6304   28.5694 O   0  0  0  0  0  0  0  0  0  0  0  0
    8.1491  -15.3145   28.3982 O   0  0  0  0  0  0  0  0  0  0  0  0
  2  3  1  0
  2  1  1  6
  4  3  1  0
  5  4  1  0
  6  5  1  0
  7  6  1  0
  8  9  2  0
  8  2  1  0
 10 11  1  0
 11 13  1  0
 12 11  2  0
 14 13  1  1
 14 15  1  0
 15  8  1  0
 16 14  1  0
 16 17  2  0
 19 18  1  1
 20 19  1  0
 21 19  1  0
 21 22  1  1
 22 16  1  0
 23 21  1  0
 24 23  1  0
 25 23  2  0
M  END
$$$$
