KNV.pdb
     RDKit          3D

 25 24  0  0  1  0  0  0  0  0999 V2000
    9.2822  -16.1476   19.7129 N   0  0  0  0  0  0  0  0  0  0  0  0
    8.5544  -14.9834   20.1899 C   0  0  1  0  0  0  0  0  0  0  0  0
    7.6225  -14.5708   19.0727 C   0  0  0  0  0  0  0  0  0  0  0  0
    8.3586  -14.8095   17.7628 C   0  0  0  0  0  0  0  0  0  0  0  0
    8.1024  -13.6870   16.7799 C   0  0  0  0  0  0  0  0  0  0  0  0
    8.7107  -14.0462   15.4622 C   0  0  0  0  0  0  0  0  0  0  0  0
    8.4239  -12.9520   14.5217 N   0  0  0  0  0  0  0  0  0  0  0  0
    7.8110  -15.2907   21.4419 C   0  0  0  0  0  0  0  0  0  0  0  0
    7.0405  -14.4262   21.9432 O   0  0  0  0  0  0  0  0  0  0  0  0
    6.2085  -17.5109   25.9347 N   0  0  0  0  0  0  0  0  0  0  0  0
    6.8867  -18.4689   25.1445 C   0  0  0  0  0  0  0  0  0  0  0  0
    7.0210  -19.6773   25.5616 O   0  0  0  0  0  0  0  0  0  0  0  0
    7.4841  -18.1996   23.8258 C   0  0  0  0  0  0  0  0  0  0  0  0
    7.3004  -16.7640   23.4489 C   0  0  2  0  0  0  0  0  0  0  0  0
    7.9213  -16.5248   22.1175 N   0  0  0  0  0  0  0  0  0  0  0  0
    7.8137  -15.7691   24.3935 C   0  0  0  0  0  0  0  0  0  0  0  0
    9.0815  -15.5461   24.4243 O   0  0  0  0  0  0  0  0  0  0  0  0
    5.8871  -12.2318   25.5559 C   0  0  0  0  0  0  0  0  0  0  0  0
    6.7751  -12.8608   26.5877 C   0  0  2  0  0  0  0  0  0  0  0  0
    7.4780  -11.8145   27.4464 C   0  0  0  0  0  0  0  0  0  0  0  0
    7.6710  -13.9122   26.0827 C   0  0  2  0  0  0  0  0  0  0  0  0
    7.1322  -14.9751   25.3154 N   0  0  0  0  0  0  0  0  0  0  0  0
    8.4499  -14.4660   27.2093 C   0  0  0  0  0  0  0  0  0  0  0  0
    9.4270  -13.6936   27.8030 O   0  0  0  0  0  0  0  0  0  0  0  0
    8.2683  -15.6254   27.6670 O   0  0  0  0  0  0  0  0  0  0  0  0
  2  3  1  0
  2  1  1  6
  4  3  1  0
  5  4  1  0
  6  5  1  0
  7  6  1  0
  8  9  2  0
  8  2  1  0
 10 11  1  0
 11 13  1  0
 12 11  2  0
 14 13  1  1
 14 15  1  0
 15  8  1  0
 16 14  1  0
 16 17  2  0
 19 18  1  6
 20 19  1  0
 21 19  1  0
 21 22  1  1
 22 16  1  0
 23 21  1  0
 24 23  1  0
 25 23  2  0
M  END
$$$$
