KNV.pdb
     RDKit          3D

 25 24  0  0  1  0  0  0  0  0999 V2000
    6.7810  -16.3686   19.1601 N   0  0  0  0  0  0  0  0  0  0  0  0
    7.4162  -15.5356   20.1678 C   0  0  1  0  0  0  0  0  0  0  0  0
    6.9976  -14.1121   19.8757 C   0  0  0  0  0  0  0  0  0  0  0  0
    7.9953  -13.5469   18.8758 C   0  0  0  0  0  0  0  0  0  0  0  0
    9.3811  -13.4569   19.4785 C   0  0  0  0  0  0  0  0  0  0  0  0
   10.2797  -12.7350   18.5261 C   0  0  0  0  0  0  0  0  0  0  0  0
   11.6203  -12.6778   19.1289 N   0  0  0  0  0  0  0  0  0  0  0  0
    7.0201  -15.9557   21.5393 C   0  0  0  0  0  0  0  0  0  0  0  0
    5.7983  -16.0778   21.8305 O   0  0  0  0  0  0  0  0  0  0  0  0
    6.5225  -18.6297   26.3374 N   0  0  0  0  0  0  0  0  0  0  0  0
    7.7191  -18.1330   25.7687 C   0  0  0  0  0  0  0  0  0  0  0  0
    8.7249  -17.8488   26.5170 O   0  0  0  0  0  0  0  0  0  0  0  0
    7.9318  -17.8975   24.3308 C   0  0  0  0  0  0  0  0  0  0  0  0
    7.5492  -16.4987   23.9650 C   0  0  2  0  0  0  0  0  0  0  0  0
    7.9563  -16.2325   22.5584 N   0  0  0  0  0  0  0  0  0  0  0  0
    8.0780  -15.4319   24.8183 C   0  0  0  0  0  0  0  0  0  0  0  0
    9.2825  -15.0233   24.6177 O   0  0  0  0  0  0  0  0  0  0  0  0
    5.8976  -12.6850   27.5241 C   0  0  0  0  0  0  0  0  0  0  0  0
    7.1950  -12.4495   26.8098 C   0  0  2  0  0  0  0  0  0  0  0  0
    7.0082  -11.5979   25.5584 C   0  0  0  0  0  0  0  0  0  0  0  0
    8.0146  -13.6512   26.5921 C   0  0  2  0  0  0  0  0  0  0  0  0
    7.4715  -14.7411   25.8668 N   0  0  0  0  0  0  0  0  0  0  0  0
    8.5226  -14.1321   27.8933 C   0  0  0  0  0  0  0  0  0  0  0  0
    8.3129  -15.4457   28.2600 O   0  0  0  0  0  0  0  0  0  0  0  0
    9.1484  -13.3964   28.7020 O   0  0  0  0  0  0  0  0  0  0  0  0
  2  3  1  0
  2  1  1  6
  4  3  1  0
  5  4  1  0
  6  5  1  0
  7  6  1  0
  8  9  2  0
  8  2  1  0
 10 11  1  0
 11 13  1  0
 12 11  2  0
 14 13  1  1
 14 15  1  0
 15  8  1  0
 16 14  1  0
 16 17  2  0
 19 18  1  6
 20 19  1  0
 21 19  1  0
 21 22  1  1
 22 16  1  0
 23 21  1  0
 24 23  1  0
 25 23  2  0
M  END
$$$$
