EES.pdb
     RDKit          3D

 25 24  0  0  1  0  0  0  0  0999 V2000
   12.5842  -17.7558   17.0814 N   0  0  0  0  0  0  0  0  0  0  0  0
   13.2503  -17.3547   18.2918 C   0  0  1  0  0  0  0  0  0  0  0  0
   13.5294  -15.8896   18.2377 C   0  0  0  0  0  0  0  0  0  0  0  0
   14.9825  -15.5093   18.2227 C   0  0  0  0  0  0  0  0  0  0  0  0
   15.2177  -14.0724   18.2764 C   0  0  0  0  0  0  0  0  0  0  0  0
   14.2690  -13.2610   18.1907 O   0  0  0  0  0  0  0  0  0  0  0  0
   12.2586  -17.5206   19.4269 C   0  0  0  0  0  0  0  0  0  0  0  0
   11.0500  -17.3101   19.1583 O   0  0  0  0  0  0  0  0  0  0  0  0
   16.5009  -13.5700   18.4208 O   0  0  0  0  0  0  0  0  0  0  0  0
   12.6965  -17.8918   20.7049 N   0  0  0  0  0  0  0  0  0  0  0  0
   11.7456  -18.2209   21.7498 C   0  0  1  0  0  0  0  0  0  0  0  0
   12.2209  -19.5262   22.3236 C   0  0  0  0  0  0  0  0  0  0  0  0
   11.6729  -20.7588   21.6583 C   0  0  0  0  0  0  0  0  0  0  0  0
   12.2134  -21.9420   22.4205 C   0  0  0  0  0  0  0  0  0  0  0  0
   13.2096  -22.5589   21.9965 O   0  0  0  0  0  0  0  0  0  0  0  0
   11.6443  -17.1119   22.7099 C   0  0  0  0  0  0  0  0  0  0  0  0
   12.6537  -16.4090   23.0607 O   0  0  0  0  0  0  0  0  0  0  0  0
   11.6097  -22.3487   23.5890 O   0  0  0  0  0  0  0  0  0  0  0  0
    8.8646  -14.3833   22.9897 O   0  0  0  0  0  0  0  0  0  0  0  0
    9.0283  -14.9565   24.2629 C   0  0  0  0  0  0  0  0  0  0  0  0
   10.3771  -15.6521   24.3159 C   0  0  2  0  0  0  0  0  0  0  0  0
   10.4145  -16.7277   23.3217 N   0  0  0  0  0  0  0  0  0  0  0  0
   10.5634  -16.2330   25.6548 C   0  0  0  0  0  0  0  0  0  0  0  0
   10.6938  -15.4842   26.8055 O   0  0  0  0  0  0  0  0  0  0  0  0
   10.6109  -17.4832   25.7938 O   0  0  0  0  0  0  0  0  0  0  0  0
  2  1  1  6
  3  2  1  0
  4  5  1  0
  4  3  1  0
  5  6  2  0
  7  2  1  0
  7 10  1  0
  8  7  2  0
  9  5  1  0
 10 11  1  0
 11 12  1  1
 13 14  1  0
 13 12  1  0
 14 15  2  0
 16 22  1  0
 16 11  1  0
 17 16  2  0
 18 14  1  0
 19 20  1  0
 21 20  1  1
 21 22  1  0
 23 21  1  0
 23 24  1  0
 25 23  2  0
M  END
$$$$
