EES.pdb
     RDKit          3D

 25 24  0  0  1  0  0  0  0  0999 V2000
   12.2879  -15.3691   16.6490 N   0  0  0  0  0  0  0  0  0  0  0  0
   13.2143  -16.0123   17.5422 C   0  0  1  0  0  0  0  0  0  0  0  0
   14.1895  -15.0033   18.0503 C   0  0  0  0  0  0  0  0  0  0  0  0
   15.4563  -14.8717   17.2539 C   0  0  0  0  0  0  0  0  0  0  0  0
   16.4043  -13.9128   17.8060 C   0  0  0  0  0  0  0  0  0  0  0  0
   17.2786  -14.2711   18.6262 O   0  0  0  0  0  0  0  0  0  0  0  0
   12.4309  -16.4474   18.7655 C   0  0  0  0  0  0  0  0  0  0  0  0
   11.4717  -15.7153   19.1136 O   0  0  0  0  0  0  0  0  0  0  0  0
   16.3571  -12.5781   17.4369 O   0  0  0  0  0  0  0  0  0  0  0  0
   12.7817  -17.6147   19.4562 N   0  0  0  0  0  0  0  0  0  0  0  0
   11.9585  -18.1112   20.5426 C   0  0  1  0  0  0  0  0  0  0  0  0
   12.3381  -19.5569   20.7007 C   0  0  0  0  0  0  0  0  0  0  0  0
   11.7880  -20.4847   19.6525 C   0  0  0  0  0  0  0  0  0  0  0  0
   12.3291  -21.8581   19.9593 C   0  0  0  0  0  0  0  0  0  0  0  0
   11.9473  -22.4696   20.9757 O   0  0  0  0  0  0  0  0  0  0  0  0
   12.1436  -17.2781   21.7399 C   0  0  0  0  0  0  0  0  0  0  0  0
   13.2563  -16.7139   22.0222 O   0  0  0  0  0  0  0  0  0  0  0  0
   13.2484  -22.4449   19.1193 O   0  0  0  0  0  0  0  0  0  0  0  0
    9.0114  -15.5956   23.6400 O   0  0  0  0  0  0  0  0  0  0  0  0
   10.2862  -15.0292   23.8140 C   0  0  0  0  0  0  0  0  0  0  0  0
   11.3184  -16.1429   23.8247 C   0  0  2  0  0  0  0  0  0  0  0  0
   11.0985  -17.0275   22.6775 N   0  0  0  0  0  0  0  0  0  0  0  0
   11.1687  -16.9220   25.0639 C   0  0  0  0  0  0  0  0  0  0  0  0
   10.8244  -18.2570   25.0948 O   0  0  0  0  0  0  0  0  0  0  0  0
   11.3590  -16.3684   26.1783 O   0  0  0  0  0  0  0  0  0  0  0  0
  2  1  1  6
  3  2  1  0
  4  5  1  0
  4  3  1  0
  5  6  2  0
  7  2  1  0
  7 10  1  0
  8  7  2  0
  9  5  1  0
 10 11  1  0
 11 12  1  1
 13 14  1  0
 13 12  1  0
 14 15  2  0
 16 22  1  0
 16 11  1  0
 17 16  2  0
 18 14  1  0
 19 20  1  0
 21 20  1  1
 21 22  1  0
 23 21  1  0
 23 24  1  0
 25 23  2  0
M  END
$$$$
