EES.pdb
     RDKit          3D

 25 24  0  0  1  0  0  0  0  0999 V2000
   12.5517  -19.9082   18.5128 N   0  0  0  0  0  0  0  0  0  0  0  0
   12.8678  -18.5229   18.7384 C   0  0  1  0  0  0  0  0  0  0  0  0
   11.6211  -17.7097   18.6302 C   0  0  0  0  0  0  0  0  0  0  0  0
   10.3376  -18.4679   18.8152 C   0  0  0  0  0  0  0  0  0  0  0  0
    9.1427  -17.6400   18.7158 C   0  0  0  0  0  0  0  0  0  0  0  0
    9.2239  -16.4236   18.4337 O   0  0  0  0  0  0  0  0  0  0  0  0
   13.2954  -18.3895   20.1871 C   0  0  0  0  0  0  0  0  0  0  0  0
   12.7654  -19.1775   21.0089 O   0  0  0  0  0  0  0  0  0  0  0  0
    7.8863  -18.1812   18.9352 O   0  0  0  0  0  0  0  0  0  0  0  0
   14.2385  -17.4245   20.5639 N   0  0  0  0  0  0  0  0  0  0  0  0
   14.6925  -17.3258   21.9382 C   0  0  1  0  0  0  0  0  0  0  0  0
   15.8727  -16.3959   21.9015 C   0  0  0  0  0  0  0  0  0  0  0  0
   16.5207  -16.1263   23.2318 C   0  0  0  0  0  0  0  0  0  0  0  0
   17.6915  -15.2134   22.9688 C   0  0  0  0  0  0  0  0  0  0  0  0
   18.5394  -15.5139   22.1064 O   0  0  0  0  0  0  0  0  0  0  0  0
   13.5854  -16.9024   22.8081 C   0  0  0  0  0  0  0  0  0  0  0  0
   13.0314  -15.7537   22.7096 O   0  0  0  0  0  0  0  0  0  0  0  0
   17.8316  -14.0429   23.6798 O   0  0  0  0  0  0  0  0  0  0  0  0
   10.5991  -18.9523   24.2681 O   0  0  0  0  0  0  0  0  0  0  0  0
   10.6826  -17.5586   24.4319 C   0  0  0  0  0  0  0  0  0  0  0  0
   12.1057  -17.1962   24.8182 C   0  0  2  0  0  0  0  0  0  0  0  0
   13.0373  -17.7382   23.8256 N   0  0  0  0  0  0  0  0  0  0  0  0
   12.4101  -17.7868   26.1310 C   0  0  0  0  0  0  0  0  0  0  0  0
   13.4375  -18.6797   26.3518 O   0  0  0  0  0  0  0  0  0  0  0  0
   11.7116  -17.4804   27.1325 O   0  0  0  0  0  0  0  0  0  0  0  0
  2  1  1  1
  3  2  1  0
  4  5  1  0
  4  3  1  0
  5  6  2  0
  7  2  1  0
  7 10  1  0
  8  7  2  0
  9  5  1  0
 10 11  1  0
 11 12  1  6
 13 14  1  0
 13 12  1  0
 14 15  2  0
 16 22  1  0
 16 11  1  0
 17 16  2  0
 18 14  1  0
 19 20  1  0
 21 20  1  6
 21 22  1  0
 23 21  1  0
 23 24  1  0
 25 23  2  0
M  END
$$$$
