EES.pdb
     RDKit          3D

 25 24  0  0  1  0  0  0  0  0999 V2000
   11.1087  -17.3023   18.1953 N   0  0  0  0  0  0  0  0  0  0  0  0
   10.6257  -16.7539   19.4346 C   0  0  1  0  0  0  0  0  0  0  0  0
    9.2521  -17.2731   19.7004 C   0  0  0  0  0  0  0  0  0  0  0  0
    8.8278  -18.4396   18.8545 C   0  0  0  0  0  0  0  0  0  0  0  0
    7.4518  -18.8629   19.0791 C   0  0  0  0  0  0  0  0  0  0  0  0
    6.9640  -19.8276   18.4489 O   0  0  0  0  0  0  0  0  0  0  0  0
   11.4818  -17.3307   20.5454 C   0  0  0  0  0  0  0  0  0  0  0  0
   11.1848  -18.4821   20.9496 O   0  0  0  0  0  0  0  0  0  0  0  0
    6.6489  -18.2033   19.9956 O   0  0  0  0  0  0  0  0  0  0  0  0
   12.5475  -16.5932   21.0775 N   0  0  0  0  0  0  0  0  0  0  0  0
   13.3828  -17.1456   22.1271 C   0  0  1  0  0  0  0  0  0  0  0  0
   14.6191  -16.2909   22.1427 C   0  0  0  0  0  0  0  0  0  0  0  0
   15.6447  -16.6624   23.1783 C   0  0  0  0  0  0  0  0  0  0  0  0
   16.8028  -15.7128   23.0045 C   0  0  0  0  0  0  0  0  0  0  0  0
   17.3255  -15.5601   21.8837 O   0  0  0  0  0  0  0  0  0  0  0  0
   12.6375  -17.1963   23.3935 C   0  0  0  0  0  0  0  0  0  0  0  0
   12.0196  -16.1833   23.8711 O   0  0  0  0  0  0  0  0  0  0  0  0
   17.2903  -15.0090   24.0826 O   0  0  0  0  0  0  0  0  0  0  0  0
    9.8442  -19.3585   26.4616 O   0  0  0  0  0  0  0  0  0  0  0  0
   10.5238  -19.2641   25.2346 C   0  0  0  0  0  0  0  0  0  0  0  0
   11.7491  -18.3866   25.4208 C   0  0  2  0  0  0  0  0  0  0  0  0
   12.5389  -18.3775   24.1867 N   0  0  0  0  0  0  0  0  0  0  0  0
   12.5711  -18.9376   26.5096 C   0  0  0  0  0  0  0  0  0  0  0  0
   13.8773  -19.3508   26.3522 O   0  0  0  0  0  0  0  0  0  0  0  0
   12.0846  -19.0523   27.6650 O   0  0  0  0  0  0  0  0  0  0  0  0
  2  1  1  6
  3  2  1  0
  4  5  1  0
  4  3  1  0
  5  6  2  0
  7  2  1  0
  7 10  1  0
  8  7  2  0
  9  5  1  0
 10 11  1  0
 11 12  1  1
 13 14  1  0
 13 12  1  0
 14 15  2  0
 16 22  1  0
 16 11  1  0
 17 16  2  0
 18 14  1  0
 19 20  1  0
 21 20  1  6
 21 22  1  0
 23 21  1  0
 23 24  1  0
 25 23  2  0
M  END
$$$$
