EES.pdb
     RDKit          3D

 25 24  0  0  1  0  0  0  0  0999 V2000
   15.4500  -20.8235   17.5450 N   0  0  0  0  0  0  0  0  0  0  0  0
   15.8848  -19.4531   17.4916 C   0  0  1  0  0  0  0  0  0  0  0  0
   15.5663  -18.8877   16.1477 C   0  0  0  0  0  0  0  0  0  0  0  0
   14.5715  -19.6691   15.3378 C   0  0  0  0  0  0  0  0  0  0  0  0
   14.3400  -19.1285   14.0046 C   0  0  0  0  0  0  0  0  0  0  0  0
   13.2138  -19.2064   13.4649 O   0  0  0  0  0  0  0  0  0  0  0  0
   15.0198  -18.6689   18.4591 C   0  0  0  0  0  0  0  0  0  0  0  0
   15.2275  -17.4324   18.5301 O   0  0  0  0  0  0  0  0  0  0  0  0
   15.3650  -18.5169   13.3010 O   0  0  0  0  0  0  0  0  0  0  0  0
   14.0426  -19.3176   19.2254 N   0  0  0  0  0  0  0  0  0  0  0  0
   13.1670  -18.5656   20.1041 C   0  0  1  0  0  0  0  0  0  0  0  0
   11.8530  -19.2946   20.0753 C   0  0  0  0  0  0  0  0  0  0  0  0
   11.2367  -19.4558   18.7128 C   0  0  0  0  0  0  0  0  0  0  0  0
    9.9063  -20.1360   18.9142 C   0  0  0  0  0  0  0  0  0  0  0  0
    9.7660  -21.3385   18.6193 O   0  0  0  0  0  0  0  0  0  0  0  0
   13.7803  -18.4277   21.4333 C   0  0  0  0  0  0  0  0  0  0  0  0
   14.3668  -19.3976   22.0262 O   0  0  0  0  0  0  0  0  0  0  0  0
    8.8383  -19.4330   19.4246 O   0  0  0  0  0  0  0  0  0  0  0  0
   15.3163  -15.0330   22.7783 O   0  0  0  0  0  0  0  0  0  0  0  0
   15.6551  -16.2514   23.3924 C   0  0  0  0  0  0  0  0  0  0  0  0
   14.4100  -17.1161   23.4825 C   0  0  2  0  0  0  0  0  0  0  0  0
   13.7761  -17.2031   22.1644 N   0  0  0  0  0  0  0  0  0  0  0  0
   13.4657  -16.4981   24.4265 C   0  0  0  0  0  0  0  0  0  0  0  0
   13.7277  -16.3192   25.7685 O   0  0  0  0  0  0  0  0  0  0  0  0
   12.3441  -16.0980   24.0184 O   0  0  0  0  0  0  0  0  0  0  0  0
  2  1  1  6
  3  2  1  0
  4  5  1  0
  4  3  1  0
  5  6  2  0
  7  2  1  0
  7 10  1  0
  8  7  2  0
  9  5  1  0
 10 11  1  0
 11 12  1  1
 13 14  1  0
 13 12  1  0
 14 15  2  0
 16 22  1  0
 16 11  1  0
 17 16  2  0
 18 14  1  0
 19 20  1  0
 21 20  1  6
 21 22  1  0
 23 21  1  0
 23 24  1  0
 25 23  2  0
M  END
$$$$
