EES.pdb
     RDKit          3D

 25 24  0  0  1  0  0  0  0  0999 V2000
   14.6822  -18.7798   16.4939 N   0  0  0  0  0  0  0  0  0  0  0  0
   15.0251  -19.4688   17.7094 C   0  0  1  0  0  0  0  0  0  0  0  0
   16.2381  -18.8380   18.3075 C   0  0  0  0  0  0  0  0  0  0  0  0
   17.3151  -18.4569   17.3322 C   0  0  0  0  0  0  0  0  0  0  0  0
   18.5095  -17.9039   17.9572 C   0  0  0  0  0  0  0  0  0  0  0  0
   19.2682  -18.6233   18.6445 O   0  0  0  0  0  0  0  0  0  0  0  0
   13.9147  -19.2007   18.7067 C   0  0  0  0  0  0  0  0  0  0  0  0
   13.1989  -18.1899   18.4991 O   0  0  0  0  0  0  0  0  0  0  0  0
   18.8316  -16.5647   17.8070 O   0  0  0  0  0  0  0  0  0  0  0  0
   13.7185  -20.0557   19.7990 N   0  0  0  0  0  0  0  0  0  0  0  0
   12.5637  -19.9038   20.6637 C   0  0  1  0  0  0  0  0  0  0  0  0
   12.3734  -21.2460   21.3128 C   0  0  0  0  0  0  0  0  0  0  0  0
   11.2385  -21.3298   22.2963 C   0  0  0  0  0  0  0  0  0  0  0  0
   11.2311  -22.7384   22.8339 C   0  0  0  0  0  0  0  0  0  0  0  0
   12.2356  -23.1930   23.4145 O   0  0  0  0  0  0  0  0  0  0  0  0
   12.7691  -18.7809   21.5904 C   0  0  0  0  0  0  0  0  0  0  0  0
   13.9227  -18.4600   22.0401 O   0  0  0  0  0  0  0  0  0  0  0  0
   10.1154  -23.5312   22.6863 O   0  0  0  0  0  0  0  0  0  0  0  0
    9.6245  -16.4069   22.9306 O   0  0  0  0  0  0  0  0  0  0  0  0
   10.8692  -15.7763   22.7596 C   0  0  0  0  0  0  0  0  0  0  0  0
   11.9683  -16.8103   22.9290 C   0  0  2  0  0  0  0  0  0  0  0  0
   11.7022  -17.9573   22.0569 N   0  0  0  0  0  0  0  0  0  0  0  0
   11.9837  -17.2673   24.3274 C   0  0  0  0  0  0  0  0  0  0  0  0
   12.2745  -16.4499   25.3993 O   0  0  0  0  0  0  0  0  0  0  0  0
   11.7207  -18.4686   24.5965 O   0  0  0  0  0  0  0  0  0  0  0  0
  2  1  1  6
  3  2  1  0
  4  5  1  0
  4  3  1  0
  5  6  2  0
  7  2  1  0
  7 10  1  0
  8  7  2  0
  9  5  1  0
 10 11  1  0
 11 12  1  1
 13 14  1  0
 13 12  1  0
 14 15  2  0
 16 22  1  0
 16 11  1  0
 17 16  2  0
 18 14  1  0
 19 20  1  0
 21 20  1  1
 21 22  1  0
 23 21  1  0
 23 24  1  0
 25 23  2  0
M  END
$$$$
