EES.pdb
     RDKit          3D

 25 24  0  0  1  0  0  0  0  0999 V2000
   15.8554  -18.3821   16.5192 N   0  0  0  0  0  0  0  0  0  0  0  0
   16.0338  -19.2114   17.6813 C   0  0  1  0  0  0  0  0  0  0  0  0
   17.1865  -18.6996   18.4790 C   0  0  0  0  0  0  0  0  0  0  0  0
   18.0245  -17.6517   17.8036 C   0  0  0  0  0  0  0  0  0  0  0  0
   19.1427  -17.1795   18.6097 C   0  0  0  0  0  0  0  0  0  0  0  0
   18.9940  -16.2522   19.4365 O   0  0  0  0  0  0  0  0  0  0  0  0
   14.8229  -19.0058   18.5705 C   0  0  0  0  0  0  0  0  0  0  0  0
   14.0073  -18.1174   18.2201 O   0  0  0  0  0  0  0  0  0  0  0  0
   20.4003  -17.7458   18.4765 O   0  0  0  0  0  0  0  0  0  0  0  0
   14.6464  -19.7836   19.7223 N   0  0  0  0  0  0  0  0  0  0  0  0
   13.4072  -19.7275   20.4743 C   0  0  1  0  0  0  0  0  0  0  0  0
   13.2578  -21.0874   21.0968 C   0  0  0  0  0  0  0  0  0  0  0  0
   11.9947  -21.2983   21.8857 C   0  0  0  0  0  0  0  0  0  0  0  0
   12.0553  -22.6998   22.4384 C   0  0  0  0  0  0  0  0  0  0  0  0
   12.8396  -23.5341   21.9467 O   0  0  0  0  0  0  0  0  0  0  0  0
   13.4396  -18.6029   21.4209 C   0  0  0  0  0  0  0  0  0  0  0  0
   14.5284  -18.1482   21.9146 O   0  0  0  0  0  0  0  0  0  0  0  0
   11.2446  -23.0668   23.4887 O   0  0  0  0  0  0  0  0  0  0  0  0
    9.9792  -16.7469   22.6742 O   0  0  0  0  0  0  0  0  0  0  0  0
   11.0941  -15.9001   22.5469 C   0  0  0  0  0  0  0  0  0  0  0  0
   12.3573  -16.7290   22.6989 C   0  0  2  0  0  0  0  0  0  0  0  0
   12.2632  -17.9262   21.8594 N   0  0  0  0  0  0  0  0  0  0  0  0
   12.4927  -17.1412   24.1048 C   0  0  0  0  0  0  0  0  0  0  0  0
   12.6927  -16.2610   25.1474 O   0  0  0  0  0  0  0  0  0  0  0  0
   12.4267  -18.3610   24.4087 O   0  0  0  0  0  0  0  0  0  0  0  0
  2  1  1  6
  3  2  1  0
  4  5  1  0
  4  3  1  0
  5  6  2  0
  7  2  1  0
  7 10  1  0
  8  7  2  0
  9  5  1  0
 10 11  1  0
 11 12  1  1
 13 14  1  0
 13 12  1  0
 14 15  2  0
 16 22  1  0
 16 11  1  0
 17 16  2  0
 18 14  1  0
 19 20  1  0
 21 20  1  1
 21 22  1  0
 23 21  1  0
 23 24  1  0
 25 23  2  0
M  END
$$$$
