EES.pdb
     RDKit          3D

 25 24  0  0  1  0  0  0  0  0999 V2000
   13.1177  -21.5413   16.6632 N   0  0  0  0  0  0  0  0  0  0  0  0
   13.9889  -21.1685   17.7458 C   0  0  1  0  0  0  0  0  0  0  0  0
   14.7916  -19.9764   17.3435 C   0  0  0  0  0  0  0  0  0  0  0  0
   15.6985  -19.4208   18.4042 C   0  0  0  0  0  0  0  0  0  0  0  0
   16.4351  -18.2340   17.9894 C   0  0  0  0  0  0  0  0  0  0  0  0
   16.3224  -17.1555   18.6137 O   0  0  0  0  0  0  0  0  0  0  0  0
   13.1109  -20.6814   18.8821 C   0  0  0  0  0  0  0  0  0  0  0  0
   12.0972  -20.0104   18.5669 O   0  0  0  0  0  0  0  0  0  0  0  0
   17.2769  -18.2718   16.8895 O   0  0  0  0  0  0  0  0  0  0  0  0
   13.4379  -20.9798   20.2113 N   0  0  0  0  0  0  0  0  0  0  0  0
   12.5488  -20.6101   21.2964 C   0  0  1  0  0  0  0  0  0  0  0  0
   12.6571  -21.7262   22.2972 C   0  0  0  0  0  0  0  0  0  0  0  0
   11.8174  -21.5642   23.5345 C   0  0  0  0  0  0  0  0  0  0  0  0
   12.0872  -22.7658   24.4043 C   0  0  0  0  0  0  0  0  0  0  0  0
   11.2036  -23.1963   25.1703 O   0  0  0  0  0  0  0  0  0  0  0  0
   12.8970  -19.2748   21.8038 C   0  0  0  0  0  0  0  0  0  0  0  0
   14.0842  -18.8024   21.7444 O   0  0  0  0  0  0  0  0  0  0  0  0
   13.3111  -23.3945   24.3583 O   0  0  0  0  0  0  0  0  0  0  0  0
   10.8963  -15.9833   21.2709 O   0  0  0  0  0  0  0  0  0  0  0  0
   11.1632  -16.1009   22.6461 C   0  0  0  0  0  0  0  0  0  0  0  0
   12.3281  -17.0560   22.8380 C   0  0  2  0  0  0  0  0  0  0  0  0
   11.9405  -18.3982   22.3962 N   0  0  0  0  0  0  0  0  0  0  0  0
   12.6758  -17.1056   24.2667 C   0  0  0  0  0  0  0  0  0  0  0  0
   13.1944  -16.0377   24.9684 O   0  0  0  0  0  0  0  0  0  0  0  0
   12.5021  -18.1695   24.9168 O   0  0  0  0  0  0  0  0  0  0  0  0
  2  1  1  6
  3  2  1  0
  4  5  1  0
  4  3  1  0
  5  6  2  0
  7  2  1  0
  7 10  1  0
  8  7  2  0
  9  5  1  0
 10 11  1  0
 11 12  1  1
 13 14  1  0
 13 12  1  0
 14 15  2  0
 16 22  1  0
 16 11  1  0
 17 16  2  0
 18 14  1  0
 19 20  1  0
 21 20  1  1
 21 22  1  0
 23 21  1  0
 23 24  1  0
 25 23  2  0
M  END
$$$$
