EES.pdb
     RDKit          3D

 25 24  0  0  1  0  0  0  0  0999 V2000
   12.3761  -14.0742   17.5339 N   0  0  0  0  0  0  0  0  0  0  0  0
   12.8128  -15.3677   17.9876 C   0  0  1  0  0  0  0  0  0  0  0  0
   14.2096  -15.2630   18.5026 C   0  0  0  0  0  0  0  0  0  0  0  0
   14.9272  -13.9866   18.1677 C   0  0  0  0  0  0  0  0  0  0  0  0
   16.3177  -13.9591   18.6023 C   0  0  0  0  0  0  0  0  0  0  0  0
   17.1751  -13.2976   17.9754 O   0  0  0  0  0  0  0  0  0  0  0  0
   11.9760  -15.7248   19.2007 C   0  0  0  0  0  0  0  0  0  0  0  0
   11.1838  -14.8457   19.6209 O   0  0  0  0  0  0  0  0  0  0  0  0
   16.7240  -14.6690   19.7206 O   0  0  0  0  0  0  0  0  0  0  0  0
   12.1005  -16.9827   19.8048 N   0  0  0  0  0  0  0  0  0  0  0  0
   11.1099  -17.4521   20.7550 C   0  0  1  0  0  0  0  0  0  0  0  0
   11.0174  -18.9358   20.5330 C   0  0  0  0  0  0  0  0  0  0  0  0
   10.1631  -19.6819   21.5207 C   0  0  0  0  0  0  0  0  0  0  0  0
   10.2940  -21.1471   21.1902 C   0  0  0  0  0  0  0  0  0  0  0  0
   10.9956  -21.5123   20.2273 O   0  0  0  0  0  0  0  0  0  0  0  0
   11.4808  -17.0423   22.1174 C   0  0  0  0  0  0  0  0  0  0  0  0
   12.6970  -16.9505   22.5030 O   0  0  0  0  0  0  0  0  0  0  0  0
    9.6389  -22.0905   21.9493 O   0  0  0  0  0  0  0  0  0  0  0  0
   10.1467  -15.6209   26.5920 O   0  0  0  0  0  0  0  0  0  0  0  0
    9.7311  -15.9142   25.2815 C   0  0  0  0  0  0  0  0  0  0  0  0
   10.9373  -16.3622   24.4750 C   0  0  2  0  0  0  0  0  0  0  0  0
   10.5173  -16.7093   23.1148 N   0  0  0  0  0  0  0  0  0  0  0  0
   11.5234  -17.5521   25.1119 C   0  0  0  0  0  0  0  0  0  0  0  0
   12.4965  -17.5001   26.0876 O   0  0  0  0  0  0  0  0  0  0  0  0
   11.1366  -18.7000   24.7695 O   0  0  0  0  0  0  0  0  0  0  0  0
  2  1  1  1
  3  2  1  0
  4  5  1  0
  4  3  1  0
  5  6  2  0
  7  2  1  0
  7 10  1  0
  8  7  2  0
  9  5  1  0
 10 11  1  0
 11 12  1  1
 13 14  1  0
 13 12  1  0
 14 15  2  0
 16 22  1  0
 16 11  1  0
 17 16  2  0
 18 14  1  0
 19 20  1  0
 21 20  1  1
 21 22  1  0
 23 21  1  0
 23 24  1  0
 25 23  2  0
M  END
$$$$
