TSI.pdb
     RDKit          3D

 22 21  0  0  1  0  0  0  0  0999 V2000
   16.8017  -14.0306  -19.9726 C   0  0  0  0  0  0  0  0  0  0  0  0
   17.7143  -13.0711  -19.2433 C   0  0  1  0  0  0  0  0  0  0  0  0
   17.5053  -13.1499  -17.8871 O   0  0  0  0  0  0  0  0  0  0  0  0
   19.1693  -13.3217  -19.5563 C   0  0  2  0  0  0  0  0  0  0  0  0
   19.5278  -14.6832  -19.1325 N   0  0  0  0  0  0  0  0  0  0  0  0
   20.0958  -12.3944  -18.9073 C   0  0  0  0  0  0  0  0  0  0  0  0
   20.5988  -12.6594  -17.7812 O   0  0  0  0  0  0  0  0  0  0  0  0
   20.6704   -8.2642  -19.8660 O   0  0  0  0  0  0  0  0  0  0  0  0
   21.7275   -9.1358  -19.8170 C   0  0  0  0  0  0  0  0  0  0  0  0
   21.5025  -10.3028  -18.8662 C   0  0  2  0  0  0  0  0  0  0  0  0
   20.5023  -11.1447  -19.4716 N   0  0  0  0  0  0  0  0  0  0  0  0
   21.1095   -9.8502  -17.5113 C   0  0  0  0  0  0  0  0  0  0  0  0
   19.8945   -9.9529  -17.2018 O   0  0  0  0  0  0  0  0  0  0  0  0
   20.4081   -9.9395  -12.3752 C   0  0  0  0  0  0  0  0  0  0  0  0
   21.6987   -9.2782  -12.8056 C   0  0  0  0  0  0  0  0  0  0  0  0
   22.0670   -9.7846  -14.1585 C   0  0  2  0  0  0  0  0  0  0  0  0
   23.5913   -9.7689  -14.2462 C   0  0  0  0  0  0  0  0  0  0  0  0
   21.5472   -8.9403  -15.2854 C   0  0  2  0  0  0  0  0  0  0  0  0
   22.0271   -9.3183  -16.5712 N   0  0  0  0  0  0  0  0  0  0  0  0
   22.0302   -7.5371  -15.0233 C   0  0  0  0  0  0  0  0  0  0  0  0
   21.5482   -6.8394  -14.1162 O   0  0  0  0  0  0  0  0  0  0  0  0
   23.0452   -6.9682  -15.7979 O   0  0  0  0  0  0  0  0  0  0  0  0
  2  1  1  6
  2  3  1  0
  2  4  1  0
  4  5  1  1
  6  4  1  0
  6 11  1  0
  7  6  2  0
  8  9  1  0
 10 11  1  0
 10  9  1  6
 10 12  1  0
 12 13  2  0
 12 19  1  0
 15 14  1  0
 16 17  1  1
 16 15  1  0
 18 16  1  0
 18 19  1  6
 20 22  1  0
 20 18  1  0
 21 20  2  0
M  END
$$$$
