TSI.pdb
     RDKit          3D

 22 21  0  0  1  0  0  0  0  0999 V2000
   20.3826  -13.7902  -16.7303 C   0  0  0  0  0  0  0  0  0  0  0  0
   19.0225  -14.1720  -17.2683 C   0  0  1  0  0  0  0  0  0  0  0  0
   18.7383  -15.4818  -16.9636 O   0  0  0  0  0  0  0  0  0  0  0  0
   17.9305  -13.2719  -16.7435 C   0  0  2  0  0  0  0  0  0  0  0  0
   16.6356  -13.7214  -17.2755 N   0  0  0  0  0  0  0  0  0  0  0  0
   18.0903  -11.8605  -17.0927 C   0  0  0  0  0  0  0  0  0  0  0  0
   17.6144  -11.3983  -18.1657 O   0  0  0  0  0  0  0  0  0  0  0  0
   17.5116   -7.6136  -17.0799 O   0  0  0  0  0  0  0  0  0  0  0  0
   17.5267   -8.9603  -16.8232 C   0  0  0  0  0  0  0  0  0  0  0  0
   18.9295   -9.5249  -16.6504 C   0  0  2  0  0  0  0  0  0  0  0  0
   18.7773  -10.9080  -16.2768 N   0  0  0  0  0  0  0  0  0  0  0  0
   19.7203   -8.7595  -15.6585 C   0  0  0  0  0  0  0  0  0  0  0  0
   19.5169   -9.0134  -14.4433 O   0  0  0  0  0  0  0  0  0  0  0  0
   24.7547   -9.1493  -15.2116 C   0  0  0  0  0  0  0  0  0  0  0  0
   23.2605   -8.9694  -15.0592 C   0  0  0  0  0  0  0  0  0  0  0  0
   22.9465   -7.5132  -15.1144 C   0  0  2  0  0  0  0  0  0  0  0  0
   23.6489   -6.8552  -13.9290 C   0  0  0  0  0  0  0  0  0  0  0  0
   21.4829   -7.2024  -14.9933 C   0  0  2  0  0  0  0  0  0  0  0  0
   20.6751   -7.7751  -16.0160 N   0  0  0  0  0  0  0  0  0  0  0  0
   21.3551   -5.7054  -15.1092 C   0  0  0  0  0  0  0  0  0  0  0  0
   21.0544   -5.1568  -16.1818 O   0  0  0  0  0  0  0  0  0  0  0  0
   21.5722   -4.8763  -14.0049 O   0  0  0  0  0  0  0  0  0  0  0  0
  2  1  1  1
  2  3  1  0
  2  4  1  0
  4  5  1  6
  6  4  1  0
  6 11  1  0
  7  6  2  0
  8  9  1  0
 10 11  1  0
 10  9  1  1
 10 12  1  0
 12 13  2  0
 12 19  1  0
 15 14  1  0
 16 17  1  1
 16 15  1  0
 18 16  1  0
 18 19  1  6
 20 22  1  0
 20 18  1  0
 21 20  2  0
M  END
$$$$
