TSI.pdb
     RDKit          3D

 22 21  0  0  1  0  0  0  0  0999 V2000
   24.5686  -18.7462  -12.0677 C   0  0  0  0  0  0  0  0  0  0  0  0
   23.7897  -19.9748  -12.4792 C   0  0  1  0  0  0  0  0  0  0  0  0
   23.0276  -19.7075  -13.5913 O   0  0  0  0  0  0  0  0  0  0  0  0
   24.6905  -21.1567  -12.7432 C   0  0  2  0  0  0  0  0  0  0  0  0
   23.8694  -22.3145  -13.1271 N   0  0  0  0  0  0  0  0  0  0  0  0
   25.5162  -21.5542  -11.6032 C   0  0  0  0  0  0  0  0  0  0  0  0
   25.0376  -22.2470  -10.6638 O   0  0  0  0  0  0  0  0  0  0  0  0
   29.6320  -20.5282  -11.2618 O   0  0  0  0  0  0  0  0  0  0  0  0
   29.1219  -21.7093  -10.7881 C   0  0  0  0  0  0  0  0  0  0  0  0
   27.6808  -21.5951  -10.3118 C   0  0  2  0  0  0  0  0  0  0  0  0
   26.8952  -21.2056  -11.4549 N   0  0  0  0  0  0  0  0  0  0  0  0
   27.5400  -20.6444   -9.1841 C   0  0  0  0  0  0  0  0  0  0  0  0
   27.0317  -19.5224   -9.4395 O   0  0  0  0  0  0  0  0  0  0  0  0
   27.3188  -21.7331   -3.5507 C   0  0  0  0  0  0  0  0  0  0  0  0
   26.8984  -21.1323   -4.8737 C   0  0  0  0  0  0  0  0  0  0  0  0
   28.0627  -20.4110   -5.4624 C   0  0  2  0  0  0  0  0  0  0  0  0
   28.3151  -19.1793   -4.5961 C   0  0  0  0  0  0  0  0  0  0  0  0
   27.8327  -19.9293   -6.8653 C   0  0  2  0  0  0  0  0  0  0  0  0
   27.9460  -20.9420   -7.8593 N   0  0  0  0  0  0  0  0  0  0  0  0
   28.9042  -18.9072   -7.1450 C   0  0  0  0  0  0  0  0  0  0  0  0
   29.9854  -19.2213   -7.6687 O   0  0  0  0  0  0  0  0  0  0  0  0
   28.7167  -17.5602   -6.8223 O   0  0  0  0  0  0  0  0  0  0  0  0
  2  1  1  6
  2  3  1  0
  2  4  1  0
  4  5  1  1
  6  4  1  0
  6 11  1  0
  7  6  2  0
  8  9  1  0
 10 11  1  0
 10  9  1  6
 10 12  1  0
 12 13  2  0
 12 19  1  0
 15 14  1  0
 16 17  1  1
 16 15  1  0
 18 16  1  0
 18 19  1  6
 20 22  1  0
 20 18  1  0
 21 20  2  0
M  END
$$$$
