TSI.pdb
     RDKit          3D

 22 21  0  0  1  0  0  0  0  0999 V2000
   15.6330  -10.1388  -14.9035 C   0  0  0  0  0  0  0  0  0  0  0  0
   17.0555  -10.6018  -14.6859 C   0  0  1  0  0  0  0  0  0  0  0  0
   17.3932  -11.5604  -15.6113 O   0  0  0  0  0  0  0  0  0  0  0  0
   18.0402   -9.4594  -14.7441 C   0  0  2  0  0  0  0  0  0  0  0  0
   19.4043   -9.9885  -14.5977 N   0  0  0  0  0  0  0  0  0  0  0  0
   17.8448   -8.4396  -13.7139 C   0  0  0  0  0  0  0  0  0  0  0  0
   18.0635   -8.6936  -12.4977 O   0  0  0  0  0  0  0  0  0  0  0  0
   17.0501   -3.7020  -12.8025 O   0  0  0  0  0  0  0  0  0  0  0  0
   17.2464   -4.7555  -13.6576 C   0  0  0  0  0  0  0  0  0  0  0  0
   17.2700   -6.1054  -12.9549 C   0  0  2  0  0  0  0  0  0  0  0  0
   17.4031   -7.1062  -13.9826 N   0  0  0  0  0  0  0  0  0  0  0  0
   16.0671   -6.3186  -12.1166 C   0  0  0  0  0  0  0  0  0  0  0  0
   15.0719   -6.8562  -12.6671 O   0  0  0  0  0  0  0  0  0  0  0  0
   13.4350   -8.5791   -7.5176 C   0  0  0  0  0  0  0  0  0  0  0  0
   13.4253   -7.2979   -8.3217 C   0  0  0  0  0  0  0  0  0  0  0  0
   14.7289   -7.1706   -9.0335 C   0  0  2  0  0  0  0  0  0  0  0  0
   15.7823   -6.8186   -7.9857 C   0  0  0  0  0  0  0  0  0  0  0  0
   14.7515   -6.0851  -10.0700 C   0  0  2  0  0  0  0  0  0  0  0  0
   15.9947   -5.9495  -10.7502 N   0  0  0  0  0  0  0  0  0  0  0  0
   14.5000   -4.7924   -9.3375 C   0  0  0  0  0  0  0  0  0  0  0  0
   15.4173   -3.9930   -9.0901 O   0  0  0  0  0  0  0  0  0  0  0  0
   13.2157   -4.4459   -8.9080 O   0  0  0  0  0  0  0  0  0  0  0  0
  2  1  1  6
  2  3  1  0
  2  4  1  0
  4  5  1  1
  6  4  1  0
  6 11  1  0
  7  6  2  0
  8  9  1  0
 10 11  1  0
 10  9  1  6
 10 12  1  0
 12 13  2  0
 12 19  1  0
 15 14  1  0
 16 17  1  1
 16 15  1  0
 18 16  1  0
 18 19  1  1
 20 22  1  0
 20 18  1  0
 21 20  2  0
M  END
$$$$
