TSI.pdb
     RDKit          3D

 22 21  0  0  1  0  0  0  0  0999 V2000
   18.8720  -11.4548  -19.5006 C   0  0  0  0  0  0  0  0  0  0  0  0
   18.4872  -12.6095  -18.6039 C   0  0  1  0  0  0  0  0  0  0  0  0
   18.4755  -13.7848  -19.3163 O   0  0  0  0  0  0  0  0  0  0  0  0
   19.4075  -12.7366  -17.4144 C   0  0  2  0  0  0  0  0  0  0  0  0
   19.0203  -13.9164  -16.6270 N   0  0  0  0  0  0  0  0  0  0  0  0
   19.4005  -11.5806  -16.5182 C   0  0  0  0  0  0  0  0  0  0  0  0
   18.3615  -11.2600  -15.8786 O   0  0  0  0  0  0  0  0  0  0  0  0
   22.0221   -8.3127  -14.0529 O   0  0  0  0  0  0  0  0  0  0  0  0
   21.9106   -9.3720  -14.9161 C   0  0  0  0  0  0  0  0  0  0  0  0
   20.4919   -9.5901  -15.4220 C   0  0  2  0  0  0  0  0  0  0  0  0
   20.5332  -10.7371  -16.2928 N   0  0  0  0  0  0  0  0  0  0  0  0
   19.9515   -8.3893  -16.1013 C   0  0  0  0  0  0  0  0  0  0  0  0
   20.1768   -8.2770  -17.3338 O   0  0  0  0  0  0  0  0  0  0  0  0
   14.9362   -6.7554  -16.3241 C   0  0  0  0  0  0  0  0  0  0  0  0
   16.3718   -6.9949  -16.7363 C   0  0  0  0  0  0  0  0  0  0  0  0
   17.2443   -6.0257  -16.0140 C   0  0  2  0  0  0  0  0  0  0  0  0
   16.9563   -4.6421  -16.5921 C   0  0  0  0  0  0  0  0  0  0  0  0
   18.7127   -6.2841  -16.1875 C   0  0  2  0  0  0  0  0  0  0  0  0
   19.2078   -7.3850  -15.4329 N   0  0  0  0  0  0  0  0  0  0  0  0
   19.4228   -5.0496  -15.6949 C   0  0  0  0  0  0  0  0  0  0  0  0
   19.6656   -4.0920  -16.4471 O   0  0  0  0  0  0  0  0  0  0  0  0
   19.8357   -4.9390  -14.3640 O   0  0  0  0  0  0  0  0  0  0  0  0
  2  1  1  6
  2  3  1  0
  2  4  1  0
  4  5  1  1
  6  4  1  0
  6 11  1  0
  7  6  2  0
  8  9  1  0
 10 11  1  0
 10  9  1  6
 10 12  1  0
 12 13  2  0
 12 19  1  0
 15 14  1  0
 16 17  1  6
 16 15  1  0
 18 16  1  0
 18 19  1  1
 20 22  1  0
 20 18  1  0
 21 20  2  0
M  END
$$$$
