TSI.pdb
     RDKit          3D

 22 21  0  0  1  0  0  0  0  0999 V2000
   16.0828  -10.5314  -14.7111 C   0  0  0  0  0  0  0  0  0  0  0  0
   16.3921  -11.3462  -15.9463 C   0  0  1  0  0  0  0  0  0  0  0  0
   15.4303  -12.3095  -16.1368 O   0  0  0  0  0  0  0  0  0  0  0  0
   16.5109  -10.4851  -17.1801 C   0  0  2  0  0  0  0  0  0  0  0  0
   16.7135  -11.3470  -18.3539 N   0  0  0  0  0  0  0  0  0  0  0  0
   17.6095   -9.5202  -17.1406 C   0  0  0  0  0  0  0  0  0  0  0  0
   18.8113   -9.9010  -17.1863 O   0  0  0  0  0  0  0  0  0  0  0  0
   18.8753   -4.7876  -17.1493 O   0  0  0  0  0  0  0  0  0  0  0  0
   17.9314   -5.7817  -17.1269 C   0  0  0  0  0  0  0  0  0  0  0  0
   18.5283   -7.1766  -17.0061 C   0  0  2  0  0  0  0  0  0  0  0  0
   17.4272   -8.1046  -17.0498 N   0  0  0  0  0  0  0  0  0  0  0  0
   19.3428   -7.3299  -15.7779 C   0  0  0  0  0  0  0  0  0  0  0  0
   18.7288   -7.5869  -14.7105 O   0  0  0  0  0  0  0  0  0  0  0  0
   22.9194  -10.8845  -15.0382 C   0  0  0  0  0  0  0  0  0  0  0  0
   21.8281   -9.8376  -15.0045 C   0  0  0  0  0  0  0  0  0  0  0  0
   22.4183   -8.5466  -14.5494 C   0  0  2  0  0  0  0  0  0  0  0  0
   22.9037   -8.7530  -13.1165 C   0  0  0  0  0  0  0  0  0  0  0  0
   21.4425   -7.4062  -14.5293 C   0  0  2  0  0  0  0  0  0  0  0  0
   20.7540   -7.2015  -15.7584 N   0  0  0  0  0  0  0  0  0  0  0  0
   22.2479   -6.1621  -14.2561 C   0  0  0  0  0  0  0  0  0  0  0  0
   22.5612   -5.3748  -15.1637 O   0  0  0  0  0  0  0  0  0  0  0  0
   22.6732   -5.8491  -12.9619 O   0  0  0  0  0  0  0  0  0  0  0  0
  2  1  1  1
  2  3  1  0
  2  4  1  0
  4  5  1  6
  6  4  1  0
  6 11  1  0
  7  6  2  0
  8  9  1  0
 10 11  1  0
 10  9  1  1
 10 12  1  0
 12 13  2  0
 12 19  1  0
 15 14  1  0
 16 17  1  1
 16 15  1  0
 18 16  1  0
 18 19  1  6
 20 22  1  0
 20 18  1  0
 21 20  2  0
M  END
$$$$
