TSI.pdb
     RDKit          3D

 22 21  0  0  1  0  0  0  0  0999 V2000
   27.3711  -23.3406  -19.2739 C   0  0  0  0  0  0  0  0  0  0  0  0
   27.6836  -24.6877  -18.6633 C   0  0  1  0  0  0  0  0  0  0  0  0
   28.8035  -25.2293  -19.2478 O   0  0  0  0  0  0  0  0  0  0  0  0
   27.8715  -24.6042  -17.1681 C   0  0  2  0  0  0  0  0  0  0  0  0
   28.0235  -25.9613  -16.6231 N   0  0  0  0  0  0  0  0  0  0  0  0
   26.7695  -23.9584  -16.4554 C   0  0  0  0  0  0  0  0  0  0  0  0
   25.6885  -24.5710  -16.2373 O   0  0  0  0  0  0  0  0  0  0  0  0
   26.8070  -19.8733  -15.4143 O   0  0  0  0  0  0  0  0  0  0  0  0
   26.3200  -20.7904  -14.5191 C   0  0  0  0  0  0  0  0  0  0  0  0
   25.7500  -22.0359  -15.1827 C   0  0  2  0  0  0  0  0  0  0  0  0
   26.8159  -22.6186  -15.9572 N   0  0  0  0  0  0  0  0  0  0  0  0
   24.5580  -21.7318  -16.0085 C   0  0  0  0  0  0  0  0  0  0  0  0
   24.7612  -21.3092  -17.1758 O   0  0  0  0  0  0  0  0  0  0  0  0
   21.2406  -24.7659  -18.2259 C   0  0  0  0  0  0  0  0  0  0  0  0
   22.1110  -23.5823  -17.8657 C   0  0  0  0  0  0  0  0  0  0  0  0
   21.3601  -22.7071  -16.9209 C   0  0  2  0  0  0  0  0  0  0  0  0
   20.1638  -22.1424  -17.6834 C   0  0  0  0  0  0  0  0  0  0  0  0
   22.1550  -21.5401  -16.4118 C   0  0  2  0  0  0  0  0  0  0  0  0
   23.2282  -21.8943  -15.5462 N   0  0  0  0  0  0  0  0  0  0  0  0
   21.1997  -20.6905  -15.6140 C   0  0  0  0  0  0  0  0  0  0  0  0
   21.0594  -20.8400  -14.3893 O   0  0  0  0  0  0  0  0  0  0  0  0
   20.4326  -19.6972  -16.2296 O   0  0  0  0  0  0  0  0  0  0  0  0
  2  1  1  6
  2  3  1  0
  2  4  1  0
  4  5  1  1
  6  4  1  0
  6 11  1  0
  7  6  2  0
  8  9  1  0
 10 11  1  0
 10  9  1  6
 10 12  1  0
 12 13  2  0
 12 19  1  0
 15 14  1  0
 16 17  1  6
 16 15  1  0
 18 16  1  0
 18 19  1  1
 20 22  1  0
 20 18  1  0
 21 20  2  0
M  END
$$$$
