TSI.pdb
     RDKit          3D

 22 21  0  0  1  0  0  0  0  0999 V2000
   18.0200  -11.8785  -19.4496 C   0  0  0  0  0  0  0  0  0  0  0  0
   18.7743  -11.0425  -18.4409 C   0  0  1  0  0  0  0  0  0  0  0  0
   17.9123  -10.2052  -17.7739 O   0  0  0  0  0  0  0  0  0  0  0  0
   19.5348  -11.8931  -17.4529 C   0  0  2  0  0  0  0  0  0  0  0  0
   18.5892  -12.7535  -16.7267 N   0  0  0  0  0  0  0  0  0  0  0  0
   20.2975  -11.1336  -16.4625 C   0  0  0  0  0  0  0  0  0  0  0  0
   19.7678  -10.7616  -15.3796 O   0  0  0  0  0  0  0  0  0  0  0  0
   24.1133  -11.5853  -14.9739 O   0  0  0  0  0  0  0  0  0  0  0  0
   23.8472  -10.4666  -15.7203 C   0  0  0  0  0  0  0  0  0  0  0  0
   22.3970  -10.0134  -15.6305 C   0  0  2  0  0  0  0  0  0  0  0  0
   21.6673  -10.7566  -16.6259 N   0  0  0  0  0  0  0  0  0  0  0  0
   22.2583   -8.5493  -15.8100 C   0  0  0  0  0  0  0  0  0  0  0  0
   22.1247   -8.1255  -16.9868 O   0  0  0  0  0  0  0  0  0  0  0  0
   18.9169   -4.2526  -15.8952 C   0  0  0  0  0  0  0  0  0  0  0  0
   20.3755   -4.4562  -15.5498 C   0  0  0  0  0  0  0  0  0  0  0  0
   20.6094   -5.9073  -15.3007 C   0  0  2  0  0  0  0  0  0  0  0  0
   19.7915   -6.2911  -14.0698 C   0  0  0  0  0  0  0  0  0  0  0  0
   22.0413   -6.2504  -15.0088 C   0  0  2  0  0  0  0  0  0  0  0  0
   22.2698   -7.6281  -14.7330 N   0  0  0  0  0  0  0  0  0  0  0  0
   22.4196   -5.4785  -13.7711 C   0  0  0  0  0  0  0  0  0  0  0  0
   22.4613   -6.0170  -12.6530 O   0  0  0  0  0  0  0  0  0  0  0  0
   22.7392   -4.1194  -13.8394 O   0  0  0  0  0  0  0  0  0  0  0  0
  2  1  1  6
  2  3  1  0
  2  4  1  0
  4  5  1  1
  6  4  1  0
  6 11  1  0
  7  6  2  0
  8  9  1  0
 10 11  1  0
 10  9  1  6
 10 12  1  0
 12 13  2  0
 12 19  1  0
 15 14  1  0
 16 17  1  1
 16 15  1  0
 18 16  1  0
 18 19  1  1
 20 22  1  0
 20 18  1  0
 21 20  2  0
M  END
$$$$
