TSI.pdb
     RDKit          3D

 22 21  0  0  1  0  0  0  0  0999 V2000
   13.9367   -9.8116  -10.9812 C   0  0  0  0  0  0  0  0  0  0  0  0
   14.9848  -10.8352  -10.6083 C   0  0  1  0  0  0  0  0  0  0  0  0
   14.6522  -12.0675  -11.1180 O   0  0  0  0  0  0  0  0  0  0  0  0
   16.3619  -10.4364  -11.0802 C   0  0  2  0  0  0  0  0  0  0  0  0
   17.3281  -11.4708  -10.6820 N   0  0  0  0  0  0  0  0  0  0  0  0
   16.8352   -9.1572  -10.5520 C   0  0  0  0  0  0  0  0  0  0  0  0
   17.1731   -9.0382   -9.3425 O   0  0  0  0  0  0  0  0  0  0  0  0
   17.4979   -5.8074  -13.0114 O   0  0  0  0  0  0  0  0  0  0  0  0
   18.1655   -5.9785  -11.8262 C   0  0  0  0  0  0  0  0  0  0  0  0
   17.3402   -6.6969  -10.7682 C   0  0  2  0  0  0  0  0  0  0  0  0
   16.9544   -7.9649  -11.3328 N   0  0  0  0  0  0  0  0  0  0  0  0
   16.1710   -5.8967  -10.3349 C   0  0  0  0  0  0  0  0  0  0  0  0
   15.0869   -6.0884  -10.9437 O   0  0  0  0  0  0  0  0  0  0  0  0
   13.4085   -5.7236   -5.9650 C   0  0  0  0  0  0  0  0  0  0  0  0
   13.8650   -5.6511   -7.4054 C   0  0  0  0  0  0  0  0  0  0  0  0
   14.5103   -4.3272   -7.6360 C   0  0  2  0  0  0  0  0  0  0  0  0
   13.4328   -3.2616   -7.4484 C   0  0  0  0  0  0  0  0  0  0  0  0
   15.0694   -4.1566   -9.0186 C   0  0  2  0  0  0  0  0  0  0  0  0
   16.2240   -4.9454   -9.2857 N   0  0  0  0  0  0  0  0  0  0  0  0
   15.4791   -2.7112   -9.1362 C   0  0  0  0  0  0  0  0  0  0  0  0
   16.6220   -2.3300   -8.8361 O   0  0  0  0  0  0  0  0  0  0  0  0
   14.5799   -1.7424   -9.5909 O   0  0  0  0  0  0  0  0  0  0  0  0
  2  1  1  6
  2  3  1  0
  2  4  1  0
  4  5  1  1
  6  4  1  0
  6 11  1  0
  7  6  2  0
  8  9  1  0
 10 11  1  0
 10  9  1  6
 10 12  1  0
 12 13  2  0
 12 19  1  0
 15 14  1  0
 16 17  1  6
 16 15  1  0
 18 16  1  0
 18 19  1  1
 20 22  1  0
 20 18  1  0
 21 20  2  0
M  END
$$$$
