KMM.pdb
     RDKit          3D

 26 25  0  0  1  0  0  0  0  0999 V2000
    7.2839  -18.2613   20.2777 N   0  0  0  0  0  0  0  0  0  0  0  0
    8.3208  -17.3756   19.9308 C   0  0  1  0  0  0  0  0  0  0  0  0
    8.2002  -16.6528   18.6187 C   0  0  0  0  0  0  0  0  0  0  0  0
    8.3945  -17.4516   17.3974 C   0  0  0  0  0  0  0  0  0  0  0  0
    7.2222  -17.8711   16.6130 C   0  0  0  0  0  0  0  0  0  0  0  0
    7.4792  -18.5892   15.3375 C   0  0  0  0  0  0  0  0  0  0  0  0
    6.2436  -18.9716   14.7198 N   0  0  0  0  0  0  0  0  0  0  0  0
    8.7412  -16.4231   21.0029 C   0  0  0  0  0  0  0  0  0  0  0  0
    9.7980  -15.7478   20.7567 O   0  0  0  0  0  0  0  0  0  0  0  0
    6.7149  -11.7431   26.9997 C   0  0  0  0  0  0  0  0  0  0  0  0
    6.2869  -12.9539   25.7423 S   0  0  0  0  0  0  0  0  0  0  0  0
    7.7790  -13.6646   24.9528 C   0  0  0  0  0  0  0  0  0  0  0  0
    7.3879  -14.5874   23.8419 C   0  0  0  0  0  0  0  0  0  0  0  0
    8.5793  -15.1812   23.1370 C   0  0  2  0  0  0  0  0  0  0  0  0
    8.0807  -16.2309   22.2088 N   0  0  0  0  0  0  0  0  0  0  0  0
    9.4931  -15.7914   24.1131 C   0  0  0  0  0  0  0  0  0  0  0  0
    9.0264  -16.6915   24.8999 O   0  0  0  0  0  0  0  0  0  0  0  0
   11.4259  -12.6130   28.7212 C   0  0  0  0  0  0  0  0  0  0  0  0
   10.7402  -14.2478   29.1548 S   0  0  0  0  0  0  0  0  0  0  0  0
   11.4628  -15.4519   27.9845 C   0  0  0  0  0  0  0  0  0  0  0  0
   10.9177  -15.1468   26.6243 C   0  0  0  0  0  0  0  0  0  0  0  0
   11.5856  -15.8946   25.5018 C   0  0  2  0  0  0  0  0  0  0  0  0
   10.8674  -15.4926   24.2805 N   0  0  0  0  0  0  0  0  0  0  0  0
   11.4350  -17.3393   25.7210 C   0  0  0  0  0  0  0  0  0  0  0  0
   11.4805  -17.7923   26.8886 O   0  0  0  0  0  0  0  0  0  0  0  0
   11.2434  -18.2085   24.6795 O   0  0  0  0  0  0  0  0  0  0  0  0
  2  1  1  1
  3  2  1  0
  4  3  1  0
  5  4  1  0
  5  6  1  0
  7  6  1  0
  8  9  2  0
  8  2  1  0
 10 11  1  0
 11 12  1  0
 12 13  1  0
 14 13  1  1
 14 15  1  0
 15  8  1  0
 16 14  1  0
 17 16  2  0
 18 19  1  0
 20 19  1  0
 22 21  1  1
 21 20  1  0
 22 23  1  0
 23 16  1  0
 24 26  1  0
 24 22  1  0
 25 24  2  0
M  END
$$$$
