KMM.pdb
     RDKit          3D

 26 25  0  0  1  0  0  0  0  0999 V2000
    6.8425  -18.2026   20.1458 N   0  0  0  0  0  0  0  0  0  0  0  0
    7.9035  -17.3924   20.5904 C   0  0  1  0  0  0  0  0  0  0  0  0
    7.8586  -15.9353   20.2247 C   0  0  0  0  0  0  0  0  0  0  0  0
    8.3265  -15.5717   18.8770 C   0  0  0  0  0  0  0  0  0  0  0  0
    8.3256  -14.1582   18.4677 C   0  0  0  0  0  0  0  0  0  0  0  0
    8.8451  -13.8428   17.1114 C   0  0  0  0  0  0  0  0  0  0  0  0
    8.9502  -12.4246   16.9322 N   0  0  0  0  0  0  0  0  0  0  0  0
    8.2742  -17.5473   22.0298 C   0  0  0  0  0  0  0  0  0  0  0  0
    7.3012  -17.5035   22.8574 O   0  0  0  0  0  0  0  0  0  0  0  0
   12.7494  -21.4211   25.5335 C   0  0  0  0  0  0  0  0  0  0  0  0
   13.0054  -19.6635   25.8086 S   0  0  0  0  0  0  0  0  0  0  0  0
   11.4481  -18.7169   25.6252 C   0  0  0  0  0  0  0  0  0  0  0  0
   11.0636  -18.6261   24.1821 C   0  0  0  0  0  0  0  0  0  0  0  0
    9.7639  -17.8936   23.9750 C   0  0  2  0  0  0  0  0  0  0  0  0
    9.5639  -17.7291   22.5104 N   0  0  0  0  0  0  0  0  0  0  0  0
    9.8228  -16.5685   24.6081 C   0  0  0  0  0  0  0  0  0  0  0  0
   10.3131  -15.5946   23.9312 O   0  0  0  0  0  0  0  0  0  0  0  0
    5.6187  -11.5130   28.2033 C   0  0  0  0  0  0  0  0  0  0  0  0
    6.0857  -12.5274   26.7599 S   0  0  0  0  0  0  0  0  0  0  0  0
    7.8376  -12.9967   26.9877 C   0  0  0  0  0  0  0  0  0  0  0  0
    8.0317  -14.3439   26.3651 C   0  0  0  0  0  0  0  0  0  0  0  0
    9.4476  -14.8527   26.4062 C   0  0  2  0  0  0  0  0  0  0  0  0
    9.3810  -16.2388   25.9128 N   0  0  0  0  0  0  0  0  0  0  0  0
    9.9317  -14.8354   27.7930 C   0  0  0  0  0  0  0  0  0  0  0  0
   10.1286  -13.7364   28.3621 O   0  0  0  0  0  0  0  0  0  0  0  0
   10.1731  -15.9931   28.4849 O   0  0  0  0  0  0  0  0  0  0  0  0
  2  1  1  1
  3  2  1  0
  4  3  1  0
  5  4  1  0
  5  6  1  0
  7  6  1  0
  8  9  2  0
  8  2  1  0
 10 11  1  0
 11 12  1  0
 12 13  1  0
 14 13  1  6
 14 15  1  0
 15  8  1  0
 16 14  1  0
 17 16  2  0
 18 19  1  0
 20 19  1  0
 22 21  1  1
 21 20  1  0
 22 23  1  0
 23 16  1  0
 24 26  1  0
 24 22  1  0
 25 24  2  0
M  END
$$$$
