KMM.pdb
     RDKit          3D

 26 25  0  0  1  0  0  0  0  0999 V2000
    7.1738  -16.9614   20.8879 N   0  0  0  0  0  0  0  0  0  0  0  0
    8.5232  -16.9794   21.2862 C   0  0  1  0  0  0  0  0  0  0  0  0
    9.5591  -16.7409   20.2237 C   0  0  0  0  0  0  0  0  0  0  0  0
    9.8371  -17.8547   19.3019 C   0  0  0  0  0  0  0  0  0  0  0  0
   11.2029  -18.0454   18.7886 C   0  0  0  0  0  0  0  0  0  0  0  0
   11.4058  -19.1149   17.7768 C   0  0  0  0  0  0  0  0  0  0  0  0
   12.8018  -19.2839   17.4990 N   0  0  0  0  0  0  0  0  0  0  0  0
    8.8468  -16.1776   22.5052 C   0  0  0  0  0  0  0  0  0  0  0  0
   10.0588  -16.2470   22.9048 O   0  0  0  0  0  0  0  0  0  0  0  0
    5.0617  -11.8113   26.5178 C   0  0  0  0  0  0  0  0  0  0  0  0
    6.7804  -11.3819   26.2145 S   0  0  0  0  0  0  0  0  0  0  0  0
    7.8251  -12.8734   26.0174 C   0  0  0  0  0  0  0  0  0  0  0  0
    7.5578  -13.5226   24.6962 C   0  0  0  0  0  0  0  0  0  0  0  0
    8.3900  -14.7594   24.4808 C   0  0  2  0  0  0  0  0  0  0  0  0
    7.9462  -15.3892   23.2086 N   0  0  0  0  0  0  0  0  0  0  0  0
    8.1868  -15.7057   25.5869 C   0  0  0  0  0  0  0  0  0  0  0  0
    6.9904  -16.0960   25.8386 O   0  0  0  0  0  0  0  0  0  0  0  0
    7.2388  -21.5253   28.7283 C   0  0  0  0  0  0  0  0  0  0  0  0
    7.3530  -19.8383   28.0418 S   0  0  0  0  0  0  0  0  0  0  0  0
    8.4688  -19.9295   26.5968 C   0  0  0  0  0  0  0  0  0  0  0  0
    8.6612  -18.5371   26.0826 C   0  0  0  0  0  0  0  0  0  0  0  0
    8.9694  -17.5162   27.1448 C   0  0  2  0  0  0  0  0  0  0  0  0
    9.1917  -16.2526   26.4219 N   0  0  0  0  0  0  0  0  0  0  0  0
   10.1918  -17.9090   27.8584 C   0  0  0  0  0  0  0  0  0  0  0  0
   11.2877  -17.9036   27.2504 O   0  0  0  0  0  0  0  0  0  0  0  0
   10.1668  -18.2810   29.1767 O   0  0  0  0  0  0  0  0  0  0  0  0
  2  1  1  6
  3  2  1  0
  4  3  1  0
  5  4  1  0
  5  6  1  0
  7  6  1  0
  8  9  2  0
  8  2  1  0
 10 11  1  0
 11 12  1  0
 12 13  1  0
 14 13  1  1
 14 15  1  0
 15  8  1  0
 16 14  1  0
 17 16  2  0
 18 19  1  0
 20 19  1  0
 22 21  1  6
 21 20  1  0
 22 23  1  0
 23 16  1  0
 24 26  1  0
 24 22  1  0
 25 24  2  0
M  END
$$$$
