KMM.pdb
     RDKit          3D

 26 25  0  0  1  0  0  0  0  0999 V2000
    6.9268  -18.0772   21.5466 N   0  0  0  0  0  0  0  0  0  0  0  0
    8.0629  -17.4208   21.0384 C   0  0  1  0  0  0  0  0  0  0  0  0
    8.0627  -17.0743   19.5760 C   0  0  0  0  0  0  0  0  0  0  0  0
    7.6099  -18.1195   18.6434 C   0  0  0  0  0  0  0  0  0  0  0  0
    7.5405  -17.8238   17.2036 C   0  0  0  0  0  0  0  0  0  0  0  0
    6.9575  -18.8689   16.3222 C   0  0  0  0  0  0  0  0  0  0  0  0
    7.6893  -20.0951   16.4470 N   0  0  0  0  0  0  0  0  0  0  0  0
    8.5477  -16.2564   21.8400 C   0  0  0  0  0  0  0  0  0  0  0  0
    9.5801  -15.6610   21.3784 O   0  0  0  0  0  0  0  0  0  0  0  0
    5.0464  -12.3800   25.6477 C   0  0  0  0  0  0  0  0  0  0  0  0
    6.6709  -12.1284   26.3741 S   0  0  0  0  0  0  0  0  0  0  0  0
    8.0001  -12.7960   25.3051 C   0  0  0  0  0  0  0  0  0  0  0  0
    7.4881  -13.9486   24.5002 C   0  0  0  0  0  0  0  0  0  0  0  0
    8.5700  -14.6151   23.6917 C   0  0  2  0  0  0  0  0  0  0  0  0
    7.9690  -15.7952   23.0147 N   0  0  0  0  0  0  0  0  0  0  0  0
    9.6575  -15.0635   24.5730 C   0  0  0  0  0  0  0  0  0  0  0  0
   10.3552  -14.1715   25.1768 O   0  0  0  0  0  0  0  0  0  0  0  0
   11.6664  -13.6554   29.5784 C   0  0  0  0  0  0  0  0  0  0  0  0
   10.1771  -14.5166   28.9694 S   0  0  0  0  0  0  0  0  0  0  0  0
   10.4508  -14.8557   27.1941 C   0  0  0  0  0  0  0  0  0  0  0  0
   10.8438  -16.2939   27.0616 C   0  0  0  0  0  0  0  0  0  0  0  0
   11.2063  -16.7159   25.6631 C   0  0  2  0  0  0  0  0  0  0  0  0
   10.0248  -16.4050   24.8407 N   0  0  0  0  0  0  0  0  0  0  0  0
   11.4670  -18.1614   25.6424 C   0  0  0  0  0  0  0  0  0  0  0  0
   12.4968  -18.6088   26.1992 O   0  0  0  0  0  0  0  0  0  0  0  0
   10.6105  -19.0379   25.0298 O   0  0  0  0  0  0  0  0  0  0  0  0
  2  1  1  1
  3  2  1  0
  4  3  1  0
  5  4  1  0
  5  6  1  0
  7  6  1  0
  8  9  2  0
  8  2  1  0
 10 11  1  0
 11 12  1  0
 12 13  1  0
 14 13  1  1
 14 15  1  0
 15  8  1  0
 16 14  1  0
 17 16  2  0
 18 19  1  0
 20 19  1  0
 22 21  1  1
 21 20  1  0
 22 23  1  0
 23 16  1  0
 24 26  1  0
 24 22  1  0
 25 24  2  0
M  END
$$$$
