KMM.pdb
     RDKit          3D

 26 25  0  0  1  0  0  0  0  0999 V2000
    7.5618  -21.1710   21.9286 N   0  0  0  0  0  0  0  0  0  0  0  0
    6.9554  -19.9639   22.3221 C   0  0  1  0  0  0  0  0  0  0  0  0
    6.3321  -19.9187   23.6889 C   0  0  0  0  0  0  0  0  0  0  0  0
    7.1765  -20.3354   24.8206 C   0  0  0  0  0  0  0  0  0  0  0  0
    6.5576  -20.5824   26.1327 C   0  0  0  0  0  0  0  0  0  0  0  0
    7.4367  -21.1037   27.2117 C   0  0  0  0  0  0  0  0  0  0  0  0
    8.3098  -20.0720   27.6891 N   0  0  0  0  0  0  0  0  0  0  0  0
    7.7640  -18.7291   22.0876 C   0  0  0  0  0  0  0  0  0  0  0  0
    9.0153  -18.9159   21.9063 O   0  0  0  0  0  0  0  0  0  0  0  0
    7.6753  -11.6433   18.7082 C   0  0  0  0  0  0  0  0  0  0  0  0
    6.8072  -12.9917   19.5196 S   0  0  0  0  0  0  0  0  0  0  0  0
    7.9714  -14.2065   20.2434 C   0  0  0  0  0  0  0  0  0  0  0  0
    7.2194  -15.2705   20.9789 C   0  0  0  0  0  0  0  0  0  0  0  0
    8.1224  -16.3473   21.5207 C   0  0  2  0  0  0  0  0  0  0  0  0
    7.2611  -17.4355   22.0555 N   0  0  0  0  0  0  0  0  0  0  0  0
    8.9558  -15.8109   22.6061 C   0  0  0  0  0  0  0  0  0  0  0  0
    9.6949  -14.7920   22.3559 O   0  0  0  0  0  0  0  0  0  0  0  0
    6.8331  -11.2172   27.5197 C   0  0  0  0  0  0  0  0  0  0  0  0
    6.7057  -12.4407   26.1716 S   0  0  0  0  0  0  0  0  0  0  0  0
    8.1835  -13.5106   26.2868 C   0  0  0  0  0  0  0  0  0  0  0  0
    8.1637  -14.4404   25.1141 C   0  0  0  0  0  0  0  0  0  0  0  0
    9.3216  -15.4004   25.0587 C   0  0  2  0  0  0  0  0  0  0  0  0
    9.0295  -16.3029   23.9322 N   0  0  0  0  0  0  0  0  0  0  0  0
    9.3820  -16.1640   26.3121 C   0  0  0  0  0  0  0  0  0  0  0  0
    9.6842  -15.5759   27.3768 O   0  0  0  0  0  0  0  0  0  0  0  0
    9.1140  -17.5071   26.3495 O   0  0  0  0  0  0  0  0  0  0  0  0
  2  1  1  1
  3  2  1  0
  4  3  1  0
  5  4  1  0
  5  6  1  0
  7  6  1  0
  8  9  2  0
  8  2  1  0
 10 11  1  0
 11 12  1  0
 12 13  1  0
 14 13  1  1
 14 15  1  0
 15  8  1  0
 16 14  1  0
 17 16  2  0
 18 19  1  0
 20 19  1  0
 22 21  1  1
 21 20  1  0
 22 23  1  0
 23 16  1  0
 24 26  1  0
 24 22  1  0
 25 24  2  0
M  END
$$$$
