KMM.pdb
     RDKit          3D

 26 25  0  0  1  0  0  0  0  0999 V2000
    4.5387  -19.0930   24.5807 N   0  0  0  0  0  0  0  0  0  0  0  0
    4.8476  -18.5222   23.3323 C   0  0  1  0  0  0  0  0  0  0  0  0
    3.6971  -18.1648   22.4337 C   0  0  0  0  0  0  0  0  0  0  0  0
    2.6828  -19.2067   22.2032 C   0  0  0  0  0  0  0  0  0  0  0  0
    1.4834  -18.8867   21.4130 C   0  0  0  0  0  0  0  0  0  0  0  0
    0.4917  -19.9751   21.2112 C   0  0  0  0  0  0  0  0  0  0  0  0
    0.4924  -20.8680   22.3325 N   0  0  0  0  0  0  0  0  0  0  0  0
    5.8401  -17.4053   23.3614 C   0  0  0  0  0  0  0  0  0  0  0  0
    6.2377  -16.9913   22.2194 O   0  0  0  0  0  0  0  0  0  0  0  0
    5.3559  -12.0598   27.7404 C   0  0  0  0  0  0  0  0  0  0  0  0
    6.7193  -13.1887   27.4292 S   0  0  0  0  0  0  0  0  0  0  0  0
    6.4803  -14.1242   25.8727 C   0  0  0  0  0  0  0  0  0  0  0  0
    7.5953  -15.1030   25.6799 C   0  0  0  0  0  0  0  0  0  0  0  0
    7.4815  -15.8611   24.3834 C   0  0  2  0  0  0  0  0  0  0  0  0
    6.3418  -16.8084   24.5100 N   0  0  0  0  0  0  0  0  0  0  0  0
    8.7153  -16.6184   24.1293 C   0  0  0  0  0  0  0  0  0  0  0  0
    8.6577  -17.9000   24.1629 O   0  0  0  0  0  0  0  0  0  0  0  0
    8.9884  -12.4561   18.4091 C   0  0  0  0  0  0  0  0  0  0  0  0
    8.6093  -12.9789   20.1160 S   0  0  0  0  0  0  0  0  0  0  0  0
    9.7500  -14.3505   20.5148 C   0  0  0  0  0  0  0  0  0  0  0  0
    9.5176  -14.7340   21.9428 C   0  0  0  0  0  0  0  0  0  0  0  0
   10.4107  -15.8356   22.4469 C   0  0  2  0  0  0  0  0  0  0  0  0
    9.9908  -16.0758   23.8379 N   0  0  0  0  0  0  0  0  0  0  0  0
   11.8080  -15.3836   22.4144 C   0  0  0  0  0  0  0  0  0  0  0  0
   12.3416  -14.9585   23.4657 O   0  0  0  0  0  0  0  0  0  0  0  0
   12.5477  -15.4160   21.2616 O   0  0  0  0  0  0  0  0  0  0  0  0
  2  1  1  1
  3  2  1  0
  4  3  1  0
  5  4  1  0
  5  6  1  0
  7  6  1  0
  8  9  2  0
  8  2  1  0
 10 11  1  0
 11 12  1  0
 12 13  1  0
 14 13  1  1
 14 15  1  0
 15  8  1  0
 16 14  1  0
 17 16  2  0
 18 19  1  0
 20 19  1  0
 22 21  1  1
 21 20  1  0
 22 23  1  0
 23 16  1  0
 24 26  1  0
 24 22  1  0
 25 24  2  0
M  END
$$$$
