KMM.pdb
     RDKit          3D

 26 25  0  0  1  0  0  0  0  0999 V2000
    7.4661  -16.5939   19.9298 N   0  0  0  0  0  0  0  0  0  0  0  0
    8.4615  -15.6089   20.0663 C   0  0  1  0  0  0  0  0  0  0  0  0
    8.4062  -14.4376   19.1261 C   0  0  0  0  0  0  0  0  0  0  0  0
    8.3378  -14.7407   17.6871 C   0  0  0  0  0  0  0  0  0  0  0  0
    8.3045  -13.6358   16.7157 C   0  0  0  0  0  0  0  0  0  0  0  0
    8.0737  -13.9899   15.2909 C   0  0  0  0  0  0  0  0  0  0  0  0
    8.2608  -12.8424   14.4526 N   0  0  0  0  0  0  0  0  0  0  0  0
    8.7123  -15.1340   21.4609 C   0  0  0  0  0  0  0  0  0  0  0  0
    9.7360  -14.3839   21.6120 O   0  0  0  0  0  0  0  0  0  0  0  0
    5.4740  -11.6379   25.6800 C   0  0  0  0  0  0  0  0  0  0  0  0
    6.0301  -13.0203   26.6849 S   0  0  0  0  0  0  0  0  0  0  0  0
    7.4969  -13.8394   25.9552 C   0  0  0  0  0  0  0  0  0  0  0  0
    7.1723  -14.3659   24.5928 C   0  0  0  0  0  0  0  0  0  0  0  0
    8.3692  -14.9695   23.9060 C   0  0  2  0  0  0  0  0  0  0  0  0
    7.9318  -15.4448   22.5662 N   0  0  0  0  0  0  0  0  0  0  0  0
    8.8775  -16.1092   24.6825 C   0  0  0  0  0  0  0  0  0  0  0  0
    8.0279  -16.8614   25.2819 O   0  0  0  0  0  0  0  0  0  0  0  0
   10.7266  -12.9879   28.9707 C   0  0  0  0  0  0  0  0  0  0  0  0
   11.7000  -14.5228   29.1349 S   0  0  0  0  0  0  0  0  0  0  0  0
   10.6509  -15.8838   28.5117 C   0  0  0  0  0  0  0  0  0  0  0  0
   10.4222  -15.6491   27.0513 C   0  0  0  0  0  0  0  0  0  0  0  0
   10.7783  -16.8146   26.1681 C   0  0  2  0  0  0  0  0  0  0  0  0
   10.2350  -16.4814   24.8405 N   0  0  0  0  0  0  0  0  0  0  0  0
   10.1358  -18.0309   26.6835 C   0  0  0  0  0  0  0  0  0  0  0  0
   10.6749  -18.6602   27.6237 O   0  0  0  0  0  0  0  0  0  0  0  0
    8.9572  -18.4972   26.1633 O   0  0  0  0  0  0  0  0  0  0  0  0
  2  1  1  1
  3  2  1  0
  4  3  1  0
  5  4  1  0
  5  6  1  0
  7  6  1  0
  8  9  2  0
  8  2  1  0
 10 11  1  0
 11 12  1  0
 12 13  1  0
 14 13  1  1
 14 15  1  0
 15  8  1  0
 16 14  1  0
 17 16  2  0
 18 19  1  0
 20 19  1  0
 22 21  1  1
 21 20  1  0
 22 23  1  0
 23 16  1  0
 24 26  1  0
 24 22  1  0
 25 24  2  0
M  END
$$$$
