KMM.pdb
     RDKit          3D

 26 25  0  0  1  0  0  0  0  0999 V2000
    7.5828  -18.0228   20.2230 N   0  0  0  0  0  0  0  0  0  0  0  0
    8.6840  -17.2071   19.9042 C   0  0  1  0  0  0  0  0  0  0  0  0
    8.6701  -16.5212   18.5669 C   0  0  0  0  0  0  0  0  0  0  0  0
    8.7683  -17.3810   17.3759 C   0  0  0  0  0  0  0  0  0  0  0  0
    7.5970  -18.1631   16.9495 C   0  0  0  0  0  0  0  0  0  0  0  0
    7.7196  -18.9376   15.6870 C   0  0  0  0  0  0  0  0  0  0  0  0
    7.8086  -18.0529   14.5628 N   0  0  0  0  0  0  0  0  0  0  0  0
    9.1037  -16.2451   20.9681 C   0  0  0  0  0  0  0  0  0  0  0  0
   10.1360  -15.5412   20.6988 O   0  0  0  0  0  0  0  0  0  0  0  0
    5.8154  -13.3567   26.5024 C   0  0  0  0  0  0  0  0  0  0  0  0
    6.6395  -12.3667   25.2490 S   0  0  0  0  0  0  0  0  0  0  0  0
    8.1429  -13.1971   24.6124 C   0  0  0  0  0  0  0  0  0  0  0  0
    7.7725  -14.2362   23.6017 C   0  0  0  0  0  0  0  0  0  0  0  0
    8.9638  -15.0167   23.1116 C   0  0  2  0  0  0  0  0  0  0  0  0
    8.4667  -16.0725   22.1895 N   0  0  0  0  0  0  0  0  0  0  0  0
    9.6561  -15.6486   24.2438 C   0  0  0  0  0  0  0  0  0  0  0  0
    9.0779  -16.6287   24.8372 O   0  0  0  0  0  0  0  0  0  0  0  0
    9.9459  -14.8807   31.1193 C   0  0  0  0  0  0  0  0  0  0  0  0
   10.5479  -14.0334   29.6192 S   0  0  0  0  0  0  0  0  0  0  0  0
   11.1869  -15.3298   28.4999 C   0  0  0  0  0  0  0  0  0  0  0  0
   10.9366  -14.8802   27.0944 C   0  0  0  0  0  0  0  0  0  0  0  0
   11.4058  -15.8437   26.0376 C   0  0  2  0  0  0  0  0  0  0  0  0
   10.9252  -15.2901   24.7604 N   0  0  0  0  0  0  0  0  0  0  0  0
   10.7993  -17.1605   26.2747 C   0  0  0  0  0  0  0  0  0  0  0  0
   11.4596  -18.0437   26.8701 O   0  0  0  0  0  0  0  0  0  0  0  0
    9.5251  -17.4500   25.8626 O   0  0  0  0  0  0  0  0  0  0  0  0
  2  1  1  1
  3  2  1  0
  4  3  1  0
  5  4  1  0
  5  6  1  0
  7  6  1  0
  8  9  2  0
  8  2  1  0
 10 11  1  0
 11 12  1  0
 12 13  1  0
 14 13  1  1
 14 15  1  0
 15  8  1  0
 16 14  1  0
 17 16  2  0
 18 19  1  0
 20 19  1  0
 22 21  1  1
 21 20  1  0
 22 23  1  0
 23 16  1  0
 24 26  1  0
 24 22  1  0
 25 24  2  0
M  END
$$$$
