KMM.pdb
     RDKit          3D

 26 25  0  0  1  0  0  0  0  0999 V2000
    5.0850  -18.6717   23.5593 N   0  0  0  0  0  0  0  0  0  0  0  0
    5.8955  -18.1925   22.5137 C   0  0  1  0  0  0  0  0  0  0  0  0
    5.2237  -17.8891   21.2039 C   0  0  0  0  0  0  0  0  0  0  0  0
    6.0549  -17.9783   19.9921 C   0  0  0  0  0  0  0  0  0  0  0  0
    6.0243  -19.2067   19.1825 C   0  0  0  0  0  0  0  0  0  0  0  0
    6.8908  -19.2474   17.9757 C   0  0  0  0  0  0  0  0  0  0  0  0
    6.6517  -20.4462   17.2271 N   0  0  0  0  0  0  0  0  0  0  0  0
    6.8303  -17.0848   22.8777 C   0  0  0  0  0  0  0  0  0  0  0  0
    7.6667  -16.7491   21.9715 O   0  0  0  0  0  0  0  0  0  0  0  0
    6.7753  -11.0170   26.1270 C   0  0  0  0  0  0  0  0  0  0  0  0
    5.6073  -12.3705   25.9425 S   0  0  0  0  0  0  0  0  0  0  0  0
    6.1985  -13.6135   24.7341 C   0  0  0  0  0  0  0  0  0  0  0  0
    7.3475  -14.3843   25.3034 C   0  0  0  0  0  0  0  0  0  0  0  0
    7.9016  -15.3961   24.3350 C   0  0  2  0  0  0  0  0  0  0  0  0
    6.8490  -16.4194   24.0960 N   0  0  0  0  0  0  0  0  0  0  0  0
    9.0894  -16.0466   24.9063 C   0  0  0  0  0  0  0  0  0  0  0  0
    8.9133  -16.9741   25.7757 O   0  0  0  0  0  0  0  0  0  0  0  0
   10.4187  -12.6892   28.6609 C   0  0  0  0  0  0  0  0  0  0  0  0
   10.8778  -14.3002   29.3851 S   0  0  0  0  0  0  0  0  0  0  0  0
   11.7224  -15.2495   28.0709 C   0  0  0  0  0  0  0  0  0  0  0  0
   10.9159  -15.1076   26.8181 C   0  0  0  0  0  0  0  0  0  0  0  0
   11.4879  -15.8214   25.6229 C   0  0  2  0  0  0  0  0  0  0  0  0
   10.4399  -15.7597   24.5901 N   0  0  0  0  0  0  0  0  0  0  0  0
   11.7636  -17.2203   25.9765 C   0  0  0  0  0  0  0  0  0  0  0  0
   10.9696  -18.1164   25.6061 O   0  0  0  0  0  0  0  0  0  0  0  0
   12.8710  -17.5739   26.7016 O   0  0  0  0  0  0  0  0  0  0  0  0
  2  1  1  1
  3  2  1  0
  4  3  1  0
  5  4  1  0
  5  6  1  0
  7  6  1  0
  8  9  2  0
  8  2  1  0
 10 11  1  0
 11 12  1  0
 12 13  1  0
 14 13  1  1
 14 15  1  0
 15  8  1  0
 16 14  1  0
 17 16  2  0
 18 19  1  0
 20 19  1  0
 22 21  1  1
 21 20  1  0
 22 23  1  0
 23 16  1  0
 24 26  1  0
 24 22  1  0
 25 24  2  0
M  END
$$$$
