KMM.pdb
     RDKit          3D

 26 25  0  0  1  0  0  0  0  0999 V2000
    8.7469  -17.8783   19.6196 N   0  0  0  0  0  0  0  0  0  0  0  0
    9.4889  -16.6932   19.7779 C   0  0  1  0  0  0  0  0  0  0  0  0
    9.4427  -15.6954   18.6550 C   0  0  0  0  0  0  0  0  0  0  0  0
    9.6722  -16.2110   17.2953 C   0  0  0  0  0  0  0  0  0  0  0  0
    8.5314  -16.7002   16.5048 C   0  0  0  0  0  0  0  0  0  0  0  0
    8.7771  -17.0001   15.0701 C   0  0  0  0  0  0  0  0  0  0  0  0
    7.5935  -17.5290   14.4587 N   0  0  0  0  0  0  0  0  0  0  0  0
    9.3193  -15.9962   21.0890 C   0  0  0  0  0  0  0  0  0  0  0  0
   10.0777  -14.9849   21.2777 O   0  0  0  0  0  0  0  0  0  0  0  0
    6.4415  -12.1800   26.3924 C   0  0  0  0  0  0  0  0  0  0  0  0
    6.7814  -13.0957   24.8836 S   0  0  0  0  0  0  0  0  0  0  0  0
    6.8583  -14.8998   25.1908 C   0  0  0  0  0  0  0  0  0  0  0  0
    6.9982  -15.6401   23.8981 C   0  0  0  0  0  0  0  0  0  0  0  0
    8.3997  -15.5851   23.3491 C   0  0  2  0  0  0  0  0  0  0  0  0
    8.4218  -16.3640   22.0823 N   0  0  0  0  0  0  0  0  0  0  0  0
    9.3417  -16.1859   24.3041 C   0  0  0  0  0  0  0  0  0  0  0  0
    9.6617  -17.4186   24.1458 O   0  0  0  0  0  0  0  0  0  0  0  0
   11.2355  -14.2641   30.3950 C   0  0  0  0  0  0  0  0  0  0  0  0
    9.9709  -13.6199   29.2477 S   0  0  0  0  0  0  0  0  0  0  0  0
   10.4734  -14.1301   27.5658 C   0  0  0  0  0  0  0  0  0  0  0  0
   10.8064  -15.5885   27.6139 C   0  0  0  0  0  0  0  0  0  0  0  0
   10.9115  -16.2499   26.2660 C   0  0  2  0  0  0  0  0  0  0  0  0
    9.9553  -15.5361   25.4029 N   0  0  0  0  0  0  0  0  0  0  0  0
   10.5248  -17.6621   26.3844 C   0  0  0  0  0  0  0  0  0  0  0  0
    9.3147  -17.9774   26.3028 O   0  0  0  0  0  0  0  0  0  0  0  0
   11.4553  -18.6484   26.5806 O   0  0  0  0  0  0  0  0  0  0  0  0
  2  1  1  6
  3  2  1  0
  4  3  1  0
  5  4  1  0
  5  6  1  0
  7  6  1  0
  8  9  2  0
  8  2  1  0
 10 11  1  0
 11 12  1  0
 12 13  1  0
 14 13  1  1
 14 15  1  0
 15  8  1  0
 16 14  1  0
 17 16  2  0
 18 19  1  0
 20 19  1  0
 22 21  1  1
 21 20  1  0
 22 23  1  0
 23 16  1  0
 24 26  1  0
 24 22  1  0
 25 24  2  0
M  END
$$$$
