KMM.pdb
     RDKit          3D

 26 25  0  0  1  0  0  0  0  0999 V2000
    7.6629  -18.5557   20.5810 N   0  0  0  0  0  0  0  0  0  0  0  0
    8.8878  -17.8809   20.4265 C   0  0  1  0  0  0  0  0  0  0  0  0
    9.2747  -17.4635   19.0354 C   0  0  0  0  0  0  0  0  0  0  0  0
    8.7052  -18.2422   17.9233 C   0  0  0  0  0  0  0  0  0  0  0  0
    9.0843  -17.9121   16.5403 C   0  0  0  0  0  0  0  0  0  0  0  0
    8.3107  -18.5613   15.4499 C   0  0  0  0  0  0  0  0  0  0  0  0
    8.8525  -18.2067   14.1712 N   0  0  0  0  0  0  0  0  0  0  0  0
    9.1316  -16.7592   21.3835 C   0  0  0  0  0  0  0  0  0  0  0  0
   10.2940  -16.2307   21.3288 O   0  0  0  0  0  0  0  0  0  0  0  0
    6.4948  -11.8613   27.0542 C   0  0  0  0  0  0  0  0  0  0  0  0
    6.2256  -13.2763   25.9793 S   0  0  0  0  0  0  0  0  0  0  0  0
    7.6484  -13.5551   24.8600 C   0  0  0  0  0  0  0  0  0  0  0  0
    7.3885  -14.7330   23.9748 C   0  0  0  0  0  0  0  0  0  0  0  0
    8.5884  -15.1092   23.1457 C   0  0  2  0  0  0  0  0  0  0  0  0
    8.2083  -16.2706   22.2979 N   0  0  0  0  0  0  0  0  0  0  0  0
    9.7074  -15.4917   24.0186 C   0  0  0  0  0  0  0  0  0  0  0  0
   10.7489  -14.7420   24.0325 O   0  0  0  0  0  0  0  0  0  0  0  0
   10.6024  -12.8177   28.0994 C   0  0  0  0  0  0  0  0  0  0  0  0
   10.7015  -14.2568   29.2174 S   0  0  0  0  0  0  0  0  0  0  0  0
   11.2137  -15.6848   28.1976 C   0  0  0  0  0  0  0  0  0  0  0  0
   10.4089  -15.6540   26.9360 C   0  0  0  0  0  0  0  0  0  0  0  0
   10.7749  -16.7174   25.9358 C   0  0  2  0  0  0  0  0  0  0  0  0
    9.7612  -16.6210   24.8718 N   0  0  0  0  0  0  0  0  0  0  0  0
   10.7049  -18.0363   26.5788 C   0  0  0  0  0  0  0  0  0  0  0  0
   11.5725  -18.3548   27.4252 O   0  0  0  0  0  0  0  0  0  0  0  0
    9.7116  -18.9309   26.2786 O   0  0  0  0  0  0  0  0  0  0  0  0
  2  1  1  6
  3  2  1  0
  4  3  1  0
  5  4  1  0
  5  6  1  0
  7  6  1  0
  8  9  2  0
  8  2  1  0
 10 11  1  0
 11 12  1  0
 12 13  1  0
 14 13  1  1
 14 15  1  0
 15  8  1  0
 16 14  1  0
 17 16  2  0
 18 19  1  0
 20 19  1  0
 22 21  1  1
 21 20  1  0
 22 23  1  0
 23 16  1  0
 24 26  1  0
 24 22  1  0
 25 24  2  0
M  END
$$$$
