KMM.pdb
     RDKit          3D

 26 25  0  0  1  0  0  0  0  0999 V2000
    8.9028  -18.4676   19.8112 N   0  0  0  0  0  0  0  0  0  0  0  0
   10.1525  -17.8904   20.1031 C   0  0  1  0  0  0  0  0  0  0  0  0
   10.9523  -17.3566   18.9481 C   0  0  0  0  0  0  0  0  0  0  0  0
   10.8115  -18.0557   17.6601 C   0  0  0  0  0  0  0  0  0  0  0  0
    9.8737  -17.5348   16.6528 C   0  0  0  0  0  0  0  0  0  0  0  0
    9.7957  -18.2593   15.3575 C   0  0  0  0  0  0  0  0  0  0  0  0
    8.9264  -17.5705   14.4495 N   0  0  0  0  0  0  0  0  0  0  0  0
   10.1621  -16.9083   21.2294 C   0  0  0  0  0  0  0  0  0  0  0  0
   11.2751  -16.3136   21.4326 O   0  0  0  0  0  0  0  0  0  0  0  0
    6.3656  -12.2833   26.3933 C   0  0  0  0  0  0  0  0  0  0  0  0
    6.3230  -13.4523   25.0288 S   0  0  0  0  0  0  0  0  0  0  0  0
    7.9723  -14.1843   24.7141 C   0  0  0  0  0  0  0  0  0  0  0  0
    7.9177  -15.0940   23.5276 C   0  0  0  0  0  0  0  0  0  0  0  0
    9.2680  -15.6557   23.1671 C   0  0  2  0  0  0  0  0  0  0  0  0
    9.0771  -16.6103   22.0426 N   0  0  0  0  0  0  0  0  0  0  0  0
    9.8430  -16.3692   24.3163 C   0  0  0  0  0  0  0  0  0  0  0  0
    9.6435  -17.6338   24.4063 O   0  0  0  0  0  0  0  0  0  0  0  0
    9.3318  -13.2204   30.2122 C   0  0  0  0  0  0  0  0  0  0  0  0
   10.8173  -14.0654   29.5720 S   0  0  0  0  0  0  0  0  0  0  0  0
   10.2687  -15.1206   28.1838 C   0  0  0  0  0  0  0  0  0  0  0  0
   11.4894  -15.7210   27.5595 C   0  0  0  0  0  0  0  0  0  0  0  0
   11.2098  -16.6479   26.4072 C   0  0  2  0  0  0  0  0  0  0  0  0
   10.6177  -15.8016   25.3574 N   0  0  0  0  0  0  0  0  0  0  0  0
   10.2465  -17.6736   26.8291 C   0  0  0  0  0  0  0  0  0  0  0  0
    9.0279  -17.5096   26.5871 O   0  0  0  0  0  0  0  0  0  0  0  0
   10.6459  -18.8104   27.4812 O   0  0  0  0  0  0  0  0  0  0  0  0
  2  1  1  6
  3  2  1  0
  4  3  1  0
  5  4  1  0
  5  6  1  0
  7  6  1  0
  8  9  2  0
  8  2  1  0
 10 11  1  0
 11 12  1  0
 12 13  1  0
 14 13  1  1
 14 15  1  0
 15  8  1  0
 16 14  1  0
 17 16  2  0
 18 19  1  0
 20 19  1  0
 22 21  1  1
 21 20  1  0
 22 23  1  0
 23 16  1  0
 24 26  1  0
 24 22  1  0
 25 24  2  0
M  END
$$$$
