KMM.pdb
     RDKit          3D

 26 25  0  0  1  0  0  0  0  0999 V2000
    8.0266  -13.4353   19.2983 N   0  0  0  0  0  0  0  0  0  0  0  0
    7.8017  -14.5244   20.1604 C   0  0  1  0  0  0  0  0  0  0  0  0
    8.1476  -15.8937   19.6464 C   0  0  0  0  0  0  0  0  0  0  0  0
    9.2831  -15.9886   18.7142 C   0  0  0  0  0  0  0  0  0  0  0  0
    9.5554  -17.2642   18.0330 C   0  0  0  0  0  0  0  0  0  0  0  0
   10.6730  -17.2869   17.0536 C   0  0  0  0  0  0  0  0  0  0  0  0
   10.7394  -18.5599   16.3982 N   0  0  0  0  0  0  0  0  0  0  0  0
    8.3102  -14.3583   21.5559 C   0  0  0  0  0  0  0  0  0  0  0  0
    9.3695  -13.6535   21.6762 O   0  0  0  0  0  0  0  0  0  0  0  0
    6.8756  -12.1891   27.4091 C   0  0  0  0  0  0  0  0  0  0  0  0
    5.8245  -11.9442   25.9720 S   0  0  0  0  0  0  0  0  0  0  0  0
    6.4853  -12.8053   24.4966 C   0  0  0  0  0  0  0  0  0  0  0  0
    7.0788  -14.1219   24.8874 C   0  0  0  0  0  0  0  0  0  0  0  0
    8.2527  -14.5057   24.0253 C   0  0  2  0  0  0  0  0  0  0  0  0
    7.7263  -14.9022   22.6919 N   0  0  0  0  0  0  0  0  0  0  0  0
    8.9689  -15.6424   24.6214 C   0  0  0  0  0  0  0  0  0  0  0  0
    8.9691  -16.7584   23.9876 O   0  0  0  0  0  0  0  0  0  0  0  0
   10.5877  -14.5620   30.0748 C   0  0  0  0  0  0  0  0  0  0  0  0
   11.0354  -13.8839   28.4407 S   0  0  0  0  0  0  0  0  0  0  0  0
   11.9172  -15.2090   27.5416 C   0  0  0  0  0  0  0  0  0  0  0  0
   11.0656  -16.4387   27.5951 C   0  0  0  0  0  0  0  0  0  0  0  0
   10.4414  -16.8237   26.2808 C   0  0  2  0  0  0  0  0  0  0  0  0
    9.6818  -15.6396   25.8453 N   0  0  0  0  0  0  0  0  0  0  0  0
    9.5303  -17.9574   26.4874 C   0  0  0  0  0  0  0  0  0  0  0  0
    8.2926  -17.7712   26.4251 O   0  0  0  0  0  0  0  0  0  0  0  0
    9.9990  -19.2187   26.7455 O   0  0  0  0  0  0  0  0  0  0  0  0
  2  1  1  6
  3  2  1  0
  4  3  1  0
  5  4  1  0
  5  6  1  0
  7  6  1  0
  8  9  2  0
  8  2  1  0
 10 11  1  0
 11 12  1  0
 12 13  1  0
 14 13  1  1
 14 15  1  0
 15  8  1  0
 16 14  1  0
 17 16  2  0
 18 19  1  0
 20 19  1  0
 22 21  1  1
 21 20  1  0
 22 23  1  0
 23 16  1  0
 24 26  1  0
 24 22  1  0
 25 24  2  0
M  END
$$$$
