GNQ.pdb
     RDKit          3D

 22 21  0  0  1  0  0  0  0  0999 V2000
   10.9996  -25.3497   24.0033 N   0  0  0  0  0  0  0  0  0  0  0  0
   10.3516  -24.5346   25.0090 C   0  0  0  0  0  0  0  0  0  0  0  0
   11.3753  -23.8145   25.7947 C   0  0  0  0  0  0  0  0  0  0  0  0
   12.2866  -24.4604   26.3834 O   0  0  0  0  0  0  0  0  0  0  0  0
   13.8984  -21.3157   24.2826 N   0  0  0  0  0  0  0  0  0  0  0  0
   13.1996  -20.2137   24.9166 C   0  0  0  0  0  0  0  0  0  0  0  0
   13.2954  -19.1414   24.3053 O   0  0  0  0  0  0  0  0  0  0  0  0
   12.4738  -20.3872   26.1398 C   0  0  0  0  0  0  0  0  0  0  0  0
   12.3939  -21.7593   26.7720 C   0  0  2  0  0  0  0  0  0  0  0  0
   11.3718  -22.4186   25.9120 N   0  0  0  0  0  0  0  0  0  0  0  0
   11.9372  -21.7727   28.1615 C   0  0  0  0  0  0  0  0  0  0  0  0
   10.7255  -21.3924   28.3682 O   0  0  0  0  0  0  0  0  0  0  0  0
   14.3322  -25.4592   33.0204 N   0  0  0  0  0  0  0  0  0  0  0  0
   14.4654  -24.0803   32.7254 C   0  0  0  0  0  0  0  0  0  0  0  0
   14.9502  -23.2817   33.5611 O   0  0  0  0  0  0  0  0  0  0  0  0
   14.0240  -23.5727   31.4071 C   0  0  0  0  0  0  0  0  0  0  0  0
   12.5399  -23.4858   31.3820 C   0  0  0  0  0  0  0  0  0  0  0  0
   12.0149  -22.2952   30.6264 C   0  0  2  0  0  0  0  0  0  0  0  0
   12.6428  -22.1533   29.3179 N   0  0  0  0  0  0  0  0  0  0  0  0
   12.2738  -21.0546   31.3870 C   0  0  0  0  0  0  0  0  0  0  0  0
   13.0498  -20.1666   30.9918 O   0  0  0  0  0  0  0  0  0  0  0  0
   11.6437  -20.8130   32.6162 O   0  0  0  0  0  0  0  0  0  0  0  0
  2  3  1  0
  2  1  1  0
  3  4  2  0
  5  6  1  0
  6  7  2  0
  6  8  1  0
  9  8  1  6
  9 11  1  0
 10  9  1  0
 10  3  1  0
 11 19  1  0
 11 12  2  0
 13 14  1  0
 14 16  1  0
 15 14  2  0
 17 16  1  0
 18 17  1  1
 19 18  1  0
 20 22  1  0
 20 18  1  0
 21 20  2  0
M  END
$$$$
