GNQ.pdb
     RDKit          3D

 22 21  0  0  1  0  0  0  0  0999 V2000
    4.5819  -19.9090   20.5101 N   0  0  0  0  0  0  0  0  0  0  0  0
    4.2921  -18.5176   20.7851 C   0  0  0  0  0  0  0  0  0  0  0  0
    5.5566  -17.7838   21.0008 C   0  0  0  0  0  0  0  0  0  0  0  0
    6.6529  -18.4099   21.0167 O   0  0  0  0  0  0  0  0  0  0  0  0
    9.0487  -13.7303   21.2962 N   0  0  0  0  0  0  0  0  0  0  0  0
    7.8373  -13.5485   20.5191 C   0  0  0  0  0  0  0  0  0  0  0  0
    7.8400  -12.5284   19.8177 O   0  0  0  0  0  0  0  0  0  0  0  0
    6.7553  -14.4859   20.5820 C   0  0  0  0  0  0  0  0  0  0  0  0
    6.8887  -15.7230   21.4425 C   0  0  2  0  0  0  0  0  0  0  0  0
    5.5838  -16.3963   21.1910 N   0  0  0  0  0  0  0  0  0  0  0  0
    7.0311  -15.4656   22.8753 C   0  0  0  0  0  0  0  0  0  0  0  0
    5.9885  -15.0170   23.4814 O   0  0  0  0  0  0  0  0  0  0  0  0
    6.1691  -19.6319   25.1745 N   0  0  0  0  0  0  0  0  0  0  0  0
    7.1938  -19.4018   26.1247 C   0  0  0  0  0  0  0  0  0  0  0  0
    7.3783  -20.1880   27.0835 O   0  0  0  0  0  0  0  0  0  0  0  0
    8.0624  -18.2119   25.9839 C   0  0  0  0  0  0  0  0  0  0  0  0
    7.2550  -17.0655   25.4893 C   0  0  0  0  0  0  0  0  0  0  0  0
    8.0746  -15.8538   25.1369 C   0  0  2  0  0  0  0  0  0  0  0  0
    8.1596  -15.6472   23.6959 N   0  0  0  0  0  0  0  0  0  0  0  0
    9.4518  -16.0029   25.6525 C   0  0  0  0  0  0  0  0  0  0  0  0
   10.4256  -16.2558   24.9214 O   0  0  0  0  0  0  0  0  0  0  0  0
    9.7333  -15.8629   27.0191 O   0  0  0  0  0  0  0  0  0  0  0  0
  2  3  1  0
  2  1  1  0
  3  4  2  0
  5  6  1  0
  6  7  2  0
  6  8  1  0
  9  8  1  6
  9 11  1  0
 10  9  1  0
 10  3  1  0
 11 19  1  0
 11 12  2  0
 13 14  1  0
 14 16  1  0
 15 14  2  0
 17 16  1  0
 18 17  1  6
 19 18  1  0
 20 22  1  0
 20 18  1  0
 21 20  2  0
M  END
$$$$
