GNQ.pdb
     RDKit          3D

 22 21  0  0  1  0  0  0  0  0999 V2000
    6.3338  -19.7078   21.9186 N   0  0  0  0  0  0  0  0  0  0  0  0
    5.8522  -18.3645   22.1620 C   0  0  0  0  0  0  0  0  0  0  0  0
    6.8878  -17.3893   21.7618 C   0  0  0  0  0  0  0  0  0  0  0  0
    8.0782  -17.7715   21.5862 O   0  0  0  0  0  0  0  0  0  0  0  0
    8.5967  -13.0718   18.8913 N   0  0  0  0  0  0  0  0  0  0  0  0
    7.7163  -12.8749   20.0274 C   0  0  0  0  0  0  0  0  0  0  0  0
    7.6797  -11.7071   20.4367 O   0  0  0  0  0  0  0  0  0  0  0  0
    6.9713  -13.9575   20.5984 C   0  0  0  0  0  0  0  0  0  0  0  0
    7.7041  -15.0787   21.3018 C   0  0  2  0  0  0  0  0  0  0  0  0
    6.5921  -16.0340   21.5665 N   0  0  0  0  0  0  0  0  0  0  0  0
    8.3324  -14.7057   22.5689 C   0  0  0  0  0  0  0  0  0  0  0  0
    9.1888  -13.7466   22.5212 O   0  0  0  0  0  0  0  0  0  0  0  0
    6.9922  -11.0976   26.4956 N   0  0  0  0  0  0  0  0  0  0  0  0
    6.3366  -12.3508   26.5715 C   0  0  0  0  0  0  0  0  0  0  0  0
    5.4186  -12.5539   27.4005 O   0  0  0  0  0  0  0  0  0  0  0  0
    6.7426  -13.4405   25.6561 C   0  0  0  0  0  0  0  0  0  0  0  0
    8.2217  -13.4341   25.5043 C   0  0  0  0  0  0  0  0  0  0  0  0
    8.7901  -14.7502   25.0473 C   0  0  2  0  0  0  0  0  0  0  0  0
    8.1255  -15.2504   23.8496 N   0  0  0  0  0  0  0  0  0  0  0  0
    8.6337  -15.7681   26.1076 C   0  0  0  0  0  0  0  0  0  0  0  0
    9.1890  -15.6821   27.2171 O   0  0  0  0  0  0  0  0  0  0  0  0
    7.8347  -16.9035   25.9103 O   0  0  0  0  0  0  0  0  0  0  0  0
  2  3  1  0
  2  1  1  0
  3  4  2  0
  5  6  1  0
  6  7  2  0
  6  8  1  0
  9  8  1  1
  9 11  1  0
 10  9  1  0
 10  3  1  0
 11 19  1  0
 11 12  2  0
 13 14  1  0
 14 16  1  0
 15 14  2  0
 17 16  1  0
 18 17  1  1
 19 18  1  0
 20 22  1  0
 20 18  1  0
 21 20  2  0
M  END
$$$$
