GNQ.pdb
     RDKit          3D

 22 21  0  0  1  0  0  0  0  0999 V2000
    8.6599  -19.1978   17.5163 N   0  0  0  0  0  0  0  0  0  0  0  0
    7.7924  -18.3041   18.2542 C   0  0  0  0  0  0  0  0  0  0  0  0
    8.5892  -17.1900   18.8090 C   0  0  0  0  0  0  0  0  0  0  0  0
    9.8503  -17.2476   18.7903 O   0  0  0  0  0  0  0  0  0  0  0  0
    8.2652  -13.7055   17.3151 N   0  0  0  0  0  0  0  0  0  0  0  0
    7.6353  -13.2092   18.5241 C   0  0  0  0  0  0  0  0  0  0  0  0
    6.8481  -12.2734   18.3312 O   0  0  0  0  0  0  0  0  0  0  0  0
    7.9222  -13.7753   19.8087 C   0  0  0  0  0  0  0  0  0  0  0  0
    8.8480  -14.9676   19.9091 C   0  0  2  0  0  0  0  0  0  0  0  0
    7.9865  -16.0536   19.3636 N   0  0  0  0  0  0  0  0  0  0  0  0
    9.2608  -15.3154   21.2685 C   0  0  0  0  0  0  0  0  0  0  0  0
    8.3159  -15.5400   22.1126 O   0  0  0  0  0  0  0  0  0  0  0  0
    9.6476  -20.0415   23.3882 N   0  0  0  0  0  0  0  0  0  0  0  0
   10.7575  -19.7992   22.5425 C   0  0  0  0  0  0  0  0  0  0  0  0
   11.3312  -20.7367   21.9398 O   0  0  0  0  0  0  0  0  0  0  0  0
   11.2497  -18.4145   22.3671 C   0  0  0  0  0  0  0  0  0  0  0  0
   10.4003  -17.4837   23.1564 C   0  0  0  0  0  0  0  0  0  0  0  0
   10.8463  -16.0483   23.0861 C   0  0  2  0  0  0  0  0  0  0  0  0
   10.5617  -15.4467   21.7886 N   0  0  0  0  0  0  0  0  0  0  0  0
   12.3036  -15.9560   23.3154 C   0  0  0  0  0  0  0  0  0  0  0  0
   12.8425  -16.2777   24.3891 O   0  0  0  0  0  0  0  0  0  0  0  0
   13.1672  -15.4923   22.3127 O   0  0  0  0  0  0  0  0  0  0  0  0
  2  3  1  0
  2  1  1  0
  3  4  2  0
  5  6  1  0
  6  7  2  0
  6  8  1  0
  9  8  1  1
  9 11  1  0
 10  9  1  0
 10  3  1  0
 11 19  1  0
 11 12  2  0
 13 14  1  0
 14 16  1  0
 15 14  2  0
 17 16  1  0
 18 17  1  6
 19 18  1  0
 20 22  1  0
 20 18  1  0
 21 20  2  0
M  END
$$$$
