GNQ.pdb
     RDKit          3D

 22 21  0  0  1  0  0  0  0  0999 V2000
    4.6014  -18.8185   20.5247 N   0  0  0  0  0  0  0  0  0  0  0  0
    4.4999  -17.5106   21.1371 C   0  0  0  0  0  0  0  0  0  0  0  0
    5.8545  -16.9607   21.3527 C   0  0  0  0  0  0  0  0  0  0  0  0
    6.8455  -17.7394   21.4277 O   0  0  0  0  0  0  0  0  0  0  0  0
    6.9888  -12.3942   19.2994 N   0  0  0  0  0  0  0  0  0  0  0  0
    7.7202  -13.3915   20.0578 C   0  0  0  0  0  0  0  0  0  0  0  0
    8.6173  -13.9518   19.4144 O   0  0  0  0  0  0  0  0  0  0  0  0
    7.4054  -13.6761   21.4264 C   0  0  0  0  0  0  0  0  0  0  0  0
    7.4254  -15.1078   21.9147 C   0  0  2  0  0  0  0  0  0  0  0  0
    6.0831  -15.5844   21.4785 N   0  0  0  0  0  0  0  0  0  0  0  0
    7.5458  -15.2638   23.3640 C   0  0  0  0  0  0  0  0  0  0  0  0
    6.6579  -14.6663   24.0785 O   0  0  0  0  0  0  0  0  0  0  0  0
    6.5593  -19.3130   27.2239 N   0  0  0  0  0  0  0  0  0  0  0  0
    7.0177  -19.4896   25.8955 C   0  0  0  0  0  0  0  0  0  0  0  0
    6.8457  -20.5725   25.2880 O   0  0  0  0  0  0  0  0  0  0  0  0
    7.7128  -18.3760   25.2119 C   0  0  0  0  0  0  0  0  0  0  0  0
    7.7336  -17.1850   26.1018 C   0  0  0  0  0  0  0  0  0  0  0  0
    8.5304  -16.0323   25.5536 C   0  0  2  0  0  0  0  0  0  0  0  0
    8.5039  -15.9889   24.0963 N   0  0  0  0  0  0  0  0  0  0  0  0
    9.9427  -16.1433   25.9752 C   0  0  0  0  0  0  0  0  0  0  0  0
   10.8868  -16.2196   25.1692 O   0  0  0  0  0  0  0  0  0  0  0  0
   10.2942  -16.1677   27.3325 O   0  0  0  0  0  0  0  0  0  0  0  0
  2  3  1  0
  2  1  1  0
  3  4  2  0
  5  6  1  0
  6  7  2  0
  6  8  1  0
  9  8  1  1
  9 11  1  0
 10  9  1  0
 10  3  1  0
 11 19  1  0
 11 12  2  0
 13 14  1  0
 14 16  1  0
 15 14  2  0
 17 16  1  0
 18 17  1  6
 19 18  1  0
 20 22  1  0
 20 18  1  0
 21 20  2  0
M  END
$$$$
