GNQ.pdb
     RDKit          3D

 22 21  0  0  1  0  0  0  0  0999 V2000
   13.3701  -16.0424   13.9276 N   0  0  0  0  0  0  0  0  0  0  0  0
   13.5621  -15.0621   14.9754 C   0  0  0  0  0  0  0  0  0  0  0  0
   14.8545  -15.3068   15.6488 C   0  0  0  0  0  0  0  0  0  0  0  0
   15.5445  -16.3176   15.3386 O   0  0  0  0  0  0  0  0  0  0  0  0
   17.4272  -11.2783   16.6192 N   0  0  0  0  0  0  0  0  0  0  0  0
   17.7701  -12.6760   16.8025 C   0  0  0  0  0  0  0  0  0  0  0  0
   18.6553  -13.0795   16.0368 O   0  0  0  0  0  0  0  0  0  0  0  0
   17.1221  -13.4863   17.7907 C   0  0  0  0  0  0  0  0  0  0  0  0
   16.5661  -14.8379   17.4002 C   0  0  2  0  0  0  0  0  0  0  0  0
   15.3503  -14.4440   16.6347 N   0  0  0  0  0  0  0  0  0  0  0  0
   16.1752  -15.6918   18.5216 C   0  0  0  0  0  0  0  0  0  0  0  0
   17.1290  -16.1272   19.2675 O   0  0  0  0  0  0  0  0  0  0  0  0
   11.6237  -20.8680   21.1667 N   0  0  0  0  0  0  0  0  0  0  0  0
   12.0980  -19.8640   20.2875 C   0  0  0  0  0  0  0  0  0  0  0  0
   11.5904  -19.7022   19.1529 O   0  0  0  0  0  0  0  0  0  0  0  0
   13.2134  -18.9904   20.7154 C   0  0  0  0  0  0  0  0  0  0  0  0
   13.5081  -18.0032   19.6433 C   0  0  0  0  0  0  0  0  0  0  0  0
   14.6435  -17.0721   19.9717 C   0  0  2  0  0  0  0  0  0  0  0  0
   14.8868  -16.1045   18.9083 N   0  0  0  0  0  0  0  0  0  0  0  0
   15.8897  -17.8405   20.1751 C   0  0  0  0  0  0  0  0  0  0  0  0
   16.7425  -17.9974   19.2835 O   0  0  0  0  0  0  0  0  0  0  0  0
   16.1774  -18.4419   21.4088 O   0  0  0  0  0  0  0  0  0  0  0  0
  2  3  1  0
  2  1  1  0
  3  4  2  0
  5  6  1  0
  6  7  2  0
  6  8  1  0
  9  8  1  1
  9 11  1  0
 10  9  1  0
 10  3  1  0
 11 19  1  0
 11 12  2  0
 13 14  1  0
 14 16  1  0
 15 14  2  0
 17 16  1  0
 18 17  1  6
 19 18  1  0
 20 22  1  0
 20 18  1  0
 21 20  2  0
M  END
$$$$
