GNQ.pdb
     RDKit          3D

 22 21  0  0  1  0  0  0  0  0999 V2000
    3.6499  -18.9727   20.9917 N   0  0  0  0  0  0  0  0  0  0  0  0
    3.6749  -17.5318   21.1295 C   0  0  0  0  0  0  0  0  0  0  0  0
    5.0748  -17.0588   21.1093 C   0  0  0  0  0  0  0  0  0  0  0  0
    6.0193  -17.8914   21.0161 O   0  0  0  0  0  0  0  0  0  0  0  0
    7.8963  -11.8718   19.6320 N   0  0  0  0  0  0  0  0  0  0  0  0
    7.9076  -13.2809   19.9769 C   0  0  0  0  0  0  0  0  0  0  0  0
    9.0229  -13.8104   19.8850 O   0  0  0  0  0  0  0  0  0  0  0  0
    6.7164  -13.9655   20.3835 C   0  0  0  0  0  0  0  0  0  0  0  0
    6.8267  -15.2846   21.1159 C   0  0  2  0  0  0  0  0  0  0  0  0
    5.3974  -15.6981   21.1906 N   0  0  0  0  0  0  0  0  0  0  0  0
    7.3750  -15.1952   22.4689 C   0  0  0  0  0  0  0  0  0  0  0  0
    6.6202  -14.6485   23.3561 O   0  0  0  0  0  0  0  0  0  0  0  0
    9.0395  -18.6807   27.9484 N   0  0  0  0  0  0  0  0  0  0  0  0
    8.1714  -18.3065   26.8937 C   0  0  0  0  0  0  0  0  0  0  0  0
    6.9275  -18.2983   27.0488 O   0  0  0  0  0  0  0  0  0  0  0  0
    8.7425  -17.9186   25.5846 C   0  0  0  0  0  0  0  0  0  0  0  0
    8.0432  -16.7079   25.0788 C   0  0  0  0  0  0  0  0  0  0  0  0
    8.9465  -15.7405   24.3629 C   0  0  2  0  0  0  0  0  0  0  0  0
    8.6245  -15.6336   22.9447 N   0  0  0  0  0  0  0  0  0  0  0  0
   10.3533  -16.1802   24.4734 C   0  0  0  0  0  0  0  0  0  0  0  0
   10.9753  -16.7052   23.5330 O   0  0  0  0  0  0  0  0  0  0  0  0
   11.0703  -16.0230   25.6683 O   0  0  0  0  0  0  0  0  0  0  0  0
  2  3  1  0
  2  1  1  0
  3  4  2  0
  5  6  1  0
  6  7  2  0
  6  8  1  0
  9  8  1  1
  9 11  1  0
 10  9  1  0
 10  3  1  0
 11 19  1  0
 11 12  2  0
 13 14  1  0
 14 16  1  0
 15 14  2  0
 17 16  1  0
 18 17  1  6
 19 18  1  0
 20 22  1  0
 20 18  1  0
 21 20  2  0
M  END
$$$$
