CSW.pdb
     RDKit          3D

 27 28  0  0  1  0  0  0  0  0999 V2000
    8.4740  -13.0145   18.0807 N   0  0  0  0  0  0  0  0  0  0  0  0
    8.8516  -14.3795   18.3143 C   0  0  1  0  0  0  0  0  0  0  0  0
   10.3826  -14.4614   18.2962 C   0  0  0  0  0  0  0  0  0  0  0  0
   11.0467  -13.1533   19.3730 S   0  0  0  0  0  0  0  0  0  0  0  0
    8.3523  -14.8424   19.6308 C   0  0  0  0  0  0  0  0  0  0  0  0
    8.2313  -13.9792   20.5596 O   0  0  0  0  0  0  0  0  0  0  0  0
    8.0644  -18.8151   20.7876 O   0  0  0  0  0  0  0  0  0  0  0  0
    7.1004  -17.9645   21.2776 C   0  0  0  0  0  0  0  0  0  0  0  0
    7.6404  -16.5518   21.2671 C   0  0  2  0  0  0  0  0  0  0  0  0
    8.0043  -16.1888   19.9096 N   0  0  0  0  0  0  0  0  0  0  0  0
    8.8074  -16.4762   22.1959 C   0  0  0  0  0  0  0  0  0  0  0  0
    9.9824  -16.4210   21.7446 O   0  0  0  0  0  0  0  0  0  0  0  0
    8.5941  -16.4667   23.5771 N   0  0  0  0  0  0  0  0  0  0  0  0
    9.7099  -16.3250   24.5308 C   0  0  1  0  0  0  0  0  0  0  0  0
    9.5727  -15.0176   25.2139 C   0  0  0  0  0  0  0  0  0  0  0  0
    8.2479  -14.7024   25.7301 C   0  0  0  0  0  0  0  0  0  0  0  0
    7.2384  -15.6119   26.0302 C   0  0  0  0  0  0  0  0  0  0  0  0
    6.1645  -14.9421   26.4463 N   0  0  0  0  0  0  0  0  0  0  0  0
    6.4263  -13.6337   26.4326 C   0  0  0  0  0  0  0  0  0  0  0  0
    5.6154  -12.5532   26.7980 C   0  0  0  0  0  0  0  0  0  0  0  0
    6.1078  -11.2892   26.7189 C   0  0  0  0  0  0  0  0  0  0  0  0
    7.4031  -11.0952   26.2780 C   0  0  0  0  0  0  0  0  0  0  0  0
    8.2132  -12.1457   25.9146 C   0  0  0  0  0  0  0  0  0  0  0  0
    7.7179  -13.4506   25.9909 C   0  0  0  0  0  0  0  0  0  0  0  0
    9.8197  -17.5108   25.3705 C   0  0  0  0  0  0  0  0  0  0  0  0
    8.9589  -18.4138   25.4563 O   0  0  0  0  0  0  0  0  0  0  0  0
   10.9749  -17.6733   26.1549 O   0  0  0  0  0  0  0  0  0  0  0  0
  2  1  1  1
  3  2  1  0
  3  4  1  0
  5  6  2  0
  5  2  1  0
  7  8  1  0
  9  8  1  6
  9 10  1  0
 10  5  1  0
 11 13  1  0
 11  9  1  0
 12 11  2  0
 14 13  1  0
 14 25  1  0
 14 15  1  1
 16 24  1  0
 16 15  1  0
 17 16  2  0
 18 17  1  0
 18 19  1  0
 19 24  2  0
 20 19  1  0
 20 21  2  0
 21 22  1  0
 22 23  2  0
 24 23  1  0
 25 27  1  0
 26 25  2  0
M  END
$$$$
