CSW.pdb
     RDKit          3D

 27 28  0  0  1  0  0  0  0  0999 V2000
    7.4400  -14.7501   17.5001 N   0  0  0  0  0  0  0  0  0  0  0  0
    8.4223  -14.3926   18.4838 C   0  0  1  0  0  0  0  0  0  0  0  0
    8.0638  -13.0076   19.0354 C   0  0  0  0  0  0  0  0  0  0  0  0
    9.2273  -12.5964   20.3728 S   0  0  0  0  0  0  0  0  0  0  0  0
    8.4318  -15.3741   19.5944 C   0  0  0  0  0  0  0  0  0  0  0  0
    7.3101  -15.7666   20.0528 O   0  0  0  0  0  0  0  0  0  0  0  0
   11.6239  -17.7337   20.7642 O   0  0  0  0  0  0  0  0  0  0  0  0
   10.3045  -18.0829   20.9385 C   0  0  0  0  0  0  0  0  0  0  0  0
    9.5069  -16.8408   21.2675 C   0  0  2  0  0  0  0  0  0  0  0  0
    9.6178  -15.8965   20.1707 N   0  0  0  0  0  0  0  0  0  0  0  0
   10.0156  -16.2681   22.5494 C   0  0  0  0  0  0  0  0  0  0  0  0
   10.7735  -15.2617   22.5449 O   0  0  0  0  0  0  0  0  0  0  0  0
    9.6479  -16.8536   23.7640 N   0  0  0  0  0  0  0  0  0  0  0  0
   10.1288  -16.3251   25.0540 C   0  0  1  0  0  0  0  0  0  0  0  0
    9.6957  -14.9129   25.1669 C   0  0  0  0  0  0  0  0  0  0  0  0
    8.3119  -14.6991   25.5676 C   0  0  0  0  0  0  0  0  0  0  0  0
    7.2992  -15.6533   25.5884 C   0  0  0  0  0  0  0  0  0  0  0  0
    6.1668  -15.0713   25.9806 N   0  0  0  0  0  0  0  0  0  0  0  0
    6.3931  -13.7780   26.2184 C   0  0  0  0  0  0  0  0  0  0  0  0
    5.5166  -12.7809   26.6612 C   0  0  0  0  0  0  0  0  0  0  0  0
    5.9807  -11.5186   26.8550 C   0  0  0  0  0  0  0  0  0  0  0  0
    7.3127  -11.2437   26.6101 C   0  0  0  0  0  0  0  0  0  0  0  0
    8.1874  -12.2114   26.1740 C   0  0  0  0  0  0  0  0  0  0  0  0
    7.7219  -13.5136   25.9704 C   0  0  0  0  0  0  0  0  0  0  0  0
    9.7688  -17.2248   26.1423 C   0  0  0  0  0  0  0  0  0  0  0  0
    9.0116  -18.2143   26.0370 O   0  0  0  0  0  0  0  0  0  0  0  0
   10.3023  -16.9802   27.4197 O   0  0  0  0  0  0  0  0  0  0  0  0
  2  1  1  6
  3  2  1  0
  3  4  1  0
  5  6  2  0
  5  2  1  0
  7  8  1  0
  9  8  1  6
  9 10  1  0
 10  5  1  0
 11 13  1  0
 11  9  1  0
 12 11  2  0
 14 13  1  0
 14 25  1  0
 14 15  1  1
 16 24  1  0
 16 15  1  0
 17 16  2  0
 18 17  1  0
 18 19  1  0
 19 24  2  0
 20 19  1  0
 20 21  2  0
 21 22  1  0
 22 23  2  0
 24 23  1  0
 25 27  1  0
 26 25  2  0
M  END
$$$$
