CSW.pdb
     RDKit          3D

 27 28  0  0  1  0  0  0  0  0999 V2000
    7.6660  -14.7967   17.1480 N   0  0  0  0  0  0  0  0  0  0  0  0
    8.6131  -14.2967   18.1037 C   0  0  1  0  0  0  0  0  0  0  0  0
    8.0199  -13.0398   18.7513 C   0  0  0  0  0  0  0  0  0  0  0  0
    9.1145  -12.5131   20.1063 S   0  0  0  0  0  0  0  0  0  0  0  0
    8.8806  -15.3082   19.1536 C   0  0  0  0  0  0  0  0  0  0  0  0
    7.8941  -15.9786   19.6006 O   0  0  0  0  0  0  0  0  0  0  0  0
   12.6354  -16.8848   20.5212 O   0  0  0  0  0  0  0  0  0  0  0  0
   11.4291  -17.5223   20.3438 C   0  0  0  0  0  0  0  0  0  0  0  0
   10.3124  -16.5742   20.7199 C   0  0  2  0  0  0  0  0  0  0  0  0
   10.1702  -15.5675   19.6839 N   0  0  0  0  0  0  0  0  0  0  0  0
   10.6240  -15.9668   22.0480 C   0  0  0  0  0  0  0  0  0  0  0  0
   11.1803  -14.8388   22.1215 O   0  0  0  0  0  0  0  0  0  0  0  0
   10.2959  -16.6555   23.2190 N   0  0  0  0  0  0  0  0  0  0  0  0
    9.6180  -15.9868   24.3452 C   0  0  1  0  0  0  0  0  0  0  0  0
    8.3656  -15.3796   23.8378 C   0  0  0  0  0  0  0  0  0  0  0  0
    7.4613  -14.8438   24.8459 C   0  0  0  0  0  0  0  0  0  0  0  0
    6.5356  -15.5642   25.5944 C   0  0  0  0  0  0  0  0  0  0  0  0
    5.8726  -14.7223   26.3860 N   0  0  0  0  0  0  0  0  0  0  0  0
    6.3238  -13.4820   26.1896 C   0  0  0  0  0  0  0  0  0  0  0  0
    5.9435  -12.2821   26.8012 C   0  0  0  0  0  0  0  0  0  0  0  0
    6.5643  -11.1253   26.4508 C   0  0  0  0  0  0  0  0  0  0  0  0
    7.5615  -11.1567   25.4947 C   0  0  0  0  0  0  0  0  0  0  0  0
    7.9472  -12.3269   24.8834 C   0  0  0  0  0  0  0  0  0  0  0  0
    7.3157  -13.5234   25.2349 C   0  0  0  0  0  0  0  0  0  0  0  0
    9.5113  -16.8871   25.4861 C   0  0  0  0  0  0  0  0  0  0  0  0
    9.2153  -18.1002   25.4201 O   0  0  0  0  0  0  0  0  0  0  0  0
    9.7552  -16.3732   26.7717 O   0  0  0  0  0  0  0  0  0  0  0  0
  2  1  1  6
  3  2  1  0
  3  4  1  0
  5  6  2  0
  5  2  1  0
  7  8  1  0
  9  8  1  6
  9 10  1  0
 10  5  1  0
 11 13  1  0
 11  9  1  0
 12 11  2  0
 14 13  1  0
 14 25  1  0
 14 15  1  6
 16 24  1  0
 16 15  1  0
 17 16  2  0
 18 17  1  0
 18 19  1  0
 19 24  2  0
 20 19  1  0
 20 21  2  0
 21 22  1  0
 22 23  2  0
 24 23  1  0
 25 27  1  0
 26 25  2  0
M  END
$$$$
