CSW.pdb
     RDKit          3D

 27 28  0  0  1  0  0  0  0  0999 V2000
   10.0313  -19.4508   19.0547 N   0  0  0  0  0  0  0  0  0  0  0  0
    9.3258  -19.1197   20.2601 C   0  0  1  0  0  0  0  0  0  0  0  0
   10.0068  -19.8451   21.4267 C   0  0  0  0  0  0  0  0  0  0  0  0
    9.2491  -21.4895   21.6095 S   0  0  0  0  0  0  0  0  0  0  0  0
    9.3638  -17.6581   20.5037 C   0  0  0  0  0  0  0  0  0  0  0  0
   10.3913  -17.0150   20.1125 O   0  0  0  0  0  0  0  0  0  0  0  0
    6.2133  -15.5783   21.9344 O   0  0  0  0  0  0  0  0  0  0  0  0
    7.1749  -14.8204   21.3067 C   0  0  0  0  0  0  0  0  0  0  0  0
    8.5072  -15.5277   21.4168 C   0  0  2  0  0  0  0  0  0  0  0  0
    8.3219  -16.9417   21.1462 N   0  0  0  0  0  0  0  0  0  0  0  0
    9.0667  -15.2900   22.7808 C   0  0  0  0  0  0  0  0  0  0  0  0
    9.3362  -14.1216   23.1677 O   0  0  0  0  0  0  0  0  0  0  0  0
    9.2934  -16.3727   23.6349 N   0  0  0  0  0  0  0  0  0  0  0  0
    9.9860  -16.2069   24.9263 C   0  0  1  0  0  0  0  0  0  0  0  0
    9.0040  -16.4352   26.0117 C   0  0  0  0  0  0  0  0  0  0  0  0
    7.8484  -15.5489   26.0246 C   0  0  0  0  0  0  0  0  0  0  0  0
    6.5355  -15.8960   25.7211 C   0  0  0  0  0  0  0  0  0  0  0  0
    5.7704  -14.8092   25.8122 N   0  0  0  0  0  0  0  0  0  0  0  0
    6.5241  -13.7654   26.1627 C   0  0  0  0  0  0  0  0  0  0  0  0
    6.1605  -12.4336   26.3923 C   0  0  0  0  0  0  0  0  0  0  0  0
    7.1091  -11.5348   26.7647 C   0  0  0  0  0  0  0  0  0  0  0  0
    8.4176  -11.9547   26.9097 C   0  0  0  0  0  0  0  0  0  0  0  0
    8.7922  -13.2594   26.6876 C   0  0  0  0  0  0  0  0  0  0  0  0
    7.8257  -14.1933   26.3034 C   0  0  0  0  0  0  0  0  0  0  0  0
   11.2112  -16.9954   24.9552 C   0  0  0  0  0  0  0  0  0  0  0  0
   12.0508  -16.9863   25.8818 O   0  0  0  0  0  0  0  0  0  0  0  0
   11.4923  -17.8391   23.8665 O   0  0  0  0  0  0  0  0  0  0  0  0
  2  1  1  6
  3  2  1  0
  3  4  1  0
  5  6  2  0
  5  2  1  0
  7  8  1  0
  9  8  1  1
  9 10  1  0
 10  5  1  0
 11 13  1  0
 11  9  1  0
 12 11  2  0
 14 13  1  0
 14 25  1  0
 14 15  1  1
 16 24  1  0
 16 15  1  0
 17 16  2  0
 18 17  1  0
 18 19  1  0
 19 24  2  0
 20 19  1  0
 20 21  2  0
 21 22  1  0
 22 23  2  0
 24 23  1  0
 25 27  1  0
 26 25  2  0
M  END
$$$$
