CSW.pdb
     RDKit          3D

 27 28  0  0  1  0  0  0  0  0999 V2000
    7.5132  -13.6665   17.4987 N   0  0  0  0  0  0  0  0  0  0  0  0
    8.6343  -13.8974   18.3650 C   0  0  1  0  0  0  0  0  0  0  0  0
    9.0914  -12.5453   18.9252 C   0  0  0  0  0  0  0  0  0  0  0  0
   10.5473  -12.8173   19.9826 S   0  0  0  0  0  0  0  0  0  0  0  0
    8.2537  -14.7884   19.4867 C   0  0  0  0  0  0  0  0  0  0  0  0
    7.2299  -14.4746   20.1764 O   0  0  0  0  0  0  0  0  0  0  0  0
    9.8466  -18.5185   20.2823 O   0  0  0  0  0  0  0  0  0  0  0  0
    8.6142  -18.1610   20.7787 C   0  0  0  0  0  0  0  0  0  0  0  0
    8.6054  -16.6725   21.0465 C   0  0  2  0  0  0  0  0  0  0  0  0
    8.9659  -15.9656   19.8310 N   0  0  0  0  0  0  0  0  0  0  0  0
    9.5523  -16.3791   22.1633 C   0  0  0  0  0  0  0  0  0  0  0  0
   10.7703  -16.1583   21.9288 O   0  0  0  0  0  0  0  0  0  0  0  0
    9.0833  -16.3496   23.4795 N   0  0  0  0  0  0  0  0  0  0  0  0
    9.9985  -16.1752   24.6227 C   0  0  1  0  0  0  0  0  0  0  0  0
    9.6694  -14.8936   25.2887 C   0  0  0  0  0  0  0  0  0  0  0  0
    8.2529  -14.6277   25.4981 C   0  0  0  0  0  0  0  0  0  0  0  0
    7.2156  -15.5512   25.4119 C   0  0  0  0  0  0  0  0  0  0  0  0
    6.0612  -14.9250   25.6357 N   0  0  0  0  0  0  0  0  0  0  0  0
    6.2966  -13.6318   25.8655 C   0  0  0  0  0  0  0  0  0  0  0  0
    5.4028  -12.5965   26.1617 C   0  0  0  0  0  0  0  0  0  0  0  0
    5.8785  -11.3425   26.3799 C   0  0  0  0  0  0  0  0  0  0  0  0
    7.2393  -11.1137   26.3046 C   0  0  0  0  0  0  0  0  0  0  0  0
    8.1314  -12.1194   26.0141 C   0  0  0  0  0  0  0  0  0  0  0  0
    7.6542  -13.4136   25.7871 C   0  0  0  0  0  0  0  0  0  0  0  0
   10.0180  -17.3743   25.4506 C   0  0  0  0  0  0  0  0  0  0  0  0
   10.8177  -17.5885   26.3877 O   0  0  0  0  0  0  0  0  0  0  0  0
    9.0733  -18.3830   25.1934 O   0  0  0  0  0  0  0  0  0  0  0  0
  2  1  1  6
  3  2  1  0
  3  4  1  0
  5  6  2  0
  5  2  1  0
  7  8  1  0
  9  8  1  6
  9 10  1  0
 10  5  1  0
 11 13  1  0
 11  9  1  0
 12 11  2  0
 14 13  1  0
 14 25  1  0
 14 15  1  1
 16 24  1  0
 16 15  1  0
 17 16  2  0
 18 17  1  0
 18 19  1  0
 19 24  2  0
 20 19  1  0
 20 21  2  0
 21 22  1  0
 22 23  2  0
 24 23  1  0
 25 27  1  0
 26 25  2  0
M  END
$$$$
