CSW.pdb
     RDKit          3D

 27 28  0  0  1  0  0  0  0  0999 V2000
    7.0124  -14.6446   18.6478 N   0  0  0  0  0  0  0  0  0  0  0  0
    8.2765  -14.4705   19.3051 C   0  0  1  0  0  0  0  0  0  0  0  0
    8.2857  -13.0859   19.9637 C   0  0  0  0  0  0  0  0  0  0  0  0
    8.6641  -11.8406   18.6919 S   0  0  0  0  0  0  0  0  0  0  0  0
    8.4725  -15.5083   20.3451 C   0  0  0  0  0  0  0  0  0  0  0  0
    7.4942  -15.7708   21.1172 O   0  0  0  0  0  0  0  0  0  0  0  0
   11.9492  -17.7160   20.8714 O   0  0  0  0  0  0  0  0  0  0  0  0
   10.7424  -18.2834   21.2103 C   0  0  0  0  0  0  0  0  0  0  0  0
    9.7775  -17.1873   21.6038 C   0  0  2  0  0  0  0  0  0  0  0  0
    9.6857  -16.2206   20.5249 N   0  0  0  0  0  0  0  0  0  0  0  0
   10.2525  -16.5614   22.8738 C   0  0  0  0  0  0  0  0  0  0  0  0
   10.9723  -15.5277   22.8481 O   0  0  0  0  0  0  0  0  0  0  0  0
    9.8957  -17.1274   24.1008 N   0  0  0  0  0  0  0  0  0  0  0  0
   10.2468  -16.4838   25.3804 C   0  0  1  0  0  0  0  0  0  0  0  0
    9.8116  -15.0689   25.3223 C   0  0  0  0  0  0  0  0  0  0  0  0
    8.3739  -14.8404   25.3635 C   0  0  0  0  0  0  0  0  0  0  0  0
    7.3786  -15.7843   25.1291 C   0  0  0  0  0  0  0  0  0  0  0  0
    6.1900  -15.1902   25.2252 N   0  0  0  0  0  0  0  0  0  0  0  0
    6.3627  -13.8987   25.5129 C   0  0  0  0  0  0  0  0  0  0  0  0
    5.4134  -12.8920   25.7225 C   0  0  0  0  0  0  0  0  0  0  0  0
    5.8270  -11.6340   26.0272 C   0  0  0  0  0  0  0  0  0  0  0  0
    7.1806  -11.3730   26.1242 C   0  0  0  0  0  0  0  0  0  0  0  0
    8.1268  -12.3503   25.9208 C   0  0  0  0  0  0  0  0  0  0  0  0
    7.7138  -13.6482   25.6062 C   0  0  0  0  0  0  0  0  0  0  0  0
    9.7742  -17.2840   26.5028 C   0  0  0  0  0  0  0  0  0  0  0  0
    9.9475  -17.0043   27.7092 O   0  0  0  0  0  0  0  0  0  0  0  0
    9.0659  -18.4678   26.2320 O   0  0  0  0  0  0  0  0  0  0  0  0
  2  1  1  1
  3  2  1  0
  3  4  1  0
  5  6  2  0
  5  2  1  0
  7  8  1  0
  9  8  1  6
  9 10  1  0
 10  5  1  0
 11 13  1  0
 11  9  1  0
 12 11  2  0
 14 13  1  0
 14 25  1  0
 14 15  1  6
 16 24  1  0
 16 15  1  0
 17 16  2  0
 18 17  1  0
 18 19  1  0
 19 24  2  0
 20 19  1  0
 20 21  2  0
 21 22  1  0
 22 23  2  0
 24 23  1  0
 25 27  1  0
 26 25  2  0
M  END
$$$$
