CSW.pdb
     RDKit          3D

 27 28  0  0  1  0  0  0  0  0999 V2000
    5.4226  -20.3403   21.5261 N   0  0  0  0  0  0  0  0  0  0  0  0
    5.2269  -18.9359   21.7489 C   0  0  1  0  0  0  0  0  0  0  0  0
    4.7131  -18.7465   23.1811 C   0  0  0  0  0  0  0  0  0  0  0  0
    6.0156  -19.2698   24.3391 S   0  0  0  0  0  0  0  0  0  0  0  0
    6.5016  -18.1975   21.5847 C   0  0  0  0  0  0  0  0  0  0  0  0
    7.5883  -18.8538   21.6885 O   0  0  0  0  0  0  0  0  0  0  0  0
    6.5737  -14.3905   20.4326 O   0  0  0  0  0  0  0  0  0  0  0  0
    7.7989  -14.9984   20.2830 C   0  0  0  0  0  0  0  0  0  0  0  0
    7.8801  -16.1784   21.2255 C   0  0  2  0  0  0  0  0  0  0  0  0
    6.5747  -16.8061   21.3198 N   0  0  0  0  0  0  0  0  0  0  0  0
    8.3657  -15.7002   22.5542 C   0  0  0  0  0  0  0  0  0  0  0  0
    7.6440  -14.9553   23.2695 O   0  0  0  0  0  0  0  0  0  0  0  0
    9.6314  -16.0819   23.0077 N   0  0  0  0  0  0  0  0  0  0  0  0
   10.1926  -15.5565   24.2662 C   0  0  1  0  0  0  0  0  0  0  0  0
    9.3706  -16.0656   25.3885 C   0  0  0  0  0  0  0  0  0  0  0  0
    8.1044  -15.3824   25.6144 C   0  0  0  0  0  0  0  0  0  0  0  0
    6.8321  -15.9191   25.4428 C   0  0  0  0  0  0  0  0  0  0  0  0
    5.9277  -14.9797   25.7159 N   0  0  0  0  0  0  0  0  0  0  0  0
    6.5515  -13.8513   26.0595 C   0  0  0  0  0  0  0  0  0  0  0  0
    6.0210  -12.6140   26.4418 C   0  0  0  0  0  0  0  0  0  0  0  0
    6.8608  -11.5979   26.7715 C   0  0  0  0  0  0  0  0  0  0  0  0
    8.2259  -11.8071   26.7225 C   0  0  0  0  0  0  0  0  0  0  0  0
    8.7640  -13.0164   26.3486 C   0  0  0  0  0  0  0  0  0  0  0  0
    7.9105  -14.0692   26.0065 C   0  0  0  0  0  0  0  0  0  0  0  0
   11.6288  -15.7960   24.3257 C   0  0  0  0  0  0  0  0  0  0  0  0
   12.2354  -16.6916   23.6984 O   0  0  0  0  0  0  0  0  0  0  0  0
   12.4139  -14.9679   25.1468 O   0  0  0  0  0  0  0  0  0  0  0  0
  2  1  1  1
  3  2  1  0
  3  4  1  0
  5  6  2  0
  5  2  1  0
  7  8  1  0
  9  8  1  6
  9 10  1  0
 10  5  1  0
 11 13  1  0
 11  9  1  0
 12 11  2  0
 14 13  1  0
 14 25  1  0
 14 15  1  1
 16 24  1  0
 16 15  1  0
 17 16  2  0
 18 17  1  0
 18 19  1  0
 19 24  2  0
 20 19  1  0
 20 21  2  0
 21 22  1  0
 22 23  2  0
 24 23  1  0
 25 27  1  0
 26 25  2  0
M  END
$$$$
