CSW.pdb
     RDKit          3D

 27 28  0  0  1  0  0  0  0  0999 V2000
    7.8128  -15.1181   17.5634 N   0  0  0  0  0  0  0  0  0  0  0  0
    8.4839  -14.5870   18.7157 C   0  0  1  0  0  0  0  0  0  0  0  0
    7.6547  -13.4147   19.2534 C   0  0  0  0  0  0  0  0  0  0  0  0
    8.5004  -11.8611   18.8263 S   0  0  0  0  0  0  0  0  0  0  0  0
    8.6105  -15.6210   19.7701 C   0  0  0  0  0  0  0  0  0  0  0  0
    7.7907  -16.5956   19.7508 O   0  0  0  0  0  0  0  0  0  0  0  0
   11.0433  -18.1059   20.4701 O   0  0  0  0  0  0  0  0  0  0  0  0
    9.7691  -17.9861   20.9753 C   0  0  0  0  0  0  0  0  0  0  0  0
    9.6632  -16.6838   21.7370 C   0  0  2  0  0  0  0  0  0  0  0  0
    9.5911  -15.5826   20.7941 N   0  0  0  0  0  0  0  0  0  0  0  0
   10.8407  -16.5618   22.6472 C   0  0  0  0  0  0  0  0  0  0  0  0
   11.7673  -17.4148   22.6133 O   0  0  0  0  0  0  0  0  0  0  0  0
   10.9152  -15.4925   23.5441 N   0  0  0  0  0  0  0  0  0  0  0  0
    9.9670  -15.3565   24.6654 C   0  0  1  0  0  0  0  0  0  0  0  0
    8.6239  -15.0784   24.1057 C   0  0  0  0  0  0  0  0  0  0  0  0
    7.5989  -14.6928   25.0658 C   0  0  0  0  0  0  0  0  0  0  0  0
    6.5366  -15.4782   25.5028 C   0  0  0  0  0  0  0  0  0  0  0  0
    5.7972  -14.7681   26.3537 N   0  0  0  0  0  0  0  0  0  0  0  0
    6.3287  -13.5522   26.4939 C   0  0  0  0  0  0  0  0  0  0  0  0
    5.9123  -12.4776   27.2878 C   0  0  0  0  0  0  0  0  0  0  0  0
    6.6315  -11.3247   27.2855 C   0  0  0  0  0  0  0  0  0  0  0  0
    7.7628  -11.2359   26.4969 C   0  0  0  0  0  0  0  0  0  0  0  0
    8.1858  -12.2820   25.7104 C   0  0  0  0  0  0  0  0  0  0  0  0
    7.4541  -13.4731   25.7038 C   0  0  0  0  0  0  0  0  0  0  0  0
   10.0907  -16.4840   25.5803 C   0  0  0  0  0  0  0  0  0  0  0  0
    9.9418  -17.6851   25.2661 O   0  0  0  0  0  0  0  0  0  0  0  0
   10.4007  -16.2249   26.9268 O   0  0  0  0  0  0  0  0  0  0  0  0
  2  1  1  6
  3  2  1  0
  3  4  1  0
  5  6  2  0
  5  2  1  0
  7  8  1  0
  9  8  1  6
  9 10  1  0
 10  5  1  0
 11 13  1  0
 11  9  1  0
 12 11  2  0
 14 13  1  0
 14 25  1  0
 14 15  1  6
 16 24  1  0
 16 15  1  0
 17 16  2  0
 18 17  1  0
 18 19  1  0
 19 24  2  0
 20 19  1  0
 20 21  2  0
 21 22  1  0
 22 23  2  0
 24 23  1  0
 25 27  1  0
 26 25  2  0
M  END
$$$$
