FRN.pdb
     RDKit          3D

 31 31  0  0  1  0  0  0  0  0999 V2000
    6.1697  -16.9219   26.0102 N   0  0  0  0  0  0  0  0  0  0  0  0
    7.0274  -16.0833   25.2084 C   0  0  1  0  0  0  0  0  0  0  0  0
    8.0832  -15.3991   26.0782 C   0  0  0  0  0  0  0  0  0  0  0  0
    7.7163  -13.9817   26.2726 C   0  0  0  0  0  0  0  0  0  0  0  0
    8.5391  -12.9936   25.8246 C   0  0  0  0  0  0  0  0  0  0  0  0
    8.2202  -11.6553   25.9930 C   0  0  0  0  0  0  0  0  0  0  0  0
    7.0403  -11.3203   26.6302 C   0  0  0  0  0  0  0  0  0  0  0  0
    6.1842  -12.3178   27.0963 C   0  0  0  0  0  0  0  0  0  0  0  0
    6.5428  -13.6470   26.9063 C   0  0  0  0  0  0  0  0  0  0  0  0
    7.7746  -16.8702   24.1910 C   0  0  0  0  0  0  0  0  0  0  0  0
    7.9171  -18.1001   24.4038 O   0  0  0  0  0  0  0  0  0  0  0  0
    9.3084  -13.5915   18.5766 N   0  0  0  0  0  0  0  0  0  0  0  0
    8.4475  -12.7763   19.3553 C   0  0  0  0  0  0  0  0  0  0  0  0
    8.8239  -11.5714   19.6236 N   0  0  0  0  0  0  0  0  0  0  0  0
    7.2239  -13.3031   19.8052 N   0  0  0  0  0  0  0  0  0  0  0  0
    6.8741  -14.6718   19.4594 C   0  0  0  0  0  0  0  0  0  0  0  0
    7.0662  -15.5059   20.7087 C   0  0  0  0  0  0  0  0  0  0  0  0
    8.4351  -16.1334   20.6267 C   0  0  0  0  0  0  0  0  0  0  0  0
    8.5749  -17.0750   21.8080 C   0  0  2  0  0  0  0  0  0  0  0  0
    8.3249  -16.3233   23.0168 N   0  0  0  0  0  0  0  0  0  0  0  0
    9.9795  -17.5509   21.8343 C   0  0  0  0  0  0  0  0  0  0  0  0
   10.4385  -18.3188   20.9559 O   0  0  0  0  0  0  0  0  0  0  0  0
    8.2467  -10.9224   20.1972 N   0  0  0  0  0  0  0  0  0  0  0  0
   14.5402  -15.6530   21.8944 C   0  0  0  0  0  0  0  0  0  0  0  0
   13.4203  -15.0673   21.2021 O   0  0  0  0  0  0  0  0  0  0  0  0
   13.6539  -14.1968   20.3368 C   0  0  0  0  0  0  0  0  0  0  0  0
   12.0733  -15.5294   21.5564 C   0  0  2  0  0  0  0  0  0  0  0  0
   12.1600  -16.6462   22.5706 N   0  0  0  0  0  0  0  0  0  0  0  0
   10.8463  -17.1283   22.8884 C   0  0  0  0  0  0  0  0  0  0  0  0
   12.8066  -16.0997   23.8142 O   0  0  0  0  0  0  0  0  0  0  0  0
   12.0903  -15.9623   25.0026 O   0  0  0  0  0  0  0  0  0  0  0  0
  2  1  1  1
  2  3  1  0
  2 10  1  0
  3  4  1  0
  4  5  2  0
  5  6  1  0
  7  6  2  0
  8  7  1  0
  9  4  1  0
  9  8  2  0
 10 11  2  0
 10 20  1  0
 13 15  1  0
 13 12  1  0
 14 13  2  0
 16 15  1  0
 16 17  1  0
 18 17  1  0
 19 18  1  6
 20 19  1  0
 21 19  1  0
 21 22  2  0
 24 23  1  0
 24 26  1  0
 25 24  2  0
 27 26  1  6
 27 28  1  0
 28 21  1  0
 29 27  1  0
 30 29  1  0
 31 29  2  0
M  END
$$$$
