FRN.pdb
     RDKit          3D

 31 31  0  0  1  0  0  0  0  0999 V2000
    6.3046  -16.5351   25.5110 N   0  0  0  0  0  0  0  0  0  0  0  0
    6.9413  -15.5265   24.6991 C   0  0  1  0  0  0  0  0  0  0  0  0
    8.0463  -14.8173   25.4835 C   0  0  0  0  0  0  0  0  0  0  0  0
    7.4974  -13.5995   26.1137 C   0  0  0  0  0  0  0  0  0  0  0  0
    6.1773  -13.2943   25.9790 C   0  0  0  0  0  0  0  0  0  0  0  0
    5.6349  -12.1584   26.5594 C   0  0  0  0  0  0  0  0  0  0  0  0
    6.4552  -11.3198   27.2902 C   0  0  0  0  0  0  0  0  0  0  0  0
    7.8100  -11.6150   27.4397 C   0  0  0  0  0  0  0  0  0  0  0  0
    8.3123  -12.7642   26.8410 C   0  0  0  0  0  0  0  0  0  0  0  0
    7.5959  -16.1151   23.5001 C   0  0  0  0  0  0  0  0  0  0  0  0
    7.8027  -17.3543   23.5059 O   0  0  0  0  0  0  0  0  0  0  0  0
    8.6516  -14.1866   15.6636 N   0  0  0  0  0  0  0  0  0  0  0  0
    9.0111  -13.7907   16.9774 C   0  0  0  0  0  0  0  0  0  0  0  0
   10.2310  -13.4298   17.1948 N   0  0  0  0  0  0  0  0  0  0  0  0
    8.0359  -13.8048   17.9901 N   0  0  0  0  0  0  0  0  0  0  0  0
    8.1507  -12.8654   19.0946 C   0  0  0  0  0  0  0  0  0  0  0  0
    8.5059  -13.6726   20.3258 C   0  0  0  0  0  0  0  0  0  0  0  0
    8.2612  -15.1245   19.9998 C   0  0  0  0  0  0  0  0  0  0  0  0
    8.6565  -15.9368   21.2187 C   0  0  2  0  0  0  0  0  0  0  0  0
    7.9925  -15.3729   22.3720 N   0  0  0  0  0  0  0  0  0  0  0  0
   10.1207  -15.7841   21.4000 C   0  0  0  0  0  0  0  0  0  0  0  0
   10.6094  -14.9340   22.1813 O   0  0  0  0  0  0  0  0  0  0  0  0
   10.5653  -13.1352   18.1353 N   0  0  0  0  0  0  0  0  0  0  0  0
   14.8819  -14.6045   19.5245 C   0  0  0  0  0  0  0  0  0  0  0  0
   14.1416  -14.6467   20.7601 O   0  0  0  0  0  0  0  0  0  0  0  0
   14.7677  -14.4703   21.8269 C   0  0  0  0  0  0  0  0  0  0  0  0
   12.6970  -14.8945   20.6894 C   0  0  1  0  0  0  0  0  0  0  0  0
   12.4248  -16.3803   20.7287 N   0  0  0  0  0  0  0  0  0  0  0  0
   11.0123  -16.6258   20.6669 C   0  0  0  0  0  0  0  0  0  0  0  0
   12.9704  -16.9218   22.0220 O   0  0  0  0  0  0  0  0  0  0  0  0
   13.2196  -16.0857   23.1096 O   0  0  0  0  0  0  0  0  0  0  0  0
  2  1  1  1
  2  3  1  0
  2 10  1  0
  3  4  1  0
  4  5  2  0
  5  6  1  0
  7  6  2  0
  8  7  1  0
  9  4  1  0
  9  8  2  0
 10 11  2  0
 10 20  1  0
 13 15  1  0
 13 12  1  0
 14 13  2  0
 16 15  1  0
 16 17  1  0
 18 17  1  0
 19 18  1  6
 20 19  1  0
 21 19  1  0
 21 22  2  0
 24 23  1  0
 24 26  1  0
 25 24  2  0
 27 26  1  6
 27 28  1  0
 28 21  1  0
 29 27  1  0
 30 29  1  0
 31 29  2  0
M  END
$$$$
