FRN.pdb
     RDKit          3D

 31 31  0  0  1  0  0  0  0  0999 V2000
    6.0608  -17.2925   26.3412 N   0  0  0  0  0  0  0  0  0  0  0  0
    6.6943  -16.1886   25.6618 C   0  0  1  0  0  0  0  0  0  0  0  0
    7.5258  -15.3559   26.6389 C   0  0  0  0  0  0  0  0  0  0  0  0
    7.0597  -13.9547   26.6104 C   0  0  0  0  0  0  0  0  0  0  0  0
    7.9321  -12.9484   26.3268 C   0  0  0  0  0  0  0  0  0  0  0  0
    7.5227  -11.6246   26.2931 C   0  0  0  0  0  0  0  0  0  0  0  0
    6.1992  -11.3234   26.5535 C   0  0  0  0  0  0  0  0  0  0  0  0
    5.2903  -12.3399   26.8461 C   0  0  0  0  0  0  0  0  0  0  0  0
    5.7433  -13.6535   26.8694 C   0  0  0  0  0  0  0  0  0  0  0  0
    7.6358  -16.6552   24.6089 C   0  0  0  0  0  0  0  0  0  0  0  0
    8.3307  -17.6699   24.8654 O   0  0  0  0  0  0  0  0  0  0  0  0
    7.7359  -12.0355   18.2676 N   0  0  0  0  0  0  0  0  0  0  0  0
    7.9811  -13.3949   17.9457 C   0  0  0  0  0  0  0  0  0  0  0  0
    7.8815  -13.7584   16.7114 N   0  0  0  0  0  0  0  0  0  0  0  0
    8.3212  -14.2934   18.9723 N   0  0  0  0  0  0  0  0  0  0  0  0
    8.6459  -15.6689   18.6287 C   0  0  0  0  0  0  0  0  0  0  0  0
    9.1062  -16.3456   19.9029 C   0  0  0  0  0  0  0  0  0  0  0  0
    8.3632  -15.7048   21.0482 C   0  0  0  0  0  0  0  0  0  0  0  0
    8.5904  -16.5664   22.2761 C   0  0  2  0  0  0  0  0  0  0  0  0
    7.7915  -16.0333   23.3561 N   0  0  0  0  0  0  0  0  0  0  0  0
   10.0213  -16.4444   22.6473 C   0  0  0  0  0  0  0  0  0  0  0  0
   10.4847  -15.4078   23.1790 O   0  0  0  0  0  0  0  0  0  0  0  0
    8.0940  -14.7277   16.3975 N   0  0  0  0  0  0  0  0  0  0  0  0
   14.8376  -17.3579   23.5534 C   0  0  0  0  0  0  0  0  0  0  0  0
   14.3431  -18.6650   23.2020 O   0  0  0  0  0  0  0  0  0  0  0  0
   15.1386  -19.6272   23.2504 C   0  0  0  0  0  0  0  0  0  0  0  0
   12.9346  -18.7856   22.8083 C   0  0  1  0  0  0  0  0  0  0  0  0
   12.2907  -17.4192   22.7661 N   0  0  0  0  0  0  0  0  0  0  0  0
   10.9091  -17.5351   22.3962 C   0  0  0  0  0  0  0  0  0  0  0  0
   13.0156  -16.5921   21.7394 O   0  0  0  0  0  0  0  0  0  0  0  0
   13.9202  -15.6000   22.1157 O   0  0  0  0  0  0  0  0  0  0  0  0
  2  1  1  1
  2  3  1  0
  2 10  1  0
  3  4  1  0
  4  5  2  0
  5  6  1  0
  7  6  2  0
  8  7  1  0
  9  4  1  0
  9  8  2  0
 10 11  2  0
 10 20  1  0
 13 15  1  0
 13 12  1  0
 14 13  2  0
 16 15  1  0
 16 17  1  0
 18 17  1  0
 19 18  1  6
 20 19  1  0
 21 19  1  0
 21 22  2  0
 24 23  1  0
 24 26  1  0
 25 24  2  0
 27 26  1  1
 27 28  1  0
 28 21  1  0
 29 27  1  0
 30 29  1  0
 31 29  2  0
M  END
$$$$
