FRN.pdb
     RDKit          3D

 31 31  0  0  1  0  0  0  0  0999 V2000
    5.9381  -18.0138   25.8634 N   0  0  0  0  0  0  0  0  0  0  0  0
    6.3833  -16.6727   25.5717 C   0  0  1  0  0  0  0  0  0  0  0  0
    7.2452  -16.1277   26.7117 C   0  0  0  0  0  0  0  0  0  0  0  0
    7.2340  -14.6513   26.6734 C   0  0  0  0  0  0  0  0  0  0  0  0
    8.4044  -13.9564   26.7108 C   0  0  0  0  0  0  0  0  0  0  0  0
    8.4241  -12.5709   26.6762 C   0  0  0  0  0  0  0  0  0  0  0  0
    7.2275  -11.8831   26.6020 C   0  0  0  0  0  0  0  0  0  0  0  0
    6.0182  -12.5767   26.5628 C   0  0  0  0  0  0  0  0  0  0  0  0
    6.0444  -13.9657   26.5997 C   0  0  0  0  0  0  0  0  0  0  0  0
    7.2321  -16.6260   24.3511 C   0  0  0  0  0  0  0  0  0  0  0  0
    8.0481  -17.5657   24.1798 O   0  0  0  0  0  0  0  0  0  0  0  0
    8.2080  -14.3134   15.8709 N   0  0  0  0  0  0  0  0  0  0  0  0
    8.6418  -13.8806   17.1501 C   0  0  0  0  0  0  0  0  0  0  0  0
    9.9098  -13.8524   17.3884 N   0  0  0  0  0  0  0  0  0  0  0  0
    7.6849  -13.5006   18.1076 N   0  0  0  0  0  0  0  0  0  0  0  0
    8.1351  -13.0280   19.4074 C   0  0  0  0  0  0  0  0  0  0  0  0
    8.5301  -14.2505   20.2093 C   0  0  0  0  0  0  0  0  0  0  0  0
    7.6424  -14.2975   21.4276 C   0  0  0  0  0  0  0  0  0  0  0  0
    7.9945  -15.5562   22.1980 C   0  0  2  0  0  0  0  0  0  0  0  0
    7.1748  -15.6018   23.3875 N   0  0  0  0  0  0  0  0  0  0  0  0
    9.4144  -15.4427   22.6116 C   0  0  0  0  0  0  0  0  0  0  0  0
    9.8562  -14.4293   23.2031 O   0  0  0  0  0  0  0  0  0  0  0  0
   10.2951  -13.6185   18.3265 N   0  0  0  0  0  0  0  0  0  0  0  0
   11.0451  -19.6211   23.8455 C   0  0  0  0  0  0  0  0  0  0  0  0
   11.7956  -18.4052   24.0318 O   0  0  0  0  0  0  0  0  0  0  0  0
   11.9472  -17.9806   25.1971 C   0  0  0  0  0  0  0  0  0  0  0  0
   12.3359  -17.7398   22.8407 C   0  0  2  0  0  0  0  0  0  0  0  0
   11.7028  -16.3775   22.6777 N   0  0  0  0  0  0  0  0  0  0  0  0
   10.3166  -16.5147   22.3330 C   0  0  0  0  0  0  0  0  0  0  0  0
   12.4240  -15.6558   21.5720 O   0  0  0  0  0  0  0  0  0  0  0  0
   13.7700  -15.3115   21.6889 O   0  0  0  0  0  0  0  0  0  0  0  0
  2  1  1  1
  2  3  1  0
  2 10  1  0
  3  4  1  0
  4  5  2  0
  5  6  1  0
  7  6  2  0
  8  7  1  0
  9  4  1  0
  9  8  2  0
 10 11  2  0
 10 20  1  0
 13 15  1  0
 13 12  1  0
 14 13  2  0
 16 15  1  0
 16 17  1  0
 18 17  1  0
 19 18  1  6
 20 19  1  0
 21 19  1  0
 21 22  2  0
 24 23  1  0
 24 26  1  0
 25 24  2  0
 27 26  1  1
 27 28  1  0
 28 21  1  0
 29 27  1  0
 30 29  1  0
 31 29  2  0
M  END
$$$$
