FRN.pdb
     RDKit          3D

 31 31  0  0  1  0  0  0  0  0999 V2000
    7.4419  -17.3435   20.0154 N   0  0  0  0  0  0  0  0  0  0  0  0
    8.7636  -16.7901   19.8465 C   0  0  1  0  0  0  0  0  0  0  0  0
    9.0521  -15.7386   20.9191 C   0  0  0  0  0  0  0  0  0  0  0  0
    8.3099  -14.5007   20.6058 C   0  0  0  0  0  0  0  0  0  0  0  0
    7.1112  -14.2516   21.2018 C   0  0  0  0  0  0  0  0  0  0  0  0
    6.3929  -13.0984   20.9270 C   0  0  0  0  0  0  0  0  0  0  0  0
    6.9079  -12.1838   20.0278 C   0  0  0  0  0  0  0  0  0  0  0  0
    8.1340  -12.4208   19.4069 C   0  0  0  0  0  0  0  0  0  0  0  0
    8.8210  -13.5899   19.7115 C   0  0  0  0  0  0  0  0  0  0  0  0
    9.8192  -17.8283   19.9887 C   0  0  0  0  0  0  0  0  0  0  0  0
    9.5585  -18.8202   20.7144 O   0  0  0  0  0  0  0  0  0  0  0  0
   13.0230  -19.4780   14.9188 N   0  0  0  0  0  0  0  0  0  0  0  0
   14.1448  -20.3281   15.0944 C   0  0  0  0  0  0  0  0  0  0  0  0
   14.2965  -21.3165   14.2787 N   0  0  0  0  0  0  0  0  0  0  0  0
   15.0461  -20.0684   16.1419 N   0  0  0  0  0  0  0  0  0  0  0  0
   14.7959  -18.9411   17.0262 C   0  0  0  0  0  0  0  0  0  0  0  0
   13.6784  -19.3529   17.9615 C   0  0  0  0  0  0  0  0  0  0  0  0
   13.3896  -18.1797   18.8641 C   0  0  0  0  0  0  0  0  0  0  0  0
   12.2196  -18.5649   19.7497 C   0  0  2  0  0  0  0  0  0  0  0  0
   11.0791  -17.7651   19.3646 N   0  0  0  0  0  0  0  0  0  0  0  0
   12.5845  -18.2193   21.1452 C   0  0  0  0  0  0  0  0  0  0  0  0
   13.1954  -17.1623   21.4309 O   0  0  0  0  0  0  0  0  0  0  0  0
   15.1114  -21.9618   14.3311 N   0  0  0  0  0  0  0  0  0  0  0  0
   10.6122  -21.2516   25.5506 C   0  0  0  0  0  0  0  0  0  0  0  0
   11.1870  -20.5967   24.4029 O   0  0  0  0  0  0  0  0  0  0  0  0
   11.4729  -21.2969   23.4083 C   0  0  0  0  0  0  0  0  0  0  0  0
   11.4017  -19.1467   24.4730 C   0  0  1  0  0  0  0  0  0  0  0  0
   12.5382  -18.7477   23.5605 N   0  0  0  0  0  0  0  0  0  0  0  0
   12.2347  -19.1104   22.2056 C   0  0  0  0  0  0  0  0  0  0  0  0
   13.7757  -19.4769   24.0082 O   0  0  0  0  0  0  0  0  0  0  0  0
   14.3792  -19.1952   25.2331 O   0  0  0  0  0  0  0  0  0  0  0  0
  2  1  1  1
  2  3  1  0
  2 10  1  0
  3  4  1  0
  4  5  2  0
  5  6  1  0
  7  6  2  0
  8  7  1  0
  9  4  1  0
  9  8  2  0
 10 11  2  0
 10 20  1  0
 13 15  1  0
 13 12  1  0
 14 13  2  0
 16 15  1  0
 16 17  1  0
 18 17  1  0
 19 18  1  6
 20 19  1  0
 21 19  1  0
 21 22  2  0
 24 23  1  0
 24 26  1  0
 25 24  2  0
 27 26  1  6
 27 28  1  0
 28 21  1  0
 29 27  1  0
 30 29  1  0
 31 29  2  0
M  END
$$$$
