FRN.pdb
     RDKit          3D

 31 31  0  0  1  0  0  0  0  0999 V2000
    6.2323  -17.2702   25.5296 N   0  0  0  0  0  0  0  0  0  0  0  0
    6.7377  -15.9975   25.0752 C   0  0  1  0  0  0  0  0  0  0  0  0
    7.8099  -15.4683   26.0290 C   0  0  0  0  0  0  0  0  0  0  0  0
    7.4621  -14.0948   26.4458 C   0  0  0  0  0  0  0  0  0  0  0  0
    6.4783  -13.4111   25.7987 C   0  0  0  0  0  0  0  0  0  0  0  0
    6.1307  -12.1212   26.1683 C   0  0  0  0  0  0  0  0  0  0  0  0
    6.7996  -11.5192   27.2173 C   0  0  0  0  0  0  0  0  0  0  0  0
    7.8103  -12.2028   27.8927 C   0  0  0  0  0  0  0  0  0  0  0  0
    8.1267  -13.4945   27.4892 C   0  0  0  0  0  0  0  0  0  0  0  0
    7.3860  -16.1055   23.7409 C   0  0  0  0  0  0  0  0  0  0  0  0
    7.9186  -17.2044   23.4457 O   0  0  0  0  0  0  0  0  0  0  0  0
    8.4346  -13.3545   15.7242 N   0  0  0  0  0  0  0  0  0  0  0  0
    9.0394  -14.4243   16.4325 C   0  0  0  0  0  0  0  0  0  0  0  0
   10.2663  -14.7200   16.1626 N   0  0  0  0  0  0  0  0  0  0  0  0
    8.2892  -15.1211   17.3962 N   0  0  0  0  0  0  0  0  0  0  0  0
    7.5709  -14.3682   18.4124 C   0  0  0  0  0  0  0  0  0  0  0  0
    8.5882  -13.9489   19.4529 C   0  0  0  0  0  0  0  0  0  0  0  0
    7.8676  -13.8477   20.7738 C   0  0  0  0  0  0  0  0  0  0  0  0
    8.0941  -15.1513   21.5161 C   0  0  2  0  0  0  0  0  0  0  0  0
    7.4369  -15.0600   22.8001 N   0  0  0  0  0  0  0  0  0  0  0  0
    9.5534  -15.2857   21.7452 C   0  0  0  0  0  0  0  0  0  0  0  0
   10.1461  -14.6516   22.6499 O   0  0  0  0  0  0  0  0  0  0  0  0
   10.8010  -15.4282   16.7064 N   0  0  0  0  0  0  0  0  0  0  0  0
   14.4487  -14.3934   19.6861 C   0  0  0  0  0  0  0  0  0  0  0  0
   13.0271  -14.6003   19.5736 O   0  0  0  0  0  0  0  0  0  0  0  0
   12.5327  -14.6752   18.4285 C   0  0  0  0  0  0  0  0  0  0  0  0
   12.2469  -14.7104   20.8115 C   0  0  2  0  0  0  0  0  0  0  0  0
   11.7512  -16.1271   20.9860 N   0  0  0  0  0  0  0  0  0  0  0  0
   10.3184  -16.1617   20.9155 C   0  0  0  0  0  0  0  0  0  0  0  0
   12.1974  -16.6157   22.3372 O   0  0  0  0  0  0  0  0  0  0  0  0
   13.5461  -16.8233   22.6235 O   0  0  0  0  0  0  0  0  0  0  0  0
  2  1  1  1
  2  3  1  0
  2 10  1  0
  3  4  1  0
  4  5  2  0
  5  6  1  0
  7  6  2  0
  8  7  1  0
  9  4  1  0
  9  8  2  0
 10 11  2  0
 10 20  1  0
 13 15  1  0
 13 12  1  0
 14 13  2  0
 16 15  1  0
 16 17  1  0
 18 17  1  0
 19 18  1  6
 20 19  1  0
 21 19  1  0
 21 22  2  0
 24 23  1  0
 24 26  1  0
 25 24  2  0
 27 26  1  6
 27 28  1  0
 28 21  1  0
 29 27  1  0
 30 29  1  0
 31 29  2  0
M  END
$$$$
