FRN.pdb
     RDKit          3D

 31 31  0  0  1  0  0  0  0  0999 V2000
    6.9295  -16.9092   26.2450 N   0  0  0  0  0  0  0  0  0  0  0  0
    7.2795  -15.9043   25.2706 C   0  0  1  0  0  0  0  0  0  0  0  0
    8.4089  -15.0142   25.7917 C   0  0  0  0  0  0  0  0  0  0  0  0
    7.8345  -13.7957   26.3973 C   0  0  0  0  0  0  0  0  0  0  0  0
    6.7673  -13.1803   25.8172 C   0  0  0  0  0  0  0  0  0  0  0  0
    6.2078  -12.0359   26.3634 C   0  0  0  0  0  0  0  0  0  0  0  0
    6.7476  -11.5108   27.5223 C   0  0  0  0  0  0  0  0  0  0  0  0
    7.8407  -12.1264   28.1316 C   0  0  0  0  0  0  0  0  0  0  0  0
    8.3706  -13.2722   27.5502 C   0  0  0  0  0  0  0  0  0  0  0  0
    7.7783  -16.5104   24.0071 C   0  0  0  0  0  0  0  0  0  0  0  0
    7.8070  -17.7647   23.9412 O   0  0  0  0  0  0  0  0  0  0  0  0
    8.0511  -12.1400   18.0192 N   0  0  0  0  0  0  0  0  0  0  0  0
    8.5132  -13.4483   17.7248 C   0  0  0  0  0  0  0  0  0  0  0  0
    9.5233  -13.5758   16.9316 N   0  0  0  0  0  0  0  0  0  0  0  0
    7.8615  -14.5529   18.3011 N   0  0  0  0  0  0  0  0  0  0  0  0
    6.6949  -14.3265   19.1395 C   0  0  0  0  0  0  0  0  0  0  0  0
    7.1663  -14.3849   20.5775 C   0  0  0  0  0  0  0  0  0  0  0  0
    8.4752  -15.1339   20.5934 C   0  0  0  0  0  0  0  0  0  0  0  0
    8.3205  -16.2989   21.5530 C   0  0  2  0  0  0  0  0  0  0  0  0
    8.2151  -15.7689   22.8935 N   0  0  0  0  0  0  0  0  0  0  0  0
    9.5569  -17.1137   21.4673 C   0  0  0  0  0  0  0  0  0  0  0  0
    9.7535  -17.9286   20.5348 O   0  0  0  0  0  0  0  0  0  0  0  0
    9.8151  -14.4971   16.5452 N   0  0  0  0  0  0  0  0  0  0  0  0
   13.5562  -14.7807   19.6423 C   0  0  0  0  0  0  0  0  0  0  0  0
   13.2180  -14.8253   21.0423 O   0  0  0  0  0  0  0  0  0  0  0  0
   14.1002  -14.5137   21.8705 C   0  0  0  0  0  0  0  0  0  0  0  0
   11.8574  -15.2343   21.4096 C   0  0  1  0  0  0  0  0  0  0  0  0
   11.8894  -16.5817   22.0930 N   0  0  0  0  0  0  0  0  0  0  0  0
   10.5625  -16.9750   22.4724 C   0  0  0  0  0  0  0  0  0  0  0  0
   12.7466  -16.4619   23.3235 O   0  0  0  0  0  0  0  0  0  0  0  0
   13.9708  -17.1224   23.4207 O   0  0  0  0  0  0  0  0  0  0  0  0
  2  1  1  1
  2  3  1  0
  2 10  1  0
  3  4  1  0
  4  5  2  0
  5  6  1  0
  7  6  2  0
  8  7  1  0
  9  4  1  0
  9  8  2  0
 10 11  2  0
 10 20  1  0
 13 15  1  0
 13 12  1  0
 14 13  2  0
 16 15  1  0
 16 17  1  0
 18 17  1  0
 19 18  1  6
 20 19  1  0
 21 19  1  0
 21 22  2  0
 24 23  1  0
 24 26  1  0
 25 24  2  0
 27 26  1  6
 27 28  1  0
 28 21  1  0
 29 27  1  0
 30 29  1  0
 31 29  2  0
M  END
$$$$
