FRN.pdb
     RDKit          3D

 31 31  0  0  1  0  0  0  0  0999 V2000
    5.7079  -16.1368   25.5936 N   0  0  0  0  0  0  0  0  0  0  0  0
    6.8302  -15.6464   24.8308 C   0  0  1  0  0  0  0  0  0  0  0  0
    7.7405  -14.7795   25.7021 C   0  0  0  0  0  0  0  0  0  0  0  0
    7.0819  -13.4836   25.9634 C   0  0  0  0  0  0  0  0  0  0  0  0
    7.4813  -12.3657   25.2965 C   0  0  0  0  0  0  0  0  0  0  0  0
    6.8814  -11.1365   25.5213 C   0  0  0  0  0  0  0  0  0  0  0  0
    5.8555  -11.0477   26.4432 C   0  0  0  0  0  0  0  0  0  0  0  0
    5.4320  -12.1813   27.1365 C   0  0  0  0  0  0  0  0  0  0  0  0
    6.0612  -13.3937   26.8803 C   0  0  0  0  0  0  0  0  0  0  0  0
    7.6786  -16.7566   24.3207 C   0  0  0  0  0  0  0  0  0  0  0  0
    7.2154  -17.9215   24.4042 O   0  0  0  0  0  0  0  0  0  0  0  0
    7.0631  -12.9760   19.8388 N   0  0  0  0  0  0  0  0  0  0  0  0
    8.3003  -13.2792   19.2148 C   0  0  0  0  0  0  0  0  0  0  0  0
    9.0675  -12.3003   18.8706 N   0  0  0  0  0  0  0  0  0  0  0  0
    8.6467  -14.6239   18.9936 N   0  0  0  0  0  0  0  0  0  0  0  0
    7.9860  -15.6607   19.7708 C   0  0  0  0  0  0  0  0  0  0  0  0
    8.7679  -15.8132   21.0587 C   0  0  0  0  0  0  0  0  0  0  0  0
    8.6807  -17.2612   21.4711 C   0  0  0  0  0  0  0  0  0  0  0  0
    9.5151  -17.4270   22.7273 C   0  0  2  0  0  0  0  0  0  0  0  0
    8.9556  -16.5801   23.7562 N   0  0  0  0  0  0  0  0  0  0  0  0
   10.8844  -16.9473   22.4189 C   0  0  0  0  0  0  0  0  0  0  0  0
   11.4400  -17.1823   21.3198 O   0  0  0  0  0  0  0  0  0  0  0  0
    9.9870  -12.4500   18.4065 N   0  0  0  0  0  0  0  0  0  0  0  0
   11.6997  -18.3923   27.6417 C   0  0  0  0  0  0  0  0  0  0  0  0
   12.1153  -18.4782   26.2646 O   0  0  0  0  0  0  0  0  0  0  0  0
   13.0901  -19.2097   25.9892 C   0  0  0  0  0  0  0  0  0  0  0  0
   11.3676  -17.7007   25.2697 C   0  0  1  0  0  0  0  0  0  0  0  0
   12.3210  -16.8820   24.4306 N   0  0  0  0  0  0  0  0  0  0  0  0
   11.6029  -16.1932   23.3967 C   0  0  0  0  0  0  0  0  0  0  0  0
   13.3187  -17.8197   23.8069 O   0  0  0  0  0  0  0  0  0  0  0  0
   12.9108  -18.9850   23.1589 O   0  0  0  0  0  0  0  0  0  0  0  0
  2  1  1  1
  2  3  1  0
  2 10  1  0
  3  4  1  0
  4  5  2  0
  5  6  1  0
  7  6  2  0
  8  7  1  0
  9  4  1  0
  9  8  2  0
 10 11  2  0
 10 20  1  0
 13 15  1  0
 13 12  1  0
 14 13  2  0
 16 15  1  0
 16 17  1  0
 18 17  1  0
 19 18  1  6
 20 19  1  0
 21 19  1  0
 21 22  2  0
 24 23  1  0
 24 26  1  0
 25 24  2  0
 27 26  1  1
 27 28  1  0
 28 21  1  0
 29 27  1  0
 30 29  1  0
 31 29  2  0
M  END
$$$$
