FRN.pdb
     RDKit          3D

 31 31  0  0  1  0  0  0  0  0999 V2000
    6.4775  -16.2040   25.6579 N   0  0  0  0  0  0  0  0  0  0  0  0
    7.3605  -15.5932   24.6940 C   0  0  1  0  0  0  0  0  0  0  0  0
    8.3792  -14.6885   25.3891 C   0  0  0  0  0  0  0  0  0  0  0  0
    7.6755  -13.5629   26.0366 C   0  0  0  0  0  0  0  0  0  0  0  0
    6.8678  -12.7477   25.3038 C   0  0  0  0  0  0  0  0  0  0  0  0
    6.1951  -11.6842   25.8848 C   0  0  0  0  0  0  0  0  0  0  0  0
    6.3500  -11.4493   27.2380 C   0  0  0  0  0  0  0  0  0  0  0  0
    7.1729  -12.2729   28.0057 C   0  0  0  0  0  0  0  0  0  0  0  0
    7.8287  -13.3280   27.3827 C   0  0  0  0  0  0  0  0  0  0  0  0
    8.1494  -16.6089   23.9467 C   0  0  0  0  0  0  0  0  0  0  0  0
    8.3491  -17.7135   24.5109 O   0  0  0  0  0  0  0  0  0  0  0  0
    7.9820  -13.2793   17.2267 N   0  0  0  0  0  0  0  0  0  0  0  0
    7.6329  -13.3610   18.5990 C   0  0  0  0  0  0  0  0  0  0  0  0
    7.9813  -12.3922   19.3771 N   0  0  0  0  0  0  0  0  0  0  0  0
    6.9255  -14.4845   19.0621 N   0  0  0  0  0  0  0  0  0  0  0  0
    7.6114  -15.7640   19.1509 C   0  0  0  0  0  0  0  0  0  0  0  0
    8.5366  -15.6871   20.3474 C   0  0  0  0  0  0  0  0  0  0  0  0
    9.2984  -16.9869   20.4133 C   0  0  0  0  0  0  0  0  0  0  0  0
    9.2969  -17.4416   21.8607 C   0  0  2  0  0  0  0  0  0  0  0  0
    8.6791  -16.4068   22.6586 N   0  0  0  0  0  0  0  0  0  0  0  0
   10.7112  -17.5794   22.2858 C   0  0  0  0  0  0  0  0  0  0  0  0
   11.3722  -18.6227   22.0700 O   0  0  0  0  0  0  0  0  0  0  0  0
    7.8136  -12.4149   20.4041 N   0  0  0  0  0  0  0  0  0  0  0  0
   13.5406  -16.5771   20.9422 C   0  0  0  0  0  0  0  0  0  0  0  0
   13.9609  -15.4706   21.7641 O   0  0  0  0  0  0  0  0  0  0  0  0
   14.6820  -14.5926   21.2441 C   0  0  0  0  0  0  0  0  0  0  0  0
   13.5162  -15.4431   23.1622 C   0  0  2  0  0  0  0  0  0  0  0  0
   12.6849  -16.6683   23.4645 N   0  0  0  0  0  0  0  0  0  0  0  0
   11.3513  -16.4967   22.9632 C   0  0  0  0  0  0  0  0  0  0  0  0
   12.6390  -16.8457   24.9578 O   0  0  0  0  0  0  0  0  0  0  0  0
   13.7986  -17.0809   25.6954 O   0  0  0  0  0  0  0  0  0  0  0  0
  2  1  1  1
  2  3  1  0
  2 10  1  0
  3  4  1  0
  4  5  2  0
  5  6  1  0
  7  6  2  0
  8  7  1  0
  9  4  1  0
  9  8  2  0
 10 11  2  0
 10 20  1  0
 13 15  1  0
 13 12  1  0
 14 13  2  0
 16 15  1  0
 16 17  1  0
 18 17  1  0
 19 18  1  6
 20 19  1  0
 21 19  1  0
 21 22  2  0
 24 23  1  0
 24 26  1  0
 25 24  2  0
 27 26  1  6
 27 28  1  0
 28 21  1  0
 29 27  1  0
 30 29  1  0
 31 29  2  0
M  END
$$$$
