FRN.pdb
     RDKit          3D

 31 31  0  0  1  0  0  0  0  0999 V2000
    5.6257  -17.8892   25.2692 N   0  0  0  0  0  0  0  0  0  0  0  0
    6.0881  -16.5227   25.2430 C   0  0  1  0  0  0  0  0  0  0  0  0
    6.6224  -16.1048   26.6139 C   0  0  0  0  0  0  0  0  0  0  0  0
    6.8417  -14.6444   26.6315 C   0  0  0  0  0  0  0  0  0  0  0  0
    5.7810  -13.7920   26.5823 C   0  0  0  0  0  0  0  0  0  0  0  0
    5.9569  -12.4172   26.5974 C   0  0  0  0  0  0  0  0  0  0  0  0
    7.2385  -11.9041   26.6641 C   0  0  0  0  0  0  0  0  0  0  0  0
    8.3379  -12.7606   26.7151 C   0  0  0  0  0  0  0  0  0  0  0  0
    8.1161  -14.1325   26.6977 C   0  0  0  0  0  0  0  0  0  0  0  0
    7.2118  -16.3383   24.2860 C   0  0  0  0  0  0  0  0  0  0  0  0
    8.1766  -17.1388   24.3683 O   0  0  0  0  0  0  0  0  0  0  0  0
    7.8732  -12.5552   18.0589 N   0  0  0  0  0  0  0  0  0  0  0  0
    8.2486  -13.8661   17.6683 C   0  0  0  0  0  0  0  0  0  0  0  0
    8.1063  -14.1992   16.4297 N   0  0  0  0  0  0  0  0  0  0  0  0
    8.7586  -14.7512   18.6345 N   0  0  0  0  0  0  0  0  0  0  0  0
    7.8963  -15.1809   19.7242 C   0  0  0  0  0  0  0  0  0  0  0  0
    7.4252  -13.9291   20.4345 C   0  0  0  0  0  0  0  0  0  0  0  0
    8.2158  -13.8110   21.7133 C   0  0  0  0  0  0  0  0  0  0  0  0
    8.3071  -15.1982   22.3208 C   0  0  2  0  0  0  0  0  0  0  0  0
    7.2565  -15.3307   23.3044 N   0  0  0  0  0  0  0  0  0  0  0  0
    9.6141  -15.2951   23.0154 C   0  0  0  0  0  0  0  0  0  0  0  0
    9.8900  -14.5909   24.0154 O   0  0  0  0  0  0  0  0  0  0  0  0
    8.3386  -15.1511   16.0788 N   0  0  0  0  0  0  0  0  0  0  0  0
   13.7392  -17.2455   25.6625 C   0  0  0  0  0  0  0  0  0  0  0  0
   13.4078  -17.7778   24.3650 O   0  0  0  0  0  0  0  0  0  0  0  0
   14.3107  -18.3461   23.7146 C   0  0  0  0  0  0  0  0  0  0  0  0
   12.0295  -17.6193   23.8870 C   0  0  1  0  0  0  0  0  0  0  0  0
   11.8728  -16.2857   23.1939 N   0  0  0  0  0  0  0  0  0  0  0  0
   10.5976  -16.2156   22.5396 C   0  0  0  0  0  0  0  0  0  0  0  0
   12.9679  -16.1591   22.1700 O   0  0  0  0  0  0  0  0  0  0  0  0
   14.2821  -15.8829   22.5452 O   0  0  0  0  0  0  0  0  0  0  0  0
  2  1  1  1
  2  3  1  0
  2 10  1  0
  3  4  1  0
  4  5  2  0
  5  6  1  0
  7  6  2  0
  8  7  1  0
  9  4  1  0
  9  8  2  0
 10 11  2  0
 10 20  1  0
 13 15  1  0
 13 12  1  0
 14 13  2  0
 16 15  1  0
 16 17  1  0
 18 17  1  0
 19 18  1  1
 20 19  1  0
 21 19  1  0
 21 22  2  0
 24 23  1  0
 24 26  1  0
 25 24  2  0
 27 26  1  1
 27 28  1  0
 28 21  1  0
 29 27  1  0
 30 29  1  0
 31 29  2  0
M  END
$$$$
