FQH.pdb
     RDKit          3D

 31 32  0  0  1  0  0  0  0  0999 V2000
    5.9549  -16.6273   25.2270 N   0  0  0  0  0  0  0  0  0  0  0  0
    7.1994  -15.9156   24.9573 C   0  0  1  0  0  0  0  0  0  0  0  0
    7.6457  -15.1475   26.2086 C   0  0  0  0  0  0  0  0  0  0  0  0
    7.0328  -13.8021   26.1039 C   0  0  0  0  0  0  0  0  0  0  0  0
    5.9266  -13.4530   26.8475 C   0  0  0  0  0  0  0  0  0  0  0  0
    5.3514  -12.1903   26.7494 C   0  0  0  0  0  0  0  0  0  0  0  0
    5.8728  -11.2411   25.8993 C   0  0  0  0  0  0  0  0  0  0  0  0
    6.9791  -11.5855   25.1534 C   0  0  0  0  0  0  0  0  0  0  0  0
    7.5552  -12.8547   25.2539 C   0  0  0  0  0  0  0  0  0  0  0  0
    8.2614  -16.8489   24.4982 C   0  0  0  0  0  0  0  0  0  0  0  0
    8.2753  -17.9954   24.9906 O   0  0  0  0  0  0  0  0  0  0  0  0
   11.6449  -15.9867   19.3861 N   0  0  0  0  0  0  0  0  0  0  0  0
   12.0096  -15.2078   20.5106 C   0  0  0  0  0  0  0  0  0  0  0  0
   12.8827  -14.3238   20.3723 O   0  0  0  0  0  0  0  0  0  0  0  0
   11.3703  -15.4353   21.8237 C   0  0  0  0  0  0  0  0  0  0  0  0
   11.0974  -16.8876   21.9896 C   0  0  0  0  0  0  0  0  0  0  0  0
   10.4485  -17.2405   23.3035 C   0  0  2  0  0  0  0  0  0  0  0  0
    9.2386  -16.4779   23.5354 N   0  0  0  0  0  0  0  0  0  0  0  0
   11.3655  -17.1472   24.4448 C   0  0  0  0  0  0  0  0  0  0  0  0
   12.2872  -16.2929   24.4539 O   0  0  0  0  0  0  0  0  0  0  0  0
   11.2606  -18.0006   25.5754 N   0  0  0  0  0  0  0  0  0  0  0  0
   12.3108  -18.1328   26.5613 C   0  0  1  0  0  0  0  0  0  0  0  0
   11.6987  -17.8237   27.9331 C   0  0  0  0  0  0  0  0  0  0  0  0
   11.0766  -16.4966   27.9754 C   0  0  0  0  0  0  0  0  0  0  0  0
   11.0710  -15.5679   26.9646 C   0  0  0  0  0  0  0  0  0  0  0  0
   10.3940  -14.4985   27.4244 N   0  0  0  0  0  0  0  0  0  0  0  0
    9.9899  -14.7520   28.6824 C   0  0  0  0  0  0  0  0  0  0  0  0
   10.4054  -15.9811   29.0321 N   0  0  0  0  0  0  0  0  0  0  0  0
   12.8835  -19.4904   26.5302 C   0  0  0  0  0  0  0  0  0  0  0  0
   12.4389  -20.3744   25.7534 O   0  0  0  0  0  0  0  0  0  0  0  0
   13.9354  -19.8013   27.3753 O   0  0  0  0  0  0  0  0  0  0  0  0
  2  1  1  1
  2 10  1  0
  2  3  1  0
  3  4  1  0
  4  5  2  0
  5  6  1  0
  7  6  2  0
  8  7  1  0
  9  4  1  0
  9  8  2  0
 10 18  1  0
 11 10  2  0
 13 15  1  0
 13 12  1  0
 14 13  2  0
 16 15  1  0
 17 16  1  6
 18 17  1  0
 19 20  2  0
 19 17  1  0
 21 19  1  0
 22 29  1  0
 22 21  1  0
 22 23  1  1
 24 23  1  0
 25 24  2  0
 26 27  1  0
 26 25  1  0
 27 28  2  0
 28 24  1  0
 29 31  1  0
 30 29  2  0
M  END
$$$$
