FQH.pdb
     RDKit          3D

 31 32  0  0  1  0  0  0  0  0999 V2000
    5.6863  -16.4741   22.0217 N   0  0  0  0  0  0  0  0  0  0  0  0
    7.0806  -16.0849   22.2019 C   0  0  1  0  0  0  0  0  0  0  0  0
    7.1648  -14.6038   22.5943 C   0  0  0  0  0  0  0  0  0  0  0  0
    7.5958  -13.8805   21.3745 C   0  0  0  0  0  0  0  0  0  0  0  0
    6.6948  -13.5044   20.4022 C   0  0  0  0  0  0  0  0  0  0  0  0
    7.0992  -12.8255   19.2573 C   0  0  0  0  0  0  0  0  0  0  0  0
    8.4230  -12.5050   19.0572 C   0  0  0  0  0  0  0  0  0  0  0  0
    9.3280  -12.8790   20.0269 C   0  0  0  0  0  0  0  0  0  0  0  0
    8.9192  -13.5609   21.1761 C   0  0  0  0  0  0  0  0  0  0  0  0
    7.7496  -16.9431   23.2145 C   0  0  0  0  0  0  0  0  0  0  0  0
    7.2921  -16.9305   24.3755 O   0  0  0  0  0  0  0  0  0  0  0  0
   10.3468  -22.4810   22.6479 N   0  0  0  0  0  0  0  0  0  0  0  0
   10.5555  -22.1864   24.0168 C   0  0  0  0  0  0  0  0  0  0  0  0
   10.8224  -23.1237   24.7998 O   0  0  0  0  0  0  0  0  0  0  0  0
   10.4597  -20.7969   24.5113 C   0  0  0  0  0  0  0  0  0  0  0  0
    9.6980  -19.9800   23.5296 C   0  0  0  0  0  0  0  0  0  0  0  0
    9.5943  -18.5223   23.8985 C   0  0  2  0  0  0  0  0  0  0  0  0
    8.8707  -17.7586   22.9023 N   0  0  0  0  0  0  0  0  0  0  0  0
   10.8917  -17.9090   24.2027 C   0  0  0  0  0  0  0  0  0  0  0  0
   11.8783  -18.0961   23.4470 O   0  0  0  0  0  0  0  0  0  0  0  0
   11.0954  -17.0887   25.3444 N   0  0  0  0  0  0  0  0  0  0  0  0
   11.6255  -17.5942   26.5917 C   0  0  1  0  0  0  0  0  0  0  0  0
   10.4711  -18.2642   27.3469 C   0  0  0  0  0  0  0  0  0  0  0  0
   10.8910  -18.7838   28.6521 C   0  0  0  0  0  0  0  0  0  0  0  0
   12.1486  -18.6983   29.1957 C   0  0  0  0  0  0  0  0  0  0  0  0
   12.0928  -19.3006   30.3988 N   0  0  0  0  0  0  0  0  0  0  0  0
   10.8398  -19.7479   30.5995 C   0  0  0  0  0  0  0  0  0  0  0  0
   10.0907  -19.4346   29.5288 N   0  0  0  0  0  0  0  0  0  0  0  0
   12.7200  -18.5489   26.3411 C   0  0  0  0  0  0  0  0  0  0  0  0
   12.5175  -19.6423   25.7529 O   0  0  0  0  0  0  0  0  0  0  0  0
   14.0014  -18.2362   26.7626 O   0  0  0  0  0  0  0  0  0  0  0  0
  2  1  1  1
  2 10  1  0
  2  3  1  0
  3  4  1  0
  4  5  2  0
  5  6  1  0
  7  6  2  0
  8  7  1  0
  9  4  1  0
  9  8  2  0
 10 18  1  0
 11 10  2  0
 13 15  1  0
 13 12  1  0
 14 13  2  0
 16 15  1  0
 17 16  1  6
 18 17  1  0
 19 20  2  0
 19 17  1  0
 21 19  1  0
 22 29  1  0
 22 21  1  0
 22 23  1  6
 24 23  1  0
 25 24  2  0
 26 27  1  0
 26 25  1  0
 27 28  2  0
 28 24  1  0
 29 31  1  0
 30 29  2  0
M  END
$$$$
