FQH.pdb
     RDKit          3D

 31 32  0  0  1  0  0  0  0  0999 V2000
    6.3964  -17.3977   25.8087 N   0  0  0  0  0  0  0  0  0  0  0  0
    6.7439  -16.1161   25.2048 C   0  0  1  0  0  0  0  0  0  0  0  0
    7.7259  -15.3596   26.1093 C   0  0  0  0  0  0  0  0  0  0  0  0
    7.1099  -14.0362   26.3665 C   0  0  0  0  0  0  0  0  0  0  0  0
    7.6683  -12.8737   25.8816 C   0  0  0  0  0  0  0  0  0  0  0  0
    7.0902  -11.6316   26.1229 C   0  0  0  0  0  0  0  0  0  0  0  0
    5.9324  -11.5230   26.8599 C   0  0  0  0  0  0  0  0  0  0  0  0
    5.3701  -12.6830   27.3470 C   0  0  0  0  0  0  0  0  0  0  0  0
    5.9529  -13.9295   27.1032 C   0  0  0  0  0  0  0  0  0  0  0  0
    7.3092  -16.3017   23.8426 C   0  0  0  0  0  0  0  0  0  0  0  0
    7.7842  -17.4209   23.5618 O   0  0  0  0  0  0  0  0  0  0  0  0
    8.3246  -11.9762   19.4690 N   0  0  0  0  0  0  0  0  0  0  0  0
    8.3723  -13.1581   18.6911 C   0  0  0  0  0  0  0  0  0  0  0  0
    8.8885  -13.1089   17.5535 O   0  0  0  0  0  0  0  0  0  0  0  0
    7.8223  -14.4264   19.2138 C   0  0  0  0  0  0  0  0  0  0  0  0
    7.4602  -14.2493   20.6452 C   0  0  0  0  0  0  0  0  0  0  0  0
    7.6924  -15.4758   21.4898 C   0  0  2  0  0  0  0  0  0  0  0  0
    7.3223  -15.2617   22.8741 N   0  0  0  0  0  0  0  0  0  0  0  0
    9.0558  -16.0056   21.3775 C   0  0  0  0  0  0  0  0  0  0  0  0
    9.4483  -16.5343   20.3070 O   0  0  0  0  0  0  0  0  0  0  0  0
    9.9837  -15.9493   22.4515 N   0  0  0  0  0  0  0  0  0  0  0  0
   11.3324  -16.4628   22.3536 C   0  0  1  0  0  0  0  0  0  0  0  0
   12.2130  -15.3436   21.7846 C   0  0  0  0  0  0  0  0  0  0  0  0
   12.3108  -15.4050   20.3228 C   0  0  0  0  0  0  0  0  0  0  0  0
   11.7415  -16.3519   19.5083 C   0  0  0  0  0  0  0  0  0  0  0  0
   12.0812  -16.0317   18.2452 N   0  0  0  0  0  0  0  0  0  0  0  0
   12.8386  -14.9200   18.2708 C   0  0  0  0  0  0  0  0  0  0  0  0
   12.9864  -14.5252   19.5468 N   0  0  0  0  0  0  0  0  0  0  0  0
   11.8183  -16.8998   23.6746 C   0  0  0  0  0  0  0  0  0  0  0  0
   12.2420  -18.0686   23.8662 O   0  0  0  0  0  0  0  0  0  0  0  0
   11.8087  -16.0037   24.7302 O   0  0  0  0  0  0  0  0  0  0  0  0
  2  1  1  1
  2 10  1  0
  2  3  1  0
  3  4  1  0
  4  5  2  0
  5  6  1  0
  7  6  2  0
  8  7  1  0
  9  4  1  0
  9  8  2  0
 10 18  1  0
 11 10  2  0
 13 15  1  0
 13 12  1  0
 14 13  2  0
 16 15  1  0
 17 16  1  6
 18 17  1  0
 19 20  2  0
 19 17  1  0
 21 19  1  0
 22 29  1  0
 22 21  1  0
 22 23  1  1
 24 23  1  0
 25 24  2  0
 26 27  1  0
 26 25  1  0
 27 28  2  0
 28 24  1  0
 29 31  1  0
 30 29  2  0
M  END
$$$$
