DKC.pdb
     RDKit          3D

 24 23  0  0  1  0  0  0  0  0999 V2000
   11.4619  -19.0066   18.3082 N   0  0  0  0  0  0  0  0  0  0  0  0
   12.5441  -18.3692   18.9960 C   0  0  1  0  0  0  0  0  0  0  0  0
   13.2824  -17.5034   17.9977 C   0  0  0  0  0  0  0  0  0  0  0  0
   13.6341  -18.3420   16.8221 C   0  0  0  0  0  0  0  0  0  0  0  0
   14.5160  -19.2525   16.9050 O   0  0  0  0  0  0  0  0  0  0  0  0
   12.0101  -17.5643   20.1259 C   0  0  0  0  0  0  0  0  0  0  0  0
   12.7594  -16.8452   20.8479 O   0  0  0  0  0  0  0  0  0  0  0  0
   13.0205  -18.1645   15.6056 O   0  0  0  0  0  0  0  0  0  0  0  0
   10.6413  -17.5787   20.4289 N   0  0  0  0  0  0  0  0  0  0  0  0
   10.0546  -16.7571   21.5114 C   0  0  1  0  0  0  0  0  0  0  0  0
    8.7060  -16.3462   21.0229 C   0  0  0  0  0  0  0  0  0  0  0  0
    8.5013  -14.8607   20.8882 C   0  0  0  0  0  0  0  0  0  0  0  0
    7.9454  -14.5383   19.4960 C   0  0  0  0  0  0  0  0  0  0  0  0
    7.7363  -13.0789   19.2641 C   0  0  0  0  0  0  0  0  0  0  0  0
    7.1769  -12.9255   17.9112 N   0  0  0  0  0  0  0  0  0  0  0  0
   10.1569  -17.4884   22.7441 C   0  0  0  0  0  0  0  0  0  0  0  0
    9.9410  -18.7525   22.7150 O   0  0  0  0  0  0  0  0  0  0  0  0
   10.4757  -16.9841   24.0203 N   0  0  0  0  0  0  0  0  0  0  0  0
   10.4642  -17.8451   25.1806 C   0  0  1  0  0  0  0  0  0  0  0  0
   11.9169  -18.3012   25.3795 C   0  0  0  0  0  0  0  0  0  0  0  0
   13.0514  -16.9239   25.2086 S   0  0  0  0  0  0  0  0  0  0  0  0
   10.0335  -17.1223   26.4004 C   0  0  0  0  0  0  0  0  0  0  0  0
    9.8222  -15.8884   26.3328 O   0  0  0  0  0  0  0  0  0  0  0  0
    9.8579  -17.7696   27.6105 O   0  0  0  0  0  0  0  0  0  0  0  0
  2  1  1  6
  2  3  1  0
  3  4  1  0
  4  8  1  0
  4  5  2  0
  6  2  1  0
  7  6  2  0
  9  6  1  0
 10  9  1  0
 10 11  1  6
 11 12  1  0
 12 13  1  0
 13 14  1  0
 14 15  1  0
 16 18  1  0
 16 10  1  0
 17 16  2  0
 19 20  1  1
 19 18  1  0
 21 20  1  0
 22 19  1  0
 22 24  1  0
 23 22  2  0
M  END
$$$$
