DKC.pdb
     RDKit          3D

 24 23  0  0  1  0  0  0  0  0999 V2000
   16.7637  -19.5647   18.7963 N   0  0  0  0  0  0  0  0  0  0  0  0
   16.2510  -18.4560   18.0491 C   0  0  1  0  0  0  0  0  0  0  0  0
   16.1286  -18.8875   16.6035 C   0  0  0  0  0  0  0  0  0  0  0  0
   15.7901  -17.6930   15.7865 C   0  0  0  0  0  0  0  0  0  0  0  0
   15.2927  -17.8121   14.6237 O   0  0  0  0  0  0  0  0  0  0  0  0
   14.9366  -18.0444   18.6085 C   0  0  0  0  0  0  0  0  0  0  0  0
   14.6632  -16.8341   18.8534 O   0  0  0  0  0  0  0  0  0  0  0  0
   16.0016  -16.4194   16.2565 O   0  0  0  0  0  0  0  0  0  0  0  0
   13.9475  -18.9990   18.8848 N   0  0  0  0  0  0  0  0  0  0  0  0
   12.6040  -18.6339   19.3875 C   0  0  1  0  0  0  0  0  0  0  0  0
   11.6334  -19.2841   18.4592 C   0  0  0  0  0  0  0  0  0  0  0  0
   10.2037  -19.2878   18.9309 C   0  0  0  0  0  0  0  0  0  0  0  0
    9.3068  -19.9225   17.8614 C   0  0  0  0  0  0  0  0  0  0  0  0
    7.8613  -19.9383   18.2325 C   0  0  0  0  0  0  0  0  0  0  0  0
    7.1275  -20.5485   17.1118 N   0  0  0  0  0  0  0  0  0  0  0  0
   12.5431  -18.9436   20.7893 C   0  0  0  0  0  0  0  0  0  0  0  0
   13.2114  -19.9530   21.2135 O   0  0  0  0  0  0  0  0  0  0  0  0
   11.8251  -18.2614   21.7913 N   0  0  0  0  0  0  0  0  0  0  0  0
   11.8333  -18.7309   23.1577 C   0  0  1  0  0  0  0  0  0  0  0  0
   11.1798  -17.6171   23.9885 C   0  0  0  0  0  0  0  0  0  0  0  0
   12.2414  -16.1753   24.0771 S   0  0  0  0  0  0  0  0  0  0  0  0
   11.0298  -19.9651   23.3224 C   0  0  0  0  0  0  0  0  0  0  0  0
   10.2662  -20.3213   22.3942 O   0  0  0  0  0  0  0  0  0  0  0  0
   11.0982  -20.7347   24.4701 O   0  0  0  0  0  0  0  0  0  0  0  0
  2  1  1  1
  2  3  1  0
  3  4  1  0
  4  8  1  0
  4  5  2  0
  6  2  1  0
  7  6  2  0
  9  6  1  0
 10  9  1  0
 10 11  1  6
 11 12  1  0
 12 13  1  0
 13 14  1  0
 14 15  1  0
 16 18  1  0
 16 10  1  0
 17 16  2  0
 19 20  1  1
 19 18  1  0
 21 20  1  0
 22 19  1  0
 22 24  1  0
 23 22  2  0
M  END
$$$$
