DKC.pdb
     RDKit          3D

 24 23  0  0  1  0  0  0  0  0999 V2000
   13.4737  -18.1322   21.3753 N   0  0  0  0  0  0  0  0  0  0  0  0
   13.9227  -16.9448   22.0377 C   0  0  1  0  0  0  0  0  0  0  0  0
   14.4209  -15.9836   20.9799 C   0  0  0  0  0  0  0  0  0  0  0  0
   15.6891  -16.5203   20.4210 C   0  0  0  0  0  0  0  0  0  0  0  0
   15.7683  -16.8887   19.2078 O   0  0  0  0  0  0  0  0  0  0  0  0
   12.8039  -16.3598   22.8226 C   0  0  0  0  0  0  0  0  0  0  0  0
   12.8580  -15.1867   23.2922 O   0  0  0  0  0  0  0  0  0  0  0  0
   16.8198  -16.6379   21.1927 O   0  0  0  0  0  0  0  0  0  0  0  0
   11.6398  -17.1014   23.0688 N   0  0  0  0  0  0  0  0  0  0  0  0
   10.4409  -16.5159   23.7098 C   0  0  1  0  0  0  0  0  0  0  0  0
    9.3104  -17.4253   23.3620 C   0  0  0  0  0  0  0  0  0  0  0  0
    8.9037  -17.4123   21.9125 C   0  0  0  0  0  0  0  0  0  0  0  0
    7.8169  -18.4664   21.6698 C   0  0  0  0  0  0  0  0  0  0  0  0
    7.2547  -18.4314   20.2877 C   0  0  0  0  0  0  0  0  0  0  0  0
    6.1926  -19.4484   20.2204 N   0  0  0  0  0  0  0  0  0  0  0  0
   10.7388  -16.2712   25.0941 C   0  0  0  0  0  0  0  0  0  0  0  0
   11.5136  -17.0953   25.6990 O   0  0  0  0  0  0  0  0  0  0  0  0
   10.2793  -15.2103   25.8991 N   0  0  0  0  0  0  0  0  0  0  0  0
   10.6141  -15.1477   27.3032 C   0  0  1  0  0  0  0  0  0  0  0  0
    9.8885  -13.9112   27.8533 C   0  0  0  0  0  0  0  0  0  0  0  0
   10.2563  -13.6713   29.5912 S   0  0  0  0  0  0  0  0  0  0  0  0
   10.1278  -16.3376   28.0405 C   0  0  0  0  0  0  0  0  0  0  0  0
   10.8514  -16.8358   28.9348 O   0  0  0  0  0  0  0  0  0  0  0  0
    8.8993  -16.9138   27.7705 O   0  0  0  0  0  0  0  0  0  0  0  0
  2  1  1  6
  2  3  1  0
  3  4  1  0
  4  8  1  0
  4  5  2  0
  6  2  1  0
  7  6  2  0
  9  6  1  0
 10  9  1  0
 10 11  1  1
 11 12  1  0
 12 13  1  0
 13 14  1  0
 14 15  1  0
 16 18  1  0
 16 10  1  0
 17 16  2  0
 19 20  1  1
 19 18  1  0
 21 20  1  0
 22 19  1  0
 22 24  1  0
 23 22  2  0
M  END
$$$$
