DKC.pdb
     RDKit          3D

 24 23  0  0  1  0  0  0  0  0999 V2000
   13.0585  -14.2933   16.9679 N   0  0  0  0  0  0  0  0  0  0  0  0
   13.7281  -15.2403   17.8077 C   0  0  1  0  0  0  0  0  0  0  0  0
   14.8999  -14.5367   18.4580 C   0  0  0  0  0  0  0  0  0  0  0  0
   15.8809  -14.1860   17.3981 C   0  0  0  0  0  0  0  0  0  0  0  0
   15.6657  -14.4789   16.1809 O   0  0  0  0  0  0  0  0  0  0  0  0
   12.7766  -15.7660   18.8218 C   0  0  0  0  0  0  0  0  0  0  0  0
   11.9594  -15.0130   19.4259 O   0  0  0  0  0  0  0  0  0  0  0  0
   17.0537  -13.5340   17.6939 O   0  0  0  0  0  0  0  0  0  0  0  0
   12.7567  -17.1306   19.1428 N   0  0  0  0  0  0  0  0  0  0  0  0
   11.7792  -17.7140   20.0890 C   0  0  1  0  0  0  0  0  0  0  0  0
   11.3918  -19.0332   19.5095 C   0  0  0  0  0  0  0  0  0  0  0  0
   10.3175  -19.7707   20.2636 C   0  0  0  0  0  0  0  0  0  0  0  0
    9.9280  -21.0420   19.4999 C   0  0  0  0  0  0  0  0  0  0  0  0
    8.7698  -21.7648   20.1028 C   0  0  0  0  0  0  0  0  0  0  0  0
    8.4431  -22.8901   19.2118 N   0  0  0  0  0  0  0  0  0  0  0  0
   12.3432  -17.6709   21.4099 C   0  0  0  0  0  0  0  0  0  0  0  0
   13.2874  -16.8324   21.6354 O   0  0  0  0  0  0  0  0  0  0  0  0
   11.9823  -18.4514   22.5259 N   0  0  0  0  0  0  0  0  0  0  0  0
   11.9168  -17.8690   23.8465 C   0  0  1  0  0  0  0  0  0  0  0  0
   10.7953  -16.8218   23.7885 C   0  0  0  0  0  0  0  0  0  0  0  0
   10.5666  -16.0371   25.3839 S   0  0  0  0  0  0  0  0  0  0  0  0
   11.5610  -18.8737   24.8761 C   0  0  0  0  0  0  0  0  0  0  0  0
   10.6535  -19.7023   24.6284 O   0  0  0  0  0  0  0  0  0  0  0  0
   12.2011  -18.9233   26.1017 O   0  0  0  0  0  0  0  0  0  0  0  0
  2  1  1  6
  2  3  1  0
  3  4  1  0
  4  8  1  0
  4  5  2  0
  6  2  1  0
  7  6  2  0
  9  6  1  0
 10  9  1  0
 10 11  1  6
 11 12  1  0
 12 13  1  0
 13 14  1  0
 14 15  1  0
 16 18  1  0
 16 10  1  0
 17 16  2  0
 19 20  1  6
 19 18  1  0
 21 20  1  0
 22 19  1  0
 22 24  1  0
 23 22  2  0
M  END
$$$$
