DKC.pdb
     RDKit          3D

 24 23  0  0  1  0  0  0  0  0999 V2000
   15.9828  -12.5957   14.6625 N   0  0  0  0  0  0  0  0  0  0  0  0
   16.0762  -13.8130   15.4107 C   0  0  1  0  0  0  0  0  0  0  0  0
   17.5288  -14.0183   15.7834 C   0  0  0  0  0  0  0  0  0  0  0  0
   18.3163  -14.1634   14.5315 C   0  0  0  0  0  0  0  0  0  0  0  0
   18.0239  -15.0507   13.6706 O   0  0  0  0  0  0  0  0  0  0  0  0
   15.2112  -13.7235   16.6164 C   0  0  0  0  0  0  0  0  0  0  0  0
   15.2735  -12.7431   17.4131 O   0  0  0  0  0  0  0  0  0  0  0  0
   19.3867  -13.3462   14.2589 O   0  0  0  0  0  0  0  0  0  0  0  0
   14.2881  -14.7371   16.9101 N   0  0  0  0  0  0  0  0  0  0  0  0
   13.3794  -14.6757   18.0769 C   0  0  1  0  0  0  0  0  0  0  0  0
   12.0873  -15.2622   17.6157 C   0  0  0  0  0  0  0  0  0  0  0  0
   11.0602  -15.4725   18.6962 C   0  0  0  0  0  0  0  0  0  0  0  0
    9.8387  -16.1956   18.1164 C   0  0  0  0  0  0  0  0  0  0  0  0
    8.7801  -16.4779   19.1298 C   0  0  0  0  0  0  0  0  0  0  0  0
    7.5840  -16.9299   18.4004 N   0  0  0  0  0  0  0  0  0  0  0  0
   14.0481  -15.2619   19.2057 C   0  0  0  0  0  0  0  0  0  0  0  0
   14.5447  -16.4367   19.0690 O   0  0  0  0  0  0  0  0  0  0  0  0
   14.2382  -14.6972   20.4823 N   0  0  0  0  0  0  0  0  0  0  0  0
   14.9202  -15.4321   21.5227 C   0  0  1  0  0  0  0  0  0  0  0  0
   15.8312  -14.4159   22.2265 C   0  0  0  0  0  0  0  0  0  0  0  0
   16.8114  -15.2076   23.5015 S   0  0  0  0  0  0  0  0  0  0  0  0
   13.9742  -15.9788   22.5237 C   0  0  0  0  0  0  0  0  0  0  0  0
   12.7564  -15.6976   22.4258 O   0  0  0  0  0  0  0  0  0  0  0  0
   14.3960  -16.7898   23.5622 O   0  0  0  0  0  0  0  0  0  0  0  0
  2  1  1  1
  2  3  1  0
  3  4  1  0
  4  8  1  0
  4  5  2  0
  6  2  1  0
  7  6  2  0
  9  6  1  0
 10  9  1  0
 10 11  1  6
 11 12  1  0
 12 13  1  0
 13 14  1  0
 14 15  1  0
 16 18  1  0
 16 10  1  0
 17 16  2  0
 19 20  1  1
 19 18  1  0
 21 20  1  0
 22 19  1  0
 22 24  1  0
 23 22  2  0
M  END
$$$$
