IQL.pdb
     RDKit          3D

 26 25  0  0  1  0  0  0  0  0999 V2000
    7.6454  -11.9315   18.4851 C   0  0  0  0  0  0  0  0  0  0  0  0
    7.8832  -13.4066   18.5562 C   0  0  0  0  0  0  0  0  0  0  0  0
    7.8973  -13.9207   20.0046 C   0  0  2  0  0  0  0  0  0  0  0  0
    8.9109  -13.1467   20.7762 C   0  0  0  0  0  0  0  0  0  0  0  0
    8.1800  -15.4032   19.9006 C   0  0  2  0  0  0  0  0  0  0  0  0
    7.0685  -15.9444   19.0962 N   0  0  0  0  0  0  0  0  0  0  0  0
    8.1887  -16.1054   21.1813 C   0  0  0  0  0  0  0  0  0  0  0  0
    7.1096  -16.2322   21.8437 O   0  0  0  0  0  0  0  0  0  0  0  0
   10.8627  -20.9229   23.3197 N   0  0  0  0  0  0  0  0  0  0  0  0
   10.6157  -20.3134   24.5762 C   0  0  0  0  0  0  0  0  0  0  0  0
   10.5960  -21.0382   25.5886 O   0  0  0  0  0  0  0  0  0  0  0  0
   10.3965  -18.8483   24.6014 C   0  0  0  0  0  0  0  0  0  0  0  0
   10.4187  -18.2572   23.2029 C   0  0  0  0  0  0  0  0  0  0  0  0
    9.3169  -17.2412   23.1302 C   0  0  2  0  0  0  0  0  0  0  0  0
    9.3259  -16.6859   21.7888 N   0  0  0  0  0  0  0  0  0  0  0  0
    9.3796  -16.2120   24.1679 C   0  0  0  0  0  0  0  0  0  0  0  0
   10.3990  -15.4763   24.2036 O   0  0  0  0  0  0  0  0  0  0  0  0
    5.9943  -12.2850   26.8566 C   0  0  0  0  0  0  0  0  0  0  0  0
    7.4198  -12.8234   26.6346 C   0  0  2  0  0  0  0  0  0  0  0  0
    7.8898  -12.1432   25.3587 C   0  0  0  0  0  0  0  0  0  0  0  0
    7.2829  -14.3021   26.4724 C   0  0  0  0  0  0  0  0  0  0  0  0
    8.5530  -15.0398   26.2385 C   0  0  2  0  0  0  0  0  0  0  0  0
    8.3708  -15.9844   25.1376 N   0  0  0  0  0  0  0  0  0  0  0  0
    9.1397  -15.6769   27.4165 C   0  0  0  0  0  0  0  0  0  0  0  0
    9.9445  -15.0349   28.3383 O   0  0  0  0  0  0  0  0  0  0  0  0
    8.9094  -16.9148   27.6347 O   0  0  0  0  0  0  0  0  0  0  0  0
  1  2  1  0
  2  3  1  0
  3  5  1  0
  3  4  1  1
  5  6  1  6
  7  5  1  0
  7  8  2  0
  9 10  1  0
 10 12  1  0
 10 11  2  0
 12 13  1  0
 14 13  1  6
 14 15  1  0
 15  7  1  0
 16 14  1  0
 17 16  2  0
 19 21  1  0
 19 18  1  6
 20 19  1  0
 22 21  1  1
 22 23  1  0
 23 16  1  0
 24 22  1  0
 25 24  1  0
 26 24  2  0
M  END
$$$$
