IQL.pdb
     RDKit          3D

 26 25  0  0  1  0  0  0  0  0999 V2000
    5.4837  -11.1871   26.0381 C   0  0  0  0  0  0  0  0  0  0  0  0
    5.3723  -12.5474   25.4261 C   0  0  0  0  0  0  0  0  0  0  0  0
    6.7277  -13.2701   25.3727 C   0  0  2  0  0  0  0  0  0  0  0  0
    7.6912  -12.4226   24.6141 C   0  0  0  0  0  0  0  0  0  0  0  0
    6.4397  -14.6157   24.7441 C   0  0  2  0  0  0  0  0  0  0  0  0
    5.4465  -15.2442   25.6352 N   0  0  0  0  0  0  0  0  0  0  0  0
    7.5966  -15.5038   24.6668 C   0  0  0  0  0  0  0  0  0  0  0  0
    7.8761  -16.2697   25.6437 O   0  0  0  0  0  0  0  0  0  0  0  0
   12.5830  -17.1383   20.1121 N   0  0  0  0  0  0  0  0  0  0  0  0
   11.5278  -17.9490   20.6027 C   0  0  0  0  0  0  0  0  0  0  0  0
   11.0364  -18.8015   19.8395 O   0  0  0  0  0  0  0  0  0  0  0  0
   11.0780  -17.7272   21.9969 C   0  0  0  0  0  0  0  0  0  0  0  0
   10.0011  -16.6593   22.0719 C   0  0  0  0  0  0  0  0  0  0  0  0
    9.5723  -16.5580   23.5063 C   0  0  2  0  0  0  0  0  0  0  0  0
    8.4790  -15.6047   23.5665 N   0  0  0  0  0  0  0  0  0  0  0  0
   10.6550  -16.2349   24.4355 C   0  0  0  0  0  0  0  0  0  0  0  0
   11.0996  -15.0585   24.4319 O   0  0  0  0  0  0  0  0  0  0  0  0
    9.4856  -14.2852   28.7854 C   0  0  0  0  0  0  0  0  0  0  0  0
   10.6683  -15.2429   28.5503 C   0  0  2  0  0  0  0  0  0  0  0  0
   11.9035  -14.3883   28.7862 C   0  0  0  0  0  0  0  0  0  0  0  0
   10.5558  -15.6989   27.1323 C   0  0  0  0  0  0  0  0  0  0  0  0
   11.4423  -16.8312   26.7526 C   0  0  2  0  0  0  0  0  0  0  0  0
   11.2394  -17.1554   25.3416 N   0  0  0  0  0  0  0  0  0  0  0  0
   11.3549  -18.0154   27.6058 C   0  0  0  0  0  0  0  0  0  0  0  0
   10.5476  -19.1081   27.3531 O   0  0  0  0  0  0  0  0  0  0  0  0
   12.0639  -18.0717   28.6675 O   0  0  0  0  0  0  0  0  0  0  0  0
  1  2  1  0
  2  3  1  0
  3  5  1  0
  3  4  1  6
  5  6  1  1
  7  5  1  0
  7  8  2  0
  9 10  1  0
 10 12  1  0
 10 11  2  0
 12 13  1  0
 14 13  1  6
 14 15  1  0
 15  7  1  0
 16 14  1  0
 17 16  2  0
 19 21  1  0
 19 18  1  6
 20 19  1  0
 22 21  1  1
 22 23  1  0
 23 16  1  0
 24 22  1  0
 25 24  1  0
 26 24  2  0
M  END
$$$$
