IQL.pdb
     RDKit          3D

 26 25  0  0  1  0  0  0  0  0999 V2000
    6.2752  -11.9942   20.0509 C   0  0  0  0  0  0  0  0  0  0  0  0
    6.7251  -13.4012   19.8156 C   0  0  0  0  0  0  0  0  0  0  0  0
    7.3905  -14.0111   21.0596 C   0  0  2  0  0  0  0  0  0  0  0  0
    8.4166  -13.0571   21.5684 C   0  0  0  0  0  0  0  0  0  0  0  0
    7.9393  -15.3460   20.6064 C   0  0  2  0  0  0  0  0  0  0  0  0
    6.7521  -16.1314   20.2203 N   0  0  0  0  0  0  0  0  0  0  0  0
    8.6489  -16.0888   21.6447 C   0  0  0  0  0  0  0  0  0  0  0  0
    8.0541  -17.0163   22.2813 O   0  0  0  0  0  0  0  0  0  0  0  0
   13.6296  -18.6034   21.7605 N   0  0  0  0  0  0  0  0  0  0  0  0
   13.6370  -18.4951   23.1745 C   0  0  0  0  0  0  0  0  0  0  0  0
   14.2649  -19.3496   23.8274 O   0  0  0  0  0  0  0  0  0  0  0  0
   12.8940  -17.3675   23.7842 C   0  0  0  0  0  0  0  0  0  0  0  0
   12.1621  -16.5499   22.7347 C   0  0  0  0  0  0  0  0  0  0  0  0
   10.6919  -16.7187   22.9828 C   0  0  2  0  0  0  0  0  0  0  0  0
    9.9913  -15.8732   22.0330 N   0  0  0  0  0  0  0  0  0  0  0  0
   10.2840  -16.4727   24.3659 C   0  0  0  0  0  0  0  0  0  0  0  0
   10.9096  -17.0722   25.2775 O   0  0  0  0  0  0  0  0  0  0  0  0
    8.4809  -12.3505   26.3837 C   0  0  0  0  0  0  0  0  0  0  0  0
    7.6453  -13.3010   25.5064 C   0  0  2  0  0  0  0  0  0  0  0  0
    6.2751  -12.6462   25.4331 C   0  0  0  0  0  0  0  0  0  0  0  0
    7.6120  -14.6082   26.2283 C   0  0  0  0  0  0  0  0  0  0  0  0
    8.8612  -15.4119   26.1534 C   0  0  2  0  0  0  0  0  0  0  0  0
    9.2318  -15.6047   24.7523 N   0  0  0  0  0  0  0  0  0  0  0  0
    8.8474  -16.6716   26.8956 C   0  0  0  0  0  0  0  0  0  0  0  0
    8.9300  -17.9245   26.3187 O   0  0  0  0  0  0  0  0  0  0  0  0
    8.7528  -16.6427   28.1696 O   0  0  0  0  0  0  0  0  0  0  0  0
  1  2  1  0
  2  3  1  0
  3  5  1  0
  3  4  1  6
  5  6  1  1
  7  5  1  0
  7  8  2  0
  9 10  1  0
 10 12  1  0
 10 11  2  0
 12 13  1  0
 14 13  1  1
 14 15  1  0
 15  7  1  0
 16 14  1  0
 17 16  2  0
 19 21  1  0
 19 18  1  1
 20 19  1  0
 22 21  1  6
 22 23  1  0
 23 16  1  0
 24 22  1  0
 25 24  1  0
 26 24  2  0
M  END
$$$$
