IQL.pdb
     RDKit          3D

 26 25  0  0  1  0  0  0  0  0999 V2000
    8.0545  -11.8381   21.2458 C   0  0  0  0  0  0  0  0  0  0  0  0
    7.6183  -13.2651   21.3503 C   0  0  0  0  0  0  0  0  0  0  0  0
    8.2061  -14.1331   20.2263 C   0  0  2  0  0  0  0  0  0  0  0  0
    7.7302  -13.6044   18.9164 C   0  0  0  0  0  0  0  0  0  0  0  0
    7.7610  -15.5452   20.5364 C   0  0  2  0  0  0  0  0  0  0  0  0
    6.2896  -15.5073   20.4410 N   0  0  0  0  0  0  0  0  0  0  0  0
    8.1106  -16.0055   21.8778 C   0  0  0  0  0  0  0  0  0  0  0  0
    7.2083  -16.1097   22.7690 O   0  0  0  0  0  0  0  0  0  0  0  0
   12.9964  -19.5076   23.5408 N   0  0  0  0  0  0  0  0  0  0  0  0
   12.2726  -19.4201   24.7573 C   0  0  0  0  0  0  0  0  0  0  0  0
   12.6403  -20.1277   25.7137 O   0  0  0  0  0  0  0  0  0  0  0  0
   11.1218  -18.4883   24.8102 C   0  0  0  0  0  0  0  0  0  0  0  0
   10.9215  -17.7742   23.4852 C   0  0  0  0  0  0  0  0  0  0  0  0
    9.6879  -16.9298   23.6153 C   0  0  2  0  0  0  0  0  0  0  0  0
    9.4091  -16.3639   22.3077 N   0  0  0  0  0  0  0  0  0  0  0  0
    9.7630  -15.9145   24.6657 C   0  0  0  0  0  0  0  0  0  0  0  0
   10.8866  -15.4050   24.9100 O   0  0  0  0  0  0  0  0  0  0  0  0
    5.8385  -12.6538   26.1340 C   0  0  0  0  0  0  0  0  0  0  0  0
    7.2638  -12.7056   26.7145 C   0  0  2  0  0  0  0  0  0  0  0  0
    8.1560  -12.2350   25.5769 C   0  0  0  0  0  0  0  0  0  0  0  0
    7.5113  -14.1334   27.0768 C   0  0  0  0  0  0  0  0  0  0  0  0
    8.8273  -14.6817   26.6530 C   0  0  2  0  0  0  0  0  0  0  0  0
    8.6570  -15.4629   25.4291 N   0  0  0  0  0  0  0  0  0  0  0  0
    9.5634  -15.4207   27.6777 C   0  0  0  0  0  0  0  0  0  0  0  0
    9.7782  -16.7856   27.6602 O   0  0  0  0  0  0  0  0  0  0  0  0
   10.0539  -14.7854   28.6720 O   0  0  0  0  0  0  0  0  0  0  0  0
  1  2  1  0
  2  3  1  0
  3  5  1  0
  3  4  1  6
  5  6  1  1
  7  5  1  0
  7  8  2  0
  9 10  1  0
 10 12  1  0
 10 11  2  0
 12 13  1  0
 14 13  1  6
 14 15  1  0
 15  7  1  0
 16 14  1  0
 17 16  2  0
 19 21  1  0
 19 18  1  6
 20 19  1  0
 22 21  1  1
 22 23  1  0
 23 16  1  0
 24 22  1  0
 25 24  1  0
 26 24  2  0
M  END
$$$$
