IQL.pdb
     RDKit          3D

 26 25  0  0  1  0  0  0  0  0999 V2000
    6.2440  -11.0795   26.9015 C   0  0  0  0  0  0  0  0  0  0  0  0
    5.9051  -12.2406   26.0214 C   0  0  0  0  0  0  0  0  0  0  0  0
    7.1206  -13.1456   25.7646 C   0  0  2  0  0  0  0  0  0  0  0  0
    8.1644  -12.3530   25.0545 C   0  0  0  0  0  0  0  0  0  0  0  0
    6.5839  -14.3252   24.9843 C   0  0  2  0  0  0  0  0  0  0  0  0
    5.4409  -14.8147   25.7777 N   0  0  0  0  0  0  0  0  0  0  0  0
    7.5296  -15.4281   24.8346 C   0  0  0  0  0  0  0  0  0  0  0  0
    7.5981  -16.3321   25.7276 O   0  0  0  0  0  0  0  0  0  0  0  0
   10.8735  -17.5254   19.6069 N   0  0  0  0  0  0  0  0  0  0  0  0
    9.6724  -17.9430   20.2347 C   0  0  0  0  0  0  0  0  0  0  0  0
    8.7034  -18.2424   19.5121 O   0  0  0  0  0  0  0  0  0  0  0  0
    9.6497  -17.9956   21.7152 C   0  0  0  0  0  0  0  0  0  0  0  0
   10.0108  -16.6533   22.3263 C   0  0  0  0  0  0  0  0  0  0  0  0
    9.4448  -16.6288   23.7159 C   0  0  2  0  0  0  0  0  0  0  0  0
    8.4182  -15.6028   23.7486 N   0  0  0  0  0  0  0  0  0  0  0  0
   10.4458  -16.4599   24.7692 C   0  0  0  0  0  0  0  0  0  0  0  0
   11.4396  -15.7299   24.5224 O   0  0  0  0  0  0  0  0  0  0  0  0
   11.2174  -13.9351   27.4245 C   0  0  0  0  0  0  0  0  0  0  0  0
   10.2058  -14.9762   27.9385 C   0  0  2  0  0  0  0  0  0  0  0  0
    9.6323  -14.3581   29.2037 C   0  0  0  0  0  0  0  0  0  0  0  0
   10.9927  -16.2147   28.2179 C   0  0  0  0  0  0  0  0  0  0  0  0
   11.4656  -16.9559   27.0183 C   0  0  2  0  0  0  0  0  0  0  0  0
   10.3746  -17.0616   26.0509 N   0  0  0  0  0  0  0  0  0  0  0  0
   12.0925  -18.2503   27.2820 C   0  0  0  0  0  0  0  0  0  0  0  0
   11.6218  -19.4616   26.8122 O   0  0  0  0  0  0  0  0  0  0  0  0
   13.1520  -18.2953   27.9950 O   0  0  0  0  0  0  0  0  0  0  0  0
  1  2  1  0
  2  3  1  0
  3  5  1  0
  3  4  1  6
  5  6  1  1
  7  5  1  0
  7  8  2  0
  9 10  1  0
 10 12  1  0
 10 11  2  0
 12 13  1  0
 14 13  1  6
 14 15  1  0
 15  7  1  0
 16 14  1  0
 17 16  2  0
 19 21  1  0
 19 18  1  1
 20 19  1  0
 22 21  1  1
 22 23  1  0
 23 16  1  0
 24 22  1  0
 25 24  1  0
 26 24  2  0
M  END
$$$$
