IQL.pdb
     RDKit          3D

 26 25  0  0  1  0  0  0  0  0999 V2000
    7.1466  -12.0856   18.7730 C   0  0  0  0  0  0  0  0  0  0  0  0
    7.8210  -13.4192   18.8356 C   0  0  0  0  0  0  0  0  0  0  0  0
    7.9405  -13.9396   20.2769 C   0  0  2  0  0  0  0  0  0  0  0  0
    8.7014  -12.9430   21.0828 C   0  0  0  0  0  0  0  0  0  0  0  0
    8.6026  -15.2948   20.1598 C   0  0  2  0  0  0  0  0  0  0  0  0
    7.6719  -16.1013   19.3482 N   0  0  0  0  0  0  0  0  0  0  0  0
    8.7961  -15.9820   21.4339 C   0  0  0  0  0  0  0  0  0  0  0  0
    7.8071  -16.5320   22.0158 O   0  0  0  0  0  0  0  0  0  0  0  0
   13.8592  -18.9195   22.6297 N   0  0  0  0  0  0  0  0  0  0  0  0
   12.6996  -19.2380   21.8778 C   0  0  0  0  0  0  0  0  0  0  0  0
   12.8413  -19.8800   20.8203 O   0  0  0  0  0  0  0  0  0  0  0  0
   11.3905  -18.7839   22.4026 C   0  0  0  0  0  0  0  0  0  0  0  0
   11.5362  -17.5434   23.2661 C   0  0  0  0  0  0  0  0  0  0  0  0
   10.1893  -16.8853   23.3325 C   0  0  2  0  0  0  0  0  0  0  0  0
   10.0269  -16.1049   22.1191 N   0  0  0  0  0  0  0  0  0  0  0  0
    9.9647  -16.0977   24.5447 C   0  0  0  0  0  0  0  0  0  0  0  0
   10.3009  -14.8859   24.5276 O   0  0  0  0  0  0  0  0  0  0  0  0
    9.1448  -12.8201   26.9411 C   0  0  0  0  0  0  0  0  0  0  0  0
    8.1601  -13.6763   26.1234 C   0  0  2  0  0  0  0  0  0  0  0  0
    6.8677  -12.8754   26.1234 C   0  0  0  0  0  0  0  0  0  0  0  0
    8.0267  -14.9695   26.8591 C   0  0  0  0  0  0  0  0  0  0  0  0
    9.2662  -15.7871   26.9447 C   0  0  2  0  0  0  0  0  0  0  0  0
    9.3936  -16.6044   25.7392 N   0  0  0  0  0  0  0  0  0  0  0  0
    9.4168  -16.5802   28.1638 C   0  0  0  0  0  0  0  0  0  0  0  0
    9.4465  -17.9611   28.2042 O   0  0  0  0  0  0  0  0  0  0  0  0
    9.5308  -15.9808   29.2865 O   0  0  0  0  0  0  0  0  0  0  0  0
  1  2  1  0
  2  3  1  0
  3  5  1  0
  3  4  1  1
  5  6  1  6
  7  5  1  0
  7  8  2  0
  9 10  1  0
 10 12  1  0
 10 11  2  0
 12 13  1  0
 14 13  1  1
 14 15  1  0
 15  7  1  0
 16 14  1  0
 17 16  2  0
 19 21  1  0
 19 18  1  1
 20 19  1  0
 22 21  1  1
 22 23  1  0
 23 16  1  0
 24 22  1  0
 25 24  1  0
 26 24  2  0
M  END
$$$$
