IQL.pdb
     RDKit          3D

 26 25  0  0  1  0  0  0  0  0999 V2000
    7.8064  -12.0921   20.3278 C   0  0  0  0  0  0  0  0  0  0  0  0
    7.7152  -13.5844   20.2826 C   0  0  0  0  0  0  0  0  0  0  0  0
    8.9436  -14.2186   19.6108 C   0  0  2  0  0  0  0  0  0  0  0  0
    9.0047  -13.7573   18.1947 C   0  0  0  0  0  0  0  0  0  0  0  0
    8.7675  -15.7113   19.7815 C   0  0  2  0  0  0  0  0  0  0  0  0
    7.5676  -16.0432   18.9905 N   0  0  0  0  0  0  0  0  0  0  0  0
    8.5271  -16.1354   21.1583 C   0  0  0  0  0  0  0  0  0  0  0  0
    7.3354  -16.2418   21.5915 O   0  0  0  0  0  0  0  0  0  0  0  0
   11.4411  -20.4223   23.8320 N   0  0  0  0  0  0  0  0  0  0  0  0
   10.3876  -20.4117   22.8825 C   0  0  0  0  0  0  0  0  0  0  0  0
   10.1990  -21.4364   22.2006 O   0  0  0  0  0  0  0  0  0  0  0  0
    9.5776  -19.1767   22.7642 C   0  0  0  0  0  0  0  0  0  0  0  0
   10.0462  -18.1076   23.7353 C   0  0  0  0  0  0  0  0  0  0  0  0
    9.2387  -16.8725   23.4630 C   0  0  2  0  0  0  0  0  0  0  0  0
    9.5293  -16.4547   22.1033 N   0  0  0  0  0  0  0  0  0  0  0  0
    9.4352  -15.7994   24.4376 C   0  0  0  0  0  0  0  0  0  0  0  0
   10.5092  -15.1473   24.3836 O   0  0  0  0  0  0  0  0  0  0  0  0
    7.6417  -11.9152   25.5127 C   0  0  0  0  0  0  0  0  0  0  0  0
    6.7829  -13.1183   25.9441 C   0  0  2  0  0  0  0  0  0  0  0  0
    5.5158  -12.4983   26.5112 C   0  0  0  0  0  0  0  0  0  0  0  0
    7.5757  -13.8411   26.9834 C   0  0  0  0  0  0  0  0  0  0  0  0
    8.8245  -14.4882   26.4997 C   0  0  2  0  0  0  0  0  0  0  0  0
    8.4990  -15.4416   25.4402 N   0  0  0  0  0  0  0  0  0  0  0  0
    9.6686  -15.0845   27.5340 C   0  0  0  0  0  0  0  0  0  0  0  0
   10.4758  -14.3696   28.3982 O   0  0  0  0  0  0  0  0  0  0  0  0
    9.6813  -16.3549   27.6715 O   0  0  0  0  0  0  0  0  0  0  0  0
  1  2  1  0
  2  3  1  0
  3  5  1  0
  3  4  1  6
  5  6  1  6
  7  5  1  0
  7  8  2  0
  9 10  1  0
 10 12  1  0
 10 11  2  0
 12 13  1  0
 14 13  1  1
 14 15  1  0
 15  7  1  0
 16 14  1  0
 17 16  2  0
 19 21  1  0
 19 18  1  1
 20 19  1  0
 22 21  1  1
 22 23  1  0
 23 16  1  0
 24 22  1  0
 25 24  1  0
 26 24  2  0
M  END
$$$$
