IQL.pdb
     RDKit          3D

 26 25  0  0  1  0  0  0  0  0999 V2000
    7.9346  -12.2074   18.4811 C   0  0  0  0  0  0  0  0  0  0  0  0
    7.9100  -13.6754   18.7671 C   0  0  0  0  0  0  0  0  0  0  0  0
    7.7304  -13.9697   20.2649 C   0  0  2  0  0  0  0  0  0  0  0  0
    8.7844  -13.2390   21.0247 C   0  0  0  0  0  0  0  0  0  0  0  0
    7.7935  -15.4761   20.3875 C   0  0  2  0  0  0  0  0  0  0  0  0
    6.7024  -15.9713   19.5273 N   0  0  0  0  0  0  0  0  0  0  0  0
    7.5618  -15.9802   21.7386 C   0  0  0  0  0  0  0  0  0  0  0  0
    6.4113  -15.8671   22.2704 O   0  0  0  0  0  0  0  0  0  0  0  0
    6.3918  -19.6884   24.5420 N   0  0  0  0  0  0  0  0  0  0  0  0
    7.1749  -19.4327   25.6965 C   0  0  0  0  0  0  0  0  0  0  0  0
    6.6880  -19.7034   26.8102 O   0  0  0  0  0  0  0  0  0  0  0  0
    8.5264  -18.8581   25.5002 C   0  0  0  0  0  0  0  0  0  0  0  0
    8.7511  -18.4421   24.0573 C   0  0  0  0  0  0  0  0  0  0  0  0
    8.2712  -17.0268   23.9210 C   0  0  2  0  0  0  0  0  0  0  0  0
    8.5297  -16.6104   22.5544 N   0  0  0  0  0  0  0  0  0  0  0  0
    8.8325  -16.1046   24.9081 C   0  0  0  0  0  0  0  0  0  0  0  0
    9.9962  -15.6706   24.7103 O   0  0  0  0  0  0  0  0  0  0  0  0
    7.3687  -12.1922   26.2724 C   0  0  0  0  0  0  0  0  0  0  0  0
    6.7101  -13.4095   26.9474 C   0  0  2  0  0  0  0  0  0  0  0  0
    5.5755  -12.8212   27.7710 C   0  0  0  0  0  0  0  0  0  0  0  0
    7.7670  -14.0320   27.7998 C   0  0  0  0  0  0  0  0  0  0  0  0
    8.8026  -14.8095   27.0683 C   0  0  2  0  0  0  0  0  0  0  0  0
    8.1563  -15.6643   26.0737 N   0  0  0  0  0  0  0  0  0  0  0  0
    9.7414  -15.5550   27.9053 C   0  0  0  0  0  0  0  0  0  0  0  0
   10.6503  -14.9785   28.7721 O   0  0  0  0  0  0  0  0  0  0  0  0
    9.7447  -16.8318   27.8523 O   0  0  0  0  0  0  0  0  0  0  0  0
  1  2  1  0
  2  3  1  0
  3  5  1  0
  3  4  1  1
  5  6  1  6
  7  5  1  0
  7  8  2  0
  9 10  1  0
 10 12  1  0
 10 11  2  0
 12 13  1  0
 14 13  1  1
 14 15  1  0
 15  7  1  0
 16 14  1  0
 17 16  2  0
 19 21  1  0
 19 18  1  1
 20 19  1  0
 22 21  1  1
 22 23  1  0
 23 16  1  0
 24 22  1  0
 25 24  1  0
 26 24  2  0
M  END
$$$$
