IQL.pdb
     RDKit          3D

 26 25  0  0  1  0  0  0  0  0999 V2000
    6.2789  -10.9743   26.9601 C   0  0  0  0  0  0  0  0  0  0  0  0
    5.8705  -12.0932   26.0553 C   0  0  0  0  0  0  0  0  0  0  0  0
    7.0328  -13.0564   25.7660 C   0  0  2  0  0  0  0  0  0  0  0  0
    8.1146  -12.3037   25.0695 C   0  0  0  0  0  0  0  0  0  0  0  0
    6.4275  -14.1835   24.9588 C   0  0  2  0  0  0  0  0  0  0  0  0
    5.2429  -14.6063   25.7292 N   0  0  0  0  0  0  0  0  0  0  0  0
    7.2975  -15.3461   24.8019 C   0  0  0  0  0  0  0  0  0  0  0  0
    7.2476  -16.2957   25.6475 O   0  0  0  0  0  0  0  0  0  0  0  0
   10.2396  -17.8194   19.7833 N   0  0  0  0  0  0  0  0  0  0  0  0
   11.0631  -18.2161   20.8676 C   0  0  0  0  0  0  0  0  0  0  0  0
   12.1662  -18.7337   20.6108 O   0  0  0  0  0  0  0  0  0  0  0  0
   10.5544  -17.9873   22.2403 C   0  0  0  0  0  0  0  0  0  0  0  0
    9.6808  -16.7473   22.3115 C   0  0  0  0  0  0  0  0  0  0  0  0
    9.1722  -16.6400   23.7191 C   0  0  2  0  0  0  0  0  0  0  0  0
    8.2330  -15.5337   23.7584 N   0  0  0  0  0  0  0  0  0  0  0  0
   10.2230  -16.5248   24.7303 C   0  0  0  0  0  0  0  0  0  0  0  0
   11.2655  -15.8917   24.4236 O   0  0  0  0  0  0  0  0  0  0  0  0
   10.9381  -13.9410   27.2318 C   0  0  0  0  0  0  0  0  0  0  0  0
    9.9893  -14.9819   27.8544 C   0  0  2  0  0  0  0  0  0  0  0  0
    9.4593  -14.3108   29.1116 C   0  0  0  0  0  0  0  0  0  0  0  0
   10.8306  -16.1776   28.1606 C   0  0  0  0  0  0  0  0  0  0  0  0
   11.2581  -16.9773   26.9816 C   0  0  2  0  0  0  0  0  0  0  0  0
   10.1493  -17.0770   26.0340 N   0  0  0  0  0  0  0  0  0  0  0  0
   11.8418  -18.2836   27.2825 C   0  0  0  0  0  0  0  0  0  0  0  0
   11.3255  -19.4922   26.8557 O   0  0  0  0  0  0  0  0  0  0  0  0
   12.9052  -18.3428   27.9888 O   0  0  0  0  0  0  0  0  0  0  0  0
  1  2  1  0
  2  3  1  0
  3  5  1  0
  3  4  1  6
  5  6  1  1
  7  5  1  0
  7  8  2  0
  9 10  1  0
 10 12  1  0
 10 11  2  0
 12 13  1  0
 14 13  1  6
 14 15  1  0
 15  7  1  0
 16 14  1  0
 17 16  2  0
 19 21  1  0
 19 18  1  1
 20 19  1  0
 22 21  1  1
 22 23  1  0
 23 16  1  0
 24 22  1  0
 25 24  1  0
 26 24  2  0
M  END
$$$$
