IQL.pdb
     RDKit          3D

 26 25  0  0  1  0  0  0  0  0999 V2000
    5.5512  -11.7866   26.5520 C   0  0  0  0  0  0  0  0  0  0  0  0
    5.4325  -13.0808   25.8114 C   0  0  0  0  0  0  0  0  0  0  0  0
    6.8046  -13.7132   25.5291 C   0  0  2  0  0  0  0  0  0  0  0  0
    7.6731  -12.6958   24.8715 C   0  0  0  0  0  0  0  0  0  0  0  0
    6.5162  -14.9364   24.6870 C   0  0  2  0  0  0  0  0  0  0  0  0
    5.4926  -15.6826   25.4425 N   0  0  0  0  0  0  0  0  0  0  0  0
    7.6636  -15.8196   24.4958 C   0  0  0  0  0  0  0  0  0  0  0  0
    7.7628  -16.8892   25.1780 O   0  0  0  0  0  0  0  0  0  0  0  0
    9.5507  -18.6264   21.1068 N   0  0  0  0  0  0  0  0  0  0  0  0
   10.9489  -18.5475   21.3310 C   0  0  0  0  0  0  0  0  0  0  0  0
   11.6341  -19.5703   21.1432 O   0  0  0  0  0  0  0  0  0  0  0  0
   11.5044  -17.2479   21.7757 C   0  0  0  0  0  0  0  0  0  0  0  0
   10.4067  -16.2294   22.0274 C   0  0  0  0  0  0  0  0  0  0  0  0
    9.7871  -16.5596   23.3535 C   0  0  2  0  0  0  0  0  0  0  0  0
    8.7250  -15.5980   23.5881 N   0  0  0  0  0  0  0  0  0  0  0  0
   10.7402  -16.6296   24.4610 C   0  0  0  0  0  0  0  0  0  0  0  0
   11.7134  -17.4183   24.3486 O   0  0  0  0  0  0  0  0  0  0  0  0
   10.7681  -13.7015   27.8330 C   0  0  0  0  0  0  0  0  0  0  0  0
    9.6406  -14.7319   28.0288 C   0  0  2  0  0  0  0  0  0  0  0  0
    9.0379  -14.3851   29.3809 C   0  0  0  0  0  0  0  0  0  0  0  0
   10.3002  -16.0721   28.0281 C   0  0  0  0  0  0  0  0  0  0  0  0
   11.2479  -16.3176   26.9084 C   0  0  2  0  0  0  0  0  0  0  0  0
   10.6448  -15.8698   25.6541 N   0  0  0  0  0  0  0  0  0  0  0  0
   11.7706  -17.6796   26.8103 C   0  0  0  0  0  0  0  0  0  0  0  0
   11.0257  -18.7823   26.4379 O   0  0  0  0  0  0  0  0  0  0  0  0
   13.0003  -17.8958   27.0828 O   0  0  0  0  0  0  0  0  0  0  0  0
  1  2  1  0
  2  3  1  0
  3  5  1  0
  3  4  1  6
  5  6  1  1
  7  5  1  0
  7  8  2  0
  9 10  1  0
 10 12  1  0
 10 11  2  0
 12 13  1  0
 14 13  1  6
 14 15  1  0
 15  7  1  0
 16 14  1  0
 17 16  2  0
 19 21  1  0
 19 18  1  1
 20 19  1  0
 22 21  1  1
 22 23  1  0
 23 16  1  0
 24 22  1  0
 25 24  1  0
 26 24  2  0
M  END
$$$$
