YRF.pdb
     RDKit          3D

 35 36  0  0  1  0  0  0  0  0999 V2000
   30.8537  -26.6548  -17.1485 O   0  0  0  0  0  0  0  0  0  0  0  0
   30.0260  -25.5973  -16.8638 C   0  0  0  0  0  0  0  0  0  0  0  0
   30.5545  -24.3144  -16.7250 C   0  0  0  0  0  0  0  0  0  0  0  0
   29.7434  -23.2534  -16.4412 C   0  0  0  0  0  0  0  0  0  0  0  0
   28.3898  -23.4190  -16.2858 C   0  0  0  0  0  0  0  0  0  0  0  0
   27.5600  -22.2245  -15.9736 C   0  0  0  0  0  0  0  0  0  0  0  0
   26.7973  -21.7969  -17.2350 C   0  0  2  0  0  0  0  0  0  0  0  0
   27.7906  -21.0884  -18.0330 N   0  0  0  0  0  0  0  0  0  0  0  0
   25.7234  -20.8882  -16.7528 C   0  0  0  0  0  0  0  0  0  0  0  0
   25.9596  -19.7240  -16.4550 O   0  0  0  0  0  0  0  0  0  0  0  0
   27.8495  -24.6581  -16.4159 C   0  0  0  0  0  0  0  0  0  0  0  0
   28.6781  -25.7344  -16.7039 C   0  0  0  0  0  0  0  0  0  0  0  0
   23.6867  -19.9950  -20.5850 N   0  0  0  0  0  0  0  0  0  0  0  0
   22.4387  -19.2908  -20.7807 C   0  0  0  0  0  0  0  0  0  0  0  0
   21.6926  -19.4881  -21.7118 N   0  0  0  0  0  0  0  0  0  0  0  0
   22.0956  -18.3007  -19.7916 N   0  0  0  0  0  0  0  0  0  0  0  0
   22.8332  -18.3235  -18.5462 C   0  0  0  0  0  0  0  0  0  0  0  0
   21.9881  -18.8400  -17.4153 C   0  0  0  0  0  0  0  0  0  0  0  0
   22.2869  -20.2605  -17.1493 C   0  0  0  0  0  0  0  0  0  0  0  0
   23.3930  -20.4415  -16.0983 C   0  0  2  0  0  0  0  0  0  0  0  0
   24.3647  -21.3588  -16.6261 N   0  0  0  0  0  0  0  0  0  0  0  0
   22.8707  -20.8601  -14.8192 C   0  0  0  0  0  0  0  0  0  0  0  0
   22.6225  -22.0876  -14.5314 O   0  0  0  0  0  0  0  0  0  0  0  0
   21.0820  -19.5796  -22.4097 N   0  0  0  0  0  0  0  0  0  0  0  0
   22.6022  -19.9226  -13.7967 C   0  0  1  0  0  0  0  0  0  0  0  0
   22.0426  -20.3448  -12.5050 C   0  0  0  0  0  0  0  0  0  0  0  0
   22.8162  -19.7058  -11.3828 C   0  0  0  0  0  0  0  0  0  0  0  0
   24.1517  -20.2971  -11.2522 C   0  0  0  0  0  0  0  0  0  0  0  0
   25.2118  -19.8789  -12.0309 C   0  0  0  0  0  0  0  0  0  0  0  0
   26.4840  -20.4338  -11.8478 C   0  0  0  0  0  0  0  0  0  0  0  0
   26.7365  -21.4014  -10.9046 C   0  0  0  0  0  0  0  0  0  0  0  0
   25.6839  -21.8349  -10.1180 C   0  0  0  0  0  0  0  0  0  0  0  0
   24.4437  -21.2820  -10.3069 C   0  0  0  0  0  0  0  0  0  0  0  0
   20.5946  -20.1220  -12.4757 O   0  0  0  0  0  0  0  0  0  0  0  0
   19.7084  -20.7373  -11.6150 O   0  0  0  0  0  0  0  0  0  0  0  0
  2  1  1  0
  3  2  2  0
  4  3  1  0
  5 11  1  0
  5  4  2  0
  6  5  1  0
  7  6  1  0
  7  8  1  6
  9  7  1  0
 10  9  2  0
 11 12  2  0
 12  2  1  0
 13 14  1  0
 14 16  1  0
 15 14  2  0
 16 17  1  0
 17 18  1  0
 18 19  1  0
 20 19  1  6
 20 22  1  0
 20 21  1  0
 21  9  1  0
 22 24  1  0
 23 22  2  0
 24 25  1  0
 25 26  1  1
 26 27  1  0
 27 28  2  0
 28 29  1  0
 30 29  2  0
 31 30  1  0
 32 27  1  0
 32 31  2  0
 33 34  1  0
 33 25  1  0
 35 33  2  0
M  END
$$$$
