YRF.pdb
     RDKit          3D

 35 36  0  0  1  0  0  0  0  0999 V2000
   25.7335  -12.2679  -18.3723 O   0  0  0  0  0  0  0  0  0  0  0  0
   25.6459  -13.5085  -17.7912 C   0  0  0  0  0  0  0  0  0  0  0  0
   26.4674  -13.8340  -16.7126 C   0  0  0  0  0  0  0  0  0  0  0  0
   26.3916  -15.0643  -16.1252 C   0  0  0  0  0  0  0  0  0  0  0  0
   25.5075  -16.0115  -16.5779 C   0  0  0  0  0  0  0  0  0  0  0  0
   25.4753  -17.3344  -15.8985 C   0  0  0  0  0  0  0  0  0  0  0  0
   26.6887  -18.1608  -16.3464 C   0  0  2  0  0  0  0  0  0  0  0  0
   26.3382  -18.6173  -17.6859 N   0  0  0  0  0  0  0  0  0  0  0  0
   26.7712  -19.2886  -15.3806 C   0  0  0  0  0  0  0  0  0  0  0  0
   25.9271  -20.1758  -15.3630 O   0  0  0  0  0  0  0  0  0  0  0  0
   24.6960  -15.7200  -17.6271 C   0  0  0  0  0  0  0  0  0  0  0  0
   24.7767  -14.4678  -18.2218 C   0  0  0  0  0  0  0  0  0  0  0  0
   30.9886  -22.0591   -8.8166 N   0  0  0  0  0  0  0  0  0  0  0  0
   31.7279  -22.3766  -10.0185 C   0  0  0  0  0  0  0  0  0  0  0  0
   32.8725  -22.7672  -10.0220 N   0  0  0  0  0  0  0  0  0  0  0  0
   31.0313  -22.2037  -11.2680 N   0  0  0  0  0  0  0  0  0  0  0  0
   29.5885  -22.3189  -11.2449 C   0  0  0  0  0  0  0  0  0  0  0  0
   28.9283  -20.9684  -11.2553 C   0  0  0  0  0  0  0  0  0  0  0  0
   29.0542  -20.3380  -12.5836 C   0  0  0  0  0  0  0  0  0  0  0  0
   27.7167  -20.2851  -13.3381 C   0  0  2  0  0  0  0  0  0  0  0  0
   27.8587  -19.3677  -14.4348 N   0  0  0  0  0  0  0  0  0  0  0  0
   26.6116  -19.9495  -12.4721 C   0  0  0  0  0  0  0  0  0  0  0  0
   26.3676  -18.7503  -12.0802 O   0  0  0  0  0  0  0  0  0  0  0  0
   33.7361  -23.1121  -10.0800 N   0  0  0  0  0  0  0  0  0  0  0  0
   25.7222  -20.9423  -12.0032 C   0  0  2  0  0  0  0  0  0  0  0  0
   24.6163  -20.6062  -11.0956 C   0  0  0  0  0  0  0  0  0  0  0  0
   23.3018  -20.9229  -11.7570 C   0  0  0  0  0  0  0  0  0  0  0  0
   22.1729  -20.6134  -10.8739 C   0  0  0  0  0  0  0  0  0  0  0  0
   21.4841  -19.4207  -10.9644 C   0  0  0  0  0  0  0  0  0  0  0  0
   20.3823  -19.1774  -10.1356 C   0  0  0  0  0  0  0  0  0  0  0  0
   19.9403  -20.0932   -9.2106 C   0  0  0  0  0  0  0  0  0  0  0  0
   20.6220  -21.2926   -9.1041 C   0  0  0  0  0  0  0  0  0  0  0  0
   21.6981  -21.5184   -9.9227 C   0  0  0  0  0  0  0  0  0  0  0  0
   24.8238  -21.2242   -9.7832 O   0  0  0  0  0  0  0  0  0  0  0  0
   25.4640  -22.4260   -9.5578 O   0  0  0  0  0  0  0  0  0  0  0  0
  2  1  1  0
  3  2  2  0
  4  3  1  0
  5 11  1  0
  5  4  2  0
  6  5  1  0
  7  6  1  0
  7  8  1  6
  9  7  1  0
 10  9  2  0
 11 12  2  0
 12  2  1  0
 13 14  1  0
 14 16  1  0
 15 14  2  0
 16 17  1  0
 17 18  1  0
 18 19  1  0
 20 19  1  1
 20 22  1  0
 20 21  1  0
 21  9  1  0
 22 24  1  0
 23 22  2  0
 24 25  1  0
 25 26  1  6
 26 27  1  0
 27 28  2  0
 28 29  1  0
 30 29  2  0
 31 30  1  0
 32 27  1  0
 32 31  2  0
 33 34  1  0
 33 25  1  0
 35 33  2  0
M  END
$$$$
