YRF.pdb
     RDKit          3D

 35 36  0  0  1  0  0  0  0  0999 V2000
   27.7893  -19.8545   -4.5904 O   0  0  0  0  0  0  0  0  0  0  0  0
   27.5600  -19.8655   -5.9439 C   0  0  0  0  0  0  0  0  0  0  0  0
   26.2558  -19.7936   -6.4319 C   0  0  0  0  0  0  0  0  0  0  0  0
   26.0128  -19.8042   -7.7755 C   0  0  0  0  0  0  0  0  0  0  0  0
   27.0417  -19.8851   -8.6802 C   0  0  0  0  0  0  0  0  0  0  0  0
   26.7120  -19.8964  -10.1307 C   0  0  0  0  0  0  0  0  0  0  0  0
   26.1010  -21.2556  -10.4982 C   0  0  2  0  0  0  0  0  0  0  0  0
   27.2431  -22.1599  -10.5547 N   0  0  0  0  0  0  0  0  0  0  0  0
   25.4845  -21.0574  -11.8369 C   0  0  0  0  0  0  0  0  0  0  0  0
   26.1673  -21.0095  -12.8524 O   0  0  0  0  0  0  0  0  0  0  0  0
   28.3215  -19.9562   -8.2312 C   0  0  0  0  0  0  0  0  0  0  0  0
   28.5640  -19.9457   -6.8641 C   0  0  0  0  0  0  0  0  0  0  0  0
   21.9788  -24.7427  -16.1415 N   0  0  0  0  0  0  0  0  0  0  0  0
   22.8868  -24.9594  -15.0368 C   0  0  0  0  0  0  0  0  0  0  0  0
   23.8899  -25.6309  -15.1108 N   0  0  0  0  0  0  0  0  0  0  0  0
   22.5452  -24.3262  -13.7882 N   0  0  0  0  0  0  0  0  0  0  0  0
   21.3733  -23.4765  -13.7740 C   0  0  0  0  0  0  0  0  0  0  0  0
   21.6725  -22.1167  -14.3410 C   0  0  0  0  0  0  0  0  0  0  0  0
   22.0388  -21.1741  -13.2662 C   0  0  0  0  0  0  0  0  0  0  0  0
   23.5259  -20.7894  -13.3035 C   0  0  2  0  0  0  0  0  0  0  0  0
   24.0542  -20.9190  -11.9737 N   0  0  0  0  0  0  0  0  0  0  0  0
   23.7383  -19.4746  -13.8604 C   0  0  0  0  0  0  0  0  0  0  0  0
   23.8531  -18.4180  -13.1382 O   0  0  0  0  0  0  0  0  0  0  0  0
   24.6622  -26.1521  -15.0951 N   0  0  0  0  0  0  0  0  0  0  0  0
   23.8350  -19.2785  -15.2564 C   0  0  2  0  0  0  0  0  0  0  0  0
   24.7076  -18.2391  -15.8203 C   0  0  0  0  0  0  0  0  0  0  0  0
   26.0544  -18.2873  -15.1497 C   0  0  0  0  0  0  0  0  0  0  0  0
   26.9976  -17.3592  -15.7815 C   0  0  0  0  0  0  0  0  0  0  0  0
   28.0181  -17.8028  -16.5981 C   0  0  0  0  0  0  0  0  0  0  0  0
   28.8725  -16.8855  -17.2215 C   0  0  0  0  0  0  0  0  0  0  0  0
   28.7414  -15.5272  -17.0559 C   0  0  0  0  0  0  0  0  0  0  0  0
   27.7259  -15.0656  -16.2373 C   0  0  0  0  0  0  0  0  0  0  0  0
   26.8957  -15.9747  -15.6342 C   0  0  0  0  0  0  0  0  0  0  0  0
   24.7310  -18.3268  -17.2828 O   0  0  0  0  0  0  0  0  0  0  0  0
   25.0842  -19.4447  -18.0110 O   0  0  0  0  0  0  0  0  0  0  0  0
  2  1  1  0
  3  2  2  0
  4  3  1  0
  5 11  1  0
  5  4  2  0
  6  5  1  0
  7  6  1  0
  7  8  1  6
  9  7  1  0
 10  9  2  0
 11 12  2  0
 12  2  1  0
 13 14  1  0
 14 16  1  0
 15 14  2  0
 16 17  1  0
 17 18  1  0
 18 19  1  0
 20 19  1  1
 20 22  1  0
 20 21  1  0
 21  9  1  0
 22 24  1  0
 23 22  2  0
 24 25  1  0
 25 26  1  1
 26 27  1  0
 27 28  2  0
 28 29  1  0
 30 29  2  0
 31 30  1  0
 32 27  1  0
 32 31  2  0
 33 34  1  0
 33 25  1  0
 35 33  2  0
M  END
$$$$
