YRF.pdb
     RDKit          3D

 35 36  0  0  1  0  0  0  0  0999 V2000
   20.2120  -12.4309  -17.2318 O   0  0  0  0  0  0  0  0  0  0  0  0
   20.6729  -13.6196  -16.7227 C   0  0  0  0  0  0  0  0  0  0  0  0
   21.9789  -14.0320  -16.9848 C   0  0  0  0  0  0  0  0  0  0  0  0
   22.4505  -15.2121  -16.4856 C   0  0  0  0  0  0  0  0  0  0  0  0
   21.6556  -16.0223  -15.7141 C   0  0  0  0  0  0  0  0  0  0  0  0
   22.2262  -17.2974  -15.2029 C   0  0  0  0  0  0  0  0  0  0  0  0
   22.3486  -18.2956  -16.3623 C   0  0  2  0  0  0  0  0  0  0  0  0
   20.9913  -18.7917  -16.5546 N   0  0  0  0  0  0  0  0  0  0  0  0
   23.2623  -19.3592  -15.8671 C   0  0  0  0  0  0  0  0  0  0  0  0
   22.9020  -20.1646  -15.0178 O   0  0  0  0  0  0  0  0  0  0  0  0
   20.3796  -15.6440  -15.4438 C   0  0  0  0  0  0  0  0  0  0  0  0
   19.9039  -14.4433  -15.9539 C   0  0  0  0  0  0  0  0  0  0  0  0
   26.1370  -25.4791  -14.8838 N   0  0  0  0  0  0  0  0  0  0  0  0
   26.1184  -25.1991  -16.3026 C   0  0  0  0  0  0  0  0  0  0  0  0
   25.7031  -25.9706  -17.1362 N   0  0  0  0  0  0  0  0  0  0  0  0
   26.6348  -23.9180  -16.7134 N   0  0  0  0  0  0  0  0  0  0  0  0
   26.8391  -22.9232  -15.6818 C   0  0  0  0  0  0  0  0  0  0  0  0
   27.5775  -21.7254  -16.2108 C   0  0  0  0  0  0  0  0  0  0  0  0
   26.6320  -20.7229  -16.7390 C   0  0  0  0  0  0  0  0  0  0  0  0
   25.4686  -20.4468  -15.7741 C   0  0  2  0  0  0  0  0  0  0  0  0
   24.6061  -19.4716  -16.3820 N   0  0  0  0  0  0  0  0  0  0  0  0
   25.9255  -20.0456  -14.4648 C   0  0  0  0  0  0  0  0  0  0  0  0
   26.3731  -18.8686  -14.2091 O   0  0  0  0  0  0  0  0  0  0  0  0
   25.4517  -26.5881  -17.7872 N   0  0  0  0  0  0  0  0  0  0  0  0
   25.9014  -20.9443  -13.3747 C   0  0  2  0  0  0  0  0  0  0  0  0
   26.5401  -20.6059  -12.0951 C   0  0  0  0  0  0  0  0  0  0  0  0
   25.8236  -19.4437  -11.4611 C   0  0  0  0  0  0  0  0  0  0  0  0
   24.4951  -19.8353  -10.9798 C   0  0  0  0  0  0  0  0  0  0  0  0
   24.2622  -20.1394   -9.6537 C   0  0  0  0  0  0  0  0  0  0  0  0
   22.9713  -20.4652   -9.2206 C   0  0  0  0  0  0  0  0  0  0  0  0
   21.8946  -20.4981  -10.0745 C   0  0  0  0  0  0  0  0  0  0  0  0
   22.1112  -20.1997  -11.4082 C   0  0  0  0  0  0  0  0  0  0  0  0
   23.3799  -19.8809  -11.8184 C   0  0  0  0  0  0  0  0  0  0  0  0
   26.6678  -21.7991  -11.2541 O   0  0  0  0  0  0  0  0  0  0  0  0
   26.2013  -23.0575  -11.5758 O   0  0  0  0  0  0  0  0  0  0  0  0
  2  1  1  0
  3  2  2  0
  4  3  1  0
  5 11  1  0
  5  4  2  0
  6  5  1  0
  7  6  1  0
  7  8  1  1
  9  7  1  0
 10  9  2  0
 11 12  2  0
 12  2  1  0
 13 14  1  0
 14 16  1  0
 15 14  2  0
 16 17  1  0
 17 18  1  0
 18 19  1  0
 20 19  1  6
 20 22  1  0
 20 21  1  0
 21  9  1  0
 22 24  1  0
 23 22  2  0
 24 25  1  0
 25 26  1  6
 26 27  1  0
 27 28  2  0
 28 29  1  0
 30 29  2  0
 31 30  1  0
 32 27  1  0
 32 31  2  0
 33 34  1  0
 33 25  1  0
 35 33  2  0
M  END
$$$$
