YRF.pdb
     RDKit          3D

 35 36  0  0  1  0  0  0  0  0999 V2000
   17.9256  -16.6929  -14.8557 O   0  0  0  0  0  0  0  0  0  0  0  0
   19.0091  -17.3955  -14.3897 C   0  0  0  0  0  0  0  0  0  0  0  0
   18.8497  -18.7039  -13.9346 C   0  0  0  0  0  0  0  0  0  0  0  0
   19.9182  -19.4144  -13.4678 C   0  0  0  0  0  0  0  0  0  0  0  0
   21.1746  -18.8629  -13.4341 C   0  0  0  0  0  0  0  0  0  0  0  0
   22.2973  -19.6867  -12.9107 C   0  0  0  0  0  0  0  0  0  0  0  0
   23.3372  -19.8857  -14.0219 C   0  0  2  0  0  0  0  0  0  0  0  0
   22.6220  -20.6242  -15.0556 N   0  0  0  0  0  0  0  0  0  0  0  0
   24.4168  -20.7013  -13.4048 C   0  0  0  0  0  0  0  0  0  0  0  0
   24.2359  -21.8741  -13.1023 O   0  0  0  0  0  0  0  0  0  0  0  0
   21.3572  -17.5903  -13.8716 C   0  0  0  0  0  0  0  0  0  0  0  0
   20.2677  -16.8712  -14.3450 C   0  0  0  0  0  0  0  0  0  0  0  0
   28.1973  -23.5169  -17.0163 N   0  0  0  0  0  0  0  0  0  0  0  0
   29.4261  -23.4794  -16.2544 C   0  0  0  0  0  0  0  0  0  0  0  0
   30.1888  -24.4132  -16.1595 N   0  0  0  0  0  0  0  0  0  0  0  0
   29.7280  -22.2429  -15.5788 N   0  0  0  0  0  0  0  0  0  0  0  0
   28.8315  -21.1286  -15.8026 C   0  0  0  0  0  0  0  0  0  0  0  0
   27.6097  -21.2216  -14.9317 C   0  0  0  0  0  0  0  0  0  0  0  0
   27.9514  -20.9390  -13.5241 C   0  0  0  0  0  0  0  0  0  0  0  0
   26.7249  -20.9905  -12.6000 C   0  0  2  0  0  0  0  0  0  0  0  0
   25.7160  -20.1270  -13.1484 N   0  0  0  0  0  0  0  0  0  0  0  0
   27.0542  -20.6627  -11.2332 C   0  0  0  0  0  0  0  0  0  0  0  0
   28.1437  -20.0697  -10.8978 O   0  0  0  0  0  0  0  0  0  0  0  0
   30.8310  -25.0843  -16.0856 N   0  0  0  0  0  0  0  0  0  0  0  0
   26.1765  -20.9817  -10.1728 C   0  0  1  0  0  0  0  0  0  0  0  0
   26.6576  -21.0697   -8.7870 C   0  0  0  0  0  0  0  0  0  0  0  0
   27.6169  -19.9434   -8.5095 C   0  0  0  0  0  0  0  0  0  0  0  0
   27.9953  -19.9025   -7.0934 C   0  0  0  0  0  0  0  0  0  0  0  0
   29.0051  -20.6957   -6.5870 C   0  0  0  0  0  0  0  0  0  0  0  0
   29.3707  -20.5978   -5.2392 C   0  0  0  0  0  0  0  0  0  0  0  0
   28.7566  -19.7265   -4.3711 C   0  0  0  0  0  0  0  0  0  0  0  0
   27.7395  -18.9268   -4.8615 C   0  0  0  0  0  0  0  0  0  0  0  0
   27.3927  -19.0318   -6.1837 C   0  0  0  0  0  0  0  0  0  0  0  0
   25.5293  -21.1766   -7.8580 O   0  0  0  0  0  0  0  0  0  0  0  0
   25.5978  -21.6689   -6.5705 O   0  0  0  0  0  0  0  0  0  0  0  0
  2  1  1  0
  3  2  2  0
  4  3  1  0
  5 11  1  0
  5  4  2  0
  6  5  1  0
  7  6  1  0
  7  8  1  6
  9  7  1  0
 10  9  2  0
 11 12  2  0
 12  2  1  0
 13 14  1  0
 14 16  1  0
 15 14  2  0
 16 17  1  0
 17 18  1  0
 18 19  1  0
 20 19  1  6
 20 22  1  0
 20 21  1  0
 21  9  1  0
 22 24  1  0
 23 22  2  0
 24 25  1  0
 25 26  1  1
 26 27  1  0
 27 28  2  0
 28 29  1  0
 30 29  2  0
 31 30  1  0
 32 27  1  0
 32 31  2  0
 33 34  1  0
 33 25  1  0
 35 33  2  0
M  END
$$$$
