KSY.pdb
     RDKit          3D

 28 28  0  0  1  0  0  0  0  0999 V2000
   28.9276  -20.0507  -22.1932 N   0  0  0  0  0  0  0  0  0  0  0  0
   27.9081  -19.4722  -21.3728 C   0  0  1  0  0  0  0  0  0  0  0  0
   26.6045  -20.1914  -21.4501 C   0  0  0  0  0  0  0  0  0  0  0  0
   26.5597  -21.4885  -20.7225 C   0  0  0  0  0  0  0  0  0  0  0  0
   25.3123  -22.2845  -20.8826 C   0  0  0  0  0  0  0  0  0  0  0  0
   25.3631  -23.6103  -20.1480 C   0  0  0  0  0  0  0  0  0  0  0  0
   24.1362  -24.3546  -20.3367 N   0  0  0  0  0  0  0  0  0  0  0  0
   28.3595  -19.2496  -19.9713 C   0  0  0  0  0  0  0  0  0  0  0  0
   29.1754  -20.0325  -19.4086 O   0  0  0  0  0  0  0  0  0  0  0  0
   27.0606  -15.9458  -17.6970 O   0  0  0  0  0  0  0  0  0  0  0  0
   28.3521  -16.4110  -17.5438 C   0  0  0  0  0  0  0  0  0  0  0  0
   28.3747  -17.8937  -17.8275 C   0  0  2  0  0  0  0  0  0  0  0  0
   27.9060  -18.1550  -19.1883 N   0  0  0  0  0  0  0  0  0  0  0  0
   27.5873  -18.6206  -16.8328 C   0  0  0  0  0  0  0  0  0  0  0  0
   26.3791  -18.9742  -17.0822 O   0  0  0  0  0  0  0  0  0  0  0  0
   24.6973  -21.4433   -8.9696 O   0  0  0  0  0  0  0  0  0  0  0  0
   25.4928  -21.0172  -10.0254 C   0  0  0  0  0  0  0  0  0  0  0  0
   26.1049  -21.9317  -10.8632 C   0  0  0  0  0  0  0  0  0  0  0  0
   26.8920  -21.5017  -11.9076 C   0  0  0  0  0  0  0  0  0  0  0  0
   27.1140  -20.1686  -12.1767 C   0  0  0  0  0  0  0  0  0  0  0  0
   27.9516  -19.6483  -13.2731 C   0  0  0  0  0  0  0  0  0  0  0  0
   27.1488  -19.5290  -14.5249 C   0  0  2  0  0  0  0  0  0  0  0  0
   28.0581  -18.9908  -15.5564 N   0  0  0  0  0  0  0  0  0  0  0  0
   26.0164  -18.6084  -14.3130 C   0  0  0  0  0  0  0  0  0  0  0  0
   24.7339  -19.0199  -14.0230 O   0  0  0  0  0  0  0  0  0  0  0  0
   26.4898  -19.2656  -11.3231 C   0  0  0  0  0  0  0  0  0  0  0  0
   25.7017  -19.6815  -10.2775 C   0  0  0  0  0  0  0  0  0  0  0  0
   26.2215  -17.3715  -14.4022 O   0  0  0  0  0  0  0  0  0  0  0  0
  2  1  1  6
  3  2  1  0
  3  4  1  0
  4  5  1  0
  5  6  1  0
  7  6  1  0
  8  9  2  0
  8  2  1  0
 10 11  1  0
 12 11  1  1
 12 14  1  0
 12 13  1  0
 13  8  1  0
 14 23  1  0
 15 14  2  0
 16 17  1  0
 17 18  2  0
 17 27  1  0
 18 19  1  0
 19 20  2  0
 20 21  1  0
 22 21  1  1
 22 24  1  0
 23 22  1  0
 24 28  2  0
 24 25  1  0
 26 20  1  0
 27 26  2  0
M  END
$$$$
