KSY.pdb
     RDKit          3D

 28 28  0  0  1  0  0  0  0  0999 V2000
   21.8378  -22.5822  -15.2899 N   0  0  0  0  0  0  0  0  0  0  0  0
   22.1941  -21.6106  -14.3019 C   0  0  1  0  0  0  0  0  0  0  0  0
   21.0732  -21.2584  -13.3843 C   0  0  0  0  0  0  0  0  0  0  0  0
   19.7366  -21.1702  -14.0318 C   0  0  0  0  0  0  0  0  0  0  0  0
   19.6961  -21.4674  -15.4897 C   0  0  0  0  0  0  0  0  0  0  0  0
   18.2994  -21.3647  -16.0717 C   0  0  0  0  0  0  0  0  0  0  0  0
   18.2837  -21.7813  -17.4577 N   0  0  0  0  0  0  0  0  0  0  0  0
   23.4430  -21.9672  -13.5733 C   0  0  0  0  0  0  0  0  0  0  0  0
   23.5596  -23.0667  -12.9627 O   0  0  0  0  0  0  0  0  0  0  0  0
   26.6944  -19.3084  -13.2917 O   0  0  0  0  0  0  0  0  0  0  0  0
   26.9602  -20.6628  -13.3428 C   0  0  0  0  0  0  0  0  0  0  0  0
   25.7837  -21.4141  -12.7676 C   0  0  2  0  0  0  0  0  0  0  0  0
   24.5686  -21.1029  -13.5200 N   0  0  0  0  0  0  0  0  0  0  0  0
   25.6311  -21.1199  -11.3434 C   0  0  0  0  0  0  0  0  0  0  0  0
   24.6291  -20.4411  -10.9167 O   0  0  0  0  0  0  0  0  0  0  0  0
   28.4693  -18.7570   -3.3182 O   0  0  0  0  0  0  0  0  0  0  0  0
   28.3049  -19.3827   -4.5472 C   0  0  0  0  0  0  0  0  0  0  0  0
   27.4258  -20.4410   -4.6896 C   0  0  0  0  0  0  0  0  0  0  0  0
   27.2682  -21.0561   -5.9111 C   0  0  0  0  0  0  0  0  0  0  0  0
   27.9581  -20.6669   -7.0386 C   0  0  0  0  0  0  0  0  0  0  0  0
   27.8379  -21.2908   -8.3693 C   0  0  0  0  0  0  0  0  0  0  0  0
   26.5457  -20.9042   -9.0066 C   0  0  2  0  0  0  0  0  0  0  0  0
   26.5303  -21.5369  -10.3407 N   0  0  0  0  0  0  0  0  0  0  0  0
   26.4655  -19.4375   -9.1369 C   0  0  0  0  0  0  0  0  0  0  0  0
   25.6819  -18.6355   -8.3362 O   0  0  0  0  0  0  0  0  0  0  0  0
   28.8365  -19.6014   -6.8744 C   0  0  0  0  0  0  0  0  0  0  0  0
   29.0030  -18.9788   -5.6611 C   0  0  0  0  0  0  0  0  0  0  0  0
   27.1470  -18.8745  -10.0304 O   0  0  0  0  0  0  0  0  0  0  0  0
  2  1  1  1
  3  2  1  0
  3  4  1  0
  4  5  1  0
  5  6  1  0
  7  6  1  0
  8  9  2  0
  8  2  1  0
 10 11  1  0
 12 11  1  6
 12 14  1  0
 12 13  1  0
 13  8  1  0
 14 23  1  0
 15 14  2  0
 16 17  1  0
 17 18  2  0
 17 27  1  0
 18 19  1  0
 19 20  2  0
 20 21  1  0
 22 21  1  6
 22 24  1  0
 23 22  1  0
 24 28  2  0
 24 25  1  0
 26 20  1  0
 27 26  2  0
M  END
$$$$
