KSY.pdb
     RDKit          3D

 28 28  0  0  1  0  0  0  0  0999 V2000
   27.5163  -23.3440  -15.8612 N   0  0  0  0  0  0  0  0  0  0  0  0
   27.3129  -22.1731  -15.0645 C   0  0  1  0  0  0  0  0  0  0  0  0
   27.4191  -20.9030  -15.8378 C   0  0  0  0  0  0  0  0  0  0  0  0
   27.1284  -21.0277  -17.2917 C   0  0  0  0  0  0  0  0  0  0  0  0
   27.4217  -19.8275  -18.1218 C   0  0  0  0  0  0  0  0  0  0  0  0
   27.1533  -20.0538  -19.5972 C   0  0  0  0  0  0  0  0  0  0  0  0
   27.4923  -18.8790  -20.3716 N   0  0  0  0  0  0  0  0  0  0  0  0
   26.0702  -22.2462  -14.2471 C   0  0  0  0  0  0  0  0  0  0  0  0
   25.0091  -22.7567  -14.7038 O   0  0  0  0  0  0  0  0  0  0  0  0
   25.5152  -20.0207  -10.7282 O   0  0  0  0  0  0  0  0  0  0  0  0
   25.0706  -21.3282  -10.7041 C   0  0  0  0  0  0  0  0  0  0  0  0
   24.7770  -21.7711  -12.1173 C   0  0  2  0  0  0  0  0  0  0  0  0
   26.0013  -21.7519  -12.9175 N   0  0  0  0  0  0  0  0  0  0  0  0
   23.7280  -20.9424  -12.7094 C   0  0  0  0  0  0  0  0  0  0  0  0
   24.0238  -19.9594  -13.4796 O   0  0  0  0  0  0  0  0  0  0  0  0
   17.5598  -17.5953  -17.5178 O   0  0  0  0  0  0  0  0  0  0  0  0
   18.4851  -18.3518  -16.8103 C   0  0  0  0  0  0  0  0  0  0  0  0
   18.1235  -19.5592  -16.2408 C   0  0  0  0  0  0  0  0  0  0  0  0
   19.0463  -20.3034  -15.5408 C   0  0  0  0  0  0  0  0  0  0  0  0
   20.3534  -19.9029  -15.3679 C   0  0  0  0  0  0  0  0  0  0  0  0
   21.3829  -20.6513  -14.6233 C   0  0  0  0  0  0  0  0  0  0  0  0
   21.3410  -20.2883  -13.1769 C   0  0  2  0  0  0  0  0  0  0  0  0
   22.3464  -21.1343  -12.5032 N   0  0  0  0  0  0  0  0  0  0  0  0
   19.9989  -20.5560  -12.6276 C   0  0  0  0  0  0  0  0  0  0  0  0
   19.0448  -19.5841  -12.4192 O   0  0  0  0  0  0  0  0  0  0  0  0
   20.6966  -18.6866  -15.9481 C   0  0  0  0  0  0  0  0  0  0  0  0
   19.7856  -17.9343  -16.6492 C   0  0  0  0  0  0  0  0  0  0  0  0
   19.6969  -21.7382  -12.3255 O   0  0  0  0  0  0  0  0  0  0  0  0
  2  1  1  6
  3  2  1  0
  3  4  1  0
  4  5  1  0
  5  6  1  0
  7  6  1  0
  8  9  2  0
  8  2  1  0
 10 11  1  0
 12 11  1  1
 12 14  1  0
 12 13  1  0
 13  8  1  0
 14 23  1  0
 15 14  2  0
 16 17  1  0
 17 18  2  0
 17 27  1  0
 18 19  1  0
 19 20  2  0
 20 21  1  0
 22 21  1  6
 22 24  1  0
 23 22  1  0
 24 28  2  0
 24 25  1  0
 26 20  1  0
 27 26  2  0
M  END
$$$$
