KSY.pdb
     RDKit          3D

 28 28  0  0  1  0  0  0  0  0999 V2000
   20.5669  -11.8433  -16.1471 N   0  0  0  0  0  0  0  0  0  0  0  0
   19.4948  -10.8976  -16.0887 C   0  0  1  0  0  0  0  0  0  0  0  0
   18.1635  -11.4889  -16.4054 C   0  0  0  0  0  0  0  0  0  0  0  0
   18.1778  -12.5369  -17.4614 C   0  0  0  0  0  0  0  0  0  0  0  0
   16.8560  -13.1172  -17.8239 C   0  0  0  0  0  0  0  0  0  0  0  0
   16.9451  -14.1169  -18.9608 C   0  0  0  0  0  0  0  0  0  0  0  0
   15.6696  -14.7635  -19.1834 N   0  0  0  0  0  0  0  0  0  0  0  0
   19.4899  -10.1162  -14.8209 C   0  0  0  0  0  0  0  0  0  0  0  0
   19.5582  -10.6847  -13.6952 O   0  0  0  0  0  0  0  0  0  0  0  0
   19.0884   -5.9707  -14.8489 O   0  0  0  0  0  0  0  0  0  0  0  0
   19.8803   -6.5025  -13.8500 C   0  0  0  0  0  0  0  0  0  0  0  0
   19.4256   -7.9136  -13.5645 C   0  0  2  0  0  0  0  0  0  0  0  0
   19.4088   -8.6985  -14.7986 N   0  0  0  0  0  0  0  0  0  0  0  0
   18.1207   -7.9108  -12.9047 C   0  0  0  0  0  0  0  0  0  0  0  0
   17.0396   -8.0212  -13.5870 O   0  0  0  0  0  0  0  0  0  0  0  0
   11.6239   -7.6976   -6.9666 O   0  0  0  0  0  0  0  0  0  0  0  0
   12.8702   -7.7723   -7.5752 C   0  0  0  0  0  0  0  0  0  0  0  0
   13.8092   -6.7743   -7.3878 C   0  0  0  0  0  0  0  0  0  0  0  0
   15.0425   -6.8554   -7.9944 C   0  0  0  0  0  0  0  0  0  0  0  0
   15.4090   -7.9077   -8.8050 C   0  0  0  0  0  0  0  0  0  0  0  0
   16.7091   -8.0458   -9.4870 C   0  0  0  0  0  0  0  0  0  0  0  0
   16.5795   -7.6761  -10.9265 C   0  0  2  0  0  0  0  0  0  0  0  0
   17.9297   -7.7935  -11.5127 N   0  0  0  0  0  0  0  0  0  0  0  0
   16.0886   -6.2910  -11.0502 C   0  0  0  0  0  0  0  0  0  0  0  0
   16.9042   -5.1808  -11.0288 O   0  0  0  0  0  0  0  0  0  0  0  0
   14.4510   -8.9003   -8.9804 C   0  0  0  0  0  0  0  0  0  0  0  0
   13.2169   -8.8316   -8.3808 C   0  0  0  0  0  0  0  0  0  0  0  0
   14.8533   -6.0997  -11.1813 O   0  0  0  0  0  0  0  0  0  0  0  0
  2  1  1  1
  3  2  1  0
  3  4  1  0
  4  5  1  0
  5  6  1  0
  7  6  1  0
  8  9  2  0
  8  2  1  0
 10 11  1  0
 12 11  1  6
 12 14  1  0
 12 13  1  0
 13  8  1  0
 14 23  1  0
 15 14  2  0
 16 17  1  0
 17 18  2  0
 17 27  1  0
 18 19  1  0
 19 20  2  0
 20 21  1  0
 22 21  1  1
 22 24  1  0
 23 22  1  0
 24 28  2  0
 24 25  1  0
 26 20  1  0
 27 26  2  0
M  END
$$$$
