KSY.pdb
     RDKit          3D

 28 28  0  0  1  0  0  0  0  0999 V2000
   27.8467  -21.1787  -16.7364 N   0  0  0  0  0  0  0  0  0  0  0  0
   26.4720  -21.5625  -16.8354 C   0  0  1  0  0  0  0  0  0  0  0  0
   26.2758  -23.0312  -16.9996 C   0  0  0  0  0  0  0  0  0  0  0  0
   27.4356  -23.7574  -17.5838 C   0  0  0  0  0  0  0  0  0  0  0  0
   28.1978  -24.6301  -16.6496 C   0  0  0  0  0  0  0  0  0  0  0  0
   29.3704  -25.3225  -17.3171 C   0  0  0  0  0  0  0  0  0  0  0  0
   30.1040  -26.1310  -16.3669 N   0  0  0  0  0  0  0  0  0  0  0  0
   25.6382  -20.9899  -15.7424 C   0  0  0  0  0  0  0  0  0  0  0  0
   26.1598  -20.4073  -14.7506 O   0  0  0  0  0  0  0  0  0  0  0  0
   22.9376  -18.5092  -16.0289 O   0  0  0  0  0  0  0  0  0  0  0  0
   23.4946  -18.9209  -14.8339 C   0  0  0  0  0  0  0  0  0  0  0  0
   23.3811  -20.4231  -14.7332 C   0  0  2  0  0  0  0  0  0  0  0  0
   24.2198  -21.0624  -15.7467 N   0  0  0  0  0  0  0  0  0  0  0  0
   21.9844  -20.8425  -14.8406 C   0  0  0  0  0  0  0  0  0  0  0  0
   21.4265  -20.9803  -15.9880 O   0  0  0  0  0  0  0  0  0  0  0  0
   20.1686  -27.7840  -14.0765 O   0  0  0  0  0  0  0  0  0  0  0  0
   19.9518  -26.4499  -13.7568 C   0  0  0  0  0  0  0  0  0  0  0  0
   18.6834  -25.9031  -13.8281 C   0  0  0  0  0  0  0  0  0  0  0  0
   18.4763  -24.5799  -13.5095 C   0  0  0  0  0  0  0  0  0  0  0  0
   19.4925  -23.7392  -13.1105 C   0  0  0  0  0  0  0  0  0  0  0  0
   19.3341  -22.3145  -12.7650 C   0  0  0  0  0  0  0  0  0  0  0  0
   19.7208  -21.4560  -13.9222 C   0  0  2  0  0  0  0  0  0  0  0  0
   21.1488  -21.1267  -13.7411 N   0  0  0  0  0  0  0  0  0  0  0  0
   18.9105  -20.2239  -13.9302 C   0  0  0  0  0  0  0  0  0  0  0  0
   17.5582  -20.1939  -14.1924 O   0  0  0  0  0  0  0  0  0  0  0  0
   20.7597  -24.3082  -13.0452 C   0  0  0  0  0  0  0  0  0  0  0  0
   20.9799  -25.6272  -13.3602 C   0  0  0  0  0  0  0  0  0  0  0  0
   19.4777  -19.1289  -13.6869 O   0  0  0  0  0  0  0  0  0  0  0  0
  2  1  1  1
  3  2  1  0
  3  4  1  0
  4  5  1  0
  5  6  1  0
  7  6  1  0
  8  9  2  0
  8  2  1  0
 10 11  1  0
 12 11  1  6
 12 14  1  0
 12 13  1  0
 13  8  1  0
 14 23  1  0
 15 14  2  0
 16 17  1  0
 17 18  2  0
 17 27  1  0
 18 19  1  0
 19 20  2  0
 20 21  1  0
 22 21  1  1
 22 24  1  0
 23 22  1  0
 24 28  2  0
 24 25  1  0
 26 20  1  0
 27 26  2  0
M  END
$$$$
