KSY.pdb
     RDKit          3D

 28 28  0  0  1  0  0  0  0  0999 V2000
   26.2289  -28.2251  -22.9701 N   0  0  0  0  0  0  0  0  0  0  0  0
   27.3981  -29.0498  -22.9701 C   0  0  1  0  0  0  0  0  0  0  0  0
   28.6687  -28.2786  -23.0860 C   0  0  0  0  0  0  0  0  0  0  0  0
   28.8802  -27.6120  -24.3992 C   0  0  0  0  0  0  0  0  0  0  0  0
   30.1556  -26.8600  -24.5521 C   0  0  0  0  0  0  0  0  0  0  0  0
   30.3475  -26.3072  -25.9513 C   0  0  0  0  0  0  0  0  0  0  0  0
   31.5761  -25.5478  -26.0443 N   0  0  0  0  0  0  0  0  0  0  0  0
   27.4147  -30.0185  -21.8392 C   0  0  0  0  0  0  0  0  0  0  0  0
   26.7617  -29.8065  -20.7791 O   0  0  0  0  0  0  0  0  0  0  0  0
   29.8553  -33.3615  -21.9373 O   0  0  0  0  0  0  0  0  0  0  0  0
   28.6350  -33.5521  -21.3192 C   0  0  0  0  0  0  0  0  0  0  0  0
   28.1320  -32.2229  -20.8094 C   0  0  2  0  0  0  0  0  0  0  0  0
   28.1577  -31.2281  -21.8815 N   0  0  0  0  0  0  0  0  0  0  0  0
   28.9074  -31.7898  -19.6478 C   0  0  0  0  0  0  0  0  0  0  0  0
   29.8924  -30.9783  -19.7812 O   0  0  0  0  0  0  0  0  0  0  0  0
   24.9459  -27.2292  -16.7077 O   0  0  0  0  0  0  0  0  0  0  0  0
   25.8082  -28.3056  -16.5442 C   0  0  0  0  0  0  0  0  0  0  0  0
   25.3295  -29.6031  -16.5571 C   0  0  0  0  0  0  0  0  0  0  0  0
   26.1905  -30.6650  -16.3944 C   0  0  0  0  0  0  0  0  0  0  0  0
   27.5472  -30.5063  -16.2129 C   0  0  0  0  0  0  0  0  0  0  0  0
   28.5161  -31.6019  -16.0255 C   0  0  0  0  0  0  0  0  0  0  0  0
   29.4458  -31.6744  -17.1900 C   0  0  2  0  0  0  0  0  0  0  0  0
   28.6587  -32.2020  -18.3226 N   0  0  0  0  0  0  0  0  0  0  0  0
   30.5690  -32.5797  -16.8842 C   0  0  0  0  0  0  0  0  0  0  0  0
   30.8150  -33.7558  -17.5584 O   0  0  0  0  0  0  0  0  0  0  0  0
   28.0082  -29.1943  -16.2031 C   0  0  0  0  0  0  0  0  0  0  0  0
   27.1598  -28.1259  -16.3646 C   0  0  0  0  0  0  0  0  0  0  0  0
   31.3544  -32.2709  -15.9527 O   0  0  0  0  0  0  0  0  0  0  0  0
  2  1  1  1
  3  2  1  0
  3  4  1  0
  4  5  1  0
  5  6  1  0
  7  6  1  0
  8  9  2  0
  8  2  1  0
 10 11  1  0
 12 11  1  6
 12 14  1  0
 12 13  1  0
 13  8  1  0
 14 23  1  0
 15 14  2  0
 16 17  1  0
 17 18  2  0
 17 27  1  0
 18 19  1  0
 19 20  2  0
 20 21  1  0
 22 21  1  1
 22 24  1  0
 23 22  1  0
 24 28  2  0
 24 25  1  0
 26 20  1  0
 27 26  2  0
M  END
$$$$
