KSY.pdb
     RDKit          3D

 28 28  0  0  1  0  0  0  0  0999 V2000
   20.7563  -12.8072  -20.1975 N   0  0  0  0  0  0  0  0  0  0  0  0
   19.7968  -12.1907  -19.3337 C   0  0  1  0  0  0  0  0  0  0  0  0
   19.3864  -13.0542  -18.1897 C   0  0  0  0  0  0  0  0  0  0  0  0
   18.6185  -14.2715  -18.5667 C   0  0  0  0  0  0  0  0  0  0  0  0
   18.0685  -15.0722  -17.4390 C   0  0  0  0  0  0  0  0  0  0  0  0
   17.3763  -16.3400  -17.9013 C   0  0  0  0  0  0  0  0  0  0  0  0
   16.8856  -17.1030  -16.7736 N   0  0  0  0  0  0  0  0  0  0  0  0
   20.2076  -10.8251  -18.9046 C   0  0  0  0  0  0  0  0  0  0  0  0
   21.3858  -10.5806  -18.5208 O   0  0  0  0  0  0  0  0  0  0  0  0
   19.3259   -6.0880  -18.9515 O   0  0  0  0  0  0  0  0  0  0  0  0
   18.8509   -7.3534  -19.2356 C   0  0  0  0  0  0  0  0  0  0  0  0
   19.7050   -8.3694  -18.5159 C   0  0  2  0  0  0  0  0  0  0  0  0
   19.3102   -9.7244  -18.9001 N   0  0  0  0  0  0  0  0  0  0  0  0
   19.6313   -8.1719  -17.0690 C   0  0  0  0  0  0  0  0  0  0  0  0
   18.7395   -8.7728  -16.3687 O   0  0  0  0  0  0  0  0  0  0  0  0
   21.4017   -6.9558   -8.6116 O   0  0  0  0  0  0  0  0  0  0  0  0
   21.4737   -7.0313   -9.9965 C   0  0  0  0  0  0  0  0  0  0  0  0
   21.5930   -8.2537  -10.6325 C   0  0  0  0  0  0  0  0  0  0  0  0
   21.6638   -8.3205  -12.0058 C   0  0  0  0  0  0  0  0  0  0  0  0
   21.6217   -7.2036  -12.8117 C   0  0  0  0  0  0  0  0  0  0  0  0
   21.7011   -7.2114  -14.2841 C   0  0  0  0  0  0  0  0  0  0  0  0
   20.3330   -7.1512  -14.8758 C   0  0  2  0  0  0  0  0  0  0  0  0
   20.4971   -7.3387  -16.3313 N   0  0  0  0  0  0  0  0  0  0  0  0
   19.7190   -5.8398  -14.5968 C   0  0  0  0  0  0  0  0  0  0  0  0
   18.9436   -5.5731  -13.4896 O   0  0  0  0  0  0  0  0  0  0  0  0
   21.5014   -5.9848  -12.1530 C   0  0  0  0  0  0  0  0  0  0  0  0
   21.4296   -5.9043  -10.7834 C   0  0  0  0  0  0  0  0  0  0  0  0
   19.9059   -4.9019  -15.4125 O   0  0  0  0  0  0  0  0  0  0  0  0
  2  1  1  1
  3  2  1  0
  3  4  1  0
  4  5  1  0
  5  6  1  0
  7  6  1  0
  8  9  2  0
  8  2  1  0
 10 11  1  0
 12 11  1  6
 12 14  1  0
 12 13  1  0
 13  8  1  0
 14 23  1  0
 15 14  2  0
 16 17  1  0
 17 18  2  0
 17 27  1  0
 18 19  1  0
 19 20  2  0
 20 21  1  0
 22 21  1  1
 22 24  1  0
 23 22  1  0
 24 28  2  0
 24 25  1  0
 26 20  1  0
 27 26  2  0
M  END
$$$$
