KSY.pdb
     RDKit          3D

 28 28  0  0  1  0  0  0  0  0999 V2000
   29.2863  -24.3559  -18.4771 N   0  0  0  0  0  0  0  0  0  0  0  0
   30.2202  -23.3887  -17.9879 C   0  0  1  0  0  0  0  0  0  0  0  0
   31.2911  -23.0487  -18.9678 C   0  0  0  0  0  0  0  0  0  0  0  0
   31.8629  -24.2107  -19.7003 C   0  0  0  0  0  0  0  0  0  0  0  0
   30.9666  -24.8617  -20.6944 C   0  0  0  0  0  0  0  0  0  0  0  0
   31.6649  -25.9441  -21.4948 C   0  0  0  0  0  0  0  0  0  0  0  0
   30.7471  -26.5824  -22.4140 N   0  0  0  0  0  0  0  0  0  0  0  0
   29.5524  -22.1826  -17.4248 C   0  0  0  0  0  0  0  0  0  0  0  0
   30.2136  -21.1642  -17.0770 O   0  0  0  0  0  0  0  0  0  0  0  0
   25.8116  -21.2154  -18.2937 O   0  0  0  0  0  0  0  0  0  0  0  0
   26.6040  -20.2647  -17.6804 C   0  0  0  0  0  0  0  0  0  0  0  0
   27.4772  -20.9445  -16.6534 C   0  0  2  0  0  0  0  0  0  0  0  0
   28.1459  -22.1028  -17.2456 N   0  0  0  0  0  0  0  0  0  0  0  0
   26.6945  -21.3131  -15.4746 C   0  0  0  0  0  0  0  0  0  0  0  0
   26.1603  -22.4760  -15.3783 O   0  0  0  0  0  0  0  0  0  0  0  0
   22.5444  -21.1377   -7.6737 O   0  0  0  0  0  0  0  0  0  0  0  0
   23.3133  -20.8134   -8.7839 C   0  0  0  0  0  0  0  0  0  0  0  0
   22.7357  -20.2336   -9.8989 C   0  0  0  0  0  0  0  0  0  0  0  0
   23.5044  -19.9149  -10.9956 C   0  0  0  0  0  0  0  0  0  0  0  0
   24.8614  -20.1476  -11.0504 C   0  0  0  0  0  0  0  0  0  0  0  0
   25.7341  -19.8362  -12.1975 C   0  0  0  0  0  0  0  0  0  0  0  0
   25.5713  -20.8654  -13.2651 C   0  0  2  0  0  0  0  0  0  0  0  0
   26.4609  -20.4642  -14.3733 N   0  0  0  0  0  0  0  0  0  0  0  0
   24.1701  -20.9008  -13.7233 C   0  0  0  0  0  0  0  0  0  0  0  0
   23.6530  -20.0591  -14.6837 O   0  0  0  0  0  0  0  0  0  0  0  0
   25.4227  -20.7309   -9.9197 C   0  0  0  0  0  0  0  0  0  0  0  0
   24.6670  -21.0536   -8.8187 C   0  0  0  0  0  0  0  0  0  0  0  0
   23.3908  -21.7442  -13.2121 O   0  0  0  0  0  0  0  0  0  0  0  0
  2  1  1  6
  3  2  1  0
  3  4  1  0
  4  5  1  0
  5  6  1  0
  7  6  1  0
  8  9  2  0
  8  2  1  0
 10 11  1  0
 12 11  1  6
 12 14  1  0
 12 13  1  0
 13  8  1  0
 14 23  1  0
 15 14  2  0
 16 17  1  0
 17 18  2  0
 17 27  1  0
 18 19  1  0
 19 20  2  0
 20 21  1  0
 22 21  1  1
 22 24  1  0
 23 22  1  0
 24 28  2  0
 24 25  1  0
 26 20  1  0
 27 26  2  0
M  END
$$$$
