KSY.pdb
     RDKit          3D

 28 28  0  0  1  0  0  0  0  0999 V2000
   18.4654  -12.3982  -18.7884 N   0  0  0  0  0  0  0  0  0  0  0  0
   19.5590  -11.4987  -18.5834 C   0  0  1  0  0  0  0  0  0  0  0  0
   20.3005  -11.1705  -19.8344 C   0  0  0  0  0  0  0  0  0  0  0  0
   20.4391  -12.2979  -20.7954 C   0  0  0  0  0  0  0  0  0  0  0  0
   21.3269  -12.0540  -21.9649 C   0  0  0  0  0  0  0  0  0  0  0  0
   21.4184  -13.2502  -22.8927 C   0  0  0  0  0  0  0  0  0  0  0  0
   22.3918  -13.0212  -23.9390 N   0  0  0  0  0  0  0  0  0  0  0  0
   19.1656  -10.2861  -17.8136 C   0  0  0  0  0  0  0  0  0  0  0  0
   18.2277   -9.5341  -18.2009 O   0  0  0  0  0  0  0  0  0  0  0  0
   19.6203  -10.0093  -13.9112 O   0  0  0  0  0  0  0  0  0  0  0  0
   18.8285   -9.0688  -14.5405 C   0  0  0  0  0  0  0  0  0  0  0  0
   19.4641   -8.6974  -15.8587 C   0  0  2  0  0  0  0  0  0  0  0  0
   19.8133   -9.9036  -16.6089 N   0  0  0  0  0  0  0  0  0  0  0  0
   20.6255   -7.8350  -15.6458 C   0  0  0  0  0  0  0  0  0  0  0  0
   21.8127   -8.3220  -15.6386 O   0  0  0  0  0  0  0  0  0  0  0  0
   21.7292   -5.0660  -21.4359 O   0  0  0  0  0  0  0  0  0  0  0  0
   21.7146   -4.8875  -20.0586 C   0  0  0  0  0  0  0  0  0  0  0  0
   22.8951   -4.8375  -19.3397 C   0  0  0  0  0  0  0  0  0  0  0  0
   22.8726   -4.6604  -17.9746 C   0  0  0  0  0  0  0  0  0  0  0  0
   21.7037   -4.5255  -17.2576 C   0  0  0  0  0  0  0  0  0  0  0  0
   21.6158   -4.3419  -15.7971 C   0  0  0  0  0  0  0  0  0  0  0  0
   21.7612   -5.6537  -15.1016 C   0  0  2  0  0  0  0  0  0  0  0  0
   20.5587   -6.4420  -15.4380 N   0  0  0  0  0  0  0  0  0  0  0  0
   21.8435   -5.4463  -13.6439 C   0  0  0  0  0  0  0  0  0  0  0  0
   20.8986   -5.8967  -12.7480 O   0  0  0  0  0  0  0  0  0  0  0  0
   20.5281   -4.5784  -17.9987 C   0  0  0  0  0  0  0  0  0  0  0  0
   20.5368   -4.7546  -19.3611 C   0  0  0  0  0  0  0  0  0  0  0  0
   22.8296   -4.8201  -13.1798 O   0  0  0  0  0  0  0  0  0  0  0  0
  2  1  1  6
  3  2  1  0
  3  4  1  0
  4  5  1  0
  5  6  1  0
  7  6  1  0
  8  9  2  0
  8  2  1  0
 10 11  1  0
 12 11  1  1
 12 14  1  0
 12 13  1  0
 13  8  1  0
 14 23  1  0
 15 14  2  0
 16 17  1  0
 17 18  2  0
 17 27  1  0
 18 19  1  0
 19 20  2  0
 20 21  1  0
 22 21  1  6
 22 24  1  0
 23 22  1  0
 24 28  2  0
 24 25  1  0
 26 20  1  0
 27 26  2  0
M  END
$$$$
