KSY.pdb
     RDKit          3D

 28 28  0  0  1  0  0  0  0  0999 V2000
   19.5981  -12.7063  -17.2338 N   0  0  0  0  0  0  0  0  0  0  0  0
   20.6097  -11.7318  -17.5057 C   0  0  1  0  0  0  0  0  0  0  0  0
   20.8467  -11.5120  -18.9611 C   0  0  0  0  0  0  0  0  0  0  0  0
   21.0790  -12.7502  -19.7527 C   0  0  0  0  0  0  0  0  0  0  0  0
   22.4476  -12.9204  -20.3126 C   0  0  0  0  0  0  0  0  0  0  0  0
   22.5749  -14.1519  -21.1886 C   0  0  0  0  0  0  0  0  0  0  0  0
   23.9263  -14.2962  -21.6862 N   0  0  0  0  0  0  0  0  0  0  0  0
   20.3947  -10.4608  -16.7600 C   0  0  0  0  0  0  0  0  0  0  0  0
   19.3063   -9.8250  -16.8399 O   0  0  0  0  0  0  0  0  0  0  0  0
   21.9956   -9.3870  -13.1057 O   0  0  0  0  0  0  0  0  0  0  0  0
   22.2580   -8.4913  -14.1238 C   0  0  0  0  0  0  0  0  0  0  0  0
   21.1989   -8.6383  -15.1897 C   0  0  2  0  0  0  0  0  0  0  0  0
   21.3890   -9.8904  -15.9216 N   0  0  0  0  0  0  0  0  0  0  0  0
   21.2033   -7.4808  -16.0832 C   0  0  0  0  0  0  0  0  0  0  0  0
   21.9294   -7.4707  -17.1413 O   0  0  0  0  0  0  0  0  0  0  0  0
   19.0556   -1.0236  -21.4077 O   0  0  0  0  0  0  0  0  0  0  0  0
   19.0808   -2.0508  -20.4733 C   0  0  0  0  0  0  0  0  0  0  0  0
   18.3563   -1.9561  -19.2990 C   0  0  0  0  0  0  0  0  0  0  0  0
   18.3863   -2.9785  -18.3775 C   0  0  0  0  0  0  0  0  0  0  0  0
   19.1206   -4.1298  -18.5619 C   0  0  0  0  0  0  0  0  0  0  0  0
   19.1985   -5.2530  -17.6097 C   0  0  0  0  0  0  0  0  0  0  0  0
   20.4759   -5.1918  -16.8417 C   0  0  2  0  0  0  0  0  0  0  0  0
   20.4411   -6.3121  -15.8803 N   0  0  0  0  0  0  0  0  0  0  0  0
   20.5730   -3.9071  -16.1242 C   0  0  0  0  0  0  0  0  0  0  0  0
   21.2044   -2.7906  -16.6272 O   0  0  0  0  0  0  0  0  0  0  0  0
   19.8417   -4.2054  -19.7486 C   0  0  0  0  0  0  0  0  0  0  0  0
   19.8202   -3.1925  -20.6764 C   0  0  0  0  0  0  0  0  0  0  0  0
   20.0542   -3.8143  -14.9831 O   0  0  0  0  0  0  0  0  0  0  0  0
  2  1  1  6
  3  2  1  0
  3  4  1  0
  4  5  1  0
  5  6  1  0
  7  6  1  0
  8  9  2  0
  8  2  1  0
 10 11  1  0
 12 11  1  1
 12 14  1  0
 12 13  1  0
 13  8  1  0
 14 23  1  0
 15 14  2  0
 16 17  1  0
 17 18  2  0
 17 27  1  0
 18 19  1  0
 19 20  2  0
 20 21  1  0
 22 21  1  1
 22 24  1  0
 23 22  1  0
 24 28  2  0
 24 25  1  0
 26 20  1  0
 27 26  2  0
M  END
$$$$
