ASE.pdb
     RDKit          3D

 21 20  0  0  1  0  0  0  0  0999 V2000
    9.2778  -16.9416   18.2576 C   0  0  0  0  0  0  0  0  0  0  0  0
    9.4089  -17.8293   19.5018 C   0  0  2  0  0  0  0  0  0  0  0  0
    8.0832  -18.0443   20.0068 N   0  0  0  0  0  0  0  0  0  0  0  0
   10.2864  -17.0897   20.4445 C   0  0  0  0  0  0  0  0  0  0  0  0
   11.4385  -16.7622   20.0254 O   0  0  0  0  0  0  0  0  0  0  0  0
    9.2584  -16.3050   24.4780 O   0  0  0  0  0  0  0  0  0  0  0  0
    9.8826  -15.3494   23.7138 C   0  0  0  0  0  0  0  0  0  0  0  0
   10.7565  -15.9946   22.6619 C   0  0  2  0  0  0  0  0  0  0  0  0
    9.9303  -16.7294   21.7564 N   0  0  0  0  0  0  0  0  0  0  0  0
   11.8383  -16.8131   23.2793 C   0  0  0  0  0  0  0  0  0  0  0  0
   11.6601  -18.0631   23.4770 O   0  0  0  0  0  0  0  0  0  0  0  0
   13.0887  -16.2862   23.6759 N   0  0  0  0  0  0  0  0  0  0  0  0
   14.1369  -17.1763   24.2963 C   0  0  1  0  0  0  0  0  0  0  0  0
   15.4617  -16.6463   23.9479 C   0  0  0  0  0  0  0  0  0  0  0  0
   15.9145  -16.6198   22.5407 C   0  0  0  0  0  0  0  0  0  0  0  0
   17.2116  -16.0237   22.2395 C   0  0  0  0  0  0  0  0  0  0  0  0
   18.0694  -16.6649   21.5893 O   0  0  0  0  0  0  0  0  0  0  0  0
   13.7903  -17.1907   25.7353 C   0  0  0  0  0  0  0  0  0  0  0  0
   12.8431  -16.3775   26.3287 O   0  0  0  0  0  0  0  0  0  0  0  0
   17.5172  -14.7429   22.6609 O   0  0  0  0  0  0  0  0  0  0  0  0
   14.3863  -17.9936   26.5348 O   0  0  0  0  0  0  0  0  0  0  0  0
  2  1  1  6
  2  4  1  0
  3  2  1  0
  4  5  2  0
  7  6  1  0
  8  7  1  1
  9  8  1  0
  9  4  1  0
 10 11  2  0
 10  8  1  0
 12 10  1  0
 13 12  1  0
 13 14  1  1
 14 15  1  0
 15 16  1  0
 16 20  1  0
 17 16  2  0
 18 13  1  0
 19 18  1  0
 21 18  2  0
M  END
$$$$
