ASE.pdb
     RDKit          3D

 21 20  0  0  1  0  0  0  0  0999 V2000
    7.9002  -18.5065   19.4478 C   0  0  0  0  0  0  0  0  0  0  0  0
    7.7440  -17.0279   19.0699 C   0  0  2  0  0  0  0  0  0  0  0  0
    8.1488  -16.8989   17.6994 N   0  0  0  0  0  0  0  0  0  0  0  0
    8.6044  -16.2689   20.0129 C   0  0  0  0  0  0  0  0  0  0  0  0
    9.8279  -16.1392   19.7023 O   0  0  0  0  0  0  0  0  0  0  0  0
    7.3582  -15.1903   23.8884 O   0  0  0  0  0  0  0  0  0  0  0  0
    8.1262  -14.3064   23.1705 C   0  0  0  0  0  0  0  0  0  0  0  0
    8.9960  -15.0413   22.1754 C   0  0  2  0  0  0  0  0  0  0  0  0
    8.1596  -15.6882   21.2140 N   0  0  0  0  0  0  0  0  0  0  0  0
    9.9437  -15.9664   22.8591 C   0  0  0  0  0  0  0  0  0  0  0  0
    9.6930  -17.2188   22.9049 O   0  0  0  0  0  0  0  0  0  0  0  0
   11.1395  -15.5417   23.4821 N   0  0  0  0  0  0  0  0  0  0  0  0
   12.1148  -16.5476   24.0416 C   0  0  1  0  0  0  0  0  0  0  0  0
   13.4779  -16.0574   23.7988 C   0  0  0  0  0  0  0  0  0  0  0  0
   14.6461  -16.7857   24.3383 C   0  0  0  0  0  0  0  0  0  0  0  0
   15.9626  -16.4981   23.7794 C   0  0  0  0  0  0  0  0  0  0  0  0
   16.6730  -17.4222   23.3198 O   0  0  0  0  0  0  0  0  0  0  0  0
   11.7089  -16.6926   25.4577 C   0  0  0  0  0  0  0  0  0  0  0  0
   10.7397  -15.9319   26.0844 O   0  0  0  0  0  0  0  0  0  0  0  0
   16.4491  -15.2044   23.7429 O   0  0  0  0  0  0  0  0  0  0  0  0
   12.2697  -17.5694   26.2034 O   0  0  0  0  0  0  0  0  0  0  0  0
  2  1  1  1
  2  4  1  0
  3  2  1  0
  4  5  2  0
  7  6  1  0
  8  7  1  1
  9  8  1  0
  9  4  1  0
 10 11  2  0
 10  8  1  0
 12 10  1  0
 13 12  1  0
 13 14  1  1
 14 15  1  0
 15 16  1  0
 16 20  1  0
 17 16  2  0
 18 13  1  0
 19 18  1  0
 21 18  2  0
M  END
$$$$
