ASE.pdb
     RDKit          3D

 21 20  0  0  1  0  0  0  0  0999 V2000
    7.1069  -12.5517   19.4881 C   0  0  0  0  0  0  0  0  0  0  0  0
    8.5395  -12.9756   19.1396 C   0  0  2  0  0  0  0  0  0  0  0  0
    8.5476  -13.3272   17.7486 N   0  0  0  0  0  0  0  0  0  0  0  0
    8.8618  -14.1138   20.0376 C   0  0  0  0  0  0  0  0  0  0  0  0
    8.7764  -13.9067   21.2866 O   0  0  0  0  0  0  0  0  0  0  0  0
   10.6367  -17.6652   18.7060 O   0  0  0  0  0  0  0  0  0  0  0  0
    9.6148  -17.7610   19.6188 C   0  0  0  0  0  0  0  0  0  0  0  0
    9.5281  -16.5050   20.4564 C   0  0  2  0  0  0  0  0  0  0  0  0
    9.2495  -15.3936   19.6022 N   0  0  0  0  0  0  0  0  0  0  0  0
   10.7483  -16.3224   21.2927 C   0  0  0  0  0  0  0  0  0  0  0  0
   11.6326  -15.4641   20.9539 O   0  0  0  0  0  0  0  0  0  0  0  0
   11.0053  -17.0572   22.4727 N   0  0  0  0  0  0  0  0  0  0  0  0
   12.2488  -16.7962   23.2861 C   0  0  1  0  0  0  0  0  0  0  0  0
   11.9454  -17.0660   24.6977 C   0  0  0  0  0  0  0  0  0  0  0  0
   11.8585  -18.4554   25.1957 C   0  0  0  0  0  0  0  0  0  0  0  0
   11.6616  -18.6698   26.6253 C   0  0  0  0  0  0  0  0  0  0  0  0
   11.5209  -19.8287   27.0802 O   0  0  0  0  0  0  0  0  0  0  0  0
   13.2768  -17.6555   22.6569 C   0  0  0  0  0  0  0  0  0  0  0  0
   14.6410  -17.5070   22.8226 O   0  0  0  0  0  0  0  0  0  0  0  0
   11.6302  -17.6024   27.5036 O   0  0  0  0  0  0  0  0  0  0  0  0
   12.9303  -18.6192   21.8885 O   0  0  0  0  0  0  0  0  0  0  0  0
  2  1  1  1
  2  4  1  0
  3  2  1  0
  4  5  2  0
  7  6  1  0
  8  7  1  6
  9  8  1  0
  9  4  1  0
 10 11  2  0
 10  8  1  0
 12 10  1  0
 13 12  1  0
 13 14  1  1
 14 15  1  0
 15 16  1  0
 16 20  1  0
 17 16  2  0
 18 13  1  0
 19 18  1  0
 21 18  2  0
M  END
$$$$
