ASE.pdb
     RDKit          3D

 21 20  0  0  1  0  0  0  0  0999 V2000
    7.8734  -15.5594   16.6046 C   0  0  0  0  0  0  0  0  0  0  0  0
    7.6445  -14.1141   17.0651 C   0  0  2  0  0  0  0  0  0  0  0  0
    8.0582  -13.2594   15.9895 N   0  0  0  0  0  0  0  0  0  0  0  0
    8.4527  -13.9424   18.2992 C   0  0  0  0  0  0  0  0  0  0  0  0
    9.6852  -13.6791   18.1508 O   0  0  0  0  0  0  0  0  0  0  0  0
    7.0897  -15.1528   22.0821 O   0  0  0  0  0  0  0  0  0  0  0  0
    7.8220  -13.9937   21.9996 C   0  0  0  0  0  0  0  0  0  0  0  0
    8.7402  -14.0272   20.7986 C   0  0  2  0  0  0  0  0  0  0  0  0
    7.9498  -14.0488   19.6082 N   0  0  0  0  0  0  0  0  0  0  0  0
    9.7136  -15.1524   20.8880 C   0  0  0  0  0  0  0  0  0  0  0  0
    9.6113  -16.1501   20.0958 O   0  0  0  0  0  0  0  0  0  0  0  0
   10.7763  -15.1956   21.8192 N   0  0  0  0  0  0  0  0  0  0  0  0
   11.7935  -16.3089   21.7745 C   0  0  1  0  0  0  0  0  0  0  0  0
   12.7014  -16.0633   20.6463 C   0  0  0  0  0  0  0  0  0  0  0  0
   13.3747  -14.7558   20.4939 C   0  0  0  0  0  0  0  0  0  0  0  0
   14.2809  -14.5684   19.3661 C   0  0  0  0  0  0  0  0  0  0  0  0
   13.8897  -13.9882   18.3268 O   0  0  0  0  0  0  0  0  0  0  0  0
   12.4007  -16.2953   23.1244 C   0  0  0  0  0  0  0  0  0  0  0  0
   13.3562  -17.1889   23.5707 O   0  0  0  0  0  0  0  0  0  0  0  0
   15.5855  -15.0226   19.4230 O   0  0  0  0  0  0  0  0  0  0  0  0
   12.0460  -15.4143   23.9829 O   0  0  0  0  0  0  0  0  0  0  0  0
  2  1  1  6
  2  4  1  0
  3  2  1  0
  4  5  2  0
  7  6  1  0
  8  7  1  1
  9  8  1  0
  9  4  1  0
 10 11  2  0
 10  8  1  0
 12 10  1  0
 13 12  1  0
 13 14  1  6
 14 15  1  0
 15 16  1  0
 16 20  1  0
 17 16  2  0
 18 13  1  0
 19 18  1  0
 21 18  2  0
M  END
$$$$
