ASE.pdb
     RDKit          3D

 21 20  0  0  1  0  0  0  0  0999 V2000
    8.1575  -18.4287   19.4095 C   0  0  0  0  0  0  0  0  0  0  0  0
    8.0056  -16.9352   19.0938 C   0  0  2  0  0  0  0  0  0  0  0  0
    8.4072  -16.7508   17.7287 N   0  0  0  0  0  0  0  0  0  0  0  0
    8.8713  -16.2191   20.0651 C   0  0  0  0  0  0  0  0  0  0  0  0
   10.0611  -15.9673   19.7027 O   0  0  0  0  0  0  0  0  0  0  0  0
    7.7896  -15.5662   24.1069 O   0  0  0  0  0  0  0  0  0  0  0  0
    8.4618  -14.5907   23.4117 C   0  0  0  0  0  0  0  0  0  0  0  0
    9.3164  -15.2029   22.3248 C   0  0  2  0  0  0  0  0  0  0  0  0
    8.4658  -15.8032   21.3459 N   0  0  0  0  0  0  0  0  0  0  0  0
   10.3282  -16.1400   22.8901 C   0  0  0  0  0  0  0  0  0  0  0  0
   10.1028  -17.3980   22.8926 O   0  0  0  0  0  0  0  0  0  0  0  0
   11.5599  -15.7211   23.4431 N   0  0  0  0  0  0  0  0  0  0  0  0
   12.6136  -16.7302   23.8273 C   0  0  1  0  0  0  0  0  0  0  0  0
   13.9104  -16.2637   23.3191 C   0  0  0  0  0  0  0  0  0  0  0  0
   15.1343  -17.0648   23.5340 C   0  0  0  0  0  0  0  0  0  0  0  0
   16.3945  -16.5664   22.9936 C   0  0  0  0  0  0  0  0  0  0  0  0
   16.9791  -15.5993   23.5347 O   0  0  0  0  0  0  0  0  0  0  0  0
   12.4838  -16.8434   25.2974 C   0  0  0  0  0  0  0  0  0  0  0  0
   12.9570  -17.8991   26.0540 O   0  0  0  0  0  0  0  0  0  0  0  0
   16.9681  -17.1515   21.8800 O   0  0  0  0  0  0  0  0  0  0  0  0
   11.8932  -15.9250   25.9659 O   0  0  0  0  0  0  0  0  0  0  0  0
  2  1  1  1
  2  4  1  0
  3  2  1  0
  4  5  2  0
  7  6  1  0
  8  7  1  1
  9  8  1  0
  9  4  1  0
 10 11  2  0
 10  8  1  0
 12 10  1  0
 13 12  1  0
 13 14  1  1
 14 15  1  0
 15 16  1  0
 16 20  1  0
 17 16  2  0
 18 13  1  0
 19 18  1  0
 21 18  2  0
M  END
$$$$
