ASE.pdb
     RDKit          3D

 21 20  0  0  1  0  0  0  0  0999 V2000
    7.4102  -16.6422   19.7485 C   0  0  0  0  0  0  0  0  0  0  0  0
    7.9871  -15.2244   19.8518 C   0  0  2  0  0  0  0  0  0  0  0  0
    8.8786  -15.0511   18.7411 N   0  0  0  0  0  0  0  0  0  0  0  0
    8.6666  -15.1517   21.1704 C   0  0  0  0  0  0  0  0  0  0  0  0
    9.8980  -15.4564   21.2035 O   0  0  0  0  0  0  0  0  0  0  0  0
    6.5524  -14.8223   24.7474 O   0  0  0  0  0  0  0  0  0  0  0  0
    7.7364  -14.1315   24.6608 C   0  0  0  0  0  0  0  0  0  0  0  0
    8.6636  -14.7851   23.6609 C   0  0  2  0  0  0  0  0  0  0  0  0
    8.0450  -14.7700   22.3728 N   0  0  0  0  0  0  0  0  0  0  0  0
    9.0753  -16.1459   24.1082 C   0  0  0  0  0  0  0  0  0  0  0  0
    8.5206  -17.1800   23.6019 O   0  0  0  0  0  0  0  0  0  0  0  0
   10.0684  -16.3809   25.0865 N   0  0  0  0  0  0  0  0  0  0  0  0
   10.4730  -17.7883   25.4494 C   0  0  1  0  0  0  0  0  0  0  0  0
   11.2664  -18.3428   24.3446 C   0  0  0  0  0  0  0  0  0  0  0  0
   12.7067  -18.0318   24.2233 C   0  0  0  0  0  0  0  0  0  0  0  0
   13.4160  -18.4804   23.0300 C   0  0  0  0  0  0  0  0  0  0  0  0
   14.0830  -19.5409   23.0488 O   0  0  0  0  0  0  0  0  0  0  0  0
   11.1662  -17.6392   26.7488 C   0  0  0  0  0  0  0  0  0  0  0  0
   11.3813  -16.4375   27.3970 O   0  0  0  0  0  0  0  0  0  0  0  0
   13.3634  -17.7488   21.8580 O   0  0  0  0  0  0  0  0  0  0  0  0
   11.6248  -18.6680   27.3574 O   0  0  0  0  0  0  0  0  0  0  0  0
  2  1  1  6
  2  4  1  0
  3  2  1  0
  4  5  2  0
  7  6  1  0
  8  7  1  1
  9  8  1  0
  9  4  1  0
 10 11  2  0
 10  8  1  0
 12 10  1  0
 13 12  1  0
 13 14  1  6
 14 15  1  0
 15 16  1  0
 16 20  1  0
 17 16  2  0
 18 13  1  0
 19 18  1  0
 21 18  2  0
M  END
$$$$
