ASE.pdb
     RDKit          3D

 21 20  0  0  1  0  0  0  0  0999 V2000
    7.8649  -15.0438   18.7875 C   0  0  0  0  0  0  0  0  0  0  0  0
    7.8919  -13.6962   19.5200 C   0  0  2  0  0  0  0  0  0  0  0  0
    8.6147  -12.7788   18.6867 N   0  0  0  0  0  0  0  0  0  0  0  0
    8.5507  -13.9510   20.8264 C   0  0  0  0  0  0  0  0  0  0  0  0
    9.8195  -13.9417   20.8453 O   0  0  0  0  0  0  0  0  0  0  0  0
    6.5502  -15.3956   24.2612 O   0  0  0  0  0  0  0  0  0  0  0  0
    7.4468  -14.3623   24.3844 C   0  0  0  0  0  0  0  0  0  0  0  0
    8.4948  -14.4328   23.2966 C   0  0  2  0  0  0  0  0  0  0  0  0
    7.8709  -14.1976   22.0326 N   0  0  0  0  0  0  0  0  0  0  0  0
    9.2567  -15.7124   23.3560 C   0  0  0  0  0  0  0  0  0  0  0  0
    9.3641  -16.4412   22.3117 O   0  0  0  0  0  0  0  0  0  0  0  0
    9.8889  -16.1931   24.5255 N   0  0  0  0  0  0  0  0  0  0  0  0
   11.0611  -17.1384   24.4333 C   0  0  1  0  0  0  0  0  0  0  0  0
   12.1275  -16.4823   23.6654 C   0  0  0  0  0  0  0  0  0  0  0  0
   13.4579  -17.1138   23.5353 C   0  0  0  0  0  0  0  0  0  0  0  0
   14.5015  -16.3929   22.8144 C   0  0  0  0  0  0  0  0  0  0  0  0
   14.3874  -16.1706   21.5866 O   0  0  0  0  0  0  0  0  0  0  0  0
   11.3702  -17.4662   25.8433 C   0  0  0  0  0  0  0  0  0  0  0  0
   11.9371  -18.6512   26.2737 O   0  0  0  0  0  0  0  0  0  0  0  0
   15.6311  -15.9394   23.4701 O   0  0  0  0  0  0  0  0  0  0  0  0
   11.1080  -16.6266   26.7736 O   0  0  0  0  0  0  0  0  0  0  0  0
  2  1  1  6
  2  4  1  0
  3  2  1  0
  4  5  2  0
  7  6  1  0
  8  7  1  1
  9  8  1  0
  9  4  1  0
 10 11  2  0
 10  8  1  0
 12 10  1  0
 13 12  1  0
 13 14  1  1
 14 15  1  0
 15 16  1  0
 16 20  1  0
 17 16  2  0
 18 13  1  0
 19 18  1  0
 21 18  2  0
M  END
$$$$
