WKC.pdb
     RDKit          3D

 30 31  0  0  1  0  0  0  0  0999 V2000
   21.0329  -30.7820  -12.2000 N   0  0  0  0  0  0  0  0  0  0  0  0
   21.8105  -30.4191  -11.0612 C   0  0  1  0  0  0  0  0  0  0  0  0
   21.0839  -29.5386  -10.0729 C   0  0  0  0  0  0  0  0  0  0  0  0
   20.5409  -28.3181  -10.7003 C   0  0  0  0  0  0  0  0  0  0  0  0
   21.2279  -27.3714  -11.4306 C   0  0  0  0  0  0  0  0  0  0  0  0
   20.3377  -26.4397  -11.8044 N   0  0  0  0  0  0  0  0  0  0  0  0
   19.1037  -26.7680  -11.3317 C   0  0  0  0  0  0  0  0  0  0  0  0
   17.8680  -26.1402  -11.4432 C   0  0  0  0  0  0  0  0  0  0  0  0
   16.7736  -26.7212  -10.8466 C   0  0  0  0  0  0  0  0  0  0  0  0
   16.8526  -27.9158  -10.1333 C   0  0  0  0  0  0  0  0  0  0  0  0
   18.0800  -28.5083  -10.0415 C   0  0  0  0  0  0  0  0  0  0  0  0
   19.2012  -27.9545  -10.6274 C   0  0  0  0  0  0  0  0  0  0  0  0
   22.3217  -31.6494  -10.4116 C   0  0  0  0  0  0  0  0  0  0  0  0
   21.7359  -32.7357  -10.6333 O   0  0  0  0  0  0  0  0  0  0  0  0
   23.4472  -31.5994   -9.5584 N   0  0  0  0  0  0  0  0  0  0  0  0
   24.0362  -32.7950   -8.9867 C   0  0  1  0  0  0  0  0  0  0  0  0
   25.4185  -32.5073   -8.4569 C   0  0  0  0  0  0  0  0  0  0  0  0
   26.0240  -33.8117   -8.0227 C   0  0  0  0  0  0  0  0  0  0  0  0
   27.4621  -33.6161   -7.6017 C   0  0  0  0  0  0  0  0  0  0  0  0
   28.1470  -34.9153   -7.2583 C   0  0  0  0  0  0  0  0  0  0  0  0
   29.5251  -34.5663   -6.8891 N   0  0  0  0  0  0  0  0  0  0  0  0
   23.1705  -33.2738   -7.8607 C   0  0  0  0  0  0  0  0  0  0  0  0
   22.7798  -32.4466   -7.0073 O   0  0  0  0  0  0  0  0  0  0  0  0
   22.8013  -34.6462   -7.7664 N   0  0  0  0  0  0  0  0  0  0  0  0
   21.9944  -35.1197   -6.6611 C   0  0  1  0  0  0  0  0  0  0  0  0
   21.0678  -36.1991   -7.1951 C   0  0  0  0  0  0  0  0  0  0  0  0
   19.7229  -35.4439   -8.1784 S   0  0  0  0  0  0  0  0  0  0  0  0
   22.8669  -35.6860   -5.5980 C   0  0  0  0  0  0  0  0  0  0  0  0
   22.4412  -35.8428   -4.2870 O   0  0  0  0  0  0  0  0  0  0  0  0
   24.0371  -36.0387   -5.8911 O   0  0  0  0  0  0  0  0  0  0  0  0
  2  1  1  6
  2 13  1  0
  2  3  1  0
  3  4  1  0
  4  5  2  0
  5  6  1  0
  7  6  1  0
  8  7  2  0
  9  8  1  0
 10 11  1  0
 10  9  2  0
 11 12  2  0
 12  4  1  0
 12  7  1  0
 13 14  2  0
 15 13  1  0
 15 16  1  0
 16 17  1  1
 17 18  1  0
 19 18  1  0
 20 21  1  0
 20 19  1  0
 22 24  1  0
 22 16  1  0
 23 22  2  0
 25 28  1  0
 25 26  1  6
 25 24  1  0
 27 26  1  0
 28 29  1  0
 30 28  2  0
M  END
$$$$
