WKC.pdb
     RDKit          3D

 30 31  0  0  1  0  0  0  0  0999 V2000
   24.8176  -17.7180  -17.4666 N   0  0  0  0  0  0  0  0  0  0  0  0
   25.3265  -18.5657  -16.4391 C   0  0  1  0  0  0  0  0  0  0  0  0
   25.7024  -17.8396  -15.1698 C   0  0  0  0  0  0  0  0  0  0  0  0
   26.7295  -16.8044  -15.3971 C   0  0  0  0  0  0  0  0  0  0  0  0
   26.7518  -15.5187  -14.8993 C   0  0  0  0  0  0  0  0  0  0  0  0
   27.8680  -14.9359  -15.3626 N   0  0  0  0  0  0  0  0  0  0  0  0
   28.5559  -15.8159  -16.1414 C   0  0  0  0  0  0  0  0  0  0  0  0
   29.7522  -15.7004  -16.8408 C   0  0  0  0  0  0  0  0  0  0  0  0
   30.2085  -16.7828  -17.5560 C   0  0  0  0  0  0  0  0  0  0  0  0
   29.5195  -17.9930  -17.6084 C   0  0  0  0  0  0  0  0  0  0  0  0
   28.3478  -18.0753  -16.9112 C   0  0  0  0  0  0  0  0  0  0  0  0
   27.8583  -17.0096  -16.1820 C   0  0  0  0  0  0  0  0  0  0  0  0
   24.3463  -19.6450  -16.1717 C   0  0  0  0  0  0  0  0  0  0  0  0
   23.1340  -19.4306  -16.4103 O   0  0  0  0  0  0  0  0  0  0  0  0
   24.7694  -20.8913  -15.6572 N   0  0  0  0  0  0  0  0  0  0  0  0
   23.8454  -21.9854  -15.4276 C   0  0  1  0  0  0  0  0  0  0  0  0
   24.5928  -23.2582  -15.1182 C   0  0  0  0  0  0  0  0  0  0  0  0
   25.5167  -23.5388  -16.2691 C   0  0  0  0  0  0  0  0  0  0  0  0
   26.4348  -24.6942  -15.9440 C   0  0  0  0  0  0  0  0  0  0  0  0
   27.4429  -24.9576  -17.0346 C   0  0  0  0  0  0  0  0  0  0  0  0
   28.2487  -26.0984  -16.5802 N   0  0  0  0  0  0  0  0  0  0  0  0
   22.9628  -21.6416  -14.2659 C   0  0  0  0  0  0  0  0  0  0  0  0
   23.4831  -21.1566  -13.2366 O   0  0  0  0  0  0  0  0  0  0  0  0
   21.5578  -21.8645  -14.3354 N   0  0  0  0  0  0  0  0  0  0  0  0
   20.6978  -21.5083  -13.2261 C   0  0  1  0  0  0  0  0  0  0  0  0
   19.9436  -20.2472  -13.6132 C   0  0  0  0  0  0  0  0  0  0  0  0
   18.9996  -20.5268  -15.1549 S   0  0  0  0  0  0  0  0  0  0  0  0
   19.7339  -22.6077  -12.9539 C   0  0  0  0  0  0  0  0  0  0  0  0
   18.8539  -22.5813  -11.8817 O   0  0  0  0  0  0  0  0  0  0  0  0
   19.7096  -23.6032  -13.7207 O   0  0  0  0  0  0  0  0  0  0  0  0
  2  1  1  6
  2 13  1  0
  2  3  1  0
  3  4  1  0
  4  5  2  0
  5  6  1  0
  7  6  1  0
  8  7  2  0
  9  8  1  0
 10 11  1  0
 10  9  2  0
 11 12  2  0
 12  4  1  0
 12  7  1  0
 13 14  2  0
 15 13  1  0
 15 16  1  0
 16 17  1  1
 17 18  1  0
 19 18  1  0
 20 21  1  0
 20 19  1  0
 22 24  1  0
 22 16  1  0
 23 22  2  0
 25 28  1  0
 25 26  1  6
 25 24  1  0
 27 26  1  0
 28 29  1  0
 30 28  2  0
M  END
$$$$
