WKC.pdb
     RDKit          3D

 30 31  0  0  1  0  0  0  0  0999 V2000
   25.1115  -19.1876  -11.9558 N   0  0  0  0  0  0  0  0  0  0  0  0
   26.1283  -20.1788  -12.0853 C   0  0  1  0  0  0  0  0  0  0  0  0
   26.0507  -21.2807  -11.0560 C   0  0  0  0  0  0  0  0  0  0  0  0
   26.2028  -20.7747   -9.6779 C   0  0  0  0  0  0  0  0  0  0  0  0
   25.2047  -20.3770   -8.8135 C   0  0  0  0  0  0  0  0  0  0  0  0
   25.8000  -19.9928   -7.6742 N   0  0  0  0  0  0  0  0  0  0  0  0
   27.1491  -20.1351   -7.7905 C   0  0  0  0  0  0  0  0  0  0  0  0
   28.1909  -19.8789   -6.9058 C   0  0  0  0  0  0  0  0  0  0  0  0
   29.4812  -20.1260   -7.3125 C   0  0  0  0  0  0  0  0  0  0  0  0
   29.7879  -20.6235   -8.5775 C   0  0  0  0  0  0  0  0  0  0  0  0
   28.7432  -20.8650   -9.4238 C   0  0  0  0  0  0  0  0  0  0  0  0
   27.4347  -20.6292   -9.0506 C   0  0  0  0  0  0  0  0  0  0  0  0
   26.0990  -20.7258  -13.4627 C   0  0  0  0  0  0  0  0  0  0  0  0
   25.0009  -20.7817  -14.0655 O   0  0  0  0  0  0  0  0  0  0  0  0
   27.2854  -21.1764  -14.0845 N   0  0  0  0  0  0  0  0  0  0  0  0
   27.3630  -21.4241  -15.5113 C   0  0  1  0  0  0  0  0  0  0  0  0
   28.7826  -21.7214  -15.9243 C   0  0  0  0  0  0  0  0  0  0  0  0
   28.7774  -22.0304  -17.3944 C   0  0  0  0  0  0  0  0  0  0  0  0
   29.2323  -20.8297  -18.1914 C   0  0  0  0  0  0  0  0  0  0  0  0
   29.2177  -21.0822  -19.6784 C   0  0  0  0  0  0  0  0  0  0  0  0
   29.7714  -19.8741  -20.3039 N   0  0  0  0  0  0  0  0  0  0  0  0
   26.4984  -22.6012  -15.8488 C   0  0  0  0  0  0  0  0  0  0  0  0
   26.5869  -23.6342  -15.1486 O   0  0  0  0  0  0  0  0  0  0  0  0
   25.5941  -22.5418  -16.9476 N   0  0  0  0  0  0  0  0  0  0  0  0
   24.7375  -23.6667  -17.2605 C   0  0  1  0  0  0  0  0  0  0  0  0
   23.3612  -23.3723  -16.6876 C   0  0  0  0  0  0  0  0  0  0  0  0
   22.4644  -22.2046  -17.7731 S   0  0  0  0  0  0  0  0  0  0  0  0
   24.6424  -23.8413  -18.7345 C   0  0  0  0  0  0  0  0  0  0  0  0
   25.1632  -22.9196  -19.6310 O   0  0  0  0  0  0  0  0  0  0  0  0
   24.0692  -24.8612  -19.1935 O   0  0  0  0  0  0  0  0  0  0  0  0
  2  1  1  6
  2 13  1  0
  2  3  1  0
  3  4  1  0
  4  5  2  0
  5  6  1  0
  7  6  1  0
  8  7  2  0
  9  8  1  0
 10 11  1  0
 10  9  2  0
 11 12  2  0
 12  4  1  0
 12  7  1  0
 13 14  2  0
 15 13  1  0
 15 16  1  0
 16 17  1  1
 17 18  1  0
 19 18  1  0
 20 21  1  0
 20 19  1  0
 22 24  1  0
 22 16  1  0
 23 22  2  0
 25 28  1  0
 25 26  1  6
 25 24  1  0
 27 26  1  0
 28 29  1  0
 30 28  2  0
M  END
$$$$
