WKC.pdb
     RDKit          3D

 30 31  0  0  1  0  0  0  0  0999 V2000
   28.3584  -21.1418  -10.8023 N   0  0  0  0  0  0  0  0  0  0  0  0
   27.0626  -21.2182  -10.2122 C   0  0  1  0  0  0  0  0  0  0  0  0
   26.9172  -20.4226   -8.9372 C   0  0  0  0  0  0  0  0  0  0  0  0
   28.1207  -20.4993   -8.0862 C   0  0  0  0  0  0  0  0  0  0  0  0
   29.3597  -21.0005   -8.4256 C   0  0  0  0  0  0  0  0  0  0  0  0
   30.1467  -20.8696   -7.3470 N   0  0  0  0  0  0  0  0  0  0  0  0
   29.4421  -20.2992   -6.3310 C   0  0  0  0  0  0  0  0  0  0  0  0
   29.7967  -19.9578   -5.0306 C   0  0  0  0  0  0  0  0  0  0  0  0
   28.8505  -19.3822   -4.2153 C   0  0  0  0  0  0  0  0  0  0  0  0
   27.5481  -19.1267   -4.6402 C   0  0  0  0  0  0  0  0  0  0  0  0
   27.2302  -19.4732   -5.9227 C   0  0  0  0  0  0  0  0  0  0  0  0
   28.1537  -20.0529   -6.7702 C   0  0  0  0  0  0  0  0  0  0  0  0
   26.0486  -20.8162  -11.2160 C   0  0  0  0  0  0  0  0  0  0  0  0
   26.1248  -19.6725  -11.7246 O   0  0  0  0  0  0  0  0  0  0  0  0
   25.0156  -21.7041  -11.5922 N   0  0  0  0  0  0  0  0  0  0  0  0
   24.0831  -21.3956  -12.6593 C   0  0  1  0  0  0  0  0  0  0  0  0
   24.0554  -22.5050  -13.6804 C   0  0  0  0  0  0  0  0  0  0  0  0
   25.3323  -22.4348  -14.4686 C   0  0  0  0  0  0  0  0  0  0  0  0
   25.4381  -23.6085  -15.4146 C   0  0  0  0  0  0  0  0  0  0  0  0
   26.7658  -23.6592  -16.1285 C   0  0  0  0  0  0  0  0  0  0  0  0
   26.7190  -24.8436  -16.9959 N   0  0  0  0  0  0  0  0  0  0  0  0
   22.7119  -21.2333  -12.0758 C   0  0  0  0  0  0  0  0  0  0  0  0
   22.5651  -21.3547  -10.8392 O   0  0  0  0  0  0  0  0  0  0  0  0
   21.5985  -20.9464  -12.9163 N   0  0  0  0  0  0  0  0  0  0  0  0
   20.4664  -20.1972  -12.4123 C   0  0  1  0  0  0  0  0  0  0  0  0
   20.9629  -18.8133  -12.0282 C   0  0  0  0  0  0  0  0  0  0  0  0
   19.6169  -17.8586  -11.2390 S   0  0  0  0  0  0  0  0  0  0  0  0
   19.4209  -20.0829  -13.4639 C   0  0  0  0  0  0  0  0  0  0  0  0
   18.0654  -20.1709  -13.1823 O   0  0  0  0  0  0  0  0  0  0  0  0
   19.7713  -19.8994  -14.6568 O   0  0  0  0  0  0  0  0  0  0  0  0
  2  1  1  6
  2 13  1  0
  2  3  1  0
  3  4  1  0
  4  5  2  0
  5  6  1  0
  7  6  1  0
  8  7  2  0
  9  8  1  0
 10 11  1  0
 10  9  2  0
 11 12  2  0
 12  4  1  0
 12  7  1  0
 13 14  2  0
 15 13  1  0
 15 16  1  0
 16 17  1  6
 17 18  1  0
 19 18  1  0
 20 21  1  0
 20 19  1  0
 22 24  1  0
 22 16  1  0
 23 22  2  0
 25 28  1  0
 25 26  1  6
 25 24  1  0
 27 26  1  0
 28 29  1  0
 30 28  2  0
M  END
$$$$
