WKC.pdb
     RDKit          3D

 30 31  0  0  1  0  0  0  0  0999 V2000
   26.5541  -18.8021  -10.1908 N   0  0  0  0  0  0  0  0  0  0  0  0
   26.5564  -20.1376  -10.6903 C   0  0  1  0  0  0  0  0  0  0  0  0
   26.5524  -21.1984   -9.6159 C   0  0  0  0  0  0  0  0  0  0  0  0
   27.6706  -21.0406   -8.6656 C   0  0  0  0  0  0  0  0  0  0  0  0
   27.6276  -20.4947   -7.4000 C   0  0  0  0  0  0  0  0  0  0  0  0
   28.8719  -20.5558   -6.9020 N   0  0  0  0  0  0  0  0  0  0  0  0
   29.7049  -21.1255   -7.8161 C   0  0  0  0  0  0  0  0  0  0  0  0
   31.0657  -21.4094   -7.7842 C   0  0  0  0  0  0  0  0  0  0  0  0
   31.6448  -22.0014   -8.8821 C   0  0  0  0  0  0  0  0  0  0  0  0
   30.9220  -22.3289  -10.0276 C   0  0  0  0  0  0  0  0  0  0  0  0
   29.5875  -22.0376  -10.0287 C   0  0  0  0  0  0  0  0  0  0  0  0
   28.9714  -21.4435   -8.9449 C   0  0  0  0  0  0  0  0  0  0  0  0
   25.4150  -20.3091  -11.6203 C   0  0  0  0  0  0  0  0  0  0  0  0
   24.2758  -19.9372  -11.2508 O   0  0  0  0  0  0  0  0  0  0  0  0
   25.6063  -20.8812  -12.8982 N   0  0  0  0  0  0  0  0  0  0  0  0
   24.5576  -20.9014  -13.8998 C   0  0  1  0  0  0  0  0  0  0  0  0
   25.1256  -21.2205  -15.2599 C   0  0  0  0  0  0  0  0  0  0  0  0
   24.0138  -21.0943  -16.2623 C   0  0  0  0  0  0  0  0  0  0  0  0
   23.7442  -19.6410  -16.5767 C   0  0  0  0  0  0  0  0  0  0  0  0
   22.6750  -19.4640  -17.6257 C   0  0  0  0  0  0  0  0  0  0  0  0
   22.4358  -18.0183  -17.7263 N   0  0  0  0  0  0  0  0  0  0  0  0
   23.5522  -21.9503  -13.5310 C   0  0  0  0  0  0  0  0  0  0  0  0
   23.9534  -23.1098  -13.2861 O   0  0  0  0  0  0  0  0  0  0  0  0
   22.1662  -21.6298  -13.4619 N   0  0  0  0  0  0  0  0  0  0  0  0
   21.1913  -22.6404  -13.1080 C   0  0  1  0  0  0  0  0  0  0  0  0
   20.2651  -22.0423  -12.0623 C   0  0  0  0  0  0  0  0  0  0  0  0
   18.9772  -23.2544  -11.5954 S   0  0  0  0  0  0  0  0  0  0  0  0
   20.4069  -23.0353  -14.3083 C   0  0  0  0  0  0  0  0  0  0  0  0
   19.9160  -24.3200  -14.4905 O   0  0  0  0  0  0  0  0  0  0  0  0
   20.1755  -22.1772  -15.1969 O   0  0  0  0  0  0  0  0  0  0  0  0
  2  1  1  1
  2 13  1  0
  2  3  1  0
  3  4  1  0
  4  5  2  0
  5  6  1  0
  7  6  1  0
  8  7  2  0
  9  8  1  0
 10 11  1  0
 10  9  2  0
 11 12  2  0
 12  4  1  0
 12  7  1  0
 13 14  2  0
 15 13  1  0
 15 16  1  0
 16 17  1  6
 17 18  1  0
 19 18  1  0
 20 21  1  0
 20 19  1  0
 22 24  1  0
 22 16  1  0
 23 22  2  0
 25 28  1  0
 25 26  1  1
 25 24  1  0
 27 26  1  0
 28 29  1  0
 30 28  2  0
M  END
$$$$
