WKC.pdb
     RDKit          3D

 30 31  0  0  1  0  0  0  0  0999 V2000
   16.4671  -10.9442  -14.1227 N   0  0  0  0  0  0  0  0  0  0  0  0
   17.0233   -9.9235  -13.2969 C   0  0  1  0  0  0  0  0  0  0  0  0
   18.0811   -9.0877  -13.9768 C   0  0  0  0  0  0  0  0  0  0  0  0
   19.3325   -9.8376  -14.2005 C   0  0  0  0  0  0  0  0  0  0  0  0
   19.4893  -11.0286  -14.8776 C   0  0  0  0  0  0  0  0  0  0  0  0
   20.7936  -11.3393  -14.8317 N   0  0  0  0  0  0  0  0  0  0  0  0
   21.4705  -10.3787  -14.1439 C   0  0  0  0  0  0  0  0  0  0  0  0
   22.8163  -10.2383  -13.8236 C   0  0  0  0  0  0  0  0  0  0  0  0
   23.2141   -9.1373  -13.1019 C   0  0  0  0  0  0  0  0  0  0  0  0
   22.3218   -8.1547  -12.6777 C   0  0  0  0  0  0  0  0  0  0  0  0
   21.0067   -8.3207  -13.0078 C   0  0  0  0  0  0  0  0  0  0  0  0
   20.5702   -9.4130  -13.7312 C   0  0  0  0  0  0  0  0  0  0  0  0
   15.9272   -9.0777  -12.7675 C   0  0  0  0  0  0  0  0  0  0  0  0
   14.9950   -8.7474  -13.5384 O   0  0  0  0  0  0  0  0  0  0  0  0
   15.9326   -8.6512  -11.4202 N   0  0  0  0  0  0  0  0  0  0  0  0
   14.9148   -7.7666  -10.8865 C   0  0  1  0  0  0  0  0  0  0  0  0
   14.2815   -8.3643   -9.6552 C   0  0  0  0  0  0  0  0  0  0  0  0
   13.1246   -7.4895   -9.2639 C   0  0  0  0  0  0  0  0  0  0  0  0
   12.3596   -8.1029   -8.1140 C   0  0  0  0  0  0  0  0  0  0  0  0
   11.1612   -7.2804   -7.7113 C   0  0  0  0  0  0  0  0  0  0  0  0
   10.5638   -7.9653   -6.5575 N   0  0  0  0  0  0  0  0  0  0  0  0
   15.5487   -6.4575  -10.5243 C   0  0  0  0  0  0  0  0  0  0  0  0
   16.4441   -6.4429   -9.6505 O   0  0  0  0  0  0  0  0  0  0  0  0
   15.1368   -5.2537  -11.1646 N   0  0  0  0  0  0  0  0  0  0  0  0
   15.8647   -4.0195  -10.9551 C   0  0  1  0  0  0  0  0  0  0  0  0
   16.2272   -3.4599  -12.3206 C   0  0  0  0  0  0  0  0  0  0  0  0
   17.3801   -4.5916  -13.1786 S   0  0  0  0  0  0  0  0  0  0  0  0
   15.0152   -3.0443  -10.2208 C   0  0  0  0  0  0  0  0  0  0  0  0
   15.4826   -1.8020   -9.8169 O   0  0  0  0  0  0  0  0  0  0  0  0
   13.8263   -3.3502   -9.9518 O   0  0  0  0  0  0  0  0  0  0  0  0
  2  1  1  6
  2 13  1  0
  2  3  1  0
  3  4  1  0
  4  5  2  0
  5  6  1  0
  7  6  1  0
  8  7  2  0
  9  8  1  0
 10 11  1  0
 10  9  2  0
 11 12  2  0
 12  4  1  0
 12  7  1  0
 13 14  2  0
 15 13  1  0
 15 16  1  0
 16 17  1  1
 17 18  1  0
 19 18  1  0
 20 21  1  0
 20 19  1  0
 22 24  1  0
 22 16  1  0
 23 22  2  0
 25 28  1  0
 25 26  1  6
 25 24  1  0
 27 26  1  0
 28 29  1  0
 30 28  2  0
M  END
$$$$
