WKC.pdb
     RDKit          3D

 30 31  0  0  1  0  0  0  0  0999 V2000
   25.1679  -23.3398  -14.9725 N   0  0  0  0  0  0  0  0  0  0  0  0
   24.5493  -24.5714  -15.3384 C   0  0  1  0  0  0  0  0  0  0  0  0
   25.4960  -25.7466  -15.3884 C   0  0  0  0  0  0  0  0  0  0  0  0
   26.3481  -25.7314  -16.5934 C   0  0  0  0  0  0  0  0  0  0  0  0
   26.4181  -24.7515  -17.5611 C   0  0  0  0  0  0  0  0  0  0  0  0
   27.3218  -25.1558  -18.4667 N   0  0  0  0  0  0  0  0  0  0  0  0
   27.8282  -26.3658  -18.1013 C   0  0  0  0  0  0  0  0  0  0  0  0
   28.7759  -27.1940  -18.6924 C   0  0  0  0  0  0  0  0  0  0  0  0
   29.0914  -28.3834  -18.0783 C   0  0  0  0  0  0  0  0  0  0  0  0
   28.4989  -28.7933  -16.8855 C   0  0  0  0  0  0  0  0  0  0  0  0
   27.5719  -27.9582  -16.3294 C   0  0  0  0  0  0  0  0  0  0  0  0
   27.2296  -26.7563  -16.9170 C   0  0  0  0  0  0  0  0  0  0  0  0
   23.4135  -24.8338  -14.4229 C   0  0  0  0  0  0  0  0  0  0  0  0
   23.5897  -24.6955  -13.1891 O   0  0  0  0  0  0  0  0  0  0  0  0
   22.1564  -25.2329  -14.9303 N   0  0  0  0  0  0  0  0  0  0  0  0
   21.0113  -25.4549  -14.0685 C   0  0  1  0  0  0  0  0  0  0  0  0
   19.7851  -24.7768  -14.6260 C   0  0  0  0  0  0  0  0  0  0  0  0
   19.8548  -23.3235  -14.2521 C   0  0  0  0  0  0  0  0  0  0  0  0
   18.7320  -22.5520  -14.9062 C   0  0  0  0  0  0  0  0  0  0  0  0
   18.8482  -21.0640  -14.6888 C   0  0  0  0  0  0  0  0  0  0  0  0
   17.7137  -20.4571  -15.3973 N   0  0  0  0  0  0  0  0  0  0  0  0
   20.7538  -26.9284  -13.9709 C   0  0  0  0  0  0  0  0  0  0  0  0
   20.8331  -27.6239  -15.0078 O   0  0  0  0  0  0  0  0  0  0  0  0
   20.4247  -27.5228  -12.7191 N   0  0  0  0  0  0  0  0  0  0  0  0
   20.2005  -28.9497  -12.6154 C   0  0  1  0  0  0  0  0  0  0  0  0
   20.4963  -29.3605  -11.1826 C   0  0  0  0  0  0  0  0  0  0  0  0
   22.2184  -28.9250  -10.7460 S   0  0  0  0  0  0  0  0  0  0  0  0
   18.7869  -29.2699  -12.9492 C   0  0  0  0  0  0  0  0  0  0  0  0
   17.8367  -28.2893  -13.1942 O   0  0  0  0  0  0  0  0  0  0  0  0
   18.4317  -30.4737  -13.0137 O   0  0  0  0  0  0  0  0  0  0  0  0
  2  1  1  1
  2 13  1  0
  2  3  1  0
  3  4  1  0
  4  5  2  0
  5  6  1  0
  7  6  1  0
  8  7  2  0
  9  8  1  0
 10 11  1  0
 10  9  2  0
 11 12  2  0
 12  4  1  0
 12  7  1  0
 13 14  2  0
 15 13  1  0
 15 16  1  0
 16 17  1  6
 17 18  1  0
 19 18  1  0
 20 21  1  0
 20 19  1  0
 22 24  1  0
 22 16  1  0
 23 22  2  0
 25 28  1  0
 25 26  1  1
 25 24  1  0
 27 26  1  0
 28 29  1  0
 30 28  2  0
M  END
$$$$
