WKC.pdb
     RDKit          3D

 30 31  0  0  1  0  0  0  0  0999 V2000
   19.1426  -23.6572  -15.1489 N   0  0  0  0  0  0  0  0  0  0  0  0
   20.1203  -22.9072  -15.8664 C   0  0  1  0  0  0  0  0  0  0  0  0
   20.0587  -21.4187  -15.6208 C   0  0  0  0  0  0  0  0  0  0  0  0
   18.8260  -20.8106  -16.1583 C   0  0  0  0  0  0  0  0  0  0  0  0
   17.7035  -20.4252  -15.4562 C   0  0  0  0  0  0  0  0  0  0  0  0
   16.8341  -19.9244  -16.3470 N   0  0  0  0  0  0  0  0  0  0  0  0
   17.3730  -19.9809  -17.5962 C   0  0  0  0  0  0  0  0  0  0  0  0
   16.8828  -19.5943  -18.8386 C   0  0  0  0  0  0  0  0  0  0  0  0
   17.6729  -19.7788  -19.9491 C   0  0  0  0  0  0  0  0  0  0  0  0
   18.9472  -20.3384  -19.8797 C   0  0  0  0  0  0  0  0  0  0  0  0
   19.4007  -20.7080  -18.6454 C   0  0  0  0  0  0  0  0  0  0  0  0
   18.6359  -20.5382  -17.5081 C   0  0  0  0  0  0  0  0  0  0  0  0
   21.4661  -23.4479  -15.5606 C   0  0  0  0  0  0  0  0  0  0  0  0
   21.7141  -23.8197  -14.3889 O   0  0  0  0  0  0  0  0  0  0  0  0
   22.4511  -23.5421  -16.5695 N   0  0  0  0  0  0  0  0  0  0  0  0
   23.7617  -24.1102  -16.3182 C   0  0  1  0  0  0  0  0  0  0  0  0
   24.2534  -24.8702  -17.5244 C   0  0  0  0  0  0  0  0  0  0  0  0
   24.8455  -26.1636  -17.0414 C   0  0  0  0  0  0  0  0  0  0  0  0
   23.9554  -27.3270  -17.4127 C   0  0  0  0  0  0  0  0  0  0  0  0
   24.4700  -28.6422  -16.8831 C   0  0  0  0  0  0  0  0  0  0  0  0
   25.6310  -28.9911  -17.7124 N   0  0  0  0  0  0  0  0  0  0  0  0
   24.7229  -23.0010  -16.0135 C   0  0  0  0  0  0  0  0  0  0  0  0
   24.6130  -21.9208  -16.6351 O   0  0  0  0  0  0  0  0  0  0  0  0
   25.7419  -23.1769  -15.0341 N   0  0  0  0  0  0  0  0  0  0  0  0
   26.7116  -22.1315  -14.7815 C   0  0  1  0  0  0  0  0  0  0  0  0
   27.5414  -22.5522  -13.5799 C   0  0  0  0  0  0  0  0  0  0  0  0
   26.4873  -22.6424  -12.0877 S   0  0  0  0  0  0  0  0  0  0  0  0
   27.5937  -21.9565  -15.9660 C   0  0  0  0  0  0  0  0  0  0  0  0
   27.7277  -22.9275  -16.9477 O   0  0  0  0  0  0  0  0  0  0  0  0
   28.2467  -20.8897  -16.0896 O   0  0  0  0  0  0  0  0  0  0  0  0
  2  1  1  1
  2 13  1  0
  2  3  1  0
  3  4  1  0
  4  5  2  0
  5  6  1  0
  7  6  1  0
  8  7  2  0
  9  8  1  0
 10 11  1  0
 10  9  2  0
 11 12  2  0
 12  4  1  0
 12  7  1  0
 13 14  2  0
 15 13  1  0
 15 16  1  0
 16 17  1  6
 17 18  1  0
 19 18  1  0
 20 21  1  0
 20 19  1  0
 22 24  1  0
 22 16  1  0
 23 22  2  0
 25 28  1  0
 25 26  1  1
 25 24  1  0
 27 26  1  0
 28 29  1  0
 30 28  2  0
M  END
$$$$
