AQD.pdb
     RDKit          3D

 23 22  0  0  1  0  0  0  0  0999 V2000
   13.4748  -11.2638  -12.0925 C   0  0  0  0  0  0  0  0  0  0  0  0
   14.9442  -11.1707  -11.7866 C   0  0  2  0  0  0  0  0  0  0  0  0
   15.2460  -11.6801  -10.4564 N   0  0  0  0  0  0  0  0  0  0  0  0
   15.4402   -9.7602  -11.8303 C   0  0  0  0  0  0  0  0  0  0  0  0
   15.3641   -9.0462  -12.8664 O   0  0  0  0  0  0  0  0  0  0  0  0
   15.2107   -5.7443   -7.2835 N   0  0  0  0  0  0  0  0  0  0  0  0
   16.0278   -4.9917   -8.1559 C   0  0  0  0  0  0  0  0  0  0  0  0
   16.3260   -3.8198   -7.8520 O   0  0  0  0  0  0  0  0  0  0  0  0
   16.5076   -5.6141   -9.4065 C   0  0  0  0  0  0  0  0  0  0  0  0
   16.0785   -7.0363   -9.4287 C   0  0  0  0  0  0  0  0  0  0  0  0
   16.4381   -7.7755  -10.6894 C   0  0  2  0  0  0  0  0  0  0  0  0
   16.0345   -9.1463  -10.6767 N   0  0  0  0  0  0  0  0  0  0  0  0
   17.9052   -7.6268  -10.9803 C   0  0  0  0  0  0  0  0  0  0  0  0
   18.7692   -8.1236  -10.2132 O   0  0  0  0  0  0  0  0  0  0  0  0
   18.3777   -6.9278  -12.1198 N   0  0  0  0  0  0  0  0  0  0  0  0
   19.8256   -6.9641  -12.4566 C   0  0  1  0  0  0  0  0  0  0  0  0
   20.0154   -7.8831  -13.6237 C   0  0  0  0  0  0  0  0  0  0  0  0
   21.3768   -8.0037  -14.1415 C   0  0  0  0  0  0  0  0  0  0  0  0
   22.3690   -7.6795  -13.4693 O   0  0  0  0  0  0  0  0  0  0  0  0
   20.2300   -5.5784  -12.7690 C   0  0  0  0  0  0  0  0  0  0  0  0
   19.4033   -4.6949  -13.0467 O   0  0  0  0  0  0  0  0  0  0  0  0
   21.5672   -8.4950  -15.4223 O   0  0  0  0  0  0  0  0  0  0  0  0
   21.5900   -5.2609  -12.7490 O   0  0  0  0  0  0  0  0  0  0  0  0
  2  4  1  0
  2  1  1  1
  2  3  1  0
  4  5  2  0
  6  7  1  0
  7  8  2  0
  7  9  1  0
  9 10  1  0
 11 10  1  1
 11 13  1  0
 12 11  1  0
 12  4  1  0
 13 14  2  0
 13 15  1  0
 15 16  1  0
 16 17  1  6
 17 18  1  0
 18 19  2  0
 18 22  1  0
 20 23  1  0
 20 16  1  0
 21 20  2  0
M  END
$$$$
