AQD.pdb
     RDKit          3D

 23 22  0  0  1  0  0  0  0  0999 V2000
   18.3601  -14.6339  -16.3665 C   0  0  0  0  0  0  0  0  0  0  0  0
   17.2686  -13.7508  -15.8278 C   0  0  2  0  0  0  0  0  0  0  0  0
   15.9533  -14.2082  -16.2529 N   0  0  0  0  0  0  0  0  0  0  0  0
   17.4053  -12.3370  -16.2969 C   0  0  0  0  0  0  0  0  0  0  0  0
   18.0177  -12.0294  -17.3549 O   0  0  0  0  0  0  0  0  0  0  0  0
   13.8722   -7.4732  -14.7119 N   0  0  0  0  0  0  0  0  0  0  0  0
   14.7954   -6.8428  -15.5752 C   0  0  0  0  0  0  0  0  0  0  0  0
   14.6320   -5.6424  -15.8701 O   0  0  0  0  0  0  0  0  0  0  0  0
   15.9311   -7.6236  -16.1062 C   0  0  0  0  0  0  0  0  0  0  0  0
   15.8901   -8.9879  -15.5194 C   0  0  0  0  0  0  0  0  0  0  0  0
   17.0039   -9.8937  -15.9712 C   0  0  2  0  0  0  0  0  0  0  0  0
   16.8363  -11.2496  -15.5520 N   0  0  0  0  0  0  0  0  0  0  0  0
   18.3336   -9.3368  -15.5459 C   0  0  0  0  0  0  0  0  0  0  0  0
   18.7880   -9.5585  -14.3943 O   0  0  0  0  0  0  0  0  0  0  0  0
   19.1281   -8.5449  -16.4131 N   0  0  0  0  0  0  0  0  0  0  0  0
   20.4405   -8.0288  -15.9416 C   0  0  1  0  0  0  0  0  0  0  0  0
   21.4094   -8.0923  -17.0818 C   0  0  0  0  0  0  0  0  0  0  0  0
   22.7121   -7.4668  -16.8635 C   0  0  0  0  0  0  0  0  0  0  0  0
   23.0029   -6.9047  -15.7953 O   0  0  0  0  0  0  0  0  0  0  0  0
   20.2177   -6.6443  -15.4783 C   0  0  0  0  0  0  0  0  0  0  0  0
   20.5420   -6.2673  -14.3408 O   0  0  0  0  0  0  0  0  0  0  0  0
   23.6526   -7.5016  -17.8795 O   0  0  0  0  0  0  0  0  0  0  0  0
   19.6216   -5.7360  -16.3560 O   0  0  0  0  0  0  0  0  0  0  0  0
  2  4  1  0
  2  1  1  6
  2  3  1  0
  4  5  2  0
  6  7  1  0
  7  8  2  0
  7  9  1  0
  9 10  1  0
 11 10  1  1
 11 13  1  0
 12 11  1  0
 12  4  1  0
 13 14  2  0
 13 15  1  0
 15 16  1  0
 16 17  1  6
 17 18  1  0
 18 19  2  0
 18 22  1  0
 20 23  1  0
 20 16  1  0
 21 20  2  0
M  END
$$$$
