AQD.pdb
     RDKit          3D

 23 22  0  0  1  0  0  0  0  0999 V2000
   18.8047  -13.6020  -15.9009 C   0  0  0  0  0  0  0  0  0  0  0  0
   17.9310  -12.9441  -14.8688 C   0  0  2  0  0  0  0  0  0  0  0  0
   16.5589  -13.4251  -14.9458 N   0  0  0  0  0  0  0  0  0  0  0  0
   17.8771  -11.4592  -15.0404 C   0  0  0  0  0  0  0  0  0  0  0  0
   18.9049  -10.7316  -14.9811 O   0  0  0  0  0  0  0  0  0  0  0  0
   15.1484   -8.0499  -18.9973 N   0  0  0  0  0  0  0  0  0  0  0  0
   15.3188   -7.0235  -18.0419 C   0  0  0  0  0  0  0  0  0  0  0  0
   15.1059   -5.8407  -18.3739 O   0  0  0  0  0  0  0  0  0  0  0  0
   15.7451   -7.3796  -16.6734 C   0  0  0  0  0  0  0  0  0  0  0  0
   15.8165   -8.8596  -16.5640 C   0  0  0  0  0  0  0  0  0  0  0  0
   16.5627   -9.3593  -15.3563 C   0  0  2  0  0  0  0  0  0  0  0  0
   16.6334  -10.7848  -15.2844 N   0  0  0  0  0  0  0  0  0  0  0  0
   15.9847   -8.7639  -14.1031 C   0  0  0  0  0  0  0  0  0  0  0  0
   14.9351   -9.2305  -13.5911 O   0  0  0  0  0  0  0  0  0  0  0  0
   16.5890   -7.6613  -13.4478 N   0  0  0  0  0  0  0  0  0  0  0  0
   15.9798   -7.1216  -12.2033 C   0  0  1  0  0  0  0  0  0  0  0  0
   16.9956   -6.2630  -11.5150 C   0  0  0  0  0  0  0  0  0  0  0  0
   16.5531   -5.5778  -10.3022 C   0  0  0  0  0  0  0  0  0  0  0  0
   15.4491   -5.8056   -9.7818 O   0  0  0  0  0  0  0  0  0  0  0  0
   14.7847   -6.3534  -12.6068 C   0  0  0  0  0  0  0  0  0  0  0  0
   14.8130   -5.5219  -13.5282 O   0  0  0  0  0  0  0  0  0  0  0  0
   17.3908   -4.6449   -9.7141 O   0  0  0  0  0  0  0  0  0  0  0  0
   13.5874   -6.5766  -11.9232 O   0  0  0  0  0  0  0  0  0  0  0  0
  2  4  1  0
  2  1  1  6
  2  3  1  0
  4  5  2  0
  6  7  1  0
  7  8  2  0
  7  9  1  0
  9 10  1  0
 11 10  1  6
 11 13  1  0
 12 11  1  0
 12  4  1  0
 13 14  2  0
 13 15  1  0
 15 16  1  0
 16 17  1  6
 17 18  1  0
 18 19  2  0
 18 22  1  0
 20 23  1  0
 20 16  1  0
 21 20  2  0
M  END
$$$$
