QTG.pdb
     RDKit          3D

 21 20  0  0  1  0  0  0  0  0999 V2000
   23.4178  -20.0634   -9.4246 N   0  0  0  0  0  0  0  0  0  0  0  0
   24.1121  -20.8232   -8.4454 C   0  0  0  0  0  0  0  0  0  0  0  0
   23.4671  -21.2618   -7.4607 O   0  0  0  0  0  0  0  0  0  0  0  0
   25.5694  -21.0726   -8.6171 C   0  0  0  0  0  0  0  0  0  0  0  0
   26.0271  -20.2726   -9.8164 C   0  0  0  0  0  0  0  0  0  0  0  0
   25.4270  -20.7566  -11.0961 C   0  0  2  0  0  0  0  0  0  0  0  0
   25.8315  -22.1033  -11.3384 N   0  0  0  0  0  0  0  0  0  0  0  0
   25.7776  -19.8279  -12.1905 C   0  0  0  0  0  0  0  0  0  0  0  0
   25.9935  -18.6223  -11.9043 O   0  0  0  0  0  0  0  0  0  0  0  0
   28.4984  -19.9681  -14.6580 C   0  0  0  0  0  0  0  0  0  0  0  0
   27.2673  -19.6847  -15.4585 C   0  0  1  0  0  0  0  0  0  0  0  0
   26.9334  -20.8377  -16.1742 O   0  0  0  0  0  0  0  0  0  0  0  0
   26.1005  -19.2438  -14.6052 C   0  0  2  0  0  0  0  0  0  0  0  0
   25.8861  -20.2181  -13.5552 N   0  0  0  0  0  0  0  0  0  0  0  0
   24.8771  -19.0179  -15.4102 C   0  0  0  0  0  0  0  0  0  0  0  0
   23.8972  -19.8013  -15.3552 O   0  0  0  0  0  0  0  0  0  0  0  0
   24.7571  -17.9015  -16.2831 N   0  0  0  0  0  0  0  0  0  0  0  0
   23.5085  -17.5449  -16.9255 C   0  0  0  0  0  0  0  0  0  0  0  0
   23.3856  -18.2173  -18.2250 C   0  0  0  0  0  0  0  0  0  0  0  0
   22.2316  -18.0320  -18.9709 O   0  0  0  0  0  0  0  0  0  0  0  0
   24.2836  -18.9618  -18.7026 O   0  0  0  0  0  0  0  0  0  0  0  0
  1  2  1  0
  2  3  2  0
  4  5  1  0
  4  2  1  0
  6  8  1  0
  6  5  1  0
  6  7  1  6
  8  9  2  0
 11 10  1  1
 11 13  1  0
 12 11  1  0
 13 15  1  0
 13 14  1  1
 14  8  1  0
 15 17  1  0
 15 16  2  0
 17 18  1  0
 18 19  1  0
 19 21  2  0
 19 20  1  0
M  END
$$$$
