QTG.pdb
     RDKit          3D

 21 20  0  0  1  0  0  0  0  0999 V2000
   17.0004  -14.0399  -13.6756 N   0  0  0  0  0  0  0  0  0  0  0  0
   16.9211  -14.4820  -15.0233 C   0  0  0  0  0  0  0  0  0  0  0  0
   16.5259  -15.6535  -15.2463 O   0  0  0  0  0  0  0  0  0  0  0  0
   17.3059  -13.5501  -16.1183 C   0  0  0  0  0  0  0  0  0  0  0  0
   17.7914  -12.2708  -15.4738 C   0  0  0  0  0  0  0  0  0  0  0  0
   18.3176  -11.2873  -16.4676 C   0  0  2  0  0  0  0  0  0  0  0  0
   19.2140  -11.9419  -17.3644 N   0  0  0  0  0  0  0  0  0  0  0  0
   18.9229  -10.1412  -15.7583 C   0  0  0  0  0  0  0  0  0  0  0  0
   18.3637   -9.7238  -14.7119 O   0  0  0  0  0  0  0  0  0  0  0  0
   22.3177   -9.8836  -14.3202 C   0  0  0  0  0  0  0  0  0  0  0  0
   22.1225   -8.6573  -15.1536 C   0  0  1  0  0  0  0  0  0  0  0  0
   22.8311   -8.8198  -16.3472 O   0  0  0  0  0  0  0  0  0  0  0  0
   20.6676   -8.3708  -15.4453 C   0  0  2  0  0  0  0  0  0  0  0  0
   20.1064   -9.4786  -16.1906 N   0  0  0  0  0  0  0  0  0  0  0  0
   20.4854   -7.0797  -16.1494 C   0  0  0  0  0  0  0  0  0  0  0  0
   20.1935   -7.0294  -17.3698 O   0  0  0  0  0  0  0  0  0  0  0  0
   20.6332   -5.8371  -15.4739 N   0  0  0  0  0  0  0  0  0  0  0  0
   20.5615   -4.5632  -16.1602 C   0  0  0  0  0  0  0  0  0  0  0  0
   20.7157   -3.4548  -15.2097 C   0  0  0  0  0  0  0  0  0  0  0  0
   20.7013   -2.1532  -15.6873 O   0  0  0  0  0  0  0  0  0  0  0  0
   20.8620   -3.6267  -13.9696 O   0  0  0  0  0  0  0  0  0  0  0  0
  1  2  1  0
  2  3  2  0
  4  5  1  0
  4  2  1  0
  6  8  1  0
  6  5  1  0
  6  7  1  1
  8  9  2  0
 11 10  1  1
 11 13  1  0
 12 11  1  0
 13 15  1  0
 13 14  1  6
 14  8  1  0
 15 17  1  0
 15 16  2  0
 17 18  1  0
 18 19  1  0
 19 21  2  0
 19 20  1  0
M  END
$$$$
