QTG.pdb
     RDKit          3D

 21 20  0  0  1  0  0  0  0  0999 V2000
   16.3482  -10.7133  -11.0109 N   0  0  0  0  0  0  0  0  0  0  0  0
   15.4112  -11.3379  -11.8769 C   0  0  0  0  0  0  0  0  0  0  0  0
   14.3015  -11.6893  -11.4041 O   0  0  0  0  0  0  0  0  0  0  0  0
   15.7720  -11.5538  -13.3047 C   0  0  0  0  0  0  0  0  0  0  0  0
   17.1672  -11.0055  -13.5065 C   0  0  0  0  0  0  0  0  0  0  0  0
   17.6851  -11.2396  -14.8881 C   0  0  2  0  0  0  0  0  0  0  0  0
   17.8122  -12.6412  -15.1235 N   0  0  0  0  0  0  0  0  0  0  0  0
   18.9448  -10.4913  -15.0787 C   0  0  0  0  0  0  0  0  0  0  0  0
   20.0162  -11.0139  -14.6774 O   0  0  0  0  0  0  0  0  0  0  0  0
   20.6112   -9.4308  -18.1179 C   0  0  0  0  0  0  0  0  0  0  0  0
   20.5322   -8.1986  -17.2740 C   0  0  1  0  0  0  0  0  0  0  0  0
   19.5188   -7.3816  -17.7829 O   0  0  0  0  0  0  0  0  0  0  0  0
   20.2758   -8.5010  -15.8157 C   0  0  2  0  0  0  0  0  0  0  0  0
   19.0183   -9.2088  -15.6921 N   0  0  0  0  0  0  0  0  0  0  0  0
   20.3080   -7.2776  -14.9802 C   0  0  0  0  0  0  0  0  0  0  0  0
   19.2865   -6.8619  -14.3796 O   0  0  0  0  0  0  0  0  0  0  0  0
   21.4993   -6.5175  -14.8204 N   0  0  0  0  0  0  0  0  0  0  0  0
   21.5759   -5.3619  -13.9500 C   0  0  0  0  0  0  0  0  0  0  0  0
   22.9406   -4.8205  -13.9289 C   0  0  0  0  0  0  0  0  0  0  0  0
   23.1768   -3.6191  -13.2783 O   0  0  0  0  0  0  0  0  0  0  0  0
   23.9184   -5.3968  -14.4771 O   0  0  0  0  0  0  0  0  0  0  0  0
  1  2  1  0
  2  3  2  0
  4  5  1  0
  4  2  1  0
  6  8  1  0
  6  5  1  0
  6  7  1  1
  8  9  2  0
 11 10  1  6
 11 13  1  0
 12 11  1  0
 13 15  1  0
 13 14  1  6
 14  8  1  0
 15 17  1  0
 15 16  2  0
 17 18  1  0
 18 19  1  0
 19 21  2  0
 19 20  1  0
M  END
$$$$
