QTG.pdb
     RDKit          3D

 21 20  0  0  1  0  0  0  0  0999 V2000
   23.3029  -21.1272   -8.6201 N   0  0  0  0  0  0  0  0  0  0  0  0
   21.8998  -21.1425   -8.3981 C   0  0  0  0  0  0  0  0  0  0  0  0
   21.4630  -21.7194   -7.3711 O   0  0  0  0  0  0  0  0  0  0  0  0
   21.0006  -20.4797   -9.3817 C   0  0  0  0  0  0  0  0  0  0  0  0
   21.8761  -19.8495  -10.4419 C   0  0  0  0  0  0  0  0  0  0  0  0
   21.4790  -20.2432  -11.8273 C   0  0  2  0  0  0  0  0  0  0  0  0
   20.9898  -21.5835  -11.8253 N   0  0  0  0  0  0  0  0  0  0  0  0
   22.6146  -20.0296  -12.7481 C   0  0  0  0  0  0  0  0  0  0  0  0
   23.0458  -18.8582  -12.9026 O   0  0  0  0  0  0  0  0  0  0  0  0
   25.9148  -21.7729  -12.6392 C   0  0  0  0  0  0  0  0  0  0  0  0
   25.4751  -21.7965  -14.0684 C   0  0  1  0  0  0  0  0  0  0  0  0
   25.0588  -23.0940  -14.3788 O   0  0  0  0  0  0  0  0  0  0  0  0
   24.3679  -20.8097  -14.3586 C   0  0  2  0  0  0  0  0  0  0  0  0
   23.2524  -21.0751  -13.4738 N   0  0  0  0  0  0  0  0  0  0  0  0
   23.9628  -20.8318  -15.7838 C   0  0  0  0  0  0  0  0  0  0  0  0
   23.0380  -21.5750  -16.1952 O   0  0  0  0  0  0  0  0  0  0  0  0
   24.6042  -20.0109  -16.7518 N   0  0  0  0  0  0  0  0  0  0  0  0
   24.3121  -20.1020  -18.1679 C   0  0  0  0  0  0  0  0  0  0  0  0
   25.0592  -19.0832  -18.9161 C   0  0  0  0  0  0  0  0  0  0  0  0
   24.3621  -18.1939  -19.7197 O   0  0  0  0  0  0  0  0  0  0  0  0
   26.3138  -18.9738  -18.8655 O   0  0  0  0  0  0  0  0  0  0  0  0
  1  2  1  0
  2  3  2  0
  4  5  1  0
  4  2  1  0
  6  8  1  0
  6  5  1  0
  6  7  1  1
  8  9  2  0
 11 10  1  1
 11 13  1  0
 12 11  1  0
 13 15  1  0
 13 14  1  1
 14  8  1  0
 15 17  1  0
 15 16  2  0
 17 18  1  0
 18 19  1  0
 19 21  2  0
 19 20  1  0
M  END
$$$$
