QTG.pdb
     RDKit          3D

 21 20  0  0  1  0  0  0  0  0999 V2000
   28.2594  -23.0897  -15.6998 N   0  0  0  0  0  0  0  0  0  0  0  0
   29.1775  -23.8843  -16.4372 C   0  0  0  0  0  0  0  0  0  0  0  0
   30.3738  -23.9253  -16.0558 O   0  0  0  0  0  0  0  0  0  0  0  0
   28.6957  -24.6362  -17.6279 C   0  0  0  0  0  0  0  0  0  0  0  0
   27.2020  -24.4190  -17.7260 C   0  0  0  0  0  0  0  0  0  0  0  0
   26.4256  -25.3404  -16.8428 C   0  0  2  0  0  0  0  0  0  0  0  0
   26.5855  -26.6855  -17.2913 N   0  0  0  0  0  0  0  0  0  0  0  0
   25.0163  -24.9004  -16.7840 C   0  0  0  0  0  0  0  0  0  0  0  0
   24.3314  -24.9486  -17.8377 O   0  0  0  0  0  0  0  0  0  0  0  0
   22.4711  -26.5060  -15.8227 C   0  0  0  0  0  0  0  0  0  0  0  0
   22.1769  -25.2408  -15.0815 C   0  0  1  0  0  0  0  0  0  0  0  0
   22.4335  -25.4565  -13.7247 O   0  0  0  0  0  0  0  0  0  0  0  0
   22.9819  -24.0648  -15.5843 C   0  0  2  0  0  0  0  0  0  0  0  0
   24.3851  -24.4230  -15.6007 N   0  0  0  0  0  0  0  0  0  0  0  0
   22.7317  -22.8393  -14.7898 C   0  0  0  0  0  0  0  0  0  0  0  0
   23.2549  -22.6663  -13.6614 O   0  0  0  0  0  0  0  0  0  0  0  0
   21.8861  -21.8016  -15.2701 N   0  0  0  0  0  0  0  0  0  0  0  0
   21.5752  -20.6236  -14.4862 C   0  0  0  0  0  0  0  0  0  0  0  0
   20.1688  -20.6399  -14.0646 C   0  0  0  0  0  0  0  0  0  0  0  0
   19.5711  -21.8546  -13.7653 O   0  0  0  0  0  0  0  0  0  0  0  0
   19.4694  -19.5965  -13.9597 O   0  0  0  0  0  0  0  0  0  0  0  0
  1  2  1  0
  2  3  2  0
  4  5  1  0
  4  2  1  0
  6  8  1  0
  6  5  1  0
  6  7  1  6
  8  9  2  0
 11 10  1  6
 11 13  1  0
 12 11  1  0
 13 15  1  0
 13 14  1  1
 14  8  1  0
 15 17  1  0
 15 16  2  0
 17 18  1  0
 18 19  1  0
 19 21  2  0
 19 20  1  0
M  END
$$$$
