NPK.pdb
     RDKit          3D

 25 25  0  0  1  0  0  0  0  0999 V2000
   14.2115  -16.5513   18.3390 N   0  0  0  0  0  0  0  0  0  0  0  0
   13.4766  -16.5669   19.5443 C   0  0  0  0  0  0  0  0  0  0  0  0
   13.1460  -17.7177   19.9776 O   0  0  0  0  0  0  0  0  0  0  0  0
   13.1205  -15.3296   20.2471 C   0  0  0  0  0  0  0  0  0  0  0  0
   11.9594  -14.6830   19.4731 C   0  0  2  0  0  0  0  0  0  0  0  0
   12.4896  -13.5414   18.8283 N   0  0  0  0  0  0  0  0  0  0  0  0
   10.8668  -14.4927   20.4165 C   0  0  0  0  0  0  0  0  0  0  0  0
   11.0923  -13.7581   21.4545 O   0  0  0  0  0  0  0  0  0  0  0  0
    9.5523  -15.0215   20.3425 N   0  0  0  0  0  0  0  0  0  0  0  0
    9.0324  -15.8114   19.2690 C   0  0  0  0  0  0  0  0  0  0  0  0
    7.9844  -16.6833   19.9430 C   0  0  0  0  0  0  0  0  0  0  0  0
    7.2940  -15.5993   20.7848 C   0  0  0  0  0  0  0  0  0  0  0  0
    8.4908  -14.8684   21.3229 C   0  0  1  0  0  0  0  0  0  0  0  0
    8.9001  -15.3353   22.6656 C   0  0  0  0  0  0  0  0  0  0  0  0
    9.8294  -16.1824   22.7818 O   0  0  0  0  0  0  0  0  0  0  0  0
    8.3139  -14.8932   23.8643 N   0  0  0  0  0  0  0  0  0  0  0  0
    8.7716  -15.2528   25.1992 C   0  0  1  0  0  0  0  0  0  0  0  0
    7.8768  -14.7432   26.2628 C   0  0  0  0  0  0  0  0  0  0  0  0
    7.7412  -13.2528   26.2030 C   0  0  0  0  0  0  0  0  0  0  0  0
    6.4250  -12.7571   26.7510 C   0  0  0  0  0  0  0  0  0  0  0  0
    6.4233  -11.2335   26.6529 C   0  0  0  0  0  0  0  0  0  0  0  0
    5.2509  -10.6662   27.2847 N   0  0  0  0  0  0  0  0  0  0  0  0
    8.8319  -16.7238   25.2490 C   0  0  0  0  0  0  0  0  0  0  0  0
    8.2856  -17.5074   24.4243 O   0  0  0  0  0  0  0  0  0  0  0  0
    9.5644  -17.3036   26.3112 O   0  0  0  0  0  0  0  0  0  0  0  0
  1  2  1  0
  2  3  2  0
  4  2  1  0
  5  4  1  0
  5  6  1  1
  7  5  1  0
  7  9  1  0
  8  7  2  0
  9 13  1  0
 10  9  1  0
 10 11  1  0
 11 12  1  0
 13 12  1  0
 13 14  1  1
 14 15  2  0
 16 14  1  0
 17 16  1  0
 17 18  1  1
 19 18  1  0
 20 19  1  0
 20 21  1  0
 22 21  1  0
 23 17  1  0
 24 23  2  0
 25 23  1  0
M  END
$$$$
