NPK.pdb
     RDKit          3D

 25 25  0  0  1  0  0  0  0  0999 V2000
   11.4040  -15.9050   16.8893 N   0  0  0  0  0  0  0  0  0  0  0  0
   11.6004  -16.7414   18.0095 C   0  0  0  0  0  0  0  0  0  0  0  0
   11.8224  -17.9688   17.7534 O   0  0  0  0  0  0  0  0  0  0  0  0
   11.5501  -16.2204   19.3798 C   0  0  0  0  0  0  0  0  0  0  0  0
   10.2691  -16.7694   20.0302 C   0  0  2  0  0  0  0  0  0  0  0  0
    9.1907  -16.3464   19.2187 N   0  0  0  0  0  0  0  0  0  0  0  0
   10.2825  -16.3530   21.4253 C   0  0  0  0  0  0  0  0  0  0  0  0
   11.3050  -16.6860   22.1404 O   0  0  0  0  0  0  0  0  0  0  0  0
    9.2940  -15.6092   22.1200 N   0  0  0  0  0  0  0  0  0  0  0  0
    8.1483  -14.9907   21.5270 C   0  0  0  0  0  0  0  0  0  0  0  0
    7.1190  -14.9993   22.6466 C   0  0  0  0  0  0  0  0  0  0  0  0
    8.0198  -14.5021   23.7875 C   0  0  0  0  0  0  0  0  0  0  0  0
    9.2489  -15.3309   23.5455 C   0  0  1  0  0  0  0  0  0  0  0  0
    9.2835  -16.5676   24.3565 C   0  0  0  0  0  0  0  0  0  0  0  0
    8.6423  -17.5875   23.9778 O   0  0  0  0  0  0  0  0  0  0  0  0
   10.0002  -16.6998   25.5585 N   0  0  0  0  0  0  0  0  0  0  0  0
   10.1499  -17.9390   26.3088 C   0  0  1  0  0  0  0  0  0  0  0  0
   11.4007  -17.9763   27.0997 C   0  0  0  0  0  0  0  0  0  0  0  0
   11.5486  -19.2711   27.8379 C   0  0  0  0  0  0  0  0  0  0  0  0
   12.7748  -19.3129   28.7172 C   0  0  0  0  0  0  0  0  0  0  0  0
   12.7722  -20.6480   29.4578 C   0  0  0  0  0  0  0  0  0  0  0  0
   13.9368  -20.7816   30.3071 N   0  0  0  0  0  0  0  0  0  0  0  0
    8.9825  -18.0423   27.2012 C   0  0  0  0  0  0  0  0  0  0  0  0
    8.2131  -17.0920   27.5137 O   0  0  0  0  0  0  0  0  0  0  0  0
    8.7028  -19.3147   27.7524 O   0  0  0  0  0  0  0  0  0  0  0  0
  1  2  1  0
  2  3  2  0
  4  2  1  0
  5  4  1  0
  5  6  1  6
  7  5  1  0
  7  9  1  0
  8  7  2  0
  9 13  1  0
 10  9  1  0
 10 11  1  0
 11 12  1  0
 13 12  1  0
 13 14  1  1
 14 15  2  0
 16 14  1  0
 17 16  1  0
 17 18  1  1
 19 18  1  0
 20 19  1  0
 20 21  1  0
 22 21  1  0
 23 17  1  0
 24 23  2  0
 25 23  1  0
M  END
$$$$
