NPK.pdb
     RDKit          3D

 25 25  0  0  1  0  0  0  0  0999 V2000
    3.0077  -17.4310   20.5526 N   0  0  0  0  0  0  0  0  0  0  0  0
    4.0998  -18.2704   20.2431 C   0  0  0  0  0  0  0  0  0  0  0  0
    3.8174  -19.3362   19.6063 O   0  0  0  0  0  0  0  0  0  0  0  0
    5.4714  -17.9281   20.6347 C   0  0  0  0  0  0  0  0  0  0  0  0
    6.1733  -17.3600   19.3898 C   0  0  2  0  0  0  0  0  0  0  0  0
    6.3122  -18.4332   18.4792 N   0  0  0  0  0  0  0  0  0  0  0  0
    7.3810  -16.6870   19.8464 C   0  0  0  0  0  0  0  0  0  0  0  0
    8.3908  -17.4232   20.1721 O   0  0  0  0  0  0  0  0  0  0  0  0
    7.5998  -15.2919   19.9832 N   0  0  0  0  0  0  0  0  0  0  0  0
    6.6631  -14.2654   19.6431 C   0  0  0  0  0  0  0  0  0  0  0  0
    7.0158  -13.1318   20.5935 C   0  0  0  0  0  0  0  0  0  0  0  0
    8.5425  -13.1596   20.4239 C   0  0  0  0  0  0  0  0  0  0  0  0
    8.7968  -14.6387   20.4852 C   0  0  1  0  0  0  0  0  0  0  0  0
    9.1623  -15.1087   21.8394 C   0  0  0  0  0  0  0  0  0  0  0  0
    8.4132  -14.8451   22.8213 O   0  0  0  0  0  0  0  0  0  0  0  0
   10.3199  -15.8523   22.1278 N   0  0  0  0  0  0  0  0  0  0  0  0
   10.7242  -16.2842   23.4586 C   0  0  1  0  0  0  0  0  0  0  0  0
   10.7312  -17.7578   23.5995 C   0  0  0  0  0  0  0  0  0  0  0  0
    9.3726  -18.3416   23.3618 C   0  0  0  0  0  0  0  0  0  0  0  0
    9.3704  -19.8510   23.3605 C   0  0  0  0  0  0  0  0  0  0  0  0
    7.9304  -20.3151   23.1554 C   0  0  0  0  0  0  0  0  0  0  0  0
    7.8483  -21.7580   23.0739 N   0  0  0  0  0  0  0  0  0  0  0  0
   12.0757  -15.7462   23.6906 C   0  0  0  0  0  0  0  0  0  0  0  0
   12.8535  -15.3097   22.7977 O   0  0  0  0  0  0  0  0  0  0  0  0
   12.5377  -15.7176   25.0274 O   0  0  0  0  0  0  0  0  0  0  0  0
  1  2  1  0
  2  3  2  0
  4  2  1  0
  5  4  1  0
  5  6  1  6
  7  5  1  0
  7  9  1  0
  8  7  2  0
  9 13  1  0
 10  9  1  0
 10 11  1  0
 11 12  1  0
 13 12  1  0
 13 14  1  1
 14 15  2  0
 16 14  1  0
 17 16  1  0
 17 18  1  6
 19 18  1  0
 20 19  1  0
 20 21  1  0
 22 21  1  0
 23 17  1  0
 24 23  2  0
 25 23  1  0
M  END
$$$$
