NPK.pdb
     RDKit          3D

 25 25  0  0  1  0  0  0  0  0999 V2000
   10.6767  -15.0927   16.1698 N   0  0  0  0  0  0  0  0  0  0  0  0
   11.1337  -16.1468   16.9903 C   0  0  0  0  0  0  0  0  0  0  0  0
   11.1284  -17.3046   16.4605 O   0  0  0  0  0  0  0  0  0  0  0  0
   11.5848  -15.9134   18.3665 C   0  0  0  0  0  0  0  0  0  0  0  0
   11.4910  -14.4007   18.6273 C   0  0  2  0  0  0  0  0  0  0  0  0
   12.8076  -13.8924   18.5358 N   0  0  0  0  0  0  0  0  0  0  0  0
   10.7730  -14.2241   19.8817 C   0  0  0  0  0  0  0  0  0  0  0  0
   11.4652  -14.2118   20.9719 O   0  0  0  0  0  0  0  0  0  0  0  0
    9.3763  -14.0587   20.0679 N   0  0  0  0  0  0  0  0  0  0  0  0
    8.4175  -13.8457   19.0277 C   0  0  0  0  0  0  0  0  0  0  0  0
    7.1404  -14.4496   19.5907 C   0  0  0  0  0  0  0  0  0  0  0  0
    7.2055  -13.8446   21.0015 C   0  0  0  0  0  0  0  0  0  0  0  0
    8.6539  -14.0709   21.3287 C   0  0  1  0  0  0  0  0  0  0  0  0
    8.8881  -15.3152   22.0936 C   0  0  0  0  0  0  0  0  0  0  0  0
    9.0123  -16.4148   21.4852 O   0  0  0  0  0  0  0  0  0  0  0  0
    8.9866  -15.3701   23.4948 N   0  0  0  0  0  0  0  0  0  0  0  0
    9.1525  -16.5902   24.2724 C   0  0  1  0  0  0  0  0  0  0  0  0
    9.0835  -16.3475   25.7312 C   0  0  0  0  0  0  0  0  0  0  0  0
   10.1162  -15.3579   26.1756 C   0  0  0  0  0  0  0  0  0  0  0  0
    9.9934  -14.9913   27.6347 C   0  0  0  0  0  0  0  0  0  0  0  0
   11.0578  -13.9409   27.9426 C   0  0  0  0  0  0  0  0  0  0  0  0
   10.9598  -13.4767   29.3102 N   0  0  0  0  0  0  0  0  0  0  0  0
    8.0779  -17.5096   23.8601 C   0  0  0  0  0  0  0  0  0  0  0  0
    6.8892  -17.1763   23.5986 O   0  0  0  0  0  0  0  0  0  0  0  0
    8.4094  -18.8803   23.7485 O   0  0  0  0  0  0  0  0  0  0  0  0
  1  2  1  0
  2  3  2  0
  4  2  1  0
  5  4  1  0
  5  6  1  1
  7  5  1  0
  7  9  1  0
  8  7  2  0
  9 13  1  0
 10  9  1  0
 10 11  1  0
 11 12  1  0
 13 12  1  0
 13 14  1  6
 14 15  2  0
 16 14  1  0
 17 16  1  0
 17 18  1  1
 19 18  1  0
 20 19  1  0
 20 21  1  0
 22 21  1  0
 23 17  1  0
 24 23  2  0
 25 23  1  0
M  END
$$$$
