NPK.pdb
     RDKit          3D

 25 25  0  0  1  0  0  0  0  0999 V2000
    9.4480  -20.5417   17.9597 N   0  0  0  0  0  0  0  0  0  0  0  0
    8.7967  -19.3096   18.1853 C   0  0  0  0  0  0  0  0  0  0  0  0
    7.9785  -18.9410   17.2820 O   0  0  0  0  0  0  0  0  0  0  0  0
    9.0526  -18.5104   19.3884 C   0  0  0  0  0  0  0  0  0  0  0  0
    9.4483  -17.0989   18.9231 C   0  0  2  0  0  0  0  0  0  0  0  0
   10.6749  -17.2304   18.2314 N   0  0  0  0  0  0  0  0  0  0  0  0
    9.4100  -16.2336   20.0935 C   0  0  0  0  0  0  0  0  0  0  0  0
   10.3672  -16.3454   20.9532 O   0  0  0  0  0  0  0  0  0  0  0  0
    8.4338  -15.2577   20.4214 N   0  0  0  0  0  0  0  0  0  0  0  0
    7.3569  -14.8413   19.5766 C   0  0  0  0  0  0  0  0  0  0  0  0
    6.2751  -14.4207   20.5592 C   0  0  0  0  0  0  0  0  0  0  0  0
    7.1463  -13.5920   21.5156 C   0  0  0  0  0  0  0  0  0  0  0  0
    8.3351  -14.4991   21.6568 C   0  0  1  0  0  0  0  0  0  0  0  0
    8.2571  -15.3765   22.8453 C   0  0  0  0  0  0  0  0  0  0  0  0
    7.5524  -16.4239   22.8100 O   0  0  0  0  0  0  0  0  0  0  0  0
    8.9306  -15.1257   24.0534 N   0  0  0  0  0  0  0  0  0  0  0  0
    8.8093  -15.9328   25.2595 C   0  0  1  0  0  0  0  0  0  0  0  0
    9.5797  -15.3766   26.3947 C   0  0  0  0  0  0  0  0  0  0  0  0
    9.4057  -16.1980   27.6350 C   0  0  0  0  0  0  0  0  0  0  0  0
   10.6685  -16.3044   28.4549 C   0  0  0  0  0  0  0  0  0  0  0  0
   10.3661  -17.1849   29.6650 C   0  0  0  0  0  0  0  0  0  0  0  0
   11.5144  -17.2904   30.5400 N   0  0  0  0  0  0  0  0  0  0  0  0
    7.3764  -15.9855   25.5966 C   0  0  0  0  0  0  0  0  0  0  0  0
    6.5505  -15.0454   25.4331 O   0  0  0  0  0  0  0  0  0  0  0  0
    6.8879  -17.1925   26.1495 O   0  0  0  0  0  0  0  0  0  0  0  0
  1  2  1  0
  2  3  2  0
  4  2  1  0
  5  4  1  0
  5  6  1  1
  7  5  1  0
  7  9  1  0
  8  7  2  0
  9 13  1  0
 10  9  1  0
 10 11  1  0
 11 12  1  0
 13 12  1  0
 13 14  1  1
 14 15  2  0
 16 14  1  0
 17 16  1  0
 17 18  1  1
 19 18  1  0
 20 19  1  0
 20 21  1  0
 22 21  1  0
 23 17  1  0
 24 23  2  0
 25 23  1  0
M  END
$$$$
