NPK.pdb
     RDKit          3D

 25 25  0  0  1  0  0  0  0  0999 V2000
   13.8096  -15.7091   17.5172 N   0  0  0  0  0  0  0  0  0  0  0  0
   12.5120  -15.9891   17.9976 C   0  0  0  0  0  0  0  0  0  0  0  0
   11.7538  -16.6346   17.2041 O   0  0  0  0  0  0  0  0  0  0  0  0
   12.0729  -15.5592   19.3296 C   0  0  0  0  0  0  0  0  0  0  0  0
   11.0519  -14.4265   19.1303 C   0  0  2  0  0  0  0  0  0  0  0  0
   11.7768  -13.3074   18.6587 N   0  0  0  0  0  0  0  0  0  0  0  0
   10.3126  -14.2893   20.3771 C   0  0  0  0  0  0  0  0  0  0  0  0
   10.9600  -13.8761   21.4154 O   0  0  0  0  0  0  0  0  0  0  0  0
    8.9383  -14.5563   20.6066 N   0  0  0  0  0  0  0  0  0  0  0  0
    8.0076  -15.0285   19.6281 C   0  0  0  0  0  0  0  0  0  0  0  0
    6.9955  -15.8133   20.4482 C   0  0  0  0  0  0  0  0  0  0  0  0
    6.7911  -14.8014   21.5860 C   0  0  0  0  0  0  0  0  0  0  0  0
    8.2143  -14.4051   21.8574 C   0  0  1  0  0  0  0  0  0  0  0  0
    8.8322  -15.1786   22.9565 C   0  0  0  0  0  0  0  0  0  0  0  0
    9.5286  -16.1991   22.6947 O   0  0  0  0  0  0  0  0  0  0  0  0
    8.6995  -14.8542   24.3178 N   0  0  0  0  0  0  0  0  0  0  0  0
    9.4444  -15.4802   25.4013 C   0  0  1  0  0  0  0  0  0  0  0  0
    9.3852  -14.6984   26.6570 C   0  0  0  0  0  0  0  0  0  0  0  0
   10.1738  -15.3501   27.7508 C   0  0  0  0  0  0  0  0  0  0  0  0
   10.1403  -14.5749   29.0456 C   0  0  0  0  0  0  0  0  0  0  0  0
   10.9671  -15.3455   30.0720 C   0  0  0  0  0  0  0  0  0  0  0  0
   11.1106  -14.5966   31.3024 N   0  0  0  0  0  0  0  0  0  0  0  0
    8.8582  -16.8158   25.6075 C   0  0  0  0  0  0  0  0  0  0  0  0
    7.6400  -17.1113   25.4618 O   0  0  0  0  0  0  0  0  0  0  0  0
    9.7370  -17.8519   26.0017 O   0  0  0  0  0  0  0  0  0  0  0  0
  1  2  1  0
  2  3  2  0
  4  2  1  0
  5  4  1  0
  5  6  1  1
  7  5  1  0
  7  9  1  0
  8  7  2  0
  9 13  1  0
 10  9  1  0
 10 11  1  0
 11 12  1  0
 13 12  1  0
 13 14  1  1
 14 15  2  0
 16 14  1  0
 17 16  1  0
 17 18  1  1
 19 18  1  0
 20 19  1  0
 20 21  1  0
 22 21  1  0
 23 17  1  0
 24 23  2  0
 25 23  1  0
M  END
$$$$
