NPK.pdb
     RDKit          3D

 25 25  0  0  1  0  0  0  0  0999 V2000
    6.9146  -16.8869   20.0385 N   0  0  0  0  0  0  0  0  0  0  0  0
    6.2791  -16.3992   21.2010 C   0  0  0  0  0  0  0  0  0  0  0  0
    5.0217  -16.2197   21.1121 O   0  0  0  0  0  0  0  0  0  0  0  0
    7.0287  -16.1194   22.4304 C   0  0  0  0  0  0  0  0  0  0  0  0
    7.5559  -14.6784   22.3257 C   0  0  2  0  0  0  0  0  0  0  0  0
    8.3262  -14.6150   21.1413 N   0  0  0  0  0  0  0  0  0  0  0  0
    8.2114  -14.3674   23.5881 C   0  0  0  0  0  0  0  0  0  0  0  0
    9.3835  -14.8690   23.7943 O   0  0  0  0  0  0  0  0  0  0  0  0
    7.7189  -13.5639   24.6485 N   0  0  0  0  0  0  0  0  0  0  0  0
    6.4909  -12.8300   24.6353 C   0  0  0  0  0  0  0  0  0  0  0  0
    6.0861  -12.7859   26.1006 C   0  0  0  0  0  0  0  0  0  0  0  0
    7.4480  -12.4054   26.7014 C   0  0  0  0  0  0  0  0  0  0  0  0
    8.3516  -13.3289   25.9354 C   0  0  1  0  0  0  0  0  0  0  0  0
    8.6372  -14.5896   26.6549 C   0  0  0  0  0  0  0  0  0  0  0  0
    7.7013  -15.4015   26.8990 O   0  0  0  0  0  0  0  0  0  0  0  0
    9.9148  -14.9667   27.1037 N   0  0  0  0  0  0  0  0  0  0  0  0
   10.2275  -16.2221   27.7721 C   0  0  1  0  0  0  0  0  0  0  0  0
   11.5214  -16.7922   27.3334 C   0  0  0  0  0  0  0  0  0  0  0  0
   11.3301  -18.0416   26.5300 C   0  0  0  0  0  0  0  0  0  0  0  0
   12.6275  -18.6203   26.0199 C   0  0  0  0  0  0  0  0  0  0  0  0
   12.2929  -19.8634   25.1991 C   0  0  0  0  0  0  0  0  0  0  0  0
   13.4897  -20.4868   24.6752 N   0  0  0  0  0  0  0  0  0  0  0  0
   10.2619  -15.9401   29.2175 C   0  0  0  0  0  0  0  0  0  0  0  0
   10.1746  -14.7959   29.7427 O   0  0  0  0  0  0  0  0  0  0  0  0
   10.4045  -17.0466   30.0873 O   0  0  0  0  0  0  0  0  0  0  0  0
  1  2  1  0
  2  3  2  0
  4  2  1  0
  5  4  1  0
  5  6  1  6
  7  5  1  0
  7  9  1  0
  8  7  2  0
  9 13  1  0
 10  9  1  0
 10 11  1  0
 11 12  1  0
 13 12  1  0
 13 14  1  1
 14 15  2  0
 16 14  1  0
 17 16  1  0
 17 18  1  6
 19 18  1  0
 20 19  1  0
 20 21  1  0
 22 21  1  0
 23 17  1  0
 24 23  2  0
 25 23  1  0
M  END
$$$$
