NPK.pdb
     RDKit          3D

 25 25  0  0  1  0  0  0  0  0999 V2000
    8.4328  -19.8470   16.8194 N   0  0  0  0  0  0  0  0  0  0  0  0
    8.1626  -18.5632   17.3408 C   0  0  0  0  0  0  0  0  0  0  0  0
    7.3291  -17.8611   16.6825 O   0  0  0  0  0  0  0  0  0  0  0  0
    8.8068  -18.0766   18.5656 C   0  0  0  0  0  0  0  0  0  0  0  0
    9.3483  -16.6683   18.2680 C   0  0  2  0  0  0  0  0  0  0  0  0
   10.5620  -16.8426   17.5632 N   0  0  0  0  0  0  0  0  0  0  0  0
    9.3864  -15.9461   19.5317 C   0  0  0  0  0  0  0  0  0  0  0  0
   10.3280  -16.2437   20.3639 O   0  0  0  0  0  0  0  0  0  0  0  0
    8.5021  -14.9313   19.9800 N   0  0  0  0  0  0  0  0  0  0  0  0
    7.4883  -14.3026   19.1903 C   0  0  0  0  0  0  0  0  0  0  0  0
    6.4315  -13.9121   20.2119 C   0  0  0  0  0  0  0  0  0  0  0  0
    7.3581  -13.3075   21.2778 C   0  0  0  0  0  0  0  0  0  0  0  0
    8.4508  -14.3377   21.3053 C   0  0  1  0  0  0  0  0  0  0  0  0
    8.2638  -15.3534   22.3645 C   0  0  0  0  0  0  0  0  0  0  0  0
    7.5266  -16.3565   22.1522 O   0  0  0  0  0  0  0  0  0  0  0  0
    8.8644  -15.2858   23.6336 N   0  0  0  0  0  0  0  0  0  0  0  0
    8.7421  -16.3018   24.6697 C   0  0  1  0  0  0  0  0  0  0  0  0
    9.6025  -16.0238   25.8419 C   0  0  0  0  0  0  0  0  0  0  0  0
    9.5525  -17.1391   26.8403 C   0  0  0  0  0  0  0  0  0  0  0  0
   10.3863  -16.8695   28.0693 C   0  0  0  0  0  0  0  0  0  0  0  0
   10.2263  -18.0599   29.0118 C   0  0  0  0  0  0  0  0  0  0  0  0
   10.9695  -17.8643   30.2385 N   0  0  0  0  0  0  0  0  0  0  0  0
    7.3264  -16.3307   25.0755 C   0  0  0  0  0  0  0  0  0  0  0  0
    6.5370  -15.3464   25.0502 O   0  0  0  0  0  0  0  0  0  0  0  0
    6.8112  -17.5670   25.5310 O   0  0  0  0  0  0  0  0  0  0  0  0
  1  2  1  0
  2  3  2  0
  4  2  1  0
  5  4  1  0
  5  6  1  1
  7  5  1  0
  7  9  1  0
  8  7  2  0
  9 13  1  0
 10  9  1  0
 10 11  1  0
 11 12  1  0
 13 12  1  0
 13 14  1  1
 14 15  2  0
 16 14  1  0
 17 16  1  0
 17 18  1  1
 19 18  1  0
 20 19  1  0
 20 21  1  0
 22 21  1  0
 23 17  1  0
 24 23  2  0
 25 23  1  0
M  END
$$$$
