NPK.pdb
     RDKit          3D

 25 25  0  0  1  0  0  0  0  0999 V2000
    6.2391  -18.0431   15.8671 N   0  0  0  0  0  0  0  0  0  0  0  0
    7.6234  -17.7930   15.7475 C   0  0  0  0  0  0  0  0  0  0  0  0
    8.0934  -17.8282   14.5646 O   0  0  0  0  0  0  0  0  0  0  0  0
    8.4605  -17.5109   16.9185 C   0  0  0  0  0  0  0  0  0  0  0  0
    9.1027  -16.1308   16.6989 C   0  0  2  0  0  0  0  0  0  0  0  0
   10.1248  -16.3091   15.7377 N   0  0  0  0  0  0  0  0  0  0  0  0
    9.4751  -15.6162   18.0090 C   0  0  0  0  0  0  0  0  0  0  0  0
   10.5166  -16.1246   18.5788 O   0  0  0  0  0  0  0  0  0  0  0  0
    8.8273  -14.6024   18.7609 N   0  0  0  0  0  0  0  0  0  0  0  0
    7.6991  -13.8370   18.3272 C   0  0  0  0  0  0  0  0  0  0  0  0
    6.9827  -13.4919   19.6235 C   0  0  0  0  0  0  0  0  0  0  0  0
    8.2031  -13.0559   20.4486 C   0  0  0  0  0  0  0  0  0  0  0  0
    9.1742  -14.1462   20.0962 C   0  0  1  0  0  0  0  0  0  0  0  0
    9.1855  -15.2525   21.0782 C   0  0  0  0  0  0  0  0  0  0  0  0
    8.2910  -16.1429   21.0343 O   0  0  0  0  0  0  0  0  0  0  0  0
   10.1488  -15.3942   22.0921 N   0  0  0  0  0  0  0  0  0  0  0  0
   10.2738  -16.5505   22.9686 C   0  0  1  0  0  0  0  0  0  0  0  0
   11.6754  -17.0043   23.1135 C   0  0  0  0  0  0  0  0  0  0  0  0
   11.7823  -18.1815   24.0333 C   0  0  0  0  0  0  0  0  0  0  0  0
   13.1971  -18.6845   24.1869 C   0  0  0  0  0  0  0  0  0  0  0  0
   13.1639  -19.8920   25.1207 C   0  0  0  0  0  0  0  0  0  0  0  0
   14.4425  -20.5699   25.1509 N   0  0  0  0  0  0  0  0  0  0  0  0
    9.7312  -16.1541   24.2794 C   0  0  0  0  0  0  0  0  0  0  0  0
    9.4320  -16.9438   25.2173 O   0  0  0  0  0  0  0  0  0  0  0  0
    9.5299  -14.7718   24.5028 O   0  0  0  0  0  0  0  0  0  0  0  0
  1  2  1  0
  2  3  2  0
  4  2  1  0
  5  4  1  0
  5  6  1  6
  7  5  1  0
  7  9  1  0
  8  7  2  0
  9 13  1  0
 10  9  1  0
 10 11  1  0
 11 12  1  0
 13 12  1  0
 13 14  1  1
 14 15  2  0
 16 14  1  0
 17 16  1  0
 17 18  1  1
 19 18  1  0
 20 19  1  0
 20 21  1  0
 22 21  1  0
 23 17  1  0
 24 23  2  0
 25 23  1  0
M  END
$$$$
