NPK.pdb
     RDKit          3D

 25 25  0  0  1  0  0  0  0  0999 V2000
    7.5492  -18.7229   18.7979 N   0  0  0  0  0  0  0  0  0  0  0  0
    7.7455  -18.1413   17.5266 C   0  0  0  0  0  0  0  0  0  0  0  0
    8.5074  -18.7838   16.7342 O   0  0  0  0  0  0  0  0  0  0  0  0
    7.1074  -16.8752   17.1504 C   0  0  0  0  0  0  0  0  0  0  0  0
    8.2265  -15.9056   16.7350 C   0  0  2  0  0  0  0  0  0  0  0  0
    8.9974  -16.5740   15.7556 N   0  0  0  0  0  0  0  0  0  0  0  0
    8.8935  -15.4709   17.9541 C   0  0  0  0  0  0  0  0  0  0  0  0
   10.0029  -16.0516   18.2700 O   0  0  0  0  0  0  0  0  0  0  0  0
    8.4739  -14.4661   18.8636 N   0  0  0  0  0  0  0  0  0  0  0  0
    7.3049  -13.6532   18.7242 C   0  0  0  0  0  0  0  0  0  0  0  0
    6.9195  -13.3338   20.1603 C   0  0  0  0  0  0  0  0  0  0  0  0
    8.3122  -12.9633   20.6925 C   0  0  0  0  0  0  0  0  0  0  0  0
    9.1355  -14.0682   20.0946 C   0  0  1  0  0  0  0  0  0  0  0  0
    9.3321  -15.2087   21.0159 C   0  0  0  0  0  0  0  0  0  0  0  0
    8.4524  -16.1110   21.0982 O   0  0  0  0  0  0  0  0  0  0  0  0
   10.4623  -15.3714   21.8358 N   0  0  0  0  0  0  0  0  0  0  0  0
   10.7163  -16.5252   22.6873 C   0  0  1  0  0  0  0  0  0  0  0  0
   12.1030  -17.0284   22.5631 C   0  0  0  0  0  0  0  0  0  0  0  0
   12.3570  -18.1806   23.4856 C   0  0  0  0  0  0  0  0  0  0  0  0
   13.7836  -18.6713   23.4389 C   0  0  0  0  0  0  0  0  0  0  0  0
   13.8996  -19.8591   24.3911 C   0  0  0  0  0  0  0  0  0  0  0  0
   15.2046  -20.4792   24.3033 N   0  0  0  0  0  0  0  0  0  0  0  0
   10.4534  -16.1003   24.0730 C   0  0  0  0  0  0  0  0  0  0  0  0
   10.3663  -14.9050   24.4684 O   0  0  0  0  0  0  0  0  0  0  0  0
   10.2847  -17.1197   25.0392 O   0  0  0  0  0  0  0  0  0  0  0  0
  1  2  1  0
  2  3  2  0
  4  2  1  0
  5  4  1  0
  5  6  1  6
  7  5  1  0
  7  9  1  0
  8  7  2  0
  9 13  1  0
 10  9  1  0
 10 11  1  0
 11 12  1  0
 13 12  1  0
 13 14  1  1
 14 15  2  0
 16 14  1  0
 17 16  1  0
 17 18  1  1
 19 18  1  0
 20 19  1  0
 20 21  1  0
 22 21  1  0
 23 17  1  0
 24 23  2  0
 25 23  1  0
M  END
$$$$
