NPK.pdb
     RDKit          3D

 25 25  0  0  1  0  0  0  0  0999 V2000
    7.5814  -18.3804   14.4634 N   0  0  0  0  0  0  0  0  0  0  0  0
    7.4454  -17.1444   15.1320 C   0  0  0  0  0  0  0  0  0  0  0  0
    6.6602  -16.3027   14.5877 O   0  0  0  0  0  0  0  0  0  0  0  0
    8.1677  -16.8563   16.3758 C   0  0  0  0  0  0  0  0  0  0  0  0
    8.9174  -15.5291   16.1715 C   0  0  2  0  0  0  0  0  0  0  0  0
    9.8565  -15.7505   15.1373 N   0  0  0  0  0  0  0  0  0  0  0  0
    9.4168  -15.1122   17.4740 C   0  0  0  0  0  0  0  0  0  0  0  0
   10.5250  -15.6321   17.8855 O   0  0  0  0  0  0  0  0  0  0  0  0
    8.8306  -14.1848   18.3735 N   0  0  0  0  0  0  0  0  0  0  0  0
    7.6624  -13.4002   18.1158 C   0  0  0  0  0  0  0  0  0  0  0  0
    7.0615  -13.1910   19.4971 C   0  0  0  0  0  0  0  0  0  0  0  0
    8.3470  -12.8153   20.2498 C   0  0  0  0  0  0  0  0  0  0  0  0
    9.2914  -13.8515   19.7107 C   0  0  1  0  0  0  0  0  0  0  0  0
    9.3986  -15.0455   20.5775 C   0  0  0  0  0  0  0  0  0  0  0  0
    8.4292  -15.8503   20.6638 O   0  0  0  0  0  0  0  0  0  0  0  0
   10.5361  -15.3647   21.3391 N   0  0  0  0  0  0  0  0  0  0  0  0
   10.7245  -16.6057   22.0775 C   0  0  1  0  0  0  0  0  0  0  0  0
   11.6433  -17.5412   21.3904 C   0  0  0  0  0  0  0  0  0  0  0  0
   11.8851  -18.7751   22.2043 C   0  0  0  0  0  0  0  0  0  0  0  0
   11.5329  -20.0457   21.4696 C   0  0  0  0  0  0  0  0  0  0  0  0
   11.7874  -21.2170   22.4153 C   0  0  0  0  0  0  0  0  0  0  0  0
   11.5393  -22.4848   21.7623 N   0  0  0  0  0  0  0  0  0  0  0  0
   11.2671  -16.2400   23.3973 C   0  0  0  0  0  0  0  0  0  0  0  0
   11.0283  -16.8429   24.4799 O   0  0  0  0  0  0  0  0  0  0  0  0
   12.1278  -15.1187   23.4525 O   0  0  0  0  0  0  0  0  0  0  0  0
  1  2  1  0
  2  3  2  0
  4  2  1  0
  5  4  1  0
  5  6  1  6
  7  5  1  0
  7  9  1  0
  8  7  2  0
  9 13  1  0
 10  9  1  0
 10 11  1  0
 11 12  1  0
 13 12  1  0
 13 14  1  1
 14 15  2  0
 16 14  1  0
 17 16  1  0
 17 18  1  6
 19 18  1  0
 20 19  1  0
 20 21  1  0
 22 21  1  0
 23 17  1  0
 24 23  2  0
 25 23  1  0
M  END
$$$$
