NPK.pdb
     RDKit          3D

 25 25  0  0  1  0  0  0  0  0999 V2000
    7.2551  -12.8457   19.2949 N   0  0  0  0  0  0  0  0  0  0  0  0
    6.8885  -14.0917   19.8481 C   0  0  0  0  0  0  0  0  0  0  0  0
    6.4453  -14.9557   19.0244 O   0  0  0  0  0  0  0  0  0  0  0  0
    7.0135  -14.3654   21.2838 C   0  0  0  0  0  0  0  0  0  0  0  0
    7.5785  -13.0959   21.9430 C   0  0  2  0  0  0  0  0  0  0  0  0
    8.4879  -12.5311   21.0188 N   0  0  0  0  0  0  0  0  0  0  0  0
    8.0821  -13.4797   23.2541 C   0  0  0  0  0  0  0  0  0  0  0  0
    9.1830  -14.1533   23.2996 O   0  0  0  0  0  0  0  0  0  0  0  0
    7.5074  -13.2026   24.5213 N   0  0  0  0  0  0  0  0  0  0  0  0
    6.2997  -12.4690   24.7448 C   0  0  0  0  0  0  0  0  0  0  0  0
    5.7607  -13.0558   26.0402 C   0  0  0  0  0  0  0  0  0  0  0  0
    7.0672  -13.0608   26.8485 C   0  0  0  0  0  0  0  0  0  0  0  0
    8.0214  -13.5997   25.8212 C   0  0  1  0  0  0  0  0  0  0  0  0
    8.2154  -15.0629   25.9209 C   0  0  0  0  0  0  0  0  0  0  0  0
    7.2506  -15.8437   25.6878 O   0  0  0  0  0  0  0  0  0  0  0  0
    9.4337  -15.6727   26.2673 N   0  0  0  0  0  0  0  0  0  0  0  0
    9.6239  -17.1026   26.4671 C   0  0  1  0  0  0  0  0  0  0  0  0
   10.5938  -17.6853   25.5124 C   0  0  0  0  0  0  0  0  0  0  0  0
   10.0780  -17.6436   24.1069 C   0  0  0  0  0  0  0  0  0  0  0  0
   11.0725  -18.1630   23.0972 C   0  0  0  0  0  0  0  0  0  0  0  0
   10.4259  -18.0732   21.7171 C   0  0  0  0  0  0  0  0  0  0  0  0
   11.3872  -18.3345   20.6668 N   0  0  0  0  0  0  0  0  0  0  0  0
   10.1025  -17.2815   27.8487 C   0  0  0  0  0  0  0  0  0  0  0  0
   10.5081  -16.3590   28.6084 O   0  0  0  0  0  0  0  0  0  0  0  0
   10.1064  -18.5987   28.3644 O   0  0  0  0  0  0  0  0  0  0  0  0
  1  2  1  0
  2  3  2  0
  4  2  1  0
  5  4  1  0
  5  6  1  6
  7  5  1  0
  7  9  1  0
  8  7  2  0
  9 13  1  0
 10  9  1  0
 10 11  1  0
 11 12  1  0
 13 12  1  0
 13 14  1  6
 14 15  2  0
 16 14  1  0
 17 16  1  0
 17 18  1  6
 19 18  1  0
 20 19  1  0
 20 21  1  0
 22 21  1  0
 23 17  1  0
 24 23  2  0
 25 23  1  0
M  END
$$$$
