NIF.pdb
     RDKit          3D

 28 28  0  0  1  0  0  0  0  0999 V2000
   14.7362  -11.6211    5.9063 N   0  0  0  0  0  0  0  0  0  0  0  0
   14.9219  -13.0219    6.0300 C   0  0  0  0  0  0  0  0  0  0  0  0
   13.9174  -13.7590    6.0707 O   0  0  0  0  0  0  0  0  0  0  0  0
   16.2695  -13.5790    6.1072 C   0  0  0  0  0  0  0  0  0  0  0  0
   17.3894  -12.6088    5.9367 C   0  0  2  0  0  0  0  0  0  0  0  0
   17.4330  -12.0070    4.6235 N   0  0  0  0  0  0  0  0  0  0  0  0
   18.7224  -13.1363    6.3664 C   0  0  0  0  0  0  0  0  0  0  0  0
   19.4687  -13.7505    5.5576 O   0  0  0  0  0  0  0  0  0  0  0  0
   22.1953   -9.9625    8.5269 C   0  0  0  0  0  0  0  0  0  0  0  0
   21.4217  -11.0800    7.9630 C   0  0  0  0  0  0  0  0  0  0  0  0
   21.1783  -12.3094    8.7361 C   0  0  2  0  0  0  0  0  0  0  0  0
   22.4891  -12.7473    9.4513 C   0  0  0  0  0  0  0  0  0  0  0  0
   20.4249  -13.4377    8.2274 C   0  0  2  0  0  0  0  0  0  0  0  0
   19.1553  -12.9520    7.6971 N   0  0  0  0  0  0  0  0  0  0  0  0
   20.3445  -14.7346    8.8634 C   0  0  0  0  0  0  0  0  0  0  0  0
   19.5154  -15.1721    9.6650 O   0  0  0  0  0  0  0  0  0  0  0  0
   21.3950  -15.6913    8.5337 N   0  0  0  0  0  0  0  0  0  0  0  0
   21.3867  -17.0165    9.1292 C   0  0  1  0  0  0  0  0  0  0  0  0
   21.1520  -18.0294    8.0655 C   0  0  0  0  0  0  0  0  0  0  0  0
   19.7449  -18.1487    7.6213 C   0  0  0  0  0  0  0  0  0  0  0  0
   18.8099  -18.6578    8.4918 C   0  0  0  0  0  0  0  0  0  0  0  0
   17.4805  -18.8021    8.1637 C   0  0  0  0  0  0  0  0  0  0  0  0
   17.0914  -18.4117    6.9002 C   0  0  0  0  0  0  0  0  0  0  0  0
   18.0194  -17.8988    6.0155 C   0  0  0  0  0  0  0  0  0  0  0  0
   19.3551  -17.7608    6.3628 C   0  0  0  0  0  0  0  0  0  0  0  0
   22.5668  -17.2641    9.9863 C   0  0  0  0  0  0  0  0  0  0  0  0
   22.5162  -18.0147   11.1493 O   0  0  0  0  0  0  0  0  0  0  0  0
   23.6752  -16.7797    9.6637 O   0  0  0  0  0  0  0  0  0  0  0  0
  1  2  1  0
  2  3  2  0
  4  5  1  0
  4  2  1  0
  5  6  1  6
  7  5  1  0
  7  8  2  0
  9 10  1  0
 10 11  1  0
 11 13  1  0
 11 12  1  6
 13 14  1  1
 14  7  1  0
 15 17  1  0
 15 13  1  0
 16 15  2  0
 18 17  1  0
 18 26  1  0
 18 19  1  6
 20 19  1  0
 20 25  2  0
 21 20  1  0
 22 21  2  0
 22 23  1  0
 23 24  2  0
 24 25  1  0
 26 27  1  0
 28 26  2  0
M  END
$$$$
