NIF.pdb
     RDKit          3D

 28 28  0  0  1  0  0  0  0  0999 V2000
   25.6644  -25.0552  -17.4959 N   0  0  0  0  0  0  0  0  0  0  0  0
   25.1301  -26.0897  -16.6857 C   0  0  0  0  0  0  0  0  0  0  0  0
   25.3623  -27.2747  -16.9952 O   0  0  0  0  0  0  0  0  0  0  0  0
   24.3246  -25.7607  -15.5130 C   0  0  0  0  0  0  0  0  0  0  0  0
   24.2130  -24.3107  -15.1816 C   0  0  2  0  0  0  0  0  0  0  0  0
   25.4888  -23.6778  -14.9366 N   0  0  0  0  0  0  0  0  0  0  0  0
   23.2110  -24.0060  -14.1125 C   0  0  0  0  0  0  0  0  0  0  0  0
   23.5382  -24.0121  -12.8955 O   0  0  0  0  0  0  0  0  0  0  0  0
   21.3923  -19.4467  -13.7480 C   0  0  0  0  0  0  0  0  0  0  0  0
   21.6702  -20.8756  -13.5333 C   0  0  0  0  0  0  0  0  0  0  0  0
   20.6084  -21.8886  -13.6553 C   0  0  2  0  0  0  0  0  0  0  0  0
   19.3430  -21.4177  -12.8814 C   0  0  0  0  0  0  0  0  0  0  0  0
   20.8414  -23.3119  -13.5159 C   0  0  2  0  0  0  0  0  0  0  0  0
   21.8760  -23.7118  -14.4639 N   0  0  0  0  0  0  0  0  0  0  0  0
   19.8088  -24.3043  -13.3118 C   0  0  0  0  0  0  0  0  0  0  0  0
   19.0545  -24.8400  -14.1275 O   0  0  0  0  0  0  0  0  0  0  0  0
   19.5964  -24.7551  -11.9409 N   0  0  0  0  0  0  0  0  0  0  0  0
   18.5994  -25.7723  -11.6545 C   0  0  1  0  0  0  0  0  0  0  0  0
   19.0627  -26.6032  -10.5111 C   0  0  0  0  0  0  0  0  0  0  0  0
   18.8160  -26.0142   -9.1755 C   0  0  0  0  0  0  0  0  0  0  0  0
   19.7631  -25.1816   -8.6268 C   0  0  0  0  0  0  0  0  0  0  0  0
   19.6157  -24.5893   -7.3925 C   0  0  0  0  0  0  0  0  0  0  0  0
   18.4584  -24.8568   -6.6930 C   0  0  0  0  0  0  0  0  0  0  0  0
   17.4988  -25.6910   -7.2315 C   0  0  0  0  0  0  0  0  0  0  0  0
   17.6639  -26.2796   -8.4765 C   0  0  0  0  0  0  0  0  0  0  0  0
   17.2370  -25.2128  -11.5162 C   0  0  0  0  0  0  0  0  0  0  0  0
   16.0886  -25.9295  -11.8094 O   0  0  0  0  0  0  0  0  0  0  0  0
   17.0921  -24.0351  -11.1170 O   0  0  0  0  0  0  0  0  0  0  0  0
  1  2  1  0
  2  3  2  0
  4  5  1  0
  4  2  1  0
  5  6  1  1
  7  5  1  0
  7  8  2  0
  9 10  1  0
 10 11  1  0
 11 13  1  0
 11 12  1  1
 13 14  1  6
 14  7  1  0
 15 17  1  0
 15 13  1  0
 16 15  2  0
 18 17  1  0
 18 26  1  0
 18 19  1  1
 20 19  1  0
 20 25  2  0
 21 20  1  0
 22 21  2  0
 22 23  1  0
 23 24  2  0
 24 25  1  0
 26 27  1  0
 28 26  2  0
M  END
$$$$
