NIF.pdb
     RDKit          3D

 28 28  0  0  1  0  0  0  0  0999 V2000
   27.6513  -21.1401  -20.8558 N   0  0  0  0  0  0  0  0  0  0  0  0
   27.6898  -19.7623  -20.5204 C   0  0  0  0  0  0  0  0  0  0  0  0
   28.5481  -19.0372  -21.0602 O   0  0  0  0  0  0  0  0  0  0  0  0
   26.7364  -19.2147  -19.5594 C   0  0  0  0  0  0  0  0  0  0  0  0
   27.3235  -18.5877  -18.3400 C   0  0  2  0  0  0  0  0  0  0  0  0
   28.2925  -19.4268  -17.6726 N   0  0  0  0  0  0  0  0  0  0  0  0
   26.3077  -18.0274  -17.3945 C   0  0  0  0  0  0  0  0  0  0  0  0
   25.9506  -18.6692  -16.3704 O   0  0  0  0  0  0  0  0  0  0  0  0
   27.5138  -13.6498  -15.4632 C   0  0  0  0  0  0  0  0  0  0  0  0
   26.7775  -14.9082  -15.6620 C   0  0  0  0  0  0  0  0  0  0  0  0
   25.4110  -14.9170  -16.2107 C   0  0  2  0  0  0  0  0  0  0  0  0
   24.4604  -14.1294  -15.2632 C   0  0  0  0  0  0  0  0  0  0  0  0
   24.7804  -16.0969  -16.7672 C   0  0  2  0  0  0  0  0  0  0  0  0
   25.7321  -16.7641  -17.6494 N   0  0  0  0  0  0  0  0  0  0  0  0
   23.4064  -16.1691  -17.2141 C   0  0  0  0  0  0  0  0  0  0  0  0
   22.8527  -15.6073  -18.1622 O   0  0  0  0  0  0  0  0  0  0  0  0
   22.5109  -17.0222  -16.4408 N   0  0  0  0  0  0  0  0  0  0  0  0
   21.1155  -17.1510  -16.8244 C   0  0  1  0  0  0  0  0  0  0  0  0
   20.9644  -18.3163  -17.7363 C   0  0  0  0  0  0  0  0  0  0  0  0
   19.5763  -18.5857  -18.1748 C   0  0  0  0  0  0  0  0  0  0  0  0
   18.8024  -19.4582  -17.4463 C   0  0  0  0  0  0  0  0  0  0  0  0
   17.5022  -19.7651  -17.7800 C   0  0  0  0  0  0  0  0  0  0  0  0
   16.9728  -19.1582  -18.8987 C   0  0  0  0  0  0  0  0  0  0  0  0
   17.7383  -18.2799  -19.6400 C   0  0  0  0  0  0  0  0  0  0  0  0
   19.0468  -17.9825  -19.2894 C   0  0  0  0  0  0  0  0  0  0  0  0
   20.2007  -17.1373  -15.6618 C   0  0  0  0  0  0  0  0  0  0  0  0
   18.9105  -16.6364  -15.7171 O   0  0  0  0  0  0  0  0  0  0  0  0
   20.5922  -17.5950  -14.5643 O   0  0  0  0  0  0  0  0  0  0  0  0
  1  2  1  0
  2  3  2  0
  4  5  1  0
  4  2  1  0
  5  6  1  1
  7  5  1  0
  7  8  2  0
  9 10  1  0
 10 11  1  0
 11 13  1  0
 11 12  1  1
 13 14  1  6
 14  7  1  0
 15 17  1  0
 15 13  1  0
 16 15  2  0
 18 17  1  0
 18 26  1  0
 18 19  1  1
 20 19  1  0
 20 25  2  0
 21 20  1  0
 22 21  2  0
 22 23  1  0
 23 24  2  0
 24 25  1  0
 26 27  1  0
 28 26  2  0
M  END
$$$$
