NIF.pdb
     RDKit          3D

 28 28  0  0  1  0  0  0  0  0999 V2000
   27.7116  -11.7760  -15.9185 N   0  0  0  0  0  0  0  0  0  0  0  0
   27.5501  -10.4124  -16.2744 C   0  0  0  0  0  0  0  0  0  0  0  0
   28.5621   -9.6889  -16.3529 O   0  0  0  0  0  0  0  0  0  0  0  0
   26.2180   -9.8772  -16.5418 C   0  0  0  0  0  0  0  0  0  0  0  0
   25.0950  -10.8571  -16.4827 C   0  0  2  0  0  0  0  0  0  0  0  0
   25.2770  -11.9925  -17.3580 N   0  0  0  0  0  0  0  0  0  0  0  0
   23.7396  -10.2389  -16.6254 C   0  0  0  0  0  0  0  0  0  0  0  0
   23.2593   -9.9831  -17.7621 O   0  0  0  0  0  0  0  0  0  0  0  0
   19.5566  -12.6032  -15.4780 C   0  0  0  0  0  0  0  0  0  0  0  0
   20.5067  -11.5689  -15.9169 C   0  0  0  0  0  0  0  0  0  0  0  0
   20.6724  -10.3134  -15.1655 C   0  0  2  0  0  0  0  0  0  0  0  0
   19.2769   -9.6924  -14.8677 C   0  0  0  0  0  0  0  0  0  0  0  0
   21.6632   -9.3089  -15.4954 C   0  0  2  0  0  0  0  0  0  0  0  0
   22.9837   -9.9294  -15.4742 N   0  0  0  0  0  0  0  0  0  0  0  0
   21.6436   -7.9405  -15.0265 C   0  0  0  0  0  0  0  0  0  0  0  0
   22.0546   -7.4618  -13.9666 O   0  0  0  0  0  0  0  0  0  0  0  0
   21.0449   -6.9523  -15.9168 N   0  0  0  0  0  0  0  0  0  0  0  0
   21.0173   -5.5505  -15.5360 C   0  0  1  0  0  0  0  0  0  0  0  0
   21.7413   -4.7510  -16.5602 C   0  0  0  0  0  0  0  0  0  0  0  0
   23.2032   -4.9797  -16.6070 C   0  0  0  0  0  0  0  0  0  0  0  0
   23.6967   -5.9905  -17.3982 C   0  0  0  0  0  0  0  0  0  0  0  0
   25.0405   -6.2721  -17.5031 C   0  0  0  0  0  0  0  0  0  0  0  0
   25.9123   -5.4925  -16.7734 C   0  0  0  0  0  0  0  0  0  0  0  0
   25.4310   -4.4741  -15.9747 C   0  0  0  0  0  0  0  0  0  0  0  0
   24.0737   -4.2045  -15.8806 C   0  0  0  0  0  0  0  0  0  0  0  0
   19.6547   -5.0742  -15.2118 C   0  0  0  0  0  0  0  0  0  0  0  0
   19.4054   -4.0029  -14.3699 O   0  0  0  0  0  0  0  0  0  0  0  0
   18.6641   -5.6544  -15.7111 O   0  0  0  0  0  0  0  0  0  0  0  0
  1  2  1  0
  2  3  2  0
  4  5  1  0
  4  2  1  0
  5  6  1  6
  7  5  1  0
  7  8  2  0
  9 10  1  0
 10 11  1  0
 11 13  1  0
 11 12  1  6
 13 14  1  1
 14  7  1  0
 15 17  1  0
 15 13  1  0
 16 15  2  0
 18 17  1  0
 18 26  1  0
 18 19  1  6
 20 19  1  0
 20 25  2  0
 21 20  1  0
 22 21  2  0
 22 23  1  0
 23 24  2  0
 24 25  1  0
 26 27  1  0
 28 26  2  0
M  END
$$$$
