NIF.pdb
     RDKit          3D

 28 28  0  0  1  0  0  0  0  0999 V2000
   23.7276  -12.4704  -22.5307 N   0  0  0  0  0  0  0  0  0  0  0  0
   23.0967  -11.2429  -22.2030 C   0  0  0  0  0  0  0  0  0  0  0  0
   22.6762  -10.5191  -23.1267 O   0  0  0  0  0  0  0  0  0  0  0  0
   22.9480  -10.8450  -20.8059 C   0  0  0  0  0  0  0  0  0  0  0  0
   23.5922  -11.7373  -19.7992 C   0  0  2  0  0  0  0  0  0  0  0  0
   23.0584  -13.0803  -19.7973 N   0  0  0  0  0  0  0  0  0  0  0  0
   23.6648  -11.1510  -18.4241 C   0  0  0  0  0  0  0  0  0  0  0  0
   22.6854  -11.2248  -17.6345 O   0  0  0  0  0  0  0  0  0  0  0  0
   27.6306  -12.6040  -15.5248 C   0  0  0  0  0  0  0  0  0  0  0  0
   26.3898  -12.0147  -16.0524 C   0  0  0  0  0  0  0  0  0  0  0  0
   26.1709  -10.5586  -16.0459 C   0  0  2  0  0  0  0  0  0  0  0  0
   26.4588   -9.9913  -14.6258 C   0  0  0  0  0  0  0  0  0  0  0  0
   25.0332   -9.9183  -16.6746 C   0  0  2  0  0  0  0  0  0  0  0  0
   24.8425  -10.4990  -17.9996 N   0  0  0  0  0  0  0  0  0  0  0  0
   24.7302   -8.5058  -16.5972 C   0  0  0  0  0  0  0  0  0  0  0  0
   25.1560   -7.5674  -17.2750 O   0  0  0  0  0  0  0  0  0  0  0  0
   23.7864   -8.0948  -15.5638 N   0  0  0  0  0  0  0  0  0  0  0  0
   23.3108   -6.7228  -15.5153 C   0  0  1  0  0  0  0  0  0  0  0  0
   22.7066   -6.3678  -16.8273 C   0  0  0  0  0  0  0  0  0  0  0  0
   22.1409   -5.0018  -16.9011 C   0  0  0  0  0  0  0  0  0  0  0  0
   22.9909   -3.9346  -17.0732 C   0  0  0  0  0  0  0  0  0  0  0  0
   22.5518   -2.6320  -17.1544 C   0  0  0  0  0  0  0  0  0  0  0  0
   21.1946   -2.4113  -17.0568 C   0  0  0  0  0  0  0  0  0  0  0  0
   20.3292   -3.4734  -16.8837 C   0  0  0  0  0  0  0  0  0  0  0  0
   20.7891   -4.7794  -16.8036 C   0  0  0  0  0  0  0  0  0  0  0  0
   22.4588   -6.4558  -14.3358 C   0  0  0  0  0  0  0  0  0  0  0  0
   22.5425   -5.2939  -13.5864 O   0  0  0  0  0  0  0  0  0  0  0  0
   21.6148   -7.3090  -13.9796 O   0  0  0  0  0  0  0  0  0  0  0  0
  1  2  1  0
  2  3  2  0
  4  5  1  0
  4  2  1  0
  5  6  1  1
  7  5  1  0
  7  8  2  0
  9 10  1  0
 10 11  1  0
 11 13  1  0
 11 12  1  1
 13 14  1  6
 14  7  1  0
 15 17  1  0
 15 13  1  0
 16 15  2  0
 18 17  1  0
 18 26  1  0
 18 19  1  6
 20 19  1  0
 20 25  2  0
 21 20  1  0
 22 21  2  0
 22 23  1  0
 23 24  2  0
 24 25  1  0
 26 27  1  0
 28 26  2  0
M  END
$$$$
