NIF.pdb
     RDKit          3D

 28 28  0  0  1  0  0  0  0  0999 V2000
   19.5674  -19.1426  -13.6604 N   0  0  0  0  0  0  0  0  0  0  0  0
   19.8248  -19.1566  -12.2655 C   0  0  0  0  0  0  0  0  0  0  0  0
   19.0694  -18.5148  -11.5096 O   0  0  0  0  0  0  0  0  0  0  0  0
   20.9565  -19.9125  -11.7362 C   0  0  0  0  0  0  0  0  0  0  0  0
   21.8511  -20.5457  -12.7479 C   0  0  2  0  0  0  0  0  0  0  0  0
   21.1756  -21.5056  -13.5910 N   0  0  0  0  0  0  0  0  0  0  0  0
   23.1269  -21.0840  -12.1802 C   0  0  0  0  0  0  0  0  0  0  0  0
   23.1714  -22.2287  -11.6547 O   0  0  0  0  0  0  0  0  0  0  0  0
   27.1462  -21.7036  -15.1432 C   0  0  0  0  0  0  0  0  0  0  0  0
   26.1765  -21.5860  -14.0426 C   0  0  0  0  0  0  0  0  0  0  0  0
   26.5192  -20.8883  -12.7920 C   0  0  2  0  0  0  0  0  0  0  0  0
   27.9321  -21.3320  -12.3141 C   0  0  0  0  0  0  0  0  0  0  0  0
   25.5928  -20.7203  -11.6905 C   0  0  2  0  0  0  0  0  0  0  0  0
   24.3011  -20.3021  -12.2250 N   0  0  0  0  0  0  0  0  0  0  0  0
   25.9243  -20.1306  -10.4118 C   0  0  0  0  0  0  0  0  0  0  0  0
   25.7503  -18.9801  -10.0027 O   0  0  0  0  0  0  0  0  0  0  0  0
   26.5726  -21.0017   -9.4379 N   0  0  0  0  0  0  0  0  0  0  0  0
   27.4401  -20.4367   -8.4186 C   0  0  1  0  0  0  0  0  0  0  0  0
   26.7446  -20.4813   -7.1046 C   0  0  0  0  0  0  0  0  0  0  0  0
   27.5188  -19.9230   -5.9730 C   0  0  0  0  0  0  0  0  0  0  0  0
   28.0534  -20.7811   -5.0407 C   0  0  0  0  0  0  0  0  0  0  0  0
   28.7879  -20.3495   -3.9590 C   0  0  0  0  0  0  0  0  0  0  0  0
   28.9841  -18.9917   -3.8245 C   0  0  0  0  0  0  0  0  0  0  0  0
   28.4531  -18.1182   -4.7529 C   0  0  0  0  0  0  0  0  0  0  0  0
   27.7152  -18.5705   -5.8368 C   0  0  0  0  0  0  0  0  0  0  0  0
   28.7971  -21.0256   -8.4341 C   0  0  0  0  0  0  0  0  0  0  0  0
   29.8852  -20.4416   -7.8066 O   0  0  0  0  0  0  0  0  0  0  0  0
   28.9941  -22.1037   -9.0392 O   0  0  0  0  0  0  0  0  0  0  0  0
  1  2  1  0
  2  3  2  0
  4  5  1  0
  4  2  1  0
  5  6  1  1
  7  5  1  0
  7  8  2  0
  9 10  1  0
 10 11  1  0
 11 13  1  0
 11 12  1  1
 13 14  1  6
 14  7  1  0
 15 17  1  0
 15 13  1  0
 16 15  2  0
 18 17  1  0
 18 26  1  0
 18 19  1  1
 20 19  1  0
 20 25  2  0
 21 20  1  0
 22 21  2  0
 22 23  1  0
 23 24  2  0
 24 25  1  0
 26 27  1  0
 28 26  2  0
M  END
$$$$
