NIF.pdb
     RDKit          3D

 28 28  0  0  1  0  0  0  0  0999 V2000
   28.6014  -23.8332  -17.0657 N   0  0  0  0  0  0  0  0  0  0  0  0
   29.4532  -23.0286  -16.2663 C   0  0  0  0  0  0  0  0  0  0  0  0
   30.6813  -23.2401  -16.2975 O   0  0  0  0  0  0  0  0  0  0  0  0
   28.8907  -21.9749  -15.4263 C   0  0  0  0  0  0  0  0  0  0  0  0
   27.4018  -21.9025  -15.3766 C   0  0  2  0  0  0  0  0  0  0  0  0
   26.8024  -21.5323  -16.6385 N   0  0  0  0  0  0  0  0  0  0  0  0
   26.8694  -21.0954  -14.2343 C   0  0  0  0  0  0  0  0  0  0  0  0
   27.1813  -19.8822  -14.0958 O   0  0  0  0  0  0  0  0  0  0  0  0
   22.1046  -20.2319  -14.1160 C   0  0  0  0  0  0  0  0  0  0  0  0
   23.5097  -20.1257  -13.6923 C   0  0  0  0  0  0  0  0  0  0  0  0
   23.9911  -20.7830  -12.4657 C   0  0  2  0  0  0  0  0  0  0  0  0
   23.2011  -20.2449  -11.2378 C   0  0  0  0  0  0  0  0  0  0  0  0
   25.3937  -20.9935  -12.1691 C   0  0  2  0  0  0  0  0  0  0  0  0
   26.0089  -21.6960  -13.2904 N   0  0  0  0  0  0  0  0  0  0  0  0
   25.9196  -21.3679  -10.8745 C   0  0  0  0  0  0  0  0  0  0  0  0
   26.0220  -22.4817  -10.3546 O   0  0  0  0  0  0  0  0  0  0  0  0
   26.4029  -20.2842  -10.0263 N   0  0  0  0  0  0  0  0  0  0  0  0
   26.7601  -20.5458   -8.6425 C   0  0  1  0  0  0  0  0  0  0  0  0
   27.9158  -19.6887   -8.2651 C   0  0  0  0  0  0  0  0  0  0  0  0
   28.2983  -19.7559   -6.8366 C   0  0  0  0  0  0  0  0  0  0  0  0
   29.2367  -20.6790   -6.4384 C   0  0  0  0  0  0  0  0  0  0  0  0
   29.6526  -20.8094   -5.1323 C   0  0  0  0  0  0  0  0  0  0  0  0
   29.0898  -19.9659   -4.1985 C   0  0  0  0  0  0  0  0  0  0  0  0
   28.1463  -19.0342   -4.5839 C   0  0  0  0  0  0  0  0  0  0  0  0
   27.7386  -18.9168   -5.9044 C   0  0  0  0  0  0  0  0  0  0  0  0
   25.5978  -20.4746   -7.7301 C   0  0  0  0  0  0  0  0  0  0  0  0
   25.4313  -21.3198   -6.6455 O   0  0  0  0  0  0  0  0  0  0  0  0
   24.7088  -19.6163   -7.9306 O   0  0  0  0  0  0  0  0  0  0  0  0
  1  2  1  0
  2  3  2  0
  4  5  1  0
  4  2  1  0
  5  6  1  6
  7  5  1  0
  7  8  2  0
  9 10  1  0
 10 11  1  0
 11 13  1  0
 11 12  1  1
 13 14  1  6
 14  7  1  0
 15 17  1  0
 15 13  1  0
 16 15  2  0
 18 17  1  0
 18 26  1  0
 18 19  1  1
 20 19  1  0
 20 25  2  0
 21 20  1  0
 22 21  2  0
 22 23  1  0
 23 24  2  0
 24 25  1  0
 26 27  1  0
 28 26  2  0
M  END
$$$$
