NIF.pdb
     RDKit          3D

 28 28  0  0  1  0  0  0  0  0999 V2000
   19.1445  -15.5692  -17.2747 N   0  0  0  0  0  0  0  0  0  0  0  0
   19.5357  -14.2987  -17.7697 C   0  0  0  0  0  0  0  0  0  0  0  0
   19.2274  -13.9888  -18.9371 O   0  0  0  0  0  0  0  0  0  0  0  0
   20.2853  -13.3791  -16.9184 C   0  0  0  0  0  0  0  0  0  0  0  0
   21.2314  -12.4629  -17.6186 C   0  0  2  0  0  0  0  0  0  0  0  0
   22.2053  -13.1551  -18.4315 N   0  0  0  0  0  0  0  0  0  0  0  0
   21.8587  -11.4381  -16.7265 C   0  0  0  0  0  0  0  0  0  0  0  0
   21.2023  -10.8986  -15.7957 O   0  0  0  0  0  0  0  0  0  0  0  0
   26.9597  -12.4404  -15.3890 C   0  0  0  0  0  0  0  0  0  0  0  0
   25.5711  -11.9665  -15.5006 C   0  0  0  0  0  0  0  0  0  0  0  0
   25.2647  -10.5763  -15.8771 C   0  0  2  0  0  0  0  0  0  0  0  0
   26.1070   -9.5994  -15.0066 C   0  0  0  0  0  0  0  0  0  0  0  0
   23.9200  -10.0884  -16.1082 C   0  0  2  0  0  0  0  0  0  0  0  0
   23.2038  -11.0604  -16.9275 N   0  0  0  0  0  0  0  0  0  0  0  0
   23.5746   -8.7110  -16.3844 C   0  0  0  0  0  0  0  0  0  0  0  0
   23.9619   -7.9643  -17.2865 O   0  0  0  0  0  0  0  0  0  0  0  0
   22.6327   -8.0765  -15.4692 N   0  0  0  0  0  0  0  0  0  0  0  0
   22.3399   -6.6587  -15.5921 C   0  0  1  0  0  0  0  0  0  0  0  0
   21.1595   -6.4781  -16.4791 C   0  0  0  0  0  0  0  0  0  0  0  0
   20.7316   -5.0731  -16.6647 C   0  0  0  0  0  0  0  0  0  0  0  0
   19.6079   -4.6245  -16.0110 C   0  0  0  0  0  0  0  0  0  0  0  0
   19.1395   -3.3347  -16.1243 C   0  0  0  0  0  0  0  0  0  0  0  0
   19.8449   -2.4710  -16.9347 C   0  0  0  0  0  0  0  0  0  0  0  0
   20.9750   -2.9076  -17.5974 C   0  0  0  0  0  0  0  0  0  0  0  0
   21.4326   -4.2109  -17.4720 C   0  0  0  0  0  0  0  0  0  0  0  0
   22.2537   -5.9783  -14.2814 C   0  0  0  0  0  0  0  0  0  0  0  0
   22.6337   -4.6611  -14.0835 O   0  0  0  0  0  0  0  0  0  0  0  0
   21.8199   -6.6057  -13.2888 O   0  0  0  0  0  0  0  0  0  0  0  0
  1  2  1  0
  2  3  2  0
  4  5  1  0
  4  2  1  0
  5  6  1  1
  7  5  1  0
  7  8  2  0
  9 10  1  0
 10 11  1  0
 11 13  1  0
 11 12  1  1
 13 14  1  6
 14  7  1  0
 15 17  1  0
 15 13  1  0
 16 15  2  0
 18 17  1  0
 18 26  1  0
 18 19  1  1
 20 19  1  0
 20 25  2  0
 21 20  1  0
 22 21  2  0
 22 23  1  0
 23 24  2  0
 24 25  1  0
 26 27  1  0
 28 26  2  0
M  END
$$$$
