NIF.pdb
     RDKit          3D

 28 28  0  0  1  0  0  0  0  0999 V2000
   14.3487  -14.0985  -10.9955 N   0  0  0  0  0  0  0  0  0  0  0  0
   15.3281  -13.3822  -11.7302 C   0  0  0  0  0  0  0  0  0  0  0  0
   16.2171  -14.0211  -12.3263 O   0  0  0  0  0  0  0  0  0  0  0  0
   15.2857  -11.9234  -11.7802 C   0  0  0  0  0  0  0  0  0  0  0  0
   14.2201  -11.2713  -10.9652 C   0  0  2  0  0  0  0  0  0  0  0  0
   12.8841  -11.6821  -11.3324 N   0  0  0  0  0  0  0  0  0  0  0  0
   14.3525   -9.7838  -10.8683 C   0  0  0  0  0  0  0  0  0  0  0  0
   13.8774   -9.0304  -11.7600 O   0  0  0  0  0  0  0  0  0  0  0  0
   12.3060   -7.1241   -7.0728 C   0  0  0  0  0  0  0  0  0  0  0  0
   13.0219   -7.5444   -8.2878 C   0  0  0  0  0  0  0  0  0  0  0  0
   14.4729   -7.3385   -8.4311 C   0  0  2  0  0  0  0  0  0  0  0  0
   14.8431   -5.8920   -7.9928 C   0  0  0  0  0  0  0  0  0  0  0  0
   15.2323   -7.7758   -9.5850 C   0  0  2  0  0  0  0  0  0  0  0  0
   15.0230   -9.2083   -9.7676 N   0  0  0  0  0  0  0  0  0  0  0  0
   16.5655   -7.3241   -9.9190 C   0  0  0  0  0  0  0  0  0  0  0  0
   17.6304   -7.4912   -9.3196 O   0  0  0  0  0  0  0  0  0  0  0  0
   16.7038   -6.5410  -11.1418 N   0  0  0  0  0  0  0  0  0  0  0  0
   17.9926   -5.9763  -11.5035 C   0  0  1  0  0  0  0  0  0  0  0  0
   18.7251   -6.9416  -12.3661 C   0  0  0  0  0  0  0  0  0  0  0  0
   20.0347   -6.4615  -12.8621 C   0  0  0  0  0  0  0  0  0  0  0  0
   20.0724   -5.6477  -13.9701 C   0  0  0  0  0  0  0  0  0  0  0  0
   21.2444   -5.1541  -14.4980 C   0  0  0  0  0  0  0  0  0  0  0  0
   22.4212   -5.5041  -13.8711 C   0  0  0  0  0  0  0  0  0  0  0  0
   22.3986   -6.3205  -12.7577 C   0  0  0  0  0  0  0  0  0  0  0  0
   21.2085   -6.8092  -12.2394 C   0  0  0  0  0  0  0  0  0  0  0  0
   17.8823   -4.6042  -12.0456 C   0  0  0  0  0  0  0  0  0  0  0  0
   18.8524   -3.6336  -11.8578 O   0  0  0  0  0  0  0  0  0  0  0  0
   16.8700   -4.2832  -12.7085 O   0  0  0  0  0  0  0  0  0  0  0  0
  1  2  1  0
  2  3  2  0
  4  5  1  0
  4  2  1  0
  5  6  1  6
  7  5  1  0
  7  8  2  0
  9 10  1  0
 10 11  1  0
 11 13  1  0
 11 12  1  6
 13 14  1  1
 14  7  1  0
 15 17  1  0
 15 13  1  0
 16 15  2  0
 18 17  1  0
 18 26  1  0
 18 19  1  6
 20 19  1  0
 20 25  2  0
 21 20  1  0
 22 21  2  0
 22 23  1  0
 23 24  2  0
 24 25  1  0
 26 27  1  0
 28 26  2  0
M  END
$$$$
