TGD.pdb
     RDKit          3D

 20 19  0  0  1  0  0  0  0  0999 V2000
   27.9965  -19.7043  -16.7029 C   0  0  0  0  0  0  0  0  0  0  0  0
   27.2448  -19.7381  -15.3994 C   0  0  1  0  0  0  0  0  0  0  0  0
   25.8724  -19.8855  -15.5931 O   0  0  0  0  0  0  0  0  0  0  0  0
   27.7075  -20.8512  -14.4890 C   0  0  2  0  0  0  0  0  0  0  0  0
   27.4527  -22.1065  -15.1342 N   0  0  0  0  0  0  0  0  0  0  0  0
   27.0503  -20.7601  -13.1558 C   0  0  0  0  0  0  0  0  0  0  0  0
   27.3055  -19.7696  -12.4517 O   0  0  0  0  0  0  0  0  0  0  0  0
   26.1573  -21.7559  -12.6784 N   0  0  0  0  0  0  0  0  0  0  0  0
   25.4115  -21.5905  -11.4555 C   0  0  0  0  0  0  0  0  0  0  0  0
   24.0763  -20.9996  -11.6896 C   0  0  0  0  0  0  0  0  0  0  0  0
   23.5683  -20.2823  -10.7904 O   0  0  0  0  0  0  0  0  0  0  0  0
   23.3203  -21.1876  -12.8722 N   0  0  0  0  0  0  0  0  0  0  0  0
   22.0996  -20.4250  -13.1603 C   0  0  1  0  0  0  0  0  0  0  0  0
   22.2912  -19.5593  -14.3756 C   0  0  0  0  0  0  0  0  0  0  0  0
   21.0480  -18.8178  -14.6544 C   0  0  0  0  0  0  0  0  0  0  0  0
   20.0753  -18.8646  -13.8648 O   0  0  0  0  0  0  0  0  0  0  0  0
   21.0379  -21.4106  -13.4326 C   0  0  0  0  0  0  0  0  0  0  0  0
   21.3271  -22.6713  -13.8958 O   0  0  0  0  0  0  0  0  0  0  0  0
   20.9076  -18.0463  -15.7916 O   0  0  0  0  0  0  0  0  0  0  0  0
   19.8290  -21.1149  -13.2447 O   0  0  0  0  0  0  0  0  0  0  0  0
  2  1  1  6
  3  2  1  0
  4  5  1  6
  4  2  1  0
  6  4  1  0
  7  6  2  0
  8  6  1  0
  9  8  1  0
  9 10  1  0
 10 11  2  0
 12 10  1  0
 12 13  1  0
 13 17  1  0
 13 14  1  6
 15 19  1  0
 15 14  1  0
 16 15  2  0
 17 18  1  0
 20 17  2  0
M  END
$$$$
