TGD.pdb
     RDKit          3D

 20 19  0  0  1  0  0  0  0  0999 V2000
   14.0970  -12.1280  -19.1909 C   0  0  0  0  0  0  0  0  0  0  0  0
   14.2034  -13.0502  -18.0062 C   0  0  1  0  0  0  0  0  0  0  0  0
   14.6081  -14.3312  -18.3778 O   0  0  0  0  0  0  0  0  0  0  0  0
   15.1671  -12.5442  -16.9589 C   0  0  2  0  0  0  0  0  0  0  0  0
   15.3023  -13.5440  -15.9396 N   0  0  0  0  0  0  0  0  0  0  0  0
   14.7193  -11.2354  -16.4074 C   0  0  0  0  0  0  0  0  0  0  0  0
   13.6517  -11.2097  -15.7738 O   0  0  0  0  0  0  0  0  0  0  0  0
   15.4662  -10.0403  -16.5832 N   0  0  0  0  0  0  0  0  0  0  0  0
   15.0725   -8.7960  -15.9701 C   0  0  0  0  0  0  0  0  0  0  0  0
   16.0653   -7.7230  -16.1936 C   0  0  0  0  0  0  0  0  0  0  0  0
   17.0972   -7.9862  -16.8622 O   0  0  0  0  0  0  0  0  0  0  0  0
   15.9325   -6.4022  -15.7007 N   0  0  0  0  0  0  0  0  0  0  0  0
   16.9165   -5.3500  -15.9826 C   0  0  1  0  0  0  0  0  0  0  0  0
   16.3740   -4.0012  -15.5961 C   0  0  0  0  0  0  0  0  0  0  0  0
   17.3673   -2.9598  -15.9152 C   0  0  0  0  0  0  0  0  0  0  0  0
   18.3592   -3.2114  -16.6396 O   0  0  0  0  0  0  0  0  0  0  0  0
   18.1027   -5.6469  -15.1595 C   0  0  0  0  0  0  0  0  0  0  0  0
   19.3721   -5.3466  -15.5907 O   0  0  0  0  0  0  0  0  0  0  0  0
   17.2439   -1.6722  -15.4305 O   0  0  0  0  0  0  0  0  0  0  0  0
   17.9768   -6.1885  -14.0303 O   0  0  0  0  0  0  0  0  0  0  0  0
  2  1  1  6
  3  2  1  0
  4  5  1  1
  4  2  1  0
  6  4  1  0
  7  6  2  0
  8  6  1  0
  9  8  1  0
  9 10  1  0
 10 11  2  0
 12 10  1  0
 12 13  1  0
 13 17  1  0
 13 14  1  1
 15 19  1  0
 15 14  1  0
 16 15  2  0
 17 18  1  0
 20 17  2  0
M  END
$$$$
