TGD.pdb
     RDKit          3D

 20 19  0  0  1  0  0  0  0  0999 V2000
   13.5923   -9.5400   -8.7754 C   0  0  0  0  0  0  0  0  0  0  0  0
   13.6643   -8.0723   -9.1008 C   0  0  1  0  0  0  0  0  0  0  0  0
   12.5710   -7.3721   -8.5938 O   0  0  0  0  0  0  0  0  0  0  0  0
   14.9197   -7.4194   -8.5722 C   0  0  2  0  0  0  0  0  0  0  0  0
   14.8538   -6.0128   -8.8439 N   0  0  0  0  0  0  0  0  0  0  0  0
   16.1367   -8.0488   -9.1559 C   0  0  0  0  0  0  0  0  0  0  0  0
   16.5861   -9.0639   -8.5996 O   0  0  0  0  0  0  0  0  0  0  0  0
   16.7831   -7.5293  -10.3088 N   0  0  0  0  0  0  0  0  0  0  0  0
   17.8971   -8.2028  -10.9289 C   0  0  0  0  0  0  0  0  0  0  0  0
   18.3779   -7.4953  -12.1352 C   0  0  0  0  0  0  0  0  0  0  0  0
   17.6223   -6.6508  -12.6802 O   0  0  0  0  0  0  0  0  0  0  0  0
   19.6473   -7.7053  -12.7266 N   0  0  0  0  0  0  0  0  0  0  0  0
   20.3234   -6.6819  -13.5330 C   0  0  1  0  0  0  0  0  0  0  0  0
   20.6655   -5.4844  -12.6892 C   0  0  0  0  0  0  0  0  0  0  0  0
   21.3339   -4.4683  -13.5221 C   0  0  0  0  0  0  0  0  0  0  0  0
   20.7833   -4.0106  -14.5513 O   0  0  0  0  0  0  0  0  0  0  0  0
   21.5689   -7.2907  -14.0339 C   0  0  0  0  0  0  0  0  0  0  0  0
   22.2252   -6.7888  -15.1316 O   0  0  0  0  0  0  0  0  0  0  0  0
   22.5871   -3.9836  -13.2020 O   0  0  0  0  0  0  0  0  0  0  0  0
   22.0638   -8.2957  -13.4601 O   0  0  0  0  0  0  0  0  0  0  0  0
  2  1  1  1
  3  2  1  0
  4  5  1  6
  4  2  1  0
  6  4  1  0
  7  6  2  0
  8  6  1  0
  9  8  1  0
  9 10  1  0
 10 11  2  0
 12 10  1  0
 12 13  1  0
 13 17  1  0
 13 14  1  1
 15 19  1  0
 15 14  1  0
 16 15  2  0
 17 18  1  0
 20 17  2  0
M  END
$$$$
