TGD.pdb
     RDKit          3D

 20 19  0  0  1  0  0  0  0  0999 V2000
   20.8010   -8.8343  -20.6569 C   0  0  0  0  0  0  0  0  0  0  0  0
   20.6593  -10.3114  -20.4046 C   0  0  1  0  0  0  0  0  0  0  0  0
   20.3946  -11.0171  -21.5771 O   0  0  0  0  0  0  0  0  0  0  0  0
   21.8892  -10.9140  -19.7674 C   0  0  2  0  0  0  0  0  0  0  0  0
   21.7569  -12.3421  -19.7770 N   0  0  0  0  0  0  0  0  0  0  0  0
   22.0977  -10.3775  -18.3940 C   0  0  0  0  0  0  0  0  0  0  0  0
   21.3434  -10.7819  -17.4944 O   0  0  0  0  0  0  0  0  0  0  0  0
   23.1163   -9.4349  -18.0923 N   0  0  0  0  0  0  0  0  0  0  0  0
   23.2217   -8.8126  -16.7958 C   0  0  0  0  0  0  0  0  0  0  0  0
   22.2249   -7.7364  -16.6087 C   0  0  0  0  0  0  0  0  0  0  0  0
   21.5157   -7.3944  -17.5891 O   0  0  0  0  0  0  0  0  0  0  0  0
   22.0107   -7.0554  -15.3857 N   0  0  0  0  0  0  0  0  0  0  0  0
   21.0114   -5.9904  -15.2379 C   0  0  1  0  0  0  0  0  0  0  0  0
   19.7874   -6.5076  -14.5327 C   0  0  0  0  0  0  0  0  0  0  0  0
   18.7728   -5.4409  -14.4583 C   0  0  0  0  0  0  0  0  0  0  0  0
   18.8254   -4.4433  -15.2160 O   0  0  0  0  0  0  0  0  0  0  0  0
   21.6328   -4.9367  -14.4154 C   0  0  0  0  0  0  0  0  0  0  0  0
   21.1299   -3.6586  -14.3820 O   0  0  0  0  0  0  0  0  0  0  0  0
   17.7296   -5.4991  -13.5548 O   0  0  0  0  0  0  0  0  0  0  0  0
   22.6500   -5.1880  -13.7179 O   0  0  0  0  0  0  0  0  0  0  0  0
  2  1  1  6
  3  2  1  0
  4  5  1  1
  4  2  1  0
  6  4  1  0
  7  6  2  0
  8  6  1  0
  9  8  1  0
  9 10  1  0
 10 11  2  0
 12 10  1  0
 12 13  1  0
 13 17  1  0
 13 14  1  1
 15 19  1  0
 15 14  1  0
 16 15  2  0
 17 18  1  0
 20 17  2  0
M  END
$$$$
