TGD.pdb
     RDKit          3D

 20 19  0  0  1  0  0  0  0  0999 V2000
   14.8459  -13.2910  -16.1566 C   0  0  0  0  0  0  0  0  0  0  0  0
   15.9489  -13.4152  -15.1402 C   0  0  1  0  0  0  0  0  0  0  0  0
   15.8854  -14.6232  -14.4476 O   0  0  0  0  0  0  0  0  0  0  0  0
   17.3237  -13.3047  -15.7561 C   0  0  2  0  0  0  0  0  0  0  0  0
   18.3019  -13.5937  -14.7479 N   0  0  0  0  0  0  0  0  0  0  0  0
   17.5284  -11.9639  -16.3709 C   0  0  0  0  0  0  0  0  0  0  0  0
   16.8933  -11.6985  -17.4044 O   0  0  0  0  0  0  0  0  0  0  0  0
   18.4125  -11.0003  -15.8171 N   0  0  0  0  0  0  0  0  0  0  0  0
   18.6485   -9.7266  -16.4506 C   0  0  0  0  0  0  0  0  0  0  0  0
   19.5905   -8.8850  -15.6817 C   0  0  0  0  0  0  0  0  0  0  0  0
   19.9827   -9.2910  -14.5582 O   0  0  0  0  0  0  0  0  0  0  0  0
   20.0883   -7.6370  -16.1291 N   0  0  0  0  0  0  0  0  0  0  0  0
   21.1530   -6.9119  -15.4254 C   0  0  1  0  0  0  0  0  0  0  0  0
   21.7046   -5.8115  -16.2903 C   0  0  0  0  0  0  0  0  0  0  0  0
   22.8025   -5.1297  -15.5813 C   0  0  0  0  0  0  0  0  0  0  0  0
   22.6111   -4.0455  -14.9816 O   0  0  0  0  0  0  0  0  0  0  0  0
   20.5396   -6.3190  -14.2233 C   0  0  0  0  0  0  0  0  0  0  0  0
   21.2615   -6.1152  -13.0723 O   0  0  0  0  0  0  0  0  0  0  0  0
   24.0789   -5.6569  -15.5507 O   0  0  0  0  0  0  0  0  0  0  0  0
   19.3266   -5.9828  -14.2253 O   0  0  0  0  0  0  0  0  0  0  0  0
  2  1  1  6
  3  2  1  0
  4  5  1  1
  4  2  1  0
  6  4  1  0
  7  6  2  0
  8  6  1  0
  9  8  1  0
  9 10  1  0
 10 11  2  0
 12 10  1  0
 12 13  1  0
 13 17  1  0
 13 14  1  6
 15 19  1  0
 15 14  1  0
 16 15  2  0
 17 18  1  0
 20 17  2  0
M  END
$$$$
