TGD.pdb
     RDKit          3D

 20 19  0  0  1  0  0  0  0  0999 V2000
   16.5887  -14.9654  -15.5123 C   0  0  0  0  0  0  0  0  0  0  0  0
   16.5496  -13.4668  -15.6465 C   0  0  1  0  0  0  0  0  0  0  0  0
   16.5366  -12.8328  -14.4052 O   0  0  0  0  0  0  0  0  0  0  0  0
   17.7177  -12.9218  -16.4341 C   0  0  2  0  0  0  0  0  0  0  0  0
   18.9335  -13.3354  -15.7956 N   0  0  0  0  0  0  0  0  0  0  0  0
   17.6282  -11.4415  -16.5688 C   0  0  0  0  0  0  0  0  0  0  0  0
   16.6744  -10.9760  -17.2132 O   0  0  0  0  0  0  0  0  0  0  0  0
   18.5855  -10.5659  -15.9908 N   0  0  0  0  0  0  0  0  0  0  0  0
   18.4721   -9.1324  -16.0969 C   0  0  0  0  0  0  0  0  0  0  0  0
   19.6213   -8.4330  -15.4830 C   0  0  0  0  0  0  0  0  0  0  0  0
   20.3440   -9.0611  -14.6680 O   0  0  0  0  0  0  0  0  0  0  0  0
   19.9691   -7.0871  -15.7531 N   0  0  0  0  0  0  0  0  0  0  0  0
   21.1298   -6.4315  -15.1386 C   0  0  1  0  0  0  0  0  0  0  0  0
   21.4156   -5.1187  -15.8154 C   0  0  0  0  0  0  0  0  0  0  0  0
   22.6208   -4.5103  -15.2236 C   0  0  0  0  0  0  0  0  0  0  0  0
   23.6089   -5.2118  -14.9019 O   0  0  0  0  0  0  0  0  0  0  0  0
   20.7787   -6.1811  -13.7291 C   0  0  0  0  0  0  0  0  0  0  0  0
   19.4947   -6.3412  -13.2672 O   0  0  0  0  0  0  0  0  0  0  0  0
   22.7074   -3.1496  -15.0016 O   0  0  0  0  0  0  0  0  0  0  0  0
   21.6581   -5.8106  -12.9083 O   0  0  0  0  0  0  0  0  0  0  0  0
  2  1  1  1
  3  2  1  0
  4  5  1  1
  4  2  1  0
  6  4  1  0
  7  6  2  0
  8  6  1  0
  9  8  1  0
  9 10  1  0
 10 11  2  0
 12 10  1  0
 12 13  1  0
 13 17  1  0
 13 14  1  6
 15 19  1  0
 15 14  1  0
 16 15  2  0
 17 18  1  0
 20 17  2  0
M  END
$$$$
