TGD.pdb
     RDKit          3D

 20 19  0  0  1  0  0  0  0  0999 V2000
   25.5657  -16.2255  -19.0147 C   0  0  0  0  0  0  0  0  0  0  0  0
   25.6705  -17.0441  -17.7561 C   0  0  1  0  0  0  0  0  0  0  0  0
   24.6338  -17.9696  -17.6487 O   0  0  0  0  0  0  0  0  0  0  0  0
   26.9767  -17.7963  -17.6575 C   0  0  2  0  0  0  0  0  0  0  0  0
   27.0610  -18.7137  -18.7567 N   0  0  0  0  0  0  0  0  0  0  0  0
   27.1013  -18.4821  -16.3415 C   0  0  0  0  0  0  0  0  0  0  0  0
   26.8881  -19.7048  -16.3041 O   0  0  0  0  0  0  0  0  0  0  0  0
   27.4509  -17.7885  -15.1526 N   0  0  0  0  0  0  0  0  0  0  0  0
   27.6358  -18.4712  -13.8960 C   0  0  0  0  0  0  0  0  0  0  0  0
   26.3501  -18.8141  -13.2508 C   0  0  0  0  0  0  0  0  0  0  0  0
   25.2812  -18.4637  -13.8127 O   0  0  0  0  0  0  0  0  0  0  0  0
   26.2377  -19.5196  -12.0281 N   0  0  0  0  0  0  0  0  0  0  0  0
   25.0527  -20.3119  -11.6780 C   0  0  1  0  0  0  0  0  0  0  0  0
   24.8848  -21.4624  -12.6326 C   0  0  0  0  0  0  0  0  0  0  0  0
   23.6988  -22.2507  -12.2519 C   0  0  0  0  0  0  0  0  0  0  0  0
   23.4187  -23.3231  -12.8379 O   0  0  0  0  0  0  0  0  0  0  0  0
   25.2814  -20.8404  -10.3211 C   0  0  0  0  0  0  0  0  0  0  0  0
   26.5370  -21.1896   -9.8862 O   0  0  0  0  0  0  0  0  0  0  0  0
   22.8540  -21.8398  -11.2391 O   0  0  0  0  0  0  0  0  0  0  0  0
   24.3197  -20.9852   -9.5220 O   0  0  0  0  0  0  0  0  0  0  0  0
  2  1  1  6
  3  2  1  0
  4  5  1  6
  4  2  1  0
  6  4  1  0
  7  6  2  0
  8  6  1  0
  9  8  1  0
  9 10  1  0
 10 11  2  0
 12 10  1  0
 12 13  1  0
 13 17  1  0
 13 14  1  6
 15 19  1  0
 15 14  1  0
 16 15  2  0
 17 18  1  0
 20 17  2  0
M  END
$$$$
