IWD.pdb
     RDKit          3D

 31 32  0  0  1  0  0  0  0  0999 V2000
   29.8918  -21.1647  -17.0805 C   0  0  0  0  0  0  0  0  0  0  0  0
   28.4665  -20.6826  -16.9108 C   0  0  0  0  0  0  0  0  0  0  0  0
   27.7941  -21.2396  -15.6864 C   0  0  2  0  0  0  0  0  0  0  0  0
   26.5675  -22.0577  -16.0347 C   0  0  0  0  0  0  0  0  0  0  0  0
   27.3878  -20.1734  -14.7069 C   0  0  2  0  0  0  0  0  0  0  0  0
   28.4448  -19.1801  -14.5154 N   0  0  0  0  0  0  0  0  0  0  0  0
   26.9825  -20.7094  -13.3985 C   0  0  0  0  0  0  0  0  0  0  0  0
   26.1159  -21.6203  -13.3248 O   0  0  0  0  0  0  0  0  0  0  0  0
   27.5195  -20.2567  -12.1404 N   0  0  0  0  0  0  0  0  0  0  0  0
   26.9415  -20.6359  -10.8871 C   0  0  1  0  0  0  0  0  0  0  0  0
   27.7467  -20.2304   -9.6714 C   0  0  0  0  0  0  0  0  0  0  0  0
   27.0360  -20.4305   -8.3920 C   0  0  0  0  0  0  0  0  0  0  0  0
   25.7860  -21.0093   -8.2221 C   0  0  0  0  0  0  0  0  0  0  0  0
   25.5123  -21.0315   -6.9120 N   0  0  0  0  0  0  0  0  0  0  0  0
   26.5543  -20.4816   -6.2363 C   0  0  0  0  0  0  0  0  0  0  0  0
   26.7905  -20.2538   -4.8986 C   0  0  0  0  0  0  0  0  0  0  0  0
   27.9560  -19.6572   -4.4553 C   0  0  0  0  0  0  0  0  0  0  0  0
   28.9023  -19.2808   -5.3613 C   0  0  0  0  0  0  0  0  0  0  0  0
   28.6881  -19.4978   -6.6932 C   0  0  0  0  0  0  0  0  0  0  0  0
   27.5140  -20.1007   -7.1465 C   0  0  0  0  0  0  0  0  0  0  0  0
   25.5998  -20.0288  -10.7585 C   0  0  0  0  0  0  0  0  0  0  0  0
   25.4697  -18.7961  -10.5228 O   0  0  0  0  0  0  0  0  0  0  0  0
   24.4637  -20.8420  -10.9025 N   0  0  0  0  0  0  0  0  0  0  0  0
   23.1034  -20.3249  -11.0038 C   0  0  1  0  0  0  0  0  0  0  0  0
   22.8006  -19.8988  -12.4227 C   0  0  0  0  0  0  0  0  0  0  0  0
   21.4709  -19.3409  -12.6350 C   0  0  0  0  0  0  0  0  0  0  0  0
   20.7529  -19.0922  -11.6252 O   0  0  0  0  0  0  0  0  0  0  0  0
   22.1348  -21.2896  -10.4440 C   0  0  0  0  0  0  0  0  0  0  0  0
   22.2691  -22.5085  -10.7381 O   0  0  0  0  0  0  0  0  0  0  0  0
   20.9255  -19.0593  -13.8800 O   0  0  0  0  0  0  0  0  0  0  0  0
   21.0802  -20.9630   -9.6130 O   0  0  0  0  0  0  0  0  0  0  0  0
  2  3  1  0
  2  1  1  0
  3  4  1  6
  5  6  1  1
  5  3  1  0
  7  8  2  0
  7  5  1  0
  9  7  1  0
 10 21  1  0
 10  9  1  0
 10 11  1  1
 12 11  1  0
 13 12  2  0
 14 13  1  0
 15 14  1  0
 15 20  2  0
 16 15  1  0
 17 16  2  0
 17 18  1  0
 18 19  2  0
 19 20  1  0
 20 12  1  0
 21 23  1  0
 22 21  2  0
 23 24  1  0
 24 28  1  0
 25 26  1  0
 24 25  1  6
 26 30  1  0
 27 26  2  0
 28 29  2  0
 28 31  1  0
M  END
$$$$
