IWD.pdb
     RDKit          3D

 31 32  0  0  1  0  0  0  0  0999 V2000
   26.3757  -18.8655  -17.2996 C   0  0  0  0  0  0  0  0  0  0  0  0
   27.2006  -19.7574  -16.3959 C   0  0  0  0  0  0  0  0  0  0  0  0
   26.5517  -20.0144  -15.0639 C   0  0  2  0  0  0  0  0  0  0  0  0
   26.2644  -18.7294  -14.3147 C   0  0  0  0  0  0  0  0  0  0  0  0
   27.3751  -20.9050  -14.1750 C   0  0  2  0  0  0  0  0  0  0  0  0
   27.6063  -22.2157  -14.7827 N   0  0  0  0  0  0  0  0  0  0  0  0
   26.7951  -21.0866  -12.8355 C   0  0  0  0  0  0  0  0  0  0  0  0
   25.7657  -21.7949  -12.6786 O   0  0  0  0  0  0  0  0  0  0  0  0
   27.3324  -20.4937  -11.6373 N   0  0  0  0  0  0  0  0  0  0  0  0
   26.7159  -20.6738  -10.3581 C   0  0  1  0  0  0  0  0  0  0  0  0
   27.5133  -20.1337   -9.1906 C   0  0  0  0  0  0  0  0  0  0  0  0
   26.9217  -20.4400   -7.8722 C   0  0  0  0  0  0  0  0  0  0  0  0
   25.7689  -21.1752   -7.6338 C   0  0  0  0  0  0  0  0  0  0  0  0
   25.5894  -21.2500   -6.3095 N   0  0  0  0  0  0  0  0  0  0  0  0
   26.5973  -20.5815   -5.6913 C   0  0  0  0  0  0  0  0  0  0  0  0
   26.8929  -20.3439   -4.3672 C   0  0  0  0  0  0  0  0  0  0  0  0
   28.0012  -19.6101   -3.9880 C   0  0  0  0  0  0  0  0  0  0  0  0
   28.8291  -19.1040   -4.9453 C   0  0  0  0  0  0  0  0  0  0  0  0
   28.5543  -19.3283   -6.2648 C   0  0  0  0  0  0  0  0  0  0  0  0
   27.4375  -20.0692   -6.6537 C   0  0  0  0  0  0  0  0  0  0  0  0
   25.3974  -20.0055  -10.3473 C   0  0  0  0  0  0  0  0  0  0  0  0
   25.2812  -18.8026  -10.7097 O   0  0  0  0  0  0  0  0  0  0  0  0
   24.2676  -20.7268   -9.9275 N   0  0  0  0  0  0  0  0  0  0  0  0
   22.8965  -20.3458  -10.2484 C   0  0  1  0  0  0  0  0  0  0  0  0
   22.6981  -20.2845  -11.7461 C   0  0  0  0  0  0  0  0  0  0  0  0
   21.3402  -19.9841  -12.1825 C   0  0  0  0  0  0  0  0  0  0  0  0
   20.7130  -19.0521  -11.6038 O   0  0  0  0  0  0  0  0  0  0  0  0
   21.9338  -21.2203   -9.5477 C   0  0  0  0  0  0  0  0  0  0  0  0
   22.2916  -22.3964   -9.2663 O   0  0  0  0  0  0  0  0  0  0  0  0
   20.6742  -20.6546  -13.1992 O   0  0  0  0  0  0  0  0  0  0  0  0
   20.6572  -20.8513   -9.1691 O   0  0  0  0  0  0  0  0  0  0  0  0
  2  3  1  0
  2  1  1  0
  3  4  1  1
  5  6  1  6
  5  3  1  0
  7  8  2  0
  7  5  1  0
  9  7  1  0
 10 21  1  0
 10  9  1  0
 10 11  1  1
 12 11  1  0
 13 12  2  0
 14 13  1  0
 15 14  1  0
 15 20  2  0
 16 15  1  0
 17 16  2  0
 17 18  1  0
 18 19  2  0
 19 20  1  0
 20 12  1  0
 21 23  1  0
 22 21  2  0
 23 24  1  0
 24 28  1  0
 25 26  1  0
 24 25  1  6
 26 30  1  0
 27 26  2  0
 28 29  2  0
 28 31  1  0
M  END
$$$$
