IWD.pdb
     RDKit          3D

 31 32  0  0  1  0  0  0  0  0999 V2000
   27.2854  -18.8949  -17.5560 C   0  0  0  0  0  0  0  0  0  0  0  0
   27.9486  -19.8598  -16.5959 C   0  0  0  0  0  0  0  0  0  0  0  0
   27.1623  -20.0727  -15.3318 C   0  0  2  0  0  0  0  0  0  0  0  0
   27.0310  -18.7983  -14.5233 C   0  0  0  0  0  0  0  0  0  0  0  0
   27.7552  -21.1341  -14.4468 C   0  0  2  0  0  0  0  0  0  0  0  0
   27.7775  -22.4405  -15.1050 N   0  0  0  0  0  0  0  0  0  0  0  0
   27.0744  -21.2562  -13.1486 C   0  0  0  0  0  0  0  0  0  0  0  0
   25.8981  -21.7019  -13.0866 O   0  0  0  0  0  0  0  0  0  0  0  0
   27.6698  -20.8908  -11.8885 N   0  0  0  0  0  0  0  0  0  0  0  0
   26.9190  -20.8735  -10.6700 C   0  0  1  0  0  0  0  0  0  0  0  0
   27.6782  -20.3562   -9.4672 C   0  0  0  0  0  0  0  0  0  0  0  0
   26.9595  -20.5308   -8.1886 C   0  0  0  0  0  0  0  0  0  0  0  0
   25.6991  -21.0862   -8.0175 C   0  0  0  0  0  0  0  0  0  0  0  0
   25.4203  -21.0901   -6.7084 N   0  0  0  0  0  0  0  0  0  0  0  0
   26.4692  -20.5512   -6.0343 C   0  0  0  0  0  0  0  0  0  0  0  0
   26.7043  -20.3136   -4.6982 C   0  0  0  0  0  0  0  0  0  0  0  0
   27.8782  -19.7325   -4.2566 C   0  0  0  0  0  0  0  0  0  0  0  0
   28.8341  -19.3817   -5.1627 C   0  0  0  0  0  0  0  0  0  0  0  0
   28.6212  -19.6089   -6.4931 C   0  0  0  0  0  0  0  0  0  0  0  0
   27.4386  -20.1963   -6.9447 C   0  0  0  0  0  0  0  0  0  0  0  0
   25.7199  -20.0261  -10.8411 C   0  0  0  0  0  0  0  0  0  0  0  0
   25.8254  -18.8306  -11.2304 O   0  0  0  0  0  0  0  0  0  0  0  0
   24.4537  -20.5677  -10.5650 N   0  0  0  0  0  0  0  0  0  0  0  0
   23.2149  -20.0789  -11.1605 C   0  0  1  0  0  0  0  0  0  0  0  0
   23.2966  -20.1228  -12.6696 C   0  0  0  0  0  0  0  0  0  0  0  0
   22.0903  -19.7016  -13.3710 C   0  0  0  0  0  0  0  0  0  0  0  0
   21.5799  -18.5840  -13.0753 O   0  0  0  0  0  0  0  0  0  0  0  0
   22.0488  -20.7909  -10.5985 C   0  0  0  0  0  0  0  0  0  0  0  0
   22.0820  -22.0509  -10.5581 O   0  0  0  0  0  0  0  0  0  0  0  0
   21.4501  -20.4462  -14.3521 O   0  0  0  0  0  0  0  0  0  0  0  0
   20.9100  -20.1827  -10.1062 O   0  0  0  0  0  0  0  0  0  0  0  0
  2  3  1  0
  2  1  1  0
  3  4  1  1
  5  6  1  6
  5  3  1  0
  7  8  2  0
  7  5  1  0
  9  7  1  0
 10 21  1  0
 10  9  1  0
 10 11  1  1
 12 11  1  0
 13 12  2  0
 14 13  1  0
 15 14  1  0
 15 20  2  0
 16 15  1  0
 17 16  2  0
 17 18  1  0
 18 19  2  0
 19 20  1  0
 20 12  1  0
 21 23  1  0
 22 21  2  0
 23 24  1  0
 24 28  1  0
 25 26  1  0
 24 25  1  6
 26 30  1  0
 27 26  2  0
 28 29  2  0
 28 31  1  0
M  END
$$$$
