IWD.pdb
     RDKit          3D

 31 32  0  0  1  0  0  0  0  0999 V2000
   28.4402  -20.1491   -5.6476 C   0  0  0  0  0  0  0  0  0  0  0  0
   27.0240  -20.3599   -6.1402 C   0  0  0  0  0  0  0  0  0  0  0  0
   26.8508  -20.0428   -7.6000 C   0  0  2  0  0  0  0  0  0  0  0  0
   27.2066  -18.6044   -7.9148 C   0  0  0  0  0  0  0  0  0  0  0  0
   25.4537  -20.3020   -8.0923 C   0  0  2  0  0  0  0  0  0  0  0  0
   24.9855  -21.6375   -7.7209 N   0  0  0  0  0  0  0  0  0  0  0  0
   25.3060  -20.1223   -9.5447 C   0  0  0  0  0  0  0  0  0  0  0  0
   25.3116  -18.9673  -10.0467 O   0  0  0  0  0  0  0  0  0  0  0  0
   25.1480  -21.2074  -10.4793 N   0  0  0  0  0  0  0  0  0  0  0  0
   24.8796  -20.9819  -11.8671 C   0  0  1  0  0  0  0  0  0  0  0  0
   25.8353  -21.6723  -12.8160 C   0  0  0  0  0  0  0  0  0  0  0  0
   27.1345  -20.9840  -12.9588 C   0  0  0  0  0  0  0  0  0  0  0  0
   28.3097  -21.2878  -12.2856 C   0  0  0  0  0  0  0  0  0  0  0  0
   29.2637  -20.4538  -12.7170 N   0  0  0  0  0  0  0  0  0  0  0  0
   28.7313  -19.6222  -13.6496 C   0  0  0  0  0  0  0  0  0  0  0  0
   29.2559  -18.5913  -14.3972 C   0  0  0  0  0  0  0  0  0  0  0  0
   28.4857  -17.8767  -15.2954 C   0  0  0  0  0  0  0  0  0  0  0  0
   27.1695  -18.1949  -15.4507 C   0  0  0  0  0  0  0  0  0  0  0  0
   26.6290  -19.2145  -14.7190 C   0  0  0  0  0  0  0  0  0  0  0  0
   27.4019  -19.9402  -13.8116 C   0  0  0  0  0  0  0  0  0  0  0  0
   23.5143  -21.4492  -12.1879 C   0  0  0  0  0  0  0  0  0  0  0  0
   22.8853  -22.1983  -11.3911 O   0  0  0  0  0  0  0  0  0  0  0  0
   22.9197  -21.0485  -13.3958 N   0  0  0  0  0  0  0  0  0  0  0  0
   21.4839  -20.8577  -13.5691 C   0  0  1  0  0  0  0  0  0  0  0  0
   20.9446  -19.9033  -12.5276 C   0  0  0  0  0  0  0  0  0  0  0  0
   19.5103  -19.6533  -12.5954 C   0  0  0  0  0  0  0  0  0  0  0  0
   18.7731  -20.5168  -13.1504 O   0  0  0  0  0  0  0  0  0  0  0  0
   21.1726  -20.4709  -14.9604 C   0  0  0  0  0  0  0  0  0  0  0  0
   21.8161  -19.5145  -15.4719 O   0  0  0  0  0  0  0  0  0  0  0  0
   18.8841  -18.5221  -12.0903 O   0  0  0  0  0  0  0  0  0  0  0  0
   20.2227  -21.0788  -15.7589 O   0  0  0  0  0  0  0  0  0  0  0  0
  2  3  1  0
  2  1  1  0
  3  4  1  1
  5  6  1  6
  5  3  1  0
  7  8  2  0
  7  5  1  0
  9  7  1  0
 10 21  1  0
 10  9  1  0
 10 11  1  6
 12 11  1  0
 13 12  2  0
 14 13  1  0
 15 14  1  0
 15 20  2  0
 16 15  1  0
 17 16  2  0
 17 18  1  0
 18 19  2  0
 19 20  1  0
 20 12  1  0
 21 23  1  0
 22 21  2  0
 23 24  1  0
 24 28  1  0
 25 26  1  0
 24 25  1  1
 26 30  1  0
 27 26  2  0
 28 29  2  0
 28 31  1  0
M  END
$$$$
