IWD.pdb
     RDKit          3D

 31 32  0  0  1  0  0  0  0  0999 V2000
   26.4375  -22.4164  -18.9149 C   0  0  0  0  0  0  0  0  0  0  0  0
   27.1943  -23.3244  -17.9687 C   0  0  0  0  0  0  0  0  0  0  0  0
   26.5834  -23.3919  -16.5962 C   0  0  2  0  0  0  0  0  0  0  0  0
   25.1139  -23.7569  -16.6460 C   0  0  0  0  0  0  0  0  0  0  0  0
   26.7245  -22.1056  -15.8301 C   0  0  2  0  0  0  0  0  0  0  0  0
   28.1061  -21.6243  -15.8258 N   0  0  0  0  0  0  0  0  0  0  0  0
   26.2380  -22.1972  -14.4449 C   0  0  0  0  0  0  0  0  0  0  0  0
   25.1413  -22.7622  -14.1918 O   0  0  0  0  0  0  0  0  0  0  0  0
   26.9449  -21.6695  -13.3057 N   0  0  0  0  0  0  0  0  0  0  0  0
   26.2681  -21.2728  -12.1085 C   0  0  1  0  0  0  0  0  0  0  0  0
   27.1743  -20.7569  -11.0116 C   0  0  0  0  0  0  0  0  0  0  0  0
   26.4726  -20.4731   -9.7431 C   0  0  0  0  0  0  0  0  0  0  0  0
   25.0998  -20.3860   -9.5590 C   0  0  0  0  0  0  0  0  0  0  0  0
   24.8682  -20.1449   -8.2629 N   0  0  0  0  0  0  0  0  0  0  0  0
   26.0571  -20.0747   -7.6100 C   0  0  0  0  0  0  0  0  0  0  0  0
   26.3935  -19.8470   -6.2939 C   0  0  0  0  0  0  0  0  0  0  0  0
   27.7097  -19.8165   -5.8727 C   0  0  0  0  0  0  0  0  0  0  0  0
   28.7079  -20.0161   -6.7791 C   0  0  0  0  0  0  0  0  0  0  0  0
   28.3960  -20.2440   -8.0898 C   0  0  0  0  0  0  0  0  0  0  0  0
   27.0692  -20.2770   -8.5207 C   0  0  0  0  0  0  0  0  0  0  0  0
   25.2935  -20.2066  -12.4227 C   0  0  0  0  0  0  0  0  0  0  0  0
   25.5974  -19.2658  -13.2065 O   0  0  0  0  0  0  0  0  0  0  0  0
   24.0176  -20.2511  -11.8372 N   0  0  0  0  0  0  0  0  0  0  0  0
   22.7753  -20.0973  -12.5863 C   0  0  1  0  0  0  0  0  0  0  0  0
   22.8537  -20.8356  -13.9036 C   0  0  0  0  0  0  0  0  0  0  0  0
   22.7307  -20.0019  -15.0929 C   0  0  0  0  0  0  0  0  0  0  0  0
   23.4594  -18.9737  -15.1865 O   0  0  0  0  0  0  0  0  0  0  0  0
   21.6136  -20.4708  -11.7537 C   0  0  0  0  0  0  0  0  0  0  0  0
   21.5867  -21.6273  -11.2516 O   0  0  0  0  0  0  0  0  0  0  0  0
   21.8608  -20.2550  -16.1445 O   0  0  0  0  0  0  0  0  0  0  0  0
   20.5400  -19.6467  -11.4749 O   0  0  0  0  0  0  0  0  0  0  0  0
  2  3  1  0
  2  1  1  0
  3  4  1  6
  5  6  1  1
  5  3  1  0
  7  8  2  0
  7  5  1  0
  9  7  1  0
 10 21  1  0
 10  9  1  0
 10 11  1  1
 12 11  1  0
 13 12  2  0
 14 13  1  0
 15 14  1  0
 15 20  2  0
 16 15  1  0
 17 16  2  0
 17 18  1  0
 18 19  2  0
 19 20  1  0
 20 12  1  0
 21 23  1  0
 22 21  2  0
 23 24  1  0
 24 28  1  0
 25 26  1  0
 24 25  1  6
 26 30  1  0
 27 26  2  0
 28 29  2  0
 28 31  1  0
M  END
$$$$
