IWD.pdb
     RDKit          3D

 31 32  0  0  1  0  0  0  0  0999 V2000
   25.9608  -17.4686  -16.2155 C   0  0  0  0  0  0  0  0  0  0  0  0
   26.2977  -18.8607  -15.7245 C   0  0  0  0  0  0  0  0  0  0  0  0
   27.5204  -18.9012  -14.8501 C   0  0  2  0  0  0  0  0  0  0  0  0
   28.7406  -18.3434  -15.5538 C   0  0  0  0  0  0  0  0  0  0  0  0
   27.8470  -20.2871  -14.3663 C   0  0  2  0  0  0  0  0  0  0  0  0
   28.0538  -21.2161  -15.4775 N   0  0  0  0  0  0  0  0  0  0  0  0
   26.8332  -20.8389  -13.4545 C   0  0  0  0  0  0  0  0  0  0  0  0
   26.0541  -21.7481  -13.8448 O   0  0  0  0  0  0  0  0  0  0  0  0
   26.6514  -20.4041  -12.0929 N   0  0  0  0  0  0  0  0  0  0  0  0
   25.5833  -20.8933  -11.2753 C   0  0  1  0  0  0  0  0  0  0  0  0
   25.7678  -20.6640   -9.7907 C   0  0  0  0  0  0  0  0  0  0  0  0
   27.1477  -20.8982   -9.3184 C   0  0  0  0  0  0  0  0  0  0  0  0
   28.1283  -21.6383   -9.9641 C   0  0  0  0  0  0  0  0  0  0  0  0
   29.2443  -21.5829   -9.2272 N   0  0  0  0  0  0  0  0  0  0  0  0
   29.0054  -20.8265   -8.1246 C   0  0  0  0  0  0  0  0  0  0  0  0
   29.7872  -20.4556   -7.0530 C   0  0  0  0  0  0  0  0  0  0  0  0
   29.2953  -19.6665   -6.0302 C   0  0  0  0  0  0  0  0  0  0  0  0
   28.0015  -19.2401   -6.0762 C   0  0  0  0  0  0  0  0  0  0  0  0
   27.2088  -19.5964   -7.1305 C   0  0  0  0  0  0  0  0  0  0  0  0
   27.7001  -20.3918   -8.1665 C   0  0  0  0  0  0  0  0  0  0  0  0
   24.3177  -20.2425  -11.6751 C   0  0  0  0  0  0  0  0  0  0  0  0
   24.3246  -19.1291  -12.2685 O   0  0  0  0  0  0  0  0  0  0  0  0
   23.0994  -20.8793  -11.3868 N   0  0  0  0  0  0  0  0  0  0  0  0
   21.9436  -20.8604  -12.2767 C   0  0  1  0  0  0  0  0  0  0  0  0
   22.3054  -21.4278  -13.6307 C   0  0  0  0  0  0  0  0  0  0  0  0
   21.2203  -21.4579  -14.6034 C   0  0  0  0  0  0  0  0  0  0  0  0
   20.6146  -20.3799  -14.8648 O   0  0  0  0  0  0  0  0  0  0  0  0
   20.7828  -21.5148  -11.6390 C   0  0  0  0  0  0  0  0  0  0  0  0
   19.6857  -21.5210  -12.2609 O   0  0  0  0  0  0  0  0  0  0  0  0
   20.7951  -22.5971  -15.2727 O   0  0  0  0  0  0  0  0  0  0  0  0
   20.7997  -22.1295  -10.4017 O   0  0  0  0  0  0  0  0  0  0  0  0
  2  3  1  0
  2  1  1  0
  3  4  1  6
  5  6  1  6
  5  3  1  0
  7  8  2  0
  7  5  1  0
  9  7  1  0
 10 21  1  0
 10  9  1  0
 10 11  1  1
 12 11  1  0
 13 12  2  0
 14 13  1  0
 15 14  1  0
 15 20  2  0
 16 15  1  0
 17 16  2  0
 17 18  1  0
 18 19  2  0
 19 20  1  0
 20 12  1  0
 21 23  1  0
 22 21  2  0
 23 24  1  0
 24 28  1  0
 25 26  1  0
 24 25  1  6
 26 30  1  0
 27 26  2  0
 28 29  2  0
 28 31  1  0
M  END
$$$$
