IWD.pdb
     RDKit          3D

 31 32  0  0  1  0  0  0  0  0999 V2000
   28.1816  -18.1567  -16.5167 C   0  0  0  0  0  0  0  0  0  0  0  0
   28.7728  -19.0031  -15.4092 C   0  0  0  0  0  0  0  0  0  0  0  0
   27.7432  -19.5144  -14.4397 C   0  0  2  0  0  0  0  0  0  0  0  0
   27.0202  -18.3868  -13.7321 C   0  0  0  0  0  0  0  0  0  0  0  0
   28.3253  -20.4291  -13.3977 C   0  0  2  0  0  0  0  0  0  0  0  0
   28.9556  -21.6052  -13.9978 N   0  0  0  0  0  0  0  0  0  0  0  0
   27.3440  -20.8643  -12.3921 C   0  0  0  0  0  0  0  0  0  0  0  0
   26.6545  -21.9008  -12.5829 O   0  0  0  0  0  0  0  0  0  0  0  0
   27.0971  -20.1705  -11.1537 N   0  0  0  0  0  0  0  0  0  0  0  0
   26.0773  -20.5871  -10.2397 C   0  0  1  0  0  0  0  0  0  0  0  0
   26.1821  -19.9810   -8.8568 C   0  0  0  0  0  0  0  0  0  0  0  0
   27.4926  -20.1956   -8.2098 C   0  0  0  0  0  0  0  0  0  0  0  0
   28.6985  -20.4491   -8.8485 C   0  0  0  0  0  0  0  0  0  0  0  0
   29.6507  -20.5527   -7.9136 N   0  0  0  0  0  0  0  0  0  0  0  0
   29.0873  -20.3724   -6.6909 C   0  0  0  0  0  0  0  0  0  0  0  0
   29.5974  -20.3810   -5.4115 C   0  0  0  0  0  0  0  0  0  0  0  0
   28.7949  -20.1735   -4.3054 C   0  0  0  0  0  0  0  0  0  0  0  0
   27.4606  -19.9540   -4.4775 C   0  0  0  0  0  0  0  0  0  0  0  0
   26.9342  -19.9411   -5.7382 C   0  0  0  0  0  0  0  0  0  0  0  0
   27.7395  -20.1488   -6.8588 C   0  0  0  0  0  0  0  0  0  0  0  0
   24.7503  -20.2312  -10.7852 C   0  0  0  0  0  0  0  0  0  0  0  0
   24.4582  -19.0302  -11.0386 O   0  0  0  0  0  0  0  0  0  0  0  0
   23.8115  -21.2490  -11.0209 N   0  0  0  0  0  0  0  0  0  0  0  0
   22.5153  -21.0268  -11.6523 C   0  0  1  0  0  0  0  0  0  0  0  0
   21.9218  -22.3353  -12.1233 C   0  0  0  0  0  0  0  0  0  0  0  0
   20.6013  -22.2367  -12.7325 C   0  0  0  0  0  0  0  0  0  0  0  0
   20.0675  -21.0957  -12.8335 O   0  0  0  0  0  0  0  0  0  0  0  0
   21.6286  -20.2473  -10.7643 C   0  0  0  0  0  0  0  0  0  0  0  0
   21.6053  -20.5402   -9.5380 O   0  0  0  0  0  0  0  0  0  0  0  0
   19.8752  -23.3165  -13.2156 O   0  0  0  0  0  0  0  0  0  0  0  0
   20.8123  -19.2093  -11.1713 O   0  0  0  0  0  0  0  0  0  0  0  0
  2  3  1  0
  2  1  1  0
  3  4  1  1
  5  6  1  6
  5  3  1  0
  7  8  2  0
  7  5  1  0
  9  7  1  0
 10 21  1  0
 10  9  1  0
 10 11  1  1
 12 11  1  0
 13 12  2  0
 14 13  1  0
 15 14  1  0
 15 20  2  0
 16 15  1  0
 17 16  2  0
 17 18  1  0
 18 19  2  0
 19 20  1  0
 20 12  1  0
 21 23  1  0
 22 21  2  0
 23 24  1  0
 24 28  1  0
 25 26  1  0
 24 25  1  1
 26 30  1  0
 27 26  2  0
 28 29  2  0
 28 31  1  0
M  END
$$$$
