FEG.pdb
     RDKit          3D

 25 25  0  0  1  0  0  0  0  0999 V2000
    5.6781  -17.1777   24.7985 N   0  0  0  0  0  0  0  0  0  0  0  0
    6.8792  -16.4486   24.9733 C   0  0  1  0  0  0  0  0  0  0  0  0
    6.9951  -15.8578   26.3825 C   0  0  0  0  0  0  0  0  0  0  0  0
    7.0171  -14.3761   26.2967 C   0  0  0  0  0  0  0  0  0  0  0  0
    5.8176  -13.7149   26.3378 C   0  0  0  0  0  0  0  0  0  0  0  0
    5.7985  -12.3358   26.2605 C   0  0  0  0  0  0  0  0  0  0  0  0
    6.9782  -11.6595   26.1446 C   0  0  0  0  0  0  0  0  0  0  0  0
    8.1896  -12.3310   26.1034 C   0  0  0  0  0  0  0  0  0  0  0  0
    8.2112  -13.7143   26.1807 C   0  0  0  0  0  0  0  0  0  0  0  0
    8.1143  -17.1758   24.7010 C   0  0  0  0  0  0  0  0  0  0  0  0
    8.2765  -18.2974   25.2484 O   0  0  0  0  0  0  0  0  0  0  0  0
    9.1667  -16.7167   23.8558 N   0  0  0  0  0  0  0  0  0  0  0  0
   10.4557  -17.3377   23.7903 C   0  0  1  0  0  0  0  0  0  0  0  0
   11.2329  -16.7124   22.6594 C   0  0  0  0  0  0  0  0  0  0  0  0
   12.0763  -17.7625   21.9718 C   0  0  0  0  0  0  0  0  0  0  0  0
   12.6233  -17.2582   20.6809 C   0  0  0  0  0  0  0  0  0  0  0  0
   13.3074  -17.9970   19.9317 O   0  0  0  0  0  0  0  0  0  0  0  0
   11.1907  -17.2760   25.0758 C   0  0  0  0  0  0  0  0  0  0  0  0
   11.5313  -16.1904   25.6252 O   0  0  0  0  0  0  0  0  0  0  0  0
   12.3858  -15.9534   20.2786 O   0  0  0  0  0  0  0  0  0  0  0  0
   11.5559  -18.4621   25.7679 N   0  0  0  0  0  0  0  0  0  0  0  0
   12.3831  -18.3928   26.9818 C   0  0  0  0  0  0  0  0  0  0  0  0
   11.6416  -19.0151   28.1266 C   0  0  0  0  0  0  0  0  0  0  0  0
   12.2508  -19.1101   29.3679 O   0  0  0  0  0  0  0  0  0  0  0  0
   10.4775  -19.4415   27.9427 O   0  0  0  0  0  0  0  0  0  0  0  0
  2 10  1  0
  2  1  1  1
  3  4  1  0
  3  2  1  0
  4  9  2  0
  4  5  1  0
  5  6  2  0
  6  7  1  0
  8  7  2  0
  9  8  1  0
 10 11  2  0
 12 10  1  0
 12 13  1  0
 13 14  1  6
 14 15  1  0
 16 15  1  0
 16 17  2  0
 18 13  1  0
 18 21  1  0
 19 18  2  0
 20 16  1  0
 22 21  1  0
 23 22  1  0
 23 24  1  0
 25 23  2  0
M  END
$$$$
