FEG.pdb
     RDKit          3D

 25 25  0  0  1  0  0  0  0  0999 V2000
    6.7619  -16.5150   26.4328 N   0  0  0  0  0  0  0  0  0  0  0  0
    6.4815  -16.6302   25.0497 C   0  0  1  0  0  0  0  0  0  0  0  0
    5.9490  -15.3206   24.4584 C   0  0  0  0  0  0  0  0  0  0  0  0
    6.5335  -14.1723   25.1951 C   0  0  0  0  0  0  0  0  0  0  0  0
    5.8767  -13.7279   26.3127 C   0  0  0  0  0  0  0  0  0  0  0  0
    6.3908  -12.6613   27.0243 C   0  0  0  0  0  0  0  0  0  0  0  0
    7.5451  -12.0712   26.5977 C   0  0  0  0  0  0  0  0  0  0  0  0
    8.2069  -12.5229   25.4672 C   0  0  0  0  0  0  0  0  0  0  0  0
    7.6932  -13.5926   24.7519 C   0  0  0  0  0  0  0  0  0  0  0  0
    7.5876  -17.0725   24.2074 C   0  0  0  0  0  0  0  0  0  0  0  0
    7.4272  -18.1090   23.5117 O   0  0  0  0  0  0  0  0  0  0  0  0
    8.8516  -16.4209   24.1048 N   0  0  0  0  0  0  0  0  0  0  0  0
   10.0861  -17.1183   23.9027 C   0  0  1  0  0  0  0  0  0  0  0  0
   10.7331  -16.5941   22.6454 C   0  0  0  0  0  0  0  0  0  0  0  0
   12.0585  -17.2870   22.4210 C   0  0  0  0  0  0  0  0  0  0  0  0
   12.6793  -16.8653   21.1339 C   0  0  0  0  0  0  0  0  0  0  0  0
   12.3726  -17.4211   20.0513 O   0  0  0  0  0  0  0  0  0  0  0  0
   10.9915  -17.0378   25.0733 C   0  0  0  0  0  0  0  0  0  0  0  0
   11.6626  -16.0057   25.3577 O   0  0  0  0  0  0  0  0  0  0  0  0
   13.6150  -15.8432   21.1063 O   0  0  0  0  0  0  0  0  0  0  0  0
   11.1517  -18.1429   25.9521 N   0  0  0  0  0  0  0  0  0  0  0  0
   11.3638  -17.9269   27.3912 C   0  0  0  0  0  0  0  0  0  0  0  0
   11.4043  -19.2508   28.0934 C   0  0  0  0  0  0  0  0  0  0  0  0
   11.6805  -19.2993   29.4507 O   0  0  0  0  0  0  0  0  0  0  0  0
   11.1869  -20.2977   27.4395 O   0  0  0  0  0  0  0  0  0  0  0  0
  2 10  1  0
  2  1  1  1
  3  4  1  0
  3  2  1  0
  4  9  2  0
  4  5  1  0
  5  6  2  0
  6  7  1  0
  8  7  2  0
  9  8  1  0
 10 11  2  0
 12 10  1  0
 12 13  1  0
 13 14  1  6
 14 15  1  0
 16 15  1  0
 16 17  2  0
 18 13  1  0
 18 21  1  0
 19 18  2  0
 20 16  1  0
 22 21  1  0
 23 22  1  0
 23 24  1  0
 25 23  2  0
M  END
$$$$
