FEG.pdb
     RDKit          3D

 25 25  0  0  1  0  0  0  0  0999 V2000
    5.8416  -17.1202   24.8484 N   0  0  0  0  0  0  0  0  0  0  0  0
    6.9702  -16.2659   24.8840 C   0  0  1  0  0  0  0  0  0  0  0  0
    7.1269  -15.5742   26.2424 C   0  0  0  0  0  0  0  0  0  0  0  0
    6.9562  -14.1095   26.0736 C   0  0  0  0  0  0  0  0  0  0  0  0
    8.0837  -13.3492   25.9047 C   0  0  0  0  0  0  0  0  0  0  0  0
    7.9642  -11.9823   25.7444 C   0  0  0  0  0  0  0  0  0  0  0  0
    6.7221  -11.4168   25.7577 C   0  0  0  0  0  0  0  0  0  0  0  0
    5.5839  -12.1884   25.9287 C   0  0  0  0  0  0  0  0  0  0  0  0
    5.7013  -13.5596   26.0897 C   0  0  0  0  0  0  0  0  0  0  0  0
    8.2508  -16.8839   24.5575 C   0  0  0  0  0  0  0  0  0  0  0  0
    8.4404  -18.0782   24.9067 O   0  0  0  0  0  0  0  0  0  0  0  0
    9.3194  -16.2405   23.8671 N   0  0  0  0  0  0  0  0  0  0  0  0
   10.5173  -16.9131   23.4623 C   0  0  1  0  0  0  0  0  0  0  0  0
   11.1252  -16.1576   22.3074 C   0  0  0  0  0  0  0  0  0  0  0  0
   10.9472  -16.9432   21.0275 C   0  0  0  0  0  0  0  0  0  0  0  0
   11.6468  -16.2871   19.8874 C   0  0  0  0  0  0  0  0  0  0  0  0
   12.4309  -15.3249   20.0725 O   0  0  0  0  0  0  0  0  0  0  0  0
   11.4772  -17.1001   24.5760 C   0  0  0  0  0  0  0  0  0  0  0  0
   12.6126  -17.6340   24.4268 O   0  0  0  0  0  0  0  0  0  0  0  0
   11.4440  -16.7296   18.5897 O   0  0  0  0  0  0  0  0  0  0  0  0
   11.1591  -16.6783   25.8951 N   0  0  0  0  0  0  0  0  0  0  0  0
   12.1471  -16.8043   26.9771 C   0  0  0  0  0  0  0  0  0  0  0  0
   12.1500  -18.2138   27.4879 C   0  0  0  0  0  0  0  0  0  0  0  0
   11.0805  -18.6729   28.2406 O   0  0  0  0  0  0  0  0  0  0  0  0
   13.1234  -18.9582   27.2253 O   0  0  0  0  0  0  0  0  0  0  0  0
  2 10  1  0
  2  1  1  1
  3  4  1  0
  3  2  1  0
  4  9  2  0
  4  5  1  0
  5  6  2  0
  6  7  1  0
  8  7  2  0
  9  8  1  0
 10 11  2  0
 12 10  1  0
 12 13  1  0
 13 14  1  6
 14 15  1  0
 16 15  1  0
 16 17  2  0
 18 13  1  0
 18 21  1  0
 19 18  2  0
 20 16  1  0
 22 21  1  0
 23 22  1  0
 23 24  1  0
 25 23  2  0
M  END
$$$$
