FEG.pdb
     RDKit          3D

 25 25  0  0  1  0  0  0  0  0999 V2000
    6.5563  -17.1202   25.6735 N   0  0  0  0  0  0  0  0  0  0  0  0
    7.5064  -16.1913   25.1844 C   0  0  1  0  0  0  0  0  0  0  0  0
    7.9097  -15.1648   26.2484 C   0  0  0  0  0  0  0  0  0  0  0  0
    7.1751  -13.8964   26.0146 C   0  0  0  0  0  0  0  0  0  0  0  0
    7.0118  -13.0464   27.0770 C   0  0  0  0  0  0  0  0  0  0  0  0
    6.3335  -11.8565   26.8976 C   0  0  0  0  0  0  0  0  0  0  0  0
    5.8392  -11.5521   25.6624 C   0  0  0  0  0  0  0  0  0  0  0  0
    6.0060  -12.4137   24.5901 C   0  0  0  0  0  0  0  0  0  0  0  0
    6.6860  -13.6078   24.7677 C   0  0  0  0  0  0  0  0  0  0  0  0
    8.7337  -16.7596   24.6375 C   0  0  0  0  0  0  0  0  0  0  0  0
    9.3468  -17.6197   25.3220 O   0  0  0  0  0  0  0  0  0  0  0  0
    9.3046  -16.4182   23.3764 N   0  0  0  0  0  0  0  0  0  0  0  0
   10.5727  -16.9069   22.9247 C   0  0  1  0  0  0  0  0  0  0  0  0
   10.5385  -17.0122   21.4207 C   0  0  0  0  0  0  0  0  0  0  0  0
    9.5958  -18.1186   21.0033 C   0  0  0  0  0  0  0  0  0  0  0  0
    9.6199  -18.3232   19.5278 C   0  0  0  0  0  0  0  0  0  0  0  0
    8.6706  -18.8904   18.9344 O   0  0  0  0  0  0  0  0  0  0  0  0
   11.7100  -16.0854   23.4024 C   0  0  0  0  0  0  0  0  0  0  0  0
   11.6155  -14.8486   23.6431 O   0  0  0  0  0  0  0  0  0  0  0  0
   10.6993  -17.8878   18.7752 O   0  0  0  0  0  0  0  0  0  0  0  0
   12.9905  -16.6626   23.6176 N   0  0  0  0  0  0  0  0  0  0  0  0
   14.1093  -15.8379   24.0979 C   0  0  0  0  0  0  0  0  0  0  0  0
   15.3622  -16.6609   24.1192 C   0  0  0  0  0  0  0  0  0  0  0  0
   16.5793  -16.0510   24.3791 O   0  0  0  0  0  0  0  0  0  0  0  0
   15.2893  -17.8929   23.9007 O   0  0  0  0  0  0  0  0  0  0  0  0
  2 10  1  0
  2  1  1  1
  3  4  1  0
  3  2  1  0
  4  9  2  0
  4  5  1  0
  5  6  2  0
  6  7  1  0
  8  7  2  0
  9  8  1  0
 10 11  2  0
 12 10  1  0
 12 13  1  0
 13 14  1  6
 14 15  1  0
 16 15  1  0
 16 17  2  0
 18 13  1  0
 18 21  1  0
 19 18  2  0
 20 16  1  0
 22 21  1  0
 23 22  1  0
 23 24  1  0
 25 23  2  0
M  END
$$$$
