FEG.pdb
     RDKit          3D

 25 25  0  0  1  0  0  0  0  0999 V2000
    6.7842  -15.7149   23.8040 N   0  0  0  0  0  0  0  0  0  0  0  0
    7.8871  -14.9126   23.4233 C   0  0  1  0  0  0  0  0  0  0  0  0
    7.5632  -13.4165   23.4935 C   0  0  0  0  0  0  0  0  0  0  0  0
    7.1265  -13.0696   24.8691 C   0  0  0  0  0  0  0  0  0  0  0  0
    5.9285  -13.5716   25.3057 C   0  0  0  0  0  0  0  0  0  0  0  0
    5.4892  -13.2703   26.5803 C   0  0  0  0  0  0  0  0  0  0  0  0
    6.2600  -12.4768   27.3796 C   0  0  0  0  0  0  0  0  0  0  0  0
    7.4710  -11.9708   26.9351 C   0  0  0  0  0  0  0  0  0  0  0  0
    7.9136  -12.2716   25.6571 C   0  0  0  0  0  0  0  0  0  0  0  0
    9.1225  -15.1282   24.1688 C   0  0  0  0  0  0  0  0  0  0  0  0
   10.0211  -14.2500   24.0965 O   0  0  0  0  0  0  0  0  0  0  0  0
    9.4010  -16.2649   24.9831 N   0  0  0  0  0  0  0  0  0  0  0  0
   10.6264  -16.4397   25.7037 C   0  0  1  0  0  0  0  0  0  0  0  0
   10.3722  -17.3680   26.8647 C   0  0  0  0  0  0  0  0  0  0  0  0
   10.3093  -16.5771   28.1521 C   0  0  0  0  0  0  0  0  0  0  0  0
   11.1679  -17.1876   29.2056 C   0  0  0  0  0  0  0  0  0  0  0  0
   10.8646  -18.2831   29.7375 O   0  0  0  0  0  0  0  0  0  0  0  0
   11.7381  -16.9102   24.8439 C   0  0  0  0  0  0  0  0  0  0  0  0
   12.9019  -17.1351   25.2813 O   0  0  0  0  0  0  0  0  0  0  0  0
   12.3276  -16.5532   29.6223 O   0  0  0  0  0  0  0  0  0  0  0  0
   11.5438  -17.1360   23.4545 N   0  0  0  0  0  0  0  0  0  0  0  0
   12.6969  -17.2525   22.5494 C   0  0  0  0  0  0  0  0  0  0  0  0
   12.2160  -17.5897   21.1701 C   0  0  0  0  0  0  0  0  0  0  0  0
   10.8649  -17.8051   20.9482 O   0  0  0  0  0  0  0  0  0  0  0  0
   13.0464  -17.6721   20.2350 O   0  0  0  0  0  0  0  0  0  0  0  0
  2 10  1  0
  2  1  1  1
  3  4  1  0
  3  2  1  0
  4  9  2  0
  4  5  1  0
  5  6  2  0
  6  7  1  0
  8  7  2  0
  9  8  1  0
 10 11  2  0
 12 10  1  0
 12 13  1  0
 13 14  1  1
 14 15  1  0
 16 15  1  0
 16 17  2  0
 18 13  1  0
 18 21  1  0
 19 18  2  0
 20 16  1  0
 22 21  1  0
 23 22  1  0
 23 24  1  0
 25 23  2  0
M  END
$$$$
