FEG.pdb
     RDKit          3D

 25 25  0  0  1  0  0  0  0  0999 V2000
    5.8236  -17.6335   24.0902 N   0  0  0  0  0  0  0  0  0  0  0  0
    6.6123  -16.5579   24.5657 C   0  0  1  0  0  0  0  0  0  0  0  0
    6.0066  -15.9065   25.8135 C   0  0  0  0  0  0  0  0  0  0  0  0
    6.5556  -14.5365   25.9714 C   0  0  0  0  0  0  0  0  0  0  0  0
    7.6766  -14.3815   26.7441 C   0  0  0  0  0  0  0  0  0  0  0  0
    8.2162  -13.1213   26.9140 C   0  0  0  0  0  0  0  0  0  0  0  0
    7.6196  -12.0545   26.3069 C   0  0  0  0  0  0  0  0  0  0  0  0
    6.4861  -12.2145   25.5261 C   0  0  0  0  0  0  0  0  0  0  0  0
    5.9430  -13.4776   25.3542 C   0  0  0  0  0  0  0  0  0  0  0  0
    8.0049  -16.8706   24.8676 C   0  0  0  0  0  0  0  0  0  0  0  0
    8.2428  -17.8238   25.6544 O   0  0  0  0  0  0  0  0  0  0  0  0
    9.1338  -16.1781   24.3396 N   0  0  0  0  0  0  0  0  0  0  0  0
   10.4873  -16.5951   24.5526 C   0  0  1  0  0  0  0  0  0  0  0  0
   11.3200  -16.1392   23.3809 C   0  0  0  0  0  0  0  0  0  0  0  0
   10.9305  -16.9120   22.1407 C   0  0  0  0  0  0  0  0  0  0  0  0
   11.7571  -16.5083   20.9688 C   0  0  0  0  0  0  0  0  0  0  0  0
   11.3416  -15.6617   20.1408 O   0  0  0  0  0  0  0  0  0  0  0  0
   11.0377  -16.1263   25.8464 C   0  0  0  0  0  0  0  0  0  0  0  0
   11.3997  -14.9332   26.0512 O   0  0  0  0  0  0  0  0  0  0  0  0
   13.0110  -17.0637   20.7680 O   0  0  0  0  0  0  0  0  0  0  0  0
   11.1878  -17.0166   26.9436 N   0  0  0  0  0  0  0  0  0  0  0  0
   11.7877  -16.5529   28.2037 C   0  0  0  0  0  0  0  0  0  0  0  0
   11.7305  -17.6551   29.2183 C   0  0  0  0  0  0  0  0  0  0  0  0
   12.2457  -17.4462   30.4880 O   0  0  0  0  0  0  0  0  0  0  0  0
   11.2155  -18.7529   28.9015 O   0  0  0  0  0  0  0  0  0  0  0  0
  2 10  1  0
  2  1  1  1
  3  4  1  0
  3  2  1  0
  4  9  2  0
  4  5  1  0
  5  6  2  0
  6  7  1  0
  8  7  2  0
  9  8  1  0
 10 11  2  0
 12 10  1  0
 12 13  1  0
 13 14  1  6
 14 15  1  0
 16 15  1  0
 16 17  2  0
 18 13  1  0
 18 21  1  0
 19 18  2  0
 20 16  1  0
 22 21  1  0
 23 22  1  0
 23 24  1  0
 25 23  2  0
M  END
$$$$
