FEG.pdb
     RDKit          3D

 25 25  0  0  1  0  0  0  0  0999 V2000
    5.5597  -17.2678   24.3284 N   0  0  0  0  0  0  0  0  0  0  0  0
    6.6394  -16.4466   24.7344 C   0  0  1  0  0  0  0  0  0  0  0  0
    6.4263  -15.8654   26.1362 C   0  0  0  0  0  0  0  0  0  0  0  0
    6.7200  -14.4106   26.1177 C   0  0  0  0  0  0  0  0  0  0  0  0
    5.6639  -13.5461   25.9952 C   0  0  0  0  0  0  0  0  0  0  0  0
    5.8984  -12.1849   25.9743 C   0  0  0  0  0  0  0  0  0  0  0  0
    7.1807  -11.7290   26.0762 C   0  0  0  0  0  0  0  0  0  0  0  0
    8.2466  -12.6058   26.1999 C   0  0  0  0  0  0  0  0  0  0  0  0
    8.0138  -13.9715   26.2212 C   0  0  0  0  0  0  0  0  0  0  0  0
    7.9588  -17.0689   24.7148 C   0  0  0  0  0  0  0  0  0  0  0  0
    8.1331  -18.1139   25.3943 O   0  0  0  0  0  0  0  0  0  0  0  0
    9.0820  -16.5866   23.9810 N   0  0  0  0  0  0  0  0  0  0  0  0
   10.3848  -17.1773   24.0514 C   0  0  1  0  0  0  0  0  0  0  0  0
   11.2309  -16.6076   22.9406 C   0  0  0  0  0  0  0  0  0  0  0  0
   12.6141  -17.2175   22.9823 C   0  0  0  0  0  0  0  0  0  0  0  0
   13.4614  -16.7157   21.8642 C   0  0  0  0  0  0  0  0  0  0  0  0
   13.3437  -17.1753   20.7024 O   0  0  0  0  0  0  0  0  0  0  0  0
   11.0208  -17.0129   25.3800 C   0  0  0  0  0  0  0  0  0  0  0  0
   11.3476  -15.8885   25.8548 O   0  0  0  0  0  0  0  0  0  0  0  0
   14.4036  -15.7239   22.0866 O   0  0  0  0  0  0  0  0  0  0  0  0
   11.2999  -18.1377   26.2022 N   0  0  0  0  0  0  0  0  0  0  0  0
   11.9767  -17.9660   27.4964 C   0  0  0  0  0  0  0  0  0  0  0  0
   12.1777  -19.3071   28.1357 C   0  0  0  0  0  0  0  0  0  0  0  0
   12.8721  -19.3999   29.3316 O   0  0  0  0  0  0  0  0  0  0  0  0
   11.7127  -20.3278   27.5765 O   0  0  0  0  0  0  0  0  0  0  0  0
  2 10  1  0
  2  1  1  1
  3  4  1  0
  3  2  1  0
  4  9  2  0
  4  5  1  0
  5  6  2  0
  6  7  1  0
  8  7  2  0
  9  8  1  0
 10 11  2  0
 12 10  1  0
 12 13  1  0
 13 14  1  6
 14 15  1  0
 16 15  1  0
 16 17  2  0
 18 13  1  0
 18 21  1  0
 19 18  2  0
 20 16  1  0
 22 21  1  0
 23 22  1  0
 23 24  1  0
 25 23  2  0
M  END
$$$$
