CPY.pdb
     RDKit          3D

 26 27  0  0  1  0  0  0  0  0999 V2000
    9.4436  -18.4421   19.3468 N   0  0  0  0  0  0  0  0  0  0  0  0
    8.3932  -17.6230   19.8812 C   0  0  1  0  0  0  0  0  0  0  0  0
    7.4028  -18.4935   20.6814 C   0  0  0  0  0  0  0  0  0  0  0  0
    6.4628  -19.4323   19.4365 S   0  0  0  0  0  0  0  0  0  0  0  0
    8.8230  -16.5037   20.7147 C   0  0  0  0  0  0  0  0  0  0  0  0
    9.6988  -16.6709   21.5945 O   0  0  0  0  0  0  0  0  0  0  0  0
    8.2632  -15.1906   20.5564 N   0  0  0  0  0  0  0  0  0  0  0  0
    7.4386  -14.8170   19.4560 C   0  0  0  0  0  0  0  0  0  0  0  0
    7.2183  -13.3375   19.5696 C   0  0  0  0  0  0  0  0  0  0  0  0
    7.4658  -13.0569   21.0345 C   0  0  0  0  0  0  0  0  0  0  0  0
    8.4625  -14.0980   21.4574 C   0  0  1  0  0  0  0  0  0  0  0  0
    8.0891  -14.4608   22.8668 C   0  0  0  0  0  0  0  0  0  0  0  0
    6.9535  -14.1600   23.2777 O   0  0  0  0  0  0  0  0  0  0  0  0
    6.7398  -20.8566   23.1366 O   0  0  0  0  0  0  0  0  0  0  0  0
    6.8967  -19.5910   23.7041 C   0  0  0  0  0  0  0  0  0  0  0  0
    8.0319  -19.2740   24.4220 C   0  0  0  0  0  0  0  0  0  0  0  0
    8.2142  -18.0444   24.9887 C   0  0  0  0  0  0  0  0  0  0  0  0
    7.2483  -17.0370   24.8671 C   0  0  0  0  0  0  0  0  0  0  0  0
    7.4626  -15.7153   25.5011 C   0  0  0  0  0  0  0  0  0  0  0  0
    8.8089  -15.1065   25.1945 C   0  0  2  0  0  0  0  0  0  0  0  0
    8.9808  -15.1280   23.7337 N   0  0  0  0  0  0  0  0  0  0  0  0
    9.8566  -15.9211   25.8433 C   0  0  0  0  0  0  0  0  0  0  0  0
   10.8305  -16.5149   25.0556 O   0  0  0  0  0  0  0  0  0  0  0  0
    6.1183  -17.3663   24.1477 C   0  0  0  0  0  0  0  0  0  0  0  0
    5.9329  -18.6158   23.5715 C   0  0  0  0  0  0  0  0  0  0  0  0
    9.9142  -16.1071   27.0818 O   0  0  0  0  0  0  0  0  0  0  0  0
  2  1  1  1
  2  5  1  0
  3  2  1  0
  4  3  1  0
  5  6  2  0
  7  5  1  0
  7 11  1  0
  8  9  1  0
  8  7  1  0
  9 10  1  0
 10 11  1  0
 11 12  1  1
 12 21  1  0
 13 12  2  0
 15 14  1  0
 16 15  2  0
 17 16  1  0
 18 24  1  0
 18 17  2  0
 19 18  1  0
 20 21  1  0
 20 19  1  6
 22 20  1  0
 22 23  1  0
 24 25  2  0
 25 15  1  0
 26 22  2  0
M  END
$$$$
