CPY.pdb
     RDKit          3D

 26 27  0  0  1  0  0  0  0  0999 V2000
    5.5705  -18.1439   18.8619 N   0  0  0  0  0  0  0  0  0  0  0  0
    5.6946  -16.9834   19.6971 C   0  0  1  0  0  0  0  0  0  0  0  0
    5.0506  -17.2538   21.0723 C   0  0  0  0  0  0  0  0  0  0  0  0
    3.2558  -17.2966   20.7703 S   0  0  0  0  0  0  0  0  0  0  0  0
    7.0536  -16.4884   19.8978 C   0  0  0  0  0  0  0  0  0  0  0  0
    7.9914  -17.2887   20.1192 O   0  0  0  0  0  0  0  0  0  0  0  0
    7.3571  -15.0853   19.8493 N   0  0  0  0  0  0  0  0  0  0  0  0
    6.4018  -14.0881   19.4983 C   0  0  0  0  0  0  0  0  0  0  0  0
    7.1540  -12.7946   19.3902 C   0  0  0  0  0  0  0  0  0  0  0  0
    8.3864  -13.0334   20.2329 C   0  0  0  0  0  0  0  0  0  0  0  0
    8.6363  -14.5110   20.1298 C   0  0  1  0  0  0  0  0  0  0  0  0
    9.1511  -14.9252   21.4792 C   0  0  0  0  0  0  0  0  0  0  0  0
    8.4108  -14.7792   22.4690 O   0  0  0  0  0  0  0  0  0  0  0  0
   11.7224  -19.3703   28.3741 O   0  0  0  0  0  0  0  0  0  0  0  0
   11.3567  -18.8412   27.1352 C   0  0  0  0  0  0  0  0  0  0  0  0
   10.5074  -17.7565   27.0526 C   0  0  0  0  0  0  0  0  0  0  0  0
   10.1318  -17.2167   25.8552 C   0  0  0  0  0  0  0  0  0  0  0  0
   10.5950  -17.7433   24.6425 C   0  0  0  0  0  0  0  0  0  0  0  0
   10.1638  -17.1488   23.3559 C   0  0  0  0  0  0  0  0  0  0  0  0
   10.9267  -15.9031   22.9773 C   0  0  2  0  0  0  0  0  0  0  0  0
   10.4402  -15.4712   21.6579 N   0  0  0  0  0  0  0  0  0  0  0  0
   12.3654  -16.2307   22.9081 C   0  0  0  0  0  0  0  0  0  0  0  0
   13.1296  -16.1497   24.0619 O   0  0  0  0  0  0  0  0  0  0  0  0
   11.4427  -18.8273   24.7384 C   0  0  0  0  0  0  0  0  0  0  0  0
   11.8247  -19.3760   25.9552 C   0  0  0  0  0  0  0  0  0  0  0  0
   12.9403  -16.5821   21.8508 O   0  0  0  0  0  0  0  0  0  0  0  0
  2  1  1  6
  2  5  1  0
  3  2  1  0
  4  3  1  0
  5  6  2  0
  7  5  1  0
  7 11  1  0
  8  9  1  0
  8  7  1  0
  9 10  1  0
 10 11  1  0
 11 12  1  1
 12 21  1  0
 13 12  2  0
 15 14  1  0
 16 15  2  0
 17 16  1  0
 18 24  1  0
 18 17  2  0
 19 18  1  0
 20 21  1  0
 20 19  1  6
 22 20  1  0
 22 23  1  0
 24 25  2  0
 25 15  1  0
 26 22  2  0
M  END
$$$$
