CPY.pdb
     RDKit          3D

 26 27  0  0  1  0  0  0  0  0999 V2000
   11.0654  -16.7037   18.2900 N   0  0  0  0  0  0  0  0  0  0  0  0
    9.9842  -17.0976   19.1474 C   0  0  1  0  0  0  0  0  0  0  0  0
   10.1507  -18.5747   19.5592 C   0  0  0  0  0  0  0  0  0  0  0  0
    8.8217  -18.8987   20.7606 S   0  0  0  0  0  0  0  0  0  0  0  0
    9.7989  -16.2875   20.3482 C   0  0  0  0  0  0  0  0  0  0  0  0
   10.7589  -16.0820   21.1260 O   0  0  0  0  0  0  0  0  0  0  0  0
    8.5262  -15.7069   20.6739 N   0  0  0  0  0  0  0  0  0  0  0  0
    7.4076  -15.7237   19.7914 C   0  0  0  0  0  0  0  0  0  0  0  0
    6.3509  -14.8673   20.4240 C   0  0  0  0  0  0  0  0  0  0  0  0
    6.7250  -14.8723   21.8890 C   0  0  0  0  0  0  0  0  0  0  0  0
    8.2181  -15.0363   21.8989 C   0  0  1  0  0  0  0  0  0  0  0  0
    8.5190  -15.8931   23.0959 C   0  0  0  0  0  0  0  0  0  0  0  0
    8.5446  -17.1290   22.9517 O   0  0  0  0  0  0  0  0  0  0  0  0
    5.1822  -11.1910   26.9646 O   0  0  0  0  0  0  0  0  0  0  0  0
    6.1378  -12.2072   26.9144 C   0  0  0  0  0  0  0  0  0  0  0  0
    7.4818  -11.9096   26.8160 C   0  0  0  0  0  0  0  0  0  0  0  0
    8.4401  -12.8819   26.7652 C   0  0  0  0  0  0  0  0  0  0  0  0
    8.1011  -14.2405   26.8110 C   0  0  0  0  0  0  0  0  0  0  0  0
    9.1571  -15.2772   26.7417 C   0  0  0  0  0  0  0  0  0  0  0  0
    9.0347  -16.1888   25.5454 C   0  0  2  0  0  0  0  0  0  0  0  0
    8.7719  -15.3430   24.3708 N   0  0  0  0  0  0  0  0  0  0  0  0
    7.9066  -17.1158   25.7689 C   0  0  0  0  0  0  0  0  0  0  0  0
    6.7354  -16.9352   25.0495 O   0  0  0  0  0  0  0  0  0  0  0  0
    6.7549  -14.5248   26.9090 C   0  0  0  0  0  0  0  0  0  0  0  0
    5.7808  -13.5369   26.9608 C   0  0  0  0  0  0  0  0  0  0  0  0
    7.9504  -18.0682   26.5831 O   0  0  0  0  0  0  0  0  0  0  0  0
  2  1  1  1
  2  5  1  0
  3  2  1  0
  4  3  1  0
  5  6  2  0
  7  5  1  0
  7 11  1  0
  8  9  1  0
  8  7  1  0
  9 10  1  0
 10 11  1  0
 11 12  1  1
 12 21  1  0
 13 12  2  0
 15 14  1  0
 16 15  2  0
 17 16  1  0
 18 24  1  0
 18 17  2  0
 19 18  1  0
 20 21  1  0
 20 19  1  1
 22 20  1  0
 22 23  1  0
 24 25  2  0
 25 15  1  0
 26 22  2  0
M  END
$$$$
