CPY.pdb
     RDKit          3D

 26 27  0  0  1  0  0  0  0  0999 V2000
    6.0048  -18.8844   20.4204 N   0  0  0  0  0  0  0  0  0  0  0  0
    5.9603  -17.5847   21.0273 C   0  0  1  0  0  0  0  0  0  0  0  0
    5.2228  -17.6607   22.3798 C   0  0  0  0  0  0  0  0  0  0  0  0
    3.4639  -17.8799   21.9644 S   0  0  0  0  0  0  0  0  0  0  0  0
    7.2517  -16.9326   21.2261 C   0  0  0  0  0  0  0  0  0  0  0  0
    8.2050  -17.5622   21.7396 O   0  0  0  0  0  0  0  0  0  0  0  0
    7.4694  -15.5650   20.8451 N   0  0  0  0  0  0  0  0  0  0  0  0
    6.5179  -14.7923   20.1184 C   0  0  0  0  0  0  0  0  0  0  0  0
    7.1943  -13.4998   19.7687 C   0  0  0  0  0  0  0  0  0  0  0  0
    8.2956  -13.3896   20.7987 C   0  0  0  0  0  0  0  0  0  0  0  0
    8.6516  -14.8114   21.1275 C   0  0  1  0  0  0  0  0  0  0  0  0
    8.9787  -14.8135   22.5939 C   0  0  0  0  0  0  0  0  0  0  0  0
    8.8189  -13.7623   23.2407 O   0  0  0  0  0  0  0  0  0  0  0  0
    5.6436  -11.4865   26.5361 O   0  0  0  0  0  0  0  0  0  0  0  0
    6.4404  -12.6089   26.3047 C   0  0  0  0  0  0  0  0  0  0  0  0
    5.9016  -13.7596   25.7659 C   0  0  0  0  0  0  0  0  0  0  0  0
    6.6558  -14.8735   25.5280 C   0  0  0  0  0  0  0  0  0  0  0  0
    8.0252  -14.9013   25.8223 C   0  0  0  0  0  0  0  0  0  0  0  0
    8.8200  -16.1252   25.5672 C   0  0  0  0  0  0  0  0  0  0  0  0
    9.9826  -15.9092   24.6298 C   0  0  2  0  0  0  0  0  0  0  0  0
    9.4585  -15.9636   23.2564 N   0  0  0  0  0  0  0  0  0  0  0  0
   10.9696  -16.9875   24.8420 C   0  0  0  0  0  0  0  0  0  0  0  0
   11.7168  -16.9947   26.0097 O   0  0  0  0  0  0  0  0  0  0  0  0
    8.5516  -13.7455   26.3607 C   0  0  0  0  0  0  0  0  0  0  0  0
    7.7854  -12.6133   26.6024 C   0  0  0  0  0  0  0  0  0  0  0  0
   11.1713  -17.9074   24.0145 O   0  0  0  0  0  0  0  0  0  0  0  0
  2  1  1  1
  2  5  1  0
  3  2  1  0
  4  3  1  0
  5  6  2  0
  7  5  1  0
  7 11  1  0
  8  9  1  0
  8  7  1  0
  9 10  1  0
 10 11  1  0
 11 12  1  1
 12 21  1  0
 13 12  2  0
 15 14  1  0
 16 15  2  0
 17 16  1  0
 18 24  1  0
 18 17  2  0
 19 18  1  0
 20 21  1  0
 20 19  1  1
 22 20  1  0
 22 23  1  0
 24 25  2  0
 25 15  1  0
 26 22  2  0
M  END
$$$$
