CPY.pdb
     RDKit          3D

 26 27  0  0  1  0  0  0  0  0999 V2000
    5.1802  -14.5634   26.6172 N   0  0  0  0  0  0  0  0  0  0  0  0
    6.0912  -13.9163   25.7166 C   0  0  1  0  0  0  0  0  0  0  0  0
    6.9416  -12.8817   26.4819 C   0  0  0  0  0  0  0  0  0  0  0  0
    5.7629  -11.6325   27.0857 S   0  0  0  0  0  0  0  0  0  0  0  0
    6.9794  -14.8012   24.9680 C   0  0  0  0  0  0  0  0  0  0  0  0
    7.4725  -15.8133   25.5171 O   0  0  0  0  0  0  0  0  0  0  0  0
    7.3138  -14.5441   23.5951 N   0  0  0  0  0  0  0  0  0  0  0  0
    6.7358  -13.4889   22.8316 C   0  0  0  0  0  0  0  0  0  0  0  0
    7.2067  -13.6754   21.4195 C   0  0  0  0  0  0  0  0  0  0  0  0
    8.4687  -14.4934   21.5750 C   0  0  0  0  0  0  0  0  0  0  0  0
    8.2448  -15.3038   22.8198 C   0  0  1  0  0  0  0  0  0  0  0  0
    9.5878  -15.3914   23.4876 C   0  0  0  0  0  0  0  0  0  0  0  0
    9.9825  -14.4211   24.1598 O   0  0  0  0  0  0  0  0  0  0  0  0
   10.4167  -14.1436   29.9232 O   0  0  0  0  0  0  0  0  0  0  0  0
   10.6629  -14.9229   28.7916 C   0  0  0  0  0  0  0  0  0  0  0  0
   11.1676  -16.2019   28.9103 C   0  0  0  0  0  0  0  0  0  0  0  0
   11.4186  -16.9885   27.8219 C   0  0  0  0  0  0  0  0  0  0  0  0
   11.1735  -16.5300   26.5209 C   0  0  0  0  0  0  0  0  0  0  0  0
   11.4655  -17.3966   25.3554 C   0  0  0  0  0  0  0  0  0  0  0  0
   11.7012  -16.6329   24.0755 C   0  0  2  0  0  0  0  0  0  0  0  0
   10.4104  -16.5328   23.3769 N   0  0  0  0  0  0  0  0  0  0  0  0
   12.6715  -17.3798   23.2493 C   0  0  0  0  0  0  0  0  0  0  0  0
   14.0217  -17.0896   23.3706 O   0  0  0  0  0  0  0  0  0  0  0  0
   10.6697  -15.2502   26.4157 C   0  0  0  0  0  0  0  0  0  0  0  0
   10.4143  -14.4507   27.5217 C   0  0  0  0  0  0  0  0  0  0  0  0
   12.3374  -18.2724   22.4348 O   0  0  0  0  0  0  0  0  0  0  0  0
  2  1  1  1
  2  5  1  0
  3  2  1  0
  4  3  1  0
  5  6  2  0
  7  5  1  0
  7 11  1  0
  8  9  1  0
  8  7  1  0
  9 10  1  0
 10 11  1  0
 11 12  1  1
 12 21  1  0
 13 12  2  0
 15 14  1  0
 16 15  2  0
 17 16  1  0
 18 24  1  0
 18 17  2  0
 19 18  1  0
 20 21  1  0
 20 19  1  1
 22 20  1  0
 22 23  1  0
 24 25  2  0
 25 15  1  0
 26 22  2  0
M  END
$$$$
