CPY.pdb
     RDKit          3D

 26 27  0  0  1  0  0  0  0  0999 V2000
    8.5257  -12.3952   18.5369 N   0  0  0  0  0  0  0  0  0  0  0  0
    8.8841  -13.7366   18.9002 C   0  0  1  0  0  0  0  0  0  0  0  0
   10.3741  -13.9856   18.5888 C   0  0  0  0  0  0  0  0  0  0  0  0
   10.6756  -15.7304   19.0123 S   0  0  0  0  0  0  0  0  0  0  0  0
    8.6194  -14.1108   20.2867 C   0  0  0  0  0  0  0  0  0  0  0  0
    9.1495  -13.4731   21.2255 O   0  0  0  0  0  0  0  0  0  0  0  0
    7.7540  -15.2085   20.6165 N   0  0  0  0  0  0  0  0  0  0  0  0
    7.1637  -16.0625   19.6405 C   0  0  0  0  0  0  0  0  0  0  0  0
    6.2013  -16.9492   20.3740 C   0  0  0  0  0  0  0  0  0  0  0  0
    6.7155  -16.9256   21.7957 C   0  0  0  0  0  0  0  0  0  0  0  0
    7.3655  -15.5793   21.9420 C   0  0  1  0  0  0  0  0  0  0  0  0
    8.5558  -15.8038   22.8309 C   0  0  0  0  0  0  0  0  0  0  0  0
    9.5877  -16.2892   22.3324 O   0  0  0  0  0  0  0  0  0  0  0  0
    5.0050  -11.6780   26.8228 O   0  0  0  0  0  0  0  0  0  0  0  0
    6.1657  -12.4357   26.6585 C   0  0  0  0  0  0  0  0  0  0  0  0
    7.3028  -11.8773   26.1109 C   0  0  0  0  0  0  0  0  0  0  0  0
    8.4535  -12.5931   25.9378 C   0  0  0  0  0  0  0  0  0  0  0  0
    8.5349  -13.9408   26.3113 C   0  0  0  0  0  0  0  0  0  0  0  0
    9.7897  -14.7000   26.1022 C   0  0  0  0  0  0  0  0  0  0  0  0
    9.6625  -15.8169   25.0955 C   0  0  2  0  0  0  0  0  0  0  0  0
    8.5399  -15.4832   24.2053 N   0  0  0  0  0  0  0  0  0  0  0  0
    9.3847  -17.0759   25.8165 C   0  0  0  0  0  0  0  0  0  0  0  0
   10.4102  -17.6878   26.5206 O   0  0  0  0  0  0  0  0  0  0  0  0
    7.3919  -14.4873   26.8569 C   0  0  0  0  0  0  0  0  0  0  0  0
    6.2225  -13.7600   27.0331 C   0  0  0  0  0  0  0  0  0  0  0  0
    8.2592  -17.6281   25.8269 O   0  0  0  0  0  0  0  0  0  0  0  0
  2  1  1  1
  2  5  1  0
  3  2  1  0
  4  3  1  0
  5  6  2  0
  7  5  1  0
  7 11  1  0
  8  9  1  0
  8  7  1  0
  9 10  1  0
 10 11  1  0
 11 12  1  1
 12 21  1  0
 13 12  2  0
 15 14  1  0
 16 15  2  0
 17 16  1  0
 18 24  1  0
 18 17  2  0
 19 18  1  0
 20 21  1  0
 20 19  1  1
 22 20  1  0
 22 23  1  0
 24 25  2  0
 25 15  1  0
 26 22  2  0
M  END
$$$$
