CPY.pdb
     RDKit          3D

 26 27  0  0  1  0  0  0  0  0999 V2000
    7.4129  -12.7736   18.5355 N   0  0  0  0  0  0  0  0  0  0  0  0
    8.2582  -13.8662   18.9247 C   0  0  1  0  0  0  0  0  0  0  0  0
    9.7356  -13.4240   18.8973 C   0  0  0  0  0  0  0  0  0  0  0  0
   10.6937  -14.8944   19.3814 S   0  0  0  0  0  0  0  0  0  0  0  0
    7.9649  -14.4636   20.2245 C   0  0  0  0  0  0  0  0  0  0  0  0
    7.9018  -13.7466   21.2496 O   0  0  0  0  0  0  0  0  0  0  0  0
    7.7425  -15.8751   20.3697 N   0  0  0  0  0  0  0  0  0  0  0  0
    7.6922  -16.7784   19.2689 C   0  0  0  0  0  0  0  0  0  0  0  0
    7.2646  -18.1051   19.8236 C   0  0  0  0  0  0  0  0  0  0  0  0
    7.6409  -18.0126   21.2850 C   0  0  0  0  0  0  0  0  0  0  0  0
    7.5340  -16.5506   21.6128 C   0  0  1  0  0  0  0  0  0  0  0  0
    8.6419  -16.2773   22.5901 C   0  0  0  0  0  0  0  0  0  0  0  0
    9.7585  -15.9508   22.1477 O   0  0  0  0  0  0  0  0  0  0  0  0
    4.9658  -12.3011   27.2715 O   0  0  0  0  0  0  0  0  0  0  0  0
    6.1352  -12.8589   26.7519 C   0  0  0  0  0  0  0  0  0  0  0  0
    6.1000  -14.0443   26.0461 C   0  0  0  0  0  0  0  0  0  0  0  0
    7.2271  -14.6145   25.5256 C   0  0  0  0  0  0  0  0  0  0  0  0
    8.4844  -14.0175   25.6851 C   0  0  0  0  0  0  0  0  0  0  0  0
    9.6943  -14.6610   25.1224 C   0  0  0  0  0  0  0  0  0  0  0  0
    9.5570  -16.1521   24.9354 C   0  0  2  0  0  0  0  0  0  0  0  0
    8.4568  -16.3786   23.9856 N   0  0  0  0  0  0  0  0  0  0  0  0
    9.2386  -16.7665   26.2404 C   0  0  0  0  0  0  0  0  0  0  0  0
    8.0249  -17.4173   26.3989 O   0  0  0  0  0  0  0  0  0  0  0  0
    8.5063  -12.8335   26.3926 C   0  0  0  0  0  0  0  0  0  0  0  0
    7.3610  -12.2538   26.9214 C   0  0  0  0  0  0  0  0  0  0  0  0
   10.0148  -16.7313   27.2244 O   0  0  0  0  0  0  0  0  0  0  0  0
  2  1  1  1
  2  5  1  0
  3  2  1  0
  4  3  1  0
  5  6  2  0
  7  5  1  0
  7 11  1  0
  8  9  1  0
  8  7  1  0
  9 10  1  0
 10 11  1  0
 11 12  1  1
 12 21  1  0
 13 12  2  0
 15 14  1  0
 16 15  2  0
 17 16  1  0
 18 24  1  0
 18 17  2  0
 19 18  1  0
 20 21  1  0
 20 19  1  1
 22 20  1  0
 22 23  1  0
 24 25  2  0
 25 15  1  0
 26 22  2  0
M  END
$$$$
