CPY.pdb
     RDKit          3D

 26 27  0  0  1  0  0  0  0  0999 V2000
    6.8656  -13.2576   17.9909 N   0  0  0  0  0  0  0  0  0  0  0  0
    7.9866  -14.1046   18.2838 C   0  0  1  0  0  0  0  0  0  0  0  0
    9.2825  -13.2689   18.3183 C   0  0  0  0  0  0  0  0  0  0  0  0
    9.5223  -12.6705   16.6157 S   0  0  0  0  0  0  0  0  0  0  0  0
    7.8896  -14.8823   19.5159 C   0  0  0  0  0  0  0  0  0  0  0  0
    7.4241  -14.3624   20.5561 O   0  0  0  0  0  0  0  0  0  0  0  0
    8.3195  -16.2514   19.5762 N   0  0  0  0  0  0  0  0  0  0  0  0
    8.8014  -16.9725   18.4457 C   0  0  0  0  0  0  0  0  0  0  0  0
    8.9682  -18.3968   18.8863 C   0  0  0  0  0  0  0  0  0  0  0  0
    9.1055  -18.2862   20.3880 C   0  0  0  0  0  0  0  0  0  0  0  0
    8.3116  -17.0642   20.7528 C   0  0  1  0  0  0  0  0  0  0  0  0
    9.0645  -16.4199   21.8821 C   0  0  0  0  0  0  0  0  0  0  0  0
   10.1374  -15.8422   21.6289 O   0  0  0  0  0  0  0  0  0  0  0  0
   11.0091  -14.1288   30.3336 O   0  0  0  0  0  0  0  0  0  0  0  0
   10.3870  -14.5487   29.1567 C   0  0  0  0  0  0  0  0  0  0  0  0
    9.8388  -13.6333   28.2814 C   0  0  0  0  0  0  0  0  0  0  0  0
    9.2240  -14.0136   27.1222 C   0  0  0  0  0  0  0  0  0  0  0  0
    9.1197  -15.3637   26.7632 C   0  0  0  0  0  0  0  0  0  0  0  0
    8.4374  -15.7526   25.5071 C   0  0  0  0  0  0  0  0  0  0  0  0
    9.3654  -15.8664   24.3227 C   0  0  2  0  0  0  0  0  0  0  0  0
    8.5956  -16.4494   23.2129 N   0  0  0  0  0  0  0  0  0  0  0  0
   10.4898  -16.7535   24.6846 C   0  0  0  0  0  0  0  0  0  0  0  0
   10.3160  -18.1264   24.6032 O   0  0  0  0  0  0  0  0  0  0  0  0
    9.6711  -16.2686   27.6463 C   0  0  0  0  0  0  0  0  0  0  0  0
   10.2961  -15.8824   28.8243 C   0  0  0  0  0  0  0  0  0  0  0  0
   11.6057  -16.3281   25.0660 O   0  0  0  0  0  0  0  0  0  0  0  0
  2  1  1  1
  2  5  1  0
  3  2  1  0
  4  3  1  0
  5  6  2  0
  7  5  1  0
  7 11  1  0
  8  9  1  0
  8  7  1  0
  9 10  1  0
 10 11  1  0
 11 12  1  1
 12 21  1  0
 13 12  2  0
 15 14  1  0
 16 15  2  0
 17 16  1  0
 18 24  1  0
 18 17  2  0
 19 18  1  0
 20 21  1  0
 20 19  1  1
 22 20  1  0
 22 23  1  0
 24 25  2  0
 25 15  1  0
 26 22  2  0
M  END
$$$$
