EPK.pdb
     RDKit          3D

 26 26  0  0  1  0  0  0  0  0999 V2000
   25.1297  -20.6444  -17.4879 N   0  0  0  0  0  0  0  0  0  0  0  0
   24.9375  -20.0253  -16.2230 C   0  0  1  0  0  0  0  0  0  0  0  0
   24.2585  -18.6853  -16.4702 C   0  0  0  0  0  0  0  0  0  0  0  0
   25.3357  -17.6446  -16.5567 C   0  0  0  0  0  0  0  0  0  0  0  0
   25.8015  -17.4129  -17.9370 C   0  0  0  0  0  0  0  0  0  0  0  0
   24.9361  -17.3220  -18.8426 O   0  0  0  0  0  0  0  0  0  0  0  0
   24.2617  -20.8147  -15.1971 C   0  0  0  0  0  0  0  0  0  0  0  0
   23.3143  -21.5665  -15.6276 O   0  0  0  0  0  0  0  0  0  0  0  0
   27.1335  -17.2892  -18.2983 O   0  0  0  0  0  0  0  0  0  0  0  0
   24.5314  -20.8403  -13.8134 N   0  0  0  0  0  0  0  0  0  0  0  0
   25.5051  -20.1643  -12.9911 C   0  0  0  0  0  0  0  0  0  0  0  0
   26.0845  -21.3552  -12.2108 C   0  0  0  0  0  0  0  0  0  0  0  0
   24.8096  -22.0634  -11.8074 C   0  0  0  0  0  0  0  0  0  0  0  0
   23.7861  -21.6525  -12.8465 C   0  0  1  0  0  0  0  0  0  0  0  0
   22.6985  -20.8523  -12.2230 C   0  0  0  0  0  0  0  0  0  0  0  0
   22.8319  -19.6238  -12.1552 O   0  0  0  0  0  0  0  0  0  0  0  0
   21.5179  -21.4298  -11.7034 N   0  0  0  0  0  0  0  0  0  0  0  0
   20.1909  -20.9878  -11.9850 C   0  0  1  0  0  0  0  0  0  0  0  0
   19.9307  -20.6666  -13.4239 C   0  0  0  0  0  0  0  0  0  0  0  0
   18.5383  -20.1367  -13.6627 C   0  0  0  0  0  0  0  0  0  0  0  0
   18.3325  -19.8528  -15.1338 C   0  0  0  0  0  0  0  0  0  0  0  0
   17.0097  -19.2057  -15.4263 C   0  0  0  0  0  0  0  0  0  0  0  0
   17.0183  -18.8327  -16.8490 N   0  0  0  0  0  0  0  0  0  0  0  0
   19.1604  -21.9876  -11.5628 C   0  0  0  0  0  0  0  0  0  0  0  0
   19.3265  -23.1918  -11.8623 O   0  0  0  0  0  0  0  0  0  0  0  0
   18.0266  -21.6553  -10.8558 O   0  0  0  0  0  0  0  0  0  0  0  0
  2  1  1  6
  2  7  1  0
  3  2  1  0
  4  3  1  0
  5  4  1  0
  6  5  2  0
  7 10  1  0
  8  7  2  0
  9  5  1  0
 10 11  1  0
 10 14  1  0
 11 12  1  0
 12 13  1  0
 14 13  1  0
 15 16  2  0
 14 15  1  1
 17 15  1  0
 18 17  1  0
 18 19  1  6
 20 19  1  0
 21 20  1  0
 22 21  1  0
 23 22  1  0
 24 18  1  0
 25 24  2  0
 26 24  1  0
M  END
$$$$
