EPK.pdb
     RDKit          3D

 26 26  0  0  1  0  0  0  0  0999 V2000
   16.3818  -20.1533    2.8671 N   0  0  0  0  0  0  0  0  0  0  0  0
   17.4370  -19.5174    3.5760 C   0  0  1  0  0  0  0  0  0  0  0  0
   16.9155  -18.1707    4.0578 C   0  0  0  0  0  0  0  0  0  0  0  0
   15.6908  -18.4323    4.8841 C   0  0  0  0  0  0  0  0  0  0  0  0
   15.1761  -17.2199    5.5483 C   0  0  0  0  0  0  0  0  0  0  0  0
   13.9857  -17.2284    5.9482 O   0  0  0  0  0  0  0  0  0  0  0  0
   18.0733  -20.2856    4.6425 C   0  0  0  0  0  0  0  0  0  0  0  0
   17.5806  -21.4551    4.8367 O   0  0  0  0  0  0  0  0  0  0  0  0
   15.9228  -16.0718    5.7593 O   0  0  0  0  0  0  0  0  0  0  0  0
   19.1482  -19.8904    5.4649 N   0  0  0  0  0  0  0  0  0  0  0  0
   19.8934  -18.6607    5.5818 C   0  0  0  0  0  0  0  0  0  0  0  0
   21.3312  -19.1984    5.5011 C   0  0  0  0  0  0  0  0  0  0  0  0
   21.2409  -20.3640    6.4617 C   0  0  0  0  0  0  0  0  0  0  0  0
   19.7774  -20.7570    6.4665 C   0  0  1  0  0  0  0  0  0  0  0  0
   19.1768  -20.5247    7.8072 C   0  0  0  0  0  0  0  0  0  0  0  0
   18.7773  -19.3875    8.0877 O   0  0  0  0  0  0  0  0  0  0  0  0
   19.0406  -21.5433    8.7773 N   0  0  0  0  0  0  0  0  0  0  0  0
   18.4747  -21.3743   10.0761 C   0  0  1  0  0  0  0  0  0  0  0  0
   18.0131  -22.6410   10.7269 C   0  0  0  0  0  0  0  0  0  0  0  0
   17.0501  -23.4230    9.8679 C   0  0  0  0  0  0  0  0  0  0  0  0
   17.4123  -24.8913    9.8808 C   0  0  0  0  0  0  0  0  0  0  0  0
   16.5467  -25.7163    8.9731 C   0  0  0  0  0  0  0  0  0  0  0  0
   16.9502  -27.1194    9.1517 N   0  0  0  0  0  0  0  0  0  0  0  0
   19.4238  -20.7115   11.0246 C   0  0  0  0  0  0  0  0  0  0  0  0
   20.6373  -20.6500   10.7229 O   0  0  0  0  0  0  0  0  0  0  0  0
   19.0347  -20.1590   12.2242 O   0  0  0  0  0  0  0  0  0  0  0  0
  2  1  1  1
  2  7  1  0
  3  2  1  0
  4  3  1  0
  5  4  1  0
  6  5  2  0
  7 10  1  0
  8  7  2  0
  9  5  1  0
 10 11  1  0
 10 14  1  0
 11 12  1  0
 12 13  1  0
 14 13  1  0
 15 16  2  0
 14 15  1  1
 17 15  1  0
 18 17  1  0
 18 19  1  1
 20 19  1  0
 21 20  1  0
 22 21  1  0
 23 22  1  0
 24 18  1  0
 25 24  2  0
 26 24  1  0
M  END
$$$$
