EPK.pdb
     RDKit          3D

 26 26  0  0  1  0  0  0  0  0999 V2000
   19.2080  -10.6435  -16.2283 N   0  0  0  0  0  0  0  0  0  0  0  0
   19.4094   -9.3145  -15.7661 C   0  0  1  0  0  0  0  0  0  0  0  0
   18.4674   -8.4118  -16.5506 C   0  0  0  0  0  0  0  0  0  0  0  0
   18.8725   -8.4846  -17.9934 C   0  0  0  0  0  0  0  0  0  0  0  0
   18.1028   -7.5659  -18.8534 C   0  0  0  0  0  0  0  0  0  0  0  0
   17.4899   -8.0535  -19.8351 O   0  0  0  0  0  0  0  0  0  0  0  0
   19.3233   -9.0963  -14.3248 C   0  0  0  0  0  0  0  0  0  0  0  0
   18.7577  -10.0419  -13.6658 O   0  0  0  0  0  0  0  0  0  0  0  0
   18.0128   -6.1986  -18.6469 O   0  0  0  0  0  0  0  0  0  0  0  0
   19.7846   -7.9825  -13.5934 N   0  0  0  0  0  0  0  0  0  0  0  0
   20.3504   -6.7156  -13.9884 C   0  0  0  0  0  0  0  0  0  0  0  0
   21.6035   -6.6817  -13.0989 C   0  0  0  0  0  0  0  0  0  0  0  0
   21.0075   -7.0976  -11.7717 C   0  0  0  0  0  0  0  0  0  0  0  0
   19.7725   -7.8995  -12.1295 C   0  0  1  0  0  0  0  0  0  0  0  0
   18.5435   -7.2076  -11.6574 C   0  0  0  0  0  0  0  0  0  0  0  0
   18.0966   -6.2700  -12.3302 O   0  0  0  0  0  0  0  0  0  0  0  0
   17.8610   -7.5711  -10.4745 N   0  0  0  0  0  0  0  0  0  0  0  0
   16.5973   -7.0544  -10.0599 C   0  0  1  0  0  0  0  0  0  0  0  0
   15.5910   -8.0948   -9.6777 C   0  0  0  0  0  0  0  0  0  0  0  0
   14.2529   -7.5056   -9.3048 C   0  0  0  0  0  0  0  0  0  0  0  0
   13.2792   -8.6059   -8.9464 C   0  0  0  0  0  0  0  0  0  0  0  0
   11.9323   -8.0855   -8.5355 C   0  0  0  0  0  0  0  0  0  0  0  0
   11.1373   -9.2443   -8.1012 N   0  0  0  0  0  0  0  0  0  0  0  0
   16.7230   -6.1155   -8.9012 C   0  0  0  0  0  0  0  0  0  0  0  0
   17.6250   -6.3140   -8.0560 O   0  0  0  0  0  0  0  0  0  0  0  0
   15.8939   -5.0333   -8.7089 O   0  0  0  0  0  0  0  0  0  0  0  0
  2  1  1  1
  2  7  1  0
  3  2  1  0
  4  3  1  0
  5  4  1  0
  6  5  2  0
  7 10  1  0
  8  7  2  0
  9  5  1  0
 10 11  1  0
 10 14  1  0
 11 12  1  0
 12 13  1  0
 14 13  1  0
 15 16  2  0
 14 15  1  6
 17 15  1  0
 18 17  1  0
 18 19  1  1
 20 19  1  0
 21 20  1  0
 22 21  1  0
 23 22  1  0
 24 18  1  0
 25 24  2  0
 26 24  1  0
M  END
$$$$
