EPK.pdb
     RDKit          3D

 26 26  0  0  1  0  0  0  0  0999 V2000
   24.1034  -25.1889  -19.0587 N   0  0  0  0  0  0  0  0  0  0  0  0
   24.8732  -25.7016  -17.9794 C   0  0  1  0  0  0  0  0  0  0  0  0
   23.9033  -26.3174  -16.9804 C   0  0  0  0  0  0  0  0  0  0  0  0
   23.1476  -25.1930  -16.3357 C   0  0  0  0  0  0  0  0  0  0  0  0
   22.1867  -25.6562  -15.3169 C   0  0  0  0  0  0  0  0  0  0  0  0
   22.5565  -25.6578  -14.1168 O   0  0  0  0  0  0  0  0  0  0  0  0
   25.9721  -26.6008  -18.3202 C   0  0  0  0  0  0  0  0  0  0  0  0
   25.8115  -27.2661  -19.4065 O   0  0  0  0  0  0  0  0  0  0  0  0
   20.9013  -26.0899  -15.5999 O   0  0  0  0  0  0  0  0  0  0  0  0
   27.1658  -26.8132  -17.6006 N   0  0  0  0  0  0  0  0  0  0  0  0
   27.6692  -26.2826  -16.3571 C   0  0  0  0  0  0  0  0  0  0  0  0
   29.0733  -25.8350  -16.7943 C   0  0  0  0  0  0  0  0  0  0  0  0
   29.5191  -27.0548  -17.5708 C   0  0  0  0  0  0  0  0  0  0  0  0
   28.2368  -27.7156  -18.0350 C   0  0  1  0  0  0  0  0  0  0  0  0
   28.0785  -29.0532  -17.4044 C   0  0  0  0  0  0  0  0  0  0  0  0
   27.8324  -29.1110  -16.1930 O   0  0  0  0  0  0  0  0  0  0  0  0
   28.1963  -30.2633  -18.1248 N   0  0  0  0  0  0  0  0  0  0  0  0
   28.0239  -31.5692  -17.5765 C   0  0  1  0  0  0  0  0  0  0  0  0
   27.1627  -32.4818  -18.3930 C   0  0  0  0  0  0  0  0  0  0  0  0
   27.0271  -33.8567  -17.7863 C   0  0  0  0  0  0  0  0  0  0  0  0
   26.1444  -34.7258  -18.6539 C   0  0  0  0  0  0  0  0  0  0  0  0
   25.9209  -36.0939  -18.0774 C   0  0  0  0  0  0  0  0  0  0  0  0
   24.9714  -36.7844  -18.9635 N   0  0  0  0  0  0  0  0  0  0  0  0
   29.3292  -32.2692  -17.3619 C   0  0  0  0  0  0  0  0  0  0  0  0
   29.3500  -33.3141  -16.6727 O   0  0  0  0  0  0  0  0  0  0  0  0
   30.5227  -31.8247  -17.8851 O   0  0  0  0  0  0  0  0  0  0  0  0
  2  1  1  6
  2  7  1  0
  3  2  1  0
  4  3  1  0
  5  4  1  0
  6  5  2  0
  7 10  1  0
  8  7  2  0
  9  5  1  0
 10 11  1  0
 10 14  1  0
 11 12  1  0
 12 13  1  0
 14 13  1  0
 15 16  2  0
 14 15  1  1
 17 15  1  0
 18 17  1  0
 18 19  1  6
 20 19  1  0
 21 20  1  0
 22 21  1  0
 23 22  1  0
 24 18  1  0
 25 24  2  0
 26 24  1  0
M  END
$$$$
