EPK.pdb
     RDKit          3D

 26 26  0  0  1  0  0  0  0  0999 V2000
   28.0846  -21.0265  -15.6785 N   0  0  0  0  0  0  0  0  0  0  0  0
   27.6276  -20.4904  -14.4439 C   0  0  1  0  0  0  0  0  0  0  0  0
   27.4671  -18.9881  -14.6313 C   0  0  0  0  0  0  0  0  0  0  0  0
   26.6856  -18.7734  -15.8939 C   0  0  0  0  0  0  0  0  0  0  0  0
   27.5309  -18.3581  -17.0292 C   0  0  0  0  0  0  0  0  0  0  0  0
   27.0447  -18.4363  -18.1845 O   0  0  0  0  0  0  0  0  0  0  0  0
   26.4457  -21.1104  -13.8516 C   0  0  0  0  0  0  0  0  0  0  0  0
   25.9247  -22.0571  -14.5450 O   0  0  0  0  0  0  0  0  0  0  0  0
   28.8279  -17.8870  -16.9021 O   0  0  0  0  0  0  0  0  0  0  0  0
   25.8273  -20.7889  -12.6260 N   0  0  0  0  0  0  0  0  0  0  0  0
   26.0881  -19.7770  -11.6314 C   0  0  0  0  0  0  0  0  0  0  0  0
   26.1145  -20.6386  -10.3587 C   0  0  0  0  0  0  0  0  0  0  0  0
   24.8756  -21.4804  -10.5733 C   0  0  0  0  0  0  0  0  0  0  0  0
   24.6739  -21.5073  -12.0749 C   0  0  1  0  0  0  0  0  0  0  0  0
   23.4074  -20.8214  -12.4460 C   0  0  0  0  0  0  0  0  0  0  0  0
   23.3899  -19.5843  -12.4716 O   0  0  0  0  0  0  0  0  0  0  0  0
   22.2211  -21.5173  -12.7711 N   0  0  0  0  0  0  0  0  0  0  0  0
   21.0167  -20.9167  -13.2450 C   0  0  1  0  0  0  0  0  0  0  0  0
   20.1087  -21.8423  -13.9933 C   0  0  0  0  0  0  0  0  0  0  0  0
   18.9171  -21.1359  -14.5916 C   0  0  0  0  0  0  0  0  0  0  0  0
   17.9443  -22.1438  -15.1616 C   0  0  0  0  0  0  0  0  0  0  0  0
   16.7272  -21.5062  -15.7667 C   0  0  0  0  0  0  0  0  0  0  0  0
   15.8213  -22.5959  -16.1609 N   0  0  0  0  0  0  0  0  0  0  0  0
   20.2134  -20.3105  -12.1372 C   0  0  0  0  0  0  0  0  0  0  0  0
   20.2754  -20.8200  -10.9953 O   0  0  0  0  0  0  0  0  0  0  0  0
   19.4004  -19.2119  -12.3038 O   0  0  0  0  0  0  0  0  0  0  0  0
  2  1  1  6
  2  7  1  0
  3  2  1  0
  4  3  1  0
  5  4  1  0
  6  5  2  0
  7 10  1  0
  8  7  2  0
  9  5  1  0
 10 11  1  0
 10 14  1  0
 11 12  1  0
 12 13  1  0
 14 13  1  0
 15 16  2  0
 14 15  1  1
 17 15  1  0
 18 17  1  0
 18 19  1  1
 20 19  1  0
 21 20  1  0
 22 21  1  0
 23 22  1  0
 24 18  1  0
 25 24  2  0
 26 24  1  0
M  END
$$$$
