EPK.pdb
     RDKit          3D

 26 26  0  0  1  0  0  0  0  0999 V2000
   27.5916  -20.5337  -17.5877 N   0  0  0  0  0  0  0  0  0  0  0  0
   27.3479  -19.9902  -16.2971 C   0  0  1  0  0  0  0  0  0  0  0  0
   26.9714  -18.5268  -16.4828 C   0  0  0  0  0  0  0  0  0  0  0  0
   26.8098  -18.2874  -17.9551 C   0  0  0  0  0  0  0  0  0  0  0  0
   27.0639  -16.8865  -18.3407 C   0  0  0  0  0  0  0  0  0  0  0  0
   27.7092  -16.1639  -17.5416 O   0  0  0  0  0  0  0  0  0  0  0  0
   26.4032  -20.7079  -15.4457 C   0  0  0  0  0  0  0  0  0  0  0  0
   25.6285  -21.5243  -16.0633 O   0  0  0  0  0  0  0  0  0  0  0  0
   26.6357  -16.3167  -19.5291 O   0  0  0  0  0  0  0  0  0  0  0  0
   26.2529  -20.6036  -14.0477 N   0  0  0  0  0  0  0  0  0  0  0  0
   26.9172  -19.8052  -13.0464 C   0  0  0  0  0  0  0  0  0  0  0  0
   27.2795  -20.8911  -12.0206 C   0  0  0  0  0  0  0  0  0  0  0  0
   25.9665  -21.6390  -11.9398 C   0  0  0  0  0  0  0  0  0  0  0  0
   25.2826  -21.3769  -13.2663 C   0  0  1  0  0  0  0  0  0  0  0  0
   24.0334  -20.5949  -13.0664 C   0  0  0  0  0  0  0  0  0  0  0  0
   24.1222  -19.3742  -12.8834 O   0  0  0  0  0  0  0  0  0  0  0  0
   22.7476  -21.1813  -13.0755 N   0  0  0  0  0  0  0  0  0  0  0  0
   21.5144  -20.4645  -13.0420 C   0  0  1  0  0  0  0  0  0  0  0  0
   20.7760  -20.4289  -14.3437 C   0  0  0  0  0  0  0  0  0  0  0  0
   19.4965  -19.6325  -14.2692 C   0  0  0  0  0  0  0  0  0  0  0  0
   18.7992  -19.6374  -15.6112 C   0  0  0  0  0  0  0  0  0  0  0  0
   17.5730  -18.7715  -15.6375 C   0  0  0  0  0  0  0  0  0  0  0  0
   16.9171  -18.9935  -16.9352 N   0  0  0  0  0  0  0  0  0  0  0  0
   20.5718  -21.0088  -12.0148 C   0  0  0  0  0  0  0  0  0  0  0  0
   19.6198  -20.2941  -11.6272 O   0  0  0  0  0  0  0  0  0  0  0  0
   20.6929  -22.2653  -11.4649 O   0  0  0  0  0  0  0  0  0  0  0  0
  2  1  1  6
  2  7  1  0
  3  2  1  0
  4  3  1  0
  5  4  1  0
  6  5  2  0
  7 10  1  0
  8  7  2  0
  9  5  1  0
 10 11  1  0
 10 14  1  0
 11 12  1  0
 12 13  1  0
 14 13  1  0
 15 16  2  0
 14 15  1  1
 17 15  1  0
 18 17  1  0
 18 19  1  6
 20 19  1  0
 21 20  1  0
 22 21  1  0
 23 22  1  0
 24 18  1  0
 25 24  2  0
 26 24  1  0
M  END
$$$$
