EPK.pdb
     RDKit          3D

 26 26  0  0  1  0  0  0  0  0999 V2000
   22.4143  -19.4595  -16.5797 N   0  0  0  0  0  0  0  0  0  0  0  0
   23.4725  -19.5836  -15.6388 C   0  0  1  0  0  0  0  0  0  0  0  0
   23.0892  -20.6896  -14.6654 C   0  0  0  0  0  0  0  0  0  0  0  0
   22.0943  -20.1147  -13.7007 C   0  0  0  0  0  0  0  0  0  0  0  0
   20.6968  -20.3905  -14.0839 C   0  0  0  0  0  0  0  0  0  0  0  0
   20.4926  -21.2010  -15.0212 O   0  0  0  0  0  0  0  0  0  0  0  0
   24.8190  -19.7536  -16.1777 C   0  0  0  0  0  0  0  0  0  0  0  0
   24.8694  -20.0890  -17.4159 O   0  0  0  0  0  0  0  0  0  0  0  0
   19.5944  -19.8119  -13.4753 O   0  0  0  0  0  0  0  0  0  0  0  0
   26.0446  -19.5925  -15.4994 N   0  0  0  0  0  0  0  0  0  0  0  0
   26.3747  -19.2324  -14.1420 C   0  0  0  0  0  0  0  0  0  0  0  0
   27.3997  -18.1146  -14.3926 C   0  0  0  0  0  0  0  0  0  0  0  0
   28.2612  -18.7669  -15.4518 C   0  0  0  0  0  0  0  0  0  0  0  0
   27.3586  -19.7830  -16.1218 C   0  0  1  0  0  0  0  0  0  0  0  0
   27.8540  -21.1643  -15.8798 C   0  0  0  0  0  0  0  0  0  0  0  0
   27.4108  -21.7903  -14.9086 O   0  0  0  0  0  0  0  0  0  0  0  0
   28.8088  -21.7965  -16.7080 N   0  0  0  0  0  0  0  0  0  0  0  0
   28.7647  -23.1605  -17.1243 C   0  0  1  0  0  0  0  0  0  0  0  0
   27.4704  -23.5830  -17.7466 C   0  0  0  0  0  0  0  0  0  0  0  0
   27.3667  -23.1960  -19.2014 C   0  0  0  0  0  0  0  0  0  0  0  0
   25.9869  -23.5175  -19.7304 C   0  0  0  0  0  0  0  0  0  0  0  0
   25.7787  -23.0552  -21.1435 C   0  0  0  0  0  0  0  0  0  0  0  0
   24.3963  -23.3991  -21.5096 N   0  0  0  0  0  0  0  0  0  0  0  0
   29.8513  -23.4893  -18.0995 C   0  0  0  0  0  0  0  0  0  0  0  0
   30.1549  -24.6895  -18.2860 O   0  0  0  0  0  0  0  0  0  0  0  0
   30.5446  -22.5366  -18.8118 O   0  0  0  0  0  0  0  0  0  0  0  0
  2  1  1  6
  2  7  1  0
  3  2  1  0
  4  3  1  0
  5  4  1  0
  6  5  2  0
  7 10  1  0
  8  7  2  0
  9  5  1  0
 10 11  1  0
 10 14  1  0
 11 12  1  0
 12 13  1  0
 14 13  1  0
 15 16  2  0
 14 15  1  1
 17 15  1  0
 18 17  1  0
 18 19  1  6
 20 19  1  0
 21 20  1  0
 22 21  1  0
 23 22  1  0
 24 18  1  0
 25 24  2  0
 26 24  1  0
M  END
$$$$
