EPK.pdb
     RDKit          3D

 26 26  0  0  1  0  0  0  0  0999 V2000
   23.3456  -21.1570  -20.4239 N   0  0  0  0  0  0  0  0  0  0  0  0
   24.2823  -20.3670  -19.7036 C   0  0  1  0  0  0  0  0  0  0  0  0
   23.6996  -18.9656  -19.5840 C   0  0  0  0  0  0  0  0  0  0  0  0
   24.1117  -18.2013  -20.8075 C   0  0  0  0  0  0  0  0  0  0  0  0
   23.0486  -17.3141  -21.3160 C   0  0  0  0  0  0  0  0  0  0  0  0
   23.2302  -16.0739  -21.2389 O   0  0  0  0  0  0  0  0  0  0  0  0
   24.7429  -20.8934  -18.4218 C   0  0  0  0  0  0  0  0  0  0  0  0
   23.8509  -21.5141  -17.7382 O   0  0  0  0  0  0  0  0  0  0  0  0
   21.8618  -17.7622  -21.8737 O   0  0  0  0  0  0  0  0  0  0  0  0
   26.0346  -20.7959  -17.8649 N   0  0  0  0  0  0  0  0  0  0  0  0
   27.2653  -20.2108  -18.3383 C   0  0  0  0  0  0  0  0  0  0  0  0
   28.2353  -21.3810  -18.1092 C   0  0  0  0  0  0  0  0  0  0  0  0
   27.8417  -21.7912  -16.7069 C   0  0  0  0  0  0  0  0  0  0  0  0
   26.4054  -21.3337  -16.5521 C   0  0  1  0  0  0  0  0  0  0  0  0
   26.3009  -20.2788  -15.5089 C   0  0  0  0  0  0  0  0  0  0  0  0
   26.7723  -19.1601  -15.7491 O   0  0  0  0  0  0  0  0  0  0  0  0
   25.6878  -20.4945  -14.2539 N   0  0  0  0  0  0  0  0  0  0  0  0
   26.3025  -20.2680  -12.9864 C   0  0  1  0  0  0  0  0  0  0  0  0
   26.0315  -21.3255  -11.9620 C   0  0  0  0  0  0  0  0  0  0  0  0
   26.5807  -20.9758  -10.6007 C   0  0  0  0  0  0  0  0  0  0  0  0
   25.5071  -21.1355   -9.5475 C   0  0  0  0  0  0  0  0  0  0  0  0
   25.9804  -20.7753   -8.1690 C   0  0  0  0  0  0  0  0  0  0  0  0
   24.8442  -20.9780   -7.2572 N   0  0  0  0  0  0  0  0  0  0  0  0
   27.7888  -20.1299  -13.0954 C   0  0  0  0  0  0  0  0  0  0  0  0
   28.4605  -21.1089  -13.4924 O   0  0  0  0  0  0  0  0  0  0  0  0
   28.4679  -18.9744  -12.7803 O   0  0  0  0  0  0  0  0  0  0  0  0
  2  1  1  1
  2  7  1  0
  3  2  1  0
  4  3  1  0
  5  4  1  0
  6  5  2  0
  7 10  1  0
  8  7  2  0
  9  5  1  0
 10 11  1  0
 10 14  1  0
 11 12  1  0
 12 13  1  0
 14 13  1  0
 15 16  2  0
 14 15  1  1
 17 15  1  0
 18 17  1  0
 18 19  1  1
 20 19  1  0
 21 20  1  0
 22 21  1  0
 23 22  1  0
 24 18  1  0
 25 24  2  0
 26 24  1  0
M  END
$$$$
