NRC.pdb
     RDKit          3D

 26 25  0  0  1  0  0  0  0  0999 V2000
   15.6356  -14.8274  -16.5261 N   0  0  0  0  0  0  0  0  0  0  0  0
   15.9702  -14.0870  -15.3615 C   0  0  0  0  0  0  0  0  0  0  0  0
   15.1983  -14.1854  -14.3551 O   0  0  0  0  0  0  0  0  0  0  0  0
   17.1741  -13.2267  -15.3106 C   0  0  0  0  0  0  0  0  0  0  0  0
   17.9097  -13.1577  -16.6140 C   0  0  2  0  0  0  0  0  0  0  0  0
   18.6786  -14.4006  -16.7345 N   0  0  0  0  0  0  0  0  0  0  0  0
   18.8960  -12.0300  -16.5115 C   0  0  0  0  0  0  0  0  0  0  0  0
   19.9030  -12.1811  -15.7805 O   0  0  0  0  0  0  0  0  0  0  0  0
   21.5755  -10.5649  -21.5196 N   0  0  0  0  0  0  0  0  0  0  0  0
   20.3918  -10.6264  -22.2953 C   0  0  0  0  0  0  0  0  0  0  0  0
   20.2413  -11.4489  -23.2806 N   0  0  0  0  0  0  0  0  0  0  0  0
   19.3304   -9.7562  -21.9816 N   0  0  0  0  0  0  0  0  0  0  0  0
   19.5191   -8.7274  -20.9723 C   0  0  0  0  0  0  0  0  0  0  0  0
   19.1487   -9.1758  -19.6245 C   0  0  0  0  0  0  0  0  0  0  0  0
   20.0911   -9.2948  -18.5254 C   0  0  0  0  0  0  0  0  0  0  0  0
   19.7179   -9.7128  -17.1740 C   0  0  2  0  0  0  0  0  0  0  0  0
   18.7311  -10.8095  -17.2067 N   0  0  0  0  0  0  0  0  0  0  0  0
   19.3283   -8.7248  -16.1662 C   0  0  0  0  0  0  0  0  0  0  0  0
   18.2482   -8.1683  -16.0581 O   0  0  0  0  0  0  0  0  0  0  0  0
   19.3694  -11.3664  -23.8403 N   0  0  0  0  0  0  0  0  0  0  0  0
   20.2929   -8.3118  -15.1435 C   0  0  1  0  0  0  0  0  0  0  0  0
   19.9846   -7.3653  -14.1214 C   0  0  0  0  0  0  0  0  0  0  0  0
   20.6990   -7.6499  -12.8162 S   0  0  0  0  0  0  0  0  0  0  0  0
   19.8966   -9.1461  -12.1184 C   0  0  0  0  0  0  0  0  0  0  0  0
   20.3652   -6.0181  -14.5760 O   0  0  0  0  0  0  0  0  0  0  0  0
   20.0755   -5.0219  -13.8982 O   0  0  0  0  0  0  0  0  0  0  0  0
  2  1  1  0
  2  3  2  0
  4  5  1  0
  4  2  1  0
  5  7  1  0
  5  6  1  1
  7  8  2  0
  9 10  1  0
 10 11  2  0
 12 13  1  0
 12 10  1  0
 13 14  1  0
 15 14  1  0
 16 18  1  0
 16 15  1  6
 17  7  1  0
 17 16  1  0
 18 19  2  0
 20 21  1  0
 20 18  1  0
 22 23  1  0
 21 22  1  6
 24 21  1  0
 24 26  1  0
 25 24  2  0
M  END
$$$$
