NRC.pdb
     RDKit          3D

 26 25  0  0  1  0  0  0  0  0999 V2000
   30.1989  -24.1700  -18.2787 N   0  0  0  0  0  0  0  0  0  0  0  0
   30.3549  -23.7893  -16.9196 C   0  0  0  0  0  0  0  0  0  0  0  0
   31.3128  -24.3105  -16.2647 O   0  0  0  0  0  0  0  0  0  0  0  0
   29.4386  -22.8196  -16.2775 C   0  0  0  0  0  0  0  0  0  0  0  0
   28.3927  -22.2856  -17.2079 C   0  0  2  0  0  0  0  0  0  0  0  0
   29.0614  -21.3274  -18.0941 N   0  0  0  0  0  0  0  0  0  0  0  0
   27.4075  -21.5144  -16.3776 C   0  0  0  0  0  0  0  0  0  0  0  0
   27.8361  -20.5943  -15.6423 O   0  0  0  0  0  0  0  0  0  0  0  0
   19.4595  -19.2516  -14.9514 N   0  0  0  0  0  0  0  0  0  0  0  0
   19.9072  -18.2508  -15.8484 C   0  0  0  0  0  0  0  0  0  0  0  0
   19.4260  -17.0516  -15.8574 N   0  0  0  0  0  0  0  0  0  0  0  0
   20.9210  -18.5723  -16.7708 N   0  0  0  0  0  0  0  0  0  0  0  0
   21.4246  -19.9341  -16.8394 C   0  0  0  0  0  0  0  0  0  0  0  0
   22.6140  -20.1451  -16.0053 C   0  0  0  0  0  0  0  0  0  0  0  0
   23.8735  -20.6630  -16.5110 C   0  0  0  0  0  0  0  0  0  0  0  0
   25.0218  -20.9836  -15.6630 C   0  0  2  0  0  0  0  0  0  0  0  0
   26.0198  -21.7869  -16.3951 N   0  0  0  0  0  0  0  0  0  0  0  0
   24.8293  -21.5351  -14.3204 C   0  0  0  0  0  0  0  0  0  0  0  0
   24.3043  -22.5965  -14.0275 O   0  0  0  0  0  0  0  0  0  0  0  0
   19.7855  -16.4001  -16.5831 N   0  0  0  0  0  0  0  0  0  0  0  0
   25.2942  -20.7819  -13.1527 C   0  0  2  0  0  0  0  0  0  0  0  0
   25.0002  -21.1685  -11.8111 C   0  0  0  0  0  0  0  0  0  0  0  0
   25.8684  -20.4644  -10.7886 S   0  0  0  0  0  0  0  0  0  0  0  0
   25.3771  -21.1452   -9.1562 C   0  0  0  0  0  0  0  0  0  0  0  0
   23.5913  -20.8622  -11.5151 O   0  0  0  0  0  0  0  0  0  0  0  0
   23.0100  -21.4267  -10.5775 O   0  0  0  0  0  0  0  0  0  0  0  0
  2  1  1  0
  2  3  2  0
  4  5  1  0
  4  2  1  0
  5  7  1  0
  5  6  1  6
  7  8  2  0
  9 10  1  0
 10 11  2  0
 12 13  1  0
 12 10  1  0
 13 14  1  0
 15 14  1  0
 16 18  1  0
 16 15  1  6
 17  7  1  0
 17 16  1  0
 18 19  2  0
 20 21  1  0
 20 18  1  0
 22 23  1  0
 21 22  1  1
 24 21  1  0
 24 26  1  0
 25 24  2  0
M  END
$$$$
