CMF.pdb
     RDKit          3D

 26 26  0  0  1  0  0  0  0  0999 V2000
   18.7288  -12.3032  -15.6286 N   0  0  0  0  0  0  0  0  0  0  0  0
   18.2210  -11.0008  -15.9100 C   0  0  1  0  0  0  0  0  0  0  0  0
   17.6739  -10.4244  -14.5989 C   0  0  0  0  0  0  0  0  0  0  0  0
   16.1115  -11.1649  -14.1319 S   0  0  0  0  0  0  0  0  0  0  0  0
   19.2240  -10.0545  -16.4138 C   0  0  0  0  0  0  0  0  0  0  0  0
   20.3043   -9.9102  -15.7886 O   0  0  0  0  0  0  0  0  0  0  0  0
   22.7733   -9.6116  -21.1784 C   0  0  0  0  0  0  0  0  0  0  0  0
   21.3406   -8.6215  -21.6089 S   0  0  0  0  0  0  0  0  0  0  0  0
   20.8608   -7.4832  -20.2707 C   0  0  0  0  0  0  0  0  0  0  0  0
   19.6966   -8.0364  -19.4842 C   0  0  0  0  0  0  0  0  0  0  0  0
   19.9994   -8.2886  -18.0537 C   0  0  2  0  0  0  0  0  0  0  0  0
   19.0282   -9.2878  -17.5858 N   0  0  0  0  0  0  0  0  0  0  0  0
   20.0192   -7.1168  -17.1740 C   0  0  0  0  0  0  0  0  0  0  0  0
   18.9930   -6.6805  -16.5959 O   0  0  0  0  0  0  0  0  0  0  0  0
   21.2193   -6.3722  -16.9034 N   0  0  0  0  0  0  0  0  0  0  0  0
   21.1634   -5.1253  -16.1724 C   0  0  1  0  0  0  0  0  0  0  0  0
   22.3223   -5.0379  -15.2182 C   0  0  0  0  0  0  0  0  0  0  0  0
   22.5670   -3.6835  -14.7053 C   0  0  0  0  0  0  0  0  0  0  0  0
   21.8652   -3.1893  -13.6135 C   0  0  0  0  0  0  0  0  0  0  0  0
   22.0939   -1.9185  -13.1191 C   0  0  0  0  0  0  0  0  0  0  0  0
   23.0317   -1.0922  -13.6953 C   0  0  0  0  0  0  0  0  0  0  0  0
   23.7348   -1.5670  -14.7768 C   0  0  0  0  0  0  0  0  0  0  0  0
   23.5023   -2.8432  -15.2700 C   0  0  0  0  0  0  0  0  0  0  0  0
   21.1266   -4.0398  -17.1755 C   0  0  0  0  0  0  0  0  0  0  0  0
   21.6840   -4.2302  -18.2785 O   0  0  0  0  0  0  0  0  0  0  0  0
   20.5062   -2.8275  -16.9510 O   0  0  0  0  0  0  0  0  0  0  0  0
  2  3  1  0
  2  5  1  0
  2  1  1  1
  4  3  1  0
  5  6  2  0
  7  8  1  0
  8  9  1  0
  9 10  1  0
 11 10  1  6
 11 13  1  0
 12 11  1  0
 12  5  1  0
 13 14  2  0
 15 16  1  0
 15 13  1  0
 16 24  1  0
 16 17  1  1
 18 19  2  0
 18 17  1  0
 20 19  1  0
 21 20  2  0
 22 21  1  0
 22 23  2  0
 23 18  1  0
 24 25  2  0
 24 26  1  0
M  END
$$$$
