CMF.pdb
     RDKit          3D

 26 26  0  0  1  0  0  0  0  0999 V2000
   22.7660  -15.0472  -15.3681 N   0  0  0  0  0  0  0  0  0  0  0  0
   22.7368  -13.9868  -16.3210 C   0  0  1  0  0  0  0  0  0  0  0  0
   21.3685  -14.0230  -17.0115 C   0  0  0  0  0  0  0  0  0  0  0  0
   21.0655  -15.5839  -17.8358 S   0  0  0  0  0  0  0  0  0  0  0  0
   22.8944  -12.6468  -15.7423 C   0  0  0  0  0  0  0  0  0  0  0  0
   22.2922  -12.3604  -14.6775 O   0  0  0  0  0  0  0  0  0  0  0  0
   28.7798  -11.2617  -17.0223 C   0  0  0  0  0  0  0  0  0  0  0  0
   27.9553   -9.9663  -16.0947 S   0  0  0  0  0  0  0  0  0  0  0  0
   26.3470  -10.5075  -15.4336 C   0  0  0  0  0  0  0  0  0  0  0  0
   25.2101   -9.8292  -16.1597 C   0  0  0  0  0  0  0  0  0  0  0  0
   23.8648  -10.3087  -15.7572 C   0  0  2  0  0  0  0  0  0  0  0  0
   23.7035  -11.6502  -16.3356 N   0  0  0  0  0  0  0  0  0  0  0  0
   22.7332   -9.4437  -16.1021 C   0  0  0  0  0  0  0  0  0  0  0  0
   22.2656   -9.3636  -17.2650 O   0  0  0  0  0  0  0  0  0  0  0  0
   22.0678   -8.6162  -15.1324 N   0  0  0  0  0  0  0  0  0  0  0  0
   20.8967   -7.8498  -15.4978 C   0  0  1  0  0  0  0  0  0  0  0  0
   19.6741   -8.4435  -14.8545 C   0  0  0  0  0  0  0  0  0  0  0  0
   19.1592   -9.6330  -15.5452 C   0  0  0  0  0  0  0  0  0  0  0  0
   19.1657  -10.8800  -14.9337 C   0  0  0  0  0  0  0  0  0  0  0  0
   18.6764  -12.0040  -15.5731 C   0  0  0  0  0  0  0  0  0  0  0  0
   18.1618  -11.9267  -16.8472 C   0  0  0  0  0  0  0  0  0  0  0  0
   18.1483  -10.6993  -17.4660 C   0  0  0  0  0  0  0  0  0  0  0  0
   18.6403   -9.5735  -16.8207 C   0  0  0  0  0  0  0  0  0  0  0  0
   21.1611   -6.4482  -15.1085 C   0  0  0  0  0  0  0  0  0  0  0  0
   22.2589   -6.1761  -14.5753 O   0  0  0  0  0  0  0  0  0  0  0  0
   20.2533   -5.4276  -15.3061 O   0  0  0  0  0  0  0  0  0  0  0  0
  2  3  1  0
  2  5  1  0
  2  1  1  1
  4  3  1  0
  5  6  2  0
  7  8  1  0
  8  9  1  0
  9 10  1  0
 11 10  1  6
 11 13  1  0
 12 11  1  0
 12  5  1  0
 13 14  2  0
 15 16  1  0
 15 13  1  0
 16 24  1  0
 16 17  1  1
 18 19  2  0
 18 17  1  0
 20 19  1  0
 21 20  2  0
 22 21  1  0
 22 23  2  0
 23 18  1  0
 24 25  2  0
 24 26  1  0
M  END
$$$$
