CMF.pdb
     RDKit          3D

 26 26  0  0  1  0  0  0  0  0999 V2000
   29.5384  -21.5694  -17.9693 N   0  0  0  0  0  0  0  0  0  0  0  0
   28.6783  -22.2311  -17.0442 C   0  0  1  0  0  0  0  0  0  0  0  0
   29.3038  -23.5939  -16.7245 C   0  0  0  0  0  0  0  0  0  0  0  0
   28.9017  -24.8306  -17.9559 S   0  0  0  0  0  0  0  0  0  0  0  0
   28.5019  -21.5258  -15.7687 C   0  0  0  0  0  0  0  0  0  0  0  0
   29.5015  -21.3157  -15.0370 O   0  0  0  0  0  0  0  0  0  0  0  0
   25.5150  -16.2712  -15.6168 C   0  0  0  0  0  0  0  0  0  0  0  0
   27.2984  -16.4534  -15.6856 S   0  0  0  0  0  0  0  0  0  0  0  0
   27.8419  -18.1182  -15.1858 C   0  0  0  0  0  0  0  0  0  0  0  0
   26.7076  -18.8879  -14.5527 C   0  0  0  0  0  0  0  0  0  0  0  0
   27.0795  -20.2531  -14.1057 C   0  0  2  0  0  0  0  0  0  0  0  0
   27.2424  -21.0657  -15.3196 N   0  0  0  0  0  0  0  0  0  0  0  0
   26.1711  -20.8986  -13.1541 C   0  0  0  0  0  0  0  0  0  0  0  0
   25.2374  -21.6591  -13.5110 O   0  0  0  0  0  0  0  0  0  0  0  0
   26.2782  -20.7108  -11.7325 N   0  0  0  0  0  0  0  0  0  0  0  0
   25.3001  -21.2892  -10.8374 C   0  0  1  0  0  0  0  0  0  0  0  0
   25.9948  -22.0206   -9.7222 C   0  0  0  0  0  0  0  0  0  0  0  0
   26.7961  -21.1507   -8.8514 C   0  0  0  0  0  0  0  0  0  0  0  0
   28.1518  -21.3798   -8.6555 C   0  0  0  0  0  0  0  0  0  0  0  0
   28.9158  -20.5621   -7.8435 C   0  0  0  0  0  0  0  0  0  0  0  0
   28.3562  -19.4843   -7.1960 C   0  0  0  0  0  0  0  0  0  0  0  0
   27.0152  -19.2441   -7.3798 C   0  0  0  0  0  0  0  0  0  0  0  0
   26.2520  -20.0673   -8.1957 C   0  0  0  0  0  0  0  0  0  0  0  0
   24.4281  -20.1856  -10.3818 C   0  0  0  0  0  0  0  0  0  0  0  0
   24.7673  -19.0116  -10.6469 O   0  0  0  0  0  0  0  0  0  0  0  0
   23.2587  -20.3910   -9.6782 O   0  0  0  0  0  0  0  0  0  0  0  0
  2  3  1  0
  2  5  1  0
  2  1  1  6
  4  3  1  0
  5  6  2  0
  7  8  1  0
  8  9  1  0
  9 10  1  0
 11 10  1  6
 11 13  1  0
 12 11  1  0
 12  5  1  0
 13 14  2  0
 15 16  1  0
 15 13  1  0
 16 24  1  0
 16 17  1  1
 18 19  2  0
 18 17  1  0
 20 19  1  0
 21 20  2  0
 22 21  1  0
 22 23  2  0
 23 18  1  0
 24 25  2  0
 24 26  1  0
M  END
$$$$
