CMF.pdb
     RDKit          3D

 26 26  0  0  1  0  0  0  0  0999 V2000
   20.7318  -15.5680  -18.4044 N   0  0  0  0  0  0  0  0  0  0  0  0
   20.4068  -14.6761  -17.3404 C   0  0  1  0  0  0  0  0  0  0  0  0
   21.2702  -15.0616  -16.1336 C   0  0  0  0  0  0  0  0  0  0  0  0
   23.0217  -14.9773  -16.4978 S   0  0  0  0  0  0  0  0  0  0  0  0
   20.6752  -13.2622  -17.6308 C   0  0  0  0  0  0  0  0  0  0  0  0
   21.5305  -12.9632  -18.5012 O   0  0  0  0  0  0  0  0  0  0  0  0
   16.3940   -8.1407  -17.7341 C   0  0  0  0  0  0  0  0  0  0  0  0
   17.5249   -8.3125  -19.1162 S   0  0  0  0  0  0  0  0  0  0  0  0
   19.1579   -8.9308  -18.5990 C   0  0  0  0  0  0  0  0  0  0  0  0
   19.0632  -10.3543  -18.1044 C   0  0  0  0  0  0  0  0  0  0  0  0
   20.2294  -10.7925  -17.2983 C   0  0  2  0  0  0  0  0  0  0  0  0
   20.0069  -12.2072  -16.9674 N   0  0  0  0  0  0  0  0  0  0  0  0
   20.5245  -10.0075  -16.0966 C   0  0  0  0  0  0  0  0  0  0  0  0
   19.8951  -10.1476  -15.0188 O   0  0  0  0  0  0  0  0  0  0  0  0
   21.5613   -9.0118  -16.0578 N   0  0  0  0  0  0  0  0  0  0  0  0
   21.7171   -8.1555  -14.9025 C   0  0  1  0  0  0  0  0  0  0  0  0
   22.7488   -8.7317  -13.9725 C   0  0  0  0  0  0  0  0  0  0  0  0
   23.9987   -9.1182  -14.6400 C   0  0  0  0  0  0  0  0  0  0  0  0
   24.6497  -10.3024  -14.3195 C   0  0  0  0  0  0  0  0  0  0  0  0
   25.8227  -10.6782  -14.9476 C   0  0  0  0  0  0  0  0  0  0  0  0
   26.3910   -9.8866  -15.9196 C   0  0  0  0  0  0  0  0  0  0  0  0
   25.7585   -8.7112  -16.2481 C   0  0  0  0  0  0  0  0  0  0  0  0
   24.5812   -8.3377  -15.6153 C   0  0  0  0  0  0  0  0  0  0  0  0
   22.0495   -6.8066  -15.4084 C   0  0  0  0  0  0  0  0  0  0  0  0
   22.2566   -6.6654  -16.6335 O   0  0  0  0  0  0  0  0  0  0  0  0
   22.1415   -5.6975  -14.5921 O   0  0  0  0  0  0  0  0  0  0  0  0
  2  3  1  0
  2  5  1  0
  2  1  1  6
  4  3  1  0
  5  6  2  0
  7  8  1  0
  8  9  1  0
  9 10  1  0
 11 10  1  1
 11 13  1  0
 12 11  1  0
 12  5  1  0
 13 14  2  0
 15 16  1  0
 15 13  1  0
 16 24  1  0
 16 17  1  1
 18 19  2  0
 18 17  1  0
 20 19  1  0
 21 20  2  0
 22 21  1  0
 22 23  2  0
 23 18  1  0
 24 25  2  0
 24 26  1  0
M  END
$$$$
