CMF.pdb
     RDKit          3D

 26 26  0  0  1  0  0  0  0  0999 V2000
   28.0051  -20.8920  -14.5074 N   0  0  0  0  0  0  0  0  0  0  0  0
   27.5982  -19.9400  -13.5269 C   0  0  1  0  0  0  0  0  0  0  0  0
   26.5750  -19.0068  -14.1849 C   0  0  0  0  0  0  0  0  0  0  0  0
   27.3454  -17.8264  -15.2898 S   0  0  0  0  0  0  0  0  0  0  0  0
   26.9533  -20.5247  -12.3447 C   0  0  0  0  0  0  0  0  0  0  0  0
   26.2316  -21.5446  -12.4772 O   0  0  0  0  0  0  0  0  0  0  0  0
   28.3949  -19.5551   -5.1682 C   0  0  0  0  0  0  0  0  0  0  0  0
   26.8513  -19.3148   -6.0502 S   0  0  0  0  0  0  0  0  0  0  0  0
   26.6079  -20.5513   -7.3651 C   0  0  0  0  0  0  0  0  0  0  0  0
   27.1669  -20.0585   -8.6783 C   0  0  0  0  0  0  0  0  0  0  0  0
   26.4232  -20.5381   -9.8693 C   0  0  2  0  0  0  0  0  0  0  0  0
   27.1089  -19.9862  -11.0464 N   0  0  0  0  0  0  0  0  0  0  0  0
   24.9882  -20.2431   -9.9056 C   0  0  0  0  0  0  0  0  0  0  0  0
   24.5171  -19.2133  -10.4489 O   0  0  0  0  0  0  0  0  0  0  0  0
   24.0042  -21.1126   -9.3195 N   0  0  0  0  0  0  0  0  0  0  0  0
   22.5971  -20.9255   -9.5975 C   0  0  1  0  0  0  0  0  0  0  0  0
   22.2372  -21.5956  -10.8947 C   0  0  0  0  0  0  0  0  0  0  0  0
   21.9225  -20.6568  -11.9796 C   0  0  0  0  0  0  0  0  0  0  0  0
   20.8261  -19.8078  -11.9018 C   0  0  0  0  0  0  0  0  0  0  0  0
   20.5262  -18.9157  -12.9146 C   0  0  0  0  0  0  0  0  0  0  0  0
   21.3089  -18.8366  -14.0439 C   0  0  0  0  0  0  0  0  0  0  0  0
   22.3979  -19.6704  -14.1358 C   0  0  0  0  0  0  0  0  0  0  0  0
   22.6955  -20.5643  -13.1169 C   0  0  0  0  0  0  0  0  0  0  0  0
   21.8550  -21.4416   -8.4275 C   0  0  0  0  0  0  0  0  0  0  0  0
   22.4848  -22.0873   -7.5615 O   0  0  0  0  0  0  0  0  0  0  0  0
   20.5010  -21.2439   -8.2473 O   0  0  0  0  0  0  0  0  0  0  0  0
  2  3  1  0
  2  5  1  0
  2  1  1  6
  4  3  1  0
  5  6  2  0
  7  8  1  0
  8  9  1  0
  9 10  1  0
 11 10  1  1
 11 13  1  0
 12 11  1  0
 12  5  1  0
 13 14  2  0
 15 16  1  0
 15 13  1  0
 16 24  1  0
 16 17  1  6
 18 19  2  0
 18 17  1  0
 20 19  1  0
 21 20  2  0
 22 21  1  0
 22 23  2  0
 23 18  1  0
 24 25  2  0
 24 26  1  0
M  END
$$$$
