CMF.pdb
     RDKit          3D

 26 26  0  0  1  0  0  0  0  0999 V2000
   31.2330  -21.3621  -20.4731 N   0  0  0  0  0  0  0  0  0  0  0  0
   31.4568  -22.0850  -19.2646 C   0  0  1  0  0  0  0  0  0  0  0  0
   30.0872  -22.4913  -18.7083 C   0  0  0  0  0  0  0  0  0  0  0  0
   29.1820  -21.0946  -18.0471 S   0  0  0  0  0  0  0  0  0  0  0  0
   32.2394  -23.3161  -19.4303 C   0  0  0  0  0  0  0  0  0  0  0  0
   31.9932  -24.0774  -20.3991 O   0  0  0  0  0  0  0  0  0  0  0  0
   37.9021  -23.3155  -16.7989 C   0  0  0  0  0  0  0  0  0  0  0  0
   37.9959  -23.8079  -18.5214 S   0  0  0  0  0  0  0  0  0  0  0  0
   36.3535  -24.1410  -19.2344 C   0  0  0  0  0  0  0  0  0  0  0  0
   35.4039  -24.6595  -18.1811 C   0  0  0  0  0  0  0  0  0  0  0  0
   34.0359  -24.9364  -18.6848 C   0  0  2  0  0  0  0  0  0  0  0  0
   33.2711  -23.6898  -18.5383 N   0  0  0  0  0  0  0  0  0  0  0  0
   33.3307  -26.0655  -18.0722 C   0  0  0  0  0  0  0  0  0  0  0  0
   32.4548  -25.9216  -17.1837 O   0  0  0  0  0  0  0  0  0  0  0  0
   33.5879  -27.4312  -18.4419 N   0  0  0  0  0  0  0  0  0  0  0  0
   32.9208  -28.5174  -17.7582 C   0  0  1  0  0  0  0  0  0  0  0  0
   31.4992  -28.6278  -18.2357 C   0  0  0  0  0  0  0  0  0  0  0  0
   30.7929  -29.8106  -17.7264 C   0  0  0  0  0  0  0  0  0  0  0  0
   30.0361  -29.7521  -16.5634 C   0  0  0  0  0  0  0  0  0  0  0  0
   29.3619  -30.8584  -16.0804 C   0  0  0  0  0  0  0  0  0  0  0  0
   29.4171  -32.0653  -16.7394 C   0  0  0  0  0  0  0  0  0  0  0  0
   30.1621  -32.1394  -17.8922 C   0  0  0  0  0  0  0  0  0  0  0  0
   30.8373  -31.0267  -18.3738 C   0  0  0  0  0  0  0  0  0  0  0  0
   33.7296  -29.7331  -17.9901 C   0  0  0  0  0  0  0  0  0  0  0  0
   33.5405  -30.7233  -17.2502 O   0  0  0  0  0  0  0  0  0  0  0  0
   34.6825  -29.8254  -18.9842 O   0  0  0  0  0  0  0  0  0  0  0  0
  2  3  1  0
  2  5  1  0
  2  1  1  6
  4  3  1  0
  5  6  2  0
  7  8  1  0
  8  9  1  0
  9 10  1  0
 11 10  1  1
 11 13  1  0
 12 11  1  0
 12  5  1  0
 13 14  2  0
 15 16  1  0
 15 13  1  0
 16 24  1  0
 16 17  1  6
 18 19  2  0
 18 17  1  0
 20 19  1  0
 21 20  2  0
 22 21  1  0
 22 23  2  0
 23 18  1  0
 24 25  2  0
 24 26  1  0
M  END
$$$$
