CMF.pdb
     RDKit          3D

 26 26  0  0  1  0  0  0  0  0999 V2000
   28.5981  -21.9875  -16.4360 N   0  0  0  0  0  0  0  0  0  0  0  0
   28.0421  -20.8739  -15.7403 C   0  0  1  0  0  0  0  0  0  0  0  0
   27.3461  -19.9825  -16.7754 C   0  0  0  0  0  0  0  0  0  0  0  0
   26.6473  -18.5068  -16.0396 S   0  0  0  0  0  0  0  0  0  0  0  0
   27.0379  -21.2297  -14.7302 C   0  0  0  0  0  0  0  0  0  0  0  0
   26.2164  -22.1485  -14.9745 O   0  0  0  0  0  0  0  0  0  0  0  0
   25.0753  -20.2309   -7.0748 C   0  0  0  0  0  0  0  0  0  0  0  0
   26.1948  -20.0229   -8.4611 S   0  0  0  0  0  0  0  0  0  0  0  0
   25.4985  -20.6716  -10.0139 C   0  0  0  0  0  0  0  0  0  0  0  0
   26.4446  -20.4388  -11.1673 C   0  0  0  0  0  0  0  0  0  0  0  0
   25.9308  -20.9147  -12.4755 C   0  0  2  0  0  0  0  0  0  0  0  0
   26.9511  -20.5777  -13.4783 N   0  0  0  0  0  0  0  0  0  0  0  0
   24.6105  -20.4215  -12.8769 C   0  0  0  0  0  0  0  0  0  0  0  0
   24.4032  -19.2325  -13.2245 O   0  0  0  0  0  0  0  0  0  0  0  0
   23.4451  -21.2636  -12.9039 N   0  0  0  0  0  0  0  0  0  0  0  0
   22.1437  -20.7105  -13.2087 C   0  0  1  0  0  0  0  0  0  0  0  0
   21.6378  -21.2755  -14.5071 C   0  0  0  0  0  0  0  0  0  0  0  0
   22.0579  -20.5122  -15.6895 C   0  0  0  0  0  0  0  0  0  0  0  0
   21.4634  -19.2992  -16.0121 C   0  0  0  0  0  0  0  0  0  0  0  0
   21.8572  -18.5701  -17.1189 C   0  0  0  0  0  0  0  0  0  0  0  0
   22.8593  -19.0235  -17.9462 C   0  0  0  0  0  0  0  0  0  0  0  0
   23.4576  -20.2227  -17.6403 C   0  0  0  0  0  0  0  0  0  0  0  0
   23.0595  -20.9514  -16.5283 C   0  0  0  0  0  0  0  0  0  0  0  0
   21.2727  -20.9953  -12.0484 C   0  0  0  0  0  0  0  0  0  0  0  0
   20.0984  -20.5660  -12.0669 O   0  0  0  0  0  0  0  0  0  0  0  0
   21.6954  -21.7121  -10.9474 O   0  0  0  0  0  0  0  0  0  0  0  0
  2  3  1  0
  2  5  1  0
  2  1  1  6
  4  3  1  0
  5  6  2  0
  7  8  1  0
  8  9  1  0
  9 10  1  0
 11 10  1  1
 11 13  1  0
 12 11  1  0
 12  5  1  0
 13 14  2  0
 15 16  1  0
 15 13  1  0
 16 24  1  0
 16 17  1  6
 18 19  2  0
 18 17  1  0
 20 19  1  0
 21 20  2  0
 22 21  1  0
 22 23  2  0
 23 18  1  0
 24 25  2  0
 24 26  1  0
M  END
$$$$
