ILH.pdb
     RDKit          3D

 27 27  0  0  1  0  0  0  0  0999 V2000
   28.6380  -16.6652  -16.6097 C   0  0  0  0  0  0  0  0  0  0  0  0
   27.1767  -16.9926  -16.6407 C   0  0  0  0  0  0  0  0  0  0  0  0
   26.8563  -18.2841  -15.9206 C   0  0  2  0  0  0  0  0  0  0  0  0
   27.6633  -19.4019  -16.5158 C   0  0  0  0  0  0  0  0  0  0  0  0
   25.3845  -18.6180  -16.0197 C   0  0  2  0  0  0  0  0  0  0  0  0
   24.6056  -17.5280  -15.4667 N   0  0  0  0  0  0  0  0  0  0  0  0
   25.0827  -19.8919  -15.2749 C   0  0  0  0  0  0  0  0  0  0  0  0
   25.4643  -21.0038  -15.7333 O   0  0  0  0  0  0  0  0  0  0  0  0
   25.6035  -20.1595  -10.0102 C   0  0  0  0  0  0  0  0  0  0  0  0
   25.5938  -20.4601  -11.5128 C   0  0  1  0  0  0  0  0  0  0  0  0
   26.6179  -21.5910  -11.7028 C   0  0  0  0  0  0  0  0  0  0  0  0
   24.2322  -20.9290  -11.8773 C   0  0  0  0  0  0  0  0  0  0  0  0
   23.9856  -21.1048  -13.3371 C   0  0  2  0  0  0  0  0  0  0  0  0
   24.3688  -19.8795  -14.0499 N   0  0  0  0  0  0  0  0  0  0  0  0
   22.5875  -21.4828  -13.6722 C   0  0  0  0  0  0  0  0  0  0  0  0
   22.0707  -22.4997  -13.1463 O   0  0  0  0  0  0  0  0  0  0  0  0
   21.7882  -20.7357  -14.5771 N   0  0  0  0  0  0  0  0  0  0  0  0
   20.4608  -21.1822  -14.8978 C   0  0  1  0  0  0  0  0  0  0  0  0
   19.4281  -20.1113  -14.7296 C   0  0  0  0  0  0  0  0  0  0  0  0
   19.2343  -19.6633  -13.3328 C   0  0  0  0  0  0  0  0  0  0  0  0
   19.6597  -20.2390  -12.1478 C   0  0  0  0  0  0  0  0  0  0  0  0
   19.2263  -19.4718  -11.1395 N   0  0  0  0  0  0  0  0  0  0  0  0
   18.5428  -18.4320  -11.6284 C   0  0  0  0  0  0  0  0  0  0  0  0
   18.5489  -18.5489  -12.9453 N   0  0  0  0  0  0  0  0  0  0  0  0
   20.3952  -21.7904  -16.2605 C   0  0  0  0  0  0  0  0  0  0  0  0
   21.4806  -21.7410  -16.9387 O   0  0  0  0  0  0  0  0  0  0  0  0
   19.2685  -22.3737  -16.7867 O   0  0  0  0  0  0  0  0  0  0  0  0
  1  2  1  0
  2  3  1  0
  3  4  1  6
  5  3  1  0
  5  6  1  1
  7  8  2  0
  7  5  1  0
 10  9  1  1
 10 12  1  0
 11 10  1  0
 13 12  1  1
 13 14  1  0
 14  7  1  0
 15 17  1  0
 15 13  1  0
 16 15  2  0
 18 17  1  0
 18 25  1  0
 19 20  1  0
 18 19  1  6
 20 21  2  0
 21 22  1  0
 23 22  1  0
 24 20  1  0
 24 23  2  0
 25 27  1  0
 26 25  2  0
M  END
$$$$
