ILH.pdb
     RDKit          3D

 27 27  0  0  1  0  0  0  0  0999 V2000
   27.8890  -19.7903  -18.5853 C   0  0  0  0  0  0  0  0  0  0  0  0
   27.0567  -18.9809  -17.6388 C   0  0  0  0  0  0  0  0  0  0  0  0
   26.1983  -19.8426  -16.7390 C   0  0  2  0  0  0  0  0  0  0  0  0
   25.3995  -20.7994  -17.5765 C   0  0  0  0  0  0  0  0  0  0  0  0
   25.2597  -19.0005  -15.9038 C   0  0  2  0  0  0  0  0  0  0  0  0
   26.0285  -18.0410  -15.1363 N   0  0  0  0  0  0  0  0  0  0  0  0
   24.4559  -19.8723  -14.9751 C   0  0  0  0  0  0  0  0  0  0  0  0
   23.6418  -20.7171  -15.4394 O   0  0  0  0  0  0  0  0  0  0  0  0
   26.2831  -20.9284   -9.8577 C   0  0  0  0  0  0  0  0  0  0  0  0
   25.7519  -21.0175  -11.2924 C   0  0  1  0  0  0  0  0  0  0  0  0
   25.8113  -22.5115  -11.6507 C   0  0  0  0  0  0  0  0  0  0  0  0
   24.3445  -20.5420  -11.2900 C   0  0  0  0  0  0  0  0  0  0  0  0
   23.6944  -20.4609  -12.6292 C   0  0  2  0  0  0  0  0  0  0  0  0
   24.5889  -19.7707  -13.5672 N   0  0  0  0  0  0  0  0  0  0  0  0
   22.3583  -19.8093  -12.6135 C   0  0  0  0  0  0  0  0  0  0  0  0
   22.2671  -18.5731  -12.4110 O   0  0  0  0  0  0  0  0  0  0  0  0
   21.1526  -20.5299  -12.8206 N   0  0  0  0  0  0  0  0  0  0  0  0
   19.9282  -19.8212  -13.0710 C   0  0  1  0  0  0  0  0  0  0  0  0
   20.0241  -18.8828  -14.2337 C   0  0  0  0  0  0  0  0  0  0  0  0
   18.7612  -18.1852  -14.5618 C   0  0  0  0  0  0  0  0  0  0  0  0
   17.5110  -18.2883  -13.9762 C   0  0  0  0  0  0  0  0  0  0  0  0
   16.6808  -17.4682  -14.6328 N   0  0  0  0  0  0  0  0  0  0  0  0
   17.3456  -16.8462  -15.6119 C   0  0  0  0  0  0  0  0  0  0  0  0
   18.5944  -17.2781  -15.5673 N   0  0  0  0  0  0  0  0  0  0  0  0
   18.7696  -20.7523  -13.2190 C   0  0  0  0  0  0  0  0  0  0  0  0
   18.9853  -21.7900  -13.9382 O   0  0  0  0  0  0  0  0  0  0  0  0
   17.5416  -20.5470  -12.6390 O   0  0  0  0  0  0  0  0  0  0  0  0
  1  2  1  0
  2  3  1  0
  3  4  1  6
  5  3  1  0
  5  6  1  1
  7  8  2  0
  7  5  1  0
 10  9  1  1
 10 12  1  0
 11 10  1  0
 13 12  1  1
 13 14  1  0
 14  7  1  0
 15 17  1  0
 15 13  1  0
 16 15  2  0
 18 17  1  0
 18 25  1  0
 19 20  1  0
 18 19  1  6
 20 21  2  0
 21 22  1  0
 23 22  1  0
 24 20  1  0
 24 23  2  0
 25 27  1  0
 26 25  2  0
M  END
$$$$
