ILH.pdb
     RDKit          3D

 27 27  0  0  1  0  0  0  0  0999 V2000
   13.8918  -11.1820  -19.1652 C   0  0  0  0  0  0  0  0  0  0  0  0
   14.8564  -11.9399  -18.3058 C   0  0  0  0  0  0  0  0  0  0  0  0
   15.7790  -11.0284  -17.5267 C   0  0  2  0  0  0  0  0  0  0  0  0
   16.6554  -10.2696  -18.4812 C   0  0  0  0  0  0  0  0  0  0  0  0
   16.6435  -11.8130  -16.5651 C   0  0  2  0  0  0  0  0  0  0  0  0
   15.7968  -12.5376  -15.6385 N   0  0  0  0  0  0  0  0  0  0  0  0
   17.5589  -10.8887  -15.8062 C   0  0  0  0  0  0  0  0  0  0  0  0
   17.1093  -10.1765  -14.8666 O   0  0  0  0  0  0  0  0  0  0  0  0
   21.9437   -9.6713  -13.1479 C   0  0  0  0  0  0  0  0  0  0  0  0
   22.2687   -9.7993  -14.6399 C   0  0  1  0  0  0  0  0  0  0  0  0
   23.6068  -10.5544  -14.6962 C   0  0  0  0  0  0  0  0  0  0  0  0
   21.1939  -10.6039  -15.2755 C   0  0  0  0  0  0  0  0  0  0  0  0
   19.8678   -9.9308  -15.3804 C   0  0  2  0  0  0  0  0  0  0  0  0
   18.9380  -10.7926  -16.1213 N   0  0  0  0  0  0  0  0  0  0  0  0
   19.9237   -8.5791  -15.9967 C   0  0  0  0  0  0  0  0  0  0  0  0
   20.2154   -8.4570  -17.2123 O   0  0  0  0  0  0  0  0  0  0  0  0
   19.6577   -7.3921  -15.2645 N   0  0  0  0  0  0  0  0  0  0  0  0
   19.6406   -6.1232  -15.9381 C   0  0  1  0  0  0  0  0  0  0  0  0
   18.3524   -5.3825  -15.7553 C   0  0  0  0  0  0  0  0  0  0  0  0
   18.3152   -4.0523  -16.4021 C   0  0  0  0  0  0  0  0  0  0  0  0
   18.7452   -2.8232  -15.9319 C   0  0  0  0  0  0  0  0  0  0  0  0
   18.4846   -1.9086  -16.8746 N   0  0  0  0  0  0  0  0  0  0  0  0
   17.9072   -2.4994  -17.9258 C   0  0  0  0  0  0  0  0  0  0  0  0
   17.8065   -3.7864  -17.6399 N   0  0  0  0  0  0  0  0  0  0  0  0
   20.8117   -5.2779  -15.5567 C   0  0  0  0  0  0  0  0  0  0  0  0
   21.3448   -5.5536  -14.4252 O   0  0  0  0  0  0  0  0  0  0  0  0
   21.3141   -4.2660  -16.3378 O   0  0  0  0  0  0  0  0  0  0  0  0
  1  2  1  0
  2  3  1  0
  3  4  1  6
  5  3  1  0
  5  6  1  1
  7  8  2  0
  7  5  1  0
 10  9  1  1
 10 12  1  0
 11 10  1  0
 13 12  1  6
 13 14  1  0
 14  7  1  0
 15 17  1  0
 15 13  1  0
 16 15  2  0
 18 17  1  0
 18 25  1  0
 19 20  1  0
 18 19  1  1
 20 21  2  0
 21 22  1  0
 23 22  1  0
 24 20  1  0
 24 23  2  0
 25 27  1  0
 26 25  2  0
M  END
$$$$
