ILH.pdb
     RDKit          3D

 27 27  0  0  1  0  0  0  0  0999 V2000
   19.6074  -11.4557  -23.4866 C   0  0  0  0  0  0  0  0  0  0  0  0
   20.4385  -12.3163  -22.5854 C   0  0  0  0  0  0  0  0  0  0  0  0
   20.3510  -11.8921  -21.1358 C   0  0  2  0  0  0  0  0  0  0  0  0
   20.8491  -10.4823  -20.9963 C   0  0  0  0  0  0  0  0  0  0  0  0
   21.1661  -12.8040  -20.2461 C   0  0  2  0  0  0  0  0  0  0  0  0
   20.7043  -14.1688  -20.4040 N   0  0  0  0  0  0  0  0  0  0  0  0
   21.0393  -12.3844  -18.8051 C   0  0  0  0  0  0  0  0  0  0  0  0
   19.9736  -12.6085  -18.1677 O   0  0  0  0  0  0  0  0  0  0  0  0
   24.8768  -13.2095  -15.1548 C   0  0  0  0  0  0  0  0  0  0  0  0
   23.4972  -13.0524  -15.8032 C   0  0  1  0  0  0  0  0  0  0  0  0
   22.5044  -13.6265  -14.7793 C   0  0  0  0  0  0  0  0  0  0  0  0
   23.2493  -11.6020  -16.0067 C   0  0  0  0  0  0  0  0  0  0  0  0
   21.9972  -11.2640  -16.7420 C   0  0  2  0  0  0  0  0  0  0  0  0
   22.1020  -11.7327  -18.1296 N   0  0  0  0  0  0  0  0  0  0  0  0
   21.6485   -9.8193  -16.7086 C   0  0  0  0  0  0  0  0  0  0  0  0
   22.3358   -8.9941  -17.3599 O   0  0  0  0  0  0  0  0  0  0  0  0
   20.5526   -9.3132  -15.9609 N   0  0  0  0  0  0  0  0  0  0  0  0
   20.2389   -7.9119  -16.0082 C   0  0  1  0  0  0  0  0  0  0  0  0
   18.7666   -7.6419  -15.9758 C   0  0  0  0  0  0  0  0  0  0  0  0
   18.4066   -6.2084  -16.0440 C   0  0  0  0  0  0  0  0  0  0  0  0
   19.2170   -5.0941  -16.1794 C   0  0  0  0  0  0  0  0  0  0  0  0
   18.4300   -4.0108  -16.1752 N   0  0  0  0  0  0  0  0  0  0  0  0
   17.1531   -4.3841  -16.0429 C   0  0  0  0  0  0  0  0  0  0  0  0
   17.1414   -5.7039  -15.9644 N   0  0  0  0  0  0  0  0  0  0  0  0
   20.9545   -7.1479  -14.9426 C   0  0  0  0  0  0  0  0  0  0  0  0
   20.8345   -5.8742  -15.0031 O   0  0  0  0  0  0  0  0  0  0  0  0
   21.6991   -7.7331  -13.9478 O   0  0  0  0  0  0  0  0  0  0  0  0
  1  2  1  0
  2  3  1  0
  3  4  1  6
  5  3  1  0
  5  6  1  1
  7  8  2  0
  7  5  1  0
 10  9  1  1
 10 12  1  0
 11 10  1  0
 13 12  1  6
 13 14  1  0
 14  7  1  0
 15 17  1  0
 15 13  1  0
 16 15  2  0
 18 17  1  0
 18 25  1  0
 19 20  1  0
 18 19  1  1
 20 21  2  0
 21 22  1  0
 23 22  1  0
 24 20  1  0
 24 23  2  0
 25 27  1  0
 26 25  2  0
M  END
$$$$
