ILH.pdb
     RDKit          3D

 27 27  0  0  1  0  0  0  0  0999 V2000
   20.0883  -13.8407  -16.1911 C   0  0  0  0  0  0  0  0  0  0  0  0
   18.8778  -13.0320  -16.5439 C   0  0  0  0  0  0  0  0  0  0  0  0
   19.1854  -11.5570  -16.6807 C   0  0  2  0  0  0  0  0  0  0  0  0
   19.8479  -11.0658  -15.4258 C   0  0  0  0  0  0  0  0  0  0  0  0
   17.9284  -10.7546  -16.9333 C   0  0  2  0  0  0  0  0  0  0  0  0
   17.2675  -11.2571  -18.1213 N   0  0  0  0  0  0  0  0  0  0  0  0
   18.2618   -9.2966  -17.1112 C   0  0  0  0  0  0  0  0  0  0  0  0
   18.8984   -8.9081  -18.1290 O   0  0  0  0  0  0  0  0  0  0  0  0
   15.0926   -5.0639  -17.2620 C   0  0  0  0  0  0  0  0  0  0  0  0
   16.3269   -5.9418  -17.4946 C   0  0  1  0  0  0  0  0  0  0  0  0
   17.1737   -5.1790  -18.5265 C   0  0  0  0  0  0  0  0  0  0  0  0
   17.0586   -6.0539  -16.2067 C   0  0  0  0  0  0  0  0  0  0  0  0
   18.2735   -6.9174  -16.2341 C   0  0  2  0  0  0  0  0  0  0  0  0
   17.8741   -8.3280  -16.1510 N   0  0  0  0  0  0  0  0  0  0  0  0
   19.2662   -6.5973  -15.1748 C   0  0  0  0  0  0  0  0  0  0  0  0
   18.9656   -6.7580  -13.9660 O   0  0  0  0  0  0  0  0  0  0  0  0
   20.5667   -6.1079  -15.4669 N   0  0  0  0  0  0  0  0  0  0  0  0
   21.5100   -5.9007  -14.4033 C   0  0  1  0  0  0  0  0  0  0  0  0
   22.8220   -6.5799  -14.6461 C   0  0  0  0  0  0  0  0  0  0  0  0
   22.7295   -8.0476  -14.8082 C   0  0  0  0  0  0  0  0  0  0  0  0
   21.6360   -8.8880  -14.6870 C   0  0  0  0  0  0  0  0  0  0  0  0
   22.0536  -10.1405  -14.9102 N   0  0  0  0  0  0  0  0  0  0  0  0
   23.3654  -10.1370  -15.1685 C   0  0  0  0  0  0  0  0  0  0  0  0
   23.7691   -8.8795  -15.1067 N   0  0  0  0  0  0  0  0  0  0  0  0
   21.6971   -4.4494  -14.1038 C   0  0  0  0  0  0  0  0  0  0  0  0
   21.1312   -3.6410  -14.9204 O   0  0  0  0  0  0  0  0  0  0  0  0
   22.4178   -3.9732  -13.0359 O   0  0  0  0  0  0  0  0  0  0  0  0
  1  2  1  0
  2  3  1  0
  3  4  1  1
  5  3  1  0
  5  6  1  6
  7  8  2  0
  7  5  1  0
 10  9  1  1
 10 12  1  0
 11 10  1  0
 13 12  1  1
 13 14  1  0
 14  7  1  0
 15 17  1  0
 15 13  1  0
 16 15  2  0
 18 17  1  0
 18 25  1  0
 19 20  1  0
 18 19  1  6
 20 21  2  0
 21 22  1  0
 23 22  1  0
 24 20  1  0
 24 23  2  0
 25 27  1  0
 26 25  2  0
M  END
$$$$
