ILH.pdb
     RDKit          3D

 27 27  0  0  1  0  0  0  0  0999 V2000
   16.4400  -11.5906  -20.4558 C   0  0  0  0  0  0  0  0  0  0  0  0
   17.6101  -12.0085  -19.6194 C   0  0  0  0  0  0  0  0  0  0  0  0
   18.0216  -10.9451  -18.6251 C   0  0  2  0  0  0  0  0  0  0  0  0
   18.5922   -9.7667  -19.3607 C   0  0  0  0  0  0  0  0  0  0  0  0
   19.0482  -11.4737  -17.6483 C   0  0  2  0  0  0  0  0  0  0  0  0
   18.5038  -12.6232  -16.9533 N   0  0  0  0  0  0  0  0  0  0  0  0
   19.4271  -10.4071  -16.6545 C   0  0  0  0  0  0  0  0  0  0  0  0
   18.5963  -10.0203  -15.7872 O   0  0  0  0  0  0  0  0  0  0  0  0
   24.1324  -10.0614  -14.0082 C   0  0  0  0  0  0  0  0  0  0  0  0
   22.6341   -9.9260  -14.3000 C   0  0  1  0  0  0  0  0  0  0  0  0
   21.9984   -9.5236  -12.9592 C   0  0  0  0  0  0  0  0  0  0  0  0
   22.4585   -8.8428  -15.3012 C   0  0  0  0  0  0  0  0  0  0  0  0
   21.0709   -8.6674  -15.8173 C   0  0  2  0  0  0  0  0  0  0  0  0
   20.7144   -9.8130  -16.6639 N   0  0  0  0  0  0  0  0  0  0  0  0
   20.8565   -7.3935  -16.5529 C   0  0  0  0  0  0  0  0  0  0  0  0
   21.1064   -7.3308  -17.7822 O   0  0  0  0  0  0  0  0  0  0  0  0
   20.3725   -6.2171  -15.9221 N   0  0  0  0  0  0  0  0  0  0  0  0
   20.0457   -5.0628  -16.7125 C   0  0  1  0  0  0  0  0  0  0  0  0
   19.1492   -5.3816  -17.8685 C   0  0  0  0  0  0  0  0  0  0  0  0
   18.7865   -4.2133  -18.7008 C   0  0  0  0  0  0  0  0  0  0  0  0
   19.5975   -3.3150  -19.3731 C   0  0  0  0  0  0  0  0  0  0  0  0
   18.8062   -2.4185  -19.9759 N   0  0  0  0  0  0  0  0  0  0  0  0
   17.5260   -2.7047  -19.7181 C   0  0  0  0  0  0  0  0  0  0  0  0
   17.5165   -3.7826  -18.9525 N   0  0  0  0  0  0  0  0  0  0  0  0
   19.4824   -3.9605  -15.8765 C   0  0  0  0  0  0  0  0  0  0  0  0
   18.7556   -4.3336  -14.8901 O   0  0  0  0  0  0  0  0  0  0  0  0
   19.7059   -2.6263  -16.1146 O   0  0  0  0  0  0  0  0  0  0  0  0
  1  2  1  0
  2  3  1  0
  3  4  1  6
  5  3  1  0
  5  6  1  1
  7  8  2  0
  7  5  1  0
 10  9  1  1
 10 12  1  0
 11 10  1  0
 13 12  1  6
 13 14  1  0
 14  7  1  0
 15 17  1  0
 15 13  1  0
 16 15  2  0
 18 17  1  0
 18 25  1  0
 19 20  1  0
 18 19  1  6
 20 21  2  0
 21 22  1  0
 23 22  1  0
 24 20  1  0
 24 23  2  0
 25 27  1  0
 26 25  2  0
M  END
$$$$
