ILH.pdb
     RDKit          3D

 27 27  0  0  1  0  0  0  0  0999 V2000
   20.8924  -11.3770    7.0062 C   0  0  0  0  0  0  0  0  0  0  0  0
   20.0183  -11.7585    5.8512 C   0  0  0  0  0  0  0  0  0  0  0  0
   19.2500  -13.0373    6.1029 C   0  0  2  0  0  0  0  0  0  0  0  0
   20.2090  -14.1325    6.4717 C   0  0  0  0  0  0  0  0  0  0  0  0
   18.4579  -13.4518    4.8829 C   0  0  2  0  0  0  0  0  0  0  0  0
   17.4627  -12.4399    4.5889 N   0  0  0  0  0  0  0  0  0  0  0  0
   17.7847  -14.7784    5.1183 C   0  0  0  0  0  0  0  0  0  0  0  0
   16.7416  -14.8471    5.8250 O   0  0  0  0  0  0  0  0  0  0  0  0
   17.5871  -18.4508    1.0891 C   0  0  0  0  0  0  0  0  0  0  0  0
   17.1328  -17.6003    2.2802 C   0  0  1  0  0  0  0  0  0  0  0  0
   15.6209  -17.8523    2.4003 C   0  0  0  0  0  0  0  0  0  0  0  0
   17.8372  -18.0946    3.4911 C   0  0  0  0  0  0  0  0  0  0  0  0
   17.6404  -17.2790    4.7234 C   0  0  2  0  0  0  0  0  0  0  0  0
   18.2973  -15.9761    4.5588 N   0  0  0  0  0  0  0  0  0  0  0  0
   18.1102  -17.9421    5.9681 C   0  0  0  0  0  0  0  0  0  0  0  0
   19.3298  -17.9194    6.2674 O   0  0  0  0  0  0  0  0  0  0  0  0
   17.2303  -18.6152    6.8562 N   0  0  0  0  0  0  0  0  0  0  0  0
   17.7465  -19.2290    8.0482 C   0  0  1  0  0  0  0  0  0  0  0  0
   16.9410  -18.9043    9.2678 C   0  0  0  0  0  0  0  0  0  0  0  0
   17.0791  -17.5080    9.7373 C   0  0  0  0  0  0  0  0  0  0  0  0
   17.9666  -16.5214    9.3428 C   0  0  0  0  0  0  0  0  0  0  0  0
   17.7120  -15.4255   10.0689 N   0  0  0  0  0  0  0  0  0  0  0  0
   16.7013  -15.6688   10.9095 C   0  0  0  0  0  0  0  0  0  0  0  0
   16.3228  -16.9196   10.7087 N   0  0  0  0  0  0  0  0  0  0  0  0
   17.9123  -20.7044    7.8841 C   0  0  0  0  0  0  0  0  0  0  0  0
   17.5816  -21.1719    6.7384 O   0  0  0  0  0  0  0  0  0  0  0  0
   18.3850  -21.5373    8.8687 O   0  0  0  0  0  0  0  0  0  0  0  0
  1  2  1  0
  2  3  1  0
  3  4  1  6
  5  3  1  0
  5  6  1  1
  7  8  2  0
  7  5  1  0
 10  9  1  6
 10 12  1  0
 11 10  1  0
 13 12  1  6
 13 14  1  0
 14  7  1  0
 15 17  1  0
 15 13  1  0
 16 15  2  0
 18 17  1  0
 18 25  1  0
 19 20  1  0
 18 19  1  1
 20 21  2  0
 21 22  1  0
 23 22  1  0
 24 20  1  0
 24 23  2  0
 25 27  1  0
 26 25  2  0
M  END
$$$$
