ILH.pdb
     RDKit          3D

 27 27  0  0  1  0  0  0  0  0999 V2000
   27.0541  -15.8183  -17.6566 C   0  0  0  0  0  0  0  0  0  0  0  0
   27.5991  -16.8646  -16.7336 C   0  0  0  0  0  0  0  0  0  0  0  0
   26.5087  -17.6648  -16.0557 C   0  0  2  0  0  0  0  0  0  0  0  0
   25.5678  -16.7307  -15.3505 C   0  0  0  0  0  0  0  0  0  0  0  0
   27.0854  -18.6453  -15.0588 C   0  0  2  0  0  0  0  0  0  0  0  0
   28.1446  -19.4066  -15.6906 N   0  0  0  0  0  0  0  0  0  0  0  0
   26.0140  -19.5777  -14.5576 C   0  0  0  0  0  0  0  0  0  0  0  0
   25.5661  -20.4926  -15.3022 O   0  0  0  0  0  0  0  0  0  0  0  0
   26.1814  -20.7032   -9.3012 C   0  0  0  0  0  0  0  0  0  0  0  0
   26.1252  -20.7298  -10.8324 C   0  0  1  0  0  0  0  0  0  0  0  0
   26.6304  -22.1268  -11.2287 C   0  0  0  0  0  0  0  0  0  0  0  0
   24.7077  -20.5573  -11.2418 C   0  0  0  0  0  0  0  0  0  0  0  0
   24.4811  -20.3820  -12.7048 C   0  0  2  0  0  0  0  0  0  0  0  0
   25.4830  -19.4565  -13.2485 N   0  0  0  0  0  0  0  0  0  0  0  0
   23.1103  -19.9241  -13.0531 C   0  0  0  0  0  0  0  0  0  0  0  0
   22.9294  -18.7556  -13.4767 O   0  0  0  0  0  0  0  0  0  0  0  0
   21.9691  -20.7596  -12.9286 N   0  0  0  0  0  0  0  0  0  0  0  0
   20.9002  -20.6597  -13.8833 C   0  0  1  0  0  0  0  0  0  0  0  0
   21.3518  -20.8917  -15.2918 C   0  0  0  0  0  0  0  0  0  0  0  0
   21.5869  -19.6552  -16.0696 C   0  0  0  0  0  0  0  0  0  0  0  0
   21.3462  -18.3341  -15.7328 C   0  0  0  0  0  0  0  0  0  0  0  0
   21.7089  -17.5724  -16.7726 N   0  0  0  0  0  0  0  0  0  0  0  0
   22.1704  -18.3487  -17.7584 C   0  0  0  0  0  0  0  0  0  0  0  0
   22.0963  -19.5987  -17.3342 N   0  0  0  0  0  0  0  0  0  0  0  0
   19.7544  -21.5494  -13.5270 C   0  0  0  0  0  0  0  0  0  0  0  0
   20.0690  -22.6467  -12.9461 O   0  0  0  0  0  0  0  0  0  0  0  0
   18.4397  -21.2477  -13.7858 O   0  0  0  0  0  0  0  0  0  0  0  0
  1  2  1  0
  2  3  1  0
  3  4  1  1
  5  3  1  0
  5  6  1  6
  7  8  2  0
  7  5  1  0
 10  9  1  1
 10 12  1  0
 11 10  1  0
 13 12  1  1
 13 14  1  0
 14  7  1  0
 15 17  1  0
 15 13  1  0
 16 15  2  0
 18 17  1  0
 18 25  1  0
 19 20  1  0
 18 19  1  6
 20 21  2  0
 21 22  1  0
 23 22  1  0
 24 20  1  0
 24 23  2  0
 25 27  1  0
 26 25  2  0
M  END
$$$$
