ILH.pdb
     RDKit          3D

 27 27  0  0  1  0  0  0  0  0999 V2000
   18.0129  -13.7746  -21.5297 C   0  0  0  0  0  0  0  0  0  0  0  0
   19.2387  -13.9993  -20.6987 C   0  0  0  0  0  0  0  0  0  0  0  0
   19.3974  -12.9636  -19.6073 C   0  0  2  0  0  0  0  0  0  0  0  0
   19.5477  -11.6038  -20.2264 C   0  0  0  0  0  0  0  0  0  0  0  0
   20.6019  -13.2580  -18.7412 C   0  0  2  0  0  0  0  0  0  0  0  0
   20.5019  -14.6070  -18.2207 N   0  0  0  0  0  0  0  0  0  0  0  0
   20.6843  -12.2752  -17.6028 C   0  0  0  0  0  0  0  0  0  0  0  0
   19.7250  -12.1578  -16.7915 O   0  0  0  0  0  0  0  0  0  0  0  0
   25.2033  -11.4211  -14.6757 C   0  0  0  0  0  0  0  0  0  0  0  0
   23.7403  -11.6159  -15.0882 C   0  0  1  0  0  0  0  0  0  0  0  0
   22.9654  -11.7533  -13.7674 C   0  0  0  0  0  0  0  0  0  0  0  0
   23.3045  -10.3984  -15.8192 C   0  0  0  0  0  0  0  0  0  0  0  0
   21.9160  -10.4397  -16.3603 C   0  0  2  0  0  0  0  0  0  0  0  0
   21.8297  -11.4618  -17.4110 N   0  0  0  0  0  0  0  0  0  0  0  0
   21.4269   -9.1314  -16.8693 C   0  0  0  0  0  0  0  0  0  0  0  0
   21.8929   -8.6612  -17.9366 O   0  0  0  0  0  0  0  0  0  0  0  0
   20.4369   -8.3691  -16.1949 N   0  0  0  0  0  0  0  0  0  0  0  0
   20.0199   -7.1026  -16.7299 C   0  0  1  0  0  0  0  0  0  0  0  0
   18.5324   -6.9801  -16.8483 C   0  0  0  0  0  0  0  0  0  0  0  0
   18.0656   -5.6714  -17.3568 C   0  0  0  0  0  0  0  0  0  0  0  0
   18.7923   -4.5818  -17.8053 C   0  0  0  0  0  0  0  0  0  0  0  0
   17.9240   -3.6219  -18.1484 N   0  0  0  0  0  0  0  0  0  0  0  0
   16.6751   -4.0505  -17.9386 C   0  0  0  0  0  0  0  0  0  0  0  0
   16.7625   -5.2812  -17.4634 N   0  0  0  0  0  0  0  0  0  0  0  0
   20.5994   -5.9595  -15.9627 C   0  0  0  0  0  0  0  0  0  0  0  0
   20.8367   -6.1904  -14.7254 O   0  0  0  0  0  0  0  0  0  0  0  0
   20.8750   -4.7299  -16.5094 O   0  0  0  0  0  0  0  0  0  0  0  0
  1  2  1  0
  2  3  1  0
  3  4  1  6
  5  3  1  0
  5  6  1  1
  7  8  2  0
  7  5  1  0
 10  9  1  1
 10 12  1  0
 11 10  1  0
 13 12  1  6
 13 14  1  0
 14  7  1  0
 15 17  1  0
 15 13  1  0
 16 15  2  0
 18 17  1  0
 18 25  1  0
 19 20  1  0
 18 19  1  1
 20 21  2  0
 21 22  1  0
 23 22  1  0
 24 20  1  0
 24 23  2  0
 25 27  1  0
 26 25  2  0
M  END
$$$$
