ILH.pdb
     RDKit          3D

 27 27  0  0  1  0  0  0  0  0999 V2000
   19.0216  -11.9822  -20.3360 C   0  0  0  0  0  0  0  0  0  0  0  0
   18.4532  -12.0106  -18.9505 C   0  0  0  0  0  0  0  0  0  0  0  0
   19.1880  -11.0879  -18.0031 C   0  0  2  0  0  0  0  0  0  0  0  0
   19.3362   -9.7348  -18.6374 C   0  0  0  0  0  0  0  0  0  0  0  0
   20.5552  -11.6329  -17.6551 C   0  0  2  0  0  0  0  0  0  0  0  0
   20.4166  -12.9707  -17.1150 N   0  0  0  0  0  0  0  0  0  0  0  0
   21.2360  -10.7428  -16.6486 C   0  0  0  0  0  0  0  0  0  0  0  0
   20.7121  -10.5418  -15.5185 O   0  0  0  0  0  0  0  0  0  0  0  0
   26.7135  -10.5929  -16.2030 C   0  0  0  0  0  0  0  0  0  0  0  0
   25.2126  -10.6609  -15.9014 C   0  0  1  0  0  0  0  0  0  0  0  0
   25.1185  -10.9823  -14.4008 C   0  0  0  0  0  0  0  0  0  0  0  0
   24.6281   -9.3243  -16.1815 C   0  0  0  0  0  0  0  0  0  0  0  0
   23.1531   -9.2186  -15.9920 C   0  0  2  0  0  0  0  0  0  0  0  0
   22.4722  -10.1116  -16.9381 N   0  0  0  0  0  0  0  0  0  0  0  0
   22.6259   -7.8342  -16.1158 C   0  0  0  0  0  0  0  0  0  0  0  0
   22.5526   -7.2910  -17.2459 O   0  0  0  0  0  0  0  0  0  0  0  0
   22.1909   -7.0775  -14.9959 N   0  0  0  0  0  0  0  0  0  0  0  0
   21.6592   -5.7565  -15.1864 C   0  0  1  0  0  0  0  0  0  0  0  0
   20.2010   -5.6615  -14.8605 C   0  0  0  0  0  0  0  0  0  0  0  0
   19.3081   -6.2703  -15.8711 C   0  0  0  0  0  0  0  0  0  0  0  0
   19.6135   -6.8680  -17.0820 C   0  0  0  0  0  0  0  0  0  0  0  0
   18.4644   -7.2538  -17.6511 N   0  0  0  0  0  0  0  0  0  0  0  0
   17.4390   -6.9287  -16.8573 C   0  0  0  0  0  0  0  0  0  0  0  0
   17.9478   -6.3384  -15.7892 N   0  0  0  0  0  0  0  0  0  0  0  0
   22.4494   -4.7290  -14.4441 C   0  0  0  0  0  0  0  0  0  0  0  0
   23.3714   -5.1876  -13.6824 O   0  0  0  0  0  0  0  0  0  0  0  0
   22.2348   -3.3761  -14.5447 O   0  0  0  0  0  0  0  0  0  0  0  0
  1  2  1  0
  2  3  1  0
  3  4  1  6
  5  3  1  0
  5  6  1  1
  7  8  2  0
  7  5  1  0
 10  9  1  1
 10 12  1  0
 11 10  1  0
 13 12  1  6
 13 14  1  0
 14  7  1  0
 15 17  1  0
 15 13  1  0
 16 15  2  0
 18 17  1  0
 18 25  1  0
 19 20  1  0
 18 19  1  1
 20 21  2  0
 21 22  1  0
 23 22  1  0
 24 20  1  0
 24 23  2  0
 25 27  1  0
 26 25  2  0
M  END
$$$$
