ILH.pdb
     RDKit          3D

 27 27  0  0  1  0  0  0  0  0999 V2000
   15.1469  -22.0557   -0.6617 C   0  0  0  0  0  0  0  0  0  0  0  0
   14.5372  -21.5139    0.5946 C   0  0  0  0  0  0  0  0  0  0  0  0
   15.5472  -20.8062    1.4710 C   0  0  2  0  0  0  0  0  0  0  0  0
   16.5695  -21.7944    1.9542 C   0  0  0  0  0  0  0  0  0  0  0  0
   14.8799  -20.1508    2.6596 C   0  0  2  0  0  0  0  0  0  0  0  0
   13.8317  -19.2643    2.1945 N   0  0  0  0  0  0  0  0  0  0  0  0
   15.8869  -19.3736    3.4661 C   0  0  0  0  0  0  0  0  0  0  0  0
   16.8665  -19.9626    4.0006 O   0  0  0  0  0  0  0  0  0  0  0  0
   17.5968  -14.3361    2.0741 C   0  0  0  0  0  0  0  0  0  0  0  0
   17.5461  -15.7954    2.5390 C   0  0  1  0  0  0  0  0  0  0  0  0
   19.0161  -16.2230    2.6810 C   0  0  0  0  0  0  0  0  0  0  0  0
   16.8671  -15.8321    3.8597 C   0  0  0  0  0  0  0  0  0  0  0  0
   16.7046  -17.1879    4.4580 C   0  0  2  0  0  0  0  0  0  0  0  0
   15.7656  -17.9725    3.6463 N   0  0  0  0  0  0  0  0  0  0  0  0
   16.2719  -17.1726    5.8802 C   0  0  0  0  0  0  0  0  0  0  0  0
   15.0501  -17.0995    6.1621 O   0  0  0  0  0  0  0  0  0  0  0  0
   17.1906  -17.2381    6.9608 N   0  0  0  0  0  0  0  0  0  0  0  0
   16.7060  -17.2603    8.3131 C   0  0  1  0  0  0  0  0  0  0  0  0
   15.6773  -18.3226    8.5471 C   0  0  0  0  0  0  0  0  0  0  0  0
   16.1884  -19.7057    8.4250 C   0  0  0  0  0  0  0  0  0  0  0  0
   17.4722  -20.1967    8.5912 C   0  0  0  0  0  0  0  0  0  0  0  0
   17.4412  -21.5150    8.3590 N   0  0  0  0  0  0  0  0  0  0  0  0
   16.1945  -21.8875    8.0517 C   0  0  0  0  0  0  0  0  0  0  0  0
   15.4440  -20.7997    8.0919 N   0  0  0  0  0  0  0  0  0  0  0  0
   17.8228  -17.3592    9.3001 C   0  0  0  0  0  0  0  0  0  0  0  0
   18.9977  -17.4389    8.7963 O   0  0  0  0  0  0  0  0  0  0  0  0
   17.6445  -17.3660   10.6620 O   0  0  0  0  0  0  0  0  0  0  0  0
  1  2  1  0
  2  3  1  0
  3  4  1  1
  5  3  1  0
  5  6  1  6
  7  8  2  0
  7  5  1  0
 10  9  1  1
 10 12  1  0
 11 10  1  0
 13 12  1  6
 13 14  1  0
 14  7  1  0
 15 17  1  0
 15 13  1  0
 16 15  2  0
 18 17  1  0
 18 25  1  0
 19 20  1  0
 18 19  1  6
 20 21  2  0
 21 22  1  0
 23 22  1  0
 24 20  1  0
 24 23  2  0
 25 27  1  0
 26 25  2  0
M  END
$$$$
