RNF.pdb
     RDKit          3D

 31 31  0  0  1  0  0  0  0  0999 V2000
   34.8899  -23.5925  -14.0164 N   0  0  0  0  0  0  0  0  0  0  0  0
   33.6228  -24.1398  -13.6865 C   0  0  0  0  0  0  0  0  0  0  0  0
   33.2672  -25.2499  -14.2705 N   0  0  0  0  0  0  0  0  0  0  0  0
   32.7354  -23.5410  -12.7618 N   0  0  0  0  0  0  0  0  0  0  0  0
   33.1125  -22.3807  -12.0197 C   0  0  0  0  0  0  0  0  0  0  0  0
   32.0675  -21.8877  -11.0364 C   0  0  0  0  0  0  0  0  0  0  0  0
   30.7375  -21.5918  -11.6294 C   0  0  0  0  0  0  0  0  0  0  0  0
   29.7920  -21.0993  -10.5523 C   0  0  2  0  0  0  0  0  0  0  0  0
   30.0570  -21.8559   -9.3112 N   0  0  0  0  0  0  0  0  0  0  0  0
   28.3695  -21.2349  -10.9230 C   0  0  0  0  0  0  0  0  0  0  0  0
   27.9456  -22.3356  -11.4270 O   0  0  0  0  0  0  0  0  0  0  0  0
   32.3594  -25.6691  -14.0613 N   0  0  0  0  0  0  0  0  0  0  0  0
   26.0685  -20.3281   -7.7005 C   0  0  0  0  0  0  0  0  0  0  0  0
   25.4498  -21.0514   -8.7514 O   0  0  0  0  0  0  0  0  0  0  0  0
   25.2697  -22.2685   -8.6547 C   0  0  0  0  0  0  0  0  0  0  0  0
   25.0462  -20.2395   -9.9499 C   0  0  2  0  0  0  0  0  0  0  0  0
   25.9642  -20.4366  -11.0950 N   0  0  0  0  0  0  0  0  0  0  0  0
   27.3730  -20.2398  -10.7716 C   0  0  0  0  0  0  0  0  0  0  0  0
   25.5637  -19.8697  -12.3864 O   0  0  0  0  0  0  0  0  0  0  0  0
   25.8340  -18.6695  -12.6496 N   0  0  0  0  0  0  0  0  0  0  0  0
   24.8709  -20.6144  -13.3880 C   0  0  1  0  0  0  0  0  0  0  0  0
   24.4060  -19.8895  -14.5637 C   0  0  0  0  0  0  0  0  0  0  0  0
   25.0642  -20.4094  -15.8173 C   0  0  0  0  0  0  0  0  0  0  0  0
   26.5161  -20.1495  -15.8175 C   0  0  0  0  0  0  0  0  0  0  0  0
   27.3413  -21.2009  -15.4863 C   0  0  0  0  0  0  0  0  0  0  0  0
   28.6983  -21.0090  -15.4815 C   0  0  0  0  0  0  0  0  0  0  0  0
   29.2772  -19.7895  -15.7991 C   0  0  0  0  0  0  0  0  0  0  0  0
   28.4174  -18.7687  -16.1225 C   0  0  0  0  0  0  0  0  0  0  0  0
   27.0410  -18.9359  -16.1349 C   0  0  0  0  0  0  0  0  0  0  0  0
   22.9170  -20.0942  -14.7226 O   0  0  0  0  0  0  0  0  0  0  0  0
   22.2014  -19.4841  -15.7370 O   0  0  0  0  0  0  0  0  0  0  0  0
  2  3  2  0
  2  1  1  0
  4  2  1  0
  5  4  1  0
  6  5  1  0
  7  6  1  0
  8  7  1  0
  8  9  1  1
 10 17  1  0
 10  8  1  0
 11 10  2  0
 13 12  1  0
 13 14  2  0
 15 13  1  0
 16 15  1  1
 16 17  1  0
 18 16  1  0
 19 18  2  0
 20 18  1  0
 21 20  1  0
 21 22  1  6
 23 22  1  0
 23 28  2  0
 24 23  1  0
 25 24  2  0
 25 26  1  0
 26 27  2  0
 27 28  1  0
 29 21  1  0
 30 29  1  0
 31 29  2  0
M  END
$$$$
