RNF.pdb
     RDKit          3D

 31 31  0  0  1  0  0  0  0  0999 V2000
   23.1884  -27.1301  -17.7195 N   0  0  0  0  0  0  0  0  0  0  0  0
   24.1469  -27.6630  -16.8187 C   0  0  0  0  0  0  0  0  0  0  0  0
   23.8904  -28.8162  -16.2671 N   0  0  0  0  0  0  0  0  0  0  0  0
   25.3570  -27.0059  -16.4943 N   0  0  0  0  0  0  0  0  0  0  0  0
   25.5555  -25.6261  -16.8044 C   0  0  0  0  0  0  0  0  0  0  0  0
   24.9802  -25.1852  -18.1372 C   0  0  0  0  0  0  0  0  0  0  0  0
   24.3374  -23.8454  -18.1312 C   0  0  0  0  0  0  0  0  0  0  0  0
   25.2680  -22.8312  -17.4970 C   0  0  2  0  0  0  0  0  0  0  0  0
   26.0374  -23.5016  -16.4285 N   0  0  0  0  0  0  0  0  0  0  0  0
   24.5589  -21.6622  -16.9403 C   0  0  0  0  0  0  0  0  0  0  0  0
   23.5302  -21.1941  -17.5468 O   0  0  0  0  0  0  0  0  0  0  0  0
   24.5474  -29.2192  -15.5968 N   0  0  0  0  0  0  0  0  0  0  0  0
   23.0083  -20.1437  -12.3873 C   0  0  0  0  0  0  0  0  0  0  0  0
   22.2231  -20.9616  -13.2388 O   0  0  0  0  0  0  0  0  0  0  0  0
   21.2291  -21.5493  -12.8031 C   0  0  0  0  0  0  0  0  0  0  0  0
   22.6870  -21.0489  -14.6656 C   0  0  1  0  0  0  0  0  0  0  0  0
   23.9373  -20.2894  -14.8955 N   0  0  0  0  0  0  0  0  0  0  0  0
   24.9012  -20.9712  -15.7521 C   0  0  0  0  0  0  0  0  0  0  0  0
   24.5382  -19.6135  -13.7415 O   0  0  0  0  0  0  0  0  0  0  0  0
   24.2476  -19.9927  -12.5777 N   0  0  0  0  0  0  0  0  0  0  0  0
   25.4561  -18.5268  -13.8606 C   0  0  2  0  0  0  0  0  0  0  0  0
   26.8724  -18.8520  -13.9725 C   0  0  0  0  0  0  0  0  0  0  0  0
   27.1702  -20.1980  -13.3602 C   0  0  0  0  0  0  0  0  0  0  0  0
   26.6314  -20.3042  -11.9913 C   0  0  0  0  0  0  0  0  0  0  0  0
   25.9869  -21.4751  -11.6603 C   0  0  0  0  0  0  0  0  0  0  0  0
   25.4775  -21.6228  -10.3965 C   0  0  0  0  0  0  0  0  0  0  0  0
   25.5861  -20.6330   -9.4315 C   0  0  0  0  0  0  0  0  0  0  0  0
   26.2357  -19.4819   -9.8045 C   0  0  0  0  0  0  0  0  0  0  0  0
   26.7600  -19.3067  -11.0761 C   0  0  0  0  0  0  0  0  0  0  0  0
   27.2549  -18.9304  -15.4326 O   0  0  0  0  0  0  0  0  0  0  0  0
   28.5747  -18.8826  -15.8439 O   0  0  0  0  0  0  0  0  0  0  0  0
  2  3  2  0
  2  1  1  0
  4  2  1  0
  5  4  1  0
  6  5  1  0
  7  6  1  0
  8  7  1  0
  8  9  1  1
 10 17  1  0
 10  8  1  0
 11 10  2  0
 13 12  1  0
 13 14  2  0
 15 13  1  0
 16 15  1  6
 16 17  1  0
 18 16  1  0
 19 18  2  0
 20 18  1  0
 21 20  1  0
 21 22  1  1
 23 22  1  0
 23 28  2  0
 24 23  1  0
 25 24  2  0
 25 26  1  0
 26 27  2  0
 27 28  1  0
 29 21  1  0
 30 29  1  0
 31 29  2  0
M  END
$$$$
