RNF.pdb
     RDKit          3D

 31 31  0  0  1  0  0  0  0  0999 V2000
   28.0861  -24.1840  -18.6197 N   0  0  0  0  0  0  0  0  0  0  0  0
   28.0182  -24.8036  -17.3446 C   0  0  0  0  0  0  0  0  0  0  0  0
   28.3349  -26.0657  -17.2622 N   0  0  0  0  0  0  0  0  0  0  0  0
   27.6256  -24.1207  -16.1696 N   0  0  0  0  0  0  0  0  0  0  0  0
   27.3905  -22.7122  -16.1762 C   0  0  0  0  0  0  0  0  0  0  0  0
   28.5855  -21.8665  -15.7781 C   0  0  0  0  0  0  0  0  0  0  0  0
   28.3671  -20.9854  -14.6015 C   0  0  0  0  0  0  0  0  0  0  0  0
   27.0440  -20.2595  -14.7410 C   0  0  2  0  0  0  0  0  0  0  0  0
   27.2821  -18.9749  -15.4309 N   0  0  0  0  0  0  0  0  0  0  0  0
   26.3787  -20.0127  -13.4465 C   0  0  0  0  0  0  0  0  0  0  0  0
   26.7827  -19.0539  -12.6963 O   0  0  0  0  0  0  0  0  0  0  0  0
   28.2796  -26.5485  -16.3637 N   0  0  0  0  0  0  0  0  0  0  0  0
   22.0273  -19.3339   -9.8611 C   0  0  0  0  0  0  0  0  0  0  0  0
   22.7068  -20.5455  -10.1454 O   0  0  0  0  0  0  0  0  0  0  0  0
   22.8325  -21.4134   -9.2770 C   0  0  0  0  0  0  0  0  0  0  0  0
   23.2415  -20.6786  -11.5436 C   0  0  1  0  0  0  0  0  0  0  0  0
   24.7130  -20.5225  -11.5977 N   0  0  0  0  0  0  0  0  0  0  0  0
   25.2892  -20.7480  -12.9187 C   0  0  0  0  0  0  0  0  0  0  0  0
   25.4939  -21.1007  -10.4997 O   0  0  0  0  0  0  0  0  0  0  0  0
   25.8586  -22.3032  -10.5616 N   0  0  0  0  0  0  0  0  0  0  0  0
   25.8762  -20.3647   -9.3379 C   0  0  1  0  0  0  0  0  0  0  0  0
   26.6114  -21.0785   -8.3015 C   0  0  0  0  0  0  0  0  0  0  0  0
   27.9866  -20.4899   -8.1085 C   0  0  0  0  0  0  0  0  0  0  0  0
   28.1623  -19.9530   -6.7460 C   0  0  0  0  0  0  0  0  0  0  0  0
   28.5961  -20.8304   -5.7775 C   0  0  0  0  0  0  0  0  0  0  0  0
   28.7822  -20.3746   -4.4984 C   0  0  0  0  0  0  0  0  0  0  0  0
   28.5493  -19.0558   -4.1385 C   0  0  0  0  0  0  0  0  0  0  0  0
   28.1172  -18.2156   -5.1352 C   0  0  0  0  0  0  0  0  0  0  0  0
   27.9207  -18.6509   -6.4370 C   0  0  0  0  0  0  0  0  0  0  0  0
   25.8794  -20.9457   -6.9859 O   0  0  0  0  0  0  0  0  0  0  0  0
   24.7563  -20.1491   -6.8538 O   0  0  0  0  0  0  0  0  0  0  0  0
  2  3  2  0
  2  1  1  0
  4  2  1  0
  5  4  1  0
  6  5  1  0
  7  6  1  0
  8  7  1  0
  8  9  1  1
 10 17  1  0
 10  8  1  0
 11 10  2  0
 13 12  1  0
 13 14  2  0
 15 13  1  0
 16 15  1  6
 16 17  1  0
 18 16  1  0
 19 18  2  0
 20 18  1  0
 21 20  1  0
 21 22  1  1
 23 22  1  0
 23 28  2  0
 24 23  1  0
 25 24  2  0
 25 26  1  0
 26 27  2  0
 27 28  1  0
 29 21  1  0
 30 29  1  0
 31 29  2  0
M  END
$$$$
