RNF.pdb
     RDKit          3D

 31 31  0  0  1  0  0  0  0  0999 V2000
   10.4226  -12.6035   -9.6995 N   0  0  0  0  0  0  0  0  0  0  0  0
    9.7089  -12.7998  -10.9104 C   0  0  0  0  0  0  0  0  0  0  0  0
    8.4574  -13.1564  -10.8297 N   0  0  0  0  0  0  0  0  0  0  0  0
   10.2882  -12.6283  -12.1895 N   0  0  0  0  0  0  0  0  0  0  0  0
   11.6524  -12.2327  -12.3367 C   0  0  0  0  0  0  0  0  0  0  0  0
   12.1417  -12.1595  -13.7709 C   0  0  0  0  0  0  0  0  0  0  0  0
   13.5982  -11.9087  -13.9254 C   0  0  0  0  0  0  0  0  0  0  0  0
   13.9750  -11.9522  -15.3927 C   0  0  2  0  0  0  0  0  0  0  0  0
   13.2944  -13.1040  -16.0197 N   0  0  0  0  0  0  0  0  0  0  0  0
   15.4309  -12.0539  -15.6148 C   0  0  0  0  0  0  0  0  0  0  0  0
   15.9134  -13.0836  -16.2083 O   0  0  0  0  0  0  0  0  0  0  0  0
    7.9205  -13.3316  -11.6808 N   0  0  0  0  0  0  0  0  0  0  0  0
   19.9076  -12.5740  -17.7252 C   0  0  0  0  0  0  0  0  0  0  0  0
   19.2882  -11.2993  -17.6856 O   0  0  0  0  0  0  0  0  0  0  0  0
   19.9090  -10.2887  -18.0272 C   0  0  0  0  0  0  0  0  0  0  0  0
   17.8627  -11.2835  -17.2098 C   0  0  1  0  0  0  0  0  0  0  0  0
   17.7619  -11.0538  -15.7504 N   0  0  0  0  0  0  0  0  0  0  0  0
   16.3988  -11.0930  -15.2325 C   0  0  0  0  0  0  0  0  0  0  0  0
   18.5876   -9.9867  -15.1765 O   0  0  0  0  0  0  0  0  0  0  0  0
   19.7853   -9.8626  -15.5410 N   0  0  0  0  0  0  0  0  0  0  0  0
   18.1036   -9.0568  -14.2076 C   0  0  1  0  0  0  0  0  0  0  0  0
   18.8048   -7.7848  -14.0875 C   0  0  0  0  0  0  0  0  0  0  0  0
   20.1391   -7.8323  -14.7892 C   0  0  0  0  0  0  0  0  0  0  0  0
   20.8730   -6.5606  -14.6493 C   0  0  0  0  0  0  0  0  0  0  0  0
   21.5568   -6.3577  -13.4714 C   0  0  0  0  0  0  0  0  0  0  0  0
   22.2605   -5.1941  -13.2997 C   0  0  0  0  0  0  0  0  0  0  0  0
   22.3115   -4.2065  -14.2718 C   0  0  0  0  0  0  0  0  0  0  0  0
   21.6150   -4.4499  -15.4300 C   0  0  0  0  0  0  0  0  0  0  0  0
   20.8950   -5.6181  -15.6293 C   0  0  0  0  0  0  0  0  0  0  0  0
   17.9895   -6.6984  -14.7502 O   0  0  0  0  0  0  0  0  0  0  0  0
   17.8612   -5.4396  -14.1911 O   0  0  0  0  0  0  0  0  0  0  0  0
  2  3  2  0
  2  1  1  0
  4  2  1  0
  5  4  1  0
  6  5  1  0
  7  6  1  0
  8  7  1  0
  8  9  1  1
 10 17  1  0
 10  8  1  0
 11 10  2  0
 13 12  1  0
 13 14  2  0
 15 13  1  0
 16 15  1  1
 16 17  1  0
 18 16  1  0
 19 18  2  0
 20 18  1  0
 21 20  1  0
 21 22  1  1
 23 22  1  0
 23 28  2  0
 24 23  1  0
 25 24  2  0
 25 26  1  0
 26 27  2  0
 27 28  1  0
 29 21  1  0
 30 29  1  0
 31 29  2  0
M  END
$$$$
