RNF.pdb
     RDKit          3D

 31 31  0  0  1  0  0  0  0  0999 V2000
   28.8350  -19.8893  -18.0743 N   0  0  0  0  0  0  0  0  0  0  0  0
   27.6773  -20.7030  -18.1822 C   0  0  0  0  0  0  0  0  0  0  0  0
   27.8463  -21.9851  -18.3489 N   0  0  0  0  0  0  0  0  0  0  0  0
   26.3600  -20.1913  -18.1182 N   0  0  0  0  0  0  0  0  0  0  0  0
   25.9928  -19.2134  -17.1445 C   0  0  0  0  0  0  0  0  0  0  0  0
   27.1606  -18.5420  -16.4464 C   0  0  0  0  0  0  0  0  0  0  0  0
   26.9182  -18.1785  -15.0261 C   0  0  0  0  0  0  0  0  0  0  0  0
   27.4688  -19.2591  -14.1173 C   0  0  2  0  0  0  0  0  0  0  0  0
   27.3105  -20.5653  -14.7893 N   0  0  0  0  0  0  0  0  0  0  0  0
   26.8108  -19.2967  -12.7963 C   0  0  0  0  0  0  0  0  0  0  0  0
   26.7168  -18.2225  -12.1017 O   0  0  0  0  0  0  0  0  0  0  0  0
   27.0375  -22.5925  -18.4914 N   0  0  0  0  0  0  0  0  0  0  0  0
   23.0902  -20.9569  -13.0458 C   0  0  0  0  0  0  0  0  0  0  0  0
   23.3676  -20.2211  -11.8659 O   0  0  0  0  0  0  0  0  0  0  0  0
   22.9192  -19.0809  -11.7171 C   0  0  0  0  0  0  0  0  0  0  0  0
   24.2227  -20.9222  -10.8482 C   0  0  2  0  0  0  0  0  0  0  0  0
   25.6220  -20.4380  -10.8633 N   0  0  0  0  0  0  0  0  0  0  0  0
   26.2402  -20.4397  -12.1846 C   0  0  0  0  0  0  0  0  0  0  0  0
   26.5075  -20.8998   -9.7899 O   0  0  0  0  0  0  0  0  0  0  0  0
   27.3873  -21.7642  -10.0378 N   0  0  0  0  0  0  0  0  0  0  0  0
   26.4318  -20.4157   -8.4491 C   0  0  1  0  0  0  0  0  0  0  0  0
   26.9754  -21.2642   -7.3962 C   0  0  0  0  0  0  0  0  0  0  0  0
   28.4630  -21.0621   -7.2501 C   0  0  0  0  0  0  0  0  0  0  0  0
   28.7812  -20.1493   -6.1361 C   0  0  0  0  0  0  0  0  0  0  0  0
   28.6628  -18.7990   -6.3785 C   0  0  0  0  0  0  0  0  0  0  0  0
   28.9395  -17.9127   -5.3703 C   0  0  0  0  0  0  0  0  0  0  0  0
   29.3368  -18.3248   -4.1073 C   0  0  0  0  0  0  0  0  0  0  0  0
   29.4424  -19.6797   -3.9096 C   0  0  0  0  0  0  0  0  0  0  0  0
   29.1686  -20.5976   -4.9121 C   0  0  0  0  0  0  0  0  0  0  0  0
   26.3417  -20.8922   -6.0755 O   0  0  0  0  0  0  0  0  0  0  0  0
   26.5932  -21.6083   -4.9190 O   0  0  0  0  0  0  0  0  0  0  0  0
  2  3  2  0
  2  1  1  0
  4  2  1  0
  5  4  1  0
  6  5  1  0
  7  6  1  0
  8  7  1  0
  8  9  1  6
 10 17  1  0
 10  8  1  0
 11 10  2  0
 13 12  1  0
 13 14  2  0
 15 13  1  0
 16 15  1  6
 16 17  1  0
 18 16  1  0
 19 18  2  0
 20 18  1  0
 21 20  1  0
 21 22  1  1
 23 22  1  0
 23 28  2  0
 24 23  1  0
 25 24  2  0
 25 26  1  0
 26 27  2  0
 27 28  1  0
 29 21  1  0
 30 29  1  0
 31 29  2  0
M  END
$$$$
