RNF.pdb
     RDKit          3D

 31 31  0  0  1  0  0  0  0  0999 V2000
   33.4978  -22.4554  -12.6216 N   0  0  0  0  0  0  0  0  0  0  0  0
   33.1220  -22.4867  -13.9898 C   0  0  0  0  0  0  0  0  0  0  0  0
   33.7046  -23.3604  -14.7625 N   0  0  0  0  0  0  0  0  0  0  0  0
   32.1532  -21.6205  -14.5488 N   0  0  0  0  0  0  0  0  0  0  0  0
   31.1947  -20.9538  -13.7265 C   0  0  0  0  0  0  0  0  0  0  0  0
   30.2040  -20.0868  -14.4806 C   0  0  0  0  0  0  0  0  0  0  0  0
   28.9234  -20.7549  -14.8295 C   0  0  0  0  0  0  0  0  0  0  0  0
   28.6684  -21.9070  -13.8784 C   0  0  2  0  0  0  0  0  0  0  0  0
   28.7332  -23.1706  -14.6412 N   0  0  0  0  0  0  0  0  0  0  0  0
   27.3681  -21.8105  -13.1860 C   0  0  0  0  0  0  0  0  0  0  0  0
   26.3108  -22.2656  -13.7519 O   0  0  0  0  0  0  0  0  0  0  0  0
   33.4917  -23.3812  -15.7613 N   0  0  0  0  0  0  0  0  0  0  0  0
   23.4193  -20.9038  -10.1440 C   0  0  0  0  0  0  0  0  0  0  0  0
   24.4961  -20.6894   -9.2467 O   0  0  0  0  0  0  0  0  0  0  0  0
   24.2816  -20.3910   -8.0685 C   0  0  0  0  0  0  0  0  0  0  0  0
   25.8713  -20.8509   -9.8308 C   0  0  1  0  0  0  0  0  0  0  0  0
   25.8344  -21.0992  -11.2902 N   0  0  0  0  0  0  0  0  0  0  0  0
   27.1492  -21.2499  -11.9038 C   0  0  0  0  0  0  0  0  0  0  0  0
   24.8921  -20.3064  -12.0860 O   0  0  0  0  0  0  0  0  0  0  0  0
   25.2393  -19.1769  -12.5180 N   0  0  0  0  0  0  0  0  0  0  0  0
   23.5742  -20.7489  -12.4098 C   0  0  1  0  0  0  0  0  0  0  0  0
   22.8223  -19.9666  -13.3829 C   0  0  0  0  0  0  0  0  0  0  0  0
   23.5442  -19.9073  -14.7059 C   0  0  0  0  0  0  0  0  0  0  0  0
   22.7756  -19.1501  -15.7115 C   0  0  0  0  0  0  0  0  0  0  0  0
   22.0496  -19.8801  -16.6259 C   0  0  0  0  0  0  0  0  0  0  0  0
   21.3127  -19.2194  -17.5741 C   0  0  0  0  0  0  0  0  0  0  0  0
   21.2691  -17.8355  -17.6496 C   0  0  0  0  0  0  0  0  0  0  0  0
   22.0083  -17.1473  -16.7189 C   0  0  0  0  0  0  0  0  0  0  0  0
   22.7623  -17.7908  -15.7495 C   0  0  0  0  0  0  0  0  0  0  0  0
   21.4858  -20.6270  -13.6319 O   0  0  0  0  0  0  0  0  0  0  0  0
   20.3573  -19.8922  -13.9480 O   0  0  0  0  0  0  0  0  0  0  0  0
  2  3  2  0
  2  1  1  0
  4  2  1  0
  5  4  1  0
  6  5  1  0
  7  6  1  0
  8  7  1  0
  8  9  1  6
 10 17  1  0
 10  8  1  0
 11 10  2  0
 13 12  1  0
 13 14  2  0
 15 13  1  0
 16 15  1  1
 16 17  1  0
 18 16  1  0
 19 18  2  0
 20 18  1  0
 21 20  1  0
 21 22  1  1
 23 22  1  0
 23 28  2  0
 24 23  1  0
 25 24  2  0
 25 26  1  0
 26 27  2  0
 27 28  1  0
 29 21  1  0
 30 29  1  0
 31 29  2  0
M  END
$$$$
