RNF.pdb
     RDKit          3D

 31 31  0  0  1  0  0  0  0  0999 V2000
   21.4893  -19.2953  -18.5709 N   0  0  0  0  0  0  0  0  0  0  0  0
   20.2523  -19.5534  -17.9250 C   0  0  0  0  0  0  0  0  0  0  0  0
   19.2084  -19.7769  -18.6736 N   0  0  0  0  0  0  0  0  0  0  0  0
   20.1011  -19.5785  -16.5187 N   0  0  0  0  0  0  0  0  0  0  0  0
   21.1869  -19.2482  -15.6521 C   0  0  0  0  0  0  0  0  0  0  0  0
   22.2261  -20.3417  -15.4901 C   0  0  0  0  0  0  0  0  0  0  0  0
   22.1377  -21.1089  -14.2206 C   0  0  0  0  0  0  0  0  0  0  0  0
   22.7524  -20.3070  -13.0910 C   0  0  2  0  0  0  0  0  0  0  0  0
   22.8763  -18.9002  -13.5252 N   0  0  0  0  0  0  0  0  0  0  0  0
   24.0730  -20.8156  -12.6706 C   0  0  0  0  0  0  0  0  0  0  0  0
   24.1774  -22.0064  -12.2056 O   0  0  0  0  0  0  0  0  0  0  0  0
   18.3056  -19.9833  -18.2426 N   0  0  0  0  0  0  0  0  0  0  0  0
   29.3569  -21.9141  -12.2183 C   0  0  0  0  0  0  0  0  0  0  0  0
   29.0283  -20.5348  -12.2195 O   0  0  0  0  0  0  0  0  0  0  0  0
   29.7639  -19.7138  -11.6643 C   0  0  0  0  0  0  0  0  0  0  0  0
   27.7545  -20.1704  -12.9287 C   0  0  1  0  0  0  0  0  0  0  0  0
   26.5525  -20.5847  -12.1695 N   0  0  0  0  0  0  0  0  0  0  0  0
   25.2956  -20.1031  -12.7320 C   0  0  0  0  0  0  0  0  0  0  0  0
   26.6190  -20.5095  -10.7068 O   0  0  0  0  0  0  0  0  0  0  0  0
   26.2458  -19.4611  -10.1201 N   0  0  0  0  0  0  0  0  0  0  0  0
   27.0911  -21.5793   -9.8880 C   0  0  2  0  0  0  0  0  0  0  0  0
   27.1678  -21.3435   -8.4518 C   0  0  0  0  0  0  0  0  0  0  0  0
   28.0318  -20.1461   -8.1439 C   0  0  0  0  0  0  0  0  0  0  0  0
   28.2060  -19.9601   -6.6911 C   0  0  0  0  0  0  0  0  0  0  0  0
   28.9776  -20.8882   -6.0283 C   0  0  0  0  0  0  0  0  0  0  0  0
   29.1748  -20.7513   -4.6788 C   0  0  0  0  0  0  0  0  0  0  0  0
   28.6243  -19.7082   -3.9497 C   0  0  0  0  0  0  0  0  0  0  0  0
   27.8616  -18.8063   -4.6503 C   0  0  0  0  0  0  0  0  0  0  0  0
   27.6461  -18.9215   -6.0151 C   0  0  0  0  0  0  0  0  0  0  0  0
   25.7853  -21.0465   -7.9181 O   0  0  0  0  0  0  0  0  0  0  0  0
   24.7510  -20.6568   -8.7498 O   0  0  0  0  0  0  0  0  0  0  0  0
  2  3  2  0
  2  1  1  0
  4  2  1  0
  5  4  1  0
  6  5  1  0
  7  6  1  0
  8  7  1  0
  8  9  1  6
 10 17  1  0
 10  8  1  0
 11 10  2  0
 13 12  1  0
 13 14  2  0
 15 13  1  0
 16 15  1  6
 16 17  1  0
 18 16  1  0
 19 18  2  0
 20 18  1  0
 21 20  1  0
 21 22  1  6
 23 22  1  0
 23 28  2  0
 24 23  1  0
 25 24  2  0
 25 26  1  0
 26 27  2  0
 27 28  1  0
 29 21  1  0
 30 29  1  0
 31 29  2  0
M  END
$$$$
