GAF.pdb
     RDKit          3D

 21 21  0  0  1  0  0  0  0  0999 V2000
    5.4151  -18.6159   20.3110 N   0  0  0  0  0  0  0  0  0  0  0  0
    5.3042  -17.3348   20.9571 C   0  0  0  0  0  0  0  0  0  0  0  0
    6.6287  -16.6146   20.9468 C   0  0  0  0  0  0  0  0  0  0  0  0
    7.6756  -17.2442   20.7105 O   0  0  0  0  0  0  0  0  0  0  0  0
    7.6713  -12.9919   20.9412 C   0  0  0  0  0  0  0  0  0  0  0  0
    7.9153  -14.4592   21.2222 C   0  0  2  0  0  0  0  0  0  0  0  0
    6.6791  -15.2176   21.2071 N   0  0  0  0  0  0  0  0  0  0  0  0
    8.5582  -14.6573   22.5530 C   0  0  0  0  0  0  0  0  0  0  0  0
    9.7425  -14.2743   22.7598 O   0  0  0  0  0  0  0  0  0  0  0  0
    7.8911  -15.2750   23.6428 N   0  0  0  0  0  0  0  0  0  0  0  0
    8.5485  -15.4228   24.9590 C   0  0  1  0  0  0  0  0  0  0  0  0
    7.5660  -15.3021   26.0639 C   0  0  0  0  0  0  0  0  0  0  0  0
    7.2037  -13.8876   26.2789 C   0  0  0  0  0  0  0  0  0  0  0  0
    8.1893  -12.9490   26.6162 C   0  0  0  0  0  0  0  0  0  0  0  0
    7.9180  -11.6121   26.8027 C   0  0  0  0  0  0  0  0  0  0  0  0
    6.6356  -11.1797   26.6535 C   0  0  0  0  0  0  0  0  0  0  0  0
    5.6252  -12.0514   26.3234 C   0  0  0  0  0  0  0  0  0  0  0  0
    5.9145  -13.3853   26.1404 C   0  0  0  0  0  0  0  0  0  0  0  0
    9.2184  -16.7219   24.9793 C   0  0  0  0  0  0  0  0  0  0  0  0
    9.0626  -17.5247   24.0262 O   0  0  0  0  0  0  0  0  0  0  0  0
   10.0399  -17.1110   26.0373 O   0  0  0  0  0  0  0  0  0  0  0  0
  1  2  1  0
  3  2  1  0
  3  4  2  0
  6  5  1  1
  6  7  1  0
  7  3  1  0
  8 10  1  0
  8  6  1  0
  9  8  2  0
 11 10  1  0
 11 12  1  1
 12 13  1  0
 13 14  2  0
 13 18  1  0
 14 15  1  0
 15 16  2  0
 17 16  1  0
 18 17  2  0
 19 11  1  0
 20 19  2  0
 21 19  1  0
M  END
$$$$
