GAF.pdb
     RDKit          3D

 21 21  0  0  1  0  0  0  0  0999 V2000
    7.3316  -12.6544   18.6338 N   0  0  0  0  0  0  0  0  0  0  0  0
    8.2686  -12.8023   19.7159 C   0  0  0  0  0  0  0  0  0  0  0  0
    7.9741  -14.0489   20.5113 C   0  0  0  0  0  0  0  0  0  0  0  0
    6.8197  -14.5129   20.5329 O   0  0  0  0  0  0  0  0  0  0  0  0
    9.7239  -17.0336   21.3871 C   0  0  0  0  0  0  0  0  0  0  0  0
    8.8315  -15.9444   21.9427 C   0  0  2  0  0  0  0  0  0  0  0  0
    9.0157  -14.6919   21.2349 N   0  0  0  0  0  0  0  0  0  0  0  0
    9.1091  -15.6994   23.3871 C   0  0  0  0  0  0  0  0  0  0  0  0
   10.0505  -14.9379   23.7421 O   0  0  0  0  0  0  0  0  0  0  0  0
    8.3480  -16.2950   24.4263 N   0  0  0  0  0  0  0  0  0  0  0  0
    8.6915  -16.0785   25.8482 C   0  0  1  0  0  0  0  0  0  0  0  0
    7.4890  -15.7217   26.6403 C   0  0  0  0  0  0  0  0  0  0  0  0
    7.2410  -14.2683   26.5740 C   0  0  0  0  0  0  0  0  0  0  0  0
    8.1661  -13.3679   27.1214 C   0  0  0  0  0  0  0  0  0  0  0  0
    8.0038  -12.0017   27.0669 C   0  0  0  0  0  0  0  0  0  0  0  0
    6.8961  -11.5002   26.4544 C   0  0  0  0  0  0  0  0  0  0  0  0
    5.9531  -12.3318   25.8986 C   0  0  0  0  0  0  0  0  0  0  0  0
    6.1314  -13.6958   25.9621 C   0  0  0  0  0  0  0  0  0  0  0  0
    9.3163  -17.3022   26.3471 C   0  0  0  0  0  0  0  0  0  0  0  0
    9.2245  -18.3683   25.6898 O   0  0  0  0  0  0  0  0  0  0  0  0
   10.0241  -17.3311   27.5487 O   0  0  0  0  0  0  0  0  0  0  0  0
  1  2  1  0
  3  2  1  0
  3  4  2  0
  6  5  1  6
  6  7  1  0
  7  3  1  0
  8 10  1  0
  8  6  1  0
  9  8  2  0
 11 10  1  0
 11 12  1  1
 12 13  1  0
 13 14  2  0
 13 18  1  0
 14 15  1  0
 15 16  2  0
 17 16  1  0
 18 17  2  0
 19 11  1  0
 20 19  2  0
 21 19  1  0
M  END
$$$$
