GAF.pdb
     RDKit          3D

 21 21  0  0  1  0  0  0  0  0999 V2000
    8.4857  -16.0804   15.1357 N   0  0  0  0  0  0  0  0  0  0  0  0
    9.6350  -16.1878   15.9949 C   0  0  0  0  0  0  0  0  0  0  0  0
    9.2290  -16.6311   17.3777 C   0  0  0  0  0  0  0  0  0  0  0  0
    8.2713  -16.0799   17.9498 O   0  0  0  0  0  0  0  0  0  0  0  0
   10.2823  -19.4675   19.6650 C   0  0  0  0  0  0  0  0  0  0  0  0
    9.6316  -18.1337   19.3669 C   0  0  2  0  0  0  0  0  0  0  0  0
    9.9410  -17.6778   18.0252 N   0  0  0  0  0  0  0  0  0  0  0  0
   10.0842  -17.0832   20.3235 C   0  0  0  0  0  0  0  0  0  0  0  0
   11.1465  -16.4354   20.1138 O   0  0  0  0  0  0  0  0  0  0  0  0
    9.3632  -16.7562   21.5013 N   0  0  0  0  0  0  0  0  0  0  0  0
    9.8783  -15.7575   22.4625 C   0  0  1  0  0  0  0  0  0  0  0  0
    8.8087  -14.8202   22.8844 C   0  0  0  0  0  0  0  0  0  0  0  0
    8.2953  -14.0679   21.7230 C   0  0  0  0  0  0  0  0  0  0  0  0
    9.0555  -13.0333   21.1592 C   0  0  0  0  0  0  0  0  0  0  0  0
    8.6429  -12.3140   20.0601 C   0  0  0  0  0  0  0  0  0  0  0  0
    7.4430  -12.6193   19.4935 C   0  0  0  0  0  0  0  0  0  0  0  0
    6.6523  -13.6230   20.0003 C   0  0  0  0  0  0  0  0  0  0  0  0
    7.0806  -14.3325   21.1002 C   0  0  0  0  0  0  0  0  0  0  0  0
   10.4341  -16.4826   23.6036 C   0  0  0  0  0  0  0  0  0  0  0  0
   11.1100  -15.8718   24.4680 O   0  0  0  0  0  0  0  0  0  0  0  0
   10.2384  -17.8534   23.7719 O   0  0  0  0  0  0  0  0  0  0  0  0
  1  2  1  0
  3  2  1  0
  3  4  2  0
  6  5  1  1
  6  7  1  0
  7  3  1  0
  8 10  1  0
  8  6  1  0
  9  8  2  0
 11 10  1  0
 11 12  1  1
 12 13  1  0
 13 14  2  0
 13 18  1  0
 14 15  1  0
 15 16  2  0
 17 16  1  0
 18 17  2  0
 19 11  1  0
 20 19  2  0
 21 19  1  0
M  END
$$$$
