GAF.pdb
     RDKit          3D

 21 21  0  0  1  0  0  0  0  0999 V2000
    7.5787  -12.4688   18.6111 N   0  0  0  0  0  0  0  0  0  0  0  0
    8.6202  -13.1569   19.3271 C   0  0  0  0  0  0  0  0  0  0  0  0
    8.0343  -14.1434   20.3053 C   0  0  0  0  0  0  0  0  0  0  0  0
    7.0263  -13.8368   20.9673 O   0  0  0  0  0  0  0  0  0  0  0  0
    8.5504  -17.8128   21.0038 C   0  0  0  0  0  0  0  0  0  0  0  0
    8.1439  -16.4121   21.4089 C   0  0  2  0  0  0  0  0  0  0  0  0
    8.6345  -15.4220   20.4694 N   0  0  0  0  0  0  0  0  0  0  0  0
    8.6714  -16.0631   22.7593 C   0  0  0  0  0  0  0  0  0  0  0  0
    9.8025  -15.5189   22.8882 O   0  0  0  0  0  0  0  0  0  0  0  0
    7.9489  -16.3166   23.9541 N   0  0  0  0  0  0  0  0  0  0  0  0
    8.5132  -15.9755   25.2777 C   0  0  1  0  0  0  0  0  0  0  0  0
    7.4447  -15.5855   26.2300 C   0  0  0  0  0  0  0  0  0  0  0  0
    7.2310  -14.1255   26.1948 C   0  0  0  0  0  0  0  0  0  0  0  0
    6.0380  -13.5740   26.6836 C   0  0  0  0  0  0  0  0  0  0  0  0
    5.7916  -12.2195   26.7025 C   0  0  0  0  0  0  0  0  0  0  0  0
    6.7479  -11.3757   26.2256 C   0  0  0  0  0  0  0  0  0  0  0  0
    7.9383  -11.8557   25.7334 C   0  0  0  0  0  0  0  0  0  0  0  0
    8.1681  -13.2135   25.7222 C   0  0  0  0  0  0  0  0  0  0  0  0
    9.2584  -17.1378   25.7575 C   0  0  0  0  0  0  0  0  0  0  0  0
    9.9863  -17.0415   26.7764 O   0  0  0  0  0  0  0  0  0  0  0  0
    9.1904  -18.3737   25.1143 O   0  0  0  0  0  0  0  0  0  0  0  0
  1  2  1  0
  3  2  1  0
  3  4  2  0
  6  5  1  6
  6  7  1  0
  7  3  1  0
  8 10  1  0
  8  6  1  0
  9  8  2  0
 11 10  1  0
 11 12  1  1
 12 13  1  0
 13 14  2  0
 13 18  1  0
 14 15  1  0
 15 16  2  0
 17 16  1  0
 18 17  2  0
 19 11  1  0
 20 19  2  0
 21 19  1  0
M  END
$$$$
