GAF.pdb
     RDKit          3D

 21 21  0  0  1  0  0  0  0  0999 V2000
    5.5669  -18.7193   20.3875 N   0  0  0  0  0  0  0  0  0  0  0  0
    5.4235  -17.4271   21.0042 C   0  0  0  0  0  0  0  0  0  0  0  0
    6.6877  -16.6195   20.8529 C   0  0  0  0  0  0  0  0  0  0  0  0
    7.7421  -17.1777   20.4994 O   0  0  0  0  0  0  0  0  0  0  0  0
    7.5320  -12.9473   20.8030 C   0  0  0  0  0  0  0  0  0  0  0  0
    7.8656  -14.3975   21.0810 C   0  0  2  0  0  0  0  0  0  0  0  0
    6.6728  -15.2219   21.1143 N   0  0  0  0  0  0  0  0  0  0  0  0
    8.5662  -14.5522   22.3882 C   0  0  0  0  0  0  0  0  0  0  0  0
    9.7517  -14.1462   22.5357 O   0  0  0  0  0  0  0  0  0  0  0  0
    7.9550  -15.1521   23.5198 N   0  0  0  0  0  0  0  0  0  0  0  0
    8.6808  -15.2870   24.8011 C   0  0  1  0  0  0  0  0  0  0  0  0
    7.7517  -15.1959   25.9540 C   0  0  0  0  0  0  0  0  0  0  0  0
    7.3716  -13.7910   26.1996 C   0  0  0  0  0  0  0  0  0  0  0  0
    8.3573  -12.8258   26.4505 C   0  0  0  0  0  0  0  0  0  0  0  0
    8.0675  -11.4962   26.6599 C   0  0  0  0  0  0  0  0  0  0  0  0
    6.7659  -11.0984   26.6222 C   0  0  0  0  0  0  0  0  0  0  0  0
    5.7544  -11.9974   26.3806 C   0  0  0  0  0  0  0  0  0  0  0  0
    6.0624  -13.3235   26.1731 C   0  0  0  0  0  0  0  0  0  0  0  0
    9.3845  -16.5680   24.7819 C   0  0  0  0  0  0  0  0  0  0  0  0
   10.1775  -16.8639   25.7097 O   0  0  0  0  0  0  0  0  0  0  0  0
    9.2051  -17.4920   23.7525 O   0  0  0  0  0  0  0  0  0  0  0  0
  1  2  1  0
  3  2  1  0
  3  4  2  0
  6  5  1  1
  6  7  1  0
  7  3  1  0
  8 10  1  0
  8  6  1  0
  9  8  2  0
 11 10  1  0
 11 12  1  1
 12 13  1  0
 13 14  2  0
 13 18  1  0
 14 15  1  0
 15 16  2  0
 17 16  1  0
 18 17  2  0
 19 11  1  0
 20 19  2  0
 21 19  1  0
M  END
$$$$
