GAF.pdb
     RDKit          3D

 21 21  0  0  1  0  0  0  0  0999 V2000
    8.6895  -15.2990   14.9584 N   0  0  0  0  0  0  0  0  0  0  0  0
    9.8490  -15.6935   15.7138 C   0  0  0  0  0  0  0  0  0  0  0  0
    9.4446  -16.3819   16.9929 C   0  0  0  0  0  0  0  0  0  0  0  0
    8.3516  -16.1134   17.5233 O   0  0  0  0  0  0  0  0  0  0  0  0
   10.8106  -19.2315   19.0632 C   0  0  0  0  0  0  0  0  0  0  0  0
   10.0664  -17.9244   18.8931 C   0  0  2  0  0  0  0  0  0  0  0  0
   10.3129  -17.3364   17.5904 N   0  0  0  0  0  0  0  0  0  0  0  0
   10.4714  -16.9306   19.9284 C   0  0  0  0  0  0  0  0  0  0  0  0
   11.4886  -16.2033   19.7601 O   0  0  0  0  0  0  0  0  0  0  0  0
    9.7529  -16.7473   21.1384 N   0  0  0  0  0  0  0  0  0  0  0  0
   10.1608  -15.7232   22.1240 C   0  0  1  0  0  0  0  0  0  0  0  0
    8.9925  -14.9405   22.5964 C   0  0  0  0  0  0  0  0  0  0  0  0
    8.3916  -14.1865   21.4789 C   0  0  0  0  0  0  0  0  0  0  0  0
    9.0783  -13.1071   20.9047 C   0  0  0  0  0  0  0  0  0  0  0  0
    8.5824  -12.3830   19.8439 C   0  0  0  0  0  0  0  0  0  0  0  0
    7.3709  -12.7288   19.3274 C   0  0  0  0  0  0  0  0  0  0  0  0
    6.6497  -13.7775   19.8469 C   0  0  0  0  0  0  0  0  0  0  0  0
    7.1609  -14.4911   20.9080 C   0  0  0  0  0  0  0  0  0  0  0  0
   10.8268  -16.4091   23.2298 C   0  0  0  0  0  0  0  0  0  0  0  0
   10.6664  -17.6441   23.3917 O   0  0  0  0  0  0  0  0  0  0  0  0
   11.6496  -15.7309   24.1291 O   0  0  0  0  0  0  0  0  0  0  0  0
  1  2  1  0
  3  2  1  0
  3  4  2  0
  6  5  1  1
  6  7  1  0
  7  3  1  0
  8 10  1  0
  8  6  1  0
  9  8  2  0
 11 10  1  0
 11 12  1  1
 12 13  1  0
 13 14  2  0
 13 18  1  0
 14 15  1  0
 15 16  2  0
 17 16  1  0
 18 17  2  0
 19 11  1  0
 20 19  2  0
 21 19  1  0
M  END
$$$$
