GAF.pdb
     RDKit          3D

 21 21  0  0  1  0  0  0  0  0999 V2000
    6.0143  -19.0198   20.2343 N   0  0  0  0  0  0  0  0  0  0  0  0
    5.7839  -17.8719   21.0711 C   0  0  0  0  0  0  0  0  0  0  0  0
    6.9787  -16.9523   21.0575 C   0  0  0  0  0  0  0  0  0  0  0  0
    8.1134  -17.4123   20.8360 O   0  0  0  0  0  0  0  0  0  0  0  0
    7.4135  -13.1956   21.0901 C   0  0  0  0  0  0  0  0  0  0  0  0
    7.9047  -14.6140   21.2853 C   0  0  2  0  0  0  0  0  0  0  0  0
    6.8066  -15.5614   21.2979 N   0  0  0  0  0  0  0  0  0  0  0  0
    8.6494  -14.7586   22.5691 C   0  0  0  0  0  0  0  0  0  0  0  0
    9.8228  -14.3102   22.6873 O   0  0  0  0  0  0  0  0  0  0  0  0
    8.0950  -15.3953   23.7099 N   0  0  0  0  0  0  0  0  0  0  0  0
    8.8307  -15.4467   24.9917 C   0  0  1  0  0  0  0  0  0  0  0  0
    7.9059  -15.3175   26.1444 C   0  0  0  0  0  0  0  0  0  0  0  0
    7.4816  -13.9135   26.3096 C   0  0  0  0  0  0  0  0  0  0  0  0
    6.1193  -13.5812   26.2999 C   0  0  0  0  0  0  0  0  0  0  0  0
    5.6610  -12.2949   26.4759 C   0  0  0  0  0  0  0  0  0  0  0  0
    6.5695  -11.2991   26.6682 C   0  0  0  0  0  0  0  0  0  0  0  0
    7.9186  -11.5617   26.6881 C   0  0  0  0  0  0  0  0  0  0  0  0
    8.3596  -12.8542   26.5105 C   0  0  0  0  0  0  0  0  0  0  0  0
    9.5641  -16.7104   25.0342 C   0  0  0  0  0  0  0  0  0  0  0  0
    9.3789  -17.5754   24.1427 O   0  0  0  0  0  0  0  0  0  0  0  0
   10.4795  -16.9974   26.0468 O   0  0  0  0  0  0  0  0  0  0  0  0
  1  2  1  0
  3  2  1  0
  3  4  2  0
  6  5  1  1
  6  7  1  0
  7  3  1  0
  8 10  1  0
  8  6  1  0
  9  8  2  0
 11 10  1  0
 11 12  1  1
 12 13  1  0
 13 14  2  0
 13 18  1  0
 14 15  1  0
 15 16  2  0
 17 16  1  0
 18 17  2  0
 19 11  1  0
 20 19  2  0
 21 19  1  0
M  END
$$$$
