GAF.pdb
     RDKit          3D

 21 21  0  0  1  0  0  0  0  0999 V2000
    6.3548  -19.0938   20.0889 N   0  0  0  0  0  0  0  0  0  0  0  0
    6.1103  -17.9818   20.9689 C   0  0  0  0  0  0  0  0  0  0  0  0
    7.2588  -17.0057   20.9283 C   0  0  0  0  0  0  0  0  0  0  0  0
    8.4115  -17.4130   20.6967 O   0  0  0  0  0  0  0  0  0  0  0  0
    7.5621  -13.2392   20.9539 C   0  0  0  0  0  0  0  0  0  0  0  0
    8.0852  -14.6363   21.2109 C   0  0  2  0  0  0  0  0  0  0  0  0
    7.0226  -15.6219   21.1548 N   0  0  0  0  0  0  0  0  0  0  0  0
    8.7320  -14.7356   22.5508 C   0  0  0  0  0  0  0  0  0  0  0  0
    9.8631  -14.2170   22.7601 O   0  0  0  0  0  0  0  0  0  0  0  0
    8.1276  -15.4047   23.6467 N   0  0  0  0  0  0  0  0  0  0  0  0
    8.7611  -15.4134   24.9828 C   0  0  1  0  0  0  0  0  0  0  0  0
    7.7398  -15.4188   26.0587 C   0  0  0  0  0  0  0  0  0  0  0  0
    7.2152  -14.0568   26.2779 C   0  0  0  0  0  0  0  0  0  0  0  0
    8.0956  -12.9853   26.4851 C   0  0  0  0  0  0  0  0  0  0  0  0
    7.6681  -11.6893   26.6682 C   0  0  0  0  0  0  0  0  0  0  0  0
    6.3308  -11.4344   26.6474 C   0  0  0  0  0  0  0  0  0  0  0  0
    5.4178  -12.4426   26.4485 C   0  0  0  0  0  0  0  0  0  0  0  0
    5.8629  -13.7331   26.2669 C   0  0  0  0  0  0  0  0  0  0  0  0
    9.6240  -16.5907   25.0593 C   0  0  0  0  0  0  0  0  0  0  0  0
    9.6034  -17.4464   24.1402 O   0  0  0  0  0  0  0  0  0  0  0  0
   10.4859  -16.8040   26.1351 O   0  0  0  0  0  0  0  0  0  0  0  0
  1  2  1  0
  3  2  1  0
  3  4  2  0
  6  5  1  1
  6  7  1  0
  7  3  1  0
  8 10  1  0
  8  6  1  0
  9  8  2  0
 11 10  1  0
 11 12  1  1
 12 13  1  0
 13 14  2  0
 13 18  1  0
 14 15  1  0
 15 16  2  0
 17 16  1  0
 18 17  2  0
 19 11  1  0
 20 19  2  0
 21 19  1  0
M  END
$$$$
