GAF.pdb
     RDKit          3D

 21 21  0  0  1  0  0  0  0  0999 V2000
    5.2908  -18.5370   20.1219 N   0  0  0  0  0  0  0  0  0  0  0  0
    5.5808  -17.8138   21.3317 C   0  0  0  0  0  0  0  0  0  0  0  0
    6.8118  -16.9599   21.1618 C   0  0  0  0  0  0  0  0  0  0  0  0
    7.9089  -17.4942   20.9183 O   0  0  0  0  0  0  0  0  0  0  0  0
    7.4344  -13.2494   20.8121 C   0  0  0  0  0  0  0  0  0  0  0  0
    7.8596  -14.6623   21.1502 C   0  0  2  0  0  0  0  0  0  0  0  0
    6.7169  -15.5461   21.2802 N   0  0  0  0  0  0  0  0  0  0  0  0
    8.6221  -14.7079   22.4308 C   0  0  0  0  0  0  0  0  0  0  0  0
    9.7935  -14.2441   22.4999 O   0  0  0  0  0  0  0  0  0  0  0  0
    8.0878  -15.2633   23.6224 N   0  0  0  0  0  0  0  0  0  0  0  0
    8.8661  -15.2720   24.8797 C   0  0  1  0  0  0  0  0  0  0  0  0
    7.9712  -15.2440   26.0626 C   0  0  0  0  0  0  0  0  0  0  0  0
    7.4349  -13.8848   26.2708 C   0  0  0  0  0  0  0  0  0  0  0  0
    8.3008  -12.7829   26.3169 C   0  0  0  0  0  0  0  0  0  0  0  0
    7.8587  -11.4893   26.4812 C   0  0  0  0  0  0  0  0  0  0  0  0
    6.5209  -11.2678   26.6049 C   0  0  0  0  0  0  0  0  0  0  0  0
    5.6218  -12.3069   26.5676 C   0  0  0  0  0  0  0  0  0  0  0  0
    6.0814  -13.5945   26.4023 C   0  0  0  0  0  0  0  0  0  0  0  0
    9.7078  -16.4670   24.8747 C   0  0  0  0  0  0  0  0  0  0  0  0
   10.5436  -16.6514   25.7938 O   0  0  0  0  0  0  0  0  0  0  0  0
    9.6161  -17.4287   23.8686 O   0  0  0  0  0  0  0  0  0  0  0  0
  1  2  1  0
  3  2  1  0
  3  4  2  0
  6  5  1  1
  6  7  1  0
  7  3  1  0
  8 10  1  0
  8  6  1  0
  9  8  2  0
 11 10  1  0
 11 12  1  1
 12 13  1  0
 13 14  2  0
 13 18  1  0
 14 15  1  0
 15 16  2  0
 17 16  1  0
 18 17  2  0
 19 11  1  0
 20 19  2  0
 21 19  1  0
M  END
$$$$
