GAF.pdb
     RDKit          3D

 21 21  0  0  1  0  0  0  0  0999 V2000
    5.1639  -18.3787   22.9723 N   0  0  0  0  0  0  0  0  0  0  0  0
    5.2987  -17.8986   21.6224 C   0  0  0  0  0  0  0  0  0  0  0  0
    6.5898  -17.1387   21.4520 C   0  0  0  0  0  0  0  0  0  0  0  0
    7.6264  -17.7426   21.1220 O   0  0  0  0  0  0  0  0  0  0  0  0
    7.5196  -13.5144   21.1441 C   0  0  0  0  0  0  0  0  0  0  0  0
    7.8284  -14.9402   21.5483 C   0  0  2  0  0  0  0  0  0  0  0  0
    6.6203  -15.7337   21.6687 N   0  0  0  0  0  0  0  0  0  0  0  0
    8.5422  -14.9909   22.8565 C   0  0  0  0  0  0  0  0  0  0  0  0
    9.6765  -14.4553   22.9926 O   0  0  0  0  0  0  0  0  0  0  0  0
    8.0005  -15.6305   24.0017 N   0  0  0  0  0  0  0  0  0  0  0  0
    8.7085  -15.6062   25.2996 C   0  0  1  0  0  0  0  0  0  0  0  0
    7.7655  -15.3625   26.4186 C   0  0  0  0  0  0  0  0  0  0  0  0
    7.3347  -13.9509   26.4311 C   0  0  0  0  0  0  0  0  0  0  0  0
    5.9805  -13.6240   26.2722 C   0  0  0  0  0  0  0  0  0  0  0  0
    5.5142  -12.3288   26.3019 C   0  0  0  0  0  0  0  0  0  0  0  0
    6.4064  -11.3185   26.4941 C   0  0  0  0  0  0  0  0  0  0  0  0
    7.7471  -11.5752   26.6563 C   0  0  0  0  0  0  0  0  0  0  0  0
    8.1961  -12.8766   26.6240 C   0  0  0  0  0  0  0  0  0  0  0  0
    9.4013  -16.8842   25.4534 C   0  0  0  0  0  0  0  0  0  0  0  0
   10.0636  -17.1192   26.4941 O   0  0  0  0  0  0  0  0  0  0  0  0
    9.3536  -17.8713   24.4690 O   0  0  0  0  0  0  0  0  0  0  0  0
  1  2  1  0
  3  2  1  0
  3  4  2  0
  6  5  1  1
  6  7  1  0
  7  3  1  0
  8 10  1  0
  8  6  1  0
  9  8  2  0
 11 10  1  0
 11 12  1  1
 12 13  1  0
 13 14  2  0
 13 18  1  0
 14 15  1  0
 15 16  2  0
 17 16  1  0
 18 17  2  0
 19 11  1  0
 20 19  2  0
 21 19  1  0
M  END
$$$$
