GAF.pdb
     RDKit          3D

 21 21  0  0  1  0  0  0  0  0999 V2000
    7.3700  -12.3759   18.9616 N   0  0  0  0  0  0  0  0  0  0  0  0
    8.5049  -13.1516   19.3871 C   0  0  0  0  0  0  0  0  0  0  0  0
    8.1233  -14.0877   20.5058 C   0  0  0  0  0  0  0  0  0  0  0  0
    7.0491  -13.9245   21.1123 O   0  0  0  0  0  0  0  0  0  0  0  0
    9.2046  -17.5521   21.3313 C   0  0  0  0  0  0  0  0  0  0  0  0
    8.5962  -16.2318   21.7533 C   0  0  2  0  0  0  0  0  0  0  0  0
    8.9913  -15.1549   20.8656 N   0  0  0  0  0  0  0  0  0  0  0  0
    9.0109  -15.8606   23.1367 C   0  0  0  0  0  0  0  0  0  0  0  0
   10.1069  -15.2708   23.3443 O   0  0  0  0  0  0  0  0  0  0  0  0
    8.2154  -16.1424   24.2776 N   0  0  0  0  0  0  0  0  0  0  0  0
    8.7107  -15.8681   25.6437 C   0  0  1  0  0  0  0  0  0  0  0  0
    7.5905  -15.5644   26.5676 C   0  0  0  0  0  0  0  0  0  0  0  0
    7.2386  -14.1328   26.4975 C   0  0  0  0  0  0  0  0  0  0  0  0
    8.2116  -13.1531   26.7418 C   0  0  0  0  0  0  0  0  0  0  0  0
    7.9511  -11.8033   26.6651 C   0  0  0  0  0  0  0  0  0  0  0  0
    6.6929  -11.3992   26.3373 C   0  0  0  0  0  0  0  0  0  0  0  0
    5.6959  -12.3117   26.0862 C   0  0  0  0  0  0  0  0  0  0  0  0
    5.9740  -13.6581   26.1674 C   0  0  0  0  0  0  0  0  0  0  0  0
    9.4667  -17.0381   26.0869 C   0  0  0  0  0  0  0  0  0  0  0  0
   10.1365  -16.9890   27.1481 O   0  0  0  0  0  0  0  0  0  0  0  0
    9.4724  -18.2297   25.3619 O   0  0  0  0  0  0  0  0  0  0  0  0
  1  2  1  0
  3  2  1  0
  3  4  2  0
  6  5  1  6
  6  7  1  0
  7  3  1  0
  8 10  1  0
  8  6  1  0
  9  8  2  0
 11 10  1  0
 11 12  1  1
 12 13  1  0
 13 14  2  0
 13 18  1  0
 14 15  1  0
 15 16  2  0
 17 16  1  0
 18 17  2  0
 19 11  1  0
 20 19  2  0
 21 19  1  0
M  END
$$$$
