SLP.pdb
     RDKit          3D

 22 22  0  0  1  0  0  0  0  0999 V2000
    7.3556  -17.7308   20.7317 O   0  0  0  0  0  0  0  0  0  0  0  0
    6.2631  -16.8474   20.6920 C   0  0  0  0  0  0  0  0  0  0  0  0
    6.8294  -15.4671   20.6845 C   0  0  2  0  0  0  0  0  0  0  0  0
    7.6497  -15.3433   19.4905 N   0  0  0  0  0  0  0  0  0  0  0  0
    7.5820  -15.0930   21.8930 C   0  0  0  0  0  0  0  0  0  0  0  0
    8.8326  -15.1005   21.8492 O   0  0  0  0  0  0  0  0  0  0  0  0
    6.1081  -12.4250   27.1153 C   0  0  0  0  0  0  0  0  0  0  0  0
    7.2977  -13.0588   26.3676 C   0  0  2  0  0  0  0  0  0  0  0  0
    8.3233  -11.9926   26.2116 C   0  0  0  0  0  0  0  0  0  0  0  0
    6.7367  -13.5933   25.1120 C   0  0  0  0  0  0  0  0  0  0  0  0
    7.6836  -14.4412   24.2672 C   0  0  2  0  0  0  0  0  0  0  0  0
    6.9119  -14.7280   23.0837 N   0  0  0  0  0  0  0  0  0  0  0  0
    8.2697  -15.5319   24.9636 C   0  0  0  0  0  0  0  0  0  0  0  0
    7.5178  -16.2973   25.6548 O   0  0  0  0  0  0  0  0  0  0  0  0
    9.6663  -15.8817   24.9749 N   0  0  0  0  0  0  0  0  0  0  0  0
   10.7616  -15.1897   24.3877 C   0  0  0  0  0  0  0  0  0  0  0  0
   11.9867  -15.5970   25.1662 C   0  0  0  0  0  0  0  0  0  0  0  0
   11.6490  -17.0828   25.3754 C   0  0  0  0  0  0  0  0  0  0  0  0
   10.1926  -17.0714   25.6490 C   0  0  1  0  0  0  0  0  0  0  0  0
    9.8537  -17.0709   27.0869 C   0  0  0  0  0  0  0  0  0  0  0  0
    9.5585  -15.9285   27.7763 O   0  0  0  0  0  0  0  0  0  0  0  0
    9.8396  -18.1718   27.6912 O   0  0  0  0  0  0  0  0  0  0  0  0
  1  2  1  0
  2  3  1  0
  3  4  1  6
  3  5  1  0
  5  6  2  0
  8  7  1  1
  9  8  1  0
 11 10  1  1
 10  8  1  0
 11 13  1  0
 12  5  1  0
 12 11  1  0
 13 15  1  0
 14 13  2  0
 15 19  1  0
 15 16  1  0
 16 17  1  0
 18 17  1  0
 19 20  1  1
 19 18  1  0
 20 22  2  0
 20 21  1  0
M  END
$$$$
