SLP.pdb
     RDKit          3D

 22 22  0  0  1  0  0  0  0  0999 V2000
   10.4546  -19.3247   16.8252 O   0  0  0  0  0  0  0  0  0  0  0  0
    9.2173  -18.7770   16.4448 C   0  0  0  0  0  0  0  0  0  0  0  0
    9.4554  -17.3289   16.1759 C   0  0  2  0  0  0  0  0  0  0  0  0
   10.3498  -17.2431   15.0329 N   0  0  0  0  0  0  0  0  0  0  0  0
    9.9704  -16.5567   17.3186 C   0  0  0  0  0  0  0  0  0  0  0  0
   11.2080  -16.4198   17.4432 O   0  0  0  0  0  0  0  0  0  0  0  0
    9.4610  -12.4015   19.1660 C   0  0  0  0  0  0  0  0  0  0  0  0
    8.2112  -13.3000   19.0835 C   0  0  2  0  0  0  0  0  0  0  0  0
    7.0549  -12.4663   19.5087 C   0  0  0  0  0  0  0  0  0  0  0  0
    8.5053  -14.4665   19.9376 C   0  0  0  0  0  0  0  0  0  0  0  0
    9.6305  -15.3781   19.4557 C   0  0  2  0  0  0  0  0  0  0  0  0
    9.0898  -15.9753   18.2601 N   0  0  0  0  0  0  0  0  0  0  0  0
   10.1527  -16.2406   20.4564 C   0  0  0  0  0  0  0  0  0  0  0  0
    9.4787  -17.2699   20.7958 O   0  0  0  0  0  0  0  0  0  0  0  0
   11.4022  -16.0767   21.1528 N   0  0  0  0  0  0  0  0  0  0  0  0
   12.3796  -15.0550   20.9981 C   0  0  0  0  0  0  0  0  0  0  0  0
   13.1354  -14.9906   22.3009 C   0  0  0  0  0  0  0  0  0  0  0  0
   13.2017  -16.4960   22.6087 C   0  0  0  0  0  0  0  0  0  0  0  0
   11.8673  -16.9923   22.1979 C   0  0  1  0  0  0  0  0  0  0  0  0
   10.8953  -17.0838   23.3066 C   0  0  0  0  0  0  0  0  0  0  0  0
   11.0169  -17.9886   24.3234 O   0  0  0  0  0  0  0  0  0  0  0  0
    9.9201  -16.2923   23.3044 O   0  0  0  0  0  0  0  0  0  0  0  0
  1  2  1  0
  2  3  1  0
  3  4  1  6
  3  5  1  0
  5  6  2  0
  8  7  1  1
  9  8  1  0
 11 10  1  1
 10  8  1  0
 11 13  1  0
 12  5  1  0
 12 11  1  0
 13 15  1  0
 14 13  2  0
 15 19  1  0
 15 16  1  0
 16 17  1  0
 18 17  1  0
 19 20  1  1
 19 18  1  0
 20 22  2  0
 20 21  1  0
M  END
$$$$
