SLP.pdb
     RDKit          3D

 22 22  0  0  1  0  0  0  0  0999 V2000
   10.1616  -18.1372   22.1042 O   0  0  0  0  0  0  0  0  0  0  0  0
    8.9632  -17.6073   21.5959 C   0  0  0  0  0  0  0  0  0  0  0  0
    9.1758  -16.1384   21.4439 C   0  0  2  0  0  0  0  0  0  0  0  0
   10.3422  -15.9562   20.5953 N   0  0  0  0  0  0  0  0  0  0  0  0
    9.3091  -15.3916   22.7056 C   0  0  0  0  0  0  0  0  0  0  0  0
   10.4505  -15.0388   23.0780 O   0  0  0  0  0  0  0  0  0  0  0  0
    5.4067  -12.9872   26.6851 C   0  0  0  0  0  0  0  0  0  0  0  0
    6.9058  -13.1027   26.3452 C   0  0  2  0  0  0  0  0  0  0  0  0
    7.4140  -11.7155   26.1710 C   0  0  0  0  0  0  0  0  0  0  0  0
    6.9752  -13.9628   25.1485 C   0  0  0  0  0  0  0  0  0  0  0  0
    8.3572  -14.5086   24.7999 C   0  0  2  0  0  0  0  0  0  0  0  0
    8.1736  -15.0727   23.4859 N   0  0  0  0  0  0  0  0  0  0  0  0
    8.9314  -15.3307   25.8061 C   0  0  0  0  0  0  0  0  0  0  0  0
    8.6235  -16.5689   25.8402 O   0  0  0  0  0  0  0  0  0  0  0  0
    9.8553  -14.9068   26.8257 N   0  0  0  0  0  0  0  0  0  0  0  0
   10.2373  -13.5849   27.1864 C   0  0  0  0  0  0  0  0  0  0  0  0
   10.7049  -13.6545   28.6179 C   0  0  0  0  0  0  0  0  0  0  0  0
   11.4434  -15.0023   28.5586 C   0  0  0  0  0  0  0  0  0  0  0  0
   10.5693  -15.8385   27.7027 C   0  0  1  0  0  0  0  0  0  0  0  0
    9.6315  -16.6932   28.4593 C   0  0  0  0  0  0  0  0  0  0  0  0
    8.2774  -16.5114   28.4295 O   0  0  0  0  0  0  0  0  0  0  0  0
   10.1095  -17.6225   29.1559 O   0  0  0  0  0  0  0  0  0  0  0  0
  1  2  1  0
  2  3  1  0
  3  4  1  6
  3  5  1  0
  5  6  2  0
  8  7  1  6
  9  8  1  0
 11 10  1  1
 10  8  1  0
 11 13  1  0
 12  5  1  0
 12 11  1  0
 13 15  1  0
 14 13  2  0
 15 19  1  0
 15 16  1  0
 16 17  1  0
 18 17  1  0
 19 20  1  1
 19 18  1  0
 20 22  2  0
 20 21  1  0
M  END
$$$$
