SLP.pdb
     RDKit          3D

 22 22  0  0  1  0  0  0  0  0999 V2000
    6.6297  -19.9062   23.2958 O   0  0  0  0  0  0  0  0  0  0  0  0
    5.3723  -19.3294   23.5442 C   0  0  0  0  0  0  0  0  0  0  0  0
    5.3125  -18.0727   22.7423 C   0  0  2  0  0  0  0  0  0  0  0  0
    5.4350  -18.4471   21.3427 N   0  0  0  0  0  0  0  0  0  0  0  0
    6.3020  -17.0472   23.1114 C   0  0  0  0  0  0  0  0  0  0  0  0
    7.3095  -16.8944   22.3850 O   0  0  0  0  0  0  0  0  0  0  0  0
    6.5001  -12.6110   27.2396 C   0  0  0  0  0  0  0  0  0  0  0  0
    7.3652  -13.3378   26.1911 C   0  0  2  0  0  0  0  0  0  0  0  0
    7.7850  -12.3135   25.1973 C   0  0  0  0  0  0  0  0  0  0  0  0
    6.5195  -14.4270   25.6665 C   0  0  0  0  0  0  0  0  0  0  0  0
    7.2010  -15.3935   24.7017 C   0  0  2  0  0  0  0  0  0  0  0  0
    6.1234  -16.2441   24.2616 N   0  0  0  0  0  0  0  0  0  0  0  0
    8.3700  -16.0108   25.2218 C   0  0  0  0  0  0  0  0  0  0  0  0
    8.2969  -16.6290   26.3360 O   0  0  0  0  0  0  0  0  0  0  0  0
    9.6727  -16.0173   24.6086 N   0  0  0  0  0  0  0  0  0  0  0  0
   10.1289  -15.2803   23.4808 C   0  0  0  0  0  0  0  0  0  0  0  0
   11.6258  -15.1714   23.6228 C   0  0  0  0  0  0  0  0  0  0  0  0
   11.9134  -16.5810   24.1664 C   0  0  0  0  0  0  0  0  0  0  0  0
   10.7900  -16.8274   25.1008 C   0  0  1  0  0  0  0  0  0  0  0  0
   11.1038  -16.5140   26.5100 C   0  0  0  0  0  0  0  0  0  0  0  0
   10.5863  -15.4281   27.1586 O   0  0  0  0  0  0  0  0  0  0  0  0
   11.8798  -17.2842   27.1281 O   0  0  0  0  0  0  0  0  0  0  0  0
  1  2  1  0
  2  3  1  0
  3  4  1  6
  3  5  1  0
  5  6  2  0
  8  7  1  1
  9  8  1  0
 11 10  1  1
 10  8  1  0
 11 13  1  0
 12  5  1  0
 12 11  1  0
 13 15  1  0
 14 13  2  0
 15 19  1  0
 15 16  1  0
 16 17  1  0
 18 17  1  0
 19 20  1  1
 19 18  1  0
 20 22  2  0
 20 21  1  0
M  END
$$$$
