SLP.pdb
     RDKit          3D

 22 22  0  0  1  0  0  0  0  0999 V2000
    8.2301  -19.5312   24.0922 O   0  0  0  0  0  0  0  0  0  0  0  0
    6.9548  -19.8603   23.6014 C   0  0  0  0  0  0  0  0  0  0  0  0
    5.9974  -18.8965   24.2183 C   0  0  2  0  0  0  0  0  0  0  0  0
    4.6572  -19.3240   23.8509 N   0  0  0  0  0  0  0  0  0  0  0  0
    6.2228  -17.4832   23.8732 C   0  0  0  0  0  0  0  0  0  0  0  0
    5.7635  -17.0470   22.7939 O   0  0  0  0  0  0  0  0  0  0  0  0
    6.5210  -12.6491   25.1116 C   0  0  0  0  0  0  0  0  0  0  0  0
    6.8529  -13.7109   26.1787 C   0  0  2  0  0  0  0  0  0  0  0  0
    7.3506  -12.9773   27.3733 C   0  0  0  0  0  0  0  0  0  0  0  0
    7.8210  -14.6237   25.5411 C   0  0  0  0  0  0  0  0  0  0  0  0
    7.3406  -15.3240   24.2730 C   0  0  2  0  0  0  0  0  0  0  0  0
    6.9408  -16.6278   24.7406 N   0  0  0  0  0  0  0  0  0  0  0  0
    8.2525  -15.2543   23.1860 C   0  0  0  0  0  0  0  0  0  0  0  0
    9.2540  -16.0454   23.1700 O   0  0  0  0  0  0  0  0  0  0  0  0
    8.1678  -14.3597   22.0610 N   0  0  0  0  0  0  0  0  0  0  0  0
    7.2670  -13.2795   21.8492 C   0  0  0  0  0  0  0  0  0  0  0  0
    7.9514  -12.3386   20.8905 C   0  0  0  0  0  0  0  0  0  0  0  0
    8.6083  -13.3796   19.9683 C   0  0  0  0  0  0  0  0  0  0  0  0
    9.0658  -14.4324   20.9056 C   0  0  1  0  0  0  0  0  0  0  0  0
   10.4798  -14.2984   21.3121 C   0  0  0  0  0  0  0  0  0  0  0  0
   11.5194  -14.5005   20.4485 O   0  0  0  0  0  0  0  0  0  0  0  0
   10.7251  -13.9857   22.5034 O   0  0  0  0  0  0  0  0  0  0  0  0
  1  2  1  0
  2  3  1  0
  3  4  1  6
  3  5  1  0
  5  6  2  0
  8  7  1  6
  9  8  1  0
 11 10  1  1
 10  8  1  0
 11 13  1  0
 12  5  1  0
 12 11  1  0
 13 15  1  0
 14 13  2  0
 15 19  1  0
 15 16  1  0
 16 17  1  0
 18 17  1  0
 19 20  1  1
 19 18  1  0
 20 22  2  0
 20 21  1  0
M  END
$$$$
