LGI.pdb
     RDKit          3D

 21 20  0  0  1  0  0  0  0  0999 V2000
    3.4484  -19.7260   19.6440 C   0  0  0  0  0  0  0  0  0  0  0  0
    2.8817  -19.9519   21.0298 C   0  0  2  0  0  0  0  0  0  0  0  0
    1.3716  -20.0754   20.9741 C   0  0  0  0  0  0  0  0  0  0  0  0
    3.2828  -18.7702   21.9079 C   0  0  0  0  0  0  0  0  0  0  0  0
    4.7940  -18.6817   21.8358 C   0  0  2  0  0  0  0  0  0  0  0  0
    5.3420  -19.8425   22.4979 N   0  0  0  0  0  0  0  0  0  0  0  0
    5.2324  -17.4312   22.4769 C   0  0  0  0  0  0  0  0  0  0  0  0
    5.0110  -17.2235   23.6917 O   0  0  0  0  0  0  0  0  0  0  0  0
    5.9116  -16.4617   21.6945 N   0  0  0  0  0  0  0  0  0  0  0  0
    6.1904  -15.1251   22.1659 C   0  0  0  0  0  0  0  0  0  0  0  0
    7.2659  -15.2140   23.1839 C   0  0  0  0  0  0  0  0  0  0  0  0
    8.4511  -15.4635   22.8547 O   0  0  0  0  0  0  0  0  0  0  0  0
    6.3142  -11.4122   26.6271 C   0  0  0  0  0  0  0  0  0  0  0  0
    6.9338  -12.4440   25.7000 C   0  0  0  0  0  0  0  0  0  0  0  0
    7.5202  -13.5948   26.4543 C   0  0  2  0  0  0  0  0  0  0  0  0
    8.5141  -13.1824   27.4920 C   0  0  0  0  0  0  0  0  0  0  0  0
    7.9575  -14.6652   25.5159 C   0  0  2  0  0  0  0  0  0  0  0  0
    6.9352  -15.0121   24.5437 N   0  0  0  0  0  0  0  0  0  0  0  0
    8.5054  -15.8835   26.1709 C   0  0  0  0  0  0  0  0  0  0  0  0
    9.8577  -15.9418   26.5693 O   0  0  0  0  0  0  0  0  0  0  0  0
    7.8437  -16.9191   26.4156 O   0  0  0  0  0  0  0  0  0  0  0  0
  2  4  1  0
  2  1  1  6
  3  2  1  0
  5  7  1  0
  5  4  1  0
  5  6  1  1
  7  9  1  0
  8  7  2  0
  9 10  1  0
 10 11  1  0
 11 12  2  0
 11 18  1  0
 14 13  1  0
 15 16  1  6
 15 14  1  0
 17 15  1  0
 17 18  1  1
 19 20  1  0
 19 17  1  0
 21 19  2  0
M  END
$$$$
