LGI.pdb
     RDKit          3D

 21 20  0  0  1  0  0  0  0  0999 V2000
    8.9863  -13.8815   18.7554 C   0  0  0  0  0  0  0  0  0  0  0  0
    7.7044  -13.7535   19.5509 C   0  0  2  0  0  0  0  0  0  0  0  0
    7.1807  -12.3319   19.4920 C   0  0  0  0  0  0  0  0  0  0  0  0
    7.9977  -14.1486   20.9954 C   0  0  0  0  0  0  0  0  0  0  0  0
    7.8615  -15.6567   21.0586 C   0  0  2  0  0  0  0  0  0  0  0  0
    6.5180  -16.0017   20.6565 N   0  0  0  0  0  0  0  0  0  0  0  0
    8.1528  -16.1075   22.4294 C   0  0  0  0  0  0  0  0  0  0  0  0
    9.3113  -16.0243   22.8974 O   0  0  0  0  0  0  0  0  0  0  0  0
    7.0974  -16.6395   23.2145 N   0  0  0  0  0  0  0  0  0  0  0  0
    7.3068  -17.2369   24.5129 C   0  0  0  0  0  0  0  0  0  0  0  0
    8.4228  -16.5165   25.1734 C   0  0  0  0  0  0  0  0  0  0  0  0
    9.4844  -16.2591   24.5552 O   0  0  0  0  0  0  0  0  0  0  0  0
    7.3730  -12.3033   27.8526 C   0  0  0  0  0  0  0  0  0  0  0  0
    8.1039  -13.3819   27.0714 C   0  0  0  0  0  0  0  0  0  0  0  0
    8.9371  -14.2502   27.9597 C   0  0  2  0  0  0  0  0  0  0  0  0
   10.0116  -13.5044   28.6837 C   0  0  0  0  0  0  0  0  0  0  0  0
    9.3652  -15.4791   27.2358 C   0  0  2  0  0  0  0  0  0  0  0  0
    8.2737  -16.1196   26.5223 N   0  0  0  0  0  0  0  0  0  0  0  0
   10.1105  -16.4640   28.0652 C   0  0  0  0  0  0  0  0  0  0  0  0
    9.4222  -17.3983   28.8678 O   0  0  0  0  0  0  0  0  0  0  0  0
   11.3596  -16.5470   28.1215 O   0  0  0  0  0  0  0  0  0  0  0  0
  2  4  1  0
  2  1  1  6
  3  2  1  0
  5  7  1  0
  5  4  1  0
  5  6  1  1
  7  9  1  0
  8  7  2  0
  9 10  1  0
 10 11  1  0
 11 12  2  0
 11 18  1  0
 14 13  1  0
 15 16  1  6
 15 14  1  0
 17 15  1  0
 17 18  1  1
 19 20  1  0
 19 17  1  0
 21 19  2  0
M  END
$$$$
