LGI.pdb
     RDKit          3D

 21 20  0  0  1  0  0  0  0  0999 V2000
    8.4303  -18.6430   17.4829 C   0  0  0  0  0  0  0  0  0  0  0  0
    7.2460  -19.4651   17.9459 C   0  0  2  0  0  0  0  0  0  0  0  0
    6.2712  -19.6842   16.8055 C   0  0  0  0  0  0  0  0  0  0  0  0
    6.5633  -18.7177   19.0878 C   0  0  0  0  0  0  0  0  0  0  0  0
    7.6346  -18.4650   20.1297 C   0  0  2  0  0  0  0  0  0  0  0  0
    7.9780  -19.7308   20.7342 N   0  0  0  0  0  0  0  0  0  0  0  0
    7.1209  -17.5080   21.1233 C   0  0  0  0  0  0  0  0  0  0  0  0
    6.8090  -16.3427   20.7873 O   0  0  0  0  0  0  0  0  0  0  0  0
    6.9842  -17.9276   22.4718 N   0  0  0  0  0  0  0  0  0  0  0  0
    6.3572  -17.1156   23.4888 C   0  0  0  0  0  0  0  0  0  0  0  0
    7.4094  -16.2846   24.1238 C   0  0  0  0  0  0  0  0  0  0  0  0
    8.5803  -16.2647   23.6723 O   0  0  0  0  0  0  0  0  0  0  0  0
    5.5727  -11.7619   26.4014 C   0  0  0  0  0  0  0  0  0  0  0  0
    6.4503  -12.7484   25.6499 C   0  0  0  0  0  0  0  0  0  0  0  0
    7.4004  -13.4598   26.5601 C   0  0  2  0  0  0  0  0  0  0  0  0
    8.3222  -12.5406   27.2953 C   0  0  0  0  0  0  0  0  0  0  0  0
    8.0405  -14.6045   25.8549 C   0  0  2  0  0  0  0  0  0  0  0  0
    7.0727  -15.5074   25.2559 N   0  0  0  0  0  0  0  0  0  0  0  0
    9.0405  -15.3542   26.6621 C   0  0  0  0  0  0  0  0  0  0  0  0
    8.6608  -16.4924   27.4045 O   0  0  0  0  0  0  0  0  0  0  0  0
   10.2540  -15.0542   26.7499 O   0  0  0  0  0  0  0  0  0  0  0  0
  2  4  1  0
  2  1  1  6
  3  2  1  0
  5  7  1  0
  5  4  1  0
  5  6  1  1
  7  9  1  0
  8  7  2  0
  9 10  1  0
 10 11  1  0
 11 12  2  0
 11 18  1  0
 14 13  1  0
 15 16  1  6
 15 14  1  0
 17 15  1  0
 17 18  1  1
 19 20  1  0
 19 17  1  0
 21 19  2  0
M  END
$$$$
