LGI.pdb
     RDKit          3D

 21 20  0  0  1  0  0  0  0  0999 V2000
    9.1642  -13.0792   19.3998 C   0  0  0  0  0  0  0  0  0  0  0  0
    7.8327  -13.6048   18.9063 C   0  0  2  0  0  0  0  0  0  0  0  0
    6.9213  -12.4593   18.5111 C   0  0  0  0  0  0  0  0  0  0  0  0
    7.1973  -14.4226   20.0270 C   0  0  0  0  0  0  0  0  0  0  0  0
    8.1170  -15.6036   20.2641 C   0  0  2  0  0  0  0  0  0  0  0  0
    7.9927  -16.5002   19.1387 N   0  0  0  0  0  0  0  0  0  0  0  0
    7.7400  -16.2590   21.5272 C   0  0  0  0  0  0  0  0  0  0  0  0
    7.1107  -17.3415   21.5231 O   0  0  0  0  0  0  0  0  0  0  0  0
    8.1018  -15.6431   22.7532 N   0  0  0  0  0  0  0  0  0  0  0  0
    7.7548  -16.1938   24.0428 C   0  0  0  0  0  0  0  0  0  0  0  0
    8.9188  -16.0146   24.9449 C   0  0  0  0  0  0  0  0  0  0  0  0
   10.0806  -15.8892   24.4872 O   0  0  0  0  0  0  0  0  0  0  0  0
    8.4277  -12.1172   27.9156 C   0  0  0  0  0  0  0  0  0  0  0  0
    8.7854  -13.3819   27.1535 C   0  0  0  0  0  0  0  0  0  0  0  0
    9.4770  -14.3835   28.0230 C   0  0  2  0  0  0  0  0  0  0  0  0
   10.6144  -13.8089   28.8048 C   0  0  0  0  0  0  0  0  0  0  0  0
    9.7695  -15.6262   27.2565 C   0  0  2  0  0  0  0  0  0  0  0  0
    8.7001  -15.9867   26.3416 N   0  0  0  0  0  0  0  0  0  0  0  0
   10.1749  -16.7913   28.0882 C   0  0  0  0  0  0  0  0  0  0  0  0
   11.5299  -17.0049   28.4185 O   0  0  0  0  0  0  0  0  0  0  0  0
    9.3839  -17.6475   28.5481 O   0  0  0  0  0  0  0  0  0  0  0  0
  2  4  1  0
  2  1  1  1
  3  2  1  0
  5  7  1  0
  5  4  1  0
  5  6  1  6
  7  9  1  0
  8  7  2  0
  9 10  1  0
 10 11  1  0
 11 12  2  0
 11 18  1  0
 14 13  1  0
 15 16  1  6
 15 14  1  0
 17 15  1  0
 17 18  1  1
 19 20  1  0
 19 17  1  0
 21 19  2  0
M  END
$$$$
