LGI.pdb
     RDKit          3D

 21 20  0  0  1  0  0  0  0  0999 V2000
    6.7737  -17.9702   17.9949 C   0  0  0  0  0  0  0  0  0  0  0  0
    7.7296  -19.0765   18.3885 C   0  0  2  0  0  0  0  0  0  0  0  0
    7.2734  -20.4037   17.8147 C   0  0  0  0  0  0  0  0  0  0  0  0
    7.7756  -19.1480   19.9121 C   0  0  0  0  0  0  0  0  0  0  0  0
    8.2757  -17.7977   20.3852 C   0  0  2  0  0  0  0  0  0  0  0  0
    9.4069  -17.4282   19.5668 N   0  0  0  0  0  0  0  0  0  0  0  0
    8.6405  -17.8931   21.8081 C   0  0  0  0  0  0  0  0  0  0  0  0
    9.7941  -18.2389   22.1509 O   0  0  0  0  0  0  0  0  0  0  0  0
    7.6616  -17.5861   22.7884 N   0  0  0  0  0  0  0  0  0  0  0  0
    7.9223  -17.6504   24.2077 C   0  0  0  0  0  0  0  0  0  0  0  0
    8.5736  -16.3801   24.6112 C   0  0  0  0  0  0  0  0  0  0  0  0
    9.7147  -16.0734   24.1879 O   0  0  0  0  0  0  0  0  0  0  0  0
    5.4900  -12.1968   26.2878 C   0  0  0  0  0  0  0  0  0  0  0  0
    6.5655  -13.0963   25.7029 C   0  0  0  0  0  0  0  0  0  0  0  0
    7.6494  -13.3893   26.6911 C   0  0  2  0  0  0  0  0  0  0  0  0
    8.2859  -12.1614   27.2586 C   0  0  0  0  0  0  0  0  0  0  0  0
    8.5789  -14.4220   26.1552 C   0  0  2  0  0  0  0  0  0  0  0  0
    7.8852  -15.5101   25.4879 N   0  0  0  0  0  0  0  0  0  0  0  0
    9.5665  -14.9429   27.1384 C   0  0  0  0  0  0  0  0  0  0  0  0
   10.7104  -14.1905   27.4792 O   0  0  0  0  0  0  0  0  0  0  0  0
    9.4736  -16.0467   27.7243 O   0  0  0  0  0  0  0  0  0  0  0  0
  2  4  1  0
  2  1  1  1
  3  2  1  0
  5  7  1  0
  5  4  1  0
  5  6  1  6
  7  9  1  0
  8  7  2  0
  9 10  1  0
 10 11  1  0
 11 12  2  0
 11 18  1  0
 14 13  1  0
 15 16  1  6
 15 14  1  0
 17 15  1  0
 17 18  1  1
 19 20  1  0
 19 17  1  0
 21 19  2  0
M  END
$$$$
