LGI.pdb
     RDKit          3D

 21 20  0  0  1  0  0  0  0  0999 V2000
    8.6876  -13.8241   18.0562 C   0  0  0  0  0  0  0  0  0  0  0  0
    7.5823  -13.5235   19.0464 C   0  0  2  0  0  0  0  0  0  0  0  0
    7.3245  -12.0312   19.1201 C   0  0  0  0  0  0  0  0  0  0  0  0
    8.0080  -14.0538   20.4125 C   0  0  0  0  0  0  0  0  0  0  0  0
    8.1632  -15.5533   20.2558 C   0  0  2  0  0  0  0  0  0  0  0  0
    6.8468  -16.1459   20.2975 N   0  0  0  0  0  0  0  0  0  0  0  0
    9.0242  -16.0617   21.3362 C   0  0  0  0  0  0  0  0  0  0  0  0
   10.2522  -15.8169   21.3442 O   0  0  0  0  0  0  0  0  0  0  0  0
    8.4394  -16.8359   22.3715 N   0  0  0  0  0  0  0  0  0  0  0  0
    9.2066  -17.4165   23.4490 C   0  0  0  0  0  0  0  0  0  0  0  0
    9.5815  -16.3264   24.3827 C   0  0  0  0  0  0  0  0  0  0  0  0
   10.7769  -15.9672   24.5135 O   0  0  0  0  0  0  0  0  0  0  0  0
    5.8700  -12.6193   26.9594 C   0  0  0  0  0  0  0  0  0  0  0  0
    6.6725  -13.8829   26.6998 C   0  0  0  0  0  0  0  0  0  0  0  0
    8.0734  -13.5793   26.2724 C   0  0  2  0  0  0  0  0  0  0  0  0
    8.1507  -12.7164   25.0540 C   0  0  0  0  0  0  0  0  0  0  0  0
    8.8928  -14.8225   26.2487 C   0  0  2  0  0  0  0  0  0  0  0  0
    8.5641  -15.6906   25.1312 N   0  0  0  0  0  0  0  0  0  0  0  0
    8.9099  -15.5829   27.5273 C   0  0  0  0  0  0  0  0  0  0  0  0
    9.5181  -15.0421   28.6799 O   0  0  0  0  0  0  0  0  0  0  0  0
    8.4079  -16.7201   27.6863 O   0  0  0  0  0  0  0  0  0  0  0  0
  2  4  1  0
  2  1  1  6
  3  2  1  0
  5  7  1  0
  5  4  1  0
  5  6  1  1
  7  9  1  0
  8  7  2  0
  9 10  1  0
 10 11  1  0
 11 12  2  0
 11 18  1  0
 14 13  1  0
 15 16  1  6
 15 14  1  0
 17 15  1  0
 17 18  1  6
 19 20  1  0
 19 17  1  0
 21 19  2  0
M  END
$$$$
