LGI.pdb
     RDKit          3D

 21 20  0  0  1  0  0  0  0  0999 V2000
    9.4639  -13.1361   18.9970 C   0  0  0  0  0  0  0  0  0  0  0  0
    8.1521  -13.5682   18.3763 C   0  0  2  0  0  0  0  0  0  0  0  0
    7.3628  -12.3623   17.9055 C   0  0  0  0  0  0  0  0  0  0  0  0
    7.3591  -14.3412   19.4261 C   0  0  0  0  0  0  0  0  0  0  0  0
    8.3737  -15.1342   20.2252 C   0  0  2  0  0  0  0  0  0  0  0  0
    8.5141  -16.4320   19.6071 N   0  0  0  0  0  0  0  0  0  0  0  0
    7.9093  -15.2413   21.6180 C   0  0  0  0  0  0  0  0  0  0  0  0
    7.8144  -14.2230   22.3406 O   0  0  0  0  0  0  0  0  0  0  0  0
    7.5700  -16.5201   22.1307 N   0  0  0  0  0  0  0  0  0  0  0  0
    6.9388  -16.7103   23.4160 C   0  0  0  0  0  0  0  0  0  0  0  0
    7.8742  -16.2269   24.4610 C   0  0  0  0  0  0  0  0  0  0  0  0
    9.1109  -16.1792   24.2524 O   0  0  0  0  0  0  0  0  0  0  0  0
    6.0770  -11.9640   26.7036 C   0  0  0  0  0  0  0  0  0  0  0  0
    6.8450  -13.1549   26.1559 C   0  0  0  0  0  0  0  0  0  0  0  0
    7.5494  -13.9124   27.2363 C   0  0  2  0  0  0  0  0  0  0  0  0
    8.4158  -13.0522   28.0992 C   0  0  0  0  0  0  0  0  0  0  0  0
    8.1868  -15.1393   26.6831 C   0  0  2  0  0  0  0  0  0  0  0  0
    7.3492  -15.8165   25.7081 N   0  0  0  0  0  0  0  0  0  0  0  0
    8.6936  -16.0942   27.7052 C   0  0  0  0  0  0  0  0  0  0  0  0
    9.9921  -15.9565   28.2395 O   0  0  0  0  0  0  0  0  0  0  0  0
    8.0409  -17.0618   28.1613 O   0  0  0  0  0  0  0  0  0  0  0  0
  2  4  1  0
  2  1  1  1
  3  2  1  0
  5  7  1  0
  5  4  1  0
  5  6  1  6
  7  9  1  0
  8  7  2  0
  9 10  1  0
 10 11  1  0
 11 12  2  0
 11 18  1  0
 14 13  1  0
 15 16  1  6
 15 14  1  0
 17 15  1  0
 17 18  1  1
 19 20  1  0
 19 17  1  0
 21 19  2  0
M  END
$$$$
