LGI.pdb
     RDKit          3D

 21 20  0  0  1  0  0  0  0  0999 V2000
    7.8114  -12.4781   20.5511 C   0  0  0  0  0  0  0  0  0  0  0  0
    8.2392  -13.9286   20.4754 C   0  0  2  0  0  0  0  0  0  0  0  0
    9.3836  -14.0959   19.4950 C   0  0  0  0  0  0  0  0  0  0  0  0
    7.0379  -14.7580   20.0312 C   0  0  0  0  0  0  0  0  0  0  0  0
    7.2000  -16.1194   20.6773 C   0  0  2  0  0  0  0  0  0  0  0  0
    6.2624  -17.0244   20.0547 N   0  0  0  0  0  0  0  0  0  0  0  0
    6.9590  -15.9953   22.1242 C   0  0  0  0  0  0  0  0  0  0  0  0
    6.7035  -14.8818   22.6368 O   0  0  0  0  0  0  0  0  0  0  0  0
    7.0207  -17.1605   22.9314 N   0  0  0  0  0  0  0  0  0  0  0  0
    8.0414  -17.3715   23.9317 C   0  0  0  0  0  0  0  0  0  0  0  0
    8.3816  -16.0541   24.5230 C   0  0  0  0  0  0  0  0  0  0  0  0
    8.9515  -15.1661   23.8434 O   0  0  0  0  0  0  0  0  0  0  0  0
    6.2989  -12.1347   26.9651 C   0  0  0  0  0  0  0  0  0  0  0  0
    7.1575  -13.2202   26.3386 C   0  0  0  0  0  0  0  0  0  0  0  0
    8.0912  -13.8384   27.3303 C   0  0  2  0  0  0  0  0  0  0  0  0
    8.8775  -12.8364   28.1130 C   0  0  0  0  0  0  0  0  0  0  0  0
    8.8733  -14.9360   26.6969 C   0  0  2  0  0  0  0  0  0  0  0  0
    8.0522  -15.8094   25.8761 N   0  0  0  0  0  0  0  0  0  0  0  0
    9.7158  -15.7242   27.6363 C   0  0  0  0  0  0  0  0  0  0  0  0
   11.0268  -15.3086   27.9512 O   0  0  0  0  0  0  0  0  0  0  0  0
    9.3515  -16.7796   28.2052 O   0  0  0  0  0  0  0  0  0  0  0  0
  2  4  1  0
  2  1  1  6
  3  2  1  0
  5  7  1  0
  5  4  1  0
  5  6  1  6
  7  9  1  0
  8  7  2  0
  9 10  1  0
 10 11  1  0
 11 12  2  0
 11 18  1  0
 14 13  1  0
 15 16  1  6
 15 14  1  0
 17 15  1  0
 17 18  1  1
 19 20  1  0
 19 17  1  0
 21 19  2  0
M  END
$$$$
