LGI.pdb
     RDKit          3D

 21 20  0  0  1  0  0  0  0  0999 V2000
    9.1155  -13.4376   20.3309 C   0  0  0  0  0  0  0  0  0  0  0  0
    8.0533  -13.4441   19.2519 C   0  0  2  0  0  0  0  0  0  0  0  0
    7.3880  -12.0854   19.1512 C   0  0  0  0  0  0  0  0  0  0  0  0
    7.0219  -14.5123   19.6039 C   0  0  0  0  0  0  0  0  0  0  0  0
    7.8073  -15.7344   20.0357 C   0  0  2  0  0  0  0  0  0  0  0  0
    7.6286  -16.7582   19.0328 N   0  0  0  0  0  0  0  0  0  0  0  0
    7.3240  -16.1736   21.3550 C   0  0  0  0  0  0  0  0  0  0  0  0
    6.1044  -16.3753   21.5547 O   0  0  0  0  0  0  0  0  0  0  0  0
    8.2644  -16.3653   22.4002 N   0  0  0  0  0  0  0  0  0  0  0  0
    7.8795  -16.6711   23.7585 C   0  0  0  0  0  0  0  0  0  0  0  0
    8.7977  -15.9438   24.6688 C   0  0  0  0  0  0  0  0  0  0  0  0
    9.9830  -15.7006   24.3356 O   0  0  0  0  0  0  0  0  0  0  0  0
    6.9694  -11.7612   27.1362 C   0  0  0  0  0  0  0  0  0  0  0  0
    7.7844  -12.8723   26.4966 C   0  0  0  0  0  0  0  0  0  0  0  0
    8.5421  -13.6674   27.5121 C   0  0  2  0  0  0  0  0  0  0  0  0
    9.4175  -12.8322   28.3903 C   0  0  0  0  0  0  0  0  0  0  0  0
    9.1880  -14.8480   26.8745 C   0  0  2  0  0  0  0  0  0  0  0  0
    8.3153  -15.5238   25.9299 N   0  0  0  0  0  0  0  0  0  0  0  0
    9.7951  -15.8168   27.8264 C   0  0  0  0  0  0  0  0  0  0  0  0
    9.0590  -16.9259   28.2942 O   0  0  0  0  0  0  0  0  0  0  0  0
   10.9619  -15.7369   28.2766 O   0  0  0  0  0  0  0  0  0  0  0  0
  2  4  1  0
  2  1  1  1
  3  2  1  0
  5  7  1  0
  5  4  1  0
  5  6  1  6
  7  9  1  0
  8  7  2  0
  9 10  1  0
 10 11  1  0
 11 12  2  0
 11 18  1  0
 14 13  1  0
 15 16  1  6
 15 14  1  0
 17 15  1  0
 17 18  1  1
 19 20  1  0
 19 17  1  0
 21 19  2  0
M  END
$$$$
