LGI.pdb
     RDKit          3D

 21 20  0  0  1  0  0  0  0  0999 V2000
    8.3713  -13.8424   17.9375 C   0  0  0  0  0  0  0  0  0  0  0  0
    7.5884  -13.5796   19.2066 C   0  0  2  0  0  0  0  0  0  0  0  0
    6.9685  -12.1963   19.1733 C   0  0  0  0  0  0  0  0  0  0  0  0
    8.5434  -13.7018   20.3905 C   0  0  0  0  0  0  0  0  0  0  0  0
    9.0465  -15.1315   20.3838 C   0  0  2  0  0  0  0  0  0  0  0  0
    7.9130  -16.0053   20.5767 N   0  0  0  0  0  0  0  0  0  0  0  0
   10.0470  -15.2928   21.4516 C   0  0  0  0  0  0  0  0  0  0  0  0
   11.0888  -14.5982   21.4621 O   0  0  0  0  0  0  0  0  0  0  0  0
    9.8117  -16.2504   22.4718 N   0  0  0  0  0  0  0  0  0  0  0  0
   10.7096  -16.4500   23.5857 C   0  0  0  0  0  0  0  0  0  0  0  0
    9.9938  -16.0614   24.8256 C   0  0  0  0  0  0  0  0  0  0  0  0
   10.4800  -16.3018   25.9574 O   0  0  0  0  0  0  0  0  0  0  0  0
    7.4559  -11.5357   25.8402 C   0  0  0  0  0  0  0  0  0  0  0  0
    8.1316  -12.8915   25.9553 C   0  0  0  0  0  0  0  0  0  0  0  0
    7.1431  -14.0139   25.9353 C   0  0  2  0  0  0  0  0  0  0  0  0
    6.0876  -13.8969   26.9875 C   0  0  0  0  0  0  0  0  0  0  0  0
    7.8439  -15.3252   25.8523 C   0  0  2  0  0  0  0  0  0  0  0  0
    8.7437  -15.4101   24.7148 N   0  0  0  0  0  0  0  0  0  0  0  0
    6.9522  -16.5143   25.9165 C   0  0  0  0  0  0  0  0  0  0  0  0
    6.5359  -17.1681   24.7375 O   0  0  0  0  0  0  0  0  0  0  0  0
    6.5119  -17.0178   26.9762 O   0  0  0  0  0  0  0  0  0  0  0  0
  2  4  1  0
  2  1  1  6
  3  2  1  0
  5  7  1  0
  5  4  1  0
  5  6  1  1
  7  9  1  0
  8  7  2  0
  9 10  1  0
 10 11  1  0
 11 12  2  0
 11 18  1  0
 14 13  1  0
 15 16  1  1
 15 14  1  0
 17 15  1  0
 17 18  1  6
 19 20  1  0
 19 17  1  0
 21 19  2  0
M  END
$$$$
