TRL.pdb
     RDKit          3D

 27 26  0  0  1  0  0  0  0  0999 V2000
   16.5211  -24.4188   -5.1309 C   0  0  0  0  0  0  0  0  0  0  0  0
   16.1778  -25.8250   -4.7200 C   0  0  1  0  0  0  0  0  0  0  0  0
   15.3248  -26.3763   -5.6719 O   0  0  0  0  0  0  0  0  0  0  0  0
   17.4349  -26.6795   -4.5984 C   0  0  2  0  0  0  0  0  0  0  0  0
   18.2617  -26.1413   -3.5423 N   0  0  0  0  0  0  0  0  0  0  0  0
   18.2236  -26.6583   -5.8531 C   0  0  0  0  0  0  0  0  0  0  0  0
   19.1024  -25.7857   -5.9693 O   0  0  0  0  0  0  0  0  0  0  0  0
   22.6232  -30.1212  -11.6588 N   0  0  0  0  0  0  0  0  0  0  0  0
   22.2607  -30.8463  -10.4626 C   0  0  0  0  0  0  0  0  0  0  0  0
   23.1764  -31.4145   -9.7539 N   0  0  0  0  0  0  0  0  0  0  0  0
   20.9189  -30.9567  -10.0468 N   0  0  0  0  0  0  0  0  0  0  0  0
   19.8904  -30.2079  -10.7278 C   0  0  0  0  0  0  0  0  0  0  0  0
   19.7736  -28.8720  -10.0731 C   0  0  0  0  0  0  0  0  0  0  0  0
   18.9731  -28.8369   -8.8162 C   0  0  0  0  0  0  0  0  0  0  0  0
   18.8032  -27.5440   -8.1424 C   0  0  2  0  0  0  0  0  0  0  0  0
   18.0555  -27.5457   -6.9196 N   0  0  0  0  0  0  0  0  0  0  0  0
   18.1008  -26.5795   -9.0399 C   0  0  0  0  0  0  0  0  0  0  0  0
   17.0227  -26.0249   -8.6957 O   0  0  0  0  0  0  0  0  0  0  0  0
   22.9311  -31.9370   -8.8979 C   0  0  0  0  0  0  0  0  0  0  0  0
   16.4153  -22.3288   -9.9599 C   0  0  2  0  0  0  0  0  0  0  0  0
   17.8783  -22.4940  -10.5148 C   0  0  0  0  0  0  0  0  0  0  0  0
   18.6123  -21.3426   -9.8899 C   0  0  0  0  0  0  0  0  0  0  0  0
   18.2779  -23.8501  -10.1178 C   0  0  1  0  0  0  0  0  0  0  0  0
   18.2319  -24.9937  -11.0281 N   0  0  0  0  0  0  0  0  0  0  0  0
   18.6072  -26.2368  -10.3233 C   0  0  0  0  0  0  0  0  0  0  0  0
   18.9720  -24.8401  -12.2601 O   0  0  0  0  0  0  0  0  0  0  0  0
   18.5600  -24.2624  -13.4284 O   0  0  0  0  0  0  0  0  0  0  0  0
  2  1  1  6
  2  4  1  0
  3  2  1  0
  4  5  1  1
  6  7  2  0
  6  4  1  0
  8  9  1  0
  9 11  1  0
 10  9  2  0
 11 12  1  0
 12 13  1  0
 13 14  1  0
 15 14  1  6
 15 16  1  0
 16  6  1  0
 17 18  2  0
 17 15  1  0
 20 19  1  6
 20 22  1  0
 21 20  1  0
 23 22  1  1
 23 24  1  0
 24 17  1  0
 25 26  1  0
 25 23  1  0
 27 25  2  0
M  END
$$$$
