TRL.pdb
     RDKit          3D

 27 26  0  0  1  0  0  0  0  0999 V2000
   25.6668  -27.7979  -16.1505 C   0  0  0  0  0  0  0  0  0  0  0  0
   25.1973  -26.3893  -15.9067 C   0  0  1  0  0  0  0  0  0  0  0  0
   25.6841  -25.9596  -14.6755 O   0  0  0  0  0  0  0  0  0  0  0  0
   25.6848  -25.4541  -17.0082 C   0  0  2  0  0  0  0  0  0  0  0  0
   27.1279  -25.5126  -17.0617 N   0  0  0  0  0  0  0  0  0  0  0  0
   25.2933  -24.0510  -16.7355 C   0  0  0  0  0  0  0  0  0  0  0  0
   26.1800  -23.2667  -16.3535 O   0  0  0  0  0  0  0  0  0  0  0  0
   20.0287  -18.7668  -15.2494 N   0  0  0  0  0  0  0  0  0  0  0  0
   20.2183  -17.9368  -16.4170 C   0  0  0  0  0  0  0  0  0  0  0  0
   20.0880  -16.6569  -16.3231 N   0  0  0  0  0  0  0  0  0  0  0  0
   20.5393  -18.4928  -17.6713 N   0  0  0  0  0  0  0  0  0  0  0  0
   20.6858  -19.9218  -17.8089 C   0  0  0  0  0  0  0  0  0  0  0  0
   21.9076  -20.3405  -17.0615 C   0  0  0  0  0  0  0  0  0  0  0  0
   22.4089  -21.7122  -17.3604 C   0  0  0  0  0  0  0  0  0  0  0  0
   23.6037  -22.1805  -16.6479 C   0  0  2  0  0  0  0  0  0  0  0  0
   24.0003  -23.5390  -16.8745 N   0  0  0  0  0  0  0  0  0  0  0  0
   23.4081  -22.0612  -15.1725 C   0  0  0  0  0  0  0  0  0  0  0  0
   22.5575  -22.7629  -14.5621 O   0  0  0  0  0  0  0  0  0  0  0  0
   20.2855  -16.0470  -17.1322 C   0  0  0  0  0  0  0  0  0  0  0  0
   27.4538  -20.4302  -11.5146 C   0  0  2  0  0  0  0  0  0  0  0  0
   26.3552  -21.3772  -12.1243 C   0  0  0  0  0  0  0  0  0  0  0  0
   26.2840  -22.5010  -11.1308 C   0  0  0  0  0  0  0  0  0  0  0  0
   25.1682  -20.5257  -12.2728 C   0  0  2  0  0  0  0  0  0  0  0  0
   23.9424  -20.9743  -12.9325 N   0  0  0  0  0  0  0  0  0  0  0  0
   24.1661  -21.1553  -14.3816 C   0  0  0  0  0  0  0  0  0  0  0  0
   22.7668  -20.1739  -12.6746 O   0  0  0  0  0  0  0  0  0  0  0  0
   22.0380  -20.0877  -11.5214 O   0  0  0  0  0  0  0  0  0  0  0  0
  2  1  1  6
  2  4  1  0
  3  2  1  0
  4  5  1  1
  6  7  2  0
  6  4  1  0
  8  9  1  0
  9 11  1  0
 10  9  2  0
 11 12  1  0
 12 13  1  0
 13 14  1  0
 15 14  1  6
 15 16  1  0
 16  6  1  0
 17 18  2  0
 17 15  1  0
 20 19  1  6
 20 22  1  0
 21 20  1  0
 23 22  1  1
 23 24  1  0
 24 17  1  0
 25 26  1  0
 25 23  1  0
 27 25  2  0
M  END
$$$$
