TRL.pdb
     RDKit          3D

 27 26  0  0  1  0  0  0  0  0999 V2000
   28.0748  -18.2309  -14.1154 C   0  0  0  0  0  0  0  0  0  0  0  0
   26.6847  -18.7586  -14.3468 C   0  0  1  0  0  0  0  0  0  0  0  0
   26.3625  -18.6024  -15.6919 O   0  0  0  0  0  0  0  0  0  0  0  0
   26.5898  -20.2311  -13.9621 C   0  0  2  0  0  0  0  0  0  0  0  0
   27.5170  -20.9842  -14.7758 N   0  0  0  0  0  0  0  0  0  0  0  0
   25.2288  -20.7646  -14.2061 C   0  0  0  0  0  0  0  0  0  0  0  0
   25.0855  -21.5831  -15.1317 O   0  0  0  0  0  0  0  0  0  0  0  0
   18.9735  -23.9097  -11.4349 N   0  0  0  0  0  0  0  0  0  0  0  0
   19.6722  -23.1906  -10.3944 C   0  0  0  0  0  0  0  0  0  0  0  0
   20.0204  -23.8025   -9.3136 N   0  0  0  0  0  0  0  0  0  0  0  0
   19.9824  -21.8224  -10.5258 N   0  0  0  0  0  0  0  0  0  0  0  0
   19.4864  -21.0774  -11.6578 C   0  0  0  0  0  0  0  0  0  0  0  0
   20.4226  -21.2857  -12.8010 C   0  0  0  0  0  0  0  0  0  0  0  0
   21.8260  -20.8363  -12.5762 C   0  0  0  0  0  0  0  0  0  0  0  0
   22.7603  -20.9004  -13.7064 C   0  0  2  0  0  0  0  0  0  0  0  0
   24.0897  -20.4177  -13.4742 N   0  0  0  0  0  0  0  0  0  0  0  0
   22.2397  -20.1024  -14.8559 C   0  0  0  0  0  0  0  0  0  0  0  0
   22.3761  -18.8504  -14.9040 O   0  0  0  0  0  0  0  0  0  0  0  0
   20.4493  -23.2845   -8.5303 C   0  0  0  0  0  0  0  0  0  0  0  0
   24.4515  -18.6406  -19.1451 C   0  0  2  0  0  0  0  0  0  0  0  0
   22.9018  -18.8886  -19.0316 C   0  0  0  0  0  0  0  0  0  0  0  0
   22.5811  -19.6281  -20.2986 C   0  0  0  0  0  0  0  0  0  0  0  0
   22.7302  -19.6081  -17.7631 C   0  0  1  0  0  0  0  0  0  0  0  0
   21.4280  -20.0542  -17.2692 N   0  0  0  0  0  0  0  0  0  0  0  0
   21.5661  -20.7081  -15.9515 C   0  0  0  0  0  0  0  0  0  0  0  0
   20.6586  -20.8660  -18.1846 O   0  0  0  0  0  0  0  0  0  0  0  0
   20.9089  -22.1451  -18.5968 O   0  0  0  0  0  0  0  0  0  0  0  0
  2  1  1  6
  2  4  1  0
  3  2  1  0
  4  5  1  6
  6  7  2  0
  6  4  1  0
  8  9  1  0
  9 11  1  0
 10  9  2  0
 11 12  1  0
 12 13  1  0
 13 14  1  0
 15 14  1  1
 15 16  1  0
 16  6  1  0
 17 18  2  0
 17 15  1  0
 20 19  1  6
 20 22  1  0
 21 20  1  0
 23 22  1  1
 23 24  1  0
 24 17  1  0
 25 26  1  0
 25 23  1  0
 27 25  2  0
M  END
$$$$
