TRL.pdb
     RDKit          3D

 27 26  0  0  1  0  0  0  0  0999 V2000
   29.0781  -22.0948  -16.5966 C   0  0  0  0  0  0  0  0  0  0  0  0
   28.1138  -21.5965  -15.5544 C   0  0  1  0  0  0  0  0  0  0  0  0
   28.7980  -21.4231  -14.3548 O   0  0  0  0  0  0  0  0  0  0  0  0
   27.4826  -20.2762  -15.9830 C   0  0  2  0  0  0  0  0  0  0  0  0
   28.5309  -19.3778  -16.4106 N   0  0  0  0  0  0  0  0  0  0  0  0
   26.7604  -19.6348  -14.8589 C   0  0  0  0  0  0  0  0  0  0  0  0
   27.3200  -18.6891  -14.2761 O   0  0  0  0  0  0  0  0  0  0  0  0
   21.8235  -22.2178  -16.0389 N   0  0  0  0  0  0  0  0  0  0  0  0
   21.0149  -22.7620  -14.9722 C   0  0  0  0  0  0  0  0  0  0  0  0
   20.6221  -23.9895  -15.0261 N   0  0  0  0  0  0  0  0  0  0  0  0
   20.6336  -21.9789  -13.8644 N   0  0  0  0  0  0  0  0  0  0  0  0
   21.1612  -20.6446  -13.7106 C   0  0  0  0  0  0  0  0  0  0  0  0
   22.6440  -20.7411  -13.5742 C   0  0  0  0  0  0  0  0  0  0  0  0
   23.3522  -19.4580  -13.3020 C   0  0  0  0  0  0  0  0  0  0  0  0
   24.8192  -19.4758  -13.2565 C   0  0  2  0  0  0  0  0  0  0  0  0
   25.4948  -20.0119  -14.4012 N   0  0  0  0  0  0  0  0  0  0  0  0
   25.2925  -20.2871  -12.0959 C   0  0  0  0  0  0  0  0  0  0  0  0
   26.3792  -20.9242  -12.1371 O   0  0  0  0  0  0  0  0  0  0  0  0
   20.1208  -24.4171  -14.2314 C   0  0  0  0  0  0  0  0  0  0  0  0
   28.1623  -21.6068   -8.5287 C   0  0  2  0  0  0  0  0  0  0  0  0
   27.1952  -20.4288   -8.1378 C   0  0  0  0  0  0  0  0  0  0  0  0
   28.1375  -19.3468   -7.6944 C   0  0  0  0  0  0  0  0  0  0  0  0
   26.3986  -20.1824   -9.3465 C   0  0  1  0  0  0  0  0  0  0  0  0
   25.1338  -20.8635   -9.6205 N   0  0  0  0  0  0  0  0  0  0  0  0
   24.5474  -20.3842  -10.8891 C   0  0  0  0  0  0  0  0  0  0  0  0
   24.1661  -20.8372   -8.5472 O   0  0  0  0  0  0  0  0  0  0  0  0
   24.0740  -21.6739   -7.4701 O   0  0  0  0  0  0  0  0  0  0  0  0
  2  1  1  6
  2  4  1  0
  3  2  1  0
  4  5  1  1
  6  7  2  0
  6  4  1  0
  8  9  1  0
  9 11  1  0
 10  9  2  0
 11 12  1  0
 12 13  1  0
 13 14  1  0
 15 14  1  6
 15 16  1  0
 16  6  1  0
 17 18  2  0
 17 15  1  0
 20 19  1  1
 20 22  1  0
 21 20  1  0
 23 22  1  6
 23 24  1  0
 24 17  1  0
 25 26  1  0
 25 23  1  0
 27 25  2  0
M  END
$$$$
