TRL.pdb
     RDKit          3D

 27 26  0  0  1  0  0  0  0  0999 V2000
   30.3942  -21.9797  -19.7007 C   0  0  0  0  0  0  0  0  0  0  0  0
   29.1462  -21.8560  -18.8691 C   0  0  1  0  0  0  0  0  0  0  0  0
   28.0564  -22.2710  -19.6292 O   0  0  0  0  0  0  0  0  0  0  0  0
   29.2465  -22.7049  -17.6063 C   0  0  2  0  0  0  0  0  0  0  0  0
   29.2818  -24.0990  -17.9857 N   0  0  0  0  0  0  0  0  0  0  0  0
   28.0726  -22.4998  -16.7251 C   0  0  0  0  0  0  0  0  0  0  0  0
   27.1855  -23.3718  -16.7309 O   0  0  0  0  0  0  0  0  0  0  0  0
   24.3535  -20.9356  -10.2713 N   0  0  0  0  0  0  0  0  0  0  0  0
   25.6952  -20.5954   -9.8565 C   0  0  0  0  0  0  0  0  0  0  0  0
   26.0830  -20.8617   -8.6554 N   0  0  0  0  0  0  0  0  0  0  0  0
   26.6008  -19.9684  -10.7352 N   0  0  0  0  0  0  0  0  0  0  0  0
   26.1060  -19.1396  -11.8080 C   0  0  0  0  0  0  0  0  0  0  0  0
   25.8153  -20.0163  -12.9800 C   0  0  0  0  0  0  0  0  0  0  0  0
   26.9939  -20.3972  -13.8093 C   0  0  0  0  0  0  0  0  0  0  0  0
   26.7552  -21.1738  -15.0318 C   0  0  2  0  0  0  0  0  0  0  0  0
   27.8844  -21.3985  -15.8855 N   0  0  0  0  0  0  0  0  0  0  0  0
   25.7357  -20.4960  -15.8864 C   0  0  0  0  0  0  0  0  0  0  0  0
   26.0154  -19.4620  -16.5506 O   0  0  0  0  0  0  0  0  0  0  0  0
   27.0319  -20.6054   -8.3397 C   0  0  0  0  0  0  0  0  0  0  0  0
   21.9116  -20.8417  -19.6057 C   0  0  2  0  0  0  0  0  0  0  0  0
   21.2675  -20.9779  -18.1767 C   0  0  0  0  0  0  0  0  0  0  0  0
   20.2039  -22.0184  -18.3796 C   0  0  0  0  0  0  0  0  0  0  0  0
   22.3893  -21.3168  -17.2918 C   0  0  1  0  0  0  0  0  0  0  0  0
   23.3880  -20.3395  -16.8602 N   0  0  0  0  0  0  0  0  0  0  0  0
   24.4027  -20.9774  -15.9963 C   0  0  0  0  0  0  0  0  0  0  0  0
   22.8623  -19.1352  -16.2583 O   0  0  0  0  0  0  0  0  0  0  0  0
   22.5351  -17.9569  -16.8692 O   0  0  0  0  0  0  0  0  0  0  0  0
  2  1  1  6
  2  4  1  0
  3  2  1  0
  4  5  1  6
  6  7  2  0
  6  4  1  0
  8  9  1  0
  9 11  1  0
 10  9  2  0
 11 12  1  0
 12 13  1  0
 13 14  1  0
 15 14  1  1
 15 16  1  0
 16  6  1  0
 17 18  2  0
 17 15  1  0
 20 19  1  6
 20 22  1  0
 21 20  1  0
 23 22  1  6
 23 24  1  0
 24 17  1  0
 25 26  1  0
 25 23  1  0
 27 25  2  0
M  END
$$$$
