TRL.pdb
     RDKit          3D

 27 26  0  0  1  0  0  0  0  0999 V2000
   26.2612  -17.5615  -16.4523 C   0  0  0  0  0  0  0  0  0  0  0  0
   26.7533  -18.6185  -17.4034 C   0  0  1  0  0  0  0  0  0  0  0  0
   27.5412  -18.0142  -18.3790 O   0  0  0  0  0  0  0  0  0  0  0  0
   27.5670  -19.6776  -16.6675 C   0  0  2  0  0  0  0  0  0  0  0  0
   28.0275  -20.6575  -17.6248 N   0  0  0  0  0  0  0  0  0  0  0  0
   26.7451  -20.3793  -15.6533 C   0  0  0  0  0  0  0  0  0  0  0  0
   25.8403  -21.1296  -16.0603 O   0  0  0  0  0  0  0  0  0  0  0  0
   23.4936  -19.6002   -8.6119 N   0  0  0  0  0  0  0  0  0  0  0  0
   23.8177  -20.9407   -8.1807 C   0  0  0  0  0  0  0  0  0  0  0  0
   22.9737  -21.6081   -7.4693 N   0  0  0  0  0  0  0  0  0  0  0  0
   25.0464  -21.5445   -8.5142 N   0  0  0  0  0  0  0  0  0  0  0  0
   25.9610  -20.8713   -9.4046 C   0  0  0  0  0  0  0  0  0  0  0  0
   25.5336  -21.1448  -10.8079 C   0  0  0  0  0  0  0  0  0  0  0  0
   26.4432  -20.6317  -11.8715 C   0  0  0  0  0  0  0  0  0  0  0  0
   26.0330  -20.8003  -13.2707 C   0  0  2  0  0  0  0  0  0  0  0  0
   26.9083  -20.2628  -14.2701 N   0  0  0  0  0  0  0  0  0  0  0  0
   24.7098  -20.1496  -13.5054 C   0  0  0  0  0  0  0  0  0  0  0  0
   24.5808  -18.8960  -13.4923 O   0  0  0  0  0  0  0  0  0  0  0  0
   23.1601  -22.5915   -7.2165 C   0  0  0  0  0  0  0  0  0  0  0  0
   21.5533  -17.5623  -16.2588 C   0  0  2  0  0  0  0  0  0  0  0  0
   21.0694  -19.0366  -15.9983 C   0  0  0  0  0  0  0  0  0  0  0  0
   20.6138  -19.4908  -17.3552 C   0  0  0  0  0  0  0  0  0  0  0  0
   22.2324  -19.7134  -15.4105 C   0  0  1  0  0  0  0  0  0  0  0  0
   22.2283  -20.2797  -14.0621 N   0  0  0  0  0  0  0  0  0  0  0  0
   23.5313  -20.9046  -13.7548 C   0  0  0  0  0  0  0  0  0  0  0  0
   21.1305  -21.1712  -13.7636 O   0  0  0  0  0  0  0  0  0  0  0  0
   19.8863  -20.8542  -13.2946 O   0  0  0  0  0  0  0  0  0  0  0  0
  2  1  1  1
  2  4  1  0
  3  2  1  0
  4  5  1  6
  6  7  2  0
  6  4  1  0
  8  9  1  0
  9 11  1  0
 10  9  2  0
 11 12  1  0
 12 13  1  0
 13 14  1  0
 15 14  1  1
 15 16  1  0
 16  6  1  0
 17 18  2  0
 17 15  1  0
 20 19  1  1
 20 22  1  0
 21 20  1  0
 23 22  1  1
 23 24  1  0
 24 17  1  0
 25 26  1  0
 25 23  1  0
 27 25  2  0
M  END
$$$$
