GIS.pdb
     RDKit          3D

 19 18  0  0  1  0  0  0  0  0999 V2000
    4.5882  -19.4101   22.6101 N   0  0  0  0  0  0  0  0  0  0  0  0
    5.1618  -19.0149   23.8569 C   0  0  0  0  0  0  0  0  0  0  0  0
    5.9972  -17.8064   23.7041 C   0  0  0  0  0  0  0  0  0  0  0  0
    6.3453  -17.4882   22.5160 O   0  0  0  0  0  0  0  0  0  0  0  0
    7.4738  -12.3205   26.0667 C   0  0  0  0  0  0  0  0  0  0  0  0
    7.6954  -13.4598   25.1162 C   0  0  0  0  0  0  0  0  0  0  0  0
    6.9760  -14.7295   25.4960 C   0  0  2  0  0  0  0  0  0  0  0  0
    7.3431  -15.1873   26.8903 C   0  0  0  0  0  0  0  0  0  0  0  0
    7.2349  -15.8543   24.5475 C   0  0  2  0  0  0  0  0  0  0  0  0
    6.4137  -17.0098   24.8040 N   0  0  0  0  0  0  0  0  0  0  0  0
    8.6821  -16.2281   24.5554 C   0  0  0  0  0  0  0  0  0  0  0  0
    9.2023  -17.0235   25.3689 O   0  0  0  0  0  0  0  0  0  0  0  0
   10.7256  -16.0705   21.0243 O   0  0  0  0  0  0  0  0  0  0  0  0
   11.5257  -15.6949   22.0828 C   0  0  0  0  0  0  0  0  0  0  0  0
   10.8896  -16.2224   23.3682 C   0  0  2  0  0  0  0  0  0  0  0  0
    9.5746  -15.6572   23.5774 N   0  0  0  0  0  0  0  0  0  0  0  0
   11.7699  -15.9423   24.5208 C   0  0  0  0  0  0  0  0  0  0  0  0
   11.3936  -15.1944   25.4451 O   0  0  0  0  0  0  0  0  0  0  0  0
   13.0366  -16.5025   24.6060 O   0  0  0  0  0  0  0  0  0  0  0  0
  2  3  1  0
  2  1  1  0
  3  4  2  0
  5  6  1  0
  6  7  1  0
  7  8  1  1
  9  7  1  0
 10  3  1  0
  9 10  1  1
 11 16  1  0
 11  9  1  0
 12 11  2  0
 13 14  1  0
 15 16  1  0
 15 14  1  6
 17 19  1  0
 17 15  1  0
 18 17  2  0
M  END
$$$$
