GIS.pdb
     RDKit          3D

 19 18  0  0  1  0  0  0  0  0999 V2000
    5.2514  -17.5622   21.7416 N   0  0  0  0  0  0  0  0  0  0  0  0
    5.1521  -17.2383   23.1290 C   0  0  0  0  0  0  0  0  0  0  0  0
    6.2566  -16.3546   23.5541 C   0  0  0  0  0  0  0  0  0  0  0  0
    7.2518  -16.2465   22.7592 O   0  0  0  0  0  0  0  0  0  0  0  0
    5.7970  -11.8893   26.8082 C   0  0  0  0  0  0  0  0  0  0  0  0
    6.2009  -12.8724   25.7495 C   0  0  0  0  0  0  0  0  0  0  0  0
    7.2052  -13.8985   26.2107 C   0  0  2  0  0  0  0  0  0  0  0  0
    8.5316  -13.2648   26.5678 C   0  0  0  0  0  0  0  0  0  0  0  0
    7.4522  -14.9703   25.1998 C   0  0  2  0  0  0  0  0  0  0  0  0
    6.2478  -15.6417   24.7828 N   0  0  0  0  0  0  0  0  0  0  0  0
    8.4517  -15.9571   25.7110 C   0  0  0  0  0  0  0  0  0  0  0  0
    8.2154  -16.8081   26.5970 O   0  0  0  0  0  0  0  0  0  0  0  0
   11.4519  -17.1434   23.2846 O   0  0  0  0  0  0  0  0  0  0  0  0
   11.9169  -17.0428   24.5790 C   0  0  0  0  0  0  0  0  0  0  0  0
   10.7101  -17.0269   25.5162 C   0  0  2  0  0  0  0  0  0  0  0  0
    9.7902  -15.9639   25.1750 N   0  0  0  0  0  0  0  0  0  0  0  0
   11.1590  -16.9016   26.9178 C   0  0  0  0  0  0  0  0  0  0  0  0
   10.9353  -15.8624   27.5699 O   0  0  0  0  0  0  0  0  0  0  0  0
   11.8405  -17.9348   27.5456 O   0  0  0  0  0  0  0  0  0  0  0  0
  2  3  1  0
  2  1  1  0
  3  4  2  0
  5  6  1  0
  6  7  1  0
  7  8  1  6
  9  7  1  0
 10  3  1  0
  9 10  1  1
 11 16  1  0
 11  9  1  0
 12 11  2  0
 13 14  1  0
 15 16  1  0
 15 14  1  6
 17 19  1  0
 17 15  1  0
 18 17  2  0
M  END
$$$$
