GIS.pdb
     RDKit          3D

 19 18  0  0  1  0  0  0  0  0999 V2000
    6.2506  -17.7922   21.2355 N   0  0  0  0  0  0  0  0  0  0  0  0
    5.9595  -17.5955   22.6198 C   0  0  0  0  0  0  0  0  0  0  0  0
    6.8898  -16.6249   23.2312 C   0  0  0  0  0  0  0  0  0  0  0  0
    8.0485  -16.5191   22.7016 O   0  0  0  0  0  0  0  0  0  0  0  0
    7.5667  -11.7397   26.9968 C   0  0  0  0  0  0  0  0  0  0  0  0
    8.0890  -12.9000   26.2023 C   0  0  0  0  0  0  0  0  0  0  0  0
    7.0176  -13.8291   25.6894 C   0  0  2  0  0  0  0  0  0  0  0  0
    6.1280  -14.3307   26.8054 C   0  0  0  0  0  0  0  0  0  0  0  0
    7.5686  -15.0103   24.9593 C   0  0  2  0  0  0  0  0  0  0  0  0
    6.5475  -15.8283   24.3564 N   0  0  0  0  0  0  0  0  0  0  0  0
    8.4328  -15.8314   25.8610 C   0  0  0  0  0  0  0  0  0  0  0  0
    7.9994  -16.6305   26.7205 O   0  0  0  0  0  0  0  0  0  0  0  0
   11.8742  -17.0262   24.4604 O   0  0  0  0  0  0  0  0  0  0  0  0
   12.0819  -16.7939   25.8037 C   0  0  0  0  0  0  0  0  0  0  0  0
   10.7173  -16.6582   26.4778 C   0  0  2  0  0  0  0  0  0  0  0  0
    9.8678  -15.7268   25.7681 N   0  0  0  0  0  0  0  0  0  0  0  0
   10.8868  -16.2447   27.8856 C   0  0  0  0  0  0  0  0  0  0  0  0
   10.4057  -15.1707   28.2985 O   0  0  0  0  0  0  0  0  0  0  0  0
   11.5844  -17.0386   28.7851 O   0  0  0  0  0  0  0  0  0  0  0  0
  2  3  1  0
  2  1  1  0
  3  4  2  0
  5  6  1  0
  6  7  1  0
  7  8  1  1
  9  7  1  0
 10  3  1  0
  9 10  1  1
 11 16  1  0
 11  9  1  0
 12 11  2  0
 13 14  1  0
 15 16  1  0
 15 14  1  6
 17 19  1  0
 17 15  1  0
 18 17  2  0
M  END
$$$$
