GIS.pdb
     RDKit          3D

 19 18  0  0  1  0  0  0  0  0999 V2000
    4.9286  -18.6535   24.4692 N   0  0  0  0  0  0  0  0  0  0  0  0
    5.2551  -18.0856   23.2002 C   0  0  0  0  0  0  0  0  0  0  0  0
    6.2035  -16.9623   23.3430 C   0  0  0  0  0  0  0  0  0  0  0  0
    6.6862  -16.4702   22.2664 O   0  0  0  0  0  0  0  0  0  0  0  0
    5.8418  -12.8418   26.8280 C   0  0  0  0  0  0  0  0  0  0  0  0
    6.2526  -13.5702   25.5826 C   0  0  0  0  0  0  0  0  0  0  0  0
    7.4627  -14.4534   25.7548 C   0  0  2  0  0  0  0  0  0  0  0  0
    8.7358  -13.6448   25.8726 C   0  0  0  0  0  0  0  0  0  0  0  0
    7.6310  -15.4376   24.6435 C   0  0  2  0  0  0  0  0  0  0  0  0
    6.5850  -16.4273   24.6024 N   0  0  0  0  0  0  0  0  0  0  0  0
    8.9712  -16.0949   24.7198 C   0  0  0  0  0  0  0  0  0  0  0  0
    9.2856  -16.9633   25.5637 O   0  0  0  0  0  0  0  0  0  0  0  0
   13.1129  -16.9760   22.3637 O   0  0  0  0  0  0  0  0  0  0  0  0
   12.0321  -16.1237   22.4491 C   0  0  0  0  0  0  0  0  0  0  0  0
   11.2055  -16.5273   23.6693 C   0  0  2  0  0  0  0  0  0  0  0  0
   10.0006  -15.7340   23.7769 N   0  0  0  0  0  0  0  0  0  0  0  0
   12.0214  -16.4099   24.8950 C   0  0  0  0  0  0  0  0  0  0  0  0
   11.9047  -15.4227   25.6481 O   0  0  0  0  0  0  0  0  0  0  0  0
   12.9380  -17.3928   25.2408 O   0  0  0  0  0  0  0  0  0  0  0  0
  2  3  1  0
  2  1  1  0
  3  4  2  0
  5  6  1  0
  6  7  1  0
  7  8  1  6
  9  7  1  0
 10  3  1  0
  9 10  1  1
 11 16  1  0
 11  9  1  0
 12 11  2  0
 13 14  1  0
 15 16  1  0
 15 14  1  6
 17 19  1  0
 17 15  1  0
 18 17  2  0
M  END
$$$$
