GIS.pdb
     RDKit          3D

 19 18  0  0  1  0  0  0  0  0999 V2000
    5.6661  -18.0180   21.9286 N   0  0  0  0  0  0  0  0  0  0  0  0
    5.4211  -17.5553   23.2574 C   0  0  0  0  0  0  0  0  0  0  0  0
    6.4906  -16.6449   23.7143 C   0  0  0  0  0  0  0  0  0  0  0  0
    7.6172  -16.7268   23.1157 O   0  0  0  0  0  0  0  0  0  0  0  0
    5.7856  -11.8564   26.4695 C   0  0  0  0  0  0  0  0  0  0  0  0
    6.3339  -12.9139   25.5577 C   0  0  0  0  0  0  0  0  0  0  0  0
    7.1641  -13.9614   26.2561 C   0  0  2  0  0  0  0  0  0  0  0  0
    8.4646  -13.3912   26.7777 C   0  0  0  0  0  0  0  0  0  0  0  0
    7.4794  -15.1336   25.3854 C   0  0  2  0  0  0  0  0  0  0  0  0
    6.3119  -15.7084   24.7674 N   0  0  0  0  0  0  0  0  0  0  0  0
    8.2313  -16.1730   26.1524 C   0  0  0  0  0  0  0  0  0  0  0  0
    7.7343  -16.8836   27.0542 O   0  0  0  0  0  0  0  0  0  0  0  0
   12.0963  -17.1056   24.9669 O   0  0  0  0  0  0  0  0  0  0  0  0
   11.3201  -18.1371   25.4520 C   0  0  0  0  0  0  0  0  0  0  0  0
   10.3084  -17.5476   26.4338 C   0  0  2  0  0  0  0  0  0  0  0  0
    9.6252  -16.4057   25.8664 N   0  0  0  0  0  0  0  0  0  0  0  0
   10.9821  -17.1812   27.6962 C   0  0  0  0  0  0  0  0  0  0  0  0
   11.0391  -15.9922   28.0682 O   0  0  0  0  0  0  0  0  0  0  0  0
   11.5685  -18.1480   28.5007 O   0  0  0  0  0  0  0  0  0  0  0  0
  2  3  1  0
  2  1  1  0
  3  4  2  0
  5  6  1  0
  6  7  1  0
  7  8  1  6
  9  7  1  0
 10  3  1  0
  9 10  1  1
 11 16  1  0
 11  9  1  0
 12 11  2  0
 13 14  1  0
 15 16  1  0
 15 14  1  6
 17 19  1  0
 17 15  1  0
 18 17  2  0
M  END
$$$$
