GIS.pdb
     RDKit          3D

 19 18  0  0  1  0  0  0  0  0999 V2000
    4.2056  -18.6373   20.0026 N   0  0  0  0  0  0  0  0  0  0  0  0
    4.5274  -17.7673   21.0885 C   0  0  0  0  0  0  0  0  0  0  0  0
    5.8986  -17.2337   20.9604 C   0  0  0  0  0  0  0  0  0  0  0  0
    6.7621  -17.9839   20.3896 O   0  0  0  0  0  0  0  0  0  0  0  0
    7.2369  -11.9796   20.0363 C   0  0  0  0  0  0  0  0  0  0  0  0
    7.2259  -13.4796   20.0519 C   0  0  0  0  0  0  0  0  0  0  0  0
    7.8595  -14.0889   21.2772 C   0  0  2  0  0  0  0  0  0  0  0  0
    9.3427  -13.7993   21.3452 C   0  0  0  0  0  0  0  0  0  0  0  0
    7.6639  -15.5675   21.3627 C   0  0  2  0  0  0  0  0  0  0  0  0
    6.2771  -15.9503   21.4375 N   0  0  0  0  0  0  0  0  0  0  0  0
    8.4266  -16.1345   22.5162 C   0  0  0  0  0  0  0  0  0  0  0  0
    8.0866  -16.0175   23.7145 O   0  0  0  0  0  0  0  0  0  0  0  0
   10.9002  -19.2522   22.0670 O   0  0  0  0  0  0  0  0  0  0  0  0
   10.5661  -18.8813   23.3525 C   0  0  0  0  0  0  0  0  0  0  0  0
   10.4326  -17.3595   23.3870 C   0  0  2  0  0  0  0  0  0  0  0  0
    9.6417  -16.8732   22.2777 N   0  0  0  0  0  0  0  0  0  0  0  0
   11.7706  -16.7337   23.3906 C   0  0  0  0  0  0  0  0  0  0  0  0
   12.1795  -16.0940   22.4012 O   0  0  0  0  0  0  0  0  0  0  0  0
   12.6071  -16.8406   24.4927 O   0  0  0  0  0  0  0  0  0  0  0  0
  2  3  1  0
  2  1  1  0
  3  4  2  0
  5  6  1  0
  6  7  1  0
  7  8  1  6
  9  7  1  0
 10  3  1  0
  9 10  1  1
 11 16  1  0
 11  9  1  0
 12 11  2  0
 13 14  1  0
 15 16  1  0
 15 14  1  6
 17 19  1  0
 17 15  1  0
 18 17  2  0
M  END
$$$$
