GIS.pdb
     RDKit          3D

 19 18  0  0  1  0  0  0  0  0999 V2000
    4.9503  -19.1962   24.0237 N   0  0  0  0  0  0  0  0  0  0  0  0
    5.2166  -18.3164   25.1167 C   0  0  0  0  0  0  0  0  0  0  0  0
    6.0779  -17.1906   24.7017 C   0  0  0  0  0  0  0  0  0  0  0  0
    6.4222  -17.1463   23.4714 O   0  0  0  0  0  0  0  0  0  0  0  0
    5.9647  -12.2026   26.9961 C   0  0  0  0  0  0  0  0  0  0  0  0
    6.1036  -13.2679   25.9490 C   0  0  0  0  0  0  0  0  0  0  0  0
    7.4517  -13.9435   25.9308 C   0  0  2  0  0  0  0  0  0  0  0  0
    8.5317  -13.0274   25.3991 C   0  0  0  0  0  0  0  0  0  0  0  0
    7.4638  -15.2024   25.1265 C   0  0  2  0  0  0  0  0  0  0  0  0
    6.5227  -16.1846   25.6007 N   0  0  0  0  0  0  0  0  0  0  0  0
    8.8412  -15.7802   25.0724 C   0  0  0  0  0  0  0  0  0  0  0  0
    9.4304  -16.2957   26.0482 O   0  0  0  0  0  0  0  0  0  0  0  0
   10.9149  -15.6698   21.5061 O   0  0  0  0  0  0  0  0  0  0  0  0
   11.0396  -16.8608   22.1899 C   0  0  0  0  0  0  0  0  0  0  0  0
   10.7506  -16.5923   23.6662 C   0  0  2  0  0  0  0  0  0  0  0  0
    9.5767  -15.7635   23.8324 N   0  0  0  0  0  0  0  0  0  0  0  0
   11.9267  -15.9695   24.3073 C   0  0  0  0  0  0  0  0  0  0  0  0
   11.8401  -14.8509   24.8518 O   0  0  0  0  0  0  0  0  0  0  0  0
   13.1571  -16.6111   24.3209 O   0  0  0  0  0  0  0  0  0  0  0  0
  2  3  1  0
  2  1  1  0
  3  4  2  0
  5  6  1  0
  6  7  1  0
  7  8  1  6
  9  7  1  0
 10  3  1  0
  9 10  1  1
 11 16  1  0
 11  9  1  0
 12 11  2  0
 13 14  1  0
 15 16  1  0
 15 14  1  6
 17 19  1  0
 17 15  1  0
 18 17  2  0
M  END
$$$$
