GIS.pdb
     RDKit          3D

 19 18  0  0  1  0  0  0  0  0999 V2000
    4.5935  -18.7129   23.1485 N   0  0  0  0  0  0  0  0  0  0  0  0
    4.9238  -17.9920   24.3364 C   0  0  0  0  0  0  0  0  0  0  0  0
    6.0026  -17.0142   24.0882 C   0  0  0  0  0  0  0  0  0  0  0  0
    6.5382  -17.0234   22.9274 O   0  0  0  0  0  0  0  0  0  0  0  0
    7.5266  -12.7301   27.6678 C   0  0  0  0  0  0  0  0  0  0  0  0
    7.2931  -14.0110   26.9228 C   0  0  0  0  0  0  0  0  0  0  0  0
    7.4863  -13.9017   25.4313 C   0  0  2  0  0  0  0  0  0  0  0  0
    6.3843  -13.0954   24.7800 C   0  0  0  0  0  0  0  0  0  0  0  0
    7.5617  -15.2304   24.7526 C   0  0  2  0  0  0  0  0  0  0  0  0
    6.4506  -16.0907   25.0701 N   0  0  0  0  0  0  0  0  0  0  0  0
    8.8559  -15.9095   25.0654 C   0  0  0  0  0  0  0  0  0  0  0  0
    9.0225  -16.7128   26.0099 O   0  0  0  0  0  0  0  0  0  0  0  0
   11.4239  -16.4629   22.0534 O   0  0  0  0  0  0  0  0  0  0  0  0
   12.1532  -16.2773   23.2090 C   0  0  0  0  0  0  0  0  0  0  0  0
   11.2099  -16.4540   24.3982 C   0  0  2  0  0  0  0  0  0  0  0  0
   10.0161  -15.6506   24.2494 N   0  0  0  0  0  0  0  0  0  0  0  0
   11.9117  -16.1220   25.6549 C   0  0  0  0  0  0  0  0  0  0  0  0
   11.5216  -15.1818   26.3754 O   0  0  0  0  0  0  0  0  0  0  0  0
   13.0216  -16.8460   26.0668 O   0  0  0  0  0  0  0  0  0  0  0  0
  2  3  1  0
  2  1  1  0
  3  4  2  0
  5  6  1  0
  6  7  1  0
  7  8  1  6
  9  7  1  0
 10  3  1  0
  9 10  1  1
 11 16  1  0
 11  9  1  0
 12 11  2  0
 13 14  1  0
 15 16  1  0
 15 14  1  6
 17 19  1  0
 17 15  1  0
 18 17  2  0
M  END
$$$$
