GIS.pdb
     RDKit          3D

 19 18  0  0  1  0  0  0  0  0999 V2000
    5.0507  -19.2313   24.0650 N   0  0  0  0  0  0  0  0  0  0  0  0
    5.3615  -18.2823   25.0859 C   0  0  0  0  0  0  0  0  0  0  0  0
    6.2909  -17.2466   24.5908 C   0  0  0  0  0  0  0  0  0  0  0  0
    6.7172  -17.3747   23.3925 O   0  0  0  0  0  0  0  0  0  0  0  0
    7.7747  -12.4435   27.4796 C   0  0  0  0  0  0  0  0  0  0  0  0
    7.7246  -13.8281   26.9046 C   0  0  0  0  0  0  0  0  0  0  0  0
    7.6156  -13.8687   25.4011 C   0  0  2  0  0  0  0  0  0  0  0  0
    6.3258  -13.2455   24.9147 C   0  0  0  0  0  0  0  0  0  0  0  0
    7.7092  -15.2521   24.8452 C   0  0  2  0  0  0  0  0  0  0  0  0
    6.7137  -16.1448   25.3815 N   0  0  0  0  0  0  0  0  0  0  0  0
    9.0797  -15.8116   25.0514 C   0  0  0  0  0  0  0  0  0  0  0  0
    9.4649  -16.3691   26.1031 O   0  0  0  0  0  0  0  0  0  0  0  0
   11.6978  -15.9134   21.8087 O   0  0  0  0  0  0  0  0  0  0  0  0
   11.6610  -17.0087   22.6459 C   0  0  0  0  0  0  0  0  0  0  0  0
   11.2584  -16.5270   24.0390 C   0  0  2  0  0  0  0  0  0  0  0  0
   10.0554  -15.7247   23.9934 N   0  0  0  0  0  0  0  0  0  0  0  0
   12.3688  -15.7718   24.6543 C   0  0  0  0  0  0  0  0  0  0  0  0
   12.2344  -14.5687   24.9540 O   0  0  0  0  0  0  0  0  0  0  0  0
   13.5889  -16.3794   24.9148 O   0  0  0  0  0  0  0  0  0  0  0  0
  2  3  1  0
  2  1  1  0
  3  4  2  0
  5  6  1  0
  6  7  1  0
  7  8  1  1
  9  7  1  0
 10  3  1  0
  9 10  1  1
 11 16  1  0
 11  9  1  0
 12 11  2  0
 13 14  1  0
 15 16  1  0
 15 14  1  6
 17 19  1  0
 17 15  1  0
 18 17  2  0
M  END
$$$$
