GIS.pdb
     RDKit          3D

 19 18  0  0  1  0  0  0  0  0999 V2000
    5.5279  -16.8262   21.2019 N   0  0  0  0  0  0  0  0  0  0  0  0
    5.3134  -16.6454   22.6023 C   0  0  0  0  0  0  0  0  0  0  0  0
    6.4046  -15.8611   23.2154 C   0  0  0  0  0  0  0  0  0  0  0  0
    7.4989  -15.7785   22.5598 O   0  0  0  0  0  0  0  0  0  0  0  0
    5.6686  -11.6382   26.7334 C   0  0  0  0  0  0  0  0  0  0  0  0
    6.2175  -12.5046   25.6387 C   0  0  0  0  0  0  0  0  0  0  0  0
    7.1215  -13.6109   26.1216 C   0  0  2  0  0  0  0  0  0  0  0  0
    8.4179  -13.0712   26.6843 C   0  0  0  0  0  0  0  0  0  0  0  0
    7.4485  -14.6057   25.0561 C   0  0  2  0  0  0  0  0  0  0  0  0
    6.2798  -15.2145   24.4741 N   0  0  0  0  0  0  0  0  0  0  0  0
    8.3786  -15.6521   25.5793 C   0  0  0  0  0  0  0  0  0  0  0  0
    8.0543  -16.5407   26.3981 O   0  0  0  0  0  0  0  0  0  0  0  0
   12.8413  -17.3978   25.0478 O   0  0  0  0  0  0  0  0  0  0  0  0
   11.7270  -16.9292   24.3841 C   0  0  0  0  0  0  0  0  0  0  0  0
   10.5813  -16.8334   25.3907 C   0  0  2  0  0  0  0  0  0  0  0  0
    9.7508  -15.6764   25.1373 N   0  0  0  0  0  0  0  0  0  0  0  0
   11.1174  -16.8025   26.7667 C   0  0  0  0  0  0  0  0  0  0  0  0
   11.1385  -15.7407   27.4205 O   0  0  0  0  0  0  0  0  0  0  0  0
   11.6110  -17.9517   27.3679 O   0  0  0  0  0  0  0  0  0  0  0  0
  2  3  1  0
  2  1  1  0
  3  4  2  0
  5  6  1  0
  6  7  1  0
  7  8  1  6
  9  7  1  0
 10  3  1  0
  9 10  1  1
 11 16  1  0
 11  9  1  0
 12 11  2  0
 13 14  1  0
 15 16  1  0
 15 14  1  6
 17 19  1  0
 17 15  1  0
 18 17  2  0
M  END
$$$$
