WER.pdb
     RDKit          3D

 35 36  0  0  1  0  0  0  0  0999 V2000
   26.5104  -20.2322  -10.5654 N   0  0  0  0  0  0  0  0  0  0  0  0
   25.6847  -20.9601   -9.6073 C   0  0  1  0  0  0  0  0  0  0  0  0
   26.1415  -20.5476   -8.2671 C   0  0  0  0  0  0  0  0  0  0  0  0
   27.5366  -20.5006   -7.9690 C   0  0  0  0  0  0  0  0  0  0  0  0
   28.5407  -20.9442   -8.8062 C   0  0  0  0  0  0  0  0  0  0  0  0
   29.7277  -20.7398   -8.2036 N   0  0  0  0  0  0  0  0  0  0  0  0
   29.5363  -20.1712   -6.9871 C   0  0  0  0  0  0  0  0  0  0  0  0
   30.3934  -19.7602   -5.9785 C   0  0  0  0  0  0  0  0  0  0  0  0
   29.8452  -19.2060   -4.8419 C   0  0  0  0  0  0  0  0  0  0  0  0
   28.4804  -19.0663   -4.7152 C   0  0  0  0  0  0  0  0  0  0  0  0
   27.6310  -19.4723   -5.7105 C   0  0  0  0  0  0  0  0  0  0  0  0
   28.1632  -20.0257   -6.8491 C   0  0  0  0  0  0  0  0  0  0  0  0
   24.2953  -20.5833   -9.9417 C   0  0  0  0  0  0  0  0  0  0  0  0
   23.8552  -19.4561   -9.6222 O   0  0  0  0  0  0  0  0  0  0  0  0
   23.4119  -21.4519  -10.6224 N   0  0  0  0  0  0  0  0  0  0  0  0
   21.9634  -21.2050  -10.6851 C   0  0  1  0  0  0  0  0  0  0  0  0
   21.6271  -20.7074  -12.0733 C   0  0  0  0  0  0  0  0  0  0  0  0
   20.1747  -20.3694  -12.2066 C   0  0  0  0  0  0  0  0  0  0  0  0
   19.8575  -19.9274  -13.6115 C   0  0  0  0  0  0  0  0  0  0  0  0
   19.0746  -20.5726  -14.3439 O   0  0  0  0  0  0  0  0  0  0  0  0
   21.2005  -22.3917  -10.3308 C   0  0  0  0  0  0  0  0  0  0  0  0
   21.0728  -23.2987  -11.2106 O   0  0  0  0  0  0  0  0  0  0  0  0
   20.4361  -18.7787  -14.1248 O   0  0  0  0  0  0  0  0  0  0  0  0
   14.6294  -24.1260   -4.9769 N   0  0  0  0  0  0  0  0  0  0  0  0
   15.0514  -25.4225   -5.3762 C   0  0  0  0  0  0  0  0  0  0  0  0
   14.3206  -26.4722   -5.1576 N   0  0  0  0  0  0  0  0  0  0  0  0
   16.2923  -25.6447   -6.0395 N   0  0  0  0  0  0  0  0  0  0  0  0
   17.1359  -24.5404   -6.3724 C   0  0  0  0  0  0  0  0  0  0  0  0
   18.4062  -24.8932   -7.0767 C   0  0  0  0  0  0  0  0  0  0  0  0
   19.2629  -23.6792   -7.3791 C   0  0  0  0  0  0  0  0  0  0  0  0
   19.7263  -23.7795   -8.8443 C   0  0  2  0  0  0  0  0  0  0  0  0
   20.5938  -22.6247   -9.0893 N   0  0  0  0  0  0  0  0  0  0  0  0
   18.5405  -23.7696   -9.7122 C   0  0  0  0  0  0  0  0  0  0  0  0
   18.1723  -24.8202  -10.3360 O   0  0  0  0  0  0  0  0  0  0  0  0
   17.7713  -22.6324   -9.8940 O   0  0  0  0  0  0  0  0  0  0  0  0
  2 13  1  0
  2  1  1  6
  3  4  1  0
  3  2  1  0
  4  5  2  0
  6  5  1  0
  7  6  1  0
  8  7  2  0
  9  8  1  0
 10  9  2  0
 10 11  1  0
 11 12  2  0
 12  7  1  0
 12  4  1  0
 13 14  2  0
 15 16  1  0
 15 13  1  0
 17 18  1  0
 16 17  1  6
 19 18  1  0
 20 19  2  0
 21 22  2  0
 21 16  1  0
 23 19  1  0
 24 25  1  0
 25 27  1  0
 26 25  2  0
 27 28  1  0
 29 28  1  0
 30 29  1  0
 31 32  1  0
 31 30  1  1
 32 21  1  0
 33 31  1  0
 34 33  2  0
 35 33  1  0
M  END
$$$$
