WER.pdb
     RDKit          3D

 35 36  0  0  1  0  0  0  0  0999 V2000
   27.4010  -19.9724  -11.3043 N   0  0  0  0  0  0  0  0  0  0  0  0
   26.4219  -20.9574  -10.8562 C   0  0  1  0  0  0  0  0  0  0  0  0
   26.4116  -20.8929   -9.3829 C   0  0  0  0  0  0  0  0  0  0  0  0
   27.6396  -20.9254   -8.6560 C   0  0  0  0  0  0  0  0  0  0  0  0
   28.8520  -21.3427   -9.1677 C   0  0  0  0  0  0  0  0  0  0  0  0
   29.7879  -21.2336   -8.2054 N   0  0  0  0  0  0  0  0  0  0  0  0
   29.2266  -20.7541   -7.0675 C   0  0  0  0  0  0  0  0  0  0  0  0
   29.7233  -20.4575   -5.8080 C   0  0  0  0  0  0  0  0  0  0  0  0
   28.8491  -19.9717   -4.8597 C   0  0  0  0  0  0  0  0  0  0  0  0
   27.5171  -19.7875   -5.1595 C   0  0  0  0  0  0  0  0  0  0  0  0
   27.0236  -20.0804   -6.4036 C   0  0  0  0  0  0  0  0  0  0  0  0
   27.8832  -20.5646   -7.3588 C   0  0  0  0  0  0  0  0  0  0  0  0
   25.1583  -20.5607  -11.5119 C   0  0  0  0  0  0  0  0  0  0  0  0
   24.5584  -19.5248  -11.1466 O   0  0  0  0  0  0  0  0  0  0  0  0
   24.5743  -21.3093  -12.5592 N   0  0  0  0  0  0  0  0  0  0  0  0
   23.2842  -20.9403  -13.1613 C   0  0  1  0  0  0  0  0  0  0  0  0
   23.4726  -20.8353  -14.6583 C   0  0  0  0  0  0  0  0  0  0  0  0
   24.1998  -19.5838  -15.0413 C   0  0  0  0  0  0  0  0  0  0  0  0
   23.2546  -18.4116  -15.0881 C   0  0  0  0  0  0  0  0  0  0  0  0
   22.0210  -18.5656  -15.2297 O   0  0  0  0  0  0  0  0  0  0  0  0
   22.2366  -21.8857  -12.8079 C   0  0  0  0  0  0  0  0  0  0  0  0
   22.5023  -23.1245  -12.8950 O   0  0  0  0  0  0  0  0  0  0  0  0
   23.7434  -17.1211  -14.9719 O   0  0  0  0  0  0  0  0  0  0  0  0
   16.1094  -24.3401   -8.0487 N   0  0  0  0  0  0  0  0  0  0  0  0
   17.0808  -25.2923   -8.4586 C   0  0  0  0  0  0  0  0  0  0  0  0
   16.8044  -26.5583   -8.5274 N   0  0  0  0  0  0  0  0  0  0  0  0
   18.4061  -24.9154   -8.8198 N   0  0  0  0  0  0  0  0  0  0  0  0
   18.7390  -23.5362   -8.9892 C   0  0  0  0  0  0  0  0  0  0  0  0
   18.2004  -22.8937  -10.2267 C   0  0  0  0  0  0  0  0  0  0  0  0
   19.1446  -21.8577  -10.8051 C   0  0  0  0  0  0  0  0  0  0  0  0
   19.9922  -22.5439  -11.8925 C   0  0  2  0  0  0  0  0  0  0  0  0
   20.9500  -21.5438  -12.3703 N   0  0  0  0  0  0  0  0  0  0  0  0
   19.0971  -23.0028  -12.9637 C   0  0  0  0  0  0  0  0  0  0  0  0
   18.6791  -22.1988  -13.8623 O   0  0  0  0  0  0  0  0  0  0  0  0
   18.6676  -24.3165  -13.0514 O   0  0  0  0  0  0  0  0  0  0  0  0
  2 13  1  0
  2  1  1  6
  3  4  1  0
  3  2  1  0
  4  5  2  0
  6  5  1  0
  7  6  1  0
  8  7  2  0
  9  8  1  0
 10  9  2  0
 10 11  1  0
 11 12  2  0
 12  7  1  0
 12  4  1  0
 13 14  2  0
 15 16  1  0
 15 13  1  0
 17 18  1  0
 16 17  1  6
 19 18  1  0
 20 19  2  0
 21 22  2  0
 21 16  1  0
 23 19  1  0
 24 25  1  0
 25 27  1  0
 26 25  2  0
 27 28  1  0
 29 28  1  0
 30 29  1  0
 31 32  1  0
 31 30  1  1
 32 21  1  0
 33 31  1  0
 34 33  2  0
 35 33  1  0
M  END
$$$$
