WER.pdb
     RDKit          3D

 35 36  0  0  1  0  0  0  0  0999 V2000
   23.6898  -20.8288  -16.3021 N   0  0  0  0  0  0  0  0  0  0  0  0
   22.7031  -19.8353  -15.8910 C   0  0  1  0  0  0  0  0  0  0  0  0
   21.7655  -19.6890  -17.0199 C   0  0  0  0  0  0  0  0  0  0  0  0
   22.0280  -18.7366  -18.0501 C   0  0  0  0  0  0  0  0  0  0  0  0
   23.1233  -18.7602  -18.8902 C   0  0  0  0  0  0  0  0  0  0  0  0
   23.0410  -17.7164  -19.7372 N   0  0  0  0  0  0  0  0  0  0  0  0
   21.9179  -17.0004  -19.4803 C   0  0  0  0  0  0  0  0  0  0  0  0
   21.3618  -15.8609  -20.0398 C   0  0  0  0  0  0  0  0  0  0  0  0
   20.1752  -15.3909  -19.5194 C   0  0  0  0  0  0  0  0  0  0  0  0
   19.5614  -16.0393  -18.4702 C   0  0  0  0  0  0  0  0  0  0  0  0
   20.1094  -17.1656  -17.9150 C   0  0  0  0  0  0  0  0  0  0  0  0
   21.2911  -17.6458  -18.4237 C   0  0  0  0  0  0  0  0  0  0  0  0
   22.1131  -20.3785  -14.6498 C   0  0  0  0  0  0  0  0  0  0  0  0
   22.0597  -21.6156  -14.4678 O   0  0  0  0  0  0  0  0  0  0  0  0
   21.5912  -19.5528  -13.6280 N   0  0  0  0  0  0  0  0  0  0  0  0
   21.0340  -20.1035  -12.3833 C   0  0  1  0  0  0  0  0  0  0  0  0
   20.9313  -18.9824  -11.3732 C   0  0  0  0  0  0  0  0  0  0  0  0
   20.2538  -19.4276  -10.1145 C   0  0  0  0  0  0  0  0  0  0  0  0
   21.1360  -20.3718   -9.3399 C   0  0  0  0  0  0  0  0  0  0  0  0
   22.3666  -20.4477   -9.5532 O   0  0  0  0  0  0  0  0  0  0  0  0
   19.7525  -20.7534  -12.6098 C   0  0  0  0  0  0  0  0  0  0  0  0
   18.9485  -20.2090  -13.4284 O   0  0  0  0  0  0  0  0  0  0  0  0
   20.5906  -21.1852   -8.3607 O   0  0  0  0  0  0  0  0  0  0  0  0
   18.1944  -26.2447   -8.7670 N   0  0  0  0  0  0  0  0  0  0  0  0
   18.1837  -25.1647   -7.8440 C   0  0  0  0  0  0  0  0  0  0  0  0
   18.9938  -25.1286   -6.8309 N   0  0  0  0  0  0  0  0  0  0  0  0
   17.2910  -24.0626   -7.9775 N   0  0  0  0  0  0  0  0  0  0  0  0
   16.3606  -24.0200   -9.0611 C   0  0  0  0  0  0  0  0  0  0  0  0
   16.6800  -23.0388  -10.1426 C   0  0  0  0  0  0  0  0  0  0  0  0
   17.7707  -23.5309  -11.0740 C   0  0  0  0  0  0  0  0  0  0  0  0
   17.9712  -22.4691  -12.1712 C   0  0  2  0  0  0  0  0  0  0  0  0
   19.3274  -21.9419  -12.0013 N   0  0  0  0  0  0  0  0  0  0  0  0
   16.9511  -21.4246  -12.0041 C   0  0  0  0  0  0  0  0  0  0  0  0
   17.1337  -20.4480  -11.2031 O   0  0  0  0  0  0  0  0  0  0  0  0
   15.7542  -21.4470  -12.7002 O   0  0  0  0  0  0  0  0  0  0  0  0
  2 13  1  0
  2  1  1  6
  3  4  1  0
  3  2  1  0
  4  5  2  0
  6  5  1  0
  7  6  1  0
  8  7  2  0
  9  8  1  0
 10  9  2  0
 10 11  1  0
 11 12  2  0
 12  7  1  0
 12  4  1  0
 13 14  2  0
 15 16  1  0
 15 13  1  0
 17 18  1  0
 16 17  1  1
 19 18  1  0
 20 19  2  0
 21 22  2  0
 21 16  1  0
 23 19  1  0
 24 25  1  0
 25 27  1  0
 26 25  2  0
 27 28  1  0
 29 28  1  0
 30 29  1  0
 31 32  1  0
 31 30  1  1
 32 21  1  0
 33 31  1  0
 34 33  2  0
 35 33  1  0
M  END
$$$$
