WER.pdb
     RDKit          3D

 35 36  0  0  1  0  0  0  0  0999 V2000
   28.0767  -20.8481  -16.5032 N   0  0  0  0  0  0  0  0  0  0  0  0
   27.8009  -19.8696  -15.4562 C   0  0  1  0  0  0  0  0  0  0  0  0
   27.0696  -18.7641  -16.1027 C   0  0  0  0  0  0  0  0  0  0  0  0
   27.7442  -17.8935  -17.0108 C   0  0  0  0  0  0  0  0  0  0  0  0
   27.1463  -17.2294  -18.0631 C   0  0  0  0  0  0  0  0  0  0  0  0
   28.0808  -16.4971  -18.6989 N   0  0  0  0  0  0  0  0  0  0  0  0
   29.2843  -16.6586  -18.0945 C   0  0  0  0  0  0  0  0  0  0  0  0
   30.5504  -16.1482  -18.3339 C   0  0  0  0  0  0  0  0  0  0  0  0
   31.5775  -16.5326  -17.4990 C   0  0  0  0  0  0  0  0  0  0  0  0
   31.3477  -17.4020  -16.4553 C   0  0  0  0  0  0  0  0  0  0  0  0
   30.0972  -17.9083  -16.2168 C   0  0  0  0  0  0  0  0  0  0  0  0
   29.0640  -17.5335  -17.0402 C   0  0  0  0  0  0  0  0  0  0  0  0
   27.0382  -20.6146  -14.4329 C   0  0  0  0  0  0  0  0  0  0  0  0
   26.3517  -21.6087  -14.7601 O   0  0  0  0  0  0  0  0  0  0  0  0
   27.0424  -20.2549  -13.0659 N   0  0  0  0  0  0  0  0  0  0  0  0
   26.1189  -20.8590  -12.0936 C   0  0  1  0  0  0  0  0  0  0  0  0
   26.4939  -20.3656  -10.7139 C   0  0  0  0  0  0  0  0  0  0  0  0
   25.5450  -20.8630   -9.6681 C   0  0  0  0  0  0  0  0  0  0  0  0
   26.0198  -20.4773   -8.2913 C   0  0  0  0  0  0  0  0  0  0  0  0
   26.9386  -19.6453   -8.1206 O   0  0  0  0  0  0  0  0  0  0  0  0
   24.7312  -20.5686  -12.4189 C   0  0  0  0  0  0  0  0  0  0  0  0
   24.4281  -19.3688  -12.7045 O   0  0  0  0  0  0  0  0  0  0  0  0
   25.4363  -21.0461   -7.1715 O   0  0  0  0  0  0  0  0  0  0  0  0
   19.6502  -25.6965  -16.6539 N   0  0  0  0  0  0  0  0  0  0  0  0
   20.6730  -25.7129  -15.6680 C   0  0  0  0  0  0  0  0  0  0  0  0
   21.2162  -26.8224  -15.2709 N   0  0  0  0  0  0  0  0  0  0  0  0
   21.1623  -24.5193  -15.0639 N   0  0  0  0  0  0  0  0  0  0  0  0
   20.7031  -23.2447  -15.5181 C   0  0  0  0  0  0  0  0  0  0  0  0
   21.2641  -22.0648  -14.7920 C   0  0  0  0  0  0  0  0  0  0  0  0
   21.6395  -22.3858  -13.3583 C   0  0  0  0  0  0  0  0  0  0  0  0
   22.3076  -21.1373  -12.7528 C   0  0  2  0  0  0  0  0  0  0  0  0
   23.6921  -21.5082  -12.4500 N   0  0  0  0  0  0  0  0  0  0  0  0
   21.5664  -20.7490  -11.5447 C   0  0  0  0  0  0  0  0  0  0  0  0
   22.0439  -20.9653  -10.3812 O   0  0  0  0  0  0  0  0  0  0  0  0
   20.3266  -20.1351  -11.6077 O   0  0  0  0  0  0  0  0  0  0  0  0
  2 13  1  0
  2  1  1  6
  3  4  1  0
  3  2  1  0
  4  5  2  0
  6  5  1  0
  7  6  1  0
  8  7  2  0
  9  8  1  0
 10  9  2  0
 10 11  1  0
 11 12  2  0
 12  7  1  0
 12  4  1  0
 13 14  2  0
 15 16  1  0
 15 13  1  0
 17 18  1  0
 16 17  1  1
 19 18  1  0
 20 19  2  0
 21 22  2  0
 21 16  1  0
 23 19  1  0
 24 25  1  0
 25 27  1  0
 26 25  2  0
 27 28  1  0
 29 28  1  0
 30 29  1  0
 31 32  1  0
 31 30  1  1
 32 21  1  0
 33 31  1  0
 34 33  2  0
 35 33  1  0
M  END
$$$$
