WER.pdb
     RDKit          3D

 35 36  0  0  1  0  0  0  0  0999 V2000
   26.3132  -18.8560   -9.0699 N   0  0  0  0  0  0  0  0  0  0  0  0
   26.8444  -20.1594   -9.4555 C   0  0  1  0  0  0  0  0  0  0  0  0
   26.4723  -21.0951   -8.3781 C   0  0  0  0  0  0  0  0  0  0  0  0
   26.8047  -20.7954   -7.0227 C   0  0  0  0  0  0  0  0  0  0  0  0
   25.9166  -20.8180   -5.9659 C   0  0  0  0  0  0  0  0  0  0  0  0
   26.5770  -20.4888   -4.8392 N   0  0  0  0  0  0  0  0  0  0  0  0
   27.8816  -20.2485   -5.1220 C   0  0  0  0  0  0  0  0  0  0  0  0
   28.9750  -19.8834   -4.3525 C   0  0  0  0  0  0  0  0  0  0  0  0
   30.1903  -19.7201   -4.9817 C   0  0  0  0  0  0  0  0  0  0  0  0
   30.3110  -19.9150   -6.3402 C   0  0  0  0  0  0  0  0  0  0  0  0
   29.2316  -20.2755   -7.1031 C   0  0  0  0  0  0  0  0  0  0  0  0
   28.0145  -20.4425   -6.4896 C   0  0  0  0  0  0  0  0  0  0  0  0
   26.2356  -20.4421  -10.7721 C   0  0  0  0  0  0  0  0  0  0  0  0
   25.0558  -20.0965  -11.0066 O   0  0  0  0  0  0  0  0  0  0  0  0
   26.9338  -21.1002  -11.8101 N   0  0  0  0  0  0  0  0  0  0  0  0
   26.4984  -21.0323  -13.2133 C   0  0  1  0  0  0  0  0  0  0  0  0
   27.6410  -21.4996  -14.0872 C   0  0  0  0  0  0  0  0  0  0  0  0
   27.2714  -21.4913  -15.5381 C   0  0  0  0  0  0  0  0  0  0  0  0
   28.4387  -21.9217  -16.3877 C   0  0  0  0  0  0  0  0  0  0  0  0
   28.3083  -22.1763  -17.6057 O   0  0  0  0  0  0  0  0  0  0  0  0
   25.2874  -21.8062  -13.4379 C   0  0  0  0  0  0  0  0  0  0  0  0
   25.0886  -22.8224  -12.7025 O   0  0  0  0  0  0  0  0  0  0  0  0
   29.6984  -22.0438  -15.8253 O   0  0  0  0  0  0  0  0  0  0  0  0
   18.9248  -16.5329  -13.3721 N   0  0  0  0  0  0  0  0  0  0  0  0
   19.5445  -16.9963  -14.5636 C   0  0  0  0  0  0  0  0  0  0  0  0
   19.6033  -16.2591  -15.6299 N   0  0  0  0  0  0  0  0  0  0  0  0
   20.1374  -18.2882  -14.6563 N   0  0  0  0  0  0  0  0  0  0  0  0
   20.0681  -19.1906  -13.5506 C   0  0  0  0  0  0  0  0  0  0  0  0
   20.7751  -20.4938  -13.7410 C   0  0  0  0  0  0  0  0  0  0  0  0
   22.2567  -20.3201  -14.0131 C   0  0  0  0  0  0  0  0  0  0  0  0
   22.8804  -21.7214  -14.1508 C   0  0  2  0  0  0  0  0  0  0  0  0
   24.3099  -21.5210  -14.4007 N   0  0  0  0  0  0  0  0  0  0  0  0
   22.2212  -22.4201  -15.2629 C   0  0  0  0  0  0  0  0  0  0  0  0
   22.7496  -22.4554  -16.4240 O   0  0  0  0  0  0  0  0  0  0  0  0
   21.0074  -23.0687  -15.1082 O   0  0  0  0  0  0  0  0  0  0  0  0
  2 13  1  0
  2  1  1  1
  3  4  1  0
  3  2  1  0
  4  5  2  0
  6  5  1  0
  7  6  1  0
  8  7  2  0
  9  8  1  0
 10  9  2  0
 10 11  1  0
 11 12  2  0
 12  7  1  0
 12  4  1  0
 13 14  2  0
 15 16  1  0
 15 13  1  0
 17 18  1  0
 16 17  1  6
 19 18  1  0
 20 19  2  0
 21 22  2  0
 21 16  1  0
 23 19  1  0
 24 25  1  0
 25 27  1  0
 26 25  2  0
 27 28  1  0
 29 28  1  0
 30 29  1  0
 31 32  1  0
 31 30  1  6
 32 21  1  0
 33 31  1  0
 34 33  2  0
 35 33  1  0
M  END
$$$$
