WER.pdb
     RDKit          3D

 35 36  0  0  1  0  0  0  0  0999 V2000
   26.6765  -22.6254   -9.4624 N   0  0  0  0  0  0  0  0  0  0  0  0
   25.9942  -21.5361   -8.7714 C   0  0  1  0  0  0  0  0  0  0  0  0
   26.8858  -20.3648   -8.8596 C   0  0  0  0  0  0  0  0  0  0  0  0
   28.1083  -20.3382   -8.1232 C   0  0  0  0  0  0  0  0  0  0  0  0
   29.3566  -20.6017   -8.6508 C   0  0  0  0  0  0  0  0  0  0  0  0
   30.2740  -20.4793   -7.6725 N   0  0  0  0  0  0  0  0  0  0  0  0
   29.6655  -20.1408   -6.5084 C   0  0  0  0  0  0  0  0  0  0  0  0
   30.1269  -19.8953   -5.2247 C   0  0  0  0  0  0  0  0  0  0  0  0
   29.2071  -19.5653   -4.2528 C   0  0  0  0  0  0  0  0  0  0  0  0
   27.8650  -19.4831   -4.5532 C   0  0  0  0  0  0  0  0  0  0  0  0
   27.4064  -19.7259   -5.8212 C   0  0  0  0  0  0  0  0  0  0  0  0
   28.3115  -20.0551   -6.8000 C   0  0  0  0  0  0  0  0  0  0  0  0
   24.7001  -21.3955   -9.4711 C   0  0  0  0  0  0  0  0  0  0  0  0
   24.6141  -21.6548  -10.6925 O   0  0  0  0  0  0  0  0  0  0  0  0
   23.5208  -20.9721   -8.8167 N   0  0  0  0  0  0  0  0  0  0  0  0
   22.1973  -21.0600   -9.4520 C   0  0  1  0  0  0  0  0  0  0  0  0
   21.1445  -20.9128   -8.3761 C   0  0  0  0  0  0  0  0  0  0  0  0
   21.0113  -22.1569   -7.5538 C   0  0  0  0  0  0  0  0  0  0  0  0
   20.2996  -23.2346   -8.3296 C   0  0  0  0  0  0  0  0  0  0  0  0
   19.3908  -22.9667   -9.1467 O   0  0  0  0  0  0  0  0  0  0  0  0
   22.0414  -20.0712  -10.5074 C   0  0  0  0  0  0  0  0  0  0  0  0
   22.3683  -18.8716  -10.2485 O   0  0  0  0  0  0  0  0  0  0  0  0
   20.6462  -24.5631   -8.1491 O   0  0  0  0  0  0  0  0  0  0  0  0
   18.8962  -18.6345  -17.7042 N   0  0  0  0  0  0  0  0  0  0  0  0
   20.1285  -18.1521  -18.2212 C   0  0  0  0  0  0  0  0  0  0  0  0
   20.1677  -17.2818  -19.1829 N   0  0  0  0  0  0  0  0  0  0  0  0
   21.3859  -18.5900  -17.7150 N   0  0  0  0  0  0  0  0  0  0  0  0
   21.4388  -19.5366  -16.6459 C   0  0  0  0  0  0  0  0  0  0  0  0
   21.3827  -18.9544  -15.2704 C   0  0  0  0  0  0  0  0  0  0  0  0
   21.4908  -20.0081  -14.1853 C   0  0  0  0  0  0  0  0  0  0  0  0
   21.4623  -19.2901  -12.8232 C   0  0  2  0  0  0  0  0  0  0  0  0
   21.5627  -20.3319  -11.7983 N   0  0  0  0  0  0  0  0  0  0  0  0
   20.2057  -18.5355  -12.7180 C   0  0  0  0  0  0  0  0  0  0  0  0
   19.1440  -19.0836  -12.2697 O   0  0  0  0  0  0  0  0  0  0  0  0
   20.1120  -17.2062  -13.0950 O   0  0  0  0  0  0  0  0  0  0  0  0
  2 13  1  0
  2  1  1  6
  3  4  1  0
  3  2  1  0
  4  5  2  0
  6  5  1  0
  7  6  1  0
  8  7  2  0
  9  8  1  0
 10  9  2  0
 10 11  1  0
 11 12  2  0
 12  7  1  0
 12  4  1  0
 13 14  2  0
 15 16  1  0
 15 13  1  0
 17 18  1  0
 16 17  1  1
 19 18  1  0
 20 19  2  0
 21 22  2  0
 21 16  1  0
 23 19  1  0
 24 25  1  0
 25 27  1  0
 26 25  2  0
 27 28  1  0
 29 28  1  0
 30 29  1  0
 31 32  1  0
 31 30  1  6
 32 21  1  0
 33 31  1  0
 34 33  2  0
 35 33  1  0
M  END
$$$$
