WER.pdb
     RDKit          3D

 35 36  0  0  1  0  0  0  0  0999 V2000
   28.5918  -26.6372  -17.6958 N   0  0  0  0  0  0  0  0  0  0  0  0
   27.6857  -27.7234  -18.0547 C   0  0  1  0  0  0  0  0  0  0  0  0
   28.0793  -28.8821  -17.2317 C   0  0  0  0  0  0  0  0  0  0  0  0
   29.1868  -29.6941  -17.6212 C   0  0  0  0  0  0  0  0  0  0  0  0
   30.0531  -29.4077  -18.6573 C   0  0  0  0  0  0  0  0  0  0  0  0
   30.9752  -30.3863  -18.7327 N   0  0  0  0  0  0  0  0  0  0  0  0
   30.7425  -31.3153  -17.7721 C   0  0  0  0  0  0  0  0  0  0  0  0
   31.3721  -32.4963  -17.4118 C   0  0  0  0  0  0  0  0  0  0  0  0
   30.8560  -33.2146  -16.3548 C   0  0  0  0  0  0  0  0  0  0  0  0
   29.7431  -32.7674  -15.6769 C   0  0  0  0  0  0  0  0  0  0  0  0
   29.1187  -31.6006  -16.0314 C   0  0  0  0  0  0  0  0  0  0  0  0
   29.6222  -30.8740  -17.0823 C   0  0  0  0  0  0  0  0  0  0  0  0
   26.3329  -27.1923  -17.7866 C   0  0  0  0  0  0  0  0  0  0  0  0
   26.1627  -26.3211  -16.9043 O   0  0  0  0  0  0  0  0  0  0  0  0
   25.1885  -27.6273  -18.4933 N   0  0  0  0  0  0  0  0  0  0  0  0
   23.8567  -27.0483  -18.2606 C   0  0  1  0  0  0  0  0  0  0  0  0
   23.2799  -26.6345  -19.5962 C   0  0  0  0  0  0  0  0  0  0  0  0
   23.8250  -25.3172  -20.0537 C   0  0  0  0  0  0  0  0  0  0  0  0
   23.1743  -24.1827  -19.3058 C   0  0  0  0  0  0  0  0  0  0  0  0
   23.7438  -23.6126  -18.3487 O   0  0  0  0  0  0  0  0  0  0  0  0
   22.9853  -27.9730  -17.5526 C   0  0  0  0  0  0  0  0  0  0  0  0
   22.9541  -29.1792  -17.9488 O   0  0  0  0  0  0  0  0  0  0  0  0
   21.9131  -23.7432  -19.6721 O   0  0  0  0  0  0  0  0  0  0  0  0
   19.9391  -30.7031   -9.9905 N   0  0  0  0  0  0  0  0  0  0  0  0
   21.0918  -29.8774  -10.0804 C   0  0  0  0  0  0  0  0  0  0  0  0
   22.0598  -29.9660   -9.2208 N   0  0  0  0  0  0  0  0  0  0  0  0
   21.2536  -28.9122  -11.1154 N   0  0  0  0  0  0  0  0  0  0  0  0
   20.2172  -28.7121  -12.0785 C   0  0  0  0  0  0  0  0  0  0  0  0
   20.5335  -29.1704  -13.4657 C   0  0  0  0  0  0  0  0  0  0  0  0
   21.2076  -28.0957  -14.2964 C   0  0  0  0  0  0  0  0  0  0  0  0
   21.4111  -28.6534  -15.7174 C   0  0  2  0  0  0  0  0  0  0  0  0
   22.1744  -27.6457  -16.4576 N   0  0  0  0  0  0  0  0  0  0  0  0
   20.0923  -28.8948  -16.3190 C   0  0  0  0  0  0  0  0  0  0  0  0
   19.3622  -27.9261  -16.7156 O   0  0  0  0  0  0  0  0  0  0  0  0
   19.5817  -30.1713  -16.4848 O   0  0  0  0  0  0  0  0  0  0  0  0
  2 13  1  0
  2  1  1  1
  3  4  1  0
  3  2  1  0
  4  5  2  0
  6  5  1  0
  7  6  1  0
  8  7  2  0
  9  8  1  0
 10  9  2  0
 10 11  1  0
 11 12  2  0
 12  7  1  0
 12  4  1  0
 13 14  2  0
 15 16  1  0
 15 13  1  0
 17 18  1  0
 16 17  1  6
 19 18  1  0
 20 19  2  0
 21 22  2  0
 21 16  1  0
 23 19  1  0
 24 25  1  0
 25 27  1  0
 26 25  2  0
 27 28  1  0
 29 28  1  0
 30 29  1  0
 31 32  1  0
 31 30  1  1
 32 21  1  0
 33 31  1  0
 34 33  2  0
 35 33  1  0
M  END
$$$$
