WER.pdb
     RDKit          3D

 35 36  0  0  1  0  0  0  0  0999 V2000
   26.3566  -21.8583  -12.4766 N   0  0  0  0  0  0  0  0  0  0  0  0
   25.6795  -21.1715  -11.3813 C   0  0  1  0  0  0  0  0  0  0  0  0
   26.5778  -20.0823  -10.9553 C   0  0  0  0  0  0  0  0  0  0  0  0
   27.7451  -20.3754  -10.1878 C   0  0  0  0  0  0  0  0  0  0  0  0
   28.9866  -20.6689  -10.7153 C   0  0  0  0  0  0  0  0  0  0  0  0
   29.8467  -20.8852   -9.7018 N   0  0  0  0  0  0  0  0  0  0  0  0
   29.2068  -20.7423   -8.5144 C   0  0  0  0  0  0  0  0  0  0  0  0
   29.6091  -20.8507   -7.1925 C   0  0  0  0  0  0  0  0  0  0  0  0
   28.6719  -20.6337   -6.2055 C   0  0  0  0  0  0  0  0  0  0  0  0
   27.3703  -20.3181   -6.5284 C   0  0  0  0  0  0  0  0  0  0  0  0
   26.9700  -20.2109   -7.8342 C   0  0  0  0  0  0  0  0  0  0  0  0
   27.8931  -20.4238   -8.8284 C   0  0  0  0  0  0  0  0  0  0  0  0
   24.3871  -20.7348  -11.9495 C   0  0  0  0  0  0  0  0  0  0  0  0
   23.6895  -19.8878  -11.3476 O   0  0  0  0  0  0  0  0  0  0  0  0
   23.8821  -21.2364  -13.1709 N   0  0  0  0  0  0  0  0  0  0  0  0
   22.5704  -20.8341  -13.7008 C   0  0  1  0  0  0  0  0  0  0  0  0
   22.7333  -20.5022  -15.1674 C   0  0  0  0  0  0  0  0  0  0  0  0
   21.4462  -20.0454  -15.7809 C   0  0  0  0  0  0  0  0  0  0  0  0
   21.0751  -18.6735  -15.2809 C   0  0  0  0  0  0  0  0  0  0  0  0
   21.9220  -17.7581  -15.1798 O   0  0  0  0  0  0  0  0  0  0  0  0
   21.5646  -21.8620  -13.4821 C   0  0  0  0  0  0  0  0  0  0  0  0
   21.7274  -22.9824  -14.0576 O   0  0  0  0  0  0  0  0  0  0  0  0
   19.7671  -18.3971  -14.9196 O   0  0  0  0  0  0  0  0  0  0  0  0
   15.8107  -26.3647  -10.1550 N   0  0  0  0  0  0  0  0  0  0  0  0
   17.0799  -26.3906   -9.5172 C   0  0  0  0  0  0  0  0  0  0  0  0
   17.4615  -27.4056   -8.8044 N   0  0  0  0  0  0  0  0  0  0  0  0
   18.0044  -25.3122   -9.6251 N   0  0  0  0  0  0  0  0  0  0  0  0
   17.5358  -23.9897   -9.8953 C   0  0  0  0  0  0  0  0  0  0  0  0
   18.5983  -22.9808  -10.1914 C   0  0  0  0  0  0  0  0  0  0  0  0
   18.3867  -22.2830  -11.5210 C   0  0  0  0  0  0  0  0  0  0  0  0
   19.4516  -22.8040  -12.5040 C   0  0  2  0  0  0  0  0  0  0  0  0
   20.4245  -21.7229  -12.6793 N   0  0  0  0  0  0  0  0  0  0  0  0
   18.7896  -23.1573  -13.7675 C   0  0  0  0  0  0  0  0  0  0  0  0
   18.4647  -22.2594  -14.6142 O   0  0  0  0  0  0  0  0  0  0  0  0
   18.4892  -24.4678  -14.0994 O   0  0  0  0  0  0  0  0  0  0  0  0
  2 13  1  0
  2  1  1  6
  3  4  1  0
  3  2  1  0
  4  5  2  0
  6  5  1  0
  7  6  1  0
  8  7  2  0
  9  8  1  0
 10  9  2  0
 10 11  1  0
 11 12  2  0
 12  7  1  0
 12  4  1  0
 13 14  2  0
 15 16  1  0
 15 13  1  0
 17 18  1  0
 16 17  1  6
 19 18  1  0
 20 19  2  0
 21 22  2  0
 21 16  1  0
 23 19  1  0
 24 25  1  0
 25 27  1  0
 26 25  2  0
 27 28  1  0
 29 28  1  0
 30 29  1  0
 31 32  1  0
 31 30  1  1
 32 21  1  0
 33 31  1  0
 34 33  2  0
 35 33  1  0
M  END
$$$$
