WER.pdb
     RDKit          3D

 35 36  0  0  1  0  0  0  0  0999 V2000
   25.2537  -21.7459  -16.9272 N   0  0  0  0  0  0  0  0  0  0  0  0
   23.8779  -21.2616  -16.9761 C   0  0  1  0  0  0  0  0  0  0  0  0
   23.4244  -21.4380  -18.3683 C   0  0  0  0  0  0  0  0  0  0  0  0
   23.9905  -20.6454  -19.4118 C   0  0  0  0  0  0  0  0  0  0  0  0
   25.0192  -21.0455  -20.2410 C   0  0  0  0  0  0  0  0  0  0  0  0
   25.2895  -20.0493  -21.1060 N   0  0  0  0  0  0  0  0  0  0  0  0
   24.4655  -18.9977  -20.8715 C   0  0  0  0  0  0  0  0  0  0  0  0
   24.3193  -17.7491  -21.4551 C   0  0  0  0  0  0  0  0  0  0  0  0
   23.3532  -16.9036  -20.9537 C   0  0  0  0  0  0  0  0  0  0  0  0
   22.5560  -17.2928  -19.8995 C   0  0  0  0  0  0  0  0  0  0  0  0
   22.6989  -18.5263  -19.3207 C   0  0  0  0  0  0  0  0  0  0  0  0
   23.6570  -19.3795  -19.8103 C   0  0  0  0  0  0  0  0  0  0  0  0
   23.1557  -22.0707  -15.9722 C   0  0  0  0  0  0  0  0  0  0  0  0
   23.3978  -23.2932  -15.8575 O   0  0  0  0  0  0  0  0  0  0  0  0
   22.1787  -21.5226  -15.1101 N   0  0  0  0  0  0  0  0  0  0  0  0
   21.4836  -22.3323  -14.0980 C   0  0  1  0  0  0  0  0  0  0  0  0
   21.2121  -21.4565  -12.8951 C   0  0  0  0  0  0  0  0  0  0  0  0
   20.7335  -20.0952  -13.2945 C   0  0  0  0  0  0  0  0  0  0  0  0
   20.5046  -19.2335  -12.0801 C   0  0  0  0  0  0  0  0  0  0  0  0
   21.3933  -19.0643  -11.2157 O   0  0  0  0  0  0  0  0  0  0  0  0
   20.2654  -22.9247  -14.6281 C   0  0  0  0  0  0  0  0  0  0  0  0
   19.5422  -22.2110  -15.3899 O   0  0  0  0  0  0  0  0  0  0  0  0
   19.2858  -18.6019  -11.8972 O   0  0  0  0  0  0  0  0  0  0  0  0
   19.9713  -27.2305  -10.7017 N   0  0  0  0  0  0  0  0  0  0  0  0
   20.9652  -28.0536  -11.2959 C   0  0  0  0  0  0  0  0  0  0  0  0
   21.9904  -28.4754  -10.6214 N   0  0  0  0  0  0  0  0  0  0  0  0
   20.8934  -28.4650  -12.6578 N   0  0  0  0  0  0  0  0  0  0  0  0
   19.7896  -28.0634  -13.4715 C   0  0  0  0  0  0  0  0  0  0  0  0
   19.7513  -26.6127  -13.8297 C   0  0  0  0  0  0  0  0  0  0  0  0
   18.5551  -26.2551  -14.6903 C   0  0  0  0  0  0  0  0  0  0  0  0
   18.5262  -24.7234  -14.8483 C   0  0  2  0  0  0  0  0  0  0  0  0
   19.8205  -24.2288  -14.3727 N   0  0  0  0  0  0  0  0  0  0  0  0
   17.4097  -24.1918  -14.0543 C   0  0  0  0  0  0  0  0  0  0  0  0
   16.1988  -24.4334  -14.3765 O   0  0  0  0  0  0  0  0  0  0  0  0
   17.6135  -23.4112  -12.9287 O   0  0  0  0  0  0  0  0  0  0  0  0
  2 13  1  0
  2  1  1  6
  3  4  1  0
  3  2  1  0
  4  5  2  0
  6  5  1  0
  7  6  1  0
  8  7  2  0
  9  8  1  0
 10  9  2  0
 10 11  1  0
 11 12  2  0
 12  7  1  0
 12  4  1  0
 13 14  2  0
 15 16  1  0
 15 13  1  0
 17 18  1  0
 16 17  1  1
 19 18  1  0
 20 19  2  0
 21 22  2  0
 21 16  1  0
 23 19  1  0
 24 25  1  0
 25 27  1  0
 26 25  2  0
 27 28  1  0
 29 28  1  0
 30 29  1  0
 31 32  1  0
 31 30  1  1
 32 21  1  0
 33 31  1  0
 34 33  2  0
 35 33  1  0
M  END
$$$$
