WER.pdb
     RDKit          3D

 35 36  0  0  1  0  0  0  0  0999 V2000
   26.1867  -22.9519  -12.2520 N   0  0  0  0  0  0  0  0  0  0  0  0
   25.5782  -21.8640  -11.4929 C   0  0  1  0  0  0  0  0  0  0  0  0
   26.5709  -20.7739  -11.4603 C   0  0  0  0  0  0  0  0  0  0  0  0
   27.6470  -20.8128  -10.5233 C   0  0  0  0  0  0  0  0  0  0  0  0
   28.9665  -21.0633  -10.8425 C   0  0  0  0  0  0  0  0  0  0  0  0
   29.7005  -21.0167   -9.7143 N   0  0  0  0  0  0  0  0  0  0  0  0
   28.9008  -20.7413   -8.6539 C   0  0  0  0  0  0  0  0  0  0  0  0
   29.1333  -20.5834   -7.2968 C   0  0  0  0  0  0  0  0  0  0  0  0
   28.0603  -20.2994   -6.4797 C   0  0  0  0  0  0  0  0  0  0  0  0
   26.7913  -20.1770   -7.0021 C   0  0  0  0  0  0  0  0  0  0  0  0
   26.5588  -20.3332   -8.3431 C   0  0  0  0  0  0  0  0  0  0  0  0
   27.6186  -20.6158   -9.1695 C   0  0  0  0  0  0  0  0  0  0  0  0
   24.3263  -21.5531  -12.2139 C   0  0  0  0  0  0  0  0  0  0  0  0
   24.2133  -21.8345  -13.4282 O   0  0  0  0  0  0  0  0  0  0  0  0
   23.2180  -20.9378  -11.5882 N   0  0  0  0  0  0  0  0  0  0  0  0
   21.8910  -20.8847  -12.2202 C   0  0  1  0  0  0  0  0  0  0  0  0
   20.8737  -20.5336  -11.1574 C   0  0  0  0  0  0  0  0  0  0  0  0
   19.5115  -20.3185  -11.7404 C   0  0  0  0  0  0  0  0  0  0  0  0
   18.8244  -21.6359  -11.9893 C   0  0  0  0  0  0  0  0  0  0  0  0
   19.2153  -22.6948  -11.4495 O   0  0  0  0  0  0  0  0  0  0  0  0
   21.8633  -19.9484  -13.3331 C   0  0  0  0  0  0  0  0  0  0  0  0
   22.1392  -18.7325  -13.0916 O   0  0  0  0  0  0  0  0  0  0  0  0
   17.7285  -21.6982  -12.8336 O   0  0  0  0  0  0  0  0  0  0  0  0
   18.8380  -17.6339  -19.5582 N   0  0  0  0  0  0  0  0  0  0  0  0
   19.7952  -17.7429  -20.6024 C   0  0  0  0  0  0  0  0  0  0  0  0
   19.7821  -16.9410  -21.6225 N   0  0  0  0  0  0  0  0  0  0  0  0
   20.8217  -18.7304  -20.5893 N   0  0  0  0  0  0  0  0  0  0  0  0
   20.9285  -19.6400  -19.4925 C   0  0  0  0  0  0  0  0  0  0  0  0
   21.1725  -19.0108  -18.1588 C   0  0  0  0  0  0  0  0  0  0  0  0
   21.2781  -20.0312  -17.0421 C   0  0  0  0  0  0  0  0  0  0  0  0
   21.4786  -19.2674  -15.7200 C   0  0  2  0  0  0  0  0  0  0  0  0
   21.5610  -20.2767  -14.6614 N   0  0  0  0  0  0  0  0  0  0  0  0
   20.3392  -18.3600  -15.5259 C   0  0  0  0  0  0  0  0  0  0  0  0
   19.2394  -18.7799  -15.0332 O   0  0  0  0  0  0  0  0  0  0  0  0
   20.4013  -17.0183  -15.8635 O   0  0  0  0  0  0  0  0  0  0  0  0
  2 13  1  0
  2  1  1  6
  3  4  1  0
  3  2  1  0
  4  5  2  0
  6  5  1  0
  7  6  1  0
  8  7  2  0
  9  8  1  0
 10  9  2  0
 10 11  1  0
 11 12  2  0
 12  7  1  0
 12  4  1  0
 13 14  2  0
 15 16  1  0
 15 13  1  0
 17 18  1  0
 16 17  1  1
 19 18  1  0
 20 19  2  0
 21 22  2  0
 21 16  1  0
 23 19  1  0
 24 25  1  0
 25 27  1  0
 26 25  2  0
 27 28  1  0
 29 28  1  0
 30 29  1  0
 31 32  1  0
 31 30  1  6
 32 21  1  0
 33 31  1  0
 34 33  2  0
 35 33  1  0
M  END
$$$$
