EHK.pdb
     RDKit          3D

 29 29  0  0  1  0  0  0  0  0999 V2000
   11.1717  -18.7306   17.7583 N   0  0  0  0  0  0  0  0  0  0  0  0
   12.1234  -17.5839   17.8336 C   0  0  1  0  0  0  0  0  0  0  0  0
   12.4061  -17.0644   16.5076 C   0  0  0  0  0  0  0  0  0  0  0  0
   11.8011  -17.8413   15.3709 C   0  0  0  0  0  0  0  0  0  0  0  0
   12.0443  -17.1905   14.0397 C   0  0  0  0  0  0  0  0  0  0  0  0
   11.0297  -16.7472   13.4530 O   0  0  0  0  0  0  0  0  0  0  0  0
   11.5999  -16.7391   18.8873 C   0  0  0  0  0  0  0  0  0  0  0  0
   12.2877  -15.6684   19.1075 O   0  0  0  0  0  0  0  0  0  0  0  0
   13.2706  -17.0564   13.4448 O   0  0  0  0  0  0  0  0  0  0  0  0
   10.4843  -16.8959   19.6985 N   0  0  0  0  0  0  0  0  0  0  0  0
   10.0948  -15.8707   20.7396 C   0  0  1  0  0  0  0  0  0  0  0  0
    8.6974  -15.5498   20.3460 C   0  0  0  0  0  0  0  0  0  0  0  0
    8.4314  -14.4446   19.4494 C   0  0  0  0  0  0  0  0  0  0  0  0
    9.2356  -13.5522   18.7903 C   0  0  0  0  0  0  0  0  0  0  0  0
    8.4279  -12.7810   18.0305 N   0  0  0  0  0  0  0  0  0  0  0  0
    7.1550  -13.1668   18.1965 C   0  0  0  0  0  0  0  0  0  0  0  0
    7.1291  -14.1845   19.0606 N   0  0  0  0  0  0  0  0  0  0  0  0
   10.1491  -16.7247   21.9803 C   0  0  0  0  0  0  0  0  0  0  0  0
    9.3265  -17.7052   22.1362 O   0  0  0  0  0  0  0  0  0  0  0  0
   11.0527  -16.5178   22.9847 N   0  0  0  0  0  0  0  0  0  0  0  0
   11.1092  -17.4695   24.1827 C   0  0  1  0  0  0  0  0  0  0  0  0
   11.6139  -18.7114   23.5423 C   0  0  0  0  0  0  0  0  0  0  0  0
   11.9347  -19.9198   24.2880 C   0  0  0  0  0  0  0  0  0  0  0  0
   12.4080  -21.1504   23.6032 C   0  0  0  0  0  0  0  0  0  0  0  0
   12.7453  -22.1405   24.7675 C   0  0  0  0  0  0  0  0  0  0  0  0
   13.0284  -23.3979   24.1065 N   0  0  0  0  0  0  0  0  0  0  0  0
   12.0308  -16.7524   25.0699 C   0  0  0  0  0  0  0  0  0  0  0  0
   12.1092  -16.9863   26.4114 O   0  0  0  0  0  0  0  0  0  0  0  0
   12.7956  -15.8710   24.6108 O   0  0  0  0  0  0  0  0  0  0  0  0
  2  1  1  6
  2  3  1  0
  3  4  1  0
  4  5  1  0
  5  9  1  0
  6  5  2  0
  7  2  1  0
  7  8  2  0
 10  7  1  0
 11 10  1  0
 12 13  1  0
 11 12  1  6
 13 14  2  0
 14 15  1  0
 16 15  1  0
 17 13  1  0
 17 16  2  0
 18 11  1  0
 19 18  2  0
 20 18  1  0
 21 20  1  0
 21 22  1  6
 22 23  1  0
 24 25  1  0
 24 23  1  0
 25 26  1  0
 27 21  1  0
 28 27  1  0
 29 27  2  0
M  END
$$$$
