EHK.pdb
     RDKit          3D

 29 29  0  0  1  0  0  0  0  0999 V2000
   11.5215  -17.5856   17.5814 N   0  0  0  0  0  0  0  0  0  0  0  0
   10.4099  -18.1542   18.3983 C   0  0  1  0  0  0  0  0  0  0  0  0
   10.4900  -19.6035   18.4349 C   0  0  0  0  0  0  0  0  0  0  0  0
   11.6613  -20.1632   19.1941 C   0  0  0  0  0  0  0  0  0  0  0  0
   11.6802  -21.6647   19.1913 C   0  0  0  0  0  0  0  0  0  0  0  0
   10.8924  -22.2241   19.9891 O   0  0  0  0  0  0  0  0  0  0  0  0
   10.4000  -17.3608   19.6101 C   0  0  0  0  0  0  0  0  0  0  0  0
   11.5458  -16.8592   19.9319 O   0  0  0  0  0  0  0  0  0  0  0  0
   12.4825  -22.4372   18.3944 O   0  0  0  0  0  0  0  0  0  0  0  0
    9.3622  -17.0569   20.4806 N   0  0  0  0  0  0  0  0  0  0  0  0
    9.5404  -16.1125   21.6481 C   0  0  1  0  0  0  0  0  0  0  0  0
    8.2210  -15.4285   21.6931 C   0  0  0  0  0  0  0  0  0  0  0  0
    7.9312  -14.3491   20.7728 C   0  0  0  0  0  0  0  0  0  0  0  0
    6.9921  -14.1759   19.7902 C   0  0  0  0  0  0  0  0  0  0  0  0
    7.1570  -12.9267   19.3037 N   0  0  0  0  0  0  0  0  0  0  0  0
    8.1631  -12.3231   19.9520 C   0  0  0  0  0  0  0  0  0  0  0  0
    8.6546  -13.1725   20.8576 N   0  0  0  0  0  0  0  0  0  0  0  0
    9.6977  -17.1086   22.7682 C   0  0  0  0  0  0  0  0  0  0  0  0
    8.9955  -18.1898   22.7856 O   0  0  0  0  0  0  0  0  0  0  0  0
   10.5739  -16.9306   23.8020 N   0  0  0  0  0  0  0  0  0  0  0  0
   10.7012  -17.9907   24.8993 C   0  0  1  0  0  0  0  0  0  0  0  0
   12.1442  -18.3317   24.8065 C   0  0  0  0  0  0  0  0  0  0  0  0
   12.7102  -19.1156   23.7182 C   0  0  0  0  0  0  0  0  0  0  0  0
   14.1627  -19.4222   23.6577 C   0  0  0  0  0  0  0  0  0  0  0  0
   14.3336  -20.2462   22.3381 C   0  0  0  0  0  0  0  0  0  0  0  0
   15.7506  -20.5396   22.2723 N   0  0  0  0  0  0  0  0  0  0  0  0
   10.2678  -17.2316   26.0770 C   0  0  0  0  0  0  0  0  0  0  0  0
    9.9487  -17.8173   27.2666 O   0  0  0  0  0  0  0  0  0  0  0  0
   10.1686  -15.9827   26.0247 O   0  0  0  0  0  0  0  0  0  0  0  0
  2  1  1  6
  2  3  1  0
  3  4  1  0
  4  5  1  0
  5  9  1  0
  6  5  2  0
  7  2  1  0
  7  8  2  0
 10  7  1  0
 11 10  1  0
 12 13  1  0
 11 12  1  1
 13 14  2  0
 14 15  1  0
 16 15  1  0
 17 13  1  0
 17 16  2  0
 18 11  1  0
 19 18  2  0
 20 18  1  0
 21 20  1  0
 21 22  1  1
 22 23  1  0
 24 25  1  0
 24 23  1  0
 25 26  1  0
 27 21  1  0
 28 27  1  0
 29 27  2  0
M  END
$$$$
