EHK.pdb
     RDKit          3D

 29 29  0  0  1  0  0  0  0  0999 V2000
   12.3747  -17.2255   17.7309 N   0  0  0  0  0  0  0  0  0  0  0  0
   11.3325  -17.9928   18.4735 C   0  0  1  0  0  0  0  0  0  0  0  0
   11.7036  -19.3926   18.5781 C   0  0  0  0  0  0  0  0  0  0  0  0
   12.9804  -19.6646   19.3247 C   0  0  0  0  0  0  0  0  0  0  0  0
   13.3210  -21.1266   19.3621 C   0  0  0  0  0  0  0  0  0  0  0  0
   14.1571  -21.5163   18.5140 O   0  0  0  0  0  0  0  0  0  0  0  0
   11.0489  -17.1901   19.6454 C   0  0  0  0  0  0  0  0  0  0  0  0
   12.0743  -16.5775   20.1366 O   0  0  0  0  0  0  0  0  0  0  0  0
   12.7892  -22.0333   20.2399 O   0  0  0  0  0  0  0  0  0  0  0  0
    9.8578  -16.9768   20.3258 N   0  0  0  0  0  0  0  0  0  0  0  0
    9.7616  -16.0369   21.5065 C   0  0  1  0  0  0  0  0  0  0  0  0
    8.3594  -15.5541   21.4003 C   0  0  0  0  0  0  0  0  0  0  0  0
    8.0238  -14.4985   20.4680 C   0  0  0  0  0  0  0  0  0  0  0  0
    7.2821  -14.4597   19.3165 C   0  0  0  0  0  0  0  0  0  0  0  0
    7.2574  -13.1728   18.9072 N   0  0  0  0  0  0  0  0  0  0  0  0
    7.9561  -12.4167   19.7656 C   0  0  0  0  0  0  0  0  0  0  0  0
    8.4360  -13.2041   20.7314 N   0  0  0  0  0  0  0  0  0  0  0  0
    9.9359  -17.0186   22.6367 C   0  0  0  0  0  0  0  0  0  0  0  0
    9.6070  -18.2560   22.4851 O   0  0  0  0  0  0  0  0  0  0  0  0
   10.4433  -16.6646   23.8555 N   0  0  0  0  0  0  0  0  0  0  0  0
   10.8465  -17.7404   24.8676 C   0  0  1  0  0  0  0  0  0  0  0  0
   12.2535  -18.0010   24.4680 C   0  0  0  0  0  0  0  0  0  0  0  0
   13.0497  -19.0897   25.0159 C   0  0  0  0  0  0  0  0  0  0  0  0
   14.4251  -19.3663   24.5267 C   0  0  0  0  0  0  0  0  0  0  0  0
   14.8919  -20.6095   25.3551 C   0  0  0  0  0  0  0  0  0  0  0  0
   16.2324  -20.8824   24.8791 N   0  0  0  0  0  0  0  0  0  0  0  0
   10.6311  -17.0321   26.1336 C   0  0  0  0  0  0  0  0  0  0  0  0
   10.4990  -17.6692   27.3322 O   0  0  0  0  0  0  0  0  0  0  0  0
   10.5538  -15.7806   26.1545 O   0  0  0  0  0  0  0  0  0  0  0  0
  2  1  1  1
  2  3  1  0
  3  4  1  0
  4  5  1  0
  5  9  1  0
  6  5  2  0
  7  2  1  0
  7  8  2  0
 10  7  1  0
 11 10  1  0
 12 13  1  0
 11 12  1  1
 13 14  2  0
 14 15  1  0
 16 15  1  0
 17 13  1  0
 17 16  2  0
 18 11  1  0
 19 18  2  0
 20 18  1  0
 21 20  1  0
 21 22  1  6
 22 23  1  0
 24 25  1  0
 24 23  1  0
 25 26  1  0
 27 21  1  0
 28 27  1  0
 29 27  2  0
M  END
$$$$
