EHK.pdb
     RDKit          3D

 29 29  0  0  1  0  0  0  0  0999 V2000
    9.8710  -16.1389   19.3050 N   0  0  0  0  0  0  0  0  0  0  0  0
    9.0440  -16.9017   20.2851 C   0  0  1  0  0  0  0  0  0  0  0  0
    9.2760  -18.3286   20.1508 C   0  0  0  0  0  0  0  0  0  0  0  0
    9.8741  -18.7618   18.8408 C   0  0  0  0  0  0  0  0  0  0  0  0
    8.9270  -19.5964   18.0275 C   0  0  0  0  0  0  0  0  0  0  0  0
    8.4903  -19.0657   16.9798 O   0  0  0  0  0  0  0  0  0  0  0  0
    9.2375  -16.2135   21.5449 C   0  0  0  0  0  0  0  0  0  0  0  0
   10.4706  -16.1069   21.9137 O   0  0  0  0  0  0  0  0  0  0  0  0
    8.5229  -20.8641   18.3515 O   0  0  0  0  0  0  0  0  0  0  0  0
    8.3144  -15.6556   22.4188 N   0  0  0  0  0  0  0  0  0  0  0  0
    8.7300  -14.9794   23.7060 C   0  0  1  0  0  0  0  0  0  0  0  0
    7.4763  -14.2887   24.1080 C   0  0  0  0  0  0  0  0  0  0  0  0
    7.4343  -13.5137   25.3301 C   0  0  0  0  0  0  0  0  0  0  0  0
    8.3587  -13.2399   26.3038 C   0  0  0  0  0  0  0  0  0  0  0  0
    7.7712  -12.3944   27.1781 N   0  0  0  0  0  0  0  0  0  0  0  0
    6.5183  -12.1362   26.7777 C   0  0  0  0  0  0  0  0  0  0  0  0
    6.2865  -12.8091   25.6478 N   0  0  0  0  0  0  0  0  0  0  0  0
    9.0054  -16.1903   24.5600 C   0  0  0  0  0  0  0  0  0  0  0  0
    8.3147  -17.2684   24.4087 O   0  0  0  0  0  0  0  0  0  0  0  0
    9.9807  -16.2171   25.5172 N   0  0  0  0  0  0  0  0  0  0  0  0
   10.2485  -17.4973   26.3132 C   0  0  1  0  0  0  0  0  0  0  0  0
   11.5315  -17.9474   25.7145 C   0  0  0  0  0  0  0  0  0  0  0  0
   12.3273  -19.0376   26.2600 C   0  0  0  0  0  0  0  0  0  0  0  0
   13.6612  -19.3783   25.7015 C   0  0  0  0  0  0  0  0  0  0  0  0
   14.2328  -20.4546   26.6835 C   0  0  0  0  0  0  0  0  0  0  0  0
   15.4771  -20.8789   26.0754 N   0  0  0  0  0  0  0  0  0  0  0  0
   10.2966  -16.9738   27.6823 C   0  0  0  0  0  0  0  0  0  0  0  0
   10.1357  -17.7573   28.7870 O   0  0  0  0  0  0  0  0  0  0  0  0
   10.4874  -15.7515   27.8871 O   0  0  0  0  0  0  0  0  0  0  0  0
  2  1  1  6
  2  3  1  0
  3  4  1  0
  4  5  1  0
  5  9  1  0
  6  5  2  0
  7  2  1  0
  7  8  2  0
 10  7  1  0
 11 10  1  0
 12 13  1  0
 11 12  1  1
 13 14  2  0
 14 15  1  0
 16 15  1  0
 17 13  1  0
 17 16  2  0
 18 11  1  0
 19 18  2  0
 20 18  1  0
 21 20  1  0
 21 22  1  6
 22 23  1  0
 24 25  1  0
 24 23  1  0
 25 26  1  0
 27 21  1  0
 28 27  1  0
 29 27  2  0
M  END
$$$$
