EHK.pdb
     RDKit          3D

 29 29  0  0  1  0  0  0  0  0999 V2000
   10.1112  -16.1968   18.8150 N   0  0  0  0  0  0  0  0  0  0  0  0
    9.6008  -17.1622   19.8318 C   0  0  1  0  0  0  0  0  0  0  0  0
   10.2130  -18.4666   19.6529 C   0  0  0  0  0  0  0  0  0  0  0  0
   10.5353  -18.8354   18.2310 C   0  0  0  0  0  0  0  0  0  0  0  0
   11.2005  -20.1774   18.1247 C   0  0  0  0  0  0  0  0  0  0  0  0
   11.4384  -20.5805   16.9624 O   0  0  0  0  0  0  0  0  0  0  0  0
    9.6807  -16.4491   21.0899 C   0  0  0  0  0  0  0  0  0  0  0  0
   10.8667  -16.0441   21.4022 O   0  0  0  0  0  0  0  0  0  0  0  0
   11.5521  -20.9648   19.1887 O   0  0  0  0  0  0  0  0  0  0  0  0
    8.6926  -16.1352   22.0130 N   0  0  0  0  0  0  0  0  0  0  0  0
    8.9928  -15.3834   23.2903 C   0  0  1  0  0  0  0  0  0  0  0  0
    7.6539  -14.8478   23.6525 C   0  0  0  0  0  0  0  0  0  0  0  0
    7.4804  -14.0943   24.8765 C   0  0  0  0  0  0  0  0  0  0  0  0
    8.3533  -13.5995   25.8096 C   0  0  0  0  0  0  0  0  0  0  0  0
    7.6188  -12.9108   26.7098 N   0  0  0  0  0  0  0  0  0  0  0  0
    6.3246  -12.9622   26.3646 C   0  0  0  0  0  0  0  0  0  0  0  0
    6.2122  -13.6810   25.2449 N   0  0  0  0  0  0  0  0  0  0  0  0
    9.4005  -16.5304   24.1789 C   0  0  0  0  0  0  0  0  0  0  0  0
    8.9391  -17.7161   23.9699 O   0  0  0  0  0  0  0  0  0  0  0  0
   10.2638  -16.3855   25.2286 N   0  0  0  0  0  0  0  0  0  0  0  0
   10.6776  -17.6005   26.0633 C   0  0  1  0  0  0  0  0  0  0  0  0
   12.0975  -17.7610   25.6567 C   0  0  0  0  0  0  0  0  0  0  0  0
   12.9442  -18.8476   26.1277 C   0  0  0  0  0  0  0  0  0  0  0  0
   14.3901  -18.9053   25.7908 C   0  0  0  0  0  0  0  0  0  0  0  0
   14.9415  -20.1000   26.6383 C   0  0  0  0  0  0  0  0  0  0  0  0
   16.3159  -20.2498   26.2064 N   0  0  0  0  0  0  0  0  0  0  0  0
   10.4223  -17.1102   27.4217 C   0  0  0  0  0  0  0  0  0  0  0  0
   10.3731  -17.9268   28.5130 O   0  0  0  0  0  0  0  0  0  0  0  0
   10.2298  -15.8885   27.6289 O   0  0  0  0  0  0  0  0  0  0  0  0
  2  1  1  6
  2  3  1  0
  3  4  1  0
  4  5  1  0
  5  9  1  0
  6  5  2  0
  7  2  1  0
  7  8  2  0
 10  7  1  0
 11 10  1  0
 12 13  1  0
 11 12  1  1
 13 14  2  0
 14 15  1  0
 16 15  1  0
 17 13  1  0
 17 16  2  0
 18 11  1  0
 19 18  2  0
 20 18  1  0
 21 20  1  0
 21 22  1  1
 22 23  1  0
 24 25  1  0
 24 23  1  0
 25 26  1  0
 27 21  1  0
 28 27  1  0
 29 27  2  0
M  END
$$$$
