EHK.pdb
     RDKit          3D

 29 29  0  0  1  0  0  0  0  0999 V2000
    9.5265  -19.0060   18.6858 N   0  0  0  0  0  0  0  0  0  0  0  0
   10.7737  -18.1884   18.7344 C   0  0  1  0  0  0  0  0  0  0  0  0
   11.2574  -17.9108   17.3938 C   0  0  0  0  0  0  0  0  0  0  0  0
   10.2155  -17.9659   16.3108 C   0  0  0  0  0  0  0  0  0  0  0  0
   10.7749  -17.6213   14.9606 C   0  0  0  0  0  0  0  0  0  0  0  0
   11.1077  -18.5918   14.2413 O   0  0  0  0  0  0  0  0  0  0  0  0
   10.4812  -17.1257   19.6742 C   0  0  0  0  0  0  0  0  0  0  0  0
   11.4412  -16.2780   19.8406 O   0  0  0  0  0  0  0  0  0  0  0  0
   10.9395  -16.3488   14.4816 O   0  0  0  0  0  0  0  0  0  0  0  0
    9.3411  -16.8744   20.4252 N   0  0  0  0  0  0  0  0  0  0  0  0
    9.2771  -15.7586   21.4439 C   0  0  1  0  0  0  0  0  0  0  0  0
    7.9669  -15.1306   21.1286 C   0  0  0  0  0  0  0  0  0  0  0  0
    7.8477  -14.2246   20.0056 C   0  0  0  0  0  0  0  0  0  0  0  0
    8.0826  -12.8838   19.8483 C   0  0  0  0  0  0  0  0  0  0  0  0
    7.8647  -12.5959   18.5468 N   0  0  0  0  0  0  0  0  0  0  0  0
    7.5052  -13.7112   17.8958 C   0  0  0  0  0  0  0  0  0  0  0  0
    7.4873  -14.7237   18.7663 N   0  0  0  0  0  0  0  0  0  0  0  0
    9.2234  -16.5677   22.7144 C   0  0  0  0  0  0  0  0  0  0  0  0
    8.3832  -17.5378   22.8372 O   0  0  0  0  0  0  0  0  0  0  0  0
   10.0436  -16.3290   23.7814 N   0  0  0  0  0  0  0  0  0  0  0  0
   10.1948  -17.3743   24.8899 C   0  0  1  0  0  0  0  0  0  0  0  0
   11.3708  -18.1420   24.4054 C   0  0  0  0  0  0  0  0  0  0  0  0
   11.9988  -19.2078   25.1728 C   0  0  0  0  0  0  0  0  0  0  0  0
   13.1985  -19.9236   24.6670 C   0  0  0  0  0  0  0  0  0  0  0  0
   13.6253  -20.8553   25.8500 C   0  0  0  0  0  0  0  0  0  0  0  0
   14.6887  -21.6736   25.3043 N   0  0  0  0  0  0  0  0  0  0  0  0
   10.3933  -16.5159   26.0623 C   0  0  0  0  0  0  0  0  0  0  0  0
   10.0290  -16.8809   27.3250 O   0  0  0  0  0  0  0  0  0  0  0  0
   10.9151  -15.3825   25.9370 O   0  0  0  0  0  0  0  0  0  0  0  0
  2  1  1  6
  2  3  1  0
  3  4  1  0
  4  5  1  0
  5  9  1  0
  6  5  2  0
  7  2  1  0
  7  8  2  0
 10  7  1  0
 11 10  1  0
 12 13  1  0
 11 12  1  6
 13 14  2  0
 14 15  1  0
 16 15  1  0
 17 13  1  0
 17 16  2  0
 18 11  1  0
 19 18  2  0
 20 18  1  0
 21 20  1  0
 21 22  1  6
 22 23  1  0
 24 25  1  0
 24 23  1  0
 25 26  1  0
 27 21  1  0
 28 27  1  0
 29 27  2  0
M  END
$$$$
