APL.pdb
     RDKit          3D

 21 21  0  0  1  0  0  0  0  0999 V2000
   22.2445  -17.1334  -15.2024 C   0  0  0  0  0  0  0  0  0  0  0  0
   22.9074  -17.8155  -16.4050 C   0  0  2  0  0  0  0  0  0  0  0  0
   21.9978  -18.7633  -16.9468 N   0  0  0  0  0  0  0  0  0  0  0  0
   24.2463  -18.2862  -16.0768 C   0  0  0  0  0  0  0  0  0  0  0  0
   24.3594  -19.5093  -15.7111 O   0  0  0  0  0  0  0  0  0  0  0  0
   25.4244  -17.5193  -16.1242 N   0  0  0  0  0  0  0  0  0  0  0  0
   25.5062  -16.1594  -16.6126 C   0  0  0  0  0  0  0  0  0  0  0  0
   26.9636  -15.9967  -17.0162 C   0  0  0  0  0  0  0  0  0  0  0  0
   27.6466  -16.8174  -15.9633 C   0  0  0  0  0  0  0  0  0  0  0  0
   26.7144  -17.9352  -15.7005 C   0  0  1  0  0  0  0  0  0  0  0  0
   26.7541  -18.4006  -14.2886 C   0  0  0  0  0  0  0  0  0  0  0  0
   26.2851  -17.5964  -13.4196 O   0  0  0  0  0  0  0  0  0  0  0  0
   24.0414  -20.8414  -10.3973 C   0  0  0  0  0  0  0  0  0  0  0  0
   25.5584  -20.6408  -10.5923 C   0  0  2  0  0  0  0  0  0  0  0  0
   26.0202  -19.6939   -9.5079 C   0  0  0  0  0  0  0  0  0  0  0  0
   25.7909  -20.1176  -11.9707 C   0  0  0  0  0  0  0  0  0  0  0  0
   27.2043  -20.0459  -12.4297 C   0  0  2  0  0  0  0  0  0  0  0  0
   27.2501  -19.6227  -13.8345 N   0  0  0  0  0  0  0  0  0  0  0  0
   27.8928  -21.3139  -12.2283 C   0  0  0  0  0  0  0  0  0  0  0  0
   28.2937  -21.6599  -11.0995 O   0  0  0  0  0  0  0  0  0  0  0  0
   28.1345  -22.1996  -13.2943 O   0  0  0  0  0  0  0  0  0  0  0  0
  2  1  1  1
  3  2  1  0
  4  5  2  0
  4  2  1  0
  6  4  1  0
  7  6  1  0
  8  7  1  0
  9  8  1  0
  9 10  1  0
 10 11  1  1
 10  6  1  0
 11 18  1  0
 12 11  2  0
 14 13  1  1
 14 15  1  0
 16 14  1  0
 17 16  1  6
 18 17  1  0
 19 21  1  0
 19 17  1  0
 20 19  2  0
M  END
$$$$
