APL.pdb
     RDKit          3D

 21 21  0  0  1  0  0  0  0  0999 V2000
   26.2290  -23.4214  -14.6137 C   0  0  0  0  0  0  0  0  0  0  0  0
   26.2430  -21.8995  -14.7999 C   0  0  2  0  0  0  0  0  0  0  0  0
   27.3621  -21.5513  -15.6033 N   0  0  0  0  0  0  0  0  0  0  0  0
   26.0931  -21.2075  -13.5269 C   0  0  0  0  0  0  0  0  0  0  0  0
   27.1679  -20.8284  -12.9409 O   0  0  0  0  0  0  0  0  0  0  0  0
   24.8759  -20.9194  -12.8835 N   0  0  0  0  0  0  0  0  0  0  0  0
   23.5746  -21.3544  -13.3438 C   0  0  0  0  0  0  0  0  0  0  0  0
   22.6088  -20.3549  -12.7258 C   0  0  0  0  0  0  0  0  0  0  0  0
   23.2657  -20.1016  -11.4018 C   0  0  0  0  0  0  0  0  0  0  0  0
   24.7153  -20.1724  -11.6866 C   0  0  1  0  0  0  0  0  0  0  0  0
   25.5032  -20.7060  -10.5436 C   0  0  0  0  0  0  0  0  0  0  0  0
   25.6269  -21.9723  -10.4904 O   0  0  0  0  0  0  0  0  0  0  0  0
   27.0065  -20.0664   -5.2699 C   0  0  0  0  0  0  0  0  0  0  0  0
   28.1331  -20.0221   -6.3227 C   0  0  2  0  0  0  0  0  0  0  0  0
   29.1883  -19.0747   -5.7988 C   0  0  0  0  0  0  0  0  0  0  0  0
   27.5449  -19.5887   -7.6242 C   0  0  0  0  0  0  0  0  0  0  0  0
   26.5948  -20.5301   -8.2758 C   0  0  2  0  0  0  0  0  0  0  0  0
   26.1128  -19.9559   -9.5378 N   0  0  0  0  0  0  0  0  0  0  0  0
   25.4931  -20.8728   -7.3865 C   0  0  0  0  0  0  0  0  0  0  0  0
   24.4839  -20.1460   -7.2974 O   0  0  0  0  0  0  0  0  0  0  0  0
   25.5195  -22.0341   -6.5927 O   0  0  0  0  0  0  0  0  0  0  0  0
  2  1  1  1
  3  2  1  0
  4  5  2  0
  4  2  1  0
  6  4  1  0
  7  6  1  0
  8  7  1  0
  9  8  1  0
  9 10  1  0
 10 11  1  1
 10  6  1  0
 11 18  1  0
 12 11  2  0
 14 13  1  1
 14 15  1  0
 16 14  1  0
 17 16  1  1
 18 17  1  0
 19 21  1  0
 19 17  1  0
 20 19  2  0
M  END
$$$$
