APL.pdb
     RDKit          3D

 21 21  0  0  1  0  0  0  0  0999 V2000
   27.6526  -18.7898  -14.3666 C   0  0  0  0  0  0  0  0  0  0  0  0
   27.6670  -20.3000  -14.1020 C   0  0  2  0  0  0  0  0  0  0  0  0
   28.2165  -20.9541  -15.2375 N   0  0  0  0  0  0  0  0  0  0  0  0
   26.3733  -20.7673  -13.6227 C   0  0  0  0  0  0  0  0  0  0  0  0
   25.5917  -21.3021  -14.4861 O   0  0  0  0  0  0  0  0  0  0  0  0
   25.9052  -20.6833  -12.2989 N   0  0  0  0  0  0  0  0  0  0  0  0
   26.6528  -20.1270  -11.1917 C   0  0  0  0  0  0  0  0  0  0  0  0
   26.0356  -20.7769   -9.9628 C   0  0  0  0  0  0  0  0  0  0  0  0
   24.5953  -20.8560  -10.3725 C   0  0  0  0  0  0  0  0  0  0  0  0
   24.6365  -21.1141  -11.8282 C   0  0  1  0  0  0  0  0  0  0  0  0
   23.4938  -20.5008  -12.5562 C   0  0  0  0  0  0  0  0  0  0  0  0
   23.5863  -19.2536  -12.7965 O   0  0  0  0  0  0  0  0  0  0  0  0
   22.2142  -19.4654  -16.4315 C   0  0  0  0  0  0  0  0  0  0  0  0
   22.1211  -20.9369  -15.9778 C   0  0  2  0  0  0  0  0  0  0  0  0
   21.9233  -21.7700  -17.2237 C   0  0  0  0  0  0  0  0  0  0  0  0
   20.9983  -21.0588  -15.0020 C   0  0  0  0  0  0  0  0  0  0  0  0
   21.2204  -20.4787  -13.6502 C   0  0  2  0  0  0  0  0  0  0  0  0
   22.3450  -21.1585  -12.9960 N   0  0  0  0  0  0  0  0  0  0  0  0
   20.0110  -20.5410  -12.8404 C   0  0  0  0  0  0  0  0  0  0  0  0
   19.8271  -21.4641  -12.0228 O   0  0  0  0  0  0  0  0  0  0  0  0
   19.0019  -19.5662  -12.9452 O   0  0  0  0  0  0  0  0  0  0  0  0
  2  1  1  6
  3  2  1  0
  4  5  2  0
  4  2  1  0
  6  4  1  0
  7  6  1  0
  8  7  1  0
  9  8  1  0
  9 10  1  0
 10 11  1  6
 10  6  1  0
 11 18  1  0
 12 11  2  0
 14 13  1  6
 14 15  1  0
 16 14  1  0
 17 16  1  6
 18 17  1  0
 19 21  1  0
 19 17  1  0
 20 19  2  0
M  END
$$$$
