APL.pdb
     RDKit          3D

 21 21  0  0  1  0  0  0  0  0999 V2000
   15.3847  -12.6379  -16.5419 C   0  0  0  0  0  0  0  0  0  0  0  0
   16.3131  -12.9796  -17.7133 C   0  0  2  0  0  0  0  0  0  0  0  0
   16.7196  -14.3355  -17.5891 N   0  0  0  0  0  0  0  0  0  0  0  0
   17.3607  -11.9796  -17.8696 C   0  0  0  0  0  0  0  0  0  0  0  0
   18.5329  -12.2962  -17.4595 O   0  0  0  0  0  0  0  0  0  0  0  0
   17.2009  -10.6987  -18.4286 N   0  0  0  0  0  0  0  0  0  0  0  0
   15.9607  -10.1795  -18.9638 C   0  0  0  0  0  0  0  0  0  0  0  0
   16.4006   -9.0961  -19.9366 C   0  0  0  0  0  0  0  0  0  0  0  0
   17.5960   -8.5381  -19.2237 C   0  0  0  0  0  0  0  0  0  0  0  0
   18.2087   -9.7063  -18.5549 C   0  0  1  0  0  0  0  0  0  0  0  0
   18.8623   -9.3566  -17.2656 C   0  0  0  0  0  0  0  0  0  0  0  0
   18.1888   -9.5973  -16.2119 O   0  0  0  0  0  0  0  0  0  0  0  0
   23.5993  -10.5161  -14.1750 C   0  0  0  0  0  0  0  0  0  0  0  0
   22.4698   -9.4656  -14.1911 C   0  0  2  0  0  0  0  0  0  0  0  0
   21.6311   -9.7019  -12.9557 C   0  0  0  0  0  0  0  0  0  0  0  0
   21.7031   -9.6177  -15.4627 C   0  0  0  0  0  0  0  0  0  0  0  0
   20.7424   -8.5325  -15.7987 C   0  0  2  0  0  0  0  0  0  0  0  0
   20.1304   -8.7976  -17.1063 N   0  0  0  0  0  0  0  0  0  0  0  0
   21.3839   -7.2251  -15.7614 C   0  0  0  0  0  0  0  0  0  0  0  0
   21.9066   -6.7320  -16.7803 O   0  0  0  0  0  0  0  0  0  0  0  0
   21.4413   -6.4650  -14.5789 O   0  0  0  0  0  0  0  0  0  0  0  0
  2  1  1  1
  3  2  1  0
  4  5  2  0
  4  2  1  0
  6  4  1  0
  7  6  1  0
  8  7  1  0
  9  8  1  0
  9 10  1  0
 10 11  1  1
 10  6  1  0
 11 18  1  0
 12 11  2  0
 14 13  1  6
 14 15  1  0
 16 14  1  0
 17 16  1  6
 18 17  1  0
 19 21  1  0
 19 17  1  0
 20 19  2  0
M  END
$$$$
