APL.pdb
     RDKit          3D

 21 21  0  0  1  0  0  0  0  0999 V2000
   18.3184  -11.3955  -18.3641 C   0  0  0  0  0  0  0  0  0  0  0  0
   19.7453  -11.4411  -18.9234 C   0  0  2  0  0  0  0  0  0  0  0  0
   20.1880  -12.7914  -18.9267 N   0  0  0  0  0  0  0  0  0  0  0  0
   20.6019  -10.4585  -18.2733 C   0  0  0  0  0  0  0  0  0  0  0  0
   21.2831  -10.8580  -17.2640 O   0  0  0  0  0  0  0  0  0  0  0  0
   20.7474   -9.1120  -18.6531 N   0  0  0  0  0  0  0  0  0  0  0  0
   20.1033   -8.5015  -19.7962 C   0  0  0  0  0  0  0  0  0  0  0  0
   20.9864   -7.3080  -20.1267 C   0  0  0  0  0  0  0  0  0  0  0  0
   21.4074   -6.8735  -18.7546 C   0  0  0  0  0  0  0  0  0  0  0  0
   21.5308   -8.1321  -17.9877 C   0  0  1  0  0  0  0  0  0  0  0  0
   21.1831   -7.9695  -16.5509 C   0  0  0  0  0  0  0  0  0  0  0  0
   19.9873   -8.2639  -16.2265 O   0  0  0  0  0  0  0  0  0  0  0  0
   22.6857   -9.5712  -11.1770 C   0  0  0  0  0  0  0  0  0  0  0  0
   21.8204   -8.5002  -11.8726 C   0  0  2  0  0  0  0  0  0  0  0  0
   20.3777   -8.8345  -11.5688 C   0  0  0  0  0  0  0  0  0  0  0  0
   22.1349   -8.5154  -13.3316 C   0  0  0  0  0  0  0  0  0  0  0  0
   21.6224   -7.3753  -14.1386 C   0  0  2  0  0  0  0  0  0  0  0  0
   22.0364   -7.5311  -15.5382 N   0  0  0  0  0  0  0  0  0  0  0  0
   22.0572   -6.0981  -13.5891 C   0  0  0  0  0  0  0  0  0  0  0  0
   23.1614   -5.6055  -13.8935 O   0  0  0  0  0  0  0  0  0  0  0  0
   21.2534   -5.3678  -12.6947 O   0  0  0  0  0  0  0  0  0  0  0  0
  2  1  1  1
  3  2  1  0
  4  5  2  0
  4  2  1  0
  6  4  1  0
  7  6  1  0
  8  7  1  0
  9  8  1  0
  9 10  1  0
 10 11  1  1
 10  6  1  0
 11 18  1  0
 12 11  2  0
 14 13  1  1
 14 15  1  0
 16 14  1  0
 17 16  1  1
 18 17  1  0
 19 21  1  0
 19 17  1  0
 20 19  2  0
M  END
$$$$
