APL.pdb
     RDKit          3D

 21 21  0  0  1  0  0  0  0  0999 V2000
   23.2962  -19.9500  -12.8398 C   0  0  0  0  0  0  0  0  0  0  0  0
   24.2894  -21.0011  -13.3493 C   0  0  2  0  0  0  0  0  0  0  0  0
   23.5574  -22.0849  -13.9049 N   0  0  0  0  0  0  0  0  0  0  0  0
   25.2906  -21.3187  -12.3399 C   0  0  0  0  0  0  0  0  0  0  0  0
   24.9280  -22.0912  -11.3839 O   0  0  0  0  0  0  0  0  0  0  0  0
   26.6178  -20.8530  -12.3201 N   0  0  0  0  0  0  0  0  0  0  0  0
   27.2104  -20.0026  -13.3300 C   0  0  0  0  0  0  0  0  0  0  0  0
   28.7034  -20.2664  -13.2083 C   0  0  0  0  0  0  0  0  0  0  0  0
   28.8419  -20.4553  -11.7272 C   0  0  0  0  0  0  0  0  0  0  0  0
   27.5876  -21.1242  -11.3189 C   0  0  1  0  0  0  0  0  0  0  0  0
   27.1495  -20.7439   -9.9495 C   0  0  0  0  0  0  0  0  0  0  0  0
   26.1692  -19.9340   -9.8790 O   0  0  0  0  0  0  0  0  0  0  0  0
   27.7163  -19.2973   -5.0509 C   0  0  0  0  0  0  0  0  0  0  0  0
   27.9491  -20.8207   -4.9813 C   0  0  2  0  0  0  0  0  0  0  0  0
   29.1647  -21.0408   -4.1098 C   0  0  0  0  0  0  0  0  0  0  0  0
   28.1193  -21.3352   -6.3720 C   0  0  0  0  0  0  0  0  0  0  0  0
   27.3078  -20.6789   -7.4323 C   0  0  2  0  0  0  0  0  0  0  0  0
   27.7057  -21.1887   -8.7501 N   0  0  0  0  0  0  0  0  0  0  0  0
   27.4170  -19.2279   -7.3627 C   0  0  0  0  0  0  0  0  0  0  0  0
   28.4177  -18.6326   -7.8085 O   0  0  0  0  0  0  0  0  0  0  0  0
   26.4022  -18.4382   -6.7918 O   0  0  0  0  0  0  0  0  0  0  0  0
  2  1  1  1
  3  2  1  0
  4  5  2  0
  4  2  1  0
  6  4  1  0
  7  6  1  0
  8  7  1  0
  9  8  1  0
  9 10  1  0
 10 11  1  1
 10  6  1  0
 11 18  1  0
 12 11  2  0
 14 13  1  6
 14 15  1  0
 16 14  1  0
 17 16  1  1
 18 17  1  0
 19 21  1  0
 19 17  1  0
 20 19  2  0
M  END
$$$$
