YLG.pdb
     RDKit          3D

 25 25  0  0  1  0  0  0  0  0999 V2000
   26.5357  -12.7924  -18.0048 O   0  0  0  0  0  0  0  0  0  0  0  0
   26.2512  -13.9626  -17.2876 C   0  0  0  0  0  0  0  0  0  0  0  0
   25.6639  -15.0341  -17.9268 C   0  0  0  0  0  0  0  0  0  0  0  0
   25.3857  -16.1904  -17.2062 C   0  0  0  0  0  0  0  0  0  0  0  0
   25.6831  -16.2939  -15.8631 C   0  0  0  0  0  0  0  0  0  0  0  0
   25.3580  -17.5544  -15.1644 C   0  0  0  0  0  0  0  0  0  0  0  0
   26.5956  -18.3809  -14.8794 C   0  0  2  0  0  0  0  0  0  0  0  0
   27.1083  -18.8418  -16.1564 N   0  0  0  0  0  0  0  0  0  0  0  0
   26.1368  -19.5571  -14.0559 C   0  0  0  0  0  0  0  0  0  0  0  0
   25.7780  -20.6221  -14.6213 O   0  0  0  0  0  0  0  0  0  0  0  0
   26.2726  -15.2143  -15.2274 C   0  0  0  0  0  0  0  0  0  0  0  0
   26.5457  -14.0710  -15.9482 C   0  0  0  0  0  0  0  0  0  0  0  0
   28.5840  -21.9985  -11.9073 C   0  0  0  0  0  0  0  0  0  0  0  0
   28.1494  -20.9524  -10.9241 C   0  0  2  0  0  0  0  0  0  0  0  0
   28.9795  -20.9944   -9.6596 C   0  0  0  0  0  0  0  0  0  0  0  0
   26.6965  -20.8557  -10.6714 C   0  0  0  0  0  0  0  0  0  0  0  0
   25.7777  -20.5973  -11.7938 C   0  0  2  0  0  0  0  0  0  0  0  0
   26.1040  -19.4778  -12.6364 N   0  0  0  0  0  0  0  0  0  0  0  0
   24.3268  -20.7248  -11.4933 C   0  0  0  0  0  0  0  0  0  0  0  0
   24.0053  -21.6875  -10.7456 O   0  0  0  0  0  0  0  0  0  0  0  0
   23.3569  -19.8411  -12.0059 N   0  0  0  0  0  0  0  0  0  0  0  0
   21.9792  -19.9589  -11.6313 C   0  0  0  0  0  0  0  0  0  0  0  0
   21.2431  -21.0046  -12.3655 C   0  0  0  0  0  0  0  0  0  0  0  0
   21.7592  -21.8263  -13.3402 O   0  0  0  0  0  0  0  0  0  0  0  0
   20.0004  -21.1985  -12.0996 O   0  0  0  0  0  0  0  0  0  0  0  0
  2  1  1  0
  3  2  2  0
  4  3  1  0
  5 11  1  0
  5  4  2  0
  6  5  1  0
  7  9  1  0
  7  6  1  0
  7  8  1  6
  9 18  1  0
  9 10  2  0
 11 12  2  0
 12  2  1  0
 14 13  1  1
 14 15  1  0
 16 14  1  0
 17 16  1  1
 18 17  1  0
 19 21  1  0
 19 17  1  0
 20 19  2  0
 22 21  1  0
 23 24  1  0
 23 22  1  0
 25 23  2  0
M  END
$$$$
