YLG.pdb
     RDKit          3D

 25 25  0  0  1  0  0  0  0  0999 V2000
   21.5750  -19.1141  -17.7181 O   0  0  0  0  0  0  0  0  0  0  0  0
   22.1228  -19.4772  -16.4801 C   0  0  0  0  0  0  0  0  0  0  0  0
   22.0903  -20.7947  -16.0746 C   0  0  0  0  0  0  0  0  0  0  0  0
   22.6365  -21.1445  -14.8445 C   0  0  0  0  0  0  0  0  0  0  0  0
   23.2125  -20.2037  -14.0160 C   0  0  0  0  0  0  0  0  0  0  0  0
   23.7724  -20.6508  -12.7241 C   0  0  0  0  0  0  0  0  0  0  0  0
   25.2832  -20.5405  -12.6914 C   0  0  2  0  0  0  0  0  0  0  0  0
   25.8053  -21.5010  -13.6457 N   0  0  0  0  0  0  0  0  0  0  0  0
   25.7040  -20.9234  -11.2955 C   0  0  0  0  0  0  0  0  0  0  0  0
   25.7350  -22.1341  -10.9552 O   0  0  0  0  0  0  0  0  0  0  0  0
   23.2419  -18.8825  -14.4294 C   0  0  0  0  0  0  0  0  0  0  0  0
   22.6983  -18.5430  -15.6502 C   0  0  0  0  0  0  0  0  0  0  0  0
   27.6153  -18.4385   -5.8934 C   0  0  0  0  0  0  0  0  0  0  0  0
   27.4128  -19.6357   -6.7741 C   0  0  2  0  0  0  0  0  0  0  0  0
   28.4785  -20.6851   -6.5447 C   0  0  0  0  0  0  0  0  0  0  0  0
   27.1560  -19.3603   -8.2031 C   0  0  0  0  0  0  0  0  0  0  0  0
   26.1792  -20.1819   -8.9391 C   0  0  2  0  0  0  0  0  0  0  0  0
   26.0694  -19.9254  -10.3505 N   0  0  0  0  0  0  0  0  0  0  0  0
   24.8742  -20.4082   -8.2628 C   0  0  0  0  0  0  0  0  0  0  0  0
   23.9380  -19.6376   -8.6079 O   0  0  0  0  0  0  0  0  0  0  0  0
   24.6770  -21.4097   -7.2919 N   0  0  0  0  0  0  0  0  0  0  0  0
   23.4423  -21.5071   -6.5719 C   0  0  0  0  0  0  0  0  0  0  0  0
   23.0533  -22.8873   -6.2282 C   0  0  0  0  0  0  0  0  0  0  0  0
   21.8739  -23.2731   -5.6352 O   0  0  0  0  0  0  0  0  0  0  0  0
   23.8643  -23.8495   -6.4912 O   0  0  0  0  0  0  0  0  0  0  0  0
  2  1  1  0
  3  2  2  0
  4  3  1  0
  5 11  1  0
  5  4  2  0
  6  5  1  0
  7  9  1  0
  7  6  1  0
  7  8  1  6
  9 18  1  0
  9 10  2  0
 11 12  2  0
 12  2  1  0
 14 13  1  1
 14 15  1  0
 16 14  1  0
 17 16  1  1
 18 17  1  0
 19 21  1  0
 19 17  1  0
 20 19  2  0
 22 21  1  0
 23 24  1  0
 23 22  1  0
 25 23  2  0
M  END
$$$$
