YLG.pdb
     RDKit          3D

 25 25  0  0  1  0  0  0  0  0999 V2000
   22.1410  -21.9341   -6.2054 O   0  0  0  0  0  0  0  0  0  0  0  0
   22.7931  -21.4780   -7.3591 C   0  0  0  0  0  0  0  0  0  0  0  0
   22.2163  -21.6726   -8.5964 C   0  0  0  0  0  0  0  0  0  0  0  0
   22.8715  -21.2161   -9.7349 C   0  0  0  0  0  0  0  0  0  0  0  0
   24.0886  -20.5711   -9.6584 C   0  0  0  0  0  0  0  0  0  0  0  0
   24.7241  -20.1144  -10.9114 C   0  0  0  0  0  0  0  0  0  0  0  0
   25.3804  -21.2545  -11.6634 C   0  0  2  0  0  0  0  0  0  0  0  0
   26.5556  -21.6476  -10.9082 N   0  0  0  0  0  0  0  0  0  0  0  0
   25.7932  -20.6952  -13.0009 C   0  0  0  0  0  0  0  0  0  0  0  0
   26.6370  -19.7643  -13.0626 O   0  0  0  0  0  0  0  0  0  0  0  0
   24.6622  -20.3789   -8.4129 C   0  0  0  0  0  0  0  0  0  0  0  0
   24.0068  -20.8341   -7.2884 C   0  0  0  0  0  0  0  0  0  0  0  0
   28.6677  -21.9417  -15.6786 C   0  0  0  0  0  0  0  0  0  0  0  0
   27.3634  -22.6547  -15.8793 C   0  0  2  0  0  0  0  0  0  0  0  0
   27.5457  -23.9500  -16.6400 C   0  0  0  0  0  0  0  0  0  0  0  0
   26.2391  -21.8340  -16.3757 C   0  0  0  0  0  0  0  0  0  0  0  0
   25.6631  -20.7889  -15.5113 C   0  0  2  0  0  0  0  0  0  0  0  0
   25.2365  -21.2107  -14.2037 N   0  0  0  0  0  0  0  0  0  0  0  0
   24.7337  -19.8339  -16.1714 C   0  0  0  0  0  0  0  0  0  0  0  0
   23.5060  -20.0948  -16.0531 O   0  0  0  0  0  0  0  0  0  0  0  0
   25.1760  -18.7074  -16.8923 N   0  0  0  0  0  0  0  0  0  0  0  0
   24.2448  -17.8364  -17.5454 C   0  0  0  0  0  0  0  0  0  0  0  0
   23.7789  -18.3270  -18.8556 C   0  0  0  0  0  0  0  0  0  0  0  0
   23.2858  -17.5550  -19.8814 O   0  0  0  0  0  0  0  0  0  0  0  0
   23.8211  -19.5880  -19.1023 O   0  0  0  0  0  0  0  0  0  0  0  0
  2  1  1  0
  3  2  2  0
  4  3  1  0
  5 11  1  0
  5  4  2  0
  6  5  1  0
  7  9  1  0
  7  6  1  0
  7  8  1  1
  9 18  1  0
  9 10  2  0
 11 12  2  0
 12  2  1  0
 14 13  1  6
 14 15  1  0
 16 14  1  0
 17 16  1  6
 18 17  1  0
 19 21  1  0
 19 17  1  0
 20 19  2  0
 22 21  1  0
 23 24  1  0
 23 22  1  0
 25 23  2  0
M  END
$$$$
