YLG.pdb
     RDKit          3D

 25 25  0  0  1  0  0  0  0  0999 V2000
   21.3128   -3.9088  -14.7263 O   0  0  0  0  0  0  0  0  0  0  0  0
   21.4099   -5.2964  -14.8987 C   0  0  0  0  0  0  0  0  0  0  0  0
   20.3403   -6.0015  -15.4088 C   0  0  0  0  0  0  0  0  0  0  0  0
   20.4469   -7.3779  -15.5760 C   0  0  0  0  0  0  0  0  0  0  0  0
   21.5995   -8.0591  -15.2434 C   0  0  0  0  0  0  0  0  0  0  0  0
   21.6382   -9.5215  -15.4493 C   0  0  0  0  0  0  0  0  0  0  0  0
   22.5132   -9.9063  -16.6251 C   0  0  2  0  0  0  0  0  0  0  0  0
   21.8690   -9.4021  -17.8237 N   0  0  0  0  0  0  0  0  0  0  0  0
   22.5428  -11.4131  -16.6534 C   0  0  0  0  0  0  0  0  0  0  0  0
   21.7951  -12.0444  -17.4439 O   0  0  0  0  0  0  0  0  0  0  0  0
   22.6697   -7.3449  -14.7317 C   0  0  0  0  0  0  0  0  0  0  0  0
   22.5570   -5.9804  -14.5687 C   0  0  0  0  0  0  0  0  0  0  0  0
   26.6341  -15.8216  -15.1671 C   0  0  0  0  0  0  0  0  0  0  0  0
   25.4370  -15.2629  -15.8775 C   0  0  2  0  0  0  0  0  0  0  0  0
   25.7194  -15.0221  -17.3444 C   0  0  0  0  0  0  0  0  0  0  0  0
   24.7532  -14.1318  -15.2164 C   0  0  0  0  0  0  0  0  0  0  0  0
   23.5299  -13.5698  -15.8153 C   0  0  2  0  0  0  0  0  0  0  0  0
   23.4122  -12.1361  -15.7909 N   0  0  0  0  0  0  0  0  0  0  0  0
   22.2632  -14.2854  -15.5074 C   0  0  0  0  0  0  0  0  0  0  0  0
   21.5390  -13.7590  -14.6198 O   0  0  0  0  0  0  0  0  0  0  0  0
   21.8809  -15.4792  -16.1502 N   0  0  0  0  0  0  0  0  0  0  0  0
   20.6601  -16.1450  -15.8059 C   0  0  0  0  0  0  0  0  0  0  0  0
   19.5143  -15.7807  -16.6597 C   0  0  0  0  0  0  0  0  0  0  0  0
   18.6587  -16.6572  -17.2851 O   0  0  0  0  0  0  0  0  0  0  0  0
   19.2567  -14.5379  -16.8639 O   0  0  0  0  0  0  0  0  0  0  0  0
  2  1  1  0
  3  2  2  0
  4  3  1  0
  5 11  1  0
  5  4  2  0
  6  5  1  0
  7  9  1  0
  7  6  1  0
  7  8  1  6
  9 18  1  0
  9 10  2  0
 11 12  2  0
 12  2  1  0
 14 13  1  1
 14 15  1  0
 16 14  1  0
 17 16  1  1
 18 17  1  0
 19 21  1  0
 19 17  1  0
 20 19  2  0
 22 21  1  0
 23 24  1  0
 23 22  1  0
 25 23  2  0
M  END
$$$$
