YLG.pdb
     RDKit          3D

 25 25  0  0  1  0  0  0  0  0999 V2000
   21.0978  -10.2906  -25.0555 O   0  0  0  0  0  0  0  0  0  0  0  0
   20.7881   -9.9491  -23.7319 C   0  0  0  0  0  0  0  0  0  0  0  0
   21.7657  -10.0065  -22.7611 C   0  0  0  0  0  0  0  0  0  0  0  0
   21.4481   -9.6657  -21.4509 C   0  0  0  0  0  0  0  0  0  0  0  0
   20.1751   -9.2701  -21.0955 C   0  0  0  0  0  0  0  0  0  0  0  0
   19.9134   -8.9233  -19.6835 C   0  0  0  0  0  0  0  0  0  0  0  0
   20.3381  -10.0294  -18.7391 C   0  0  2  0  0  0  0  0  0  0  0  0
   19.4009  -11.1242  -18.9099 N   0  0  0  0  0  0  0  0  0  0  0  0
   20.2187   -9.4642  -17.3468 C   0  0  0  0  0  0  0  0  0  0  0  0
   19.1415   -9.5820  -16.7078 O   0  0  0  0  0  0  0  0  0  0  0  0
   19.1982   -9.2147  -22.0752 C   0  0  0  0  0  0  0  0  0  0  0  0
   19.5203   -9.5541  -23.3722 C   0  0  0  0  0  0  0  0  0  0  0  0
   21.5926  -10.7394  -13.2020 C   0  0  0  0  0  0  0  0  0  0  0  0
   22.5188  -10.1385  -14.2174 C   0  0  2  0  0  0  0  0  0  0  0  0
   23.9581  -10.5298  -13.9621 C   0  0  0  0  0  0  0  0  0  0  0  0
   22.3408   -8.6976  -14.4931 C   0  0  0  0  0  0  0  0  0  0  0  0
   21.2722   -8.2576  -15.4071 C   0  0  2  0  0  0  0  0  0  0  0  0
   21.3172   -8.7940  -16.7413 N   0  0  0  0  0  0  0  0  0  0  0  0
   20.9139   -6.8154  -15.3476 C   0  0  0  0  0  0  0  0  0  0  0  0
   20.8694   -6.3098  -14.1936 O   0  0  0  0  0  0  0  0  0  0  0  0
   20.6327   -6.0470  -16.4942 N   0  0  0  0  0  0  0  0  0  0  0  0
   20.3116   -4.6548  -16.3896 C   0  0  0  0  0  0  0  0  0  0  0  0
   18.9000   -4.3859  -16.0587 C   0  0  0  0  0  0  0  0  0  0  0  0
   18.3230   -3.1456  -15.9164 O   0  0  0  0  0  0  0  0  0  0  0  0
   18.1004   -5.3762  -15.8785 O   0  0  0  0  0  0  0  0  0  0  0  0
  2  1  1  0
  3  2  2  0
  4  3  1  0
  5 11  1  0
  5  4  2  0
  6  5  1  0
  7  9  1  0
  7  6  1  0
  7  8  1  1
  9 18  1  0
  9 10  2  0
 11 12  2  0
 12  2  1  0
 14 13  1  1
 14 15  1  0
 16 14  1  0
 17 16  1  6
 18 17  1  0
 19 21  1  0
 19 17  1  0
 20 19  2  0
 22 21  1  0
 23 24  1  0
 23 22  1  0
 25 23  2  0
M  END
$$$$
