NPN.pdb
     RDKit          3D

 24 24  0  0  1  0  0  0  0  0999 V2000
    7.1843  -13.0624   18.3717 N   0  0  0  0  0  0  0  0  0  0  0  0
    6.9714  -14.1386   19.2625 C   0  0  0  0  0  0  0  0  0  0  0  0
    6.9019  -15.3082   18.7886 O   0  0  0  0  0  0  0  0  0  0  0  0
    6.8213  -14.0008   20.7298 C   0  0  0  0  0  0  0  0  0  0  0  0
    7.9951  -13.1666   21.2573 C   0  0  2  0  0  0  0  0  0  0  0  0
    9.0565  -13.1065   20.3010 N   0  0  0  0  0  0  0  0  0  0  0  0
    8.4399  -13.6843   22.5729 C   0  0  0  0  0  0  0  0  0  0  0  0
    9.5293  -14.3640   22.5259 O   0  0  0  0  0  0  0  0  0  0  0  0
    7.7737  -13.4836   23.7981 N   0  0  0  0  0  0  0  0  0  0  0  0
    6.5103  -12.8089   23.9564 C   0  0  0  0  0  0  0  0  0  0  0  0
    6.1412  -12.8875   25.4200 C   0  0  0  0  0  0  0  0  0  0  0  0
    7.4968  -13.0189   26.0913 C   0  0  0  0  0  0  0  0  0  0  0  0
    8.2197  -13.9053   25.0835 C   0  0  1  0  0  0  0  0  0  0  0  0
    7.8066  -15.2954   25.4221 C   0  0  0  0  0  0  0  0  0  0  0  0
    6.8292  -15.7571   24.7794 O   0  0  0  0  0  0  0  0  0  0  0  0
   10.5570  -19.7396   25.5196 N   0  0  0  0  0  0  0  0  0  0  0  0
   10.7454  -18.5661   24.7300 C   0  0  0  0  0  0  0  0  0  0  0  0
   11.5939  -18.6574   23.8127 O   0  0  0  0  0  0  0  0  0  0  0  0
    9.9850  -17.3316   24.9855 C   0  0  0  0  0  0  0  0  0  0  0  0
    9.0208  -17.4120   26.1269 C   0  0  2  0  0  0  0  0  0  0  0  0
    8.4303  -16.0902   26.3869 N   0  0  0  0  0  0  0  0  0  0  0  0
    9.6445  -17.8860   27.3979 C   0  0  0  0  0  0  0  0  0  0  0  0
    9.3561  -19.0619   28.0395 O   0  0  0  0  0  0  0  0  0  0  0  0
   10.5220  -17.1045   27.9112 O   0  0  0  0  0  0  0  0  0  0  0  0
  2  3  2  0
  2  1  1  0
  4  2  1  0
  5  6  1  6
  5  4  1  0
  7  5  1  0
  8  7  2  0
  9 13  1  0
  9  7  1  0
 10 11  1  0
 10  9  1  0
 11 12  1  0
 12 13  1  0
 14 15  2  0
 13 14  1  1
 16 17  1  0
 17 18  2  0
 17 19  1  0
 20 19  1  6
 20 21  1  0
 20 22  1  0
 21 14  1  0
 22 23  1  0
 24 22  2  0
M  END
$$$$
