SYQ.pdb
     RDKit          3D

 28 28  0  0  1  0  0  0  0  0999 V2000
   27.1133  -20.7065  -18.6926 O   0  0  0  0  0  0  0  0  0  0  0  0
   28.3879  -20.3190  -18.3186 C   0  0  0  0  0  0  0  0  0  0  0  0
   28.9628  -21.3922  -17.4195 C   0  0  2  0  0  0  0  0  0  0  0  0
   29.1490  -22.6275  -18.1331 N   0  0  0  0  0  0  0  0  0  0  0  0
   28.0689  -21.6654  -16.2581 C   0  0  0  0  0  0  0  0  0  0  0  0
   27.3723  -22.7305  -16.2212 O   0  0  0  0  0  0  0  0  0  0  0  0
   24.3016  -20.6911   -8.2725 O   0  0  0  0  0  0  0  0  0  0  0  0
   25.1371  -20.6012   -9.3793 C   0  0  0  0  0  0  0  0  0  0  0  0
   26.2892  -21.3389   -9.5220 C   0  0  0  0  0  0  0  0  0  0  0  0
   27.0893  -21.2169  -10.6397 C   0  0  0  0  0  0  0  0  0  0  0  0
   26.7518  -20.3476  -11.6468 C   0  0  0  0  0  0  0  0  0  0  0  0
   27.5279  -20.1422  -12.8702 C   0  0  0  0  0  0  0  0  0  0  0  0
   27.0794  -21.0091  -14.0226 C   0  0  2  0  0  0  0  0  0  0  0  0
   27.9471  -20.7749  -15.1549 N   0  0  0  0  0  0  0  0  0  0  0  0
   25.7071  -20.5703  -14.3830 C   0  0  0  0  0  0  0  0  0  0  0  0
   25.6048  -19.6005  -15.1797 O   0  0  0  0  0  0  0  0  0  0  0  0
   25.5931  -19.6143  -11.4897 C   0  0  0  0  0  0  0  0  0  0  0  0
   24.7848  -19.7262  -10.3788 C   0  0  0  0  0  0  0  0  0  0  0  0
   22.1244  -22.0047  -18.1655 N   0  0  0  0  0  0  0  0  0  0  0  0
   21.1885  -21.1819  -17.4433 C   0  0  0  0  0  0  0  0  0  0  0  0
   20.1352  -20.9192  -18.0348 O   0  0  0  0  0  0  0  0  0  0  0  0
   21.5899  -20.7503  -16.0937 C   0  0  0  0  0  0  0  0  0  0  0  0
   22.9385  -21.1990  -15.6511 C   0  0  0  0  0  0  0  0  0  0  0  0
   23.2498  -20.7389  -14.2704 C   0  0  2  0  0  0  0  0  0  0  0  0
   24.5715  -21.2226  -13.8469 N   0  0  0  0  0  0  0  0  0  0  0  0
   22.2618  -21.2604  -13.3050 C   0  0  0  0  0  0  0  0  0  0  0  0
   22.5309  -22.2855  -12.6042 O   0  0  0  0  0  0  0  0  0  0  0  0
   21.0352  -20.6571  -13.1353 O   0  0  0  0  0  0  0  0  0  0  0  0
  1  2  1  0
  2  3  1  0
  3  4  1  6
  5  3  1  0
  6  5  2  0
  7  8  1  0
  8 18  2  0
  9 10  2  0
  9  8  1  0
 10 11  1  0
 11 12  1  0
 11 17  2  0
 13 12  1  1
 13 15  1  0
 13 14  1  0
 14  5  1  0
 15 16  2  0
 18 17  1  0
 19 20  1  0
 20 22  1  0
 21 20  2  0
 22 23  1  0
 24 23  1  6
 25 24  1  0
 25 15  1  0
 26 28  1  0
 26 24  1  0
 27 26  2  0
M  END
$$$$
