SYQ.pdb
     RDKit          3D

 28 28  0  0  1  0  0  0  0  0999 V2000
   23.0080  -17.8653  -19.9376 O   0  0  0  0  0  0  0  0  0  0  0  0
   23.0309  -16.4821  -19.9664 C   0  0  0  0  0  0  0  0  0  0  0  0
   23.9037  -16.0005  -18.8277 C   0  0  2  0  0  0  0  0  0  0  0  0
   25.2758  -16.3877  -19.0208 N   0  0  0  0  0  0  0  0  0  0  0  0
   23.4508  -16.5584  -17.5215 C   0  0  0  0  0  0  0  0  0  0  0  0
   24.2775  -17.1506  -16.7554 O   0  0  0  0  0  0  0  0  0  0  0  0
   16.3208  -14.8610  -18.6548 O   0  0  0  0  0  0  0  0  0  0  0  0
   17.4186  -15.0906  -17.8342 C   0  0  0  0  0  0  0  0  0  0  0  0
   18.5672  -14.3350  -17.8749 C   0  0  0  0  0  0  0  0  0  0  0  0
   19.6338  -14.5995  -17.0402 C   0  0  0  0  0  0  0  0  0  0  0  0
   19.5742  -15.6337  -16.1396 C   0  0  0  0  0  0  0  0  0  0  0  0
   20.6455  -15.9984  -15.2120 C   0  0  0  0  0  0  0  0  0  0  0  0
   21.6453  -16.9683  -15.7953 C   0  0  2  0  0  0  0  0  0  0  0  0
   22.1048  -16.4631  -17.0695 N   0  0  0  0  0  0  0  0  0  0  0  0
   20.9218  -18.2443  -16.0286 C   0  0  0  0  0  0  0  0  0  0  0  0
   20.8516  -18.6558  -17.2166 O   0  0  0  0  0  0  0  0  0  0  0  0
   18.4154  -16.3829  -16.1103 C   0  0  0  0  0  0  0  0  0  0  0  0
   17.3427  -16.1298  -16.9381 C   0  0  0  0  0  0  0  0  0  0  0  0
   24.0439  -22.2150  -15.5145 N   0  0  0  0  0  0  0  0  0  0  0  0
   23.2009  -22.1748  -16.6817 C   0  0  0  0  0  0  0  0  0  0  0  0
   23.6926  -22.6390  -17.7166 O   0  0  0  0  0  0  0  0  0  0  0  0
   21.8605  -21.5893  -16.5108 C   0  0  0  0  0  0  0  0  0  0  0  0
   21.5629  -21.0519  -15.1549 C   0  0  0  0  0  0  0  0  0  0  0  0
   20.2192  -20.4150  -15.0940 C   0  0  2  0  0  0  0  0  0  0  0  0
   20.3409  -18.9571  -14.9530 N   0  0  0  0  0  0  0  0  0  0  0  0
   19.4547  -20.9060  -13.9302 C   0  0  0  0  0  0  0  0  0  0  0  0
   19.1995  -20.1290  -12.9579 O   0  0  0  0  0  0  0  0  0  0  0  0
   18.9984  -22.2041  -13.8658 O   0  0  0  0  0  0  0  0  0  0  0  0
  1  2  1  0
  2  3  1  0
  3  4  1  6
  5  3  1  0
  6  5  2  0
  7  8  1  0
  8 18  2  0
  9 10  2  0
  9  8  1  0
 10 11  1  0
 11 12  1  0
 11 17  2  0
 13 12  1  6
 13 15  1  0
 13 14  1  0
 14  5  1  0
 15 16  2  0
 18 17  1  0
 19 20  1  0
 20 22  1  0
 21 20  2  0
 22 23  1  0
 24 23  1  1
 25 24  1  0
 25 15  1  0
 26 28  1  0
 26 24  1  0
 27 26  2  0
M  END
$$$$
