SYQ.pdb
     RDKit          3D

 28 28  0  0  1  0  0  0  0  0999 V2000
   20.8462  -14.7877  -19.1503 O   0  0  0  0  0  0  0  0  0  0  0  0
   21.1384  -13.4558  -19.3856 C   0  0  0  0  0  0  0  0  0  0  0  0
   20.5632  -12.6384  -18.2492 C   0  0  2  0  0  0  0  0  0  0  0  0
   19.1327  -12.7750  -18.1787 N   0  0  0  0  0  0  0  0  0  0  0  0
   20.8768  -11.1896  -18.4079 C   0  0  0  0  0  0  0  0  0  0  0  0
   22.0860  -10.8007  -18.4953 O   0  0  0  0  0  0  0  0  0  0  0  0
   19.8217   -2.5122  -19.7326 O   0  0  0  0  0  0  0  0  0  0  0  0
   19.5704   -3.8607  -19.5098 C   0  0  0  0  0  0  0  0  0  0  0  0
   18.8534   -4.3311  -18.4343 C   0  0  0  0  0  0  0  0  0  0  0  0
   18.6282   -5.6804  -18.2530 C   0  0  0  0  0  0  0  0  0  0  0  0
   19.1190   -6.5957  -19.1504 C   0  0  0  0  0  0  0  0  0  0  0  0
   18.9381   -8.0444  -19.0519 C   0  0  0  0  0  0  0  0  0  0  0  0
   20.1458   -8.7682  -18.5059 C   0  0  2  0  0  0  0  0  0  0  0  0
   19.8692  -10.1866  -18.4691 N   0  0  0  0  0  0  0  0  0  0  0  0
   20.3408   -8.2907  -17.1131 C   0  0  0  0  0  0  0  0  0  0  0  0
   19.5656   -8.7515  -16.2342 O   0  0  0  0  0  0  0  0  0  0  0  0
   19.8364   -6.1089  -20.2243 C   0  0  0  0  0  0  0  0  0  0  0  0
   20.0689   -4.7640  -20.4177 C   0  0  0  0  0  0  0  0  0  0  0  0
   22.8308  -10.5853  -13.4862 N   0  0  0  0  0  0  0  0  0  0  0  0
   23.7906   -9.8993  -14.3125 C   0  0  0  0  0  0  0  0  0  0  0  0
   24.9016  -10.4340  -14.4038 O   0  0  0  0  0  0  0  0  0  0  0  0
   23.3431   -8.6488  -14.9487 C   0  0  0  0  0  0  0  0  0  0  0  0
   21.9628   -8.2113  -14.6036 C   0  0  0  0  0  0  0  0  0  0  0  0
   21.5495   -7.0139  -15.3847 C   0  0  2  0  0  0  0  0  0  0  0  0
   21.3577   -7.3576  -16.8007 N   0  0  0  0  0  0  0  0  0  0  0  0
   22.5840   -5.9620  -15.3248 C   0  0  0  0  0  0  0  0  0  0  0  0
   23.2230   -5.6322  -16.3723 O   0  0  0  0  0  0  0  0  0  0  0  0
   22.8816   -5.3128  -14.1470 O   0  0  0  0  0  0  0  0  0  0  0  0
  1  2  1  0
  2  3  1  0
  3  4  1  6
  5  3  1  0
  6  5  2  0
  7  8  1  0
  8 18  2  0
  9 10  2  0
  9  8  1  0
 10 11  1  0
 11 12  1  0
 11 17  2  0
 13 12  1  1
 13 15  1  0
 13 14  1  0
 14  5  1  0
 15 16  2  0
 18 17  1  0
 19 20  1  0
 20 22  1  0
 21 20  2  0
 22 23  1  0
 24 23  1  1
 25 24  1  0
 25 15  1  0
 26 28  1  0
 26 24  1  0
 27 26  2  0
M  END
$$$$
