SYQ.pdb
     RDKit          3D

 28 28  0  0  1  0  0  0  0  0999 V2000
   13.8925  -21.8886   -3.4689 O   0  0  0  0  0  0  0  0  0  0  0  0
   13.9461  -23.2302   -3.8034 C   0  0  0  0  0  0  0  0  0  0  0  0
   14.7245  -23.3642   -5.0943 C   0  0  2  0  0  0  0  0  0  0  0  0
   13.8598  -23.2608   -6.2394 N   0  0  0  0  0  0  0  0  0  0  0  0
   15.4297  -24.6754   -5.1708 C   0  0  0  0  0  0  0  0  0  0  0  0
   14.8450  -25.6903   -5.6699 O   0  0  0  0  0  0  0  0  0  0  0  0
   18.2832  -25.2278  -11.0915 O   0  0  0  0  0  0  0  0  0  0  0  0
   18.4119  -25.3151   -9.7105 C   0  0  0  0  0  0  0  0  0  0  0  0
   18.4908  -24.2176   -8.8851 C   0  0  0  0  0  0  0  0  0  0  0  0
   18.6182  -24.3520   -7.5176 C   0  0  0  0  0  0  0  0  0  0  0  0
   18.6698  -25.5968   -6.9415 C   0  0  0  0  0  0  0  0  0  0  0  0
   18.8034  -25.8500   -5.5066 C   0  0  0  0  0  0  0  0  0  0  0  0
   17.4866  -26.1068   -4.8134 C   0  0  2  0  0  0  0  0  0  0  0  0
   16.7607  -24.8616   -4.7028 N   0  0  0  0  0  0  0  0  0  0  0  0
   17.8068  -26.5875   -3.4451 C   0  0  0  0  0  0  0  0  0  0  0  0
   18.4487  -25.8042   -2.6967 O   0  0  0  0  0  0  0  0  0  0  0  0
   18.5895  -26.6884   -7.7823 C   0  0  0  0  0  0  0  0  0  0  0  0
   18.4621  -26.5687   -9.1496 C   0  0  0  0  0  0  0  0  0  0  0  0
   14.7987  -28.7267    1.2893 N   0  0  0  0  0  0  0  0  0  0  0  0
   14.5114  -29.3117    0.0048 C   0  0  0  0  0  0  0  0  0  0  0  0
   13.5169  -30.0446   -0.0422 O   0  0  0  0  0  0  0  0  0  0  0  0
   15.4280  -28.9734   -1.0970 C   0  0  0  0  0  0  0  0  0  0  0  0
   16.5493  -28.0610   -0.7419 C   0  0  0  0  0  0  0  0  0  0  0  0
   17.7258  -28.2565   -1.6321 C   0  0  2  0  0  0  0  0  0  0  0  0
   17.4021  -27.8729   -3.0135 N   0  0  0  0  0  0  0  0  0  0  0  0
   18.1398  -29.6736   -1.6558 C   0  0  0  0  0  0  0  0  0  0  0  0
   17.9711  -30.3724   -2.7035 O   0  0  0  0  0  0  0  0  0  0  0  0
   18.7168  -30.2723   -0.5577 O   0  0  0  0  0  0  0  0  0  0  0  0
  1  2  1  0
  2  3  1  0
  3  4  1  6
  5  3  1  0
  6  5  2  0
  7  8  1  0
  8 18  2  0
  9 10  2  0
  9  8  1  0
 10 11  1  0
 11 12  1  0
 11 17  2  0
 13 12  1  6
 13 15  1  0
 13 14  1  0
 14  5  1  0
 15 16  2  0
 18 17  1  0
 19 20  1  0
 20 22  1  0
 21 20  2  0
 22 23  1  0
 24 23  1  1
 25 24  1  0
 25 15  1  0
 26 28  1  0
 26 24  1  0
 27 26  2  0
M  END
$$$$
