SYQ.pdb
     RDKit          3D

 28 28  0  0  1  0  0  0  0  0999 V2000
   22.2177  -16.0249  -16.4313 O   0  0  0  0  0  0  0  0  0  0  0  0
   21.6336  -14.7940  -16.1896 C   0  0  0  0  0  0  0  0  0  0  0  0
   20.6526  -14.5095  -17.3063 C   0  0  2  0  0  0  0  0  0  0  0  0
   21.0904  -15.0907  -18.5474 N   0  0  0  0  0  0  0  0  0  0  0  0
   20.4838  -13.0441  -17.5221 C   0  0  0  0  0  0  0  0  0  0  0  0
   21.2352  -12.4257  -18.3431 O   0  0  0  0  0  0  0  0  0  0  0  0
   15.6312  -12.7037  -22.2096 O   0  0  0  0  0  0  0  0  0  0  0  0
   16.1145  -12.2925  -20.9733 C   0  0  0  0  0  0  0  0  0  0  0  0
   16.1051  -13.0891  -19.8520 C   0  0  0  0  0  0  0  0  0  0  0  0
   16.5961  -12.6383  -18.6437 C   0  0  0  0  0  0  0  0  0  0  0  0
   17.1112  -11.3712  -18.5297 C   0  0  0  0  0  0  0  0  0  0  0  0
   17.6554  -10.7965  -17.2990 C   0  0  0  0  0  0  0  0  0  0  0  0
   19.1570  -10.9141  -17.1899 C   0  0  2  0  0  0  0  0  0  0  0  0
   19.4997  -12.2745  -16.8407 N   0  0  0  0  0  0  0  0  0  0  0  0
   19.5792  -10.0229  -16.0794 C   0  0  0  0  0  0  0  0  0  0  0  0
   19.5310  -10.4960  -14.9133 O   0  0  0  0  0  0  0  0  0  0  0  0
   17.1140  -10.5836  -19.6632 C   0  0  0  0  0  0  0  0  0  0  0  0
   16.6268  -11.0209  -20.8762 C   0  0  0  0  0  0  0  0  0  0  0  0
   23.3769   -4.9687  -16.3363 N   0  0  0  0  0  0  0  0  0  0  0  0
   23.1236   -5.1328  -14.9280 C   0  0  0  0  0  0  0  0  0  0  0  0
   23.7492   -4.3757  -14.1770 O   0  0  0  0  0  0  0  0  0  0  0  0
   22.1566   -6.1757  -14.5459 C   0  0  0  0  0  0  0  0  0  0  0  0
   21.5932   -6.9715  -15.6707 C   0  0  0  0  0  0  0  0  0  0  0  0
   20.5630   -7.9386  -15.2036 C   0  0  2  0  0  0  0  0  0  0  0  0
   20.0148   -8.7010  -16.3344 N   0  0  0  0  0  0  0  0  0  0  0  0
   19.4346   -7.2375  -14.5592 C   0  0  0  0  0  0  0  0  0  0  0  0
   18.4154   -6.9034  -15.2403 O   0  0  0  0  0  0  0  0  0  0  0  0
   19.4516   -6.9308  -13.2164 O   0  0  0  0  0  0  0  0  0  0  0  0
  1  2  1  0
  2  3  1  0
  3  4  1  6
  5  3  1  0
  6  5  2  0
  7  8  1  0
  8 18  2  0
  9 10  2  0
  9  8  1  0
 10 11  1  0
 11 12  1  0
 11 17  2  0
 13 12  1  1
 13 15  1  0
 13 14  1  0
 14  5  1  0
 15 16  2  0
 18 17  1  0
 19 20  1  0
 20 22  1  0
 21 20  2  0
 22 23  1  0
 24 23  1  6
 25 24  1  0
 25 15  1  0
 26 28  1  0
 26 24  1  0
 27 26  2  0
M  END
$$$$
