SYQ.pdb
     RDKit          3D

 28 28  0  0  1  0  0  0  0  0999 V2000
   23.5688  -19.4248  -18.0617 O   0  0  0  0  0  0  0  0  0  0  0  0
   22.8415  -18.5651  -17.2576 C   0  0  0  0  0  0  0  0  0  0  0  0
   23.5583  -18.4400  -15.9307 C   0  0  2  0  0  0  0  0  0  0  0  0
   22.8851  -19.1851  -14.9005 N   0  0  0  0  0  0  0  0  0  0  0  0
   23.6396  -17.0187  -15.4880 C   0  0  0  0  0  0  0  0  0  0  0  0
   22.8693  -16.5873  -14.5706 O   0  0  0  0  0  0  0  0  0  0  0  0
   26.4116   -8.5392  -16.0650 O   0  0  0  0  0  0  0  0  0  0  0  0
   26.3074   -9.9221  -15.9756 C   0  0  0  0  0  0  0  0  0  0  0  0
   26.1782  -10.5976  -14.7843 C   0  0  0  0  0  0  0  0  0  0  0  0
   26.0778  -11.9733  -14.7432 C   0  0  0  0  0  0  0  0  0  0  0  0
   26.1047  -12.7090  -15.9017 C   0  0  0  0  0  0  0  0  0  0  0  0
   26.0060  -14.1673  -15.9695 C   0  0  0  0  0  0  0  0  0  0  0  0
   24.6201  -14.6930  -15.6804 C   0  0  2  0  0  0  0  0  0  0  0  0
   24.5581  -16.0889  -16.0509 N   0  0  0  0  0  0  0  0  0  0  0  0
   23.6824  -13.9343  -16.5469 C   0  0  0  0  0  0  0  0  0  0  0  0
   23.3780  -14.4509  -17.6542 O   0  0  0  0  0  0  0  0  0  0  0  0
   26.2347  -12.0174  -17.0891 C   0  0  0  0  0  0  0  0  0  0  0  0
   26.3360  -10.6438  -17.1447 C   0  0  0  0  0  0  0  0  0  0  0  0
   18.3888  -13.8121  -15.4632 N   0  0  0  0  0  0  0  0  0  0  0  0
   18.3041  -13.0330  -16.6716 C   0  0  0  0  0  0  0  0  0  0  0  0
   17.1614  -12.7880  -17.0749 O   0  0  0  0  0  0  0  0  0  0  0  0
   19.5781  -12.6208  -17.2846 C   0  0  0  0  0  0  0  0  0  0  0  0
   20.8070  -13.0993  -16.5941 C   0  0  0  0  0  0  0  0  0  0  0  0
   21.9622  -12.1901  -16.8257 C   0  0  2  0  0  0  0  0  0  0  0  0
   23.1606  -12.6855  -16.1339 N   0  0  0  0  0  0  0  0  0  0  0  0
   21.6821  -10.8375  -16.3039 C   0  0  0  0  0  0  0  0  0  0  0  0
   22.0353  -10.5202  -15.1254 O   0  0  0  0  0  0  0  0  0  0  0  0
   21.0402   -9.8901  -17.0705 O   0  0  0  0  0  0  0  0  0  0  0  0
  1  2  1  0
  2  3  1  0
  3  4  1  1
  5  3  1  0
  6  5  2  0
  7  8  1  0
  8 18  2  0
  9 10  2  0
  9  8  1  0
 10 11  1  0
 11 12  1  0
 11 17  2  0
 13 12  1  6
 13 15  1  0
 13 14  1  0
 14  5  1  0
 15 16  2  0
 18 17  1  0
 19 20  1  0
 20 22  1  0
 21 20  2  0
 22 23  1  0
 24 23  1  1
 25 24  1  0
 25 15  1  0
 26 28  1  0
 26 24  1  0
 27 26  2  0
M  END
$$$$
