SYQ.pdb
     RDKit          3D

 28 28  0  0  1  0  0  0  0  0999 V2000
   28.7773  -19.6125  -13.5063 O   0  0  0  0  0  0  0  0  0  0  0  0
   29.5450  -19.3101  -12.3956 C   0  0  0  0  0  0  0  0  0  0  0  0
   29.6864  -20.5662  -11.5632 C   0  0  2  0  0  0  0  0  0  0  0  0
   30.1800  -21.6633  -12.3522 N   0  0  0  0  0  0  0  0  0  0  0  0
   28.3805  -20.9781  -10.9737 C   0  0  0  0  0  0  0  0  0  0  0  0
   27.8672  -22.1038  -11.2745 O   0  0  0  0  0  0  0  0  0  0  0  0
   29.0271  -20.5892   -3.8151 O   0  0  0  0  0  0  0  0  0  0  0  0
   28.3055  -20.2693   -4.9589 C   0  0  0  0  0  0  0  0  0  0  0  0
   28.4108  -19.0619   -5.6093 C   0  0  0  0  0  0  0  0  0  0  0  0
   27.6739  -18.7876   -6.7433 C   0  0  0  0  0  0  0  0  0  0  0  0
   26.8089  -19.7222   -7.2554 C   0  0  0  0  0  0  0  0  0  0  0  0
   25.9832  -19.5333   -8.4486 C   0  0  0  0  0  0  0  0  0  0  0  0
   26.3298  -20.4739   -9.5780 C   0  0  2  0  0  0  0  0  0  0  0  0
   27.6535  -20.1582  -10.0658 N   0  0  0  0  0  0  0  0  0  0  0  0
   25.3535  -20.2170  -10.6674 C   0  0  0  0  0  0  0  0  0  0  0  0
   25.5526  -19.2053  -11.3902 O   0  0  0  0  0  0  0  0  0  0  0  0
   26.7139  -20.9288   -6.5921 C   0  0  0  0  0  0  0  0  0  0  0  0
   27.4439  -21.2161   -5.4587 C   0  0  0  0  0  0  0  0  0  0  0  0
   23.8684  -24.2693  -14.6781 N   0  0  0  0  0  0  0  0  0  0  0  0
   22.7157  -24.2282  -13.8155 C   0  0  0  0  0  0  0  0  0  0  0  0
   21.9435  -25.1898  -13.9032 O   0  0  0  0  0  0  0  0  0  0  0  0
   22.5888  -23.0547  -12.9349 C   0  0  0  0  0  0  0  0  0  0  0  0
   23.6912  -22.0590  -13.0298 C   0  0  0  0  0  0  0  0  0  0  0  0
   23.4781  -20.9074  -12.1114 C   0  0  2  0  0  0  0  0  0  0  0  0
   24.2511  -21.0799  -10.8733 N   0  0  0  0  0  0  0  0  0  0  0  0
   22.0566  -20.7935  -11.7288 C   0  0  0  0  0  0  0  0  0  0  0  0
   21.6905  -21.0550  -10.5406 O   0  0  0  0  0  0  0  0  0  0  0  0
   21.0971  -20.4026  -12.6365 O   0  0  0  0  0  0  0  0  0  0  0  0
  1  2  1  0
  2  3  1  0
  3  4  1  6
  5  3  1  0
  6  5  2  0
  7  8  1  0
  8 18  2  0
  9 10  2  0
  9  8  1  0
 10 11  1  0
 11 12  1  0
 11 17  2  0
 13 12  1  1
 13 15  1  0
 13 14  1  0
 14  5  1  0
 15 16  2  0
 18 17  1  0
 19 20  1  0
 20 22  1  0
 21 20  2  0
 22 23  1  0
 24 23  1  6
 25 24  1  0
 25 15  1  0
 26 28  1  0
 26 24  1  0
 27 26  2  0
M  END
$$$$
