SYQ.pdb
     RDKit          3D

 28 28  0  0  1  0  0  0  0  0999 V2000
   25.8273  -10.1457  -22.4152 O   0  0  0  0  0  0  0  0  0  0  0  0
   24.7081   -9.9201  -21.6335 C   0  0  0  0  0  0  0  0  0  0  0  0
   24.9706  -10.4918  -20.2571 C   0  0  2  0  0  0  0  0  0  0  0  0
   25.1579  -11.9172  -20.3100 N   0  0  0  0  0  0  0  0  0  0  0  0
   23.8388  -10.2136  -19.3274 C   0  0  0  0  0  0  0  0  0  0  0  0
   22.6413  -10.4609  -19.6824 O   0  0  0  0  0  0  0  0  0  0  0  0
   18.9647   -9.2031  -12.1795 O   0  0  0  0  0  0  0  0  0  0  0  0
   20.0553   -9.3964  -13.0188 C   0  0  0  0  0  0  0  0  0  0  0  0
   21.3615   -9.2699  -12.6066 C   0  0  0  0  0  0  0  0  0  0  0  0
   22.4142   -9.4714  -13.4758 C   0  0  0  0  0  0  0  0  0  0  0  0
   22.1815   -9.8064  -14.7864 C   0  0  0  0  0  0  0  0  0  0  0  0
   23.2224  -10.0413  -15.7877 C   0  0  0  0  0  0  0  0  0  0  0  0
   22.9478   -9.3713  -17.1129 C   0  0  2  0  0  0  0  0  0  0  0  0
   24.0280   -9.6705  -18.0258 N   0  0  0  0  0  0  0  0  0  0  0  0
   22.9365   -7.9076  -16.8613 C   0  0  0  0  0  0  0  0  0  0  0  0
   24.0504   -7.3455  -16.6907 O   0  0  0  0  0  0  0  0  0  0  0  0
   20.8660   -9.9297  -15.1854 C   0  0  0  0  0  0  0  0  0  0  0  0
   19.8050   -9.7313  -14.3279 C   0  0  0  0  0  0  0  0  0  0  0  0
   20.4307   -1.2847  -18.2329 N   0  0  0  0  0  0  0  0  0  0  0  0
   20.3992   -2.7124  -18.4211 C   0  0  0  0  0  0  0  0  0  0  0  0
   19.8765   -3.1054  -19.4703 O   0  0  0  0  0  0  0  0  0  0  0  0
   20.9878   -3.5348  -17.3506 C   0  0  0  0  0  0  0  0  0  0  0  0
   20.9617   -5.0049  -17.5828 C   0  0  0  0  0  0  0  0  0  0  0  0
   21.7982   -5.7370  -16.5933 C   0  0  2  0  0  0  0  0  0  0  0  0
   21.7192   -7.1874  -16.8176 N   0  0  0  0  0  0  0  0  0  0  0  0
   21.3326   -5.4801  -15.2158 C   0  0  0  0  0  0  0  0  0  0  0  0
   20.4849   -6.2545  -14.6717 O   0  0  0  0  0  0  0  0  0  0  0  0
   21.7996   -4.4083  -14.4874 O   0  0  0  0  0  0  0  0  0  0  0  0
  1  2  1  0
  2  3  1  0
  3  4  1  6
  5  3  1  0
  6  5  2  0
  7  8  1  0
  8 18  2  0
  9 10  2  0
  9  8  1  0
 10 11  1  0
 11 12  1  0
 11 17  2  0
 13 12  1  1
 13 15  1  0
 13 14  1  0
 14  5  1  0
 15 16  2  0
 18 17  1  0
 19 20  1  0
 20 22  1  0
 21 20  2  0
 22 23  1  0
 24 23  1  6
 25 24  1  0
 25 15  1  0
 26 28  1  0
 26 24  1  0
 27 26  2  0
M  END
$$$$
