SYQ.pdb
     RDKit          3D

 28 28  0  0  1  0  0  0  0  0999 V2000
   28.5255  -19.4299  -19.2789 O   0  0  0  0  0  0  0  0  0  0  0  0
   27.6259  -20.2714  -18.6488 C   0  0  0  0  0  0  0  0  0  0  0  0
   28.4031  -21.1953  -17.7362 C   0  0  2  0  0  0  0  0  0  0  0  0
   28.7160  -22.4367  -18.3926 N   0  0  0  0  0  0  0  0  0  0  0  0
   27.6331  -21.5132  -16.4999 C   0  0  0  0  0  0  0  0  0  0  0  0
   26.7702  -22.4495  -16.5044 O   0  0  0  0  0  0  0  0  0  0  0  0
   24.5484  -20.7400   -8.2286 O   0  0  0  0  0  0  0  0  0  0  0  0
   25.2955  -20.5663   -9.3874 C   0  0  0  0  0  0  0  0  0  0  0  0
   25.4572  -19.3509  -10.0107 C   0  0  0  0  0  0  0  0  0  0  0  0
   26.2089  -19.2252  -11.1611 C   0  0  0  0  0  0  0  0  0  0  0  0
   26.8200  -20.3212  -11.7175 C   0  0  0  0  0  0  0  0  0  0  0  0
   27.6364  -20.2977  -12.9316 C   0  0  0  0  0  0  0  0  0  0  0  0
   27.0017  -21.0135  -14.1001 C   0  0  2  0  0  0  0  0  0  0  0  0
   27.8142  -20.8070  -15.2778 N   0  0  0  0  0  0  0  0  0  0  0  0
   25.6774  -20.3798  -14.3255 C   0  0  0  0  0  0  0  0  0  0  0  0
   25.6635  -19.2824  -14.9428 O   0  0  0  0  0  0  0  0  0  0  0  0
   26.6488  -21.5338  -11.0810 C   0  0  0  0  0  0  0  0  0  0  0  0
   25.9008  -21.6737   -9.9316 C   0  0  0  0  0  0  0  0  0  0  0  0
   21.7474  -20.8069  -18.0683 N   0  0  0  0  0  0  0  0  0  0  0  0
   21.0241  -19.9080  -17.2060 C   0  0  0  0  0  0  0  0  0  0  0  0
   20.0359  -19.3599  -17.7076 O   0  0  0  0  0  0  0  0  0  0  0  0
   21.5402  -19.7450  -15.8365 C   0  0  0  0  0  0  0  0  0  0  0  0
   22.8169  -20.4521  -15.5434 C   0  0  0  0  0  0  0  0  0  0  0  0
   23.2219  -20.2971  -14.1197 C   0  0  2  0  0  0  0  0  0  0  0  0
   24.4900  -20.9936  -13.8611 N   0  0  0  0  0  0  0  0  0  0  0  0
   22.2093  -20.8796  -13.2166 C   0  0  0  0  0  0  0  0  0  0  0  0
   22.4079  -22.0134  -12.6786 O   0  0  0  0  0  0  0  0  0  0  0  0
   21.0351  -20.2184  -12.9317 O   0  0  0  0  0  0  0  0  0  0  0  0
  1  2  1  0
  2  3  1  0
  3  4  1  6
  5  3  1  0
  6  5  2  0
  7  8  1  0
  8 18  2  0
  9 10  2  0
  9  8  1  0
 10 11  1  0
 11 12  1  0
 11 17  2  0
 13 12  1  1
 13 15  1  0
 13 14  1  0
 14  5  1  0
 15 16  2  0
 18 17  1  0
 19 20  1  0
 20 22  1  0
 21 20  2  0
 22 23  1  0
 24 23  1  6
 25 24  1  0
 25 15  1  0
 26 28  1  0
 26 24  1  0
 27 26  2  0
M  END
$$$$
