AKE.pdb
     RDKit          3D

 24 23  0  0  1  0  0  0  0  0999 V2000
   25.2663  -23.7582  -16.5499 C   0  0  0  0  0  0  0  0  0  0  0  0
   26.5659  -23.0302  -16.3030 C   0  0  2  0  0  0  0  0  0  0  0  0
   26.3302  -21.6119  -16.5301 N   0  0  0  0  0  0  0  0  0  0  0  0
   27.6362  -23.4804  -17.2282 C   0  0  0  0  0  0  0  0  0  0  0  0
   27.7117  -23.0384  -18.4240 O   0  0  0  0  0  0  0  0  0  0  0  0
   28.6292  -24.4105  -16.8629 N   0  0  0  0  0  0  0  0  0  0  0  0
   29.6994  -24.8649  -17.6904 C   0  0  1  0  0  0  0  0  0  0  0  0
   31.0024  -25.0186  -16.9469 C   0  0  0  0  0  0  0  0  0  0  0  0
   32.1524  -25.4048  -17.8020 C   0  0  0  0  0  0  0  0  0  0  0  0
   33.3952  -25.4693  -16.9421 C   0  0  0  0  0  0  0  0  0  0  0  0
   34.6544  -25.6904  -17.7181 C   0  0  0  0  0  0  0  0  0  0  0  0
   35.7683  -25.6235  -16.7602 N   0  0  0  0  0  0  0  0  0  0  0  0
   29.3596  -26.0322  -18.5352 C   0  0  0  0  0  0  0  0  0  0  0  0
   28.7304  -27.0440  -18.1252 O   0  0  0  0  0  0  0  0  0  0  0  0
   29.7381  -26.0782  -19.9063 N   0  0  0  0  0  0  0  0  0  0  0  0
   29.1916  -27.0350  -20.8401 C   0  0  1  0  0  0  0  0  0  0  0  0
   27.7105  -26.8776  -20.9565 C   0  0  0  0  0  0  0  0  0  0  0  0
   27.0292  -27.8044  -21.8989 C   0  0  0  0  0  0  0  0  0  0  0  0
   25.5629  -27.6064  -21.9615 C   0  0  0  0  0  0  0  0  0  0  0  0
   24.7728  -28.1590  -21.1568 O   0  0  0  0  0  0  0  0  0  0  0  0
   29.7602  -26.7833  -22.1919 C   0  0  0  0  0  0  0  0  0  0  0  0
   29.8245  -27.7439  -23.1755 O   0  0  0  0  0  0  0  0  0  0  0  0
   25.0119  -26.7860  -22.9338 O   0  0  0  0  0  0  0  0  0  0  0  0
   30.2047  -25.6432  -22.4560 O   0  0  0  0  0  0  0  0  0  0  0  0
  2  1  1  6
  2  3  1  0
  4  5  2  0
  4  2  1  0
  6  4  1  0
  7  6  1  0
  7  8  1  1
  9 10  1  0
  9  8  1  0
 10 11  1  0
 11 12  1  0
 13  7  1  0
 13 15  1  0
 14 13  2  0
 16 15  1  0
 16 21  1  0
 16 17  1  6
 18 17  1  0
 19 20  2  0
 19 18  1  0
 21 24  2  0
 21 22  1  0
 23 19  1  0
M  END
$$$$
