AKE.pdb
     RDKit          3D

 24 23  0  0  1  0  0  0  0  0999 V2000
   20.9592  -22.6424  -22.6338 C   0  0  0  0  0  0  0  0  0  0  0  0
   21.2738  -21.4311  -21.7890 C   0  0  2  0  0  0  0  0  0  0  0  0
   21.8441  -21.9007  -20.5348 N   0  0  0  0  0  0  0  0  0  0  0  0
   20.0557  -20.6399  -21.4815 C   0  0  0  0  0  0  0  0  0  0  0  0
   19.4198  -20.0149  -22.3958 O   0  0  0  0  0  0  0  0  0  0  0  0
   19.5211  -20.5219  -20.1835 N   0  0  0  0  0  0  0  0  0  0  0  0
   18.3440  -19.8004  -19.8224 C   0  0  1  0  0  0  0  0  0  0  0  0
   17.6171  -20.3991  -18.6445 C   0  0  0  0  0  0  0  0  0  0  0  0
   17.0485  -21.7465  -18.8975 C   0  0  0  0  0  0  0  0  0  0  0  0
   16.3038  -22.1980  -17.6608 C   0  0  0  0  0  0  0  0  0  0  0  0
   15.6392  -23.5295  -17.8097 C   0  0  0  0  0  0  0  0  0  0  0  0
   14.8888  -23.7776  -16.5694 N   0  0  0  0  0  0  0  0  0  0  0  0
   18.5384  -18.3367  -19.7154 C   0  0  0  0  0  0  0  0  0  0  0  0
   19.5454  -17.7927  -19.1883 O   0  0  0  0  0  0  0  0  0  0  0  0
   17.5642  -17.4302  -20.2198 N   0  0  0  0  0  0  0  0  0  0  0  0
   17.7272  -15.9959  -20.1724 C   0  0  1  0  0  0  0  0  0  0  0  0
   16.9607  -15.3373  -21.2728 C   0  0  0  0  0  0  0  0  0  0  0  0
   17.1270  -13.8645  -21.3912 C   0  0  0  0  0  0  0  0  0  0  0  0
   16.2968  -13.2630  -22.4600 C   0  0  0  0  0  0  0  0  0  0  0  0
   15.3456  -13.8784  -23.0020 O   0  0  0  0  0  0  0  0  0  0  0  0
   17.1734  -15.4798  -18.8914 C   0  0  0  0  0  0  0  0  0  0  0  0
   16.6271  -16.2910  -17.9231 O   0  0  0  0  0  0  0  0  0  0  0  0
   16.5551  -11.9741  -22.9002 O   0  0  0  0  0  0  0  0  0  0  0  0
   17.2020  -14.2469  -18.6757 O   0  0  0  0  0  0  0  0  0  0  0  0
  2  1  1  6
  2  3  1  0
  4  5  2  0
  4  2  1  0
  6  4  1  0
  7  6  1  0
  7  8  1  1
  9 10  1  0
  9  8  1  0
 10 11  1  0
 11 12  1  0
 13  7  1  0
 13 15  1  0
 14 13  2  0
 16 15  1  0
 16 21  1  0
 16 17  1  6
 18 17  1  0
 19 20  2  0
 19 18  1  0
 21 24  2  0
 21 22  1  0
 23 19  1  0
M  END
$$$$
