AKE.pdb
     RDKit          3D

 24 23  0  0  1  0  0  0  0  0999 V2000
   26.9007  -10.6719  -14.8137 C   0  0  0  0  0  0  0  0  0  0  0  0
   25.9229  -11.1973  -15.8373 C   0  0  2  0  0  0  0  0  0  0  0  0
   26.6117  -11.2595  -17.1181 N   0  0  0  0  0  0  0  0  0  0  0  0
   24.7436  -10.3074  -15.9833 C   0  0  0  0  0  0  0  0  0  0  0  0
   24.8062   -9.2248  -16.6578 O   0  0  0  0  0  0  0  0  0  0  0  0
   23.4918  -10.5855  -15.4000 N   0  0  0  0  0  0  0  0  0  0  0  0
   22.2876   -9.8472  -15.6038 C   0  0  1  0  0  0  0  0  0  0  0  0
   21.0477  -10.7034  -15.5452 C   0  0  0  0  0  0  0  0  0  0  0  0
   20.8879  -11.6275  -16.6957 C   0  0  0  0  0  0  0  0  0  0  0  0
   19.5678  -12.3524  -16.5550 C   0  0  0  0  0  0  0  0  0  0  0  0
   19.3629  -13.4338  -17.5675 C   0  0  0  0  0  0  0  0  0  0  0  0
   18.0984  -14.1052  -17.2311 N   0  0  0  0  0  0  0  0  0  0  0  0
   22.1905   -8.6101  -14.7963 C   0  0  0  0  0  0  0  0  0  0  0  0
   22.3420   -8.5665  -13.5462 O   0  0  0  0  0  0  0  0  0  0  0  0
   21.9108   -7.3564  -15.4090 N   0  0  0  0  0  0  0  0  0  0  0  0
   21.7848   -6.1274  -14.6608 C   0  0  1  0  0  0  0  0  0  0  0  0
   22.6918   -5.0752  -15.2105 C   0  0  0  0  0  0  0  0  0  0  0  0
   22.4377   -4.6666  -16.6173 C   0  0  0  0  0  0  0  0  0  0  0  0
   23.3494   -3.6013  -17.0941 C   0  0  0  0  0  0  0  0  0  0  0  0
   24.2217   -3.0800  -16.3561 O   0  0  0  0  0  0  0  0  0  0  0  0
   20.3953   -5.6115  -14.7921 C   0  0  0  0  0  0  0  0  0  0  0  0
   19.8946   -4.5852  -14.0239 O   0  0  0  0  0  0  0  0  0  0  0  0
   23.2609   -3.1414  -18.3989 O   0  0  0  0  0  0  0  0  0  0  0  0
   19.6372   -6.1316  -15.6418 O   0  0  0  0  0  0  0  0  0  0  0  0
  2  1  1  1
  2  3  1  0
  4  5  2  0
  4  2  1  0
  6  4  1  0
  7  6  1  0
  7  8  1  1
  9 10  1  0
  9  8  1  0
 10 11  1  0
 11 12  1  0
 13  7  1  0
 13 15  1  0
 14 13  2  0
 16 15  1  0
 16 21  1  0
 16 17  1  6
 18 17  1  0
 19 20  2  0
 19 18  1  0
 21 24  2  0
 21 22  1  0
 23 19  1  0
M  END
$$$$
