AKE.pdb
     RDKit          3D

 24 23  0  0  1  0  0  0  0  0999 V2000
   21.6308  -11.6212  -20.8039 C   0  0  0  0  0  0  0  0  0  0  0  0
   22.1240  -11.5462  -19.3787 C   0  0  2  0  0  0  0  0  0  0  0  0
   21.8515  -12.8287  -18.7467 N   0  0  0  0  0  0  0  0  0  0  0  0
   21.4262  -10.4870  -18.6071 C   0  0  0  0  0  0  0  0  0  0  0  0
   21.5787   -9.2502  -18.8864 O   0  0  0  0  0  0  0  0  0  0  0  0
   20.5604  -10.7621  -17.5304 N   0  0  0  0  0  0  0  0  0  0  0  0
   19.8465   -9.7967  -16.7591 C   0  0  1  0  0  0  0  0  0  0  0  0
   18.5775  -10.3405  -16.1524 C   0  0  0  0  0  0  0  0  0  0  0  0
   17.7667   -9.3323  -15.4250 C   0  0  0  0  0  0  0  0  0  0  0  0
   16.5165  -10.0031  -14.9005 C   0  0  0  0  0  0  0  0  0  0  0  0
   15.2478   -9.3664  -15.3715 C   0  0  0  0  0  0  0  0  0  0  0  0
   14.1416  -10.0513  -14.6859 N   0  0  0  0  0  0  0  0  0  0  0  0
   20.6865   -9.0461  -15.7985 C   0  0  0  0  0  0  0  0  0  0  0  0
   21.5289   -9.5786  -15.0274 O   0  0  0  0  0  0  0  0  0  0  0  0
   20.5859   -7.6308  -15.6886 N   0  0  0  0  0  0  0  0  0  0  0  0
   21.4552   -6.8449  -14.8443 C   0  0  1  0  0  0  0  0  0  0  0  0
   21.2882   -5.3863  -15.1209 C   0  0  0  0  0  0  0  0  0  0  0  0
   22.1482   -4.4701  -14.3259 C   0  0  0  0  0  0  0  0  0  0  0  0
   21.8124   -3.0397  -14.5112 C   0  0  0  0  0  0  0  0  0  0  0  0
   21.0666   -2.6366  -15.4379 O   0  0  0  0  0  0  0  0  0  0  0  0
   21.0834   -7.0597  -13.4197 C   0  0  0  0  0  0  0  0  0  0  0  0
   22.0052   -7.1261  -12.3999 O   0  0  0  0  0  0  0  0  0  0  0  0
   22.3253   -2.0861  -13.6455 O   0  0  0  0  0  0  0  0  0  0  0  0
   19.8733   -7.1875  -13.1253 O   0  0  0  0  0  0  0  0  0  0  0  0
  2  1  1  6
  2  3  1  0
  4  5  2  0
  4  2  1  0
  6  4  1  0
  7  6  1  0
  7  8  1  1
  9 10  1  0
  9  8  1  0
 10 11  1  0
 11 12  1  0
 13  7  1  0
 13 15  1  0
 14 13  2  0
 16 15  1  0
 16 21  1  0
 16 17  1  6
 18 17  1  0
 19 20  2  0
 19 18  1  0
 21 24  2  0
 21 22  1  0
 23 19  1  0
M  END
$$$$
