AKE.pdb
     RDKit          3D

 24 23  0  0  1  0  0  0  0  0999 V2000
   22.6884  -14.1945  -18.4219 C   0  0  0  0  0  0  0  0  0  0  0  0
   23.7595  -15.2165  -18.1252 C   0  0  2  0  0  0  0  0  0  0  0  0
   24.3857  -15.5823  -19.3873 N   0  0  0  0  0  0  0  0  0  0  0  0
   23.1968  -16.4445  -17.5092 C   0  0  0  0  0  0  0  0  0  0  0  0
   21.9869  -16.7979  -17.7150 O   0  0  0  0  0  0  0  0  0  0  0  0
   23.9410  -17.2950  -16.6681 N   0  0  0  0  0  0  0  0  0  0  0  0
   23.5029  -18.5456  -16.1384 C   0  0  1  0  0  0  0  0  0  0  0  0
   24.6367  -19.4910  -15.8302 C   0  0  0  0  0  0  0  0  0  0  0  0
   24.8646  -20.5303  -16.8651 C   0  0  0  0  0  0  0  0  0  0  0  0
   25.9799  -21.4402  -16.4003 C   0  0  0  0  0  0  0  0  0  0  0  0
   26.4750  -22.3754  -17.4572 C   0  0  0  0  0  0  0  0  0  0  0  0
   27.6507  -23.0655  -16.9056 N   0  0  0  0  0  0  0  0  0  0  0  0
   22.5167  -18.4274  -15.0407 C   0  0  0  0  0  0  0  0  0  0  0  0
   22.7170  -17.7863  -13.9745 O   0  0  0  0  0  0  0  0  0  0  0  0
   21.2420  -19.0537  -15.1316 N   0  0  0  0  0  0  0  0  0  0  0  0
   20.2460  -18.9622  -14.0896 C   0  0  1  0  0  0  0  0  0  0  0  0
   19.1692  -17.9978  -14.4669 C   0  0  0  0  0  0  0  0  0  0  0  0
   18.0423  -17.8711  -13.5052 C   0  0  0  0  0  0  0  0  0  0  0  0
   16.9800  -16.9461  -13.9626 C   0  0  0  0  0  0  0  0  0  0  0  0
   16.6249  -16.8686  -15.1647 O   0  0  0  0  0  0  0  0  0  0  0  0
   19.5954  -20.2886  -13.9129 C   0  0  0  0  0  0  0  0  0  0  0  0
   18.9252  -20.6550  -12.7680 O   0  0  0  0  0  0  0  0  0  0  0  0
   16.3350  -16.1221  -13.0532 O   0  0  0  0  0  0  0  0  0  0  0  0
   19.6560  -21.1189  -14.8479 O   0  0  0  0  0  0  0  0  0  0  0  0
  2  1  1  6
  2  3  1  0
  4  5  2  0
  4  2  1  0
  6  4  1  0
  7  6  1  0
  7  8  1  1
  9 10  1  0
  9  8  1  0
 10 11  1  0
 11 12  1  0
 13  7  1  0
 13 15  1  0
 14 13  2  0
 16 15  1  0
 16 21  1  0
 16 17  1  6
 18 17  1  0
 19 20  2  0
 19 18  1  0
 21 24  2  0
 21 22  1  0
 23 19  1  0
M  END
$$$$
