AKE.pdb
     RDKit          3D

 24 23  0  0  1  0  0  0  0  0999 V2000
   28.8655  -22.1492  -17.5509 C   0  0  0  0  0  0  0  0  0  0  0  0
   29.4990  -23.4531  -17.1284 C   0  0  2  0  0  0  0  0  0  0  0  0
   30.8344  -23.5051  -17.7052 N   0  0  0  0  0  0  0  0  0  0  0  0
   28.7316  -24.6254  -17.6193 C   0  0  0  0  0  0  0  0  0  0  0  0
   28.2509  -24.6582  -18.8020 O   0  0  0  0  0  0  0  0  0  0  0  0
   28.4815  -25.7668  -16.8324 N   0  0  0  0  0  0  0  0  0  0  0  0
   27.7877  -26.9410  -17.2525 C   0  0  1  0  0  0  0  0  0  0  0  0
   28.6368  -28.1859  -17.1958 C   0  0  0  0  0  0  0  0  0  0  0  0
   29.6559  -28.2805  -18.2708 C   0  0  0  0  0  0  0  0  0  0  0  0
   30.4510  -29.5520  -18.0739 C   0  0  0  0  0  0  0  0  0  0  0  0
   31.5822  -29.7113  -19.0392 C   0  0  0  0  0  0  0  0  0  0  0  0
   32.3562  -30.8845  -18.6063 N   0  0  0  0  0  0  0  0  0  0  0  0
   26.4513  -27.1084  -16.6382 C   0  0  0  0  0  0  0  0  0  0  0  0
   26.2030  -26.9137  -15.4183 O   0  0  0  0  0  0  0  0  0  0  0  0
   25.3324  -27.5129  -17.4191 N   0  0  0  0  0  0  0  0  0  0  0  0
   23.9991  -27.6343  -16.8771 C   0  0  1  0  0  0  0  0  0  0  0  0
   23.0035  -26.9511  -17.7568 C   0  0  0  0  0  0  0  0  0  0  0  0
   21.6021  -26.9303  -17.2604 C   0  0  0  0  0  0  0  0  0  0  0  0
   20.6630  -26.2462  -18.1788 C   0  0  0  0  0  0  0  0  0  0  0  0
   20.2769  -26.7629  -19.2565 O   0  0  0  0  0  0  0  0  0  0  0  0
   23.6171  -29.0715  -16.8275 C   0  0  0  0  0  0  0  0  0  0  0  0
   24.2910  -30.0566  -17.5128 O   0  0  0  0  0  0  0  0  0  0  0  0
   20.1744  -24.9874  -17.8646 O   0  0  0  0  0  0  0  0  0  0  0  0
   22.6345  -29.4102  -16.1296 O   0  0  0  0  0  0  0  0  0  0  0  0
  2  1  1  6
  2  3  1  0
  4  5  2  0
  4  2  1  0
  6  4  1  0
  7  6  1  0
  7  8  1  1
  9 10  1  0
  9  8  1  0
 10 11  1  0
 11 12  1  0
 13  7  1  0
 13 15  1  0
 14 13  2  0
 16 15  1  0
 16 21  1  0
 16 17  1  6
 18 17  1  0
 19 20  2  0
 19 18  1  0
 21 24  2  0
 21 22  1  0
 23 19  1  0
M  END
$$$$
