AKE.pdb
     RDKit          3D

 24 23  0  0  1  0  0  0  0  0999 V2000
   19.5691  -12.5608  -18.9960 C   0  0  0  0  0  0  0  0  0  0  0  0
   20.3761  -12.2186  -17.7665 C   0  0  2  0  0  0  0  0  0  0  0  0
   19.9675  -13.1229  -16.7016 N   0  0  0  0  0  0  0  0  0  0  0  0
   20.1330  -10.8252  -17.3156 C   0  0  0  0  0  0  0  0  0  0  0  0
   20.5334   -9.8246  -18.0009 O   0  0  0  0  0  0  0  0  0  0  0  0
   19.4557  -10.5090  -16.1216 N   0  0  0  0  0  0  0  0  0  0  0  0
   19.0805   -9.2015  -15.6898 C   0  0  1  0  0  0  0  0  0  0  0  0
   17.9109   -9.2022  -14.7379 C   0  0  0  0  0  0  0  0  0  0  0  0
   16.6015   -9.4822  -15.3783 C   0  0  0  0  0  0  0  0  0  0  0  0
   15.5285   -9.4705  -14.3123 C   0  0  0  0  0  0  0  0  0  0  0  0
   14.1432   -9.6420  -14.8493 C   0  0  0  0  0  0  0  0  0  0  0  0
   13.2268   -9.5963  -13.6999 N   0  0  0  0  0  0  0  0  0  0  0  0
   20.2134   -8.3648  -15.2337 C   0  0  0  0  0  0  0  0  0  0  0  0
   21.1517   -8.7806  -14.5026 O   0  0  0  0  0  0  0  0  0  0  0  0
   20.3094   -6.9954  -15.6090 N   0  0  0  0  0  0  0  0  0  0  0  0
   21.3858   -6.1358  -15.1749 C   0  0  1  0  0  0  0  0  0  0  0  0
   21.5584   -4.9855  -16.1125 C   0  0  0  0  0  0  0  0  0  0  0  0
   22.6617   -4.0423  -15.7899 C   0  0  0  0  0  0  0  0  0  0  0  0
   22.7380   -2.8881  -16.7147 C   0  0  0  0  0  0  0  0  0  0  0  0
   22.0057   -2.7880  -17.7301 O   0  0  0  0  0  0  0  0  0  0  0  0
   21.0507   -5.5615  -13.8438 C   0  0  0  0  0  0  0  0  0  0  0  0
   22.0010   -5.1907  -12.9198 O   0  0  0  0  0  0  0  0  0  0  0  0
   23.6418   -1.8641  -16.4774 O   0  0  0  0  0  0  0  0  0  0  0  0
   19.8461   -5.4043  -13.5413 O   0  0  0  0  0  0  0  0  0  0  0  0
  2  1  1  6
  2  3  1  0
  4  5  2  0
  4  2  1  0
  6  4  1  0
  7  6  1  0
  7  8  1  1
  9 10  1  0
  9  8  1  0
 10 11  1  0
 11 12  1  0
 13  7  1  0
 13 15  1  0
 14 13  2  0
 16 15  1  0
 16 21  1  0
 16 17  1  6
 18 17  1  0
 19 20  2  0
 19 18  1  0
 21 24  2  0
 21 22  1  0
 23 19  1  0
M  END
$$$$
