QMH.pdb
     RDKit          3D

 28 28  0  0  1  0  0  0  0  0999 V2000
   16.4895  -15.9061  -17.9164 N   0  0  0  0  0  0  0  0  0  0  0  0
   17.5683  -16.2141  -18.8280 C   0  0  0  0  0  0  0  0  0  0  0  0
   17.3075  -17.0838  -19.6912 O   0  0  0  0  0  0  0  0  0  0  0  0
   18.8519  -15.5153  -18.6859 C   0  0  0  0  0  0  0  0  0  0  0  0
   18.9638  -14.5093  -17.6136 C   0  0  0  0  0  0  0  0  0  0  0  0
   18.9620  -13.0823  -18.0392 C   0  0  2  0  0  0  0  0  0  0  0  0
   19.4938  -12.8521  -19.3506 N   0  0  0  0  0  0  0  0  0  0  0  0
   19.7675  -12.2603  -17.0724 C   0  0  0  0  0  0  0  0  0  0  0  0
   19.5965  -12.4321  -15.8465 O   0  0  0  0  0  0  0  0  0  0  0  0
   26.1885   -9.5446  -14.8632 C   0  0  0  0  0  0  0  0  0  0  0  0
   25.0938  -10.3405  -16.0695 S   0  0  0  0  0  0  0  0  0  0  0  0
   23.7313   -9.1999  -16.5367 C   0  0  0  0  0  0  0  0  0  0  0  0
   22.7434   -9.9901  -17.3407 C   0  0  0  0  0  0  0  0  0  0  0  0
   21.5654  -10.5261  -16.5955 C   0  0  2  0  0  0  0  0  0  0  0  0
   20.7084  -11.3030  -17.5078 N   0  0  0  0  0  0  0  0  0  0  0  0
   20.7525   -9.5352  -15.8732 C   0  0  0  0  0  0  0  0  0  0  0  0
   19.9290   -8.8279  -16.5553 O   0  0  0  0  0  0  0  0  0  0  0  0
   20.7680   -9.2688  -14.4951 N   0  0  0  0  0  0  0  0  0  0  0  0
   19.8390   -8.2471  -13.9122 C   0  0  1  0  0  0  0  0  0  0  0  0
   19.2107   -8.9549  -12.7545 C   0  0  0  0  0  0  0  0  0  0  0  0
   18.4371   -8.0982  -11.8395 C   0  0  0  0  0  0  0  0  0  0  0  0
   18.1820   -6.7337  -11.9842 C   0  0  0  0  0  0  0  0  0  0  0  0
   17.4520   -6.3486  -10.9470 N   0  0  0  0  0  0  0  0  0  0  0  0
   17.2357   -7.3993  -10.1595 C   0  0  0  0  0  0  0  0  0  0  0  0
   17.8324   -8.4517  -10.7033 N   0  0  0  0  0  0  0  0  0  0  0  0
   20.6227   -7.0715  -13.5189 C   0  0  0  0  0  0  0  0  0  0  0  0
   20.0383   -5.8265  -13.4275 O   0  0  0  0  0  0  0  0  0  0  0  0
   21.8331   -7.1596  -13.2568 O   0  0  0  0  0  0  0  0  0  0  0  0
  2  1  1  0
  2  3  2  0
  4  2  1  0
  5  4  1  0
  5  6  1  0
  6  7  1  6
  8  6  1  0
  8  9  2  0
 10 11  1  0
 11 12  1  0
 14 13  1  6
 13 12  1  0
 14 15  1  0
 15  8  1  0
 16 14  1  0
 17 16  2  0
 18 16  1  0
 19 18  1  0
 19 20  1  1
 20 21  1  0
 21 25  1  0
 21 22  2  0
 22 23  1  0
 24 23  1  0
 25 24  2  0
 26 19  1  0
 27 26  1  0
 28 26  2  0
M  END
$$$$
