QMH.pdb
     RDKit          3D

 28 28  0  0  1  0  0  0  0  0999 V2000
   27.2419  -21.4788  -18.1906 N   0  0  0  0  0  0  0  0  0  0  0  0
   27.9820  -22.5353  -18.8430 C   0  0  0  0  0  0  0  0  0  0  0  0
   28.1088  -22.4127  -20.0833 O   0  0  0  0  0  0  0  0  0  0  0  0
   28.5145  -23.6430  -18.0394 C   0  0  0  0  0  0  0  0  0  0  0  0
   27.9040  -24.9725  -18.2243 C   0  0  0  0  0  0  0  0  0  0  0  0
   27.0766  -25.4858  -17.0976 C   0  0  2  0  0  0  0  0  0  0  0  0
   27.7674  -25.5735  -15.8443 N   0  0  0  0  0  0  0  0  0  0  0  0
   26.5597  -26.8581  -17.4277 C   0  0  0  0  0  0  0  0  0  0  0  0
   25.9046  -27.0187  -18.4796 O   0  0  0  0  0  0  0  0  0  0  0  0
   29.9847  -32.0787  -16.5473 C   0  0  0  0  0  0  0  0  0  0  0  0
   28.4140  -32.7552  -15.9454 S   0  0  0  0  0  0  0  0  0  0  0  0
   27.0083  -31.7693  -16.5994 C   0  0  0  0  0  0  0  0  0  0  0  0
   27.3324  -30.3238  -16.3711 C   0  0  0  0  0  0  0  0  0  0  0  0
   26.3435  -29.3355  -16.8960 C   0  0  2  0  0  0  0  0  0  0  0  0
   26.7923  -27.9669  -16.5865 N   0  0  0  0  0  0  0  0  0  0  0  0
   24.9526  -29.5149  -16.4512 C   0  0  0  0  0  0  0  0  0  0  0  0
   24.7102  -29.4153  -15.1961 O   0  0  0  0  0  0  0  0  0  0  0  0
   23.8337  -29.7837  -17.2550 N   0  0  0  0  0  0  0  0  0  0  0  0
   22.4644  -29.8447  -16.6486 C   0  0  1  0  0  0  0  0  0  0  0  0
   21.7148  -28.7570  -17.3492 C   0  0  0  0  0  0  0  0  0  0  0  0
   21.9368  -27.4001  -16.8205 C   0  0  0  0  0  0  0  0  0  0  0  0
   22.7665  -27.0407  -15.7573 C   0  0  0  0  0  0  0  0  0  0  0  0
   22.6806  -25.7266  -15.6062 N   0  0  0  0  0  0  0  0  0  0  0  0
   21.8409  -25.2429  -16.5183 C   0  0  0  0  0  0  0  0  0  0  0  0
   21.3956  -26.2572  -17.2478 N   0  0  0  0  0  0  0  0  0  0  0  0
   21.9065  -31.1804  -16.8846 C   0  0  0  0  0  0  0  0  0  0  0  0
   20.9325  -31.6993  -16.0587 O   0  0  0  0  0  0  0  0  0  0  0  0
   22.2922  -31.8839  -17.8321 O   0  0  0  0  0  0  0  0  0  0  0  0
  2  1  1  0
  2  3  2  0
  4  2  1  0
  5  4  1  0
  5  6  1  0
  6  7  1  1
  8  6  1  0
  8  9  2  0
 10 11  1  0
 11 12  1  0
 14 13  1  1
 13 12  1  0
 14 15  1  0
 15  8  1  0
 16 14  1  0
 17 16  2  0
 18 16  1  0
 19 18  1  0
 19 20  1  6
 20 21  1  0
 21 25  1  0
 21 22  2  0
 22 23  1  0
 24 23  1  0
 25 24  2  0
 26 19  1  0
 27 26  1  0
 28 26  2  0
M  END
$$$$
