QMH.pdb
     RDKit          3D

 28 28  0  0  1  0  0  0  0  0999 V2000
   20.1916  -18.0664  -15.0169 N   0  0  0  0  0  0  0  0  0  0  0  0
   20.3641  -18.1044  -16.4516 C   0  0  0  0  0  0  0  0  0  0  0  0
   20.2458  -19.2365  -16.9749 O   0  0  0  0  0  0  0  0  0  0  0  0
   20.6584  -16.8603  -17.1740 C   0  0  0  0  0  0  0  0  0  0  0  0
   20.7412  -15.6180  -16.3839 C   0  0  0  0  0  0  0  0  0  0  0  0
   21.0440  -14.3703  -17.1382 C   0  0  2  0  0  0  0  0  0  0  0  0
   21.8924  -14.5561  -18.2790 N   0  0  0  0  0  0  0  0  0  0  0  0
   21.7140  -13.3758  -16.2319 C   0  0  0  0  0  0  0  0  0  0  0  0
   21.1773  -13.1004  -15.1375 O   0  0  0  0  0  0  0  0  0  0  0  0
   28.0303  -11.2710  -16.0880 C   0  0  0  0  0  0  0  0  0  0  0  0
   27.5020  -12.9505  -15.6550 S   0  0  0  0  0  0  0  0  0  0  0  0
   25.7301  -12.9509  -15.1691 C   0  0  0  0  0  0  0  0  0  0  0  0
   25.0668  -11.8222  -15.8990 C   0  0  0  0  0  0  0  0  0  0  0  0
   23.5842  -11.7215  -15.7498 C   0  0  2  0  0  0  0  0  0  0  0  0
   22.9278  -12.7461  -16.5802 N   0  0  0  0  0  0  0  0  0  0  0  0
   22.9950  -10.4027  -16.0294 C   0  0  0  0  0  0  0  0  0  0  0  0
   22.7736  -10.0959  -17.2545 O   0  0  0  0  0  0  0  0  0  0  0  0
   22.6339   -9.4202  -15.0942 N   0  0  0  0  0  0  0  0  0  0  0  0
   21.9697   -8.1547  -15.5456 C   0  0  1  0  0  0  0  0  0  0  0  0
   20.6957   -8.6239  -16.1722 C   0  0  0  0  0  0  0  0  0  0  0  0
   19.7923   -7.5559  -16.6337 C   0  0  0  0  0  0  0  0  0  0  0  0
   20.1588   -6.3456  -17.2241 C   0  0  0  0  0  0  0  0  0  0  0  0
   19.0471   -5.6738  -17.4884 N   0  0  0  0  0  0  0  0  0  0  0  0
   18.0028   -6.3986  -17.0949 C   0  0  0  0  0  0  0  0  0  0  0  0
   18.4588   -7.5329  -16.5802 N   0  0  0  0  0  0  0  0  0  0  0  0
   21.7601   -7.2930  -14.3774 C   0  0  0  0  0  0  0  0  0  0  0  0
   21.5178   -5.9441  -14.5243 O   0  0  0  0  0  0  0  0  0  0  0  0
   21.7943   -7.7492  -13.2232 O   0  0  0  0  0  0  0  0  0  0  0  0
  2  1  1  0
  2  3  2  0
  4  2  1  0
  5  4  1  0
  5  6  1  0
  6  7  1  6
  8  6  1  0
  8  9  2  0
 10 11  1  0
 11 12  1  0
 14 13  1  6
 13 12  1  0
 14 15  1  0
 15  8  1  0
 16 14  1  0
 17 16  2  0
 18 16  1  0
 19 18  1  0
 19 20  1  1
 20 21  1  0
 21 25  1  0
 21 22  2  0
 22 23  1  0
 24 23  1  0
 25 24  2  0
 26 19  1  0
 27 26  1  0
 28 26  2  0
M  END
$$$$
