QMH.pdb
     RDKit          3D

 28 28  0  0  1  0  0  0  0  0999 V2000
   30.2895  -21.9334  -16.5047 N   0  0  0  0  0  0  0  0  0  0  0  0
   29.0816  -21.9483  -17.2987 C   0  0  0  0  0  0  0  0  0  0  0  0
   29.2547  -21.8787  -18.5375 O   0  0  0  0  0  0  0  0  0  0  0  0
   27.7795  -22.0380  -16.6259 C   0  0  0  0  0  0  0  0  0  0  0  0
   27.7730  -22.0220  -15.1514 C   0  0  0  0  0  0  0  0  0  0  0  0
   27.1692  -20.8251  -14.5030 C   0  0  2  0  0  0  0  0  0  0  0  0
   28.0826  -19.7414  -14.2867 N   0  0  0  0  0  0  0  0  0  0  0  0
   26.5914  -21.2047  -13.1683 C   0  0  0  0  0  0  0  0  0  0  0  0
   25.8178  -22.1838  -13.1026 O   0  0  0  0  0  0  0  0  0  0  0  0
   27.5155  -20.1141   -5.3349 C   0  0  0  0  0  0  0  0  0  0  0  0
   28.0021  -19.8458   -7.0607 S   0  0  0  0  0  0  0  0  0  0  0  0
   26.6886  -20.4568   -8.1909 C   0  0  0  0  0  0  0  0  0  0  0  0
   27.2204  -20.3571   -9.5887 C   0  0  0  0  0  0  0  0  0  0  0  0
   26.2913  -20.7786  -10.6792 C   0  0  2  0  0  0  0  0  0  0  0  0
   26.8964  -20.4892  -11.9908 N   0  0  0  0  0  0  0  0  0  0  0  0
   24.9328  -20.2163  -10.6237 C   0  0  0  0  0  0  0  0  0  0  0  0
   24.6921  -19.1682  -11.3218 O   0  0  0  0  0  0  0  0  0  0  0  0
   23.8434  -20.7038   -9.8848 N   0  0  0  0  0  0  0  0  0  0  0  0
   22.4482  -20.5659  -10.4149 C   0  0  1  0  0  0  0  0  0  0  0  0
   22.4479  -21.4162  -11.6449 C   0  0  0  0  0  0  0  0  0  0  0  0
   22.2362  -20.6911  -12.9095 C   0  0  0  0  0  0  0  0  0  0  0  0
   21.9784  -19.3278  -13.0605 C   0  0  0  0  0  0  0  0  0  0  0  0
   21.8525  -19.0832  -14.3572 N   0  0  0  0  0  0  0  0  0  0  0  0
   22.0176  -20.2210  -15.0274 C   0  0  0  0  0  0  0  0  0  0  0  0
   22.2487  -21.1872  -14.1486 N   0  0  0  0  0  0  0  0  0  0  0  0
   21.5089  -21.0286   -9.3881 C   0  0  0  0  0  0  0  0  0  0  0  0
   21.8857  -21.9681   -8.4524 O   0  0  0  0  0  0  0  0  0  0  0  0
   20.3486  -20.5908   -9.3289 O   0  0  0  0  0  0  0  0  0  0  0  0
  2  1  1  0
  2  3  2  0
  4  2  1  0
  5  4  1  0
  5  6  1  0
  6  7  1  1
  8  6  1  0
  8  9  2  0
 10 11  1  0
 11 12  1  0
 14 13  1  1
 13 12  1  0
 14 15  1  0
 15  8  1  0
 16 14  1  0
 17 16  2  0
 18 16  1  0
 19 18  1  0
 19 20  1  6
 20 21  1  0
 21 25  1  0
 21 22  2  0
 22 23  1  0
 24 23  1  0
 25 24  2  0
 26 19  1  0
 27 26  1  0
 28 26  2  0
M  END
$$$$
