ATM.pdb
     RDKit          3D

 21 20  0  0  1  0  0  0  0  0999 V2000
   25.0814  -12.6291  -15.3862 C   0  0  0  0  0  0  0  0  0  0  0  0
   23.7282  -12.9609  -15.9788 C   0  0  2  0  0  0  0  0  0  0  0  0
   23.9312  -13.8251  -17.1125 N   0  0  0  0  0  0  0  0  0  0  0  0
   22.9940  -11.7210  -16.3500 C   0  0  0  0  0  0  0  0  0  0  0  0
   23.2310  -11.1314  -17.4370 O   0  0  0  0  0  0  0  0  0  0  0  0
   19.1739   -8.6528  -15.8164 C   0  0  0  0  0  0  0  0  0  0  0  0
   19.9000   -9.9117  -15.3895 C   0  0  1  0  0  0  0  0  0  0  0  0
   19.2449  -10.9883  -16.0066 O   0  0  0  0  0  0  0  0  0  0  0  0
   21.3391   -9.8854  -15.8748 C   0  0  2  0  0  0  0  0  0  0  0  0
   21.9956  -11.1284  -15.5206 N   0  0  0  0  0  0  0  0  0  0  0  0
   22.0579   -8.7086  -15.3256 C   0  0  0  0  0  0  0  0  0  0  0  0
   22.2983   -8.6718  -14.1077 O   0  0  0  0  0  0  0  0  0  0  0  0
   26.4848   -2.3097  -17.0434 C   0  0  0  0  0  0  0  0  0  0  0  0
   25.3825   -3.6080  -17.7096 S   0  0  0  0  0  0  0  0  0  0  0  0
   24.6737   -4.5904  -16.3608 C   0  0  0  0  0  0  0  0  0  0  0  0
   23.8192   -5.7196  -16.8412 C   0  0  0  0  0  0  0  0  0  0  0  0
   23.2173   -6.4979  -15.7018 C   0  0  2  0  0  0  0  0  0  0  0  0
   22.4763   -7.6356  -16.1316 N   0  0  0  0  0  0  0  0  0  0  0  0
   22.4163   -5.7095  -14.7696 C   0  0  0  0  0  0  0  0  0  0  0  0
   21.2047   -5.3979  -14.9302 O   0  0  0  0  0  0  0  0  0  0  0  0
   22.9958   -5.2446  -13.5977 O   0  0  0  0  0  0  0  0  0  0  0  0
  2  3  1  0
  2  1  1  6
  4  2  1  0
  5  4  2  0
  7  6  1  6
  7  8  1  0
  7  9  1  0
  9 11  1  0
  9 10  1  1
 10  4  1  0
 11 18  1  0
 12 11  2  0
 13 14  1  0
 15 14  1  0
 16 15  1  0
 17 16  1  6
 18 17  1  0
 19 21  1  0
 19 17  1  0
 20 19  2  0
M  END
$$$$
