ATM.pdb
     RDKit          3D

 21 20  0  0  1  0  0  0  0  0999 V2000
   27.6034  -24.8019  -17.0972 C   0  0  0  0  0  0  0  0  0  0  0  0
   28.5374  -23.6372  -17.3492 C   0  0  2  0  0  0  0  0  0  0  0  0
   29.8791  -24.1489  -17.4556 N   0  0  0  0  0  0  0  0  0  0  0  0
   28.4155  -22.6178  -16.2721 C   0  0  0  0  0  0  0  0  0  0  0  0
   29.2527  -22.5676  -15.3330 O   0  0  0  0  0  0  0  0  0  0  0  0
   26.7846  -18.2487  -14.7220 C   0  0  0  0  0  0  0  0  0  0  0  0
   26.8699  -19.3156  -15.7939 C   0  0  1  0  0  0  0  0  0  0  0  0
   27.8628  -18.9064  -16.6971 O   0  0  0  0  0  0  0  0  0  0  0  0
   27.2912  -20.6437  -15.1890 C   0  0  2  0  0  0  0  0  0  0  0  0
   27.3674  -21.6506  -16.2292 N   0  0  0  0  0  0  0  0  0  0  0  0
   26.3625  -21.0452  -14.1029 C   0  0  0  0  0  0  0  0  0  0  0  0
   25.3120  -21.6351  -14.4044 O   0  0  0  0  0  0  0  0  0  0  0  0
   27.8484  -20.0885   -7.6839 C   0  0  0  0  0  0  0  0  0  0  0  0
   26.0470  -20.3878   -7.5836 S   0  0  0  0  0  0  0  0  0  0  0  0
   25.4033  -20.9226   -9.1919 C   0  0  0  0  0  0  0  0  0  0  0  0
   26.3148  -20.5918  -10.3302 C   0  0  0  0  0  0  0  0  0  0  0  0
   25.7519  -21.0372  -11.6535 C   0  0  2  0  0  0  0  0  0  0  0  0
   26.6274  -20.7830  -12.7476 N   0  0  0  0  0  0  0  0  0  0  0  0
   24.4174  -20.5299  -11.9599 C   0  0  0  0  0  0  0  0  0  0  0  0
   24.1625  -19.4008  -12.4607 O   0  0  0  0  0  0  0  0  0  0  0  0
   23.3098  -21.3224  -11.6945 O   0  0  0  0  0  0  0  0  0  0  0  0
  2  3  1  0
  2  1  1  1
  4  2  1  0
  5  4  2  0
  7  6  1  1
  7  8  1  0
  7  9  1  0
  9 11  1  0
  9 10  1  6
 10  4  1  0
 11 18  1  0
 12 11  2  0
 13 14  1  0
 15 14  1  0
 16 15  1  0
 17 16  1  1
 18 17  1  0
 19 21  1  0
 19 17  1  0
 20 19  2  0
M  END
$$$$
