ATM.pdb
     RDKit          3D

 21 20  0  0  1  0  0  0  0  0999 V2000
43093.1836-2319.857223616.2832 C   0  0  0  0  0  0  0  0  0  0  0  0
43092.4023-2320.603023615.2246 C   0  0  2  0  0  0  0  0  0  0  0  0
43092.9609-2321.932623615.1172 N   0  0  0  0  0  0  0  0  0  0  0  0
43092.4492-2319.880623613.9297 C   0  0  0  0  0  0  0  0  0  0  0  0
43091.4258-2319.855723613.1973 O   0  0  0  0  0  0  0  0  0  0  0  0
43093.0273-2317.292223610.3242 C   0  0  0  0  0  0  0  0  0  0  0  0
43093.5234-2317.454823611.7402 C   0  0  1  0  0  0  0  0  0  0  0  0
43092.4922-2317.026123612.5820 O   0  0  0  0  0  0  0  0  0  0  0  0
43093.8047-2318.923123612.0430 C   0  0  2  0  0  0  0  0  0  0  0  0
43093.5859-2319.170723613.4492 N   0  0  0  0  0  0  0  0  0  0  0  0
43095.1953-2319.286623611.6445 C   0  0  0  0  0  0  0  0  0  0  0  0
43096.1172-2318.553023611.9824 O   0  0  0  0  0  0  0  0  0  0  0  0
43097.7227-2324.766423611.8066 C   0  0  0  0  0  0  0  0  0  0  0  0
43097.2930-2323.604523610.4844 S   0  0  0  0  0  0  0  0  0  0  0  0
43095.5234-2323.213423610.5293 C   0  0  0  0  0  0  0  0  0  0  0  0
43095.0938-2322.345523609.3828 C   0  0  0  0  0  0  0  0  0  0  0  0
43094.6406-2320.983423609.8457 C   0  0  2  0  0  0  0  0  0  0  0  0
43095.4688-2320.434623610.8672 N   0  0  0  0  0  0  0  0  0  0  0  0
43093.2305-2320.898923610.2539 C   0  0  0  0  0  0  0  0  0  0  0  0
43092.3008-2321.623023609.7871 O   0  0  0  0  0  0  0  0  0  0  0  0
43092.8633-2319.990723611.2305 O   0  0  0  0  0  0  0  0  0  0  0  0
  2  3  1  0
  2  1  1  1
  4  2  1  0
  5  4  2  0
  7  6  1  6
  7  8  1  0
  7  9  1  0
  9 11  1  0
  9 10  1  1
 10  4  1  0
 11 18  1  0
 12 11  2  0
 13 14  1  0
 15 14  1  0
 16 15  1  0
 17 16  1  1
 18 17  1  0
 19 21  1  0
 19 17  1  0
 20 19  2  0
M  END
$$$$
