ATM.pdb
     RDKit          3D

 21 20  0  0  1  0  0  0  0  0999 V2000
   16.5076  -14.2401  -14.2117 C   0  0  0  0  0  0  0  0  0  0  0  0
   15.9647  -13.3444  -15.3050 C   0  0  2  0  0  0  0  0  0  0  0  0
   15.2270  -14.1611  -16.2335 N   0  0  0  0  0  0  0  0  0  0  0  0
   17.0649  -12.5985  -15.9739 C   0  0  0  0  0  0  0  0  0  0  0  0
   17.8926  -13.1940  -16.7125 O   0  0  0  0  0  0  0  0  0  0  0  0
   16.6526   -9.7035  -18.3144 C   0  0  0  0  0  0  0  0  0  0  0  0
   17.6361   -9.2627  -17.2501 C   0  0  1  0  0  0  0  0  0  0  0  0
   16.9030   -8.5507  -16.2886 O   0  0  0  0  0  0  0  0  0  0  0  0
   18.2649  -10.4696  -16.5754 C   0  0  2  0  0  0  0  0  0  0  0  0
   17.2541  -11.1918  -15.8282 N   0  0  0  0  0  0  0  0  0  0  0  0
   19.3980  -10.0572  -15.7097 C   0  0  0  0  0  0  0  0  0  0  0  0
   19.1714   -9.7898  -14.5182 O   0  0  0  0  0  0  0  0  0  0  0  0
   26.9486  -10.9287  -14.4089 C   0  0  0  0  0  0  0  0  0  0  0  0
   25.8973  -10.3373  -15.7834 S   0  0  0  0  0  0  0  0  0  0  0  0
   24.3232   -9.7005  -15.1481 C   0  0  0  0  0  0  0  0  0  0  0  0
   23.1512  -10.0732  -15.9986 C   0  0  0  0  0  0  0  0  0  0  0  0
   21.8559   -9.5501  -15.4375 C   0  0  2  0  0  0  0  0  0  0  0  0
   20.7162   -9.9583  -16.1876 N   0  0  0  0  0  0  0  0  0  0  0  0
   21.8142   -8.1067  -15.2208 C   0  0  0  0  0  0  0  0  0  0  0  0
   21.4971   -7.2470  -16.0875 O   0  0  0  0  0  0  0  0  0  0  0  0
   22.1427   -7.5952  -13.9736 O   0  0  0  0  0  0  0  0  0  0  0  0
  2  3  1  0
  2  1  1  1
  4  2  1  0
  5  4  2  0
  7  6  1  6
  7  8  1  0
  7  9  1  0
  9 11  1  0
  9 10  1  1
 10  4  1  0
 11 18  1  0
 12 11  2  0
 13 14  1  0
 15 14  1  0
 16 15  1  0
 17 16  1  6
 18 17  1  0
 19 21  1  0
 19 17  1  0
 20 19  2  0
M  END
$$$$
