ATM.pdb
     RDKit          3D

 21 20  0  0  1  0  0  0  0  0999 V2000
   16.5706   -9.7728  -17.5707 C   0  0  0  0  0  0  0  0  0  0  0  0
   17.7458  -10.6730  -17.2532 C   0  0  2  0  0  0  0  0  0  0  0  0
   17.2345  -11.9373  -16.7912 N   0  0  0  0  0  0  0  0  0  0  0  0
   18.6443  -10.0378  -16.2514 C   0  0  0  0  0  0  0  0  0  0  0  0
   18.1959   -9.6342  -15.1462 O   0  0  0  0  0  0  0  0  0  0  0  0
   22.9433  -10.1430  -16.6238 C   0  0  0  0  0  0  0  0  0  0  0  0
   22.1586  -10.1737  -15.3285 C   0  0  1  0  0  0  0  0  0  0  0  0
   22.9876   -9.6262  -14.3376 O   0  0  0  0  0  0  0  0  0  0  0  0
   20.9135   -9.3111  -15.4411 C   0  0  2  0  0  0  0  0  0  0  0  0
   20.0414   -9.8459  -16.4683 N   0  0  0  0  0  0  0  0  0  0  0  0
   21.2759   -7.8969  -15.7099 C   0  0  0  0  0  0  0  0  0  0  0  0
   21.2350   -7.4831  -16.8802 O   0  0  0  0  0  0  0  0  0  0  0  0
   20.1903   -0.7248  -16.5947 C   0  0  0  0  0  0  0  0  0  0  0  0
   19.7772   -2.5041  -16.5062 S   0  0  0  0  0  0  0  0  0  0  0  0
   21.0872   -3.4164  -15.6465 C   0  0  0  0  0  0  0  0  0  0  0  0
   20.8268   -4.8868  -15.5687 C   0  0  0  0  0  0  0  0  0  0  0  0
   21.9223   -5.6174  -14.8390 C   0  0  2  0  0  0  0  0  0  0  0  0
   21.6631   -7.0098  -14.6906 N   0  0  0  0  0  0  0  0  0  0  0  0
   22.2953   -5.0436  -13.5492 C   0  0  0  0  0  0  0  0  0  0  0  0
   22.7320   -3.8742  -13.3690 O   0  0  0  0  0  0  0  0  0  0  0  0
   22.1753   -5.8132  -12.4009 O   0  0  0  0  0  0  0  0  0  0  0  0
  2  3  1  0
  2  1  1  1
  4  2  1  0
  5  4  2  0
  7  6  1  6
  7  8  1  0
  7  9  1  0
  9 11  1  0
  9 10  1  6
 10  4  1  0
 11 18  1  0
 12 11  2  0
 13 14  1  0
 15 14  1  0
 16 15  1  0
 17 16  1  1
 18 17  1  0
 19 21  1  0
 19 17  1  0
 20 19  2  0
M  END
$$$$
