ATM.pdb
     RDKit          3D

 21 20  0  0  1  0  0  0  0  0999 V2000
   18.8725  -15.0893  -16.9901 C   0  0  0  0  0  0  0  0  0  0  0  0
   19.0392  -14.4844  -18.3680 C   0  0  2  0  0  0  0  0  0  0  0  0
   19.9187  -15.3324  -19.1301 N   0  0  0  0  0  0  0  0  0  0  0  0
   19.5528  -13.0909  -18.2763 C   0  0  0  0  0  0  0  0  0  0  0  0
   20.7862  -12.8509  -18.3569 O   0  0  0  0  0  0  0  0  0  0  0  0
   18.6188   -8.1943  -18.0209 C   0  0  0  0  0  0  0  0  0  0  0  0
   18.0858   -9.6122  -18.0338 C   0  0  1  0  0  0  0  0  0  0  0  0
   17.3924   -9.7751  -19.2427 O   0  0  0  0  0  0  0  0  0  0  0  0
   19.2305  -10.6102  -18.0003 C   0  0  2  0  0  0  0  0  0  0  0  0
   18.7048  -11.9579  -18.0946 N   0  0  0  0  0  0  0  0  0  0  0  0
   20.0534  -10.4258  -16.7787 C   0  0  0  0  0  0  0  0  0  0  0  0
   20.1877  -11.3840  -16.0001 O   0  0  0  0  0  0  0  0  0  0  0  0
   26.8589  -10.6849  -14.2319 C   0  0  0  0  0  0  0  0  0  0  0  0
   25.4969  -10.9198  -15.4295 S   0  0  0  0  0  0  0  0  0  0  0  0
   24.1108   -9.8193  -15.0359 C   0  0  0  0  0  0  0  0  0  0  0  0
   22.9366  -10.0041  -15.9432 C   0  0  0  0  0  0  0  0  0  0  0  0
   21.8239   -9.0391  -15.6319 C   0  0  2  0  0  0  0  0  0  0  0  0
   20.6856   -9.2087  -16.4708 N   0  0  0  0  0  0  0  0  0  0  0  0
   22.2144   -7.6324  -15.6067 C   0  0  0  0  0  0  0  0  0  0  0  0
   22.3076   -6.8822  -16.6162 O   0  0  0  0  0  0  0  0  0  0  0  0
   22.5164   -7.0309  -14.3934 O   0  0  0  0  0  0  0  0  0  0  0  0
  2  3  1  0
  2  1  1  1
  4  2  1  0
  5  4  2  0
  7  6  1  6
  7  8  1  0
  7  9  1  0
  9 11  1  0
  9 10  1  1
 10  4  1  0
 11 18  1  0
 12 11  2  0
 13 14  1  0
 15 14  1  0
 16 15  1  0
 17 16  1  6
 18 17  1  0
 19 21  1  0
 19 17  1  0
 20 19  2  0
M  END
$$$$
