ATM.pdb
     RDKit          3D

 21 20  0  0  1  0  0  0  0  0999 V2000
   28.3902  -17.4351  -15.1945 C   0  0  0  0  0  0  0  0  0  0  0  0
   27.8031  -18.8292  -15.1308 C   0  0  2  0  0  0  0  0  0  0  0  0
   27.1576  -19.1054  -16.3879 N   0  0  0  0  0  0  0  0  0  0  0  0
   26.8633  -18.9565  -13.9841 C   0  0  0  0  0  0  0  0  0  0  0  0
   26.1359  -17.9897  -13.6353 O   0  0  0  0  0  0  0  0  0  0  0  0
   24.0170  -20.9618  -13.8514 C   0  0  0  0  0  0  0  0  0  0  0  0
   24.7164  -21.3473  -12.5643 C   0  0  1  0  0  0  0  0  0  0  0  0
   25.4041  -22.5439  -12.8176 O   0  0  0  0  0  0  0  0  0  0  0  0
   25.7304  -20.2863  -12.1725 C   0  0  2  0  0  0  0  0  0  0  0  0
   26.7249  -20.1527  -13.2188 N   0  0  0  0  0  0  0  0  0  0  0  0
   26.3506  -20.6095  -10.8632 C   0  0  0  0  0  0  0  0  0  0  0  0
   27.3239  -21.3806  -10.8386 O   0  0  0  0  0  0  0  0  0  0  0  0
   29.6298  -19.7568   -4.4683 C   0  0  0  0  0  0  0  0  0  0  0  0
   28.1640  -18.8817   -5.1242 S   0  0  0  0  0  0  0  0  0  0  0  0
   27.1435  -20.0083   -6.1124 C   0  0  0  0  0  0  0  0  0  0  0  0
   26.9880  -19.5685   -7.5331 C   0  0  0  0  0  0  0  0  0  0  0  0
   26.1864  -20.5507   -8.3448 C   0  0  2  0  0  0  0  0  0  0  0  0
   25.8780  -20.0760   -9.6516 N   0  0  0  0  0  0  0  0  0  0  0  0
   24.9731  -21.0424   -7.6982 C   0  0  0  0  0  0  0  0  0  0  0  0
   23.7968  -20.8519   -8.1115 O   0  0  0  0  0  0  0  0  0  0  0  0
   25.0763  -21.7850   -6.5307 O   0  0  0  0  0  0  0  0  0  0  0  0
  2  3  1  0
  2  1  1  6
  4  2  1  0
  5  4  2  0
  7  6  1  6
  7  8  1  0
  7  9  1  0
  9 11  1  0
  9 10  1  6
 10  4  1  0
 11 18  1  0
 12 11  2  0
 13 14  1  0
 15 14  1  0
 16 15  1  0
 17 16  1  1
 18 17  1  0
 19 21  1  0
 19 17  1  0
 20 19  2  0
M  END
$$$$
