ATM.pdb
     RDKit          3D

 21 20  0  0  1  0  0  0  0  0999 V2000
   29.6505  -23.4523  -18.7961 C   0  0  0  0  0  0  0  0  0  0  0  0
   28.8121  -23.8332  -17.5943 C   0  0  2  0  0  0  0  0  0  0  0  0
   27.6245  -24.4981  -18.0644 N   0  0  0  0  0  0  0  0  0  0  0  0
   28.4895  -22.6356  -16.7722 C   0  0  0  0  0  0  0  0  0  0  0  0
   29.4049  -21.9311  -16.2709 O   0  0  0  0  0  0  0  0  0  0  0  0
   24.7214  -20.5664  -16.8508 C   0  0  0  0  0  0  0  0  0  0  0  0
   26.0917  -20.0310  -16.4903 C   0  0  1  0  0  0  0  0  0  0  0  0
   25.8877  -18.8956  -15.6915 O   0  0  0  0  0  0  0  0  0  0  0  0
   26.8652  -21.0551  -15.6778 C   0  0  2  0  0  0  0  0  0  0  0  0
   27.1540  -22.2129  -16.5010 N   0  0  0  0  0  0  0  0  0  0  0  0
   26.1173  -21.4265  -14.4506 C   0  0  0  0  0  0  0  0  0  0  0  0
   25.2585  -22.3206  -14.5234 O   0  0  0  0  0  0  0  0  0  0  0  0
   25.5898  -20.8386   -6.5258 C   0  0  0  0  0  0  0  0  0  0  0  0
   26.4563  -20.2597   -8.0286 S   0  0  0  0  0  0  0  0  0  0  0  0
   25.6337  -20.8900   -9.5163 C   0  0  0  0  0  0  0  0  0  0  0  0
   26.3655  -20.5603  -10.7779 C   0  0  0  0  0  0  0  0  0  0  0  0
   25.6395  -21.0574  -11.9994 C   0  0  2  0  0  0  0  0  0  0  0  0
   26.3447  -20.8047  -13.2106 N   0  0  0  0  0  0  0  0  0  0  0  0
   24.2586  -20.6003  -12.1267 C   0  0  0  0  0  0  0  0  0  0  0  0
   23.8994  -19.4774  -12.5747 O   0  0  0  0  0  0  0  0  0  0  0  0
   23.2246  -21.4384  -11.7344 O   0  0  0  0  0  0  0  0  0  0  0  0
  2  3  1  0
  2  1  1  6
  4  2  1  0
  5  4  2  0
  7  6  1  1
  7  8  1  0
  7  9  1  0
  9 11  1  0
  9 10  1  6
 10  4  1  0
 11 18  1  0
 12 11  2  0
 13 14  1  0
 15 14  1  0
 16 15  1  0
 17 16  1  1
 18 17  1  0
 19 21  1  0
 19 17  1  0
 20 19  2  0
M  END
$$$$
