ATM.pdb
     RDKit          3D

 21 20  0  0  1  0  0  0  0  0999 V2000
   31.6027  -20.4875  -11.4251 C   0  0  0  0  0  0  0  0  0  0  0  0
   30.4340  -21.4285  -11.6278 C   0  0  2  0  0  0  0  0  0  0  0  0
   30.8711  -22.5187  -12.4608 N   0  0  0  0  0  0  0  0  0  0  0  0
   29.2717  -20.7104  -12.2173 C   0  0  0  0  0  0  0  0  0  0  0  0
   28.7983  -19.6838  -11.6629 O   0  0  0  0  0  0  0  0  0  0  0  0
   29.0476  -19.2917  -15.6289 C   0  0  0  0  0  0  0  0  0  0  0  0
   27.7898  -20.1196  -15.4647 C   0  0  1  0  0  0  0  0  0  0  0  0
   28.0246  -21.3471  -16.1027 O   0  0  0  0  0  0  0  0  0  0  0  0
   27.5190  -20.3885  -13.9945 C   0  0  2  0  0  0  0  0  0  0  0  0
   28.6283  -21.1251  -13.4214 N   0  0  0  0  0  0  0  0  0  0  0  0
   26.2328  -21.1085  -13.8197 C   0  0  0  0  0  0  0  0  0  0  0  0
   26.2563  -22.2791  -13.4055 O   0  0  0  0  0  0  0  0  0  0  0  0
   21.1718  -21.2135   -8.6089 C   0  0  0  0  0  0  0  0  0  0  0  0
   22.7522  -20.7522   -9.4050 S   0  0  0  0  0  0  0  0  0  0  0  0
   22.6238  -20.9105  -11.2065 C   0  0  0  0  0  0  0  0  0  0  0  0
   23.9026  -20.6016  -11.9172 C   0  0  0  0  0  0  0  0  0  0  0  0
   23.7687  -20.7433  -13.4099 C   0  0  2  0  0  0  0  0  0  0  0  0
   24.9907  -20.5155  -14.1051 N   0  0  0  0  0  0  0  0  0  0  0  0
   22.7015  -19.9499  -14.0130 C   0  0  0  0  0  0  0  0  0  0  0  0
   22.7988  -18.7428  -14.3654 O   0  0  0  0  0  0  0  0  0  0  0  0
   21.4618  -20.5324  -14.2349 O   0  0  0  0  0  0  0  0  0  0  0  0
  2  3  1  0
  2  1  1  6
  4  2  1  0
  5  4  2  0
  7  6  1  1
  7  8  1  0
  7  9  1  0
  9 11  1  0
  9 10  1  6
 10  4  1  0
 11 18  1  0
 12 11  2  0
 13 14  1  0
 15 14  1  0
 16 15  1  0
 17 16  1  1
 18 17  1  0
 19 21  1  0
 19 17  1  0
 20 19  2  0
M  END
$$$$
