KLP.pdb
     RDKit          3D

 25 25  0  0  1  0  0  0  0  0999 V2000
   10.5852  -16.0219   20.5397 N   0  0  0  0  0  0  0  0  0  0  0  0
    9.6463  -16.4571   21.4975 C   0  0  1  0  0  0  0  0  0  0  0  0
    9.6085  -17.9089   21.7921 C   0  0  0  0  0  0  0  0  0  0  0  0
    9.2149  -18.6988   20.5896 C   0  0  0  0  0  0  0  0  0  0  0  0
    8.9914  -20.1553   20.7507 C   0  0  0  0  0  0  0  0  0  0  0  0
    8.4996  -20.8914   19.5492 C   0  0  0  0  0  0  0  0  0  0  0  0
    8.1509  -22.2524   19.7239 N   0  0  0  0  0  0  0  0  0  0  0  0
    9.7044  -15.6088   22.7168 C   0  0  0  0  0  0  0  0  0  0  0  0
   10.7917  -15.0857   23.1149 O   0  0  0  0  0  0  0  0  0  0  0  0
    5.5735  -13.0722   26.5893 C   0  0  0  0  0  0  0  0  0  0  0  0
    6.9789  -13.2169   26.1060 C   0  0  2  0  0  0  0  0  0  0  0  0
    7.5577  -11.8676   25.7262 C   0  0  0  0  0  0  0  0  0  0  0  0
    7.0542  -14.0978   24.8972 C   0  0  0  0  0  0  0  0  0  0  0  0
    8.4554  -14.6159   24.6425 C   0  0  2  0  0  0  0  0  0  0  0  0
    8.5088  -15.3868   23.4452 N   0  0  0  0  0  0  0  0  0  0  0  0
    8.9194  -15.2854   25.8407 C   0  0  0  0  0  0  0  0  0  0  0  0
    8.5686  -16.5290   25.9444 O   0  0  0  0  0  0  0  0  0  0  0  0
    9.6870  -14.7478   26.8837 N   0  0  0  0  0  0  0  0  0  0  0  0
    9.8816  -13.3446   27.1563 C   0  0  0  0  0  0  0  0  0  0  0  0
   11.0334  -13.2693   28.1625 C   0  0  0  0  0  0  0  0  0  0  0  0
   10.7586  -14.5151   28.9554 C   0  0  0  0  0  0  0  0  0  0  0  0
   10.4224  -15.5221   27.8905 C   0  0  1  0  0  0  0  0  0  0  0  0
    9.5940  -16.6192   28.4706 C   0  0  0  0  0  0  0  0  0  0  0  0
   10.2502  -17.6206   29.1336 O   0  0  0  0  0  0  0  0  0  0  0  0
    8.3599  -16.6481   28.3713 O   0  0  0  0  0  0  0  0  0  0  0  0
  2  1  1  6
  2  3  1  0
  4  5  1  0
  4  3  1  0
  6  5  1  0
  7  6  1  0
  8  2  1  0
  9  8  2  0
 11 10  1  6
 11 13  1  0
 12 11  1  0
 14 13  1  1
 14 15  1  0
 15  8  1  0
 16 14  1  0
 16 17  2  0
 18 16  1  0
 19 18  1  0
 20 19  1  0
 21 20  1  0
 21 22  1  0
 22 23  1  1
 22 18  1  0
 23 24  1  0
 25 23  2  0
M  END
$$$$
