KLP.pdb
     RDKit          3D

 25 25  0  0  1  0  0  0  0  0999 V2000
   10.8603  -16.1420   20.7228 N   0  0  0  0  0  0  0  0  0  0  0  0
    9.8360  -16.5079   21.6201 C   0  0  1  0  0  0  0  0  0  0  0  0
    9.6669  -17.9541   21.8954 C   0  0  0  0  0  0  0  0  0  0  0  0
   10.3413  -18.7885   20.8592 C   0  0  0  0  0  0  0  0  0  0  0  0
   10.2364  -20.2630   20.9700 C   0  0  0  0  0  0  0  0  0  0  0  0
   10.8314  -21.0594   19.8568 C   0  0  0  0  0  0  0  0  0  0  0  0
   10.7884  -22.4693   19.9771 N   0  0  0  0  0  0  0  0  0  0  0  0
    9.8899  -15.6753   22.8504 C   0  0  0  0  0  0  0  0  0  0  0  0
   10.9854  -15.2076   23.2925 O   0  0  0  0  0  0  0  0  0  0  0  0
    5.7381  -13.0138   26.6222 C   0  0  0  0  0  0  0  0  0  0  0  0
    7.1460  -13.1870   26.1557 C   0  0  2  0  0  0  0  0  0  0  0  0
    7.7456  -11.8540   25.7515 C   0  0  0  0  0  0  0  0  0  0  0  0
    7.2212  -14.0957   24.9677 C   0  0  0  0  0  0  0  0  0  0  0  0
    8.6189  -14.6333   24.7353 C   0  0  2  0  0  0  0  0  0  0  0  0
    8.6807  -15.4048   23.5387 N   0  0  0  0  0  0  0  0  0  0  0  0
    9.0542  -15.3095   25.9405 C   0  0  0  0  0  0  0  0  0  0  0  0
    8.6816  -16.5470   26.0397 O   0  0  0  0  0  0  0  0  0  0  0  0
    9.8151  -14.7837   26.9945 N   0  0  0  0  0  0  0  0  0  0  0  0
   10.0225  -13.3836   27.2736 C   0  0  0  0  0  0  0  0  0  0  0  0
   11.1627  -13.3244   28.2939 C   0  0  0  0  0  0  0  0  0  0  0  0
   10.8639  -14.5692   29.0797 C   0  0  0  0  0  0  0  0  0  0  0  0
   10.5292  -15.5692   28.0079 C   0  0  1  0  0  0  0  0  0  0  0  0
    9.6811  -16.6584   28.5746 C   0  0  0  0  0  0  0  0  0  0  0  0
   10.3217  -17.7005   29.1882 O   0  0  0  0  0  0  0  0  0  0  0  0
    8.4447  -16.6458   28.5067 O   0  0  0  0  0  0  0  0  0  0  0  0
  2  1  1  1
  2  3  1  0
  4  5  1  0
  4  3  1  0
  6  5  1  0
  7  6  1  0
  8  2  1  0
  9  8  2  0
 11 10  1  6
 11 13  1  0
 12 11  1  0
 14 13  1  1
 14 15  1  0
 15  8  1  0
 16 14  1  0
 16 17  2  0
 18 16  1  0
 19 18  1  0
 20 19  1  0
 21 20  1  0
 21 22  1  0
 22 23  1  1
 22 18  1  0
 23 24  1  0
 25 23  2  0
M  END
$$$$
