KLP.pdb
     RDKit          3D

 25 25  0  0  1  0  0  0  0  0999 V2000
    9.8440  -15.7399   20.4590 N   0  0  0  0  0  0  0  0  0  0  0  0
    9.3263  -16.4169   21.5823 C   0  0  1  0  0  0  0  0  0  0  0  0
    9.7282  -17.8321   21.7598 C   0  0  0  0  0  0  0  0  0  0  0  0
    9.2537  -18.6794   20.6277 C   0  0  0  0  0  0  0  0  0  0  0  0
    9.4743  -20.1431   20.7077 C   0  0  0  0  0  0  0  0  0  0  0  0
    8.8679  -20.9692   19.6228 C   0  0  0  0  0  0  0  0  0  0  0  0
    9.1024  -22.3647   19.6664 N   0  0  0  0  0  0  0  0  0  0  0  0
    9.4886  -15.5986   22.8127 C   0  0  0  0  0  0  0  0  0  0  0  0
   10.6285  -15.1884   23.1960 O   0  0  0  0  0  0  0  0  0  0  0  0
    5.6857  -12.9757   26.9723 C   0  0  0  0  0  0  0  0  0  0  0  0
    7.0549  -13.1747   26.4106 C   0  0  2  0  0  0  0  0  0  0  0  0
    7.6873  -11.8435   26.0529 C   0  0  0  0  0  0  0  0  0  0  0  0
    7.0205  -14.0079   25.1666 C   0  0  0  0  0  0  0  0  0  0  0  0
    8.3820  -14.5653   24.8031 C   0  0  2  0  0  0  0  0  0  0  0  0
    8.3339  -15.2757   23.5687 N   0  0  0  0  0  0  0  0  0  0  0  0
    8.8871  -15.3122   25.9372 C   0  0  0  0  0  0  0  0  0  0  0  0
    8.5062  -16.5500   25.9918 O   0  0  0  0  0  0  0  0  0  0  0  0
    9.7224  -14.8536   26.9659 N   0  0  0  0  0  0  0  0  0  0  0  0
   10.0530  -13.4760   27.2382 C   0  0  0  0  0  0  0  0  0  0  0  0
   11.2267  -13.5134   28.2210 C   0  0  0  0  0  0  0  0  0  0  0  0
   10.8522  -14.7316   29.0160 C   0  0  0  0  0  0  0  0  0  0  0  0
   10.4019  -15.6978   27.9555 C   0  0  1  0  0  0  0  0  0  0  0  0
    9.4860  -16.7152   28.5494 C   0  0  0  0  0  0  0  0  0  0  0  0
   10.0525  -17.7145   29.2933 O   0  0  0  0  0  0  0  0  0  0  0  0
    8.2581  -16.6811   28.3918 O   0  0  0  0  0  0  0  0  0  0  0  0
  2  1  1  6
  2  3  1  0
  4  5  1  0
  4  3  1  0
  6  5  1  0
  7  6  1  0
  8  2  1  0
  9  8  2  0
 11 10  1  6
 11 13  1  0
 12 11  1  0
 14 13  1  1
 14 15  1  0
 15  8  1  0
 16 14  1  0
 16 17  2  0
 18 16  1  0
 19 18  1  0
 20 19  1  0
 21 20  1  0
 21 22  1  0
 22 23  1  1
 22 18  1  0
 23 24  1  0
 25 23  2  0
M  END
$$$$
