KLP.pdb
     RDKit          3D

 25 25  0  0  1  0  0  0  0  0999 V2000
    9.7815  -16.2163   20.5395 N   0  0  0  0  0  0  0  0  0  0  0  0
    9.1626  -16.7425   21.6919 C   0  0  1  0  0  0  0  0  0  0  0  0
    9.4125  -18.1708   21.9977 C   0  0  0  0  0  0  0  0  0  0  0  0
    8.3712  -19.0486   21.3896 C   0  0  0  0  0  0  0  0  0  0  0  0
    8.5599  -19.4916   19.9876 C   0  0  0  0  0  0  0  0  0  0  0  0
    7.5239  -20.4122   19.4340 C   0  0  0  0  0  0  0  0  0  0  0  0
    7.7275  -20.8972   18.1196 N   0  0  0  0  0  0  0  0  0  0  0  0
    9.3688  -15.8445   22.8584 C   0  0  0  0  0  0  0  0  0  0  0  0
   10.5149  -15.3788   23.1480 O   0  0  0  0  0  0  0  0  0  0  0  0
    5.6826  -12.7383   26.7412 C   0  0  0  0  0  0  0  0  0  0  0  0
    7.0477  -13.0101   26.2003 C   0  0  2  0  0  0  0  0  0  0  0  0
    7.7030  -11.7270   25.7270 C   0  0  0  0  0  0  0  0  0  0  0  0
    6.9978  -13.9492   25.0348 C   0  0  0  0  0  0  0  0  0  0  0  0
    8.3270  -14.6312   24.7811 C   0  0  2  0  0  0  0  0  0  0  0  0
    8.2495  -15.5079   23.6604 N   0  0  0  0  0  0  0  0  0  0  0  0
    8.7740  -15.2351   26.0199 C   0  0  0  0  0  0  0  0  0  0  0  0
    8.2788  -16.4069   26.2684 O   0  0  0  0  0  0  0  0  0  0  0  0
    9.6621  -14.7020   26.9651 N   0  0  0  0  0  0  0  0  0  0  0  0
    9.9394  -13.3014   27.1716 C   0  0  0  0  0  0  0  0  0  0  0  0
   11.1871  -13.2477   28.0577 C   0  0  0  0  0  0  0  0  0  0  0  0
   10.9416  -14.4573   28.9138 C   0  0  0  0  0  0  0  0  0  0  0  0
   10.4613  -15.4786   27.9202 C   0  0  1  0  0  0  0  0  0  0  0  0
    9.6503  -16.5216   28.6137 C   0  0  0  0  0  0  0  0  0  0  0  0
    8.2947  -16.3390   28.6579 O   0  0  0  0  0  0  0  0  0  0  0  0
   10.1572  -17.5228   29.1374 O   0  0  0  0  0  0  0  0  0  0  0  0
  2  1  1  6
  2  3  1  0
  4  5  1  0
  4  3  1  0
  6  5  1  0
  7  6  1  0
  8  2  1  0
  9  8  2  0
 11 10  1  6
 11 13  1  0
 12 11  1  0
 14 13  1  1
 14 15  1  0
 15  8  1  0
 16 14  1  0
 16 17  2  0
 18 16  1  0
 19 18  1  0
 20 19  1  0
 21 20  1  0
 21 22  1  0
 22 23  1  1
 22 18  1  0
 23 24  1  0
 25 23  2  0
M  END
$$$$
