KLP.pdb
     RDKit          3D

 25 25  0  0  1  0  0  0  0  0999 V2000
    9.3291  -15.5084   20.4075 N   0  0  0  0  0  0  0  0  0  0  0  0
    8.8480  -16.1183   21.5843 C   0  0  1  0  0  0  0  0  0  0  0  0
    9.1317  -17.5623   21.7585 C   0  0  0  0  0  0  0  0  0  0  0  0
    8.5888  -18.3650   20.6246 C   0  0  0  0  0  0  0  0  0  0  0  0
    8.7835  -19.8343   20.6501 C   0  0  0  0  0  0  0  0  0  0  0  0
    8.2212  -20.6015   19.5000 C   0  0  0  0  0  0  0  0  0  0  0  0
    8.4692  -21.9950   19.4707 N   0  0  0  0  0  0  0  0  0  0  0  0
    9.1881  -15.3018   22.7790 C   0  0  0  0  0  0  0  0  0  0  0  0
   10.2895  -14.6743   22.8672 O   0  0  0  0  0  0  0  0  0  0  0  0
    7.9511  -11.8344   25.3844 C   0  0  0  0  0  0  0  0  0  0  0  0
    6.8418  -12.8321   25.3229 C   0  0  2  0  0  0  0  0  0  0  0  0
    5.6798  -12.3976   26.1951 C   0  0  0  0  0  0  0  0  0  0  0  0
    7.2891  -14.1784   25.8029 C   0  0  0  0  0  0  0  0  0  0  0  0
    8.5494  -14.6535   25.1083 C   0  0  2  0  0  0  0  0  0  0  0  0
    8.2510  -15.2307   23.8400 N   0  0  0  0  0  0  0  0  0  0  0  0
    9.2845  -15.5005   26.0255 C   0  0  0  0  0  0  0  0  0  0  0  0
    9.2470  -16.7670   25.7517 O   0  0  0  0  0  0  0  0  0  0  0  0
   10.0144  -15.1118   27.1579 N   0  0  0  0  0  0  0  0  0  0  0  0
   10.1477  -13.7656   27.6591 C   0  0  0  0  0  0  0  0  0  0  0  0
   11.2808  -13.8120   28.6879 C   0  0  0  0  0  0  0  0  0  0  0  0
   11.0457  -15.1801   29.2617 C   0  0  0  0  0  0  0  0  0  0  0  0
   10.7663  -16.0116   28.0405 C   0  0  1  0  0  0  0  0  0  0  0  0
    9.9750  -17.2194   28.4170 C   0  0  0  0  0  0  0  0  0  0  0  0
   10.6302  -18.2186   29.0843 O   0  0  0  0  0  0  0  0  0  0  0  0
    8.7719  -17.3397   28.1492 O   0  0  0  0  0  0  0  0  0  0  0  0
  2  1  1  6
  2  3  1  0
  4  5  1  0
  4  3  1  0
  6  5  1  0
  7  6  1  0
  8  2  1  0
  9  8  2  0
 11 10  1  1
 11 13  1  0
 12 11  1  0
 14 13  1  1
 14 15  1  0
 15  8  1  0
 16 14  1  0
 16 17  2  0
 18 16  1  0
 19 18  1  0
 20 19  1  0
 21 20  1  0
 21 22  1  0
 22 23  1  1
 22 18  1  0
 23 24  1  0
 25 23  2  0
M  END
$$$$
