KLP.pdb
     RDKit          3D

 25 25  0  0  1  0  0  0  0  0999 V2000
    9.7633  -15.7518   20.6169 N   0  0  0  0  0  0  0  0  0  0  0  0
    8.8924  -16.1446   21.6539 C   0  0  1  0  0  0  0  0  0  0  0  0
    8.6279  -17.5955   21.7977 C   0  0  0  0  0  0  0  0  0  0  0  0
    7.9252  -18.1425   20.6011 C   0  0  0  0  0  0  0  0  0  0  0  0
    8.4283  -19.4053   20.0097 C   0  0  0  0  0  0  0  0  0  0  0  0
    7.7373  -19.8862   18.7774 C   0  0  0  0  0  0  0  0  0  0  0  0
    8.2114  -21.0883   18.1990 N   0  0  0  0  0  0  0  0  0  0  0  0
    9.2620  -15.4826   22.9326 C   0  0  0  0  0  0  0  0  0  0  0  0
   10.4420  -15.0655   23.1516 O   0  0  0  0  0  0  0  0  0  0  0  0
    7.6295  -11.8659   25.3070 C   0  0  0  0  0  0  0  0  0  0  0  0
    6.6479  -12.9879   25.2218 C   0  0  2  0  0  0  0  0  0  0  0  0
    5.3736  -12.6446   25.9689 C   0  0  0  0  0  0  0  0  0  0  0  0
    7.1993  -14.2445   25.8216 C   0  0  0  0  0  0  0  0  0  0  0  0
    8.4996  -14.6755   25.1735 C   0  0  2  0  0  0  0  0  0  0  0  0
    8.2627  -15.3198   23.9247 N   0  0  0  0  0  0  0  0  0  0  0  0
    9.2596  -15.4416   26.1402 C   0  0  0  0  0  0  0  0  0  0  0  0
    9.1280  -16.7277   26.0459 O   0  0  0  0  0  0  0  0  0  0  0  0
   10.1022  -14.9568   27.1508 N   0  0  0  0  0  0  0  0  0  0  0  0
   10.4197  -13.5713   27.3971 C   0  0  0  0  0  0  0  0  0  0  0  0
   11.6059  -13.5791   28.3653 C   0  0  0  0  0  0  0  0  0  0  0  0
   11.2561  -14.7888   29.1842 C   0  0  0  0  0  0  0  0  0  0  0  0
   10.8041  -15.7771   28.1450 C   0  0  1  0  0  0  0  0  0  0  0  0
    9.9080  -16.7955   28.7665 C   0  0  0  0  0  0  0  0  0  0  0  0
   10.4832  -17.7146   29.6015 O   0  0  0  0  0  0  0  0  0  0  0  0
    8.6887  -16.8313   28.5530 O   0  0  0  0  0  0  0  0  0  0  0  0
  2  1  1  6
  2  3  1  0
  4  5  1  0
  4  3  1  0
  6  5  1  0
  7  6  1  0
  8  2  1  0
  9  8  2  0
 11 10  1  1
 11 13  1  0
 12 11  1  0
 14 13  1  1
 14 15  1  0
 15  8  1  0
 16 14  1  0
 16 17  2  0
 18 16  1  0
 19 18  1  0
 20 19  1  0
 21 20  1  0
 21 22  1  0
 22 23  1  1
 22 18  1  0
 23 24  1  0
 25 23  2  0
M  END
$$$$
