KLP.pdb
     RDKit          3D

 25 25  0  0  1  0  0  0  0  0999 V2000
   10.5591  -15.9004   20.5497 N   0  0  0  0  0  0  0  0  0  0  0  0
    9.5813  -16.3339   21.4685 C   0  0  1  0  0  0  0  0  0  0  0  0
    9.4513  -17.7957   21.6737 C   0  0  0  0  0  0  0  0  0  0  0  0
   10.7824  -18.4384   21.8740 C   0  0  0  0  0  0  0  0  0  0  0  0
   10.8284  -19.9062   22.0756 C   0  0  0  0  0  0  0  0  0  0  0  0
   12.1736  -20.5035   22.3227 C   0  0  0  0  0  0  0  0  0  0  0  0
   12.2195  -21.8835   22.6356 N   0  0  0  0  0  0  0  0  0  0  0  0
    9.6723  -15.5657   22.7378 C   0  0  0  0  0  0  0  0  0  0  0  0
   10.7792  -15.1112   23.1651 O   0  0  0  0  0  0  0  0  0  0  0  0
    5.6013  -13.0375   26.6890 C   0  0  0  0  0  0  0  0  0  0  0  0
    6.9945  -13.1879   26.1732 C   0  0  2  0  0  0  0  0  0  0  0  0
    7.5516  -11.8479   25.7328 C   0  0  0  0  0  0  0  0  0  0  0  0
    7.0450  -14.1086   24.9931 C   0  0  0  0  0  0  0  0  0  0  0  0
    8.4511  -14.5835   24.6867 C   0  0  2  0  0  0  0  0  0  0  0  0
    8.4861  -15.3424   23.4810 N   0  0  0  0  0  0  0  0  0  0  0  0
    8.9744  -15.2493   25.8622 C   0  0  0  0  0  0  0  0  0  0  0  0
    8.7208  -16.5186   25.9318 O   0  0  0  0  0  0  0  0  0  0  0  0
    9.7068  -14.6842   26.9161 N   0  0  0  0  0  0  0  0  0  0  0  0
    9.8662  -13.2743   27.1767 C   0  0  0  0  0  0  0  0  0  0  0  0
   10.9929  -13.1638   28.2077 C   0  0  0  0  0  0  0  0  0  0  0  0
   10.7258  -14.4062   29.0086 C   0  0  0  0  0  0  0  0  0  0  0  0
   10.4348  -15.4317   27.9482 C   0  0  1  0  0  0  0  0  0  0  0  0
    9.6161  -16.5394   28.5221 C   0  0  0  0  0  0  0  0  0  0  0  0
   10.2699  -17.4885   29.2601 O   0  0  0  0  0  0  0  0  0  0  0  0
    8.3920  -16.6216   28.3533 O   0  0  0  0  0  0  0  0  0  0  0  0
  2  1  1  6
  2  3  1  0
  4  5  1  0
  4  3  1  0
  6  5  1  0
  7  6  1  0
  8  2  1  0
  9  8  2  0
 11 10  1  6
 11 13  1  0
 12 11  1  0
 14 13  1  1
 14 15  1  0
 15  8  1  0
 16 14  1  0
 16 17  2  0
 18 16  1  0
 19 18  1  0
 20 19  1  0
 21 20  1  0
 21 22  1  0
 22 23  1  1
 22 18  1  0
 23 24  1  0
 25 23  2  0
M  END
$$$$
