KLP.pdb
     RDKit          3D

 25 25  0  0  1  0  0  0  0  0999 V2000
    9.7236  -15.6256   20.6537 N   0  0  0  0  0  0  0  0  0  0  0  0
    8.7683  -15.9313   21.6446 C   0  0  1  0  0  0  0  0  0  0  0  0
    8.3384  -17.3454   21.7519 C   0  0  0  0  0  0  0  0  0  0  0  0
    9.2303  -18.2472   20.9670 C   0  0  0  0  0  0  0  0  0  0  0  0
    8.6263  -19.4296   20.3079 C   0  0  0  0  0  0  0  0  0  0  0  0
    9.5478  -20.2928   19.5123 C   0  0  0  0  0  0  0  0  0  0  0  0
    9.9614  -21.5114   20.1025 N   0  0  0  0  0  0  0  0  0  0  0  0
    9.1502  -15.3301   22.9493 C   0  0  0  0  0  0  0  0  0  0  0  0
   10.3459  -14.9797   23.1984 O   0  0  0  0  0  0  0  0  0  0  0  0
    7.5653  -11.7786   25.4857 C   0  0  0  0  0  0  0  0  0  0  0  0
    6.5622  -12.8789   25.3729 C   0  0  2  0  0  0  0  0  0  0  0  0
    5.3146  -12.5521   26.1707 C   0  0  0  0  0  0  0  0  0  0  0  0
    7.1072  -14.1724   25.8953 C   0  0  0  0  0  0  0  0  0  0  0  0
    8.3981  -14.5768   25.2123 C   0  0  2  0  0  0  0  0  0  0  0  0
    8.1450  -15.1496   23.9322 N   0  0  0  0  0  0  0  0  0  0  0  0
    9.1605  -15.4006   26.1283 C   0  0  0  0  0  0  0  0  0  0  0  0
    9.0230  -16.6786   25.9604 O   0  0  0  0  0  0  0  0  0  0  0  0
   10.0110  -14.9786   27.1602 N   0  0  0  0  0  0  0  0  0  0  0  0
   10.3348  -13.6109   27.4853 C   0  0  0  0  0  0  0  0  0  0  0  0
   11.5270  -13.6792   28.4437 C   0  0  0  0  0  0  0  0  0  0  0  0
   11.1783  -14.9338   29.1924 C   0  0  0  0  0  0  0  0  0  0  0  0
   10.7165  -15.8579   28.0999 C   0  0  1  0  0  0  0  0  0  0  0  0
    9.8208  -16.9084   28.6663 C   0  0  0  0  0  0  0  0  0  0  0  0
   10.3948  -17.8645   29.4597 O   0  0  0  0  0  0  0  0  0  0  0  0
    8.6029  -16.9384   28.4440 O   0  0  0  0  0  0  0  0  0  0  0  0
  2  1  1  6
  2  3  1  0
  4  5  1  0
  4  3  1  0
  6  5  1  0
  7  6  1  0
  8  2  1  0
  9  8  2  0
 11 10  1  1
 11 13  1  0
 12 11  1  0
 14 13  1  1
 14 15  1  0
 15  8  1  0
 16 14  1  0
 16 17  2  0
 18 16  1  0
 19 18  1  0
 20 19  1  0
 21 20  1  0
 21 22  1  0
 22 23  1  1
 22 18  1  0
 23 24  1  0
 25 23  2  0
M  END
$$$$
