LAQ.pdb
     RDKit          3D

 23 22  0  0  1  0  0  0  0  0999 V2000
    6.1849  -11.7978   25.2879 C   0  0  0  0  0  0  0  0  0  0  0  0
    6.4033  -12.6191   26.5582 C   0  0  2  0  0  0  0  0  0  0  0  0
    7.0831  -11.7730   27.6124 C   0  0  0  0  0  0  0  0  0  0  0  0
    7.2702  -13.8028   26.1789 C   0  0  0  0  0  0  0  0  0  0  0  0
    6.4867  -14.6644   25.2050 C   0  0  2  0  0  0  0  0  0  0  0  0
    5.4371  -15.3454   25.9027 N   0  0  0  0  0  0  0  0  0  0  0  0
    7.4568  -15.5891   24.5722 C   0  0  0  0  0  0  0  0  0  0  0  0
    7.7969  -16.6016   25.2454 O   0  0  0  0  0  0  0  0  0  0  0  0
    9.1516  -16.0462   21.2758 C   0  0  0  0  0  0  0  0  0  0  0  0
    8.8593  -16.3949   22.7322 C   0  0  2  0  0  0  0  0  0  0  0  0
    8.0037  -15.3877   23.2755 N   0  0  0  0  0  0  0  0  0  0  0  0
   10.1891  -16.4406   23.4214 C   0  0  0  0  0  0  0  0  0  0  0  0
   10.8810  -15.3981   23.4374 O   0  0  0  0  0  0  0  0  0  0  0  0
   11.0833  -20.7421   27.5432 N   0  0  0  0  0  0  0  0  0  0  0  0
   10.6235  -19.4441   27.8856 C   0  0  0  0  0  0  0  0  0  0  0  0
   10.0008  -19.2753   28.9417 O   0  0  0  0  0  0  0  0  0  0  0  0
   10.9007  -18.3288   26.9689 C   0  0  0  0  0  0  0  0  0  0  0  0
   11.7897  -18.7132   25.8480 C   0  0  0  0  0  0  0  0  0  0  0  0
   11.9262  -17.7662   24.7225 C   0  0  2  0  0  0  0  0  0  0  0  0
   10.6663  -17.6246   24.0439 N   0  0  0  0  0  0  0  0  0  0  0  0
   13.0532  -18.0466   23.7934 C   0  0  0  0  0  0  0  0  0  0  0  0
   14.3351  -17.7660   24.2202 O   0  0  0  0  0  0  0  0  0  0  0  0
   12.9026  -18.5211   22.6570 O   0  0  0  0  0  0  0  0  0  0  0  0
  2  1  1  6
  2  3  1  0
  4  2  1  0
  5  4  1  0
  5  6  1  1
  7  8  2  0
  7  5  1  0
 10  9  1  6
 10 12  1  0
 10 11  1  0
 11  7  1  0
 12 20  1  0
 13 12  2  0
 15 14  1  0
 16 15  2  0
 17 15  1  0
 18 17  1  0
 19 18  1  1
 20 19  1  0
 21 22  1  0
 21 19  1  0
 23 21  2  0
M  END
$$$$
