LAQ.pdb
     RDKit          3D

 23 22  0  0  1  0  0  0  0  0999 V2000
    5.6578  -12.3775   25.4382 C   0  0  0  0  0  0  0  0  0  0  0  0
    6.0502  -13.2484   26.6312 C   0  0  2  0  0  0  0  0  0  0  0  0
    6.5614  -12.3810   27.7608 C   0  0  0  0  0  0  0  0  0  0  0  0
    7.1301  -14.1978   26.1526 C   0  0  0  0  0  0  0  0  0  0  0  0
    6.5455  -15.0502   25.0408 C   0  0  2  0  0  0  0  0  0  0  0  0
    5.6061  -15.9808   25.5920 N   0  0  0  0  0  0  0  0  0  0  0  0
    7.6848  -15.7109   24.3610 C   0  0  0  0  0  0  0  0  0  0  0  0
    8.2041  -16.6972   24.9540 O   0  0  0  0  0  0  0  0  0  0  0  0
    9.5891  -15.4721   21.1577 C   0  0  0  0  0  0  0  0  0  0  0  0
    9.3579  -15.9515   22.5877 C   0  0  2  0  0  0  0  0  0  0  0  0
    8.2012  -15.2911   23.1048 N   0  0  0  0  0  0  0  0  0  0  0  0
   10.5996  -15.5977   23.3484 C   0  0  0  0  0  0  0  0  0  0  0  0
   10.6786  -14.4535   23.8486 O   0  0  0  0  0  0  0  0  0  0  0  0
   11.0947  -14.2176   28.7970 N   0  0  0  0  0  0  0  0  0  0  0  0
   11.2468  -15.3863   28.0067 C   0  0  0  0  0  0  0  0  0  0  0  0
   10.8269  -16.4701   28.4316 O   0  0  0  0  0  0  0  0  0  0  0  0
   11.9045  -15.2758   26.6967 C   0  0  0  0  0  0  0  0  0  0  0  0
   11.7938  -16.5142   25.8913 C   0  0  0  0  0  0  0  0  0  0  0  0
   12.5608  -16.5858   24.6308 C   0  0  2  0  0  0  0  0  0  0  0  0
   11.6660  -16.5222   23.5069 N   0  0  0  0  0  0  0  0  0  0  0  0
   13.5222  -17.7169   24.5392 C   0  0  0  0  0  0  0  0  0  0  0  0
   14.8408  -17.4800   24.8697 O   0  0  0  0  0  0  0  0  0  0  0  0
   13.2016  -18.8617   24.1840 O   0  0  0  0  0  0  0  0  0  0  0  0
  2  1  1  6
  2  3  1  0
  4  2  1  0
  5  4  1  0
  5  6  1  1
  7  8  2  0
  7  5  1  0
 10  9  1  6
 10 12  1  0
 10 11  1  0
 11  7  1  0
 12 20  1  0
 13 12  2  0
 15 14  1  0
 16 15  2  0
 17 15  1  0
 18 17  1  0
 19 18  1  1
 20 19  1  0
 21 22  1  0
 21 19  1  0
 23 21  2  0
M  END
$$$$
