LAQ.pdb
     RDKit          3D

 23 22  0  0  1  0  0  0  0  0999 V2000
    8.4818  -13.0909   17.9863 C   0  0  0  0  0  0  0  0  0  0  0  0
    7.7071  -13.2014   19.2991 C   0  0  2  0  0  0  0  0  0  0  0  0
    7.6715  -11.8583   19.9950 C   0  0  0  0  0  0  0  0  0  0  0  0
    8.4224  -14.2293   20.1525 C   0  0  0  0  0  0  0  0  0  0  0  0
    8.3313  -15.5699   19.4461 C   0  0  2  0  0  0  0  0  0  0  0  0
    6.9583  -15.9641   19.3384 N   0  0  0  0  0  0  0  0  0  0  0  0
    9.1487  -16.5257   20.2304 C   0  0  0  0  0  0  0  0  0  0  0  0
    8.6555  -16.9333   21.3188 O   0  0  0  0  0  0  0  0  0  0  0  0
   12.4943  -18.1840   20.0458 C   0  0  0  0  0  0  0  0  0  0  0  0
   11.1309  -17.8973   20.6679 C   0  0  2  0  0  0  0  0  0  0  0  0
   10.4282  -16.9883   19.8184 N   0  0  0  0  0  0  0  0  0  0  0  0
   11.4077  -17.3111   22.0189 C   0  0  0  0  0  0  0  0  0  0  0  0
   12.0143  -16.2181   22.0742 O   0  0  0  0  0  0  0  0  0  0  0  0
    7.1076  -17.7366   25.8662 N   0  0  0  0  0  0  0  0  0  0  0  0
    7.4409  -16.4965   25.2626 C   0  0  0  0  0  0  0  0  0  0  0  0
    6.5600  -15.6446   25.0901 O   0  0  0  0  0  0  0  0  0  0  0  0
    8.8330  -16.2576   24.8552 C   0  0  0  0  0  0  0  0  0  0  0  0
    9.7236  -17.4038   25.1514 C   0  0  0  0  0  0  0  0  0  0  0  0
   11.0671  -17.4075   24.5372 C   0  0  2  0  0  0  0  0  0  0  0  0
   11.0004  -17.9636   23.2128 N   0  0  0  0  0  0  0  0  0  0  0  0
   12.1395  -18.0196   25.3662 C   0  0  0  0  0  0  0  0  0  0  0  0
   12.8231  -17.2094   26.2496 O   0  0  0  0  0  0  0  0  0  0  0  0
   12.4504  -19.2193   25.3077 O   0  0  0  0  0  0  0  0  0  0  0  0
  2  1  1  6
  2  3  1  0
  4  2  1  0
  5  4  1  0
  5  6  1  1
  7  8  2  0
  7  5  1  0
 10  9  1  6
 10 12  1  0
 10 11  1  0
 11  7  1  0
 12 20  1  0
 13 12  2  0
 15 14  1  0
 16 15  2  0
 17 15  1  0
 18 17  1  0
 19 18  1  1
 20 19  1  0
 21 22  1  0
 21 19  1  0
 23 21  2  0
M  END
$$$$
