LAQ.pdb
     RDKit          3D

 23 22  0  0  1  0  0  0  0  0999 V2000
    9.3187  -12.3337   19.2969 C   0  0  0  0  0  0  0  0  0  0  0  0
    8.1732  -13.2711   18.9162 C   0  0  2  0  0  0  0  0  0  0  0  0
    6.9464  -12.4669   18.5450 C   0  0  0  0  0  0  0  0  0  0  0  0
    7.8962  -14.1471   20.1213 C   0  0  0  0  0  0  0  0  0  0  0  0
    9.2202  -14.7102   20.6054 C   0  0  2  0  0  0  0  0  0  0  0  0
    9.7727  -15.5698   19.6013 N   0  0  0  0  0  0  0  0  0  0  0  0
    8.9482  -15.4114   21.8825 C   0  0  0  0  0  0  0  0  0  0  0  0
    8.1737  -14.8317   22.6938 O   0  0  0  0  0  0  0  0  0  0  0  0
    9.9087  -18.5822   23.6162 C   0  0  0  0  0  0  0  0  0  0  0  0
    9.2043  -17.2337   23.4998 C   0  0  2  0  0  0  0  0  0  0  0  0
    9.5079  -16.6737   22.2208 N   0  0  0  0  0  0  0  0  0  0  0  0
    9.7294  -16.3944   24.6247 C   0  0  0  0  0  0  0  0  0  0  0  0
   10.8522  -15.8597   24.4870 O   0  0  0  0  0  0  0  0  0  0  0  0
    6.7176  -11.3071   26.3865 N   0  0  0  0  0  0  0  0  0  0  0  0
    6.7369  -12.6878   26.7135 C   0  0  0  0  0  0  0  0  0  0  0  0
    5.8007  -13.1760   27.3590 O   0  0  0  0  0  0  0  0  0  0  0  0
    7.8773  -13.5047   26.2739 C   0  0  0  0  0  0  0  0  0  0  0  0
    8.3396  -14.4535   27.3134 C   0  0  0  0  0  0  0  0  0  0  0  0
    9.4037  -15.4103   26.9470 C   0  0  2  0  0  0  0  0  0  0  0  0
    8.9873  -16.2005   25.8200 N   0  0  0  0  0  0  0  0  0  0  0  0
    9.9254  -16.2358   28.0687 C   0  0  0  0  0  0  0  0  0  0  0  0
    9.7810  -17.6060   27.9919 O   0  0  0  0  0  0  0  0  0  0  0  0
   10.4853  -15.7588   29.0679 O   0  0  0  0  0  0  0  0  0  0  0  0
  2  1  1  1
  2  3  1  0
  4  2  1  0
  5  4  1  0
  5  6  1  6
  7  8  2  0
  7  5  1  0
 10  9  1  6
 10 12  1  0
 10 11  1  0
 11  7  1  0
 12 20  1  0
 13 12  2  0
 15 14  1  0
 16 15  2  0
 17 15  1  0
 18 17  1  0
 19 18  1  1
 20 19  1  0
 21 22  1  0
 21 19  1  0
 23 21  2  0
M  END
$$$$
