LAQ.pdb
     RDKit          3D

 23 22  0  0  1  0  0  0  0  0999 V2000
    7.1861  -11.4569   24.8933 C   0  0  0  0  0  0  0  0  0  0  0  0
    6.1966  -12.5386   25.3252 C   0  0  2  0  0  0  0  0  0  0  0  0
    5.6227  -12.2036   26.6847 C   0  0  0  0  0  0  0  0  0  0  0  0
    6.9603  -13.8466   25.3725 C   0  0  0  0  0  0  0  0  0  0  0  0
    7.8583  -13.9093   24.1502 C   0  0  2  0  0  0  0  0  0  0  0  0
    7.0840  -13.6574   22.9715 N   0  0  0  0  0  0  0  0  0  0  0  0
    8.4931  -15.2486   24.1511 C   0  0  0  0  0  0  0  0  0  0  0  0
    8.5756  -15.8361   25.2656 O   0  0  0  0  0  0  0  0  0  0  0  0
   10.3583  -17.4381   21.7686 C   0  0  0  0  0  0  0  0  0  0  0  0
    9.7788  -17.0671   23.1305 C   0  0  2  0  0  0  0  0  0  0  0  0
    8.9980  -15.8798   22.9816 N   0  0  0  0  0  0  0  0  0  0  0  0
   10.9536  -16.8625   24.0381 C   0  0  0  0  0  0  0  0  0  0  0  0
   11.5349  -15.7549   24.0091 O   0  0  0  0  0  0  0  0  0  0  0  0
   10.2810  -16.1189   30.2263 N   0  0  0  0  0  0  0  0  0  0  0  0
   11.0680  -15.5992   29.1661 C   0  0  0  0  0  0  0  0  0  0  0  0
   11.0373  -14.3868   28.9198 O   0  0  0  0  0  0  0  0  0  0  0  0
   11.9027  -16.5226   28.3840 C   0  0  0  0  0  0  0  0  0  0  0  0
   11.3412  -16.8105   27.0437 C   0  0  0  0  0  0  0  0  0  0  0  0
   12.1241  -17.6804   26.1424 C   0  0  2  0  0  0  0  0  0  0  0  0
   11.4077  -17.8853   24.9125 N   0  0  0  0  0  0  0  0  0  0  0  0
   12.6036  -18.9509   26.7489 C   0  0  0  0  0  0  0  0  0  0  0  0
   11.8322  -20.0833   26.5852 O   0  0  0  0  0  0  0  0  0  0  0  0
   13.6605  -19.0474   27.3916 O   0  0  0  0  0  0  0  0  0  0  0  0
  2  1  1  1
  2  3  1  0
  4  2  1  0
  5  4  1  0
  5  6  1  6
  7  8  2  0
  7  5  1  0
 10  9  1  6
 10 12  1  0
 10 11  1  0
 11  7  1  0
 12 20  1  0
 13 12  2  0
 15 14  1  0
 16 15  2  0
 17 15  1  0
 18 17  1  0
 19 18  1  1
 20 19  1  0
 21 22  1  0
 21 19  1  0
 23 21  2  0
M  END
$$$$
