LAQ.pdb
     RDKit          3D

 23 22  0  0  1  0  0  0  0  0999 V2000
    8.9836  -14.5874   18.7406 C   0  0  0  0  0  0  0  0  0  0  0  0
    7.7708  -13.8465   19.3027 C   0  0  2  0  0  0  0  0  0  0  0  0
    7.4929  -12.6074   18.4799 C   0  0  0  0  0  0  0  0  0  0  0  0
    8.1000  -13.4768   20.7350 C   0  0  0  0  0  0  0  0  0  0  0  0
    8.2291  -14.7620   21.5327 C   0  0  2  0  0  0  0  0  0  0  0  0
    7.0873  -15.5933   21.2928 N   0  0  0  0  0  0  0  0  0  0  0  0
    8.3735  -14.3725   22.9554 C   0  0  0  0  0  0  0  0  0  0  0  0
    9.4547  -13.8082   23.2818 O   0  0  0  0  0  0  0  0  0  0  0  0
    6.3287  -13.9394   25.9931 C   0  0  0  0  0  0  0  0  0  0  0  0
    7.6505  -14.2395   25.2923 C   0  0  2  0  0  0  0  0  0  0  0  0
    7.3726  -14.6022   23.9386 N   0  0  0  0  0  0  0  0  0  0  0  0
    8.2810  -15.3607   26.0611 C   0  0  0  0  0  0  0  0  0  0  0  0
    8.3700  -15.2463   27.3040 O   0  0  0  0  0  0  0  0  0  0  0  0
    7.6344  -21.3717   25.9020 N   0  0  0  0  0  0  0  0  0  0  0  0
    6.7590  -20.2833   26.1518 C   0  0  0  0  0  0  0  0  0  0  0  0
    5.5587  -20.5002   26.3611 O   0  0  0  0  0  0  0  0  0  0  0  0
    7.3064  -18.9190   26.1538 C   0  0  0  0  0  0  0  0  0  0  0  0
    8.7510  -18.8785   25.8281 C   0  0  0  0  0  0  0  0  0  0  0  0
    9.4710  -17.6081   26.0511 C   0  0  2  0  0  0  0  0  0  0  0  0
    8.7688  -16.5269   25.4140 N   0  0  0  0  0  0  0  0  0  0  0  0
   10.9190  -17.6342   25.7126 C   0  0  0  0  0  0  0  0  0  0  0  0
   11.7291  -18.5280   26.3826 O   0  0  0  0  0  0  0  0  0  0  0  0
   11.4365  -16.8975   24.8588 O   0  0  0  0  0  0  0  0  0  0  0  0
  2  1  1  6
  2  3  1  0
  4  2  1  0
  5  4  1  0
  5  6  1  1
  7  8  2  0
  7  5  1  0
 10  9  1  1
 10 12  1  0
 10 11  1  0
 11  7  1  0
 12 20  1  0
 13 12  2  0
 15 14  1  0
 16 15  2  0
 17 15  1  0
 18 17  1  0
 19 18  1  6
 20 19  1  0
 21 22  1  0
 21 19  1  0
 23 21  2  0
M  END
$$$$
