LAQ.pdb
     RDKit          3D

 23 22  0  0  1  0  0  0  0  0999 V2000
    8.3749  -13.7636   18.6381 C   0  0  0  0  0  0  0  0  0  0  0  0
    7.2519  -13.4766   19.6341 C   0  0  2  0  0  0  0  0  0  0  0  0
    6.8295  -12.0269   19.5362 C   0  0  0  0  0  0  0  0  0  0  0  0
    7.7928  -13.7858   21.0155 C   0  0  0  0  0  0  0  0  0  0  0  0
    8.1243  -15.2663   21.0682 C   0  0  2  0  0  0  0  0  0  0  0  0
    7.0607  -16.0185   20.4722 N   0  0  0  0  0  0  0  0  0  0  0  0
    8.3466  -15.6068   22.4935 C   0  0  0  0  0  0  0  0  0  0  0  0
    9.2882  -15.0041   23.0801 O   0  0  0  0  0  0  0  0  0  0  0  0
    6.7606  -17.6309   25.1931 C   0  0  0  0  0  0  0  0  0  0  0  0
    7.9007  -16.8334   24.5667 C   0  0  2  0  0  0  0  0  0  0  0  0
    7.5649  -16.5570   23.2058 N   0  0  0  0  0  0  0  0  0  0  0  0
    9.1215  -17.6944   24.6853 C   0  0  0  0  0  0  0  0  0  0  0  0
    9.1983  -18.7113   23.9603 O   0  0  0  0  0  0  0  0  0  0  0  0
   14.4916  -15.9295   23.9019 N   0  0  0  0  0  0  0  0  0  0  0  0
   14.8930  -17.1240   24.5545 C   0  0  0  0  0  0  0  0  0  0  0  0
   16.0868  -17.4501   24.5517 O   0  0  0  0  0  0  0  0  0  0  0  0
   13.8719  -17.9465   25.2190 C   0  0  0  0  0  0  0  0  0  0  0  0
   12.5153  -17.3570   25.1362 C   0  0  0  0  0  0  0  0  0  0  0  0
   11.3984  -18.1144   25.7372 C   0  0  2  0  0  0  0  0  0  0  0  0
   10.1709  -17.3802   25.5892 N   0  0  0  0  0  0  0  0  0  0  0  0
   11.6277  -18.5794   27.1312 C   0  0  0  0  0  0  0  0  0  0  0  0
   12.5995  -19.5347   27.3482 O   0  0  0  0  0  0  0  0  0  0  0  0
   10.9940  -18.1528   28.1088 O   0  0  0  0  0  0  0  0  0  0  0  0
  2  1  1  6
  2  3  1  0
  4  2  1  0
  5  4  1  0
  5  6  1  1
  7  8  2  0
  7  5  1  0
 10  9  1  6
 10 12  1  0
 10 11  1  0
 11  7  1  0
 12 20  1  0
 13 12  2  0
 15 14  1  0
 16 15  2  0
 17 15  1  0
 18 17  1  0
 19 18  1  1
 20 19  1  0
 21 22  1  0
 21 19  1  0
 23 21  2  0
M  END
$$$$
