ILH.pdb
     RDKit          3D

 27 27  0  0  1  0  0  0  0  0999 V2000
    6.5550  -18.1448   18.4789 C   0  0  0  0  0  0  0  0  0  0  0  0
    6.7260  -16.6737   18.7024 C   0  0  0  0  0  0  0  0  0  0  0  0
    7.3518  -16.3597   20.0435 C   0  0  2  0  0  0  0  0  0  0  0  0
    6.6149  -17.0974   21.1242 C   0  0  0  0  0  0  0  0  0  0  0  0
    7.3157  -14.8755   20.3329 C   0  0  2  0  0  0  0  0  0  0  0  0
    7.9765  -14.1600   19.2596 N   0  0  0  0  0  0  0  0  0  0  0  0
    7.9980  -14.5780   21.6423 C   0  0  0  0  0  0  0  0  0  0  0  0
    9.2535  -14.6579   21.7392 O   0  0  0  0  0  0  0  0  0  0  0  0
    6.4422  -11.6260   26.8170 C   0  0  0  0  0  0  0  0  0  0  0  0
    7.4516  -12.6079   26.2127 C   0  0  1  0  0  0  0  0  0  0  0  0
    7.4411  -13.8243   27.1530 C   0  0  0  0  0  0  0  0  0  0  0  0
    6.9642  -12.9933   24.8634 C   0  0  0  0  0  0  0  0  0  0  0  0
    7.8913  -13.8483   24.0684 C   0  0  2  0  0  0  0  0  0  0  0  0
    7.2578  -14.2030   22.7921 N   0  0  0  0  0  0  0  0  0  0  0  0
    8.3435  -15.0728   24.7799 C   0  0  0  0  0  0  0  0  0  0  0  0
    7.5024  -15.9314   25.1447 O   0  0  0  0  0  0  0  0  0  0  0  0
    9.7090  -15.3270   25.0746 N   0  0  0  0  0  0  0  0  0  0  0  0
   10.0869  -16.5557   25.7162 C   0  0  1  0  0  0  0  0  0  0  0  0
   11.3841  -17.1044   25.2083 C   0  0  0  0  0  0  0  0  0  0  0  0
   11.3506  -17.5434   23.7958 C   0  0  0  0  0  0  0  0  0  0  0  0
   10.2698  -17.7661   22.9597 C   0  0  0  0  0  0  0  0  0  0  0  0
   10.7438  -18.1697   21.7742 N   0  0  0  0  0  0  0  0  0  0  0  0
   12.0793  -18.2147   21.8164 C   0  0  0  0  0  0  0  0  0  0  0  0
   12.4415  -17.8383   23.0310 N   0  0  0  0  0  0  0  0  0  0  0  0
   10.0990  -16.4226   27.2039 C   0  0  0  0  0  0  0  0  0  0  0  0
    9.8617  -15.2471   27.6538 O   0  0  0  0  0  0  0  0  0  0  0  0
   10.3421  -17.4646   28.0652 O   0  0  0  0  0  0  0  0  0  0  0  0
  1  2  1  0
  2  3  1  0
  3  4  1  1
  5  3  1  0
  5  6  1  6
  7  8  2  0
  7  5  1  0
 10  9  1  1
 10 12  1  0
 11 10  1  0
 13 12  1  1
 13 14  1  0
 14  7  1  0
 15 17  1  0
 15 13  1  0
 16 15  2  0
 18 17  1  0
 18 25  1  0
 19 20  1  0
 18 19  1  6
 20 21  2  0
 21 22  1  0
 23 22  1  0
 24 20  1  0
 24 23  2  0
 25 27  1  0
 26 25  2  0
M  END
$$$$
