ILH.pdb
     RDKit          3D

 27 27  0  0  1  0  0  0  0  0999 V2000
    7.5604  -18.1009   18.7257 C   0  0  0  0  0  0  0  0  0  0  0  0
    7.6719  -16.6731   19.1646 C   0  0  0  0  0  0  0  0  0  0  0  0
    8.0244  -16.5428   20.6301 C   0  0  2  0  0  0  0  0  0  0  0  0
    7.0334  -17.3143   21.4534 C   0  0  0  0  0  0  0  0  0  0  0  0
    8.0243  -15.0953   21.0688 C   0  0  2  0  0  0  0  0  0  0  0  0
    8.8782  -14.3252   20.1866 N   0  0  0  0  0  0  0  0  0  0  0  0
    8.5142  -14.9756   22.4881 C   0  0  0  0  0  0  0  0  0  0  0  0
    9.7303  -15.1719   22.7611 O   0  0  0  0  0  0  0  0  0  0  0  0
    5.6192  -12.0768   26.3623 C   0  0  0  0  0  0  0  0  0  0  0  0
    6.7973  -12.5658   25.5130 C   0  0  1  0  0  0  0  0  0  0  0  0
    8.0093  -11.7571   26.0039 C   0  0  0  0  0  0  0  0  0  0  0  0
    6.9935  -14.0117   25.7913 C   0  0  0  0  0  0  0  0  0  0  0  0
    8.0303  -14.6881   24.9606 C   0  0  2  0  0  0  0  0  0  0  0  0
    7.6330  -14.6421   23.5477 N   0  0  0  0  0  0  0  0  0  0  0  0
    8.3161  -16.0875   25.3727 C   0  0  0  0  0  0  0  0  0  0  0  0
    7.6239  -17.0293   24.9128 O   0  0  0  0  0  0  0  0  0  0  0  0
    9.3556  -16.4214   26.2804 N   0  0  0  0  0  0  0  0  0  0  0  0
   10.1403  -17.6058   26.0671 C   0  0  1  0  0  0  0  0  0  0  0  0
   10.6947  -17.6967   24.6793 C   0  0  0  0  0  0  0  0  0  0  0  0
   11.4725  -18.9266   24.4114 C   0  0  0  0  0  0  0  0  0  0  0  0
   11.7747  -19.9870   25.2485 C   0  0  0  0  0  0  0  0  0  0  0  0
   12.5192  -20.8581   24.5558 N   0  0  0  0  0  0  0  0  0  0  0  0
   12.7057  -20.4007   23.3135 C   0  0  0  0  0  0  0  0  0  0  0  0
   12.0764  -19.2410   23.2290 N   0  0  0  0  0  0  0  0  0  0  0  0
   11.2172  -17.7487   27.0923 C   0  0  0  0  0  0  0  0  0  0  0  0
   11.9438  -18.7981   26.9854 O   0  0  0  0  0  0  0  0  0  0  0  0
   11.4465  -16.8393   28.0959 O   0  0  0  0  0  0  0  0  0  0  0  0
  1  2  1  0
  2  3  1  0
  3  4  1  1
  5  3  1  0
  5  6  1  6
  7  8  2  0
  7  5  1  0
 10  9  1  1
 10 12  1  0
 11 10  1  0
 13 12  1  1
 13 14  1  0
 14  7  1  0
 15 17  1  0
 15 13  1  0
 16 15  2  0
 18 17  1  0
 18 25  1  0
 19 20  1  0
 18 19  1  6
 20 21  2  0
 21 22  1  0
 23 22  1  0
 24 20  1  0
 24 23  2  0
 25 27  1  0
 26 25  2  0
M  END
$$$$
