ILH.pdb
     RDKit          3D

 27 27  0  0  1  0  0  0  0  0999 V2000
    9.0281  -20.1783   20.6060 C   0  0  0  0  0  0  0  0  0  0  0  0
    8.8340  -18.7003   20.4597 C   0  0  0  0  0  0  0  0  0  0  0  0
    9.0054  -17.9606   21.7683 C   0  0  2  0  0  0  0  0  0  0  0  0
    8.0777  -18.5415   22.7963 C   0  0  0  0  0  0  0  0  0  0  0  0
    8.7170  -16.4847   21.6071 C   0  0  2  0  0  0  0  0  0  0  0  0
    9.5375  -15.9479   20.5397 N   0  0  0  0  0  0  0  0  0  0  0  0
    9.0018  -15.7496   22.8905 C   0  0  0  0  0  0  0  0  0  0  0  0
   10.1917  -15.5327   23.2500 O   0  0  0  0  0  0  0  0  0  0  0  0
    5.8684  -11.8733   26.3974 C   0  0  0  0  0  0  0  0  0  0  0  0
    7.1592  -12.3675   25.7356 C   0  0  1  0  0  0  0  0  0  0  0  0
    8.2336  -12.2744   26.8314 C   0  0  0  0  0  0  0  0  0  0  0  0
    6.9542  -13.7822   25.3315 C   0  0  0  0  0  0  0  0  0  0  0  0
    8.1908  -14.5267   24.9585 C   0  0  2  0  0  0  0  0  0  0  0  0
    7.9529  -15.2845   23.7235 N   0  0  0  0  0  0  0  0  0  0  0  0
    8.7003  -15.4255   26.0274 C   0  0  0  0  0  0  0  0  0  0  0  0
    7.9442  -16.2951   26.5271 O   0  0  0  0  0  0  0  0  0  0  0  0
   10.0286  -15.3494   26.5233 N   0  0  0  0  0  0  0  0  0  0  0  0
   10.4506  -16.2271   27.5794 C   0  0  1  0  0  0  0  0  0  0  0  0
   11.8070  -16.8152   27.3427 C   0  0  0  0  0  0  0  0  0  0  0  0
   11.8762  -17.7509   26.1986 C   0  0  0  0  0  0  0  0  0  0  0  0
   11.0495  -18.8104   25.8659 C   0  0  0  0  0  0  0  0  0  0  0  0
   11.5285  -19.3697   24.7475 N   0  0  0  0  0  0  0  0  0  0  0  0
   12.6243  -18.7142   24.3515 C   0  0  0  0  0  0  0  0  0  0  0  0
   12.8312  -17.7427   25.2241 N   0  0  0  0  0  0  0  0  0  0  0  0
   10.3721  -15.5638   28.9154 C   0  0  0  0  0  0  0  0  0  0  0  0
   10.6713  -16.3045   29.9166 O   0  0  0  0  0  0  0  0  0  0  0  0
   10.0099  -14.2519   29.1004 O   0  0  0  0  0  0  0  0  0  0  0  0
  1  2  1  0
  2  3  1  0
  3  4  1  1
  5  3  1  0
  5  6  1  6
  7  8  2  0
  7  5  1  0
 10  9  1  1
 10 12  1  0
 11 10  1  0
 13 12  1  1
 13 14  1  0
 14  7  1  0
 15 17  1  0
 15 13  1  0
 16 15  2  0
 18 17  1  0
 18 25  1  0
 19 20  1  0
 18 19  1  6
 20 21  2  0
 21 22  1  0
 23 22  1  0
 24 20  1  0
 24 23  2  0
 25 27  1  0
 26 25  2  0
M  END
$$$$
