ILH.pdb
     RDKit          3D

 27 27  0  0  1  0  0  0  0  0999 V2000
    7.5642  -19.2418   19.7337 C   0  0  0  0  0  0  0  0  0  0  0  0
    8.0111  -17.8125   19.7003 C   0  0  0  0  0  0  0  0  0  0  0  0
    8.1278  -17.2089   21.0827 C   0  0  2  0  0  0  0  0  0  0  0  0
    6.7933  -17.2683   21.7687 C   0  0  0  0  0  0  0  0  0  0  0  0
    8.5965  -15.7724   21.0174 C   0  0  2  0  0  0  0  0  0  0  0  0
    9.7801  -15.6898   20.1849 N   0  0  0  0  0  0  0  0  0  0  0  0
    8.9052  -15.2562   22.3983 C   0  0  0  0  0  0  0  0  0  0  0  0
   10.0718  -15.3540   22.8690 O   0  0  0  0  0  0  0  0  0  0  0  0
    5.9375  -12.4201   26.9421 C   0  0  0  0  0  0  0  0  0  0  0  0
    7.2622  -12.4075   26.1719 C   0  0  1  0  0  0  0  0  0  0  0  0
    8.2622  -13.1411   27.0806 C   0  0  0  0  0  0  0  0  0  0  0  0
    7.0639  -13.1609   24.9071 C   0  0  0  0  0  0  0  0  0  0  0  0
    8.1862  -14.0608   24.5158 C   0  0  2  0  0  0  0  0  0  0  0  0
    7.9051  -14.6516   23.2012 N   0  0  0  0  0  0  0  0  0  0  0  0
    8.4809  -15.1261   25.5098 C   0  0  0  0  0  0  0  0  0  0  0  0
    8.7487  -14.8174   26.6975 O   0  0  0  0  0  0  0  0  0  0  0  0
    8.4748  -16.5065   25.1774 N   0  0  0  0  0  0  0  0  0  0  0  0
    8.7246  -17.4898   26.1947 C   0  0  1  0  0  0  0  0  0  0  0  0
    8.8491  -18.8777   25.6471 C   0  0  0  0  0  0  0  0  0  0  0  0
    7.6881  -19.3250   24.8462 C   0  0  0  0  0  0  0  0  0  0  0  0
    6.4467  -18.7366   24.6753 C   0  0  0  0  0  0  0  0  0  0  0  0
    5.7251  -19.5263   23.8699 N   0  0  0  0  0  0  0  0  0  0  0  0
    6.4509  -20.5928   23.5191 C   0  0  0  0  0  0  0  0  0  0  0  0
    7.6291  -20.4699   24.1063 N   0  0  0  0  0  0  0  0  0  0  0  0
    9.9060  -17.1297   27.0347 C   0  0  0  0  0  0  0  0  0  0  0  0
    9.7602  -17.3064   28.2949 O   0  0  0  0  0  0  0  0  0  0  0  0
   11.0861  -16.6410   26.5296 O   0  0  0  0  0  0  0  0  0  0  0  0
  1  2  1  0
  2  3  1  0
  3  4  1  6
  5  3  1  0
  5  6  1  6
  7  8  2  0
  7  5  1  0
 10  9  1  1
 10 12  1  0
 11 10  1  0
 13 12  1  1
 13 14  1  0
 14  7  1  0
 15 17  1  0
 15 13  1  0
 16 15  2  0
 18 17  1  0
 18 25  1  0
 19 20  1  0
 18 19  1  6
 20 21  2  0
 21 22  1  0
 23 22  1  0
 24 20  1  0
 24 23  2  0
 25 27  1  0
 26 25  2  0
M  END
$$$$
