ILH.pdb
     RDKit          3D

 27 27  0  0  1  0  0  0  0  0999 V2000
   12.1422  -15.2546   29.1584 C   0  0  0  0  0  0  0  0  0  0  0  0
   10.8631  -16.0336   29.1326 C   0  0  0  0  0  0  0  0  0  0  0  0
   10.2358  -16.0732   27.7564 C   0  0  2  0  0  0  0  0  0  0  0  0
   10.1604  -14.6801   27.2009 C   0  0  0  0  0  0  0  0  0  0  0  0
    8.8479  -16.6725   27.8021 C   0  0  2  0  0  0  0  0  0  0  0  0
    8.9383  -18.0666   28.1880 N   0  0  0  0  0  0  0  0  0  0  0  0
    8.1799  -16.5561   26.4572 C   0  0  0  0  0  0  0  0  0  0  0  0
    7.9701  -17.5858   25.7587 O   0  0  0  0  0  0  0  0  0  0  0  0
    6.4282  -11.4296   25.2001 C   0  0  0  0  0  0  0  0  0  0  0  0
    6.9064  -12.8206   25.6302 C   0  0  1  0  0  0  0  0  0  0  0  0
    6.3080  -13.0361   27.0299 C   0  0  0  0  0  0  0  0  0  0  0  0
    6.3520  -13.8118   24.6727 C   0  0  0  0  0  0  0  0  0  0  0  0
    6.9870  -15.1602   24.7085 C   0  0  2  0  0  0  0  0  0  0  0  0
    7.7713  -15.3000   25.9419 N   0  0  0  0  0  0  0  0  0  0  0  0
    7.8299  -15.4626   23.5219 C   0  0  0  0  0  0  0  0  0  0  0  0
    7.2879  -15.7326   22.4214 O   0  0  0  0  0  0  0  0  0  0  0  0
    9.2489  -15.4616   23.5704 N   0  0  0  0  0  0  0  0  0  0  0  0
   10.0055  -15.8787   22.4224 C   0  0  1  0  0  0  0  0  0  0  0  0
   10.3200  -14.7509   21.4893 C   0  0  0  0  0  0  0  0  0  0  0  0
    9.1940  -14.3456   20.6192 C   0  0  0  0  0  0  0  0  0  0  0  0
    8.3040  -15.1228   19.8977 C   0  0  0  0  0  0  0  0  0  0  0  0
    7.4713  -14.2989   19.2490 N   0  0  0  0  0  0  0  0  0  0  0  0
    7.7903  -13.0302   19.5243 C   0  0  0  0  0  0  0  0  0  0  0  0
    8.8248  -13.0605   20.3471 N   0  0  0  0  0  0  0  0  0  0  0  0
   11.2416  -16.6205   22.8135 C   0  0  0  0  0  0  0  0  0  0  0  0
   11.4264  -16.7575   24.0735 O   0  0  0  0  0  0  0  0  0  0  0  0
   12.1427  -17.1373   21.9148 O   0  0  0  0  0  0  0  0  0  0  0  0
  1  2  1  0
  2  3  1  0
  3  4  1  1
  5  3  1  0
  5  6  1  6
  7  8  2  0
  7  5  1  0
 10  9  1  6
 10 12  1  0
 11 10  1  0
 13 12  1  6
 13 14  1  0
 14  7  1  0
 15 17  1  0
 15 13  1  0
 16 15  2  0
 18 17  1  0
 18 25  1  0
 19 20  1  0
 18 19  1  1
 20 21  2  0
 21 22  1  0
 23 22  1  0
 24 20  1  0
 24 23  2  0
 25 27  1  0
 26 25  2  0
M  END
$$$$
