ILH.pdb
     RDKit          3D

 27 27  0  0  1  0  0  0  0  0999 V2000
    7.6505  -11.0309   26.9196 C   0  0  0  0  0  0  0  0  0  0  0  0
    7.9340  -12.5015   26.9365 C   0  0  0  0  0  0  0  0  0  0  0  0
    7.2659  -13.2341   25.7937 C   0  0  2  0  0  0  0  0  0  0  0  0
    5.7860  -12.9833   25.8361 C   0  0  0  0  0  0  0  0  0  0  0  0
    7.5264  -14.7222   25.8678 C   0  0  2  0  0  0  0  0  0  0  0  0
    8.7182  -14.9633   26.6565 N   0  0  0  0  0  0  0  0  0  0  0  0
    7.7027  -15.2950   24.4860 C   0  0  0  0  0  0  0  0  0  0  0  0
    7.0666  -16.3278   24.1384 O   0  0  0  0  0  0  0  0  0  0  0  0
    6.4883  -14.2788   20.8754 C   0  0  0  0  0  0  0  0  0  0  0  0
    7.8402  -14.0877   20.1794 C   0  0  1  0  0  0  0  0  0  0  0  0
    7.7676  -12.6926   19.5371 C   0  0  0  0  0  0  0  0  0  0  0  0
    8.9000  -14.1234   21.2196 C   0  0  0  0  0  0  0  0  0  0  0  0
    8.7974  -15.2423   22.1993 C   0  0  2  0  0  0  0  0  0  0  0  0
    8.5787  -14.6970   23.5450 N   0  0  0  0  0  0  0  0  0  0  0  0
    9.9688  -16.1576   22.1958 C   0  0  0  0  0  0  0  0  0  0  0  0
   10.2717  -16.7826   21.1492 O   0  0  0  0  0  0  0  0  0  0  0  0
   10.7813  -16.3659   23.3414 N   0  0  0  0  0  0  0  0  0  0  0  0
   11.8340  -17.3429   23.3053 C   0  0  1  0  0  0  0  0  0  0  0  0
   11.3519  -18.7067   22.9188 C   0  0  0  0  0  0  0  0  0  0  0  0
   10.6328  -19.4276   23.9924 C   0  0  0  0  0  0  0  0  0  0  0  0
   10.3414  -19.0329   25.2870 C   0  0  0  0  0  0  0  0  0  0  0  0
    9.6863  -20.0362   25.8847 N   0  0  0  0  0  0  0  0  0  0  0  0
    9.5467  -21.0539   25.0291 C   0  0  0  0  0  0  0  0  0  0  0  0
   10.1157  -20.6863   23.8936 N   0  0  0  0  0  0  0  0  0  0  0  0
   12.9687  -16.9027   22.4394 C   0  0  0  0  0  0  0  0  0  0  0  0
   14.0272  -16.5379   23.0616 O   0  0  0  0  0  0  0  0  0  0  0  0
   12.9213  -16.8773   21.0669 O   0  0  0  0  0  0  0  0  0  0  0  0
  1  2  1  0
  2  3  1  0
  3  4  1  1
  5  3  1  0
  5  6  1  1
  7  8  2  0
  7  5  1  0
 10  9  1  1
 10 12  1  0
 11 10  1  0
 13 12  1  6
 13 14  1  0
 14  7  1  0
 15 17  1  0
 15 13  1  0
 16 15  2  0
 18 17  1  0
 18 25  1  0
 19 20  1  0
 18 19  1  6
 20 21  2  0
 21 22  1  0
 23 22  1  0
 24 20  1  0
 24 23  2  0
 25 27  1  0
 26 25  2  0
M  END
$$$$
