ILH.pdb
     RDKit          3D

 27 27  0  0  1  0  0  0  0  0999 V2000
    7.2226  -11.1846   27.0452 C   0  0  0  0  0  0  0  0  0  0  0  0
    7.9102  -12.5093   26.9192 C   0  0  0  0  0  0  0  0  0  0  0  0
    7.4082  -13.3134   25.7400 C   0  0  2  0  0  0  0  0  0  0  0  0
    5.9447  -13.5996   25.9165 C   0  0  0  0  0  0  0  0  0  0  0  0
    8.1628  -14.6169   25.6025 C   0  0  2  0  0  0  0  0  0  0  0  0
    9.5634  -14.3961   25.9031 N   0  0  0  0  0  0  0  0  0  0  0  0
    8.0191  -15.1634   24.2063 C   0  0  0  0  0  0  0  0  0  0  0  0
    7.0937  -15.9763   23.9324 O   0  0  0  0  0  0  0  0  0  0  0  0
    8.2393  -11.9286   20.1476 C   0  0  0  0  0  0  0  0  0  0  0  0
    7.8928  -13.0893   21.0862 C   0  0  1  0  0  0  0  0  0  0  0  0
    6.4710  -13.5175   20.6876 C   0  0  0  0  0  0  0  0  0  0  0  0
    8.8559  -14.1904   20.8281 C   0  0  0  0  0  0  0  0  0  0  0  0
    8.8170  -15.3164   21.8043 C   0  0  2  0  0  0  0  0  0  0  0  0
    8.9094  -14.7846   23.1698 N   0  0  0  0  0  0  0  0  0  0  0  0
    9.8634  -16.3479   21.5786 C   0  0  0  0  0  0  0  0  0  0  0  0
    9.8500  -17.0334   20.5262 O   0  0  0  0  0  0  0  0  0  0  0  0
   10.9010  -16.6034   22.5135 N   0  0  0  0  0  0  0  0  0  0  0  0
   11.9240  -17.5636   22.2041 C   0  0  1  0  0  0  0  0  0  0  0  0
   13.2350  -16.9287   21.8578 C   0  0  0  0  0  0  0  0  0  0  0  0
   13.1714  -15.9699   20.7327 C   0  0  0  0  0  0  0  0  0  0  0  0
   12.5239  -16.0724   19.5133 C   0  0  0  0  0  0  0  0  0  0  0  0
   12.7729  -14.9539   18.8206 N   0  0  0  0  0  0  0  0  0  0  0  0
   13.5508  -14.1418   19.5437 C   0  0  0  0  0  0  0  0  0  0  0  0
   13.7887  -14.7538   20.6913 N   0  0  0  0  0  0  0  0  0  0  0  0
   12.0812  -18.5753   23.2917 C   0  0  0  0  0  0  0  0  0  0  0  0
   11.2609  -18.4652   24.2692 O   0  0  0  0  0  0  0  0  0  0  0  0
   13.0264  -19.5718   23.2816 O   0  0  0  0  0  0  0  0  0  0  0  0
  1  2  1  0
  2  3  1  0
  3  4  1  1
  5  3  1  0
  5  6  1  6
  7  8  2  0
  7  5  1  0
 10  9  1  6
 10 12  1  0
 11 10  1  0
 13 12  1  6
 13 14  1  0
 14  7  1  0
 15 17  1  0
 15 13  1  0
 16 15  2  0
 18 17  1  0
 18 25  1  0
 19 20  1  0
 18 19  1  1
 20 21  2  0
 21 22  1  0
 23 22  1  0
 24 20  1  0
 24 23  2  0
 25 27  1  0
 26 25  2  0
M  END
$$$$
