HPQ.pdb
     RDKit          3D

 27 28  0  0  1  0  0  0  0  0999 V2000
   21.5185  -21.4217  -13.9366 N   0  0  0  0  0  0  0  0  0  0  0  0
   21.0942  -20.6876  -12.7428 C   0  0  1  0  0  0  0  0  0  0  0  0
   19.7683  -20.0461  -13.1512 C   0  0  0  0  0  0  0  0  0  0  0  0
   19.9455  -19.0767  -14.2425 C   0  0  0  0  0  0  0  0  0  0  0  0
   20.0289  -19.2703  -15.5931 C   0  0  0  0  0  0  0  0  0  0  0  0
   20.1909  -18.0720  -16.1847 N   0  0  0  0  0  0  0  0  0  0  0  0
   20.2128  -17.1139  -15.2366 C   0  0  0  0  0  0  0  0  0  0  0  0
   20.0637  -17.7346  -14.0694 N   0  0  0  0  0  0  0  0  0  0  0  0
   20.8996  -21.6027  -11.5982 C   0  0  0  0  0  0  0  0  0  0  0  0
   20.0151  -22.4896  -11.7053 O   0  0  0  0  0  0  0  0  0  0  0  0
   21.6594  -21.5162  -10.4114 N   0  0  0  0  0  0  0  0  0  0  0  0
   23.0330  -20.9738  -10.4170 C   0  0  0  0  0  0  0  0  0  0  0  0
   22.9233  -19.9677   -9.3170 C   0  0  0  0  0  0  0  0  0  0  0  0
   22.1059  -20.7503   -8.2798 C   0  0  0  0  0  0  0  0  0  0  0  0
   21.4429  -21.8936   -9.0695 C   0  0  1  0  0  0  0  0  0  0  0  0
   20.0662  -21.9741   -8.5827 C   0  0  0  0  0  0  0  0  0  0  0  0
   19.0813  -21.3089   -8.9811 O   0  0  0  0  0  0  0  0  0  0  0  0
   15.4083  -23.4618  -10.1431 N   0  0  0  0  0  0  0  0  0  0  0  0
   15.6219  -24.0210   -8.8590 C   0  0  0  0  0  0  0  0  0  0  0  0
   14.8052  -23.7637   -7.9486 O   0  0  0  0  0  0  0  0  0  0  0  0
   16.7710  -24.8758   -8.6116 C   0  0  0  0  0  0  0  0  0  0  0  0
   18.1045  -24.2257   -8.5846 C   0  0  0  0  0  0  0  0  0  0  0  0
   18.4278  -23.4487   -7.3352 C   0  0  2  0  0  0  0  0  0  0  0  0
   19.7781  -22.9096   -7.5319 N   0  0  0  0  0  0  0  0  0  0  0  0
   18.3870  -24.3112   -6.1278 C   0  0  0  0  0  0  0  0  0  0  0  0
   17.3336  -24.4089   -5.4586 O   0  0  0  0  0  0  0  0  0  0  0  0
   19.5021  -25.0167   -5.7237 O   0  0  0  0  0  0  0  0  0  0  0  0
  2  1  1  6
  2  9  1  0
  3  2  1  0
  4  5  2  0
  4  3  1  0
  6  5  1  0
  7  8  2  0
  7  6  1  0
  8  4  1  0
  9 11  1  0
 10  9  2  0
 11 15  1  0
 11 12  1  0
 12 13  1  0
 14 15  1  0
 14 13  1  0
 15 16  1  1
 16 17  2  0
 18 19  1  0
 19 21  1  0
 20 19  2  0
 21 22  1  0
 23 22  1  6
 23 24  1  0
 24 16  1  0
 25 23  1  0
 26 25  2  0
 27 25  1  0
M  END
$$$$
