HPQ.pdb
     RDKit          3D

 27 28  0  0  1  0  0  0  0  0999 V2000
   19.2865  -12.8426  -16.5719 N   0  0  0  0  0  0  0  0  0  0  0  0
   19.1468  -11.4234  -16.9043 C   0  0  1  0  0  0  0  0  0  0  0  0
   17.6388  -11.2217  -17.0511 C   0  0  0  0  0  0  0  0  0  0  0  0
   17.0974  -11.9723  -18.1936 C   0  0  0  0  0  0  0  0  0  0  0  0
   17.4779  -11.9813  -19.5065 C   0  0  0  0  0  0  0  0  0  0  0  0
   16.6771  -12.8323  -20.1749 N   0  0  0  0  0  0  0  0  0  0  0  0
   15.7901  -13.3687  -19.3130 C   0  0  0  0  0  0  0  0  0  0  0  0
   16.0554  -12.8407  -18.1211 N   0  0  0  0  0  0  0  0  0  0  0  0
   19.6840  -10.5698  -15.8236 C   0  0  0  0  0  0  0  0  0  0  0  0
   18.9241  -10.3060  -14.8574 O   0  0  0  0  0  0  0  0  0  0  0  0
   20.9968  -10.0510  -15.8392 N   0  0  0  0  0  0  0  0  0  0  0  0
   22.0796  -10.7242  -16.5845 C   0  0  0  0  0  0  0  0  0  0  0  0
   22.6119   -9.5718  -17.3737 C   0  0  0  0  0  0  0  0  0  0  0  0
   22.5971   -8.4574  -16.3183 C   0  0  0  0  0  0  0  0  0  0  0  0
   21.6326   -8.9517  -15.2247 C   0  0  1  0  0  0  0  0  0  0  0  0
   20.8181   -7.7953  -14.8531 C   0  0  0  0  0  0  0  0  0  0  0  0
   19.8908   -7.2763  -15.5179 O   0  0  0  0  0  0  0  0  0  0  0  0
   18.0565   -7.1436   -9.6873 N   0  0  0  0  0  0  0  0  0  0  0  0
   17.6446   -7.5639  -10.9761 C   0  0  0  0  0  0  0  0  0  0  0  0
   16.6193   -8.2713  -11.0779 O   0  0  0  0  0  0  0  0  0  0  0  0
   18.4048   -7.1772  -12.1530 C   0  0  0  0  0  0  0  0  0  0  0  0
   19.6015   -6.3273  -11.9363 C   0  0  0  0  0  0  0  0  0  0  0  0
   20.3691   -5.9507  -13.1765 C   0  0  2  0  0  0  0  0  0  0  0  0
   21.0855   -7.1617  -13.5924 N   0  0  0  0  0  0  0  0  0  0  0  0
   21.3278   -4.8483  -12.9138 C   0  0  0  0  0  0  0  0  0  0  0  0
   22.5392   -5.0991  -12.7225 O   0  0  0  0  0  0  0  0  0  0  0  0
   20.9041   -3.5355  -12.8761 O   0  0  0  0  0  0  0  0  0  0  0  0
  2  1  1  1
  2  9  1  0
  3  2  1  0
  4  5  2  0
  4  3  1  0
  6  5  1  0
  7  8  2  0
  7  6  1  0
  8  4  1  0
  9 11  1  0
 10  9  2  0
 11 15  1  0
 11 12  1  0
 12 13  1  0
 14 15  1  0
 14 13  1  0
 15 16  1  6
 16 17  2  0
 18 19  1  0
 19 21  1  0
 20 19  2  0
 21 22  1  0
 23 22  1  1
 23 24  1  0
 24 16  1  0
 25 23  1  0
 26 25  2  0
 27 25  1  0
M  END
$$$$
