HPQ.pdb
     RDKit          3D

 27 28  0  0  1  0  0  0  0  0999 V2000
   25.5646  -20.6301  -19.5255 N   0  0  0  0  0  0  0  0  0  0  0  0
   25.2861  -19.6302  -18.4927 C   0  0  1  0  0  0  0  0  0  0  0  0
   23.7633  -19.4987  -18.5022 C   0  0  0  0  0  0  0  0  0  0  0  0
   23.2872  -18.7650  -19.6841 C   0  0  0  0  0  0  0  0  0  0  0  0
   22.7097  -19.2219  -20.8357 C   0  0  0  0  0  0  0  0  0  0  0  0
   22.4461  -18.1651  -21.6269 N   0  0  0  0  0  0  0  0  0  0  0  0
   22.8448  -17.0390  -21.0022 C   0  0  0  0  0  0  0  0  0  0  0  0
   23.3504  -17.4160  -19.8308 N   0  0  0  0  0  0  0  0  0  0  0  0
   25.7615  -20.0872  -17.1697 C   0  0  0  0  0  0  0  0  0  0  0  0
   25.5463  -21.2853  -16.8553 O   0  0  0  0  0  0  0  0  0  0  0  0
   26.4365  -19.2399  -16.2644 N   0  0  0  0  0  0  0  0  0  0  0  0
   27.3548  -18.1852  -16.7392 C   0  0  0  0  0  0  0  0  0  0  0  0
   26.8147  -17.0094  -15.9908 C   0  0  0  0  0  0  0  0  0  0  0  0
   26.5503  -17.6312  -14.6125 C   0  0  0  0  0  0  0  0  0  0  0  0
   26.5058  -19.1504  -14.8583 C   0  0  1  0  0  0  0  0  0  0  0  0
   25.3793  -19.6529  -14.0727 C   0  0  0  0  0  0  0  0  0  0  0  0
   24.1634  -19.6025  -14.3732 O   0  0  0  0  0  0  0  0  0  0  0  0
   26.1297  -21.0926   -7.8963 N   0  0  0  0  0  0  0  0  0  0  0  0
   24.7934  -21.4785   -8.1665 C   0  0  0  0  0  0  0  0  0  0  0  0
   24.0854  -21.8920   -7.2233 O   0  0  0  0  0  0  0  0  0  0  0  0
   24.2628  -21.3934   -9.5169 C   0  0  0  0  0  0  0  0  0  0  0  0
   25.1954  -20.9542  -10.5840 C   0  0  0  0  0  0  0  0  0  0  0  0
   24.5933  -20.8008  -11.9562 C   0  0  2  0  0  0  0  0  0  0  0  0
   25.6645  -20.2791  -12.8123 N   0  0  0  0  0  0  0  0  0  0  0  0
   23.4391  -19.8675  -11.9468 C   0  0  0  0  0  0  0  0  0  0  0  0
   22.2700  -20.3108  -12.0084 O   0  0  0  0  0  0  0  0  0  0  0  0
   23.6323  -18.5033  -11.8700 O   0  0  0  0  0  0  0  0  0  0  0  0
  2  1  1  6
  2  9  1  0
  3  2  1  0
  4  5  2  0
  4  3  1  0
  6  5  1  0
  7  8  2  0
  7  6  1  0
  8  4  1  0
  9 11  1  0
 10  9  2  0
 11 15  1  0
 11 12  1  0
 12 13  1  0
 14 15  1  0
 14 13  1  0
 15 16  1  1
 16 17  2  0
 18 19  1  0
 19 21  1  0
 20 19  2  0
 21 22  1  0
 23 22  1  1
 23 24  1  0
 24 16  1  0
 25 23  1  0
 26 25  2  0
 27 25  1  0
M  END
$$$$
