HPQ.pdb
     RDKit          3D

 27 28  0  0  1  0  0  0  0  0999 V2000
   18.5827  -12.6651  -16.3238 N   0  0  0  0  0  0  0  0  0  0  0  0
   18.8443  -11.2941  -16.7669 C   0  0  1  0  0  0  0  0  0  0  0  0
   17.4549  -10.7207  -17.0448 C   0  0  0  0  0  0  0  0  0  0  0  0
   16.8288  -11.3530  -18.2154 C   0  0  0  0  0  0  0  0  0  0  0  0
   16.9241  -11.0451  -19.5438 C   0  0  0  0  0  0  0  0  0  0  0  0
   16.1644  -11.9141  -20.2366 N   0  0  0  0  0  0  0  0  0  0  0  0
   15.5841  -12.7734  -19.3751 C   0  0  0  0  0  0  0  0  0  0  0  0
   15.9939  -12.4230  -18.1589 N   0  0  0  0  0  0  0  0  0  0  0  0
   19.5274  -10.5165  -15.7115 C   0  0  0  0  0  0  0  0  0  0  0  0
   18.9076  -10.3266  -14.6343 O   0  0  0  0  0  0  0  0  0  0  0  0
   20.8279   -9.9902  -15.8691 N   0  0  0  0  0  0  0  0  0  0  0  0
   21.8216  -10.6475  -16.7418 C   0  0  0  0  0  0  0  0  0  0  0  0
   22.2561   -9.4820  -17.5706 C   0  0  0  0  0  0  0  0  0  0  0  0
   22.3568   -8.3816  -16.5052 C   0  0  0  0  0  0  0  0  0  0  0  0
   21.5249   -8.8956  -15.3159 C   0  0  1  0  0  0  0  0  0  0  0  0
   20.7533   -7.7487  -14.8383 C   0  0  0  0  0  0  0  0  0  0  0  0
   19.6628   -7.3277  -15.2906 O   0  0  0  0  0  0  0  0  0  0  0  0
   18.2984   -7.4225   -9.7289 N   0  0  0  0  0  0  0  0  0  0  0  0
   18.2573   -6.0374  -10.0240 C   0  0  0  0  0  0  0  0  0  0  0  0
   17.5931   -5.2843   -9.2800 O   0  0  0  0  0  0  0  0  0  0  0  0
   18.9754   -5.5090  -11.1720 C   0  0  0  0  0  0  0  0  0  0  0  0
   19.7346   -6.4784  -11.9999 C   0  0  0  0  0  0  0  0  0  0  0  0
   20.5284   -5.8873  -13.1355 C   0  0  2  0  0  0  0  0  0  0  0  0
   21.2763   -7.0012  -13.7293 N   0  0  0  0  0  0  0  0  0  0  0  0
   21.4607   -4.8337  -12.6621 C   0  0  0  0  0  0  0  0  0  0  0  0
   21.0312   -3.6913  -12.3836 O   0  0  0  0  0  0  0  0  0  0  0  0
   22.8088   -5.0925  -12.5208 O   0  0  0  0  0  0  0  0  0  0  0  0
  2  1  1  1
  2  9  1  0
  3  2  1  0
  4  5  2  0
  4  3  1  0
  6  5  1  0
  7  8  2  0
  7  6  1  0
  8  4  1  0
  9 11  1  0
 10  9  2  0
 11 15  1  0
 11 12  1  0
 12 13  1  0
 14 15  1  0
 14 13  1  0
 15 16  1  6
 16 17  2  0
 18 19  1  0
 19 21  1  0
 20 19  2  0
 21 22  1  0
 23 22  1  1
 23 24  1  0
 24 16  1  0
 25 23  1  0
 26 25  2  0
 27 25  1  0
M  END
$$$$
