HPQ.pdb
     RDKit          3D

 27 28  0  0  1  0  0  0  0  0999 V2000
   27.4925  -21.1182  -16.6811 N   0  0  0  0  0  0  0  0  0  0  0  0
   27.1775  -20.4074  -15.4402 C   0  0  1  0  0  0  0  0  0  0  0  0
   26.8610  -18.9834  -15.8965 C   0  0  0  0  0  0  0  0  0  0  0  0
   28.0265  -18.3397  -16.5206 C   0  0  0  0  0  0  0  0  0  0  0  0
   29.3347  -18.7331  -16.5677 C   0  0  0  0  0  0  0  0  0  0  0  0
   30.0314  -17.8095  -17.2560 N   0  0  0  0  0  0  0  0  0  0  0  0
   29.1922  -16.8311  -17.6508 C   0  0  0  0  0  0  0  0  0  0  0  0
   27.9856  -17.1641  -17.2000 N   0  0  0  0  0  0  0  0  0  0  0  0
   26.0086  -21.0103  -14.7653 C   0  0  0  0  0  0  0  0  0  0  0  0
   24.9985  -21.2671  -15.4684 O   0  0  0  0  0  0  0  0  0  0  0  0
   25.9886  -21.3021  -13.3842 N   0  0  0  0  0  0  0  0  0  0  0  0
   27.2039  -21.7546  -12.6775 C   0  0  0  0  0  0  0  0  0  0  0  0
   27.2108  -20.7995  -11.5278 C   0  0  0  0  0  0  0  0  0  0  0  0
   25.7228  -20.7771  -11.1519 C   0  0  0  0  0  0  0  0  0  0  0  0
   24.9865  -21.3172  -12.3915 C   0  0  1  0  0  0  0  0  0  0  0  0
   23.8163  -20.4586  -12.5710 C   0  0  0  0  0  0  0  0  0  0  0  0
   23.8064  -19.2168  -12.7416 O   0  0  0  0  0  0  0  0  0  0  0  0
   21.6428  -18.9918  -17.0269 N   0  0  0  0  0  0  0  0  0  0  0  0
   20.5155  -18.6111  -16.2578 C   0  0  0  0  0  0  0  0  0  0  0  0
   19.6550  -17.8702  -16.7798 O   0  0  0  0  0  0  0  0  0  0  0  0
   20.3692  -19.0760  -14.8885 C   0  0  0  0  0  0  0  0  0  0  0  0
   21.4946  -19.8536  -14.3141 C   0  0  0  0  0  0  0  0  0  0  0  0
   21.3079  -20.3228  -12.8949 C   0  0  2  0  0  0  0  0  0  0  0  0
   22.5201  -21.0764  -12.5550 N   0  0  0  0  0  0  0  0  0  0  0  0
   20.1079  -21.1853  -12.7564 C   0  0  0  0  0  0  0  0  0  0  0  0
   20.1554  -22.3898  -13.0942 O   0  0  0  0  0  0  0  0  0  0  0  0
   18.9258  -20.6788  -12.2558 O   0  0  0  0  0  0  0  0  0  0  0  0
  2  1  1  6
  2  9  1  0
  3  2  1  0
  4  5  2  0
  4  3  1  0
  6  5  1  0
  7  8  2  0
  7  6  1  0
  8  4  1  0
  9 11  1  0
 10  9  2  0
 11 15  1  0
 11 12  1  0
 12 13  1  0
 14 15  1  0
 14 13  1  0
 15 16  1  6
 16 17  2  0
 18 19  1  0
 19 21  1  0
 20 19  2  0
 21 22  1  0
 23 22  1  6
 23 24  1  0
 24 16  1  0
 25 23  1  0
 26 25  2  0
 27 25  1  0
M  END
$$$$
