HPQ.pdb
     RDKit          3D

 27 28  0  0  1  0  0  0  0  0999 V2000
   29.3902  -22.6192  -18.3529 N   0  0  0  0  0  0  0  0  0  0  0  0
   28.3930  -21.5852  -18.0688 C   0  0  1  0  0  0  0  0  0  0  0  0
   27.1259  -22.0897  -18.7587 C   0  0  0  0  0  0  0  0  0  0  0  0
   27.1446  -21.8126  -20.2026 C   0  0  0  0  0  0  0  0  0  0  0  0
   27.0353  -22.6621  -21.2680 C   0  0  0  0  0  0  0  0  0  0  0  0
   27.1097  -21.9362  -22.3993 N   0  0  0  0  0  0  0  0  0  0  0  0
   27.2648  -20.6364  -22.0772 C   0  0  0  0  0  0  0  0  0  0  0  0
   27.2841  -20.5765  -20.7483 N   0  0  0  0  0  0  0  0  0  0  0  0
   28.1736  -21.4450  -16.6136 C   0  0  0  0  0  0  0  0  0  0  0  0
   27.9743  -22.4946  -15.9508 O   0  0  0  0  0  0  0  0  0  0  0  0
   28.1803  -20.1962  -15.9554 N   0  0  0  0  0  0  0  0  0  0  0  0
   28.8984  -19.0352  -16.5189 C   0  0  0  0  0  0  0  0  0  0  0  0
   27.8149  -18.0066  -16.4705 C   0  0  0  0  0  0  0  0  0  0  0  0
   27.1949  -18.2935  -15.0959 C   0  0  0  0  0  0  0  0  0  0  0  0
   27.6546  -19.7183  -14.7366 C   0  0  1  0  0  0  0  0  0  0  0  0
   26.4838  -20.3894  -14.1730 C   0  0  0  0  0  0  0  0  0  0  0  0
   25.4214  -20.6871  -14.7679 O   0  0  0  0  0  0  0  0  0  0  0  0
   24.6649  -20.9990   -8.3157 N   0  0  0  0  0  0  0  0  0  0  0  0
   25.6155  -20.2590   -9.0614 C   0  0  0  0  0  0  0  0  0  0  0  0
   25.6474  -19.0167   -8.9289 O   0  0  0  0  0  0  0  0  0  0  0  0
   26.5325  -20.9377   -9.9621 C   0  0  0  0  0  0  0  0  0  0  0  0
   25.9652  -21.9946  -10.8352 C   0  0  0  0  0  0  0  0  0  0  0  0
   25.4381  -21.5289  -12.1673 C   0  0  2  0  0  0  0  0  0  0  0  0
   26.5246  -20.7618  -12.7867 N   0  0  0  0  0  0  0  0  0  0  0  0
   24.2301  -20.6803  -12.0121 C   0  0  0  0  0  0  0  0  0  0  0  0
   23.1362  -21.1949  -11.6874 O   0  0  0  0  0  0  0  0  0  0  0  0
   24.2906  -19.3176  -12.2212 O   0  0  0  0  0  0  0  0  0  0  0  0
  2  1  1  1
  2  9  1  0
  3  2  1  0
  4  5  2  0
  4  3  1  0
  6  5  1  0
  7  8  2  0
  7  6  1  0
  8  4  1  0
  9 11  1  0
 10  9  2  0
 11 15  1  0
 11 12  1  0
 12 13  1  0
 14 15  1  0
 14 13  1  0
 15 16  1  6
 16 17  2  0
 18 19  1  0
 19 21  1  0
 20 19  2  0
 21 22  1  0
 23 22  1  1
 23 24  1  0
 24 16  1  0
 25 23  1  0
 26 25  2  0
 27 25  1  0
M  END
$$$$
