HPQ.pdb
     RDKit          3D

 27 28  0  0  1  0  0  0  0  0999 V2000
   27.3538  -21.6274  -15.7280 N   0  0  0  0  0  0  0  0  0  0  0  0
   26.8943  -20.6525  -14.7367 C   0  0  1  0  0  0  0  0  0  0  0  0
   26.6383  -19.3849  -15.5516 C   0  0  0  0  0  0  0  0  0  0  0  0
   27.8753  -18.8646  -16.1527 C   0  0  0  0  0  0  0  0  0  0  0  0
   28.7928  -17.9782  -15.6617 C   0  0  0  0  0  0  0  0  0  0  0  0
   29.7594  -17.8130  -16.5839 N   0  0  0  0  0  0  0  0  0  0  0  0
   29.4772  -18.5782  -17.6573 C   0  0  0  0  0  0  0  0  0  0  0  0
   28.3374  -19.2073  -17.3832 N   0  0  0  0  0  0  0  0  0  0  0  0
   25.6516  -21.1093  -14.0794 C   0  0  0  0  0  0  0  0  0  0  0  0
   24.6799  -21.4126  -14.8173 O   0  0  0  0  0  0  0  0  0  0  0  0
   25.5215  -21.2149  -12.6777 N   0  0  0  0  0  0  0  0  0  0  0  0
   26.6785  -21.5470  -11.8221 C   0  0  0  0  0  0  0  0  0  0  0  0
   26.5848  -20.4474  -10.8140 C   0  0  0  0  0  0  0  0  0  0  0  0
   25.0710  -20.4021  -10.5643 C   0  0  0  0  0  0  0  0  0  0  0  0
   24.4420  -21.1158  -11.7749 C   0  0  1  0  0  0  0  0  0  0  0  0
   23.2840  -20.3102  -12.1606 C   0  0  0  0  0  0  0  0  0  0  0  0
   23.2600  -19.0777  -12.3881 O   0  0  0  0  0  0  0  0  0  0  0  0
   18.3721  -21.2233  -15.5859 N   0  0  0  0  0  0  0  0  0  0  0  0
   19.4645  -22.1180  -15.4697 C   0  0  0  0  0  0  0  0  0  0  0  0
   19.3909  -23.2318  -16.0319 O   0  0  0  0  0  0  0  0  0  0  0  0
   20.6447  -21.7420  -14.7093 C   0  0  0  0  0  0  0  0  0  0  0  0
   20.6925  -20.3590  -14.1741 C   0  0  0  0  0  0  0  0  0  0  0  0
   20.8052  -20.2411  -12.6766 C   0  0  2  0  0  0  0  0  0  0  0  0
   22.0193  -20.9754  -12.3031 N   0  0  0  0  0  0  0  0  0  0  0  0
   19.6216  -20.8176  -11.9909 C   0  0  0  0  0  0  0  0  0  0  0  0
   18.5114  -20.2438  -12.0613 O   0  0  0  0  0  0  0  0  0  0  0  0
   19.7228  -21.9891  -11.2686 O   0  0  0  0  0  0  0  0  0  0  0  0
  2  1  1  6
  2  9  1  0
  3  2  1  0
  4  5  2  0
  4  3  1  0
  6  5  1  0
  7  8  2  0
  7  6  1  0
  8  4  1  0
  9 11  1  0
 10  9  2  0
 11 15  1  0
 11 12  1  0
 12 13  1  0
 14 15  1  0
 14 13  1  0
 15 16  1  6
 16 17  2  0
 18 19  1  0
 19 21  1  0
 20 19  2  0
 21 22  1  0
 23 22  1  6
 23 24  1  0
 24 16  1  0
 25 23  1  0
 26 25  2  0
 27 25  1  0
M  END
$$$$
