HPQ.pdb
     RDKit          3D

 27 28  0  0  1  0  0  0  0  0999 V2000
   28.5319  -24.8688  -16.6950 N   0  0  0  0  0  0  0  0  0  0  0  0
   27.0890  -24.8457  -16.9436 C   0  0  1  0  0  0  0  0  0  0  0  0
   26.5748  -26.1194  -16.2731 C   0  0  0  0  0  0  0  0  0  0  0  0
   27.0676  -27.3283  -16.9498 C   0  0  0  0  0  0  0  0  0  0  0  0
   28.0300  -28.2229  -16.5730 C   0  0  0  0  0  0  0  0  0  0  0  0
   28.1272  -29.1686  -17.5262 N   0  0  0  0  0  0  0  0  0  0  0  0
   27.2438  -28.8954  -18.5071 C   0  0  0  0  0  0  0  0  0  0  0  0
   26.6112  -27.7821  -18.1460 N   0  0  0  0  0  0  0  0  0  0  0  0
   26.4653  -23.6500  -16.3384 C   0  0  0  0  0  0  0  0  0  0  0  0
   26.5829  -23.4972  -15.0960 O   0  0  0  0  0  0  0  0  0  0  0  0
   25.7556  -22.6916  -17.0940 N   0  0  0  0  0  0  0  0  0  0  0  0
   25.9997  -22.5204  -18.5404 C   0  0  0  0  0  0  0  0  0  0  0  0
   24.5984  -22.5976  -19.0549 C   0  0  0  0  0  0  0  0  0  0  0  0
   23.8515  -21.7595  -18.0080 C   0  0  0  0  0  0  0  0  0  0  0  0
   24.7899  -21.7097  -16.7884 C   0  0  1  0  0  0  0  0  0  0  0  0
   23.9387  -21.9119  -15.6165 C   0  0  0  0  0  0  0  0  0  0  0  0
   23.2966  -22.9454  -15.3154 O   0  0  0  0  0  0  0  0  0  0  0  0
   25.5276  -21.1393  -10.1781 N   0  0  0  0  0  0  0  0  0  0  0  0
   24.1726  -20.8079   -9.9301 C   0  0  0  0  0  0  0  0  0  0  0  0
   23.7200  -20.9562   -8.7746 O   0  0  0  0  0  0  0  0  0  0  0  0
   23.3304  -20.3065  -11.0033 C   0  0  0  0  0  0  0  0  0  0  0  0
   23.9038  -20.3112  -12.3717 C   0  0  0  0  0  0  0  0  0  0  0  0
   23.0650  -20.9793  -13.4297 C   0  0  2  0  0  0  0  0  0  0  0  0
   23.8026  -20.8244  -14.6885 N   0  0  0  0  0  0  0  0  0  0  0  0
   21.7220  -20.3565  -13.5382 C   0  0  0  0  0  0  0  0  0  0  0  0
   21.5302  -19.4069  -14.3309 O   0  0  0  0  0  0  0  0  0  0  0  0
   20.6672  -20.8103  -12.7727 O   0  0  0  0  0  0  0  0  0  0  0  0
  2  1  1  1
  2  9  1  0
  3  2  1  0
  4  5  2  0
  4  3  1  0
  6  5  1  0
  7  8  2  0
  7  6  1  0
  8  4  1  0
  9 11  1  0
 10  9  2  0
 11 15  1  0
 11 12  1  0
 12 13  1  0
 14 15  1  0
 14 13  1  0
 15 16  1  1
 16 17  2  0
 18 19  1  0
 19 21  1  0
 20 19  2  0
 21 22  1  0
 23 22  1  1
 23 24  1  0
 24 16  1  0
 25 23  1  0
 26 25  2  0
 27 25  1  0
M  END
$$$$
