HPQ.pdb
     RDKit          3D

 27 28  0  0  1  0  0  0  0  0999 V2000
   19.1870  -12.5878  -16.4742 N   0  0  0  0  0  0  0  0  0  0  0  0
   19.3613  -11.3115  -17.1705 C   0  0  1  0  0  0  0  0  0  0  0  0
   17.9339  -10.8314  -17.4317 C   0  0  0  0  0  0  0  0  0  0  0  0
   17.2356  -11.6967  -18.3938 C   0  0  0  0  0  0  0  0  0  0  0  0
   16.3722  -12.7357  -18.1847 C   0  0  0  0  0  0  0  0  0  0  0  0
   15.9933  -13.2205  -19.3820 N   0  0  0  0  0  0  0  0  0  0  0  0
   16.5990  -12.5103  -20.3546 C   0  0  0  0  0  0  0  0  0  0  0  0
   17.3456  -11.5941  -19.7438 N   0  0  0  0  0  0  0  0  0  0  0  0
   20.0911  -10.3418  -16.3264 C   0  0  0  0  0  0  0  0  0  0  0  0
   19.5681  -10.0135  -15.2313 O   0  0  0  0  0  0  0  0  0  0  0  0
   21.3321   -9.7828  -16.7013 N   0  0  0  0  0  0  0  0  0  0  0  0
   22.2506  -10.4942  -17.6129 C   0  0  0  0  0  0  0  0  0  0  0  0
   22.5176   -9.4154  -18.6124 C   0  0  0  0  0  0  0  0  0  0  0  0
   22.6820   -8.1955  -17.6953 C   0  0  0  0  0  0  0  0  0  0  0  0
   22.0272   -8.6029  -16.3627 C   0  0  1  0  0  0  0  0  0  0  0  0
   21.2545   -7.4421  -15.9220 C   0  0  0  0  0  0  0  0  0  0  0  0
   20.3240   -6.8724  -16.5391 O   0  0  0  0  0  0  0  0  0  0  0  0
   18.0421   -7.4200  -11.1561 N   0  0  0  0  0  0  0  0  0  0  0  0
   19.2972   -6.9182  -10.7319 C   0  0  0  0  0  0  0  0  0  0  0  0
   19.5918   -6.9848   -9.5191 O   0  0  0  0  0  0  0  0  0  0  0  0
   20.2196   -6.3377  -11.6935 C   0  0  0  0  0  0  0  0  0  0  0  0
   19.8189   -6.3728  -13.1217 C   0  0  0  0  0  0  0  0  0  0  0  0
   20.7940   -5.7552  -14.0896 C   0  0  2  0  0  0  0  0  0  0  0  0
   21.5728   -6.8678  -14.6448 N   0  0  0  0  0  0  0  0  0  0  0  0
   21.6909   -4.7818  -13.4176 C   0  0  0  0  0  0  0  0  0  0  0  0
   22.8819   -5.0837  -13.1785 O   0  0  0  0  0  0  0  0  0  0  0  0
   21.2313   -3.5345  -13.0470 O   0  0  0  0  0  0  0  0  0  0  0  0
  2  1  1  1
  2  9  1  0
  3  2  1  0
  4  5  2  0
  4  3  1  0
  6  5  1  0
  7  8  2  0
  7  6  1  0
  8  4  1  0
  9 11  1  0
 10  9  2  0
 11 15  1  0
 11 12  1  0
 12 13  1  0
 14 15  1  0
 14 13  1  0
 15 16  1  6
 16 17  2  0
 18 19  1  0
 19 21  1  0
 20 19  2  0
 21 22  1  0
 23 22  1  1
 23 24  1  0
 24 16  1  0
 25 23  1  0
 26 25  2  0
 27 25  1  0
M  END
$$$$
