HPQ.pdb
     RDKit          3D

 27 28  0  0  1  0  0  0  0  0999 V2000
   20.0040  -10.2330  -15.2072 N   0  0  0  0  0  0  0  0  0  0  0  0
   19.9930   -8.7690  -15.2318 C   0  0  1  0  0  0  0  0  0  0  0  0
   18.9581   -8.4219  -16.3018 C   0  0  0  0  0  0  0  0  0  0  0  0
   19.4258   -8.7809  -17.6488 C   0  0  0  0  0  0  0  0  0  0  0  0
   20.0061   -9.9308  -18.1066 C   0  0  0  0  0  0  0  0  0  0  0  0
   20.2593   -9.7847  -19.4207 N   0  0  0  0  0  0  0  0  0  0  0  0
   19.8512   -8.5611  -19.8128 C   0  0  0  0  0  0  0  0  0  0  0  0
   19.3503   -7.9664  -18.7333 N   0  0  0  0  0  0  0  0  0  0  0  0
   19.5907   -8.2191  -13.9199 C   0  0  0  0  0  0  0  0  0  0  0  0
   18.5783   -8.7171  -13.3652 O   0  0  0  0  0  0  0  0  0  0  0  0
   20.2917   -7.1736  -13.2808 N   0  0  0  0  0  0  0  0  0  0  0  0
   21.7290   -6.9464  -13.5332 C   0  0  0  0  0  0  0  0  0  0  0  0
   21.7124   -5.4867  -13.8545 C   0  0  0  0  0  0  0  0  0  0  0  0
   20.7349   -4.9607  -12.7942 C   0  0  0  0  0  0  0  0  0  0  0  0
   19.9518   -6.1985  -12.3197 C   0  0  1  0  0  0  0  0  0  0  0  0
   18.5549   -5.7775  -12.2195 C   0  0  0  0  0  0  0  0  0  0  0  0
   17.7975   -5.4344  -13.1575 O   0  0  0  0  0  0  0  0  0  0  0  0
   14.8069   -7.9818   -7.7387 N   0  0  0  0  0  0  0  0  0  0  0  0
   14.0323   -6.9240   -8.2757 C   0  0  0  0  0  0  0  0  0  0  0  0
   12.8713   -6.7518   -7.8463 O   0  0  0  0  0  0  0  0  0  0  0  0
   14.5830   -6.0600   -9.3067 C   0  0  0  0  0  0  0  0  0  0  0  0
   15.9727   -6.3341   -9.7480 C   0  0  0  0  0  0  0  0  0  0  0  0
   16.5545   -5.3476  -10.7265 C   0  0  2  0  0  0  0  0  0  0  0  0
   17.9549   -5.7427  -10.9152 N   0  0  0  0  0  0  0  0  0  0  0  0
   16.4750   -3.9565  -10.2146 C   0  0  0  0  0  0  0  0  0  0  0  0
   15.4129   -3.3036  -10.3270 O   0  0  0  0  0  0  0  0  0  0  0  0
   17.5631   -3.3616   -9.6091 O   0  0  0  0  0  0  0  0  0  0  0  0
  2  1  1  1
  2  9  1  0
  3  2  1  0
  4  5  2  0
  4  3  1  0
  6  5  1  0
  7  8  2  0
  7  6  1  0
  8  4  1  0
  9 11  1  0
 10  9  2  0
 11 15  1  0
 11 12  1  0
 12 13  1  0
 14 15  1  0
 14 13  1  0
 15 16  1  6
 16 17  2  0
 18 19  1  0
 19 21  1  0
 20 19  2  0
 21 22  1  0
 23 22  1  1
 23 24  1  0
 24 16  1  0
 25 23  1  0
 26 25  2  0
 27 25  1  0
M  END
$$$$
