HPQ.pdb
     RDKit          3D

 27 28  0  0  1  0  0  0  0  0999 V2000
   21.0736  -14.8180  -17.7738 N   0  0  0  0  0  0  0  0  0  0  0  0
   20.8157  -13.5255  -18.4119 C   0  0  1  0  0  0  0  0  0  0  0  0
   19.3058  -13.5221  -18.6500 C   0  0  0  0  0  0  0  0  0  0  0  0
   18.8984  -14.5868  -19.5787 C   0  0  0  0  0  0  0  0  0  0  0  0
   18.4480  -15.8532  -19.3298 C   0  0  0  0  0  0  0  0  0  0  0  0
   18.2013  -16.4555  -20.5083 N   0  0  0  0  0  0  0  0  0  0  0  0
   18.4858  -15.5968  -21.5078 C   0  0  0  0  0  0  0  0  0  0  0  0
   18.9054  -14.4732  -20.9322 N   0  0  0  0  0  0  0  0  0  0  0  0
   21.2060  -12.4087  -17.5255 C   0  0  0  0  0  0  0  0  0  0  0  0
   20.4543  -12.1475  -16.5522 O   0  0  0  0  0  0  0  0  0  0  0  0
   22.3723  -11.6403  -17.7309 N   0  0  0  0  0  0  0  0  0  0  0  0
   23.5646  -12.2147  -18.3863 C   0  0  0  0  0  0  0  0  0  0  0  0
   23.8182  -11.1749  -19.4297 C   0  0  0  0  0  0  0  0  0  0  0  0
   23.5755   -9.8872  -18.6302 C   0  0  0  0  0  0  0  0  0  0  0  0
   22.7607  -10.3252  -17.3995 C   0  0  1  0  0  0  0  0  0  0  0  0
   21.7180   -9.3145  -17.2260 C   0  0  0  0  0  0  0  0  0  0  0  0
   20.7229   -9.1181  -17.9625 O   0  0  0  0  0  0  0  0  0  0  0  0
   17.1936   -9.6087  -14.5774 N   0  0  0  0  0  0  0  0  0  0  0  0
   17.1767   -8.1925  -14.6142 C   0  0  0  0  0  0  0  0  0  0  0  0
   16.1420   -7.5945  -14.2484 O   0  0  0  0  0  0  0  0  0  0  0  0
   18.3433   -7.4553  -15.0704 C   0  0  0  0  0  0  0  0  0  0  0  0
   19.5375   -8.2482  -15.4534 C   0  0  0  0  0  0  0  0  0  0  0  0
   20.7687   -7.4512  -15.7970 C   0  0  2  0  0  0  0  0  0  0  0  0
   21.8165   -8.4338  -16.0961 N   0  0  0  0  0  0  0  0  0  0  0  0
   21.1866   -6.5767  -14.6727 C   0  0  0  0  0  0  0  0  0  0  0  0
   20.5377   -5.5400  -14.4062 O   0  0  0  0  0  0  0  0  0  0  0  0
   22.2906   -6.8887  -13.9057 O   0  0  0  0  0  0  0  0  0  0  0  0
  2  1  1  1
  2  9  1  0
  3  2  1  0
  4  5  2  0
  4  3  1  0
  6  5  1  0
  7  8  2  0
  7  6  1  0
  8  4  1  0
  9 11  1  0
 10  9  2  0
 11 15  1  0
 11 12  1  0
 12 13  1  0
 14 15  1  0
 14 13  1  0
 15 16  1  6
 16 17  2  0
 18 19  1  0
 19 21  1  0
 20 19  2  0
 21 22  1  0
 23 22  1  1
 23 24  1  0
 24 16  1  0
 25 23  1  0
 26 25  2  0
 27 25  1  0
M  END
$$$$
