HPQ.pdb
     RDKit          3D

 27 28  0  0  1  0  0  0  0  0999 V2000
   27.5655  -21.1413  -15.9326 N   0  0  0  0  0  0  0  0  0  0  0  0
   27.1409  -20.2543  -14.8477 C   0  0  1  0  0  0  0  0  0  0  0  0
   26.9199  -18.9062  -15.5333 C   0  0  0  0  0  0  0  0  0  0  0  0
   28.1491  -18.4111  -16.1705 C   0  0  0  0  0  0  0  0  0  0  0  0
   28.5075  -18.3705  -17.4890 C   0  0  0  0  0  0  0  0  0  0  0  0
   29.7355  -17.8261  -17.5786 N   0  0  0  0  0  0  0  0  0  0  0  0
   30.1700  -17.5171  -16.3404 C   0  0  0  0  0  0  0  0  0  0  0  0
   29.2025  -17.8756  -15.5006 N   0  0  0  0  0  0  0  0  0  0  0  0
   25.8879  -20.7355  -14.2283 C   0  0  0  0  0  0  0  0  0  0  0  0
   24.9033  -20.9345  -14.9844 O   0  0  0  0  0  0  0  0  0  0  0  0
   25.7619  -20.9751  -12.8428 N   0  0  0  0  0  0  0  0  0  0  0  0
   26.9400  -21.2801  -12.0061 C   0  0  0  0  0  0  0  0  0  0  0  0
   26.7470  -20.2858  -10.9069 C   0  0  0  0  0  0  0  0  0  0  0  0
   25.2339  -20.3937  -10.6718 C   0  0  0  0  0  0  0  0  0  0  0  0
   24.6743  -21.0496  -11.9474 C   0  0  1  0  0  0  0  0  0  0  0  0
   23.4521  -20.3162  -12.2746 C   0  0  0  0  0  0  0  0  0  0  0  0
   23.3300  -19.0786  -12.4318 O   0  0  0  0  0  0  0  0  0  0  0  0
   19.4755  -21.9856  -16.5102 N   0  0  0  0  0  0  0  0  0  0  0  0
   18.6987  -21.0431  -15.7920 C   0  0  0  0  0  0  0  0  0  0  0  0
   17.5958  -20.6909  -16.2625 O   0  0  0  0  0  0  0  0  0  0  0  0
   19.1814  -20.4997  -14.5333 C   0  0  0  0  0  0  0  0  0  0  0  0
   20.5215  -20.9419  -14.0751 C   0  0  0  0  0  0  0  0  0  0  0  0
   20.9636  -20.4092  -12.7372 C   0  0  2  0  0  0  0  0  0  0  0  0
   22.2403  -21.0686  -12.4408 N   0  0  0  0  0  0  0  0  0  0  0  0
   19.9706  -20.7053  -11.6743 C   0  0  0  0  0  0  0  0  0  0  0  0
   19.0859  -19.8674  -11.3877 O   0  0  0  0  0  0  0  0  0  0  0  0
   20.0041  -21.9018  -10.9876 O   0  0  0  0  0  0  0  0  0  0  0  0
  2  1  1  6
  2  9  1  0
  3  2  1  0
  4  5  2  0
  4  3  1  0
  6  5  1  0
  7  8  2  0
  7  6  1  0
  8  4  1  0
  9 11  1  0
 10  9  2  0
 11 15  1  0
 11 12  1  0
 12 13  1  0
 14 15  1  0
 14 13  1  0
 15 16  1  6
 16 17  2  0
 18 19  1  0
 19 21  1  0
 20 19  2  0
 21 22  1  0
 23 22  1  6
 23 24  1  0
 24 16  1  0
 25 23  1  0
 26 25  2  0
 27 25  1  0
M  END
$$$$
