HPQ.pdb
     RDKit          3D

 27 28  0  0  1  0  0  0  0  0999 V2000
   27.5263  -20.5529  -16.9989 N   0  0  0  0  0  0  0  0  0  0  0  0
   27.3282  -20.0168  -15.6508 C   0  0  1  0  0  0  0  0  0  0  0  0
   27.1215  -18.5186  -15.8721 C   0  0  0  0  0  0  0  0  0  0  0  0
   28.3142  -17.8839  -16.4522 C   0  0  0  0  0  0  0  0  0  0  0  0
   28.5537  -17.4482  -17.7255 C   0  0  0  0  0  0  0  0  0  0  0  0
   29.7976  -16.9354  -17.7720 N   0  0  0  0  0  0  0  0  0  0  0  0
   30.3592  -17.0352  -16.5505 C   0  0  0  0  0  0  0  0  0  0  0  0
   29.4528  -17.6094  -15.7641 N   0  0  0  0  0  0  0  0  0  0  0  0
   26.1393  -20.6178  -15.0099 C   0  0  0  0  0  0  0  0  0  0  0  0
   25.0938  -20.7190  -15.7008 O   0  0  0  0  0  0  0  0  0  0  0  0
   26.1384  -21.0737  -13.6738 N   0  0  0  0  0  0  0  0  0  0  0  0
   27.3615  -21.6127  -13.0457 C   0  0  0  0  0  0  0  0  0  0  0  0
   27.3911  -20.8030  -11.7896 C   0  0  0  0  0  0  0  0  0  0  0  0
   25.9089  -20.8202  -11.3906 C   0  0  0  0  0  0  0  0  0  0  0  0
   25.1511  -21.2042  -12.6747 C   0  0  1  0  0  0  0  0  0  0  0  0
   23.9833  -20.3257  -12.7313 C   0  0  0  0  0  0  0  0  0  0  0  0
   23.9776  -19.0812  -12.8808 O   0  0  0  0  0  0  0  0  0  0  0  0
   20.7394  -20.0087  -17.0104 N   0  0  0  0  0  0  0  0  0  0  0  0
   20.1022  -19.0268  -16.2121 C   0  0  0  0  0  0  0  0  0  0  0  0
   19.2023  -18.3274  -16.7249 O   0  0  0  0  0  0  0  0  0  0  0  0
   20.4930  -18.8410  -14.8246 C   0  0  0  0  0  0  0  0  0  0  0  0
   21.6056  -19.6809  -14.3167 C   0  0  0  0  0  0  0  0  0  0  0  0
   21.4608  -20.1705  -12.8995 C   0  0  2  0  0  0  0  0  0  0  0  0
   22.6843  -20.9248  -12.6049 N   0  0  0  0  0  0  0  0  0  0  0  0
   20.2677  -21.0388  -12.7390 C   0  0  0  0  0  0  0  0  0  0  0  0
   20.3172  -22.2449  -13.0703 O   0  0  0  0  0  0  0  0  0  0  0  0
   19.0900  -20.5358  -12.2247 O   0  0  0  0  0  0  0  0  0  0  0  0
  2  1  1  6
  2  9  1  0
  3  2  1  0
  4  5  2  0
  4  3  1  0
  6  5  1  0
  7  8  2  0
  7  6  1  0
  8  4  1  0
  9 11  1  0
 10  9  2  0
 11 15  1  0
 11 12  1  0
 12 13  1  0
 14 15  1  0
 14 13  1  0
 15 16  1  6
 16 17  2  0
 18 19  1  0
 19 21  1  0
 20 19  2  0
 21 22  1  0
 23 22  1  6
 23 24  1  0
 24 16  1  0
 25 23  1  0
 26 25  2  0
 27 25  1  0
M  END
$$$$
