FHP.pdb
     RDKit          3D

 29 31  0  0  1  0  0  0  0  0999 V2000
    5.9594  -13.8059   22.2770 N   0  0  0  0  0  0  0  0  0  0  0  0
    7.3873  -13.9470   22.2712 C   0  0  1  0  0  0  0  0  0  0  0  0
    8.0327  -12.8091   23.0468 C   0  0  0  0  0  0  0  0  0  0  0  0
    7.4509  -12.6565   24.3898 C   0  0  0  0  0  0  0  0  0  0  0  0
    8.2207  -12.9502   25.4873 C   0  0  0  0  0  0  0  0  0  0  0  0
    7.6883  -12.8117   26.7414 C   0  0  0  0  0  0  0  0  0  0  0  0
    6.3884  -12.3812   26.9264 C   0  0  0  0  0  0  0  0  0  0  0  0
    5.6334  -12.0925   25.8296 C   0  0  0  0  0  0  0  0  0  0  0  0
    6.1608  -12.2290   24.5664 C   0  0  0  0  0  0  0  0  0  0  0  0
    7.8485  -15.2139   22.8935 C   0  0  0  0  0  0  0  0  0  0  0  0
    7.0257  -15.8473   23.5978 O   0  0  0  0  0  0  0  0  0  0  0  0
    9.1402  -15.7485   22.7466 N   0  0  0  0  0  0  0  0  0  0  0  0
    9.5360  -17.0599   23.2621 C   0  0  1  0  0  0  0  0  0  0  0  0
   10.7631  -17.4155   22.4316 C   0  0  0  0  0  0  0  0  0  0  0  0
   10.3772  -17.7799   21.0391 C   0  0  0  0  0  0  0  0  0  0  0  0
    9.2378  -18.4469   20.6683 C   0  0  0  0  0  0  0  0  0  0  0  0
    9.2487  -18.5871   19.3403 N   0  0  0  0  0  0  0  0  0  0  0  0
   10.3767  -18.0168   18.8890 C   0  0  0  0  0  0  0  0  0  0  0  0
   11.0699  -17.5218   19.9250 N   0  0  0  0  0  0  0  0  0  0  0  0
    9.8139  -16.9479   24.6995 C   0  0  0  0  0  0  0  0  0  0  0  0
   10.4293  -15.8790   25.0810 O   0  0  0  0  0  0  0  0  0  0  0  0
    9.4774  -17.8789   25.6854 N   0  0  0  0  0  0  0  0  0  0  0  0
    8.9175  -19.1849   25.4491 C   0  0  0  0  0  0  0  0  0  0  0  0
    7.9997  -19.3783   26.6247 C   0  0  0  0  0  0  0  0  0  0  0  0
    8.2434  -18.1881   27.5635 C   0  0  0  0  0  0  0  0  0  0  0  0
    9.6388  -17.7676   27.1020 C   0  0  1  0  0  0  0  0  0  0  0  0
   10.6757  -18.6632   27.6451 C   0  0  0  0  0  0  0  0  0  0  0  0
   11.1605  -19.5542   26.9227 O   0  0  0  0  0  0  0  0  0  0  0  0
   11.0998  -18.5115   28.9397 O   0  0  0  0  0  0  0  0  0  0  0  0
  2  1  1  1
  2 10  1  0
  2  3  1  0
  4  3  1  0
  4  9  1  0
  5  4  2  0
  6  5  1  0
  6  7  2  0
  7  8  1  0
  8  9  2  0
 10 11  2  0
 12 13  1  0
 12 10  1  0
 13 14  1  6
 14 15  1  0
 15 19  1  0
 15 16  2  0
 16 17  1  0
 18 17  1  0
 19 18  2  0
 20 13  1  0
 21 20  2  0
 22 20  1  0
 23 22  1  0
 24 25  1  0
 24 23  1  0
 25 26  1  0
 26 22  1  0
 26 27  1  1
 28 27  2  0
 29 27  1  0
M  END
$$$$
