FHP.pdb
     RDKit          3D

 29 31  0  0  1  0  0  0  0  0999 V2000
    6.8127  -17.2021   19.8402 N   0  0  0  0  0  0  0  0  0  0  0  0
    7.8821  -17.1791   20.7966 C   0  0  1  0  0  0  0  0  0  0  0  0
    8.9465  -16.1786   20.3734 C   0  0  0  0  0  0  0  0  0  0  0  0
    8.3991  -14.8212   20.2214 C   0  0  0  0  0  0  0  0  0  0  0  0
    7.8166  -14.4665   19.0303 C   0  0  0  0  0  0  0  0  0  0  0  0
    7.3045  -13.2055   18.8789 C   0  0  0  0  0  0  0  0  0  0  0  0
    7.3618  -12.2792   19.9026 C   0  0  0  0  0  0  0  0  0  0  0  0
    7.9423  -12.6423   21.0806 C   0  0  0  0  0  0  0  0  0  0  0  0
    8.4590  -13.9071   21.2407 C   0  0  0  0  0  0  0  0  0  0  0  0
    7.4357  -16.7893   22.1582 C   0  0  0  0  0  0  0  0  0  0  0  0
    6.2838  -16.3056   22.2746 O   0  0  0  0  0  0  0  0  0  0  0  0
    8.2145  -16.9255   23.3204 N   0  0  0  0  0  0  0  0  0  0  0  0
    7.7260  -16.6077   24.6630 C   0  0  1  0  0  0  0  0  0  0  0  0
    7.9451  -17.9007   25.4389 C   0  0  0  0  0  0  0  0  0  0  0  0
    6.9346  -18.9281   25.0594 C   0  0  0  0  0  0  0  0  0  0  0  0
    6.0187  -18.8195   24.0446 C   0  0  0  0  0  0  0  0  0  0  0  0
    5.2906  -19.9386   24.0168 N   0  0  0  0  0  0  0  0  0  0  0  0
    5.7444  -20.7334   24.9985 C   0  0  0  0  0  0  0  0  0  0  0  0
    6.7501  -20.1190   25.6387 N   0  0  0  0  0  0  0  0  0  0  0  0
    8.4861  -15.4695   25.1946 C   0  0  0  0  0  0  0  0  0  0  0  0
    9.6317  -15.2407   24.6450 O   0  0  0  0  0  0  0  0  0  0  0  0
    8.0906  -14.6170   26.2284 N   0  0  0  0  0  0  0  0  0  0  0  0
    6.7894  -14.5956   26.8460 C   0  0  0  0  0  0  0  0  0  0  0  0
    6.5876  -13.1391   27.1617 C   0  0  0  0  0  0  0  0  0  0  0  0
    7.9142  -12.4385   26.8356 C   0  0  0  0  0  0  0  0  0  0  0  0
    8.8689  -13.6301   26.9105 C   0  0  1  0  0  0  0  0  0  0  0  0
    9.1724  -13.9870   28.3079 C   0  0  0  0  0  0  0  0  0  0  0  0
    9.8481  -13.2109   29.0093 O   0  0  0  0  0  0  0  0  0  0  0  0
    8.7109  -15.1687   28.8270 O   0  0  0  0  0  0  0  0  0  0  0  0
  2  1  1  6
  2 10  1  0
  2  3  1  0
  4  3  1  0
  4  9  1  0
  5  4  2  0
  6  5  1  0
  6  7  2  0
  7  8  1  0
  8  9  2  0
 10 11  2  0
 12 13  1  0
 12 10  1  0
 13 14  1  1
 14 15  1  0
 15 19  1  0
 15 16  2  0
 16 17  1  0
 18 17  1  0
 19 18  2  0
 20 13  1  0
 21 20  2  0
 22 20  1  0
 23 22  1  0
 24 25  1  0
 24 23  1  0
 25 26  1  0
 26 22  1  0
 26 27  1  1
 28 27  2  0
 29 27  1  0
M  END
$$$$
