FHP.pdb
     RDKit          3D

 29 31  0  0  1  0  0  0  0  0999 V2000
    7.8835  -17.2165   19.9411 N   0  0  0  0  0  0  0  0  0  0  0  0
    8.9117  -16.9318   20.9006 C   0  0  1  0  0  0  0  0  0  0  0  0
    9.6814  -15.6846   20.4942 C   0  0  0  0  0  0  0  0  0  0  0  0
    8.7921  -14.5315   20.2827 C   0  0  0  0  0  0  0  0  0  0  0  0
    8.4190  -13.7702   21.3620 C   0  0  0  0  0  0  0  0  0  0  0  0
    7.5914  -12.6952   21.1755 C   0  0  0  0  0  0  0  0  0  0  0  0
    7.1222  -12.3591   19.9201 C   0  0  0  0  0  0  0  0  0  0  0  0
    7.4991  -13.1219   18.8559 C   0  0  0  0  0  0  0  0  0  0  0  0
    8.3301  -14.2034   19.0348 C   0  0  0  0  0  0  0  0  0  0  0  0
    8.3813  -16.6899   22.2663 C   0  0  0  0  0  0  0  0  0  0  0  0
    7.2739  -16.1080   22.3637 O   0  0  0  0  0  0  0  0  0  0  0  0
    9.0345  -17.0676   23.4522 N   0  0  0  0  0  0  0  0  0  0  0  0
    8.4933  -16.8166   24.7887 C   0  0  1  0  0  0  0  0  0  0  0  0
    8.0910  -18.2025   25.2780 C   0  0  0  0  0  0  0  0  0  0  0  0
    7.0180  -18.7802   24.4201 C   0  0  0  0  0  0  0  0  0  0  0  0
    5.6887  -18.4460   24.4600 C   0  0  0  0  0  0  0  0  0  0  0  0
    5.0464  -19.1758   23.5444 N   0  0  0  0  0  0  0  0  0  0  0  0
    5.9599  -19.9532   22.9424 C   0  0  0  0  0  0  0  0  0  0  0  0
    7.1674  -19.7143   23.4751 N   0  0  0  0  0  0  0  0  0  0  0  0
    9.5274  -16.1811   25.6149 C   0  0  0  0  0  0  0  0  0  0  0  0
   10.7440  -16.3006   25.1997 O   0  0  0  0  0  0  0  0  0  0  0  0
    9.3219  -15.4642   26.7964 N   0  0  0  0  0  0  0  0  0  0  0  0
    8.0461  -15.2253   27.4210 C   0  0  0  0  0  0  0  0  0  0  0  0
    8.2090  -13.8513   28.0104 C   0  0  0  0  0  0  0  0  0  0  0  0
    9.6816  -13.4666   27.8092 C   0  0  0  0  0  0  0  0  0  0  0  0
   10.2986  -14.8556   27.6454 C   0  0  1  0  0  0  0  0  0  0  0  0
   10.4474  -15.5330   28.9458 C   0  0  0  0  0  0  0  0  0  0  0  0
    9.6896  -16.4768   29.2393 O   0  0  0  0  0  0  0  0  0  0  0  0
   11.4162  -15.1215   29.8238 O   0  0  0  0  0  0  0  0  0  0  0  0
  2  1  1  6
  2 10  1  0
  2  3  1  0
  4  3  1  0
  4  9  1  0
  5  4  2  0
  6  5  1  0
  6  7  2  0
  7  8  1  0
  8  9  2  0
 10 11  2  0
 12 13  1  0
 12 10  1  0
 13 14  1  1
 14 15  1  0
 15 19  1  0
 15 16  2  0
 16 17  1  0
 18 17  1  0
 19 18  2  0
 20 13  1  0
 21 20  2  0
 22 20  1  0
 23 22  1  0
 24 25  1  0
 24 23  1  0
 25 26  1  0
 26 22  1  0
 26 27  1  1
 28 27  2  0
 29 27  1  0
M  END
$$$$
