FHP.pdb
     RDKit          3D

 29 31  0  0  1  0  0  0  0  0999 V2000
    4.9853  -17.3110   24.1671 N   0  0  0  0  0  0  0  0  0  0  0  0
    5.8999  -16.2318   24.4078 C   0  0  1  0  0  0  0  0  0  0  0  0
    5.9588  -15.9118   25.8933 C   0  0  0  0  0  0  0  0  0  0  0  0
    6.7555  -14.7053   26.1671 C   0  0  0  0  0  0  0  0  0  0  0  0
    7.9639  -14.8346   26.8047 C   0  0  0  0  0  0  0  0  0  0  0  0
    8.7126  -13.7177   27.0642 C   0  0  0  0  0  0  0  0  0  0  0  0
    8.2764  -12.4591   26.6970 C   0  0  0  0  0  0  0  0  0  0  0  0
    7.0752  -12.3427   26.0645 C   0  0  0  0  0  0  0  0  0  0  0  0
    6.3171  -13.4598   25.8002 C   0  0  0  0  0  0  0  0  0  0  0  0
    7.2866  -16.5376   23.9735 C   0  0  0  0  0  0  0  0  0  0  0  0
    7.8141  -17.5874   24.4140 O   0  0  0  0  0  0  0  0  0  0  0  0
    8.0445  -15.7326   23.1055 N   0  0  0  0  0  0  0  0  0  0  0  0
    9.3802  -16.0932   22.6279 C   0  0  1  0  0  0  0  0  0  0  0  0
    9.5828  -15.1911   21.4166 C   0  0  0  0  0  0  0  0  0  0  0  0
    8.9126  -15.7573   20.2120 C   0  0  0  0  0  0  0  0  0  0  0  0
    9.3727  -16.8016   19.4515 C   0  0  0  0  0  0  0  0  0  0  0  0
    8.5008  -17.0148   18.4627 N   0  0  0  0  0  0  0  0  0  0  0  0
    7.5121  -16.1182   18.6034 C   0  0  0  0  0  0  0  0  0  0  0  0
    7.7602  -15.3470   19.6723 N   0  0  0  0  0  0  0  0  0  0  0  0
   10.3542  -15.8598   23.7015 C   0  0  0  0  0  0  0  0  0  0  0  0
   10.2925  -14.7120   24.2895 O   0  0  0  0  0  0  0  0  0  0  0  0
   11.3318  -16.7541   24.1448 N   0  0  0  0  0  0  0  0  0  0  0  0
   11.5364  -18.0888   23.6430 C   0  0  0  0  0  0  0  0  0  0  0  0
   11.9735  -18.8475   24.8657 C   0  0  0  0  0  0  0  0  0  0  0  0
   12.1502  -17.8064   25.9801 C   0  0  0  0  0  0  0  0  0  0  0  0
   12.3400  -16.5452   25.1372 C   0  0  1  0  0  0  0  0  0  0  0  0
   13.7028  -16.4722   24.5808 C   0  0  0  0  0  0  0  0  0  0  0  0
   13.9144  -16.8586   23.4159 O   0  0  0  0  0  0  0  0  0  0  0  0
   14.7281  -15.9812   25.3466 O   0  0  0  0  0  0  0  0  0  0  0  0
  2  1  1  1
  2 10  1  0
  2  3  1  0
  4  3  1  0
  4  9  1  0
  5  4  2  0
  6  5  1  0
  6  7  2  0
  7  8  1  0
  8  9  2  0
 10 11  2  0
 12 13  1  0
 12 10  1  0
 13 14  1  6
 14 15  1  0
 15 19  1  0
 15 16  2  0
 16 17  1  0
 18 17  1  0
 19 18  2  0
 20 13  1  0
 21 20  2  0
 22 20  1  0
 23 22  1  0
 24 25  1  0
 24 23  1  0
 25 26  1  0
 26 22  1  0
 26 27  1  6
 28 27  2  0
 29 27  1  0
M  END
$$$$
