FHP.pdb
     RDKit          3D

 29 31  0  0  1  0  0  0  0  0999 V2000
    7.9907  -18.1604   19.7563 N   0  0  0  0  0  0  0  0  0  0  0  0
    8.1888  -16.8611   20.3320 C   0  0  1  0  0  0  0  0  0  0  0  0
    7.3478  -15.8264   19.6005 C   0  0  0  0  0  0  0  0  0  0  0  0
    7.5949  -14.4633   20.0967 C   0  0  0  0  0  0  0  0  0  0  0  0
    8.5815  -13.7094   19.5122 C   0  0  0  0  0  0  0  0  0  0  0  0
    8.8193  -12.4397   19.9671 C   0  0  0  0  0  0  0  0  0  0  0  0
    8.0849  -11.8994   21.0054 C   0  0  0  0  0  0  0  0  0  0  0  0
    7.1079  -12.6570   21.5781 C   0  0  0  0  0  0  0  0  0  0  0  0
    6.8629  -13.9332   21.1270 C   0  0  0  0  0  0  0  0  0  0  0  0
    7.8075  -16.7966   21.7657 C   0  0  0  0  0  0  0  0  0  0  0  0
    6.6277  -17.1002   22.0663 O   0  0  0  0  0  0  0  0  0  0  0  0
    8.6766  -16.4196   22.8042 N   0  0  0  0  0  0  0  0  0  0  0  0
    8.3443  -16.5487   24.2237 C   0  0  1  0  0  0  0  0  0  0  0  0
    8.5157  -18.0379   24.4974 C   0  0  0  0  0  0  0  0  0  0  0  0
    7.2712  -18.7877   24.1659 C   0  0  0  0  0  0  0  0  0  0  0  0
    6.0205  -18.5327   24.6673 C   0  0  0  0  0  0  0  0  0  0  0  0
    5.1695  -19.4143   24.1365 N   0  0  0  0  0  0  0  0  0  0  0  0
    5.8771  -20.2072   23.3168 C   0  0  0  0  0  0  0  0  0  0  0  0
    7.1633  -19.8272   23.3319 N   0  0  0  0  0  0  0  0  0  0  0  0
    9.2501  -15.7008   25.0089 C   0  0  0  0  0  0  0  0  0  0  0  0
   10.4593  -15.5956   24.5689 O   0  0  0  0  0  0  0  0  0  0  0  0
    8.9305  -15.0018   26.1756 N   0  0  0  0  0  0  0  0  0  0  0  0
    7.6302  -14.9513   26.7931 C   0  0  0  0  0  0  0  0  0  0  0  0
    7.5756  -13.5576   27.3556 C   0  0  0  0  0  0  0  0  0  0  0  0
    8.9719  -12.9535   27.1494 C   0  0  0  0  0  0  0  0  0  0  0  0
    9.7972  -14.2331   27.0141 C   0  0  1  0  0  0  0  0  0  0  0  0
   10.0428  -14.8542   28.3279 C   0  0  0  0  0  0  0  0  0  0  0  0
    9.4073  -15.8737   28.6561 O   0  0  0  0  0  0  0  0  0  0  0  0
   10.9667  -14.3075   29.1802 O   0  0  0  0  0  0  0  0  0  0  0  0
  2  1  1  6
  2 10  1  0
  2  3  1  0
  4  3  1  0
  4  9  1  0
  5  4  2  0
  6  5  1  0
  6  7  2  0
  7  8  1  0
  8  9  2  0
 10 11  2  0
 12 13  1  0
 12 10  1  0
 13 14  1  1
 14 15  1  0
 15 19  1  0
 15 16  2  0
 16 17  1  0
 18 17  1  0
 19 18  2  0
 20 13  1  0
 21 20  2  0
 22 20  1  0
 23 22  1  0
 24 25  1  0
 24 23  1  0
 25 26  1  0
 26 22  1  0
 26 27  1  1
 28 27  2  0
 29 27  1  0
M  END
$$$$
