FHP.pdb
     RDKit          3D

 29 31  0  0  1  0  0  0  0  0999 V2000
    5.6301  -17.8268   25.6088 N   0  0  0  0  0  0  0  0  0  0  0  0
    6.1510  -16.5182   25.3349 C   0  0  1  0  0  0  0  0  0  0  0  0
    7.1030  -16.0877   26.4400 C   0  0  0  0  0  0  0  0  0  0  0  0
    7.1709  -14.6236   26.5710 C   0  0  0  0  0  0  0  0  0  0  0  0
    6.0043  -13.9008   26.5888 C   0  0  0  0  0  0  0  0  0  0  0  0
    6.0570  -12.5378   26.7101 C   0  0  0  0  0  0  0  0  0  0  0  0
    7.2632  -11.8720   26.8152 C   0  0  0  0  0  0  0  0  0  0  0  0
    8.4150  -12.5998   26.7964 C   0  0  0  0  0  0  0  0  0  0  0  0
    8.3706  -13.9693   26.6749 C   0  0  0  0  0  0  0  0  0  0  0  0
    6.9066  -16.4489   24.0584 C   0  0  0  0  0  0  0  0  0  0  0  0
    7.6555  -17.4149   23.7747 O   0  0  0  0  0  0  0  0  0  0  0  0
    6.8391  -15.3777   23.1508 N   0  0  0  0  0  0  0  0  0  0  0  0
    7.5534  -15.3539   21.8736 C   0  0  1  0  0  0  0  0  0  0  0  0
    7.1120  -14.0397   21.2411 C   0  0  0  0  0  0  0  0  0  0  0  0
    7.7582  -13.8438   19.9126 C   0  0  0  0  0  0  0  0  0  0  0  0
    8.7099  -12.9034   19.6116 C   0  0  0  0  0  0  0  0  0  0  0  0
    9.0409  -13.0404   18.3251 N   0  0  0  0  0  0  0  0  0  0  0  0
    8.3078  -14.0500   17.8306 C   0  0  0  0  0  0  0  0  0  0  0  0
    7.5218  -14.5443   18.7985 N   0  0  0  0  0  0  0  0  0  0  0  0
    8.9976  -15.4251   22.1287 C   0  0  0  0  0  0  0  0  0  0  0  0
    9.4178  -14.8426   23.2015 O   0  0  0  0  0  0  0  0  0  0  0  0
    9.9518  -16.0591   21.3290 N   0  0  0  0  0  0  0  0  0  0  0  0
    9.7101  -16.6312   20.0294 C   0  0  0  0  0  0  0  0  0  0  0  0
   10.6268  -17.8233   20.0076 C   0  0  0  0  0  0  0  0  0  0  0  0
   11.4754  -17.7391   21.2843 C   0  0  0  0  0  0  0  0  0  0  0  0
   11.3449  -16.2473   21.5916 C   0  0  1  0  0  0  0  0  0  0  0  0
   12.2190  -15.4419   20.7201 C   0  0  0  0  0  0  0  0  0  0  0  0
   11.7524  -14.9254   19.6874 O   0  0  0  0  0  0  0  0  0  0  0  0
   13.5378  -15.2663   21.0495 O   0  0  0  0  0  0  0  0  0  0  0  0
  2  1  1  1
  2 10  1  0
  2  3  1  0
  4  3  1  0
  4  9  1  0
  5  4  2  0
  6  5  1  0
  6  7  2  0
  7  8  1  0
  8  9  2  0
 10 11  2  0
 12 13  1  0
 12 10  1  0
 13 14  1  1
 14 15  1  0
 15 19  1  0
 15 16  2  0
 16 17  1  0
 18 17  1  0
 19 18  2  0
 20 13  1  0
 21 20  2  0
 22 20  1  0
 23 22  1  0
 24 25  1  0
 24 23  1  0
 25 26  1  0
 26 22  1  0
 26 27  1  6
 28 27  2  0
 29 27  1  0
M  END
$$$$
