FHP.pdb
     RDKit          3D

 29 31  0  0  1  0  0  0  0  0999 V2000
    6.2545  -17.9548   20.6048 N   0  0  0  0  0  0  0  0  0  0  0  0
    6.8524  -16.7400   21.0800 C   0  0  1  0  0  0  0  0  0  0  0  0
    6.1150  -15.5344   20.5183 C   0  0  0  0  0  0  0  0  0  0  0  0
    7.0313  -14.4315   20.1877 C   0  0  0  0  0  0  0  0  0  0  0  0
    7.1629  -13.3871   21.0682 C   0  0  0  0  0  0  0  0  0  0  0  0
    8.0129  -12.3558   20.7695 C   0  0  0  0  0  0  0  0  0  0  0  0
    8.7435  -12.3438   19.5967 C   0  0  0  0  0  0  0  0  0  0  0  0
    8.6048  -13.3859   18.7299 C   0  0  0  0  0  0  0  0  0  0  0  0
    7.7531  -14.4256   19.0227 C   0  0  0  0  0  0  0  0  0  0  0  0
    6.8222  -16.6177   22.5596 C   0  0  0  0  0  0  0  0  0  0  0  0
    5.6998  -16.5088   23.1098 O   0  0  0  0  0  0  0  0  0  0  0  0
    7.9627  -16.6156   23.3813 N   0  0  0  0  0  0  0  0  0  0  0  0
    7.9056  -16.6320   24.8438 C   0  0  1  0  0  0  0  0  0  0  0  0
    8.6213  -17.9249   25.2154 C   0  0  0  0  0  0  0  0  0  0  0  0
    7.7387  -19.1053   24.9950 C   0  0  0  0  0  0  0  0  0  0  0  0
    6.6089  -19.4098   25.7101 C   0  0  0  0  0  0  0  0  0  0  0  0
    6.0943  -20.5396   25.2178 N   0  0  0  0  0  0  0  0  0  0  0  0
    6.8899  -20.9343   24.2116 C   0  0  0  0  0  0  0  0  0  0  0  0
    7.8970  -20.0596   24.0719 N   0  0  0  0  0  0  0  0  0  0  0  0
    8.5642  -15.4274   25.3645 C   0  0  0  0  0  0  0  0  0  0  0  0
    9.5728  -14.9898   24.6877 O   0  0  0  0  0  0  0  0  0  0  0  0
    8.2056  -14.7150   26.5116 N   0  0  0  0  0  0  0  0  0  0  0  0
    7.0328  -14.9523   27.3135 C   0  0  0  0  0  0  0  0  0  0  0  0
    6.6516  -13.5723   27.7738 C   0  0  0  0  0  0  0  0  0  0  0  0
    7.7792  -12.6369   27.3147 C   0  0  0  0  0  0  0  0  0  0  0  0
    8.9131  -13.6490   27.1504 C   0  0  1  0  0  0  0  0  0  0  0  0
    9.4880  -14.0264   28.4540 C   0  0  0  0  0  0  0  0  0  0  0  0
    9.2247  -15.1405   28.9443 O   0  0  0  0  0  0  0  0  0  0  0  0
   10.3070  -13.1512   29.1188 O   0  0  0  0  0  0  0  0  0  0  0  0
  2  1  1  1
  2 10  1  0
  2  3  1  0
  4  3  1  0
  4  9  1  0
  5  4  2  0
  6  5  1  0
  6  7  2  0
  7  8  1  0
  8  9  2  0
 10 11  2  0
 12 13  1  0
 12 10  1  0
 13 14  1  1
 14 15  1  0
 15 19  1  0
 15 16  2  0
 16 17  1  0
 18 17  1  0
 19 18  2  0
 20 13  1  0
 21 20  2  0
 22 20  1  0
 23 22  1  0
 24 25  1  0
 24 23  1  0
 25 26  1  0
 26 22  1  0
 26 27  1  1
 28 27  2  0
 29 27  1  0
M  END
$$$$
