FHP.pdb
     RDKit          3D

 29 31  0  0  1  0  0  0  0  0999 V2000
    5.8210  -16.7818   20.7756 N   0  0  0  0  0  0  0  0  0  0  0  0
    6.7449  -15.9732   21.5182 C   0  0  1  0  0  0  0  0  0  0  0  0
    6.3781  -14.5026   21.3920 C   0  0  0  0  0  0  0  0  0  0  0  0
    7.3460  -13.7610   20.5683 C   0  0  0  0  0  0  0  0  0  0  0  0
    7.0983  -13.6035   19.2276 C   0  0  0  0  0  0  0  0  0  0  0  0
    7.9931  -12.9151   18.4525 C   0  0  0  0  0  0  0  0  0  0  0  0
    9.1440  -12.3738   18.9927 C   0  0  0  0  0  0  0  0  0  0  0  0
    9.3796  -12.5364   20.3248 C   0  0  0  0  0  0  0  0  0  0  0  0
    8.4857  -13.2265   21.1102 C   0  0  0  0  0  0  0  0  0  0  0  0
    6.7629  -16.2940   22.9679 C   0  0  0  0  0  0  0  0  0  0  0  0
    5.6650  -16.2954   23.5754 O   0  0  0  0  0  0  0  0  0  0  0  0
    7.9233  -16.5948   23.7020 N   0  0  0  0  0  0  0  0  0  0  0  0
    7.9176  -16.9046   25.1324 C   0  0  1  0  0  0  0  0  0  0  0  0
    7.8797  -18.4275   25.1688 C   0  0  0  0  0  0  0  0  0  0  0  0
    8.0229  -18.9312   26.5640 C   0  0  0  0  0  0  0  0  0  0  0  0
    6.9967  -19.1811   27.4386 C   0  0  0  0  0  0  0  0  0  0  0  0
    7.5221  -19.6184   28.5858 N   0  0  0  0  0  0  0  0  0  0  0  0
    8.8550  -19.6413   28.4302 C   0  0  0  0  0  0  0  0  0  0  0  0
    9.1656  -19.2217   27.1947 N   0  0  0  0  0  0  0  0  0  0  0  0
    9.1197  -16.3337   25.7531 C   0  0  0  0  0  0  0  0  0  0  0  0
   10.1900  -16.3327   25.0311 O   0  0  0  0  0  0  0  0  0  0  0  0
    9.2143  -15.7946   27.0385 N   0  0  0  0  0  0  0  0  0  0  0  0
    8.1780  -15.8246   28.0386 C   0  0  0  0  0  0  0  0  0  0  0  0
    8.3635  -14.5174   28.7587 C   0  0  0  0  0  0  0  0  0  0  0  0
    9.6484  -13.8929   28.1964 C   0  0  0  0  0  0  0  0  0  0  0  0
   10.3332  -15.1444   27.6471 C   0  0  1  0  0  0  0  0  0  0  0  0
   10.9531  -15.9339   28.7263 C   0  0  0  0  0  0  0  0  0  0  0  0
   10.4483  -17.0217   29.0621 O   0  0  0  0  0  0  0  0  0  0  0  0
   12.0791  -15.4677   29.3537 O   0  0  0  0  0  0  0  0  0  0  0  0
  2  1  1  6
  2 10  1  0
  2  3  1  0
  4  3  1  0
  4  9  1  0
  5  4  2  0
  6  5  1  0
  6  7  2  0
  7  8  1  0
  8  9  2  0
 10 11  2  0
 12 13  1  0
 12 10  1  0
 13 14  1  6
 14 15  1  0
 15 19  1  0
 15 16  2  0
 16 17  1  0
 18 17  1  0
 19 18  2  0
 20 13  1  0
 21 20  2  0
 22 20  1  0
 23 22  1  0
 24 25  1  0
 24 23  1  0
 25 26  1  0
 26 22  1  0
 26 27  1  1
 28 27  2  0
 29 27  1  0
M  END
$$$$
