AVQ.pdb
     RDKit          3D

 22 21  0  0  1  0  0  0  0  0999 V2000
    8.6489  -17.2127   15.5282 C   0  0  0  0  0  0  0  0  0  0  0  0
    8.3364  -15.7506   15.4147 C   0  0  2  0  0  0  0  0  0  0  0  0
    8.6363  -15.2422   14.0903 N   0  0  0  0  0  0  0  0  0  0  0  0
    9.1631  -15.0223   16.4163 C   0  0  0  0  0  0  0  0  0  0  0  0
   10.3512  -14.7152   16.1537 O   0  0  0  0  0  0  0  0  0  0  0  0
    7.4264  -12.3382   18.8029 C   0  0  0  0  0  0  0  0  0  0  0  0
    8.3673  -13.2240   19.5668 C   0  0  1  0  0  0  0  0  0  0  0  0
    7.5124  -14.2862   20.2619 C   0  0  0  0  0  0  0  0  0  0  0  0
    9.3435  -13.9518   18.6955 C   0  0  2  0  0  0  0  0  0  0  0  0
    8.6188  -14.6681   17.6759 N   0  0  0  0  0  0  0  0  0  0  0  0
   10.2476  -14.8446   19.4383 C   0  0  0  0  0  0  0  0  0  0  0  0
    9.9917  -16.0727   19.4658 O   0  0  0  0  0  0  0  0  0  0  0  0
   17.4198  -15.5582   20.8957 N   0  0  0  0  0  0  0  0  0  0  0  0
   16.2539  -14.9789   20.3303 C   0  0  0  0  0  0  0  0  0  0  0  0
   16.4154  -13.9767   19.6020 O   0  0  0  0  0  0  0  0  0  0  0  0
   14.9122  -15.5739   20.6221 C   0  0  0  0  0  0  0  0  0  0  0  0
   13.7892  -14.6872   20.1866 C   0  0  0  0  0  0  0  0  0  0  0  0
   12.4633  -15.2936   20.4687 C   0  0  2  0  0  0  0  0  0  0  0  0
   11.3838  -14.3397   20.1104 N   0  0  0  0  0  0  0  0  0  0  0  0
   12.3121  -15.5477   21.9187 C   0  0  0  0  0  0  0  0  0  0  0  0
   12.9625  -16.6520   22.5152 O   0  0  0  0  0  0  0  0  0  0  0  0
   11.6292  -14.8362   22.6851 O   0  0  0  0  0  0  0  0  0  0  0  0
  2  3  1  0
  2  1  1  6
  4  5  2  0
  4  2  1  0
  7  6  1  6
  7  9  1  0
  8  7  1  0
  9 11  1  0
  9 10  1  6
 10  4  1  0
 11 19  1  0
 12 11  2  0
 14 15  2  0
 14 13  1  0
 16 14  1  0
 18 17  1  1
 17 16  1  0
 18 20  1  0
 19 18  1  0
 20 22  2  0
 20 21  1  0
M  END
$$$$
