AVQ.pdb
     RDKit          3D

 22 21  0  0  1  0  0  0  0  0999 V2000
    7.5235  -11.7295   26.7174 C   0  0  0  0  0  0  0  0  0  0  0  0
    6.4771  -12.3228   25.8221 C   0  0  2  0  0  0  0  0  0  0  0  0
    5.2643  -12.6350   26.5530 N   0  0  0  0  0  0  0  0  0  0  0  0
    7.0285  -13.5743   25.2333 C   0  0  0  0  0  0  0  0  0  0  0  0
    7.0269  -14.6401   25.8959 O   0  0  0  0  0  0  0  0  0  0  0  0
    6.6127  -14.1084   21.2537 C   0  0  0  0  0  0  0  0  0  0  0  0
    7.9679  -14.5138   21.7566 C   0  0  1  0  0  0  0  0  0  0  0  0
    8.9146  -13.3447   21.4753 C   0  0  0  0  0  0  0  0  0  0  0  0
    8.0082  -14.7620   23.2326 C   0  0  2  0  0  0  0  0  0  0  0  0
    7.5607  -13.5766   23.9199 N   0  0  0  0  0  0  0  0  0  0  0  0
    9.3247  -15.2011   23.7225 C   0  0  0  0  0  0  0  0  0  0  0  0
   10.1814  -14.3301   24.0088 O   0  0  0  0  0  0  0  0  0  0  0  0
   11.7202  -19.4366   28.6028 N   0  0  0  0  0  0  0  0  0  0  0  0
   10.8365  -18.7494   27.7301 C   0  0  0  0  0  0  0  0  0  0  0  0
    9.6140  -18.9557   27.8845 O   0  0  0  0  0  0  0  0  0  0  0  0
   11.3886  -17.8306   26.6859 C   0  0  0  0  0  0  0  0  0  0  0  0
   10.8260  -18.1083   25.3282 C   0  0  0  0  0  0  0  0  0  0  0  0
   10.9573  -16.9375   24.4243 C   0  0  2  0  0  0  0  0  0  0  0  0
    9.6287  -16.5734   23.8712 N   0  0  0  0  0  0  0  0  0  0  0  0
   11.7998  -17.2808   23.2570 C   0  0  0  0  0  0  0  0  0  0  0  0
   13.2064  -17.3280   23.3889 O   0  0  0  0  0  0  0  0  0  0  0  0
   11.3481  -17.5417   22.1222 O   0  0  0  0  0  0  0  0  0  0  0  0
  2  3  1  0
  2  1  1  1
  4  5  2  0
  4  2  1  0
  7  6  1  1
  7  9  1  0
  8  7  1  0
  9 11  1  0
  9 10  1  1
 10  4  1  0
 11 19  1  0
 12 11  2  0
 14 15  2  0
 14 13  1  0
 16 14  1  0
 18 17  1  1
 17 16  1  0
 18 20  1  0
 19 18  1  0
 20 22  2  0
 20 21  1  0
M  END
$$$$
