AVQ.pdb
     RDKit          3D

 22 21  0  0  1  0  0  0  0  0999 V2000
    6.6973  -18.9038   19.2066 C   0  0  0  0  0  0  0  0  0  0  0  0
    7.0238  -17.6603   18.4350 C   0  0  2  0  0  0  0  0  0  0  0  0
    7.6648  -17.9692   17.1716 N   0  0  0  0  0  0  0  0  0  0  0  0
    7.9456  -16.8327   19.2611 C   0  0  0  0  0  0  0  0  0  0  0  0
    9.1628  -17.1280   19.3400 O   0  0  0  0  0  0  0  0  0  0  0  0
    6.2971  -13.7597   21.9091 C   0  0  0  0  0  0  0  0  0  0  0  0
    7.5558  -13.6022   21.1063 C   0  0  1  0  0  0  0  0  0  0  0  0
    8.5044  -12.7310   21.9329 C   0  0  0  0  0  0  0  0  0  0  0  0
    8.2654  -14.8949   20.8473 C   0  0  2  0  0  0  0  0  0  0  0  0
    7.4602  -15.7038   19.9668 N   0  0  0  0  0  0  0  0  0  0  0  0
    8.6233  -15.6286   22.0719 C   0  0  0  0  0  0  0  0  0  0  0  0
    7.7588  -16.3640   22.6071 O   0  0  0  0  0  0  0  0  0  0  0  0
   13.6716  -15.9817   22.0084 N   0  0  0  0  0  0  0  0  0  0  0  0
   13.0260  -17.2085   21.7033 C   0  0  0  0  0  0  0  0  0  0  0  0
   13.4223  -17.8199   20.6883 O   0  0  0  0  0  0  0  0  0  0  0  0
   11.9243  -17.7076   22.5843 C   0  0  0  0  0  0  0  0  0  0  0  0
   11.6621  -16.7956   23.7404 C   0  0  0  0  0  0  0  0  0  0  0  0
   10.2386  -16.3779   23.8046 C   0  0  2  0  0  0  0  0  0  0  0  0
    9.9114  -15.5144   22.6423 N   0  0  0  0  0  0  0  0  0  0  0  0
   10.0004  -15.5457   25.0049 C   0  0  0  0  0  0  0  0  0  0  0  0
    9.6193  -14.1918   24.8631 O   0  0  0  0  0  0  0  0  0  0  0  0
   10.1141  -15.9616   26.1770 O   0  0  0  0  0  0  0  0  0  0  0  0
  2  3  1  0
  2  1  1  1
  4  5  2  0
  4  2  1  0
  7  6  1  1
  7  9  1  0
  8  7  1  0
  9 11  1  0
  9 10  1  6
 10  4  1  0
 11 19  1  0
 12 11  2  0
 14 15  2  0
 14 13  1  0
 16 14  1  0
 18 17  1  6
 17 16  1  0
 18 20  1  0
 19 18  1  0
 20 22  2  0
 20 21  1  0
M  END
$$$$
