AVQ.pdb
     RDKit          3D

 22 21  0  0  1  0  0  0  0  0999 V2000
    7.0417  -16.5408   21.8765 C   0  0  0  0  0  0  0  0  0  0  0  0
    7.0562  -15.0542   21.6806 C   0  0  2  0  0  0  0  0  0  0  0  0
    7.6723  -14.6882   20.4201 N   0  0  0  0  0  0  0  0  0  0  0  0
    7.8322  -14.4486   22.7977 C   0  0  0  0  0  0  0  0  0  0  0  0
    9.0848  -14.3953   22.7427 O   0  0  0  0  0  0  0  0  0  0  0  0
    5.7578  -13.3159   26.4870 C   0  0  0  0  0  0  0  0  0  0  0  0
    6.8867  -12.5443   25.8675 C   0  0  1  0  0  0  0  0  0  0  0  0
    7.6800  -11.9174   27.0163 C   0  0  0  0  0  0  0  0  0  0  0  0
    7.8418  -13.3995   25.0940 C   0  0  2  0  0  0  0  0  0  0  0  0
    7.1665  -13.9260   23.9344 N   0  0  0  0  0  0  0  0  0  0  0  0
    8.4531  -14.4741   25.8925 C   0  0  0  0  0  0  0  0  0  0  0  0
    7.7911  -15.5194   26.1017 O   0  0  0  0  0  0  0  0  0  0  0  0
   11.2241  -17.2213   24.3768 N   0  0  0  0  0  0  0  0  0  0  0  0
   11.8195  -17.9025   25.4705 C   0  0  0  0  0  0  0  0  0  0  0  0
   12.0255  -19.1268   25.3308 O   0  0  0  0  0  0  0  0  0  0  0  0
   12.1662  -17.1486   26.7158 C   0  0  0  0  0  0  0  0  0  0  0  0
   11.7540  -15.7126   26.6455 C   0  0  0  0  0  0  0  0  0  0  0  0
   10.3558  -15.5146   27.1049 C   0  0  2  0  0  0  0  0  0  0  0  0
    9.7585  -14.3420   26.4180 N   0  0  0  0  0  0  0  0  0  0  0  0
   10.3297  -15.1925   28.5491 C   0  0  0  0  0  0  0  0  0  0  0  0
   10.4433  -16.2261   29.5067 O   0  0  0  0  0  0  0  0  0  0  0  0
   10.2107  -14.0358   29.0047 O   0  0  0  0  0  0  0  0  0  0  0  0
  2  3  1  0
  2  1  1  1
  4  5  2  0
  4  2  1  0
  7  6  1  1
  7  9  1  0
  8  7  1  0
  9 11  1  0
  9 10  1  6
 10  4  1  0
 11 19  1  0
 12 11  2  0
 14 15  2  0
 14 13  1  0
 16 14  1  0
 18 17  1  6
 17 16  1  0
 18 20  1  0
 19 18  1  0
 20 22  2  0
 20 21  1  0
M  END
$$$$
