AVQ.pdb
     RDKit          3D

 22 21  0  0  1  0  0  0  0  0999 V2000
    6.5380  -15.7586   21.1868 C   0  0  0  0  0  0  0  0  0  0  0  0
    7.2157  -14.4223   21.2447 C   0  0  2  0  0  0  0  0  0  0  0  0
    8.1752  -14.2637   20.1691 N   0  0  0  0  0  0  0  0  0  0  0  0
    7.9240  -14.3197   22.5503 C   0  0  0  0  0  0  0  0  0  0  0  0
    9.0535  -14.8455   22.7010 O   0  0  0  0  0  0  0  0  0  0  0  0
    5.7455  -12.9004   26.0453 C   0  0  0  0  0  0  0  0  0  0  0  0
    7.1687  -12.5233   25.7522 C   0  0  1  0  0  0  0  0  0  0  0  0
    7.8839  -12.4046   27.1000 C   0  0  0  0  0  0  0  0  0  0  0  0
    7.9082  -13.5530   24.9556 C   0  0  2  0  0  0  0  0  0  0  0  0
    7.3320  -13.6282   23.6364 N   0  0  0  0  0  0  0  0  0  0  0  0
    7.9532  -14.8767   25.5973 C   0  0  0  0  0  0  0  0  0  0  0  0
    6.9410  -15.6150   25.5254 O   0  0  0  0  0  0  0  0  0  0  0  0
   11.6652  -19.5705   24.5100 N   0  0  0  0  0  0  0  0  0  0  0  0
   11.6885  -18.1538   24.4256 C   0  0  0  0  0  0  0  0  0  0  0  0
   12.1831  -17.6560   23.3919 O   0  0  0  0  0  0  0  0  0  0  0  0
   11.1362  -17.3333   25.5486 C   0  0  0  0  0  0  0  0  0  0  0  0
    9.6948  -17.6303   25.8154 C   0  0  0  0  0  0  0  0  0  0  0  0
    9.1146  -16.7021   26.8188 C   0  0  2  0  0  0  0  0  0  0  0  0
    9.1076  -15.3176   26.2832 N   0  0  0  0  0  0  0  0  0  0  0  0
    9.9615  -16.6610   28.0317 C   0  0  0  0  0  0  0  0  0  0  0  0
   10.5587  -15.4455   28.4369 O   0  0  0  0  0  0  0  0  0  0  0  0
   10.1986  -17.6533   28.7521 O   0  0  0  0  0  0  0  0  0  0  0  0
  2  3  1  0
  2  1  1  6
  4  5  2  0
  4  2  1  0
  7  6  1  1
  7  9  1  0
  8  7  1  0
  9 11  1  0
  9 10  1  6
 10  4  1  0
 11 19  1  0
 12 11  2  0
 14 15  2  0
 14 13  1  0
 16 14  1  0
 18 17  1  6
 17 16  1  0
 18 20  1  0
 19 18  1  0
 20 22  2  0
 20 21  1  0
M  END
$$$$
