GNV.pdb
     RDKit          3D

 20 19  0  0  1  0  0  0  0  0999 V2000
   19.3130  -23.7398  -10.4706 N   0  0  0  0  0  0  0  0  0  0  0  0
   19.5284  -23.6824  -11.8862 C   0  0  0  0  0  0  0  0  0  0  0  0
   20.4934  -22.6581  -12.3196 C   0  0  0  0  0  0  0  0  0  0  0  0
   20.5969  -21.6327  -11.5955 O   0  0  0  0  0  0  0  0  0  0  0  0
   25.8985  -22.1244  -14.7545 N   0  0  0  0  0  0  0  0  0  0  0  0
   24.5661  -21.6799  -14.8745 C   0  0  0  0  0  0  0  0  0  0  0  0
   24.4162  -20.4836  -15.2967 O   0  0  0  0  0  0  0  0  0  0  0  0
   23.3466  -22.4097  -14.5800 C   0  0  0  0  0  0  0  0  0  0  0  0
   22.3023  -21.7197  -13.7830 C   0  0  2  0  0  0  0  0  0  0  0  0
   21.2956  -22.7378  -13.4639 N   0  0  0  0  0  0  0  0  0  0  0  0
   21.5993  -20.7009  -14.5989 C   0  0  0  0  0  0  0  0  0  0  0  0
   20.7366  -21.0327  -15.4470 O   0  0  0  0  0  0  0  0  0  0  0  0
   20.1061  -17.2544  -13.2216 C   0  0  0  0  0  0  0  0  0  0  0  0
   20.9038  -17.0395  -14.4773 C   0  0  2  0  0  0  0  0  0  0  0  0
   20.1539  -16.0550  -15.3414 C   0  0  0  0  0  0  0  0  0  0  0  0
   21.0902  -18.3351  -15.2422 C   0  0  2  0  0  0  0  0  0  0  0  0
   21.8587  -19.2894  -14.4711 N   0  0  0  0  0  0  0  0  0  0  0  0
   21.7615  -18.1189  -16.5336 C   0  0  0  0  0  0  0  0  0  0  0  0
   21.0297  -18.1484  -17.7059 O   0  0  0  0  0  0  0  0  0  0  0  0
   22.9982  -17.9048  -16.6073 O   0  0  0  0  0  0  0  0  0  0  0  0
  2  1  1  0
  3  2  1  0
  4  3  2  0
  6  7  2  0
  6  5  1  0
  8  6  1  0
  9  8  1  6
  9 10  1  0
 10  3  1  0
 11 17  1  0
 11  9  1  0
 12 11  2  0
 14 13  1  1
 14 15  1  0
 16 14  1  0
 16 17  1  1
 18 16  1  0
 18 19  1  0
 20 18  2  0
M  END
$$$$
