GNV.pdb
     RDKit          3D

 20 19  0  0  1  0  0  0  0  0999 V2000
   14.1351  -12.1504  -14.0508 N   0  0  0  0  0  0  0  0  0  0  0  0
   14.3315  -11.1423  -15.0502 C   0  0  0  0  0  0  0  0  0  0  0  0
   15.6645  -11.1492  -15.6759 C   0  0  0  0  0  0  0  0  0  0  0  0
   15.8559  -11.9884  -16.5955 O   0  0  0  0  0  0  0  0  0  0  0  0
   19.0244   -9.5536  -19.6081 N   0  0  0  0  0  0  0  0  0  0  0  0
   18.9078  -10.1527  -18.3374 C   0  0  0  0  0  0  0  0  0  0  0  0
   19.9318  -10.8005  -17.9333 O   0  0  0  0  0  0  0  0  0  0  0  0
   17.7730  -10.1249  -17.4328 C   0  0  0  0  0  0  0  0  0  0  0  0
   18.0294  -10.3741  -15.9928 C   0  0  2  0  0  0  0  0  0  0  0  0
   16.7233  -10.3021  -15.3289 N   0  0  0  0  0  0  0  0  0  0  0  0
   18.8414   -9.2833  -15.4021 C   0  0  0  0  0  0  0  0  0  0  0  0
   18.3361   -8.1631  -15.1502 O   0  0  0  0  0  0  0  0  0  0  0  0
   22.9305   -9.8842  -14.1921 C   0  0  0  0  0  0  0  0  0  0  0  0
   22.0059   -8.9426  -13.4724 C   0  0  2  0  0  0  0  0  0  0  0  0
   21.3273   -9.7130  -12.3659 C   0  0  0  0  0  0  0  0  0  0  0  0
   20.9537   -8.3790  -14.4070 C   0  0  2  0  0  0  0  0  0  0  0  0
   20.2385   -9.4389  -15.0859 N   0  0  0  0  0  0  0  0  0  0  0  0
   21.5388   -7.4808  -15.4149 C   0  0  0  0  0  0  0  0  0  0  0  0
   22.0405   -6.2501  -15.0352 O   0  0  0  0  0  0  0  0  0  0  0  0
   21.5984   -7.8006  -16.6294 O   0  0  0  0  0  0  0  0  0  0  0  0
  2  1  1  0
  3  2  1  0
  4  3  2  0
  6  7  2  0
  6  5  1  0
  8  6  1  0
  9  8  1  6
  9 10  1  0
 10  3  1  0
 11 17  1  0
 11  9  1  0
 12 11  2  0
 14 13  1  6
 14 15  1  0
 16 14  1  0
 16 17  1  6
 18 16  1  0
 18 19  1  0
 20 18  2  0
M  END
$$$$
