GNV.pdb
     RDKit          3D

 20 19  0  0  1  0  0  0  0  0999 V2000
   14.0589  -13.0038  -13.0187 N   0  0  0  0  0  0  0  0  0  0  0  0
   13.9014  -11.5856  -13.1504 C   0  0  0  0  0  0  0  0  0  0  0  0
   14.8857  -10.7861  -12.4017 C   0  0  0  0  0  0  0  0  0  0  0  0
   15.1762  -11.1835  -11.2423 O   0  0  0  0  0  0  0  0  0  0  0  0
   19.1618   -8.0548  -11.0262 N   0  0  0  0  0  0  0  0  0  0  0  0
   18.7711   -8.0050  -12.3797 C   0  0  0  0  0  0  0  0  0  0  0  0
   19.6738   -7.6358  -13.2046 O   0  0  0  0  0  0  0  0  0  0  0  0
   17.4751   -8.3207  -12.9519 C   0  0  0  0  0  0  0  0  0  0  0  0
   16.4237   -8.8371  -12.0412 C   0  0  2  0  0  0  0  0  0  0  0  0
   15.5155   -9.6300  -12.8769 N   0  0  0  0  0  0  0  0  0  0  0  0
   15.6036   -7.7290  -11.4957 C   0  0  0  0  0  0  0  0  0  0  0  0
   14.7732   -7.1230  -12.2145 O   0  0  0  0  0  0  0  0  0  0  0  0
   15.3182   -6.9155   -7.3046 C   0  0  0  0  0  0  0  0  0  0  0  0
   14.2684   -6.5232   -8.3063 C   0  0  2  0  0  0  0  0  0  0  0  0
   13.3189   -7.6860   -8.4638 C   0  0  0  0  0  0  0  0  0  0  0  0
   14.8839   -6.1948   -9.6522 C   0  0  2  0  0  0  0  0  0  0  0  0
   15.7075   -7.2860  -10.1286 N   0  0  0  0  0  0  0  0  0  0  0  0
   15.7012   -4.9724   -9.5988 C   0  0  0  0  0  0  0  0  0  0  0  0
   15.0963   -3.7451   -9.4027 O   0  0  0  0  0  0  0  0  0  0  0  0
   16.9514   -5.0077   -9.7278 O   0  0  0  0  0  0  0  0  0  0  0  0
  2  1  1  0
  3  2  1  0
  4  3  2  0
  6  7  2  0
  6  5  1  0
  8  6  1  0
  9  8  1  6
  9 10  1  0
 10  3  1  0
 11 17  1  0
 11  9  1  0
 12 11  2  0
 14 13  1  1
 14 15  1  0
 16 14  1  0
 16 17  1  1
 18 16  1  0
 18 19  1  0
 20 18  2  0
M  END
$$$$
