GNV.pdb
     RDKit          3D

 20 19  0  0  1  0  0  0  0  0999 V2000
   15.7900  -11.4997  -16.8099 N   0  0  0  0  0  0  0  0  0  0  0  0
   16.7479  -10.6156  -17.4051 C   0  0  0  0  0  0  0  0  0  0  0  0
   17.3849   -9.6776  -16.4654 C   0  0  0  0  0  0  0  0  0  0  0  0
   16.8207   -9.5198  -15.3504 O   0  0  0  0  0  0  0  0  0  0  0  0
   20.9654   -6.3028  -14.0736 N   0  0  0  0  0  0  0  0  0  0  0  0
   21.3013   -7.5533  -14.6311 C   0  0  0  0  0  0  0  0  0  0  0  0
   22.4543   -8.0073  -14.3211 O   0  0  0  0  0  0  0  0  0  0  0  0
   20.5028   -8.3874  -15.5105 C   0  0  0  0  0  0  0  0  0  0  0  0
   19.0961   -7.9852  -15.7572 C   0  0  2  0  0  0  0  0  0  0  0  0
   18.5578   -8.9561  -16.7161 N   0  0  0  0  0  0  0  0  0  0  0  0
   19.0322   -6.6698  -16.4381 C   0  0  0  0  0  0  0  0  0  0  0  0
   19.4840   -6.5184  -17.5985 O   0  0  0  0  0  0  0  0  0  0  0  0
   16.1561   -4.7242  -17.6408 C   0  0  0  0  0  0  0  0  0  0  0  0
   16.9099   -3.8271  -16.6994 C   0  0  2  0  0  0  0  0  0  0  0  0
   16.8638   -2.4251  -17.2567 C   0  0  0  0  0  0  0  0  0  0  0  0
   18.3554   -4.2621  -16.5598 C   0  0  2  0  0  0  0  0  0  0  0  0
   18.4571   -5.5023  -15.8199 N   0  0  0  0  0  0  0  0  0  0  0  0
   19.1739   -3.2407  -15.8876 C   0  0  0  0  0  0  0  0  0  0  0  0
   19.8310   -2.2809  -16.6342 O   0  0  0  0  0  0  0  0  0  0  0  0
   19.2974   -3.2116  -14.6367 O   0  0  0  0  0  0  0  0  0  0  0  0
  2  1  1  0
  3  2  1  0
  4  3  2  0
  6  7  2  0
  6  5  1  0
  8  6  1  0
  9  8  1  6
  9 10  1  0
 10  3  1  0
 11 17  1  0
 11  9  1  0
 12 11  2  0
 14 13  1  6
 14 15  1  0
 16 14  1  0
 16 17  1  1
 18 16  1  0
 18 19  1  0
 20 18  2  0
M  END
$$$$
