GNV.pdb
     RDKit          3D

 20 19  0  0  1  0  0  0  0  0999 V2000
   18.4612  -24.4673  -10.0476 N   0  0  0  0  0  0  0  0  0  0  0  0
   18.6401  -24.1621  -11.4362 C   0  0  0  0  0  0  0  0  0  0  0  0
   19.7854  -23.2841  -11.7296 C   0  0  0  0  0  0  0  0  0  0  0  0
   20.6534  -23.1617  -10.8252 O   0  0  0  0  0  0  0  0  0  0  0  0
   24.7206  -23.3528  -13.3458 N   0  0  0  0  0  0  0  0  0  0  0  0
   23.5360  -22.9092  -13.9682 C   0  0  0  0  0  0  0  0  0  0  0  0
   23.6937  -22.1766  -15.0027 O   0  0  0  0  0  0  0  0  0  0  0  0
   22.1635  -23.1806  -13.5822 C   0  0  0  0  0  0  0  0  0  0  0  0
   21.2822  -22.0213  -13.2977 C   0  0  2  0  0  0  0  0  0  0  0  0
   19.9792  -22.5829  -12.9254 N   0  0  0  0  0  0  0  0  0  0  0  0
   21.0410  -21.2248  -14.5246 C   0  0  0  0  0  0  0  0  0  0  0  0
   20.4001  -21.7023  -15.4914 O   0  0  0  0  0  0  0  0  0  0  0  0
   21.3295  -16.8849  -16.9721 C   0  0  0  0  0  0  0  0  0  0  0  0
   21.5402  -17.6520  -15.6967 C   0  0  2  0  0  0  0  0  0  0  0  0
   22.9972  -17.5355  -15.3198 C   0  0  0  0  0  0  0  0  0  0  0  0
   21.1834  -19.1155  -15.8665 C   0  0  2  0  0  0  0  0  0  0  0  0
   21.5199  -19.8748  -14.6807 N   0  0  0  0  0  0  0  0  0  0  0  0
   21.8654  -19.7165  -17.0236 C   0  0  0  0  0  0  0  0  0  0  0  0
   21.2215  -19.7877  -18.2445 O   0  0  0  0  0  0  0  0  0  0  0  0
   23.0331  -20.1747  -16.9371 O   0  0  0  0  0  0  0  0  0  0  0  0
  2  1  1  0
  3  2  1  0
  4  3  2  0
  6  7  2  0
  6  5  1  0
  8  6  1  0
  9  8  1  6
  9 10  1  0
 10  3  1  0
 11 17  1  0
 11  9  1  0
 12 11  2  0
 14 13  1  6
 14 15  1  0
 16 14  1  0
 16 17  1  1
 18 16  1  0
 18 19  1  0
 20 18  2  0
M  END
$$$$
