GNV.pdb
     RDKit          3D

 20 19  0  0  1  0  0  0  0  0999 V2000
   22.6751  -23.4308  -13.3024 N   0  0  0  0  0  0  0  0  0  0  0  0
   22.2221  -22.0714  -13.3190 C   0  0  0  0  0  0  0  0  0  0  0  0
   23.2555  -21.0756  -12.9888 C   0  0  0  0  0  0  0  0  0  0  0  0
   22.9327  -19.8634  -13.1020 O   0  0  0  0  0  0  0  0  0  0  0  0
   25.1054  -21.3470   -8.7616 N   0  0  0  0  0  0  0  0  0  0  0  0
   25.6873  -20.4803   -9.7089 C   0  0  0  0  0  0  0  0  0  0  0  0
   25.7345  -19.2475   -9.3777 O   0  0  0  0  0  0  0  0  0  0  0  0
   26.2387  -20.8127  -11.0097 C   0  0  0  0  0  0  0  0  0  0  0  0
   25.5194  -20.3238  -12.2119 C   0  0  2  0  0  0  0  0  0  0  0  0
   24.5555  -21.3723  -12.5632 N   0  0  0  0  0  0  0  0  0  0  0  0
   26.4368  -20.2161  -13.3716 C   0  0  0  0  0  0  0  0  0  0  0  0
   27.4446  -19.4702  -13.3331 O   0  0  0  0  0  0  0  0  0  0  0  0
   28.8315  -22.0076  -17.1179 C   0  0  0  0  0  0  0  0  0  0  0  0
   27.8732  -22.1311  -15.9664 C   0  0  2  0  0  0  0  0  0  0  0  0
   26.8471  -23.1780  -16.3262 C   0  0  0  0  0  0  0  0  0  0  0  0
   27.1703  -20.8169  -15.6891 C   0  0  2  0  0  0  0  0  0  0  0  0
   26.2314  -20.9490  -14.5950 N   0  0  0  0  0  0  0  0  0  0  0  0
   26.4520  -20.3178  -16.8724 C   0  0  0  0  0  0  0  0  0  0  0  0
   25.0701  -20.2913  -16.8812 O   0  0  0  0  0  0  0  0  0  0  0  0
   27.0632  -19.9081  -17.8918 O   0  0  0  0  0  0  0  0  0  0  0  0
  2  1  1  0
  3  2  1  0
  4  3  2  0
  6  7  2  0
  6  5  1  0
  8  6  1  0
  9  8  1  1
  9 10  1  0
 10  3  1  0
 11 17  1  0
 11  9  1  0
 12 11  2  0
 14 13  1  6
 14 15  1  0
 16 14  1  0
 16 17  1  1
 18 16  1  0
 18 19  1  0
 20 18  2  0
M  END
$$$$
