GNV.pdb
     RDKit          3D

 20 19  0  0  1  0  0  0  0  0999 V2000
   16.8882  -14.8161  -15.2909 N   0  0  0  0  0  0  0  0  0  0  0  0
   17.6749  -14.4016  -16.4146 C   0  0  0  0  0  0  0  0  0  0  0  0
   17.9611  -12.9580  -16.4650 C   0  0  0  0  0  0  0  0  0  0  0  0
   18.9799  -12.6034  -17.1153 O   0  0  0  0  0  0  0  0  0  0  0  0
   14.8379   -8.2353  -17.1268 N   0  0  0  0  0  0  0  0  0  0  0  0
   15.2472   -9.5063  -16.6748 C   0  0  0  0  0  0  0  0  0  0  0  0
   14.6875  -10.5041  -17.2430 O   0  0  0  0  0  0  0  0  0  0  0  0
   16.2230   -9.8222  -15.6478 C   0  0  0  0  0  0  0  0  0  0  0  0
   17.4576  -10.5336  -16.0614 C   0  0  2  0  0  0  0  0  0  0  0  0
   17.1941  -11.9612  -15.8509 N   0  0  0  0  0  0  0  0  0  0  0  0
   18.5893  -10.1971  -15.1646 C   0  0  0  0  0  0  0  0  0  0  0  0
   18.5485  -10.4681  -13.9405 O   0  0  0  0  0  0  0  0  0  0  0  0
   22.2240  -11.2484  -15.4521 C   0  0  0  0  0  0  0  0  0  0  0  0
   22.1983   -9.7537  -15.2949 C   0  0  2  0  0  0  0  0  0  0  0  0
   23.3154   -9.3660  -14.3567 C   0  0  0  0  0  0  0  0  0  0  0  0
   20.8771   -9.2810  -14.7211 C   0  0  2  0  0  0  0  0  0  0  0  0
   19.7867   -9.5484  -15.6352 N   0  0  0  0  0  0  0  0  0  0  0  0
   20.8953   -7.8423  -14.4130 C   0  0  0  0  0  0  0  0  0  0  0  0
   20.2291   -6.9517  -15.2336 O   0  0  0  0  0  0  0  0  0  0  0  0
   21.5066   -7.3890  -13.4122 O   0  0  0  0  0  0  0  0  0  0  0  0
  2  1  1  0
  3  2  1  0
  4  3  2  0
  6  7  2  0
  6  5  1  0
  8  6  1  0
  9  8  1  1
  9 10  1  0
 10  3  1  0
 11 17  1  0
 11  9  1  0
 12 11  2  0
 14 13  1  1
 14 15  1  0
 16 14  1  0
 16 17  1  6
 18 16  1  0
 18 19  1  0
 20 18  2  0
M  END
$$$$
