GNV.pdb
     RDKit          3D

 20 19  0  0  1  0  0  0  0  0999 V2000
   14.9242  -11.8488  -14.8371 N   0  0  0  0  0  0  0  0  0  0  0  0
   14.6006  -10.4912  -14.5122 C   0  0  0  0  0  0  0  0  0  0  0  0
   15.3807   -9.9231  -13.3999 C   0  0  0  0  0  0  0  0  0  0  0  0
   15.2947  -10.5093  -12.2883 O   0  0  0  0  0  0  0  0  0  0  0  0
   19.5388   -9.6647  -13.1121 N   0  0  0  0  0  0  0  0  0  0  0  0
   19.2961   -8.2843  -13.2628 C   0  0  0  0  0  0  0  0  0  0  0  0
   20.2429   -7.6089  -13.7911 O   0  0  0  0  0  0  0  0  0  0  0  0
   18.1079   -7.5365  -12.8944 C   0  0  0  0  0  0  0  0  0  0  0  0
   16.9608   -8.2921  -12.3335 C   0  0  2  0  0  0  0  0  0  0  0  0
   16.2017   -8.7927  -13.4846 N   0  0  0  0  0  0  0  0  0  0  0  0
   16.0372   -7.3901  -11.6044 C   0  0  0  0  0  0  0  0  0  0  0  0
   15.3753   -6.5135  -12.2101 O   0  0  0  0  0  0  0  0  0  0  0  0
   13.1463   -6.2847   -7.8177 C   0  0  0  0  0  0  0  0  0  0  0  0
   14.0502   -7.2489   -8.5336 C   0  0  2  0  0  0  0  0  0  0  0  0
   14.8943   -7.9510   -7.4978 C   0  0  0  0  0  0  0  0  0  0  0  0
   14.9567   -6.5321   -9.5148 C   0  0  2  0  0  0  0  0  0  0  0  0
   15.8456   -7.4625  -10.1782 N   0  0  0  0  0  0  0  0  0  0  0  0
   15.7638   -5.4919   -8.8578 C   0  0  0  0  0  0  0  0  0  0  0  0
   15.1956   -4.2712   -8.5457 O   0  0  0  0  0  0  0  0  0  0  0  0
   16.9724   -5.6796   -8.5664 O   0  0  0  0  0  0  0  0  0  0  0  0
  2  1  1  0
  3  2  1  0
  4  3  2  0
  6  7  2  0
  6  5  1  0
  8  6  1  0
  9  8  1  6
  9 10  1  0
 10  3  1  0
 11 17  1  0
 11  9  1  0
 12 11  2  0
 14 13  1  1
 14 15  1  0
 16 14  1  0
 16 17  1  1
 18 16  1  0
 18 19  1  0
 20 18  2  0
M  END
$$$$
