GNV.pdb
     RDKit          3D

 20 19  0  0  1  0  0  0  0  0999 V2000
   16.1944  -13.3547  -17.0838 N   0  0  0  0  0  0  0  0  0  0  0  0
   15.9711  -12.1400  -16.3570 C   0  0  0  0  0  0  0  0  0  0  0  0
   16.9626  -11.0812  -16.6109 C   0  0  0  0  0  0  0  0  0  0  0  0
   18.0630  -11.4408  -17.1073 O   0  0  0  0  0  0  0  0  0  0  0  0
   19.1169   -6.1998  -17.7271 N   0  0  0  0  0  0  0  0  0  0  0  0
   17.7583   -6.2810  -17.3597 C   0  0  0  0  0  0  0  0  0  0  0  0
   17.0838   -5.2037  -17.4866 O   0  0  0  0  0  0  0  0  0  0  0  0
   17.0318   -7.4327  -16.8573 C   0  0  0  0  0  0  0  0  0  0  0  0
   17.7738   -8.7093  -16.7112 C   0  0  2  0  0  0  0  0  0  0  0  0
   16.7757   -9.7199  -16.3445 N   0  0  0  0  0  0  0  0  0  0  0  0
   18.7193   -8.6457  -15.5710 C   0  0  0  0  0  0  0  0  0  0  0  0
   18.3078   -8.6681  -14.3862 O   0  0  0  0  0  0  0  0  0  0  0  0
   22.9062   -9.3048  -16.0195 C   0  0  0  0  0  0  0  0  0  0  0  0
   22.1590   -9.4941  -14.7291 C   0  0  2  0  0  0  0  0  0  0  0  0
   21.5986  -10.8956  -14.7179 C   0  0  0  0  0  0  0  0  0  0  0  0
   21.0218   -8.5001  -14.5979 C   0  0  2  0  0  0  0  0  0  0  0  0
   20.1462   -8.5555  -15.7495 N   0  0  0  0  0  0  0  0  0  0  0  0
   21.5124   -7.1218  -14.4412 C   0  0  0  0  0  0  0  0  0  0  0  0
   21.2508   -6.1803  -15.4188 O   0  0  0  0  0  0  0  0  0  0  0  0
   22.1721   -6.7664  -13.4317 O   0  0  0  0  0  0  0  0  0  0  0  0
  2  1  1  0
  3  2  1  0
  4  3  2  0
  6  7  2  0
  6  5  1  0
  8  6  1  0
  9  8  1  1
  9 10  1  0
 10  3  1  0
 11 17  1  0
 11  9  1  0
 12 11  2  0
 14 13  1  6
 14 15  1  0
 16 14  1  0
 16 17  1  6
 18 16  1  0
 18 19  1  0
 20 18  2  0
M  END
$$$$
