RCV.pdb
     RDKit          3D

 25 24  0  0  1  0  0  0  0  0999 V2000
   23.8199  -21.6983  -15.9033 N   0  0  0  0  0  0  0  0  0  0  0  0
   23.1472  -22.5700  -16.7933 C   0  0  0  0  0  0  0  0  0  0  0  0
   21.8973  -22.8507  -16.5450 N   0  0  0  0  0  0  0  0  0  0  0  0
   23.7639  -23.1368  -17.9204 N   0  0  0  0  0  0  0  0  0  0  0  0
   25.1158  -22.7387  -18.3185 C   0  0  0  0  0  0  0  0  0  0  0  0
   25.9853  -23.9594  -18.3429 C   0  0  0  0  0  0  0  0  0  0  0  0
   27.1625  -23.9047  -17.4372 C   0  0  0  0  0  0  0  0  0  0  0  0
   28.1179  -22.7838  -17.6391 C   0  0  2  0  0  0  0  0  0  0  0  0
   29.4674  -23.1815  -17.9738 N   0  0  0  0  0  0  0  0  0  0  0  0
   28.1319  -22.0099  -16.3406 C   0  0  0  0  0  0  0  0  0  0  0  0
   28.8388  -22.3569  -15.3643 O   0  0  0  0  0  0  0  0  0  0  0  0
   21.3404  -23.5027  -17.1114 N   0  0  0  0  0  0  0  0  0  0  0  0
   27.3392  -20.8498  -16.1748 C   0  0  2  0  0  0  0  0  0  0  0  0
   27.3028  -20.0697  -14.9386 C   0  0  0  0  0  0  0  0  0  0  0  0
   27.1550  -18.5908  -15.3064 S   0  0  0  0  0  0  0  0  0  0  0  0
   26.8840  -17.6398  -13.8077 C   0  0  0  0  0  0  0  0  0  0  0  0
   26.2794  -20.5653  -14.0260 O   0  0  0  0  0  0  0  0  0  0  0  0
   25.1846  -20.9965  -14.5309 C   0  0  0  0  0  0  0  0  0  0  0  0
   24.6377  -21.4382   -9.3990 C   0  0  1  0  0  0  0  0  0  0  0  0
   25.7137  -20.9208  -10.3483 C   0  0  0  0  0  0  0  0  0  0  0  0
   26.1253  -19.5140   -9.9845 C   0  0  2  0  0  0  0  0  0  0  0  0
   25.2394  -21.0250  -11.7800 N   0  0  0  0  0  0  0  0  0  0  0  0
   26.3615  -20.6268  -12.6260 C   0  0  0  0  0  0  0  0  0  0  0  0
   24.0485  -20.1778  -12.0483 O   0  0  0  0  0  0  0  0  0  0  0  0
   22.7731  -20.7247  -11.8682 O   0  0  0  0  0  0  0  0  0  0  0  0
  2  1  1  0
  3  2  2  0
  4  2  1  0
  5  6  1  0
  5  4  1  0
  7  6  1  0
  8  7  1  0
  8 10  1  0
  8  9  1  1
 10 12  1  0
 10 11  2  0
 12 13  1  0
 13 14  1  6
 14 15  1  0
 16 17  2  0
 16 13  1  0
 19 18  1  1
 19 21  1  0
 19 20  1  0
 21 22  1  6
 22 16  1  0
 23 21  1  0
 24 23  1  0
 25 23  2  0
M  END
$$$$
