RCV.pdb
     RDKit          3D

 25 24  0  0  1  0  0  0  0  0999 V2000
   20.7474  -21.0263  -14.7709 N   0  0  0  0  0  0  0  0  0  0  0  0
   21.9497  -20.3372  -15.0608 C   0  0  0  0  0  0  0  0  0  0  0  0
   22.7041  -20.8021  -16.0186 N   0  0  0  0  0  0  0  0  0  0  0  0
   22.3572  -19.1859  -14.3678 N   0  0  0  0  0  0  0  0  0  0  0  0
   22.1352  -17.8516  -14.9291 C   0  0  0  0  0  0  0  0  0  0  0  0
   21.1523  -17.9647  -16.0551 C   0  0  0  0  0  0  0  0  0  0  0  0
   20.8729  -16.6914  -16.7691 C   0  0  0  0  0  0  0  0  0  0  0  0
   19.4895  -16.1551  -16.6764 C   0  0  2  0  0  0  0  0  0  0  0  0
   18.5230  -16.8001  -17.5373 N   0  0  0  0  0  0  0  0  0  0  0  0
   19.5855  -14.6911  -17.0406 C   0  0  0  0  0  0  0  0  0  0  0  0
   20.1754  -14.2979  -18.0753 O   0  0  0  0  0  0  0  0  0  0  0  0
   23.6170  -20.3998  -16.2658 N   0  0  0  0  0  0  0  0  0  0  0  0
   19.0058  -13.6959  -16.2188 C   0  0  1  0  0  0  0  0  0  0  0  0
   19.0197  -12.2714  -16.5482 C   0  0  0  0  0  0  0  0  0  0  0  0
   17.5713  -11.7828  -16.6355 S   0  0  0  0  0  0  0  0  0  0  0  0
   17.5663   -9.9950  -16.8023 C   0  0  0  0  0  0  0  0  0  0  0  0
   19.8512  -11.5177  -15.6175 O   0  0  0  0  0  0  0  0  0  0  0  0
   19.7435  -11.7816  -14.3692 C   0  0  0  0  0  0  0  0  0  0  0  0
   23.4207  -11.3106  -15.1777 C   0  0  1  0  0  0  0  0  0  0  0  0
   22.9710   -9.8560  -15.2698 C   0  0  0  0  0  0  0  0  0  0  0  0
   23.8252   -8.9691  -14.3954 C   0  0  2  0  0  0  0  0  0  0  0  0
   21.5010   -9.7428  -14.9351 N   0  0  0  0  0  0  0  0  0  0  0  0
   20.7786  -10.5152  -15.9425 C   0  0  0  0  0  0  0  0  0  0  0  0
   21.0295   -8.3339  -14.9107 O   0  0  0  0  0  0  0  0  0  0  0  0
   21.0422   -7.6358  -13.6981 O   0  0  0  0  0  0  0  0  0  0  0  0
  2  1  1  0
  3  2  2  0
  4  2  1  0
  5  6  1  0
  5  4  1  0
  7  6  1  0
  8  7  1  0
  8 10  1  0
  8  9  1  6
 10 12  1  0
 10 11  2  0
 12 13  1  0
 13 14  1  1
 14 15  1  0
 16 17  2  0
 16 13  1  0
 19 18  1  6
 19 21  1  0
 19 20  1  0
 21 22  1  1
 22 16  1  0
 23 21  1  0
 24 23  1  0
 25 23  2  0
M  END
$$$$
