RCV.pdb
     RDKit          3D

 25 24  0  0  1  0  0  0  0  0999 V2000
   28.2680  -16.2127  -17.9832 N   0  0  0  0  0  0  0  0  0  0  0  0
   28.0282  -17.2622  -18.9027 C   0  0  0  0  0  0  0  0  0  0  0  0
   27.5583  -16.9480  -20.0788 N   0  0  0  0  0  0  0  0  0  0  0  0
   28.2744  -18.6119  -18.6036 N   0  0  0  0  0  0  0  0  0  0  0  0
   28.6151  -19.0311  -17.2424 C   0  0  0  0  0  0  0  0  0  0  0  0
   27.3452  -19.2202  -16.4690 C   0  0  0  0  0  0  0  0  0  0  0  0
   27.5330  -19.5189  -15.0252 C   0  0  0  0  0  0  0  0  0  0  0  0
   27.7032  -20.9467  -14.6479 C   0  0  2  0  0  0  0  0  0  0  0  0
   27.8789  -21.8572  -15.7577 N   0  0  0  0  0  0  0  0  0  0  0  0
   26.4564  -21.3262  -13.8820 C   0  0  0  0  0  0  0  0  0  0  0  0
   25.5291  -21.9908  -14.4033 O   0  0  0  0  0  0  0  0  0  0  0  0
   27.3331  -17.6423  -20.8022 N   0  0  0  0  0  0  0  0  0  0  0  0
   26.2857  -20.9424  -12.5309 C   0  0  2  0  0  0  0  0  0  0  0  0
   25.0808  -21.2368  -11.7566 C   0  0  0  0  0  0  0  0  0  0  0  0
   25.3440  -20.8633  -10.2953 S   0  0  0  0  0  0  0  0  0  0  0  0
   23.8832  -21.2428   -9.3226 C   0  0  0  0  0  0  0  0  0  0  0  0
   23.9057  -20.5972  -12.3362 O   0  0  0  0  0  0  0  0  0  0  0  0
   24.0152  -19.3816  -12.7235 C   0  0  0  0  0  0  0  0  0  0  0  0
   22.5728  -20.5774  -15.3097 C   0  0  1  0  0  0  0  0  0  0  0  0
   21.3246  -20.9013  -14.4950 C   0  0  0  0  0  0  0  0  0  0  0  0
   20.0915  -20.3105  -15.1363 C   0  0  2  0  0  0  0  0  0  0  0  0
   21.5014  -20.4412  -13.0658 N   0  0  0  0  0  0  0  0  0  0  0  0
   22.6410  -21.1767  -12.5240 C   0  0  0  0  0  0  0  0  0  0  0  0
   20.2863  -20.6666  -12.2407 O   0  0  0  0  0  0  0  0  0  0  0  0
   19.4904  -19.5697  -11.8925 O   0  0  0  0  0  0  0  0  0  0  0  0
  2  1  1  0
  3  2  2  0
  4  2  1  0
  5  6  1  0
  5  4  1  0
  7  6  1  0
  8  7  1  0
  8 10  1  0
  8  9  1  6
 10 12  1  0
 10 11  2  0
 12 13  1  0
 13 14  1  1
 14 15  1  0
 16 17  2  0
 16 13  1  0
 19 18  1  6
 19 21  1  0
 19 20  1  0
 21 22  1  1
 22 16  1  0
 23 21  1  0
 24 23  1  0
 25 23  2  0
M  END
$$$$
