RCV.pdb
     RDKit          3D

 25 24  0  0  1  0  0  0  0  0999 V2000
   17.1278  -31.6160  -12.6454 N   0  0  0  0  0  0  0  0  0  0  0  0
   17.1601  -30.8063  -13.8064 C   0  0  0  0  0  0  0  0  0  0  0  0
   16.5577  -31.2486  -14.8761 N   0  0  0  0  0  0  0  0  0  0  0  0
   17.8056  -29.5601  -13.8518 N   0  0  0  0  0  0  0  0  0  0  0  0
   18.4841  -29.0207  -12.6714 C   0  0  0  0  0  0  0  0  0  0  0  0
   17.4517  -28.4526  -11.7451 C   0  0  0  0  0  0  0  0  0  0  0  0
   17.9936  -27.8678  -10.4907 C   0  0  0  0  0  0  0  0  0  0  0  0
   18.4340  -26.4489  -10.5428 C   0  0  2  0  0  0  0  0  0  0  0  0
   19.5457  -26.1842  -11.4291 N   0  0  0  0  0  0  0  0  0  0  0  0
   18.8229  -26.0817   -9.1289 C   0  0  0  0  0  0  0  0  0  0  0  0
   20.0202  -26.0265   -8.7589 O   0  0  0  0  0  0  0  0  0  0  0  0
   16.5224  -30.7283  -15.7617 N   0  0  0  0  0  0  0  0  0  0  0  0
   17.8396  -25.7819   -8.1568 C   0  0  1  0  0  0  0  0  0  0  0  0
   18.1501  -25.2086   -6.8480 C   0  0  0  0  0  0  0  0  0  0  0  0
   18.1597  -23.6833   -6.9802 S   0  0  0  0  0  0  0  0  0  0  0  0
   19.6101  -23.1866   -7.9150 C   0  0  0  0  0  0  0  0  0  0  0  0
   17.2511  -25.7150   -5.8179 O   0  0  0  0  0  0  0  0  0  0  0  0
   15.9948  -25.7135   -6.0657 C   0  0  0  0  0  0  0  0  0  0  0  0
   18.5197  -27.2285   -2.0349 C   0  0  1  0  0  0  0  0  0  0  0  0
   17.3439  -27.8164   -2.8085 C   0  0  0  0  0  0  0  0  0  0  0  0
   17.7915  -28.9612   -3.6859 C   0  0  1  0  0  0  0  0  0  0  0  0
   16.6444  -26.7324   -3.5965 N   0  0  0  0  0  0  0  0  0  0  0  0
   17.6152  -26.2174   -4.5587 C   0  0  0  0  0  0  0  0  0  0  0  0
   16.1291  -25.6409   -2.7299 O   0  0  0  0  0  0  0  0  0  0  0  0
   16.8543  -24.4477   -2.6392 O   0  0  0  0  0  0  0  0  0  0  0  0
  2  1  1  0
  3  2  2  0
  4  2  1  0
  5  6  1  0
  5  4  1  0
  7  6  1  0
  8  7  1  0
  8 10  1  0
  8  9  1  6
 10 12  1  0
 10 11  2  0
 12 13  1  0
 13 14  1  1
 14 15  1  0
 16 17  2  0
 16 13  1  0
 19 18  1  1
 19 21  1  0
 19 20  1  0
 21 22  1  6
 22 16  1  0
 23 21  1  0
 24 23  1  0
 25 23  2  0
M  END
$$$$
