RCV.pdb
     RDKit          3D

 25 24  0  0  1  0  0  0  0  0999 V2000
   23.1898  -26.1022  -15.7554 N   0  0  0  0  0  0  0  0  0  0  0  0
   24.4912  -25.6567  -15.4202 C   0  0  0  0  0  0  0  0  0  0  0  0
   25.5052  -26.2546  -15.9833 N   0  0  0  0  0  0  0  0  0  0  0  0
   24.7316  -24.6081  -14.5176 N   0  0  0  0  0  0  0  0  0  0  0  0
   23.6364  -23.7630  -14.0369 C   0  0  0  0  0  0  0  0  0  0  0  0
   23.0116  -23.0760  -15.2134 C   0  0  0  0  0  0  0  0  0  0  0  0
   22.5439  -21.6900  -14.9502 C   0  0  0  0  0  0  0  0  0  0  0  0
   23.0398  -21.0341  -13.7118 C   0  0  2  0  0  0  0  0  0  0  0  0
   22.0439  -20.8360  -12.6821 N   0  0  0  0  0  0  0  0  0  0  0  0
   23.5880  -19.6927  -14.1422 C   0  0  0  0  0  0  0  0  0  0  0  0
   22.8661  -18.6698  -14.2182 O   0  0  0  0  0  0  0  0  0  0  0  0
   26.4838  -26.0661  -15.7326 N   0  0  0  0  0  0  0  0  0  0  0  0
   24.9533  -19.5373  -14.4793 C   0  0  2  0  0  0  0  0  0  0  0  0
   25.5216  -18.2864  -14.9795 C   0  0  0  0  0  0  0  0  0  0  0  0
   26.9829  -18.2071  -14.5294 S   0  0  0  0  0  0  0  0  0  0  0  0
   27.0350  -17.9955  -12.7471 C   0  0  0  0  0  0  0  0  0  0  0  0
   25.3299  -18.1521  -16.4186 O   0  0  0  0  0  0  0  0  0  0  0  0
   24.6680  -19.0668  -17.0226 C   0  0  0  0  0  0  0  0  0  0  0  0
   23.1930  -18.0506  -18.0171 C   0  0  1  0  0  0  0  0  0  0  0  0
   23.8157  -16.7501  -18.5147 C   0  0  0  0  0  0  0  0  0  0  0  0
   23.2090  -16.3290  -19.8320 C   0  0  2  0  0  0  0  0  0  0  0  0
   25.3188  -16.8901  -18.5968 N   0  0  0  0  0  0  0  0  0  0  0  0
   25.7969  -17.1094  -17.2342 C   0  0  0  0  0  0  0  0  0  0  0  0
   25.9694  -15.6981  -19.1999 O   0  0  0  0  0  0  0  0  0  0  0  0
   26.5972  -14.7711  -18.3604 O   0  0  0  0  0  0  0  0  0  0  0  0
  2  1  1  0
  3  2  2  0
  4  2  1  0
  5  6  1  0
  5  4  1  0
  7  6  1  0
  8  7  1  0
  8 10  1  0
  8  9  1  1
 10 12  1  0
 10 11  2  0
 12 13  1  0
 13 14  1  1
 14 15  1  0
 16 17  2  0
 16 13  1  0
 19 18  1  1
 19 21  1  0
 19 20  1  0
 21 22  1  6
 22 16  1  0
 23 21  1  0
 24 23  1  0
 25 23  2  0
M  END
$$$$
