RCV.pdb
     RDKit          3D

 25 24  0  0  1  0  0  0  0  0999 V2000
   23.6029  -19.2622  -17.4342 N   0  0  0  0  0  0  0  0  0  0  0  0
   24.0861  -20.1669  -16.4582 C   0  0  0  0  0  0  0  0  0  0  0  0
   23.4642  -21.3058  -16.3203 N   0  0  0  0  0  0  0  0  0  0  0  0
   25.1960  -19.8915  -15.6433 N   0  0  0  0  0  0  0  0  0  0  0  0
   26.4725  -19.4733  -16.2264 C   0  0  0  0  0  0  0  0  0  0  0  0
   27.5734  -19.8362  -15.2762 C   0  0  0  0  0  0  0  0  0  0  0  0
   27.3338  -19.4403  -13.8638 C   0  0  0  0  0  0  0  0  0  0  0  0
   27.4217  -20.5127  -12.8380 C   0  0  2  0  0  0  0  0  0  0  0  0
   26.7279  -21.7373  -13.1705 N   0  0  0  0  0  0  0  0  0  0  0  0
   26.8303  -19.9298  -11.5748 C   0  0  0  0  0  0  0  0  0  0  0  0
   26.8567  -18.6997  -11.3312 O   0  0  0  0  0  0  0  0  0  0  0  0
   23.7432  -22.0242  -15.6406 N   0  0  0  0  0  0  0  0  0  0  0  0
   26.2160  -20.7594  -10.6072 C   0  0  1  0  0  0  0  0  0  0  0  0
   25.6804  -20.2596   -9.3417 C   0  0  0  0  0  0  0  0  0  0  0  0
   24.2372  -20.7513   -9.2016 S   0  0  0  0  0  0  0  0  0  0  0  0
   23.5958  -20.2346   -7.6061 C   0  0  0  0  0  0  0  0  0  0  0  0
   26.5447  -20.6116   -8.2215 O   0  0  0  0  0  0  0  0  0  0  0  0
   26.8896  -21.8381   -8.0935 C   0  0  0  0  0  0  0  0  0  0  0  0
   29.7932  -18.9728   -6.8870 C   0  0  1  0  0  0  0  0  0  0  0  0
   28.8003  -19.1286   -5.7396 C   0  0  0  0  0  0  0  0  0  0  0  0
   29.5158  -19.4027   -4.4382 C   0  0  2  0  0  0  0  0  0  0  0  0
   27.7858  -20.1996   -6.0704 N   0  0  0  0  0  0  0  0  0  0  0  0
   27.0546  -19.7385   -7.2477 C   0  0  0  0  0  0  0  0  0  0  0  0
   26.8561  -20.4707   -4.9434 O   0  0  0  0  0  0  0  0  0  0  0  0
   27.2968  -21.2613   -3.8763 O   0  0  0  0  0  0  0  0  0  0  0  0
  2  1  1  0
  3  2  2  0
  4  2  1  0
  5  6  1  0
  5  4  1  0
  7  6  1  0
  8  7  1  0
  8 10  1  0
  8  9  1  6
 10 12  1  0
 10 11  2  0
 12 13  1  0
 13 14  1  6
 14 15  1  0
 16 17  2  0
 16 13  1  0
 19 18  1  1
 19 21  1  0
 19 20  1  0
 21 22  1  6
 22 16  1  0
 23 21  1  0
 24 23  1  0
 25 23  2  0
M  END
$$$$
