RCV.pdb
     RDKit          3D

 25 24  0  0  1  0  0  0  0  0999 V2000
   20.4494  -30.4944  -13.4580 N   0  0  0  0  0  0  0  0  0  0  0  0
   21.1078  -31.1645  -14.5172 C   0  0  0  0  0  0  0  0  0  0  0  0
   20.7214  -30.9067  -15.7366 N   0  0  0  0  0  0  0  0  0  0  0  0
   22.1490  -32.0837  -14.3103 N   0  0  0  0  0  0  0  0  0  0  0  0
   22.6414  -32.3721  -12.9617 C   0  0  0  0  0  0  0  0  0  0  0  0
   22.8884  -33.8462  -12.8485 C   0  0  0  0  0  0  0  0  0  0  0  0
   23.3513  -34.3000  -11.5110 C   0  0  0  0  0  0  0  0  0  0  0  0
   24.7864  -34.0885  -11.1859 C   0  0  2  0  0  0  0  0  0  0  0  0
   25.7181  -34.7988  -12.0337 N   0  0  0  0  0  0  0  0  0  0  0  0
   24.9612  -34.5473   -9.7561 C   0  0  0  0  0  0  0  0  0  0  0  0
   25.2275  -35.7379   -9.4649 O   0  0  0  0  0  0  0  0  0  0  0  0
   21.1756  -31.3016  -16.5696 N   0  0  0  0  0  0  0  0  0  0  0  0
   24.8303  -33.6402   -8.6783 C   0  0  2  0  0  0  0  0  0  0  0  0
   25.1430  -33.9862   -7.2925 C   0  0  0  0  0  0  0  0  0  0  0  0
   26.4183  -33.2426   -6.8862 S   0  0  0  0  0  0  0  0  0  0  0  0
   27.8309  -34.0416   -7.6545 C   0  0  0  0  0  0  0  0  0  0  0  0
   24.0044  -33.7471   -6.4138 O   0  0  0  0  0  0  0  0  0  0  0  0
   23.5391  -32.5560   -6.3471 C   0  0  0  0  0  0  0  0  0  0  0  0
   20.9290  -35.9566   -6.3190 C   0  0  1  0  0  0  0  0  0  0  0  0
   21.2682  -35.6069   -4.8736 C   0  0  0  0  0  0  0  0  0  0  0  0
   20.0141  -35.4327   -4.0503 C   0  0  2  0  0  0  0  0  0  0  0  0
   22.1559  -34.3840   -4.8279 N   0  0  0  0  0  0  0  0  0  0  0  0
   23.3445  -34.6962   -5.6174 C   0  0  0  0  0  0  0  0  0  0  0  0
   22.5278  -34.0019   -3.4410 O   0  0  0  0  0  0  0  0  0  0  0  0
   23.7517  -34.4392   -2.9225 O   0  0  0  0  0  0  0  0  0  0  0  0
  2  1  1  0
  3  2  2  0
  4  2  1  0
  5  6  1  0
  5  4  1  0
  7  6  1  0
  8  7  1  0
  8 10  1  0
  8  9  1  6
 10 12  1  0
 10 11  2  0
 12 13  1  0
 13 14  1  6
 14 15  1  0
 16 17  2  0
 16 13  1  0
 19 18  1  1
 19 21  1  0
 19 20  1  0
 21 22  1  6
 22 16  1  0
 23 21  1  0
 24 23  1  0
 25 23  2  0
M  END
$$$$
