RCV.pdb
     RDKit          3D

 25 24  0  0  1  0  0  0  0  0999 V2000
   17.8759  -24.1464   -6.9107 N   0  0  0  0  0  0  0  0  0  0  0  0
   17.4819  -25.2150   -7.7516 C   0  0  0  0  0  0  0  0  0  0  0  0
   16.3749  -25.8428   -7.4631 N   0  0  0  0  0  0  0  0  0  0  0  0
   18.2254  -25.6207   -8.8717 N   0  0  0  0  0  0  0  0  0  0  0  0
   19.2954  -24.7781   -9.4101 C   0  0  0  0  0  0  0  0  0  0  0  0
   18.6855  -23.7550  -10.3200 C   0  0  0  0  0  0  0  0  0  0  0  0
   19.6536  -22.8056  -10.9286 C   0  0  0  0  0  0  0  0  0  0  0  0
   20.5764  -22.0968  -10.0034 C   0  0  2  0  0  0  0  0  0  0  0  0
   19.9300  -21.3113   -8.9755 N   0  0  0  0  0  0  0  0  0  0  0  0
   21.4194  -21.1897  -10.8704 C   0  0  0  0  0  0  0  0  0  0  0  0
   20.9456  -20.1722  -11.4303 O   0  0  0  0  0  0  0  0  0  0  0  0
   16.0067  -26.6251   -8.0187 N   0  0  0  0  0  0  0  0  0  0  0  0
   22.7921  -21.4564  -11.0857 C   0  0  1  0  0  0  0  0  0  0  0  0
   23.6754  -20.5696  -11.8416 C   0  0  0  0  0  0  0  0  0  0  0  0
   25.1188  -20.8482  -11.4136 S   0  0  0  0  0  0  0  0  0  0  0  0
   25.3444  -20.2924   -9.7212 C   0  0  0  0  0  0  0  0  0  0  0  0
   23.4434  -20.6835  -13.2765 O   0  0  0  0  0  0  0  0  0  0  0  0
   23.3790  -21.8584  -13.7815 C   0  0  0  0  0  0  0  0  0  0  0  0
   20.5600  -19.2560  -15.0076 C   0  0  1  0  0  0  0  0  0  0  0  0
   21.7602  -18.8997  -15.8790 C   0  0  0  0  0  0  0  0  0  0  0  0
   21.3853  -18.8976  -17.3419 C   0  0  2  0  0  0  0  0  0  0  0  0
   22.9124  -19.8336  -15.5859 N   0  0  0  0  0  0  0  0  0  0  0  0
   23.2765  -19.6277  -14.1865 C   0  0  0  0  0  0  0  0  0  0  0  0
   24.0783  -19.5961  -16.4759 O   0  0  0  0  0  0  0  0  0  0  0  0
   24.2375  -20.3966  -17.6126 O   0  0  0  0  0  0  0  0  0  0  0  0
  2  1  1  0
  3  2  2  0
  4  2  1  0
  5  6  1  0
  5  4  1  0
  7  6  1  0
  8  7  1  0
  8 10  1  0
  8  9  1  1
 10 12  1  0
 10 11  2  0
 12 13  1  0
 13 14  1  1
 14 15  1  0
 16 17  2  0
 16 13  1  0
 19 18  1  1
 19 21  1  0
 19 20  1  0
 21 22  1  6
 22 16  1  0
 23 21  1  0
 24 23  1  0
 25 23  2  0
M  END
$$$$
