RCV.pdb
     RDKit          3D

 25 24  0  0  1  0  0  0  0  0999 V2000
   28.8966  -17.7533  -19.4427 N   0  0  0  0  0  0  0  0  0  0  0  0
   29.7013  -18.9125  -19.3288 C   0  0  0  0  0  0  0  0  0  0  0  0
   30.9754  -18.7992  -19.5871 N   0  0  0  0  0  0  0  0  0  0  0  0
   29.1894  -20.1646  -18.9518 N   0  0  0  0  0  0  0  0  0  0  0  0
   27.7728  -20.3292  -18.6190 C   0  0  0  0  0  0  0  0  0  0  0  0
   27.4674  -19.5005  -17.4080 C   0  0  0  0  0  0  0  0  0  0  0  0
   26.5667  -20.1491  -16.4194 C   0  0  0  0  0  0  0  0  0  0  0  0
   27.2110  -20.9125  -15.3185 C   0  0  2  0  0  0  0  0  0  0  0  0
   27.9721  -22.0684  -15.7378 N   0  0  0  0  0  0  0  0  0  0  0  0
   26.0891  -21.3557  -14.4074 C   0  0  0  0  0  0  0  0  0  0  0  0
   25.2619  -22.2355  -14.7465 O   0  0  0  0  0  0  0  0  0  0  0  0
   31.6315  -19.5896  -19.5567 N   0  0  0  0  0  0  0  0  0  0  0  0
   25.9275  -20.7890  -13.1211 C   0  0  1  0  0  0  0  0  0  0  0  0
   24.8459  -21.1580  -12.2090 C   0  0  0  0  0  0  0  0  0  0  0  0
   25.1879  -20.6244  -10.8153 S   0  0  0  0  0  0  0  0  0  0  0  0
   23.8242  -20.9795   -9.7024 C   0  0  0  0  0  0  0  0  0  0  0  0
   23.5500  -20.7227  -12.7159 O   0  0  0  0  0  0  0  0  0  0  0  0
   23.4288  -19.5010  -13.0798 C   0  0  0  0  0  0  0  0  0  0  0  0
   19.4343  -21.3081  -15.1463 C   0  0  1  0  0  0  0  0  0  0  0  0
   20.7544  -21.8015  -14.5626 C   0  0  0  0  0  0  0  0  0  0  0  0
   20.6912  -23.2784  -14.2539 C   0  0  2  0  0  0  0  0  0  0  0  0
   21.1272  -20.9798  -13.3496 N   0  0  0  0  0  0  0  0  0  0  0  0
   22.3956  -21.5091  -12.8554 C   0  0  0  0  0  0  0  0  0  0  0  0
   20.0867  -21.0248  -12.2897 O   0  0  0  0  0  0  0  0  0  0  0  0
   19.0038  -20.1419  -12.3649 O   0  0  0  0  0  0  0  0  0  0  0  0
  2  1  1  0
  3  2  2  0
  4  2  1  0
  5  6  1  0
  5  4  1  0
  7  6  1  0
  8  7  1  0
  8 10  1  0
  8  9  1  6
 10 12  1  0
 10 11  2  0
 12 13  1  0
 13 14  1  1
 14 15  1  0
 16 17  2  0
 16 13  1  0
 19 18  1  6
 19 21  1  0
 19 20  1  0
 21 22  1  1
 22 16  1  0
 23 21  1  0
 24 23  1  0
 25 23  2  0
M  END
$$$$
