RCV.pdb
     RDKit          3D

 25 24  0  0  1  0  0  0  0  0999 V2000
   20.8708  -29.1765   -9.2821 N   0  0  0  0  0  0  0  0  0  0  0  0
   20.9571  -29.2527  -10.6932 C   0  0  0  0  0  0  0  0  0  0  0  0
   21.6172  -30.2520  -11.2114 N   0  0  0  0  0  0  0  0  0  0  0  0
   20.3664  -28.3077  -11.5475 N   0  0  0  0  0  0  0  0  0  0  0  0
   19.9599  -26.9923  -11.0483 C   0  0  0  0  0  0  0  0  0  0  0  0
   18.5231  -27.0643  -10.6276 C   0  0  0  0  0  0  0  0  0  0  0  0
   17.9338  -25.7696  -10.1969 C   0  0  0  0  0  0  0  0  0  0  0  0
   18.7268  -24.9514   -9.2422 C   0  0  2  0  0  0  0  0  0  0  0  0
   18.2551  -24.9755   -7.8753 N   0  0  0  0  0  0  0  0  0  0  0  0
   18.6737  -23.5339   -9.7649 C   0  0  0  0  0  0  0  0  0  0  0  0
   17.6291  -22.8416   -9.7116 O   0  0  0  0  0  0  0  0  0  0  0  0
   21.8165  -30.3384  -12.2159 N   0  0  0  0  0  0  0  0  0  0  0  0
   19.8142  -22.9260  -10.3405 C   0  0  2  0  0  0  0  0  0  0  0  0
   19.8189  -21.5632  -10.8703 C   0  0  0  0  0  0  0  0  0  0  0  0
   21.0586  -20.8421  -10.3343 S   0  0  0  0  0  0  0  0  0  0  0  0
   21.0720  -19.1589  -10.9593 C   0  0  0  0  0  0  0  0  0  0  0  0
   19.7034  -21.5564  -12.3237 O   0  0  0  0  0  0  0  0  0  0  0  0
   20.4248  -22.3816  -12.9858 C   0  0  0  0  0  0  0  0  0  0  0  0
   16.5430  -19.8542  -14.4731 C   0  0  1  0  0  0  0  0  0  0  0  0
   17.4334  -20.9824  -14.9841 C   0  0  0  0  0  0  0  0  0  0  0  0
   16.9141  -22.3274  -14.5348 C   0  0  1  0  0  0  0  0  0  0  0  0
   18.8648  -20.7508  -14.5565 N   0  0  0  0  0  0  0  0  0  0  0  0
   18.8708  -20.7313  -13.0961 C   0  0  0  0  0  0  0  0  0  0  0  0
   19.4255  -19.4884  -15.1042 O   0  0  0  0  0  0  0  0  0  0  0  0
   19.8284  -19.4506  -16.4437 O   0  0  0  0  0  0  0  0  0  0  0  0
  2  1  1  0
  3  2  2  0
  4  2  1  0
  5  6  1  0
  5  4  1  0
  7  6  1  0
  8  7  1  0
  8 10  1  0
  8  9  1  1
 10 12  1  0
 10 11  2  0
 12 13  1  0
 13 14  1  1
 14 15  1  0
 16 17  2  0
 16 13  1  0
 19 18  1  6
 19 21  1  0
 19 20  1  0
 21 22  1  1
 22 16  1  0
 23 21  1  0
 24 23  1  0
 25 23  2  0
M  END
$$$$
