RCV.pdb
     RDKit          3D

 25 24  0  0  1  0  0  0  0  0999 V2000
   18.0709  -25.3798   -5.2735 N   0  0  0  0  0  0  0  0  0  0  0  0
   17.8747  -26.6300   -5.9084 C   0  0  0  0  0  0  0  0  0  0  0  0
   17.2513  -27.5623   -5.2415 N   0  0  0  0  0  0  0  0  0  0  0  0
   18.3178  -26.9030   -7.2126 N   0  0  0  0  0  0  0  0  0  0  0  0
   18.8268  -25.8336   -8.0739 C   0  0  0  0  0  0  0  0  0  0  0  0
   17.7933  -25.5261   -9.1150 C   0  0  0  0  0  0  0  0  0  0  0  0
   18.1050  -24.3558   -9.9766 C   0  0  0  0  0  0  0  0  0  0  0  0
   18.3275  -23.0545   -9.2930 C   0  0  2  0  0  0  0  0  0  0  0  0
   17.2606  -22.6350   -8.4115 N   0  0  0  0  0  0  0  0  0  0  0  0
   18.4999  -22.0312  -10.3922 C   0  0  0  0  0  0  0  0  0  0  0  0
   17.5236  -21.4430  -10.9157 O   0  0  0  0  0  0  0  0  0  0  0  0
   17.0011  -28.4745   -5.6433 N   0  0  0  0  0  0  0  0  0  0  0  0
   19.7849  -21.6927  -10.8780 C   0  0  1  0  0  0  0  0  0  0  0  0
   20.0191  -20.6505  -11.8765 C   0  0  0  0  0  0  0  0  0  0  0  0
   21.4123  -20.0612  -11.6399 S   0  0  0  0  0  0  0  0  0  0  0  0
   21.4094  -19.1580  -10.0880 C   0  0  0  0  0  0  0  0  0  0  0  0
   19.8015  -21.1499  -13.2288 O   0  0  0  0  0  0  0  0  0  0  0  0
   20.3461  -22.2631  -13.5511 C   0  0  0  0  0  0  0  0  0  0  0  0
   16.5230  -21.5980  -15.1006 C   0  0  1  0  0  0  0  0  0  0  0  0
   17.4851  -20.8500  -16.0179 C   0  0  0  0  0  0  0  0  0  0  0  0
   17.2571  -21.2253  -17.4629 C   0  0  2  0  0  0  0  0  0  0  0  0
   18.9129  -21.0912  -15.5835 N   0  0  0  0  0  0  0  0  0  0  0  0
   19.0440  -20.5362  -14.2388 C   0  0  0  0  0  0  0  0  0  0  0  0
   19.9008  -20.4763  -16.5077 O   0  0  0  0  0  0  0  0  0  0  0  0
   20.3945  -21.2351  -17.5746 O   0  0  0  0  0  0  0  0  0  0  0  0
  2  1  1  0
  3  2  2  0
  4  2  1  0
  5  6  1  0
  5  4  1  0
  7  6  1  0
  8  7  1  0
  8 10  1  0
  8  9  1  1
 10 12  1  0
 10 11  2  0
 12 13  1  0
 13 14  1  1
 14 15  1  0
 16 17  2  0
 16 13  1  0
 19 18  1  6
 19 21  1  0
 19 20  1  0
 21 22  1  6
 22 16  1  0
 23 21  1  0
 24 23  1  0
 25 23  2  0
M  END
$$$$
