NTS.pdb
     RDKit          3D

 22 21  0  0  1  0  0  0  0  0999 V2000
   11.5300  -19.0029   16.4691 N   0  0  0  0  0  0  0  0  0  0  0  0
   11.9949  -18.0489   17.4374 C   0  0  0  0  0  0  0  0  0  0  0  0
   13.2056  -17.9993   17.7197 O   0  0  0  0  0  0  0  0  0  0  0  0
   10.9580  -17.1757   18.0376 C   0  0  0  0  0  0  0  0  0  0  0  0
   11.0200  -17.3443   19.5467 C   0  0  2  0  0  0  0  0  0  0  0  0
   10.4453  -18.6067   19.9435 N   0  0  0  0  0  0  0  0  0  0  0  0
   10.2867  -16.2171   20.2206 C   0  0  0  0  0  0  0  0  0  0  0  0
   10.5141  -15.0288   19.9117 O   0  0  0  0  0  0  0  0  0  0  0  0
    6.6951  -15.7330   20.3121 C   0  0  0  0  0  0  0  0  0  0  0  0
    7.0991  -15.8439   21.7659 C   0  0  1  0  0  0  0  0  0  0  0  0
    6.8658  -17.1246   22.2052 O   0  0  0  0  0  0  0  0  0  0  0  0
    8.5694  -15.5113   21.9263 C   0  0  2  0  0  0  0  0  0  0  0  0
    9.3302  -16.4955   21.2132 N   0  0  0  0  0  0  0  0  0  0  0  0
    8.9663  -15.3505   23.3233 C   0  0  0  0  0  0  0  0  0  0  0  0
    9.8373  -16.1194   23.7991 O   0  0  0  0  0  0  0  0  0  0  0  0
    6.8338  -13.1224   26.0079 O   0  0  0  0  0  0  0  0  0  0  0  0
    8.2006  -13.1141   26.2701 C   0  0  0  0  0  0  0  0  0  0  0  0
    8.8636  -14.2869   25.5431 C   0  0  2  0  0  0  0  0  0  0  0  0
    8.4122  -14.3618   24.1745 N   0  0  0  0  0  0  0  0  0  0  0  0
    8.5983  -15.4995   26.3120 C   0  0  0  0  0  0  0  0  0  0  0  0
    9.1082  -15.6344   27.5864 O   0  0  0  0  0  0  0  0  0  0  0  0
    7.9119  -16.4207   25.8274 O   0  0  0  0  0  0  0  0  0  0  0  0
  2  1  1  0
  3  2  2  0
  4  2  1  0
  4  5  1  0
  5  7  1  0
  5  6  1  6
  7 13  1  0
  8  7  2  0
 10  9  1  6
 10 12  1  0
 11 10  1  0
 12 14  1  0
 12 13  1  1
 14 15  2  0
 14 19  1  0
 16 17  1  0
 18 17  1  1
 18 20  1  0
 19 18  1  0
 20 21  1  0
 22 20  2  0
M  END
$$$$
