NTS.pdb
     RDKit          3D

 22 21  0  0  1  0  0  0  0  0999 V2000
   -7.0607  -20.9617   29.1967 N   0  0  0  0  0  0  0  0  0  0  0  0
   -7.4256  -21.4374   30.5022 C   0  0  0  0  0  0  0  0  0  0  0  0
   -7.8522  -20.6352   31.3521 O   0  0  0  0  0  0  0  0  0  0  0  0
   -7.2572  -22.8921   30.7332 C   0  0  0  0  0  0  0  0  0  0  0  0
   -6.7903  -23.5220   29.4312 C   0  0  2  0  0  0  0  0  0  0  0  0
   -7.8690  -23.5766   28.4748 N   0  0  0  0  0  0  0  0  0  0  0  0
   -6.2684  -24.9089   29.6892 C   0  0  0  0  0  0  0  0  0  0  0  0
   -7.0405  -25.8342   30.0161 O   0  0  0  0  0  0  0  0  0  0  0  0
   -4.6096  -27.0535   27.3238 C   0  0  0  0  0  0  0  0  0  0  0  0
   -3.5890  -26.8165   28.4153 C   0  0  1  0  0  0  0  0  0  0  0  0
   -2.7598  -25.7855   28.0451 O   0  0  0  0  0  0  0  0  0  0  0  0
   -4.2861  -26.4667   29.7152 C   0  0  2  0  0  0  0  0  0  0  0  0
   -4.8936  -25.1768   29.5630 N   0  0  0  0  0  0  0  0  0  0  0  0
   -3.4081  -26.5768   30.8780 C   0  0  0  0  0  0  0  0  0  0  0  0
   -2.9702  -25.5270   31.4094 O   0  0  0  0  0  0  0  0  0  0  0  0
   -1.3077  -29.1457   34.3803 O   0  0  0  0  0  0  0  0  0  0  0  0
   -2.1074  -29.2001   33.2426 C   0  0  0  0  0  0  0  0  0  0  0  0
   -2.1205  -27.8270   32.5657 C   0  0  2  0  0  0  0  0  0  0  0  0
   -3.0235  -27.8199   31.4400 N   0  0  0  0  0  0  0  0  0  0  0  0
   -0.7451  -27.4875   32.2123 C   0  0  0  0  0  0  0  0  0  0  0  0
    0.1658  -27.1793   33.2011 O   0  0  0  0  0  0  0  0  0  0  0  0
   -0.3815  -27.4727   31.0198 O   0  0  0  0  0  0  0  0  0  0  0  0
  2  1  1  0
  3  2  2  0
  4  2  1  0
  4  5  1  0
  5  7  1  0
  5  6  1  6
  7 13  1  0
  8  7  2  0
 10  9  1  6
 10 12  1  0
 11 10  1  0
 12 14  1  0
 12 13  1  6
 14 15  2  0
 14 19  1  0
 16 17  1  0
 18 17  1  6
 18 20  1  0
 19 18  1  0
 20 21  1  0
 22 20  2  0
M  END
$$$$
