NTS.pdb
     RDKit          3D

 22 21  0  0  1  0  0  0  0  0999 V2000
   10.8836  -17.9258   15.3423 N   0  0  0  0  0  0  0  0  0  0  0  0
   11.6052  -17.8452   16.5819 C   0  0  0  0  0  0  0  0  0  0  0  0
   12.5261  -18.6499   16.8110 O   0  0  0  0  0  0  0  0  0  0  0  0
   11.1769  -16.7744   17.5135 C   0  0  0  0  0  0  0  0  0  0  0  0
   10.5040  -17.4331   18.7065 C   0  0  2  0  0  0  0  0  0  0  0  0
    9.2224  -17.9797   18.3323 N   0  0  0  0  0  0  0  0  0  0  0  0
   10.3261  -16.4313   19.8142 C   0  0  0  0  0  0  0  0  0  0  0  0
   11.2817  -15.7270   20.2015 O   0  0  0  0  0  0  0  0  0  0  0  0
    7.1487  -14.1779   20.0988 C   0  0  0  0  0  0  0  0  0  0  0  0
    7.3453  -14.9364   21.3931 C   0  0  1  0  0  0  0  0  0  0  0  0
    6.5137  -16.0299   21.4089 O   0  0  0  0  0  0  0  0  0  0  0  0
    8.7859  -15.3914   21.5182 C   0  0  2  0  0  0  0  0  0  0  0  0
    9.0702  -16.2788   20.4282 N   0  0  0  0  0  0  0  0  0  0  0  0
    9.0936  -15.9481   22.8337 C   0  0  0  0  0  0  0  0  0  0  0  0
    9.2021  -17.1929   22.9557 O   0  0  0  0  0  0  0  0  0  0  0  0
    9.6382  -15.4111   27.6146 O   0  0  0  0  0  0  0  0  0  0  0  0
    9.5351  -14.7562   26.3909 C   0  0  0  0  0  0  0  0  0  0  0  0
    9.4419  -15.7921   25.2675 C   0  0  2  0  0  0  0  0  0  0  0  0
    9.2769  -15.1459   23.9877 N   0  0  0  0  0  0  0  0  0  0  0  0
    8.3610  -16.7165   25.5978 C   0  0  0  0  0  0  0  0  0  0  0  0
    7.0867  -16.4867   25.1226 O   0  0  0  0  0  0  0  0  0  0  0  0
    8.5772  -17.7176   26.3087 O   0  0  0  0  0  0  0  0  0  0  0  0
  2  1  1  0
  3  2  2  0
  4  2  1  0
  4  5  1  0
  5  7  1  0
  5  6  1  6
  7 13  1  0
  8  7  2  0
 10  9  1  6
 10 12  1  0
 11 10  1  0
 12 14  1  0
 12 13  1  6
 14 15  2  0
 14 19  1  0
 16 17  1  0
 18 17  1  1
 18 20  1  0
 19 18  1  0
 20 21  1  0
 22 20  2  0
M  END
$$$$
