NTS.pdb
     RDKit          3D

 22 21  0  0  1  0  0  0  0  0999 V2000
    8.1271  -11.4791   26.4725 N   0  0  0  0  0  0  0  0  0  0  0  0
    6.9100  -12.0163   27.0147 C   0  0  0  0  0  0  0  0  0  0  0  0
    6.0305  -11.2435   27.4357 O   0  0  0  0  0  0  0  0  0  0  0  0
    6.8021  -13.4948   27.0269 C   0  0  0  0  0  0  0  0  0  0  0  0
    6.2225  -13.9331   25.6920 C   0  0  2  0  0  0  0  0  0  0  0  0
    4.9112  -14.5081   25.8688 N   0  0  0  0  0  0  0  0  0  0  0  0
    7.1342  -14.9361   25.0400 C   0  0  0  0  0  0  0  0  0  0  0  0
    7.5516  -15.9290   25.6718 O   0  0  0  0  0  0  0  0  0  0  0  0
    6.7660  -14.9483   21.1323 C   0  0  0  0  0  0  0  0  0  0  0  0
    8.1932  -15.3160   21.4746 C   0  0  1  0  0  0  0  0  0  0  0  0
    9.0117  -14.2422   21.2207 O   0  0  0  0  0  0  0  0  0  0  0  0
    8.2972  -15.7000   22.9374 C   0  0  2  0  0  0  0  0  0  0  0  0
    7.5273  -14.7617   23.7011 N   0  0  0  0  0  0  0  0  0  0  0  0
    9.6790  -15.8432   23.3902 C   0  0  0  0  0  0  0  0  0  0  0  0
   10.3070  -14.8195   23.7562 O   0  0  0  0  0  0  0  0  0  0  0  0
   11.3240  -19.4694   24.0267 O   0  0  0  0  0  0  0  0  0  0  0  0
   12.0378  -18.4246   24.6063 C   0  0  0  0  0  0  0  0  0  0  0  0
   11.7305  -17.1244   23.8587 C   0  0  2  0  0  0  0  0  0  0  0  0
   10.3508  -17.0905   23.4369 N   0  0  0  0  0  0  0  0  0  0  0  0
   12.6805  -17.0049   22.7564 C   0  0  0  0  0  0  0  0  0  0  0  0
   12.2251  -16.9446   21.4559 O   0  0  0  0  0  0  0  0  0  0  0  0
   13.9066  -16.9564   22.9778 O   0  0  0  0  0  0  0  0  0  0  0  0
  2  1  1  0
  3  2  2  0
  4  2  1  0
  4  5  1  0
  5  7  1  0
  5  6  1  1
  7 13  1  0
  8  7  2  0
 10  9  1  1
 10 12  1  0
 11 10  1  0
 12 14  1  0
 12 13  1  1
 14 15  2  0
 14 19  1  0
 16 17  1  0
 18 17  1  6
 18 20  1  0
 19 18  1  0
 20 21  1  0
 22 20  2  0
M  END
$$$$
