NTS.pdb
     RDKit          3D

 22 21  0  0  1  0  0  0  0  0999 V2000
   17.5873  -15.7033   15.2545 N   0  0  0  0  0  0  0  0  0  0  0  0
   17.2164  -14.3237   15.1024 C   0  0  0  0  0  0  0  0  0  0  0  0
   17.9030  -13.5783   14.3807 O   0  0  0  0  0  0  0  0  0  0  0  0
   16.0071  -13.8915   15.8430 C   0  0  0  0  0  0  0  0  0  0  0  0
   15.4361  -15.1058   16.5567 C   0  0  2  0  0  0  0  0  0  0  0  0
   14.4588  -15.7712   15.7300 N   0  0  0  0  0  0  0  0  0  0  0  0
   14.8038  -14.6883   17.8561 C   0  0  0  0  0  0  0  0  0  0  0  0
   15.4597  -14.0669   18.7179 O   0  0  0  0  0  0  0  0  0  0  0  0
   10.5337  -14.3841   20.3415 C   0  0  0  0  0  0  0  0  0  0  0  0
   11.2876  -14.7848   19.0925 C   0  0  1  0  0  0  0  0  0  0  0  0
   10.9931  -13.9019   18.0819 O   0  0  0  0  0  0  0  0  0  0  0  0
   12.7802  -14.7747   19.3575 C   0  0  2  0  0  0  0  0  0  0  0  0
   13.4562  -14.9976   18.1127 N   0  0  0  0  0  0  0  0  0  0  0  0
   13.1744  -15.6955   20.4214 C   0  0  0  0  0  0  0  0  0  0  0  0
   13.2299  -16.9244   20.1707 O   0  0  0  0  0  0  0  0  0  0  0  0
   16.0508  -15.0623   22.8213 O   0  0  0  0  0  0  0  0  0  0  0  0
   15.0426  -15.6234   23.5995 C   0  0  0  0  0  0  0  0  0  0  0  0
   13.9793  -16.2382   22.6856 C   0  0  2  0  0  0  0  0  0  0  0  0
   13.4997  -15.2665   21.7325 N   0  0  0  0  0  0  0  0  0  0  0  0
   12.9270  -16.7940   23.5316 C   0  0  0  0  0  0  0  0  0  0  0  0
   11.6491  -16.2783   23.4725 O   0  0  0  0  0  0  0  0  0  0  0  0
   13.1711  -17.7352   24.3121 O   0  0  0  0  0  0  0  0  0  0  0  0
  2  1  1  0
  3  2  2  0
  4  2  1  0
  4  5  1  0
  5  7  1  0
  5  6  1  6
  7 13  1  0
  8  7  2  0
 10  9  1  1
 10 12  1  0
 11 10  1  0
 12 14  1  0
 12 13  1  6
 14 15  2  0
 14 19  1  0
 16 17  1  0
 18 17  1  1
 18 20  1  0
 19 18  1  0
 20 21  1  0
 22 20  2  0
M  END
$$$$
