NTS.pdb
     RDKit          3D

 22 21  0  0  1  0  0  0  0  0999 V2000
    9.6234  -18.1529   14.8557 N   0  0  0  0  0  0  0  0  0  0  0  0
   10.4674  -18.0856   16.0163 C   0  0  0  0  0  0  0  0  0  0  0  0
   11.4352  -18.8607   16.1188 O   0  0  0  0  0  0  0  0  0  0  0  0
   10.1012  -17.0642   17.0265 C   0  0  0  0  0  0  0  0  0  0  0  0
   10.1075  -17.7322   18.3915 C   0  0  2  0  0  0  0  0  0  0  0  0
    9.0109  -18.6622   18.5100 N   0  0  0  0  0  0  0  0  0  0  0  0
   10.0116  -16.6919   19.4736 C   0  0  0  0  0  0  0  0  0  0  0  0
   10.8367  -15.7569   19.5392 O   0  0  0  0  0  0  0  0  0  0  0  0
    6.7925  -14.8947   20.3740 C   0  0  0  0  0  0  0  0  0  0  0  0
    7.3045  -15.5622   21.6316 C   0  0  1  0  0  0  0  0  0  0  0  0
    6.6292  -16.7427   21.8258 O   0  0  0  0  0  0  0  0  0  0  0  0
    8.7896  -15.8403   21.5078 C   0  0  2  0  0  0  0  0  0  0  0  0
    8.9822  -16.7649   20.4289 N   0  0  0  0  0  0  0  0  0  0  0  0
    9.3952  -16.2632   22.7685 C   0  0  0  0  0  0  0  0  0  0  0  0
    9.9505  -17.3876   22.8280 O   0  0  0  0  0  0  0  0  0  0  0  0
    8.6095  -14.2950   26.2269 O   0  0  0  0  0  0  0  0  0  0  0  0
    9.8134  -14.9893   26.3009 C   0  0  0  0  0  0  0  0  0  0  0  0
    9.8727  -16.0233   25.1735 C   0  0  2  0  0  0  0  0  0  0  0  0
    9.3867  -15.4605   23.9367 N   0  0  0  0  0  0  0  0  0  0  0  0
    9.1317  -17.2041   25.6078 C   0  0  0  0  0  0  0  0  0  0  0  0
    9.5397  -17.9031   26.7246 O   0  0  0  0  0  0  0  0  0  0  0  0
    8.1279  -17.5908   24.9773 O   0  0  0  0  0  0  0  0  0  0  0  0
  2  1  1  0
  3  2  2  0
  4  2  1  0
  4  5  1  0
  5  7  1  0
  5  6  1  6
  7 13  1  0
  8  7  2  0
 10  9  1  6
 10 12  1  0
 11 10  1  0
 12 14  1  0
 12 13  1  6
 14 15  2  0
 14 19  1  0
 16 17  1  0
 18 17  1  1
 18 20  1  0
 19 18  1  0
 20 21  1  0
 22 20  2  0
M  END
$$$$
