VKY.pdb
     RDKit          3D

 29 29  0  0  1  0  0  0  0  0999 V2000
   24.1340  -13.6431  -15.4530 C   0  0  0  0  0  0  0  0  0  0  0  0
   23.5735  -12.2581  -15.5711 C   0  0  1  0  0  0  0  0  0  0  0  0
   24.6141  -11.2410  -15.9805 C   0  0  0  0  0  0  0  0  0  0  0  0
   22.4265  -12.1985  -16.5645 C   0  0  2  0  0  0  0  0  0  0  0  0
   22.9820  -12.5220  -17.8596 N   0  0  0  0  0  0  0  0  0  0  0  0
   21.9494  -10.8007  -16.5894 C   0  0  0  0  0  0  0  0  0  0  0  0
   22.5109   -9.9680  -17.3727 O   0  0  0  0  0  0  0  0  0  0  0  0
   20.8846  -10.4207  -15.7465 N   0  0  0  0  0  0  0  0  0  0  0  0
   20.3056   -9.0463  -15.8898 C   0  0  1  0  0  0  0  0  0  0  0  0
   18.8562   -9.2621  -15.6600 C   0  0  0  0  0  0  0  0  0  0  0  0
   17.9851   -9.7612  -16.7414 C   0  0  0  0  0  0  0  0  0  0  0  0
   16.5645   -9.9342  -16.3051 C   0  0  0  0  0  0  0  0  0  0  0  0
   15.7204  -10.5953  -17.3874 C   0  0  0  0  0  0  0  0  0  0  0  0
   15.7239  -12.0394  -17.1477 N   0  0  0  0  0  0  0  0  0  0  0  0
   21.0602   -8.1735  -15.0212 C   0  0  0  0  0  0  0  0  0  0  0  0
   21.5391   -8.6273  -13.9182 O   0  0  0  0  0  0  0  0  0  0  0  0
   22.9289   -2.5693  -19.6454 O   0  0  0  0  0  0  0  0  0  0  0  0
   23.0572   -3.3304  -18.4892 C   0  0  0  0  0  0  0  0  0  0  0  0
   23.1534   -4.6970  -18.5711 C   0  0  0  0  0  0  0  0  0  0  0  0
   23.2839   -5.5095  -17.4413 C   0  0  0  0  0  0  0  0  0  0  0  0
   23.3186   -4.9348  -16.1958 C   0  0  0  0  0  0  0  0  0  0  0  0
   23.4492   -5.7171  -14.9577 C   0  0  0  0  0  0  0  0  0  0  0  0
   22.0726   -6.0156  -14.3722 C   0  0  2  0  0  0  0  0  0  0  0  0
   21.3276   -6.8133  -15.3236 N   0  0  0  0  0  0  0  0  0  0  0  0
   21.2997   -4.7987  -14.0738 C   0  0  0  0  0  0  0  0  0  0  0  0
   20.1164   -4.5430  -14.7082 O   0  0  0  0  0  0  0  0  0  0  0  0
   23.2203   -3.5414  -16.1174 C   0  0  0  0  0  0  0  0  0  0  0  0
   23.0923   -2.7598  -17.2454 C   0  0  0  0  0  0  0  0  0  0  0  0
   21.7399   -3.9895  -13.2253 O   0  0  0  0  0  0  0  0  0  0  0  0
  2  1  1  6
  2  3  1  0
  4  2  1  0
  4  5  1  6
  6  7  2  0
  6  4  1  0
  8  6  1  0
  9  8  1  0
  9 10  1  1
 11 12  1  0
 11 10  1  0
 13 12  1  0
 14 13  1  0
 15  9  1  0
 16 15  2  0
 17 18  1  0
 18 28  2  0
 19 20  2  0
 19 18  1  0
 20 21  1  0
 21 22  1  0
 21 27  2  0
 23 22  1  6
 23 24  1  0
 24 15  1  0
 25 26  1  0
 25 23  1  0
 28 27  1  0
 29 25  2  0
M  END
$$$$
