VKY.pdb
     RDKit          3D

 29 29  0  0  1  0  0  0  0  0999 V2000
   31.3064  -26.2799  -24.0460 C   0  0  0  0  0  0  0  0  0  0  0  0
   30.9315  -26.4826  -22.6091 C   0  0  1  0  0  0  0  0  0  0  0  0
   30.7164  -25.1798  -21.8734 C   0  0  0  0  0  0  0  0  0  0  0  0
   29.6768  -27.3264  -22.4690 C   0  0  2  0  0  0  0  0  0  0  0  0
   28.5980  -26.5674  -23.0612 N   0  0  0  0  0  0  0  0  0  0  0  0
   29.4146  -27.4729  -21.0226 C   0  0  0  0  0  0  0  0  0  0  0  0
   30.3090  -27.9938  -20.2803 O   0  0  0  0  0  0  0  0  0  0  0  0
   28.1819  -27.0334  -20.4975 N   0  0  0  0  0  0  0  0  0  0  0  0
   27.8945  -27.2591  -19.0445 C   0  0  1  0  0  0  0  0  0  0  0  0
   26.9069  -26.1998  -18.7244 C   0  0  0  0  0  0  0  0  0  0  0  0
   26.8300  -25.6221  -17.3687 C   0  0  0  0  0  0  0  0  0  0  0  0
   25.7280  -24.6198  -17.2298 C   0  0  0  0  0  0  0  0  0  0  0  0
   25.6841  -24.0229  -15.8289 C   0  0  0  0  0  0  0  0  0  0  0  0
   24.5172  -23.1429  -15.7462 N   0  0  0  0  0  0  0  0  0  0  0  0
   27.5462  -28.6522  -18.8906 C   0  0  0  0  0  0  0  0  0  0  0  0
   26.8176  -29.2308  -19.7774 O   0  0  0  0  0  0  0  0  0  0  0  0
   26.4205  -36.9978  -18.7308 O   0  0  0  0  0  0  0  0  0  0  0  0
   26.7981  -35.6615  -18.7953 C   0  0  0  0  0  0  0  0  0  0  0  0
   28.0943  -35.2982  -18.5283 C   0  0  0  0  0  0  0  0  0  0  0  0
   28.5273  -33.9702  -18.5786 C   0  0  0  0  0  0  0  0  0  0  0  0
   27.6352  -32.9803  -18.9056 C   0  0  0  0  0  0  0  0  0  0  0  0
   28.0079  -31.5597  -18.9766 C   0  0  0  0  0  0  0  0  0  0  0  0
   27.5462  -30.8277  -17.7203 C   0  0  2  0  0  0  0  0  0  0  0  0
   27.9822  -29.4493  -17.8008 N   0  0  0  0  0  0  0  0  0  0  0  0
   28.0826  -31.4175  -16.4826 C   0  0  0  0  0  0  0  0  0  0  0  0
   29.3163  -31.0650  -16.0119 O   0  0  0  0  0  0  0  0  0  0  0  0
   26.3151  -33.3556  -19.1771 C   0  0  0  0  0  0  0  0  0  0  0  0
   25.9103  -34.6719  -19.1214 C   0  0  0  0  0  0  0  0  0  0  0  0
   27.3925  -32.2550  -15.8574 O   0  0  0  0  0  0  0  0  0  0  0  0
  2  1  1  6
  2  3  1  0
  4  2  1  0
  4  5  1  6
  6  7  2  0
  6  4  1  0
  8  6  1  0
  9  8  1  0
  9 10  1  6
 11 12  1  0
 11 10  1  0
 13 12  1  0
 14 13  1  0
 15  9  1  0
 16 15  2  0
 17 18  1  0
 18 28  2  0
 19 20  2  0
 19 18  1  0
 20 21  1  0
 21 22  1  0
 21 27  2  0
 23 22  1  6
 23 24  1  0
 24 15  1  0
 25 26  1  0
 25 23  1  0
 28 27  1  0
 29 25  2  0
M  END
$$$$
