YFA.pdb
     RDKit          3D

 29 30  0  0  1  0  0  0  0  0999 V2000
    6.3218  -12.4395   19.3346 O   0  0  0  0  0  0  0  0  0  0  0  0
    7.3512  -13.3799   19.4932 C   0  0  0  0  0  0  0  0  0  0  0  0
    7.1694  -14.6463   19.0302 C   0  0  0  0  0  0  0  0  0  0  0  0
    8.1732  -15.5733   19.1817 C   0  0  0  0  0  0  0  0  0  0  0  0
    9.3744  -15.2315   19.8037 C   0  0  0  0  0  0  0  0  0  0  0  0
   10.4002  -16.2727   19.9299 C   0  0  0  0  0  0  0  0  0  0  0  0
    9.9873  -17.2756   20.9926 C   0  0  2  0  0  0  0  0  0  0  0  0
    8.5718  -17.5819   20.9050 N   0  0  0  0  0  0  0  0  0  0  0  0
   10.2196  -16.6018   22.3095 C   0  0  0  0  0  0  0  0  0  0  0  0
   11.3292  -16.0832   22.5981 O   0  0  0  0  0  0  0  0  0  0  0  0
    9.5474  -13.9543   20.2662 C   0  0  0  0  0  0  0  0  0  0  0  0
    8.5320  -13.0302   20.1087 C   0  0  0  0  0  0  0  0  0  0  0  0
    9.1871  -16.5259   23.2826 N   0  0  0  0  0  0  0  0  0  0  0  0
    9.4724  -16.0227   24.5890 C   0  0  1  0  0  0  0  0  0  0  0  0
    8.3455  -15.1765   25.1475 C   0  0  0  0  0  0  0  0  0  0  0  0
    8.7076  -14.5143   26.4036 C   0  0  0  0  0  0  0  0  0  0  0  0
    8.8908  -15.1852   27.5960 C   0  0  0  0  0  0  0  0  0  0  0  0
    9.2308  -14.5358   28.7607 C   0  0  0  0  0  0  0  0  0  0  0  0
    9.4016  -13.1592   28.7654 C   0  0  0  0  0  0  0  0  0  0  0  0
    9.2239  -12.4693   27.5872 C   0  0  0  0  0  0  0  0  0  0  0  0
    8.8817  -13.1443   26.4269 C   0  0  0  0  0  0  0  0  0  0  0  0
    9.8404  -17.1136   25.5388 C   0  0  0  0  0  0  0  0  0  0  0  0
    8.9364  -17.8525   26.0053 O   0  0  0  0  0  0  0  0  0  0  0  0
   13.1169  -18.6570   26.4193 C   0  0  0  0  0  0  0  0  0  0  0  0
   11.6328  -18.4273   26.7220 C   0  0  2  0  0  0  0  0  0  0  0  0
   11.1936  -17.3221   25.9170 N   0  0  0  0  0  0  0  0  0  0  0  0
   11.5505  -18.1403   28.1760 C   0  0  0  0  0  0  0  0  0  0  0  0
   11.2024  -17.0381   28.6655 O   0  0  0  0  0  0  0  0  0  0  0  0
   11.8814  -19.1615   29.0546 O   0  0  0  0  0  0  0  0  0  0  0  0
  2  1  1  0
  3  2  2  0
  4  3  1  0
  5 11  1  0
  5  4  2  0
  6  5  1  0
  7  6  1  0
  7  8  1  6
  9  7  1  0
  9 10  2  0
 11 12  2  0
 12  2  1  0
 13  9  1  0
 14 13  1  0
 14 15  1  1
 16 15  1  0
 16 17  2  0
 18 17  1  0
 19 18  2  0
 20 21  2  0
 20 19  1  0
 21 16  1  0
 22 14  1  0
 23 22  2  0
 25 24  1  6
 25 27  1  0
 25 26  1  0
 26 22  1  0
 27 29  1  0
 28 27  2  0
M  END
$$$$
