YFA.pdb
     RDKit          3D

 29 30  0  0  1  0  0  0  0  0999 V2000
    6.5906  -13.4320   17.4199 O   0  0  0  0  0  0  0  0  0  0  0  0
    7.6782  -14.0522   18.0537 C   0  0  0  0  0  0  0  0  0  0  0  0
    8.3381  -13.3869   19.0401 C   0  0  0  0  0  0  0  0  0  0  0  0
    9.4046  -13.9878   19.6658 C   0  0  0  0  0  0  0  0  0  0  0  0
    9.8178  -15.2697   19.3019 C   0  0  0  0  0  0  0  0  0  0  0  0
   10.9634  -15.8473   20.0135 C   0  0  0  0  0  0  0  0  0  0  0  0
   10.4728  -16.7708   21.1144 C   0  0  2  0  0  0  0  0  0  0  0  0
    9.2218  -17.4079   20.7479 N   0  0  0  0  0  0  0  0  0  0  0  0
   10.2000  -15.8948   22.2979 C   0  0  0  0  0  0  0  0  0  0  0  0
   11.0697  -15.1043   22.7475 O   0  0  0  0  0  0  0  0  0  0  0  0
    9.1469  -15.9308   18.3079 C   0  0  0  0  0  0  0  0  0  0  0  0
    8.0762  -15.3177   17.6854 C   0  0  0  0  0  0  0  0  0  0  0  0
    8.9411  -15.9282   22.9559 N   0  0  0  0  0  0  0  0  0  0  0  0
    8.7159  -15.1150   24.1088 C   0  0  1  0  0  0  0  0  0  0  0  0
    7.2633  -14.7098   24.2625 C   0  0  0  0  0  0  0  0  0  0  0  0
    7.0780  -13.6404   25.2471 C   0  0  0  0  0  0  0  0  0  0  0  0
    7.4770  -12.3350   25.0417 C   0  0  0  0  0  0  0  0  0  0  0  0
    7.2896  -11.3514   25.9857 C   0  0  0  0  0  0  0  0  0  0  0  0
    6.6811  -11.6544   27.1949 C   0  0  0  0  0  0  0  0  0  0  0  0
    6.2749  -12.9503   27.4216 C   0  0  0  0  0  0  0  0  0  0  0  0
    6.4740  -13.9239   26.4565 C   0  0  0  0  0  0  0  0  0  0  0  0
    9.2235  -15.7610   25.3548 C   0  0  0  0  0  0  0  0  0  0  0  0
    9.0951  -17.0034   25.4984 O   0  0  0  0  0  0  0  0  0  0  0  0
   11.0249  -14.4090   28.3735 C   0  0  0  0  0  0  0  0  0  0  0  0
   10.5840  -15.5599   27.4635 C   0  0  2  0  0  0  0  0  0  0  0  0
    9.8457  -14.9892   26.3719 N   0  0  0  0  0  0  0  0  0  0  0  0
    9.7522  -16.4541   28.3072 C   0  0  0  0  0  0  0  0  0  0  0  0
   10.1913  -17.1492   29.2558 O   0  0  0  0  0  0  0  0  0  0  0  0
    8.3955  -16.5264   28.0276 O   0  0  0  0  0  0  0  0  0  0  0  0
  2  1  1  0
  3  2  2  0
  4  3  1  0
  5 11  1  0
  5  4  2  0
  6  5  1  0
  7  6  1  0
  7  8  1  6
  9  7  1  0
  9 10  2  0
 11 12  2  0
 12  2  1  0
 13  9  1  0
 14 13  1  0
 14 15  1  1
 16 15  1  0
 16 17  2  0
 18 17  1  0
 19 18  2  0
 20 21  2  0
 20 19  1  0
 21 16  1  0
 22 14  1  0
 23 22  2  0
 25 24  1  1
 25 27  1  0
 25 26  1  0
 26 22  1  0
 27 29  1  0
 28 27  2  0
M  END
$$$$
