YFA.pdb
     RDKit          3D

 29 30  0  0  1  0  0  0  0  0999 V2000
    7.7172  -11.7738   17.5767 O   0  0  0  0  0  0  0  0  0  0  0  0
    7.8803  -12.7041   18.6146 C   0  0  0  0  0  0  0  0  0  0  0  0
    9.0908  -12.8090   19.2267 C   0  0  0  0  0  0  0  0  0  0  0  0
    9.2586  -13.7180   20.2443 C   0  0  0  0  0  0  0  0  0  0  0  0
    8.2038  -14.5332   20.6562 C   0  0  0  0  0  0  0  0  0  0  0  0
    8.4565  -15.4797   21.7482 C   0  0  0  0  0  0  0  0  0  0  0  0
    9.8644  -15.2848   22.2825 C   0  0  2  0  0  0  0  0  0  0  0  0
   10.8166  -16.1172   21.5715 N   0  0  0  0  0  0  0  0  0  0  0  0
    9.8350  -15.7518   23.7050 C   0  0  0  0  0  0  0  0  0  0  0  0
   10.8937  -15.9715   24.3488 O   0  0  0  0  0  0  0  0  0  0  0  0
    6.9895  -14.4198   20.0335 C   0  0  0  0  0  0  0  0  0  0  0  0
    6.8316  -13.5028   19.0118 C   0  0  0  0  0  0  0  0  0  0  0  0
    8.6019  -15.9633   24.3784 N   0  0  0  0  0  0  0  0  0  0  0  0
    8.5623  -15.9846   25.8064 C   0  0  1  0  0  0  0  0  0  0  0  0
    7.2385  -15.4969   26.3609 C   0  0  0  0  0  0  0  0  0  0  0  0
    7.1835  -14.0378   26.4862 C   0  0  0  0  0  0  0  0  0  0  0  0
    8.2930  -13.2477   26.7102 C   0  0  0  0  0  0  0  0  0  0  0  0
    8.2104  -11.8787   26.8237 C   0  0  0  0  0  0  0  0  0  0  0  0
    6.9818  -11.2443   26.7131 C   0  0  0  0  0  0  0  0  0  0  0  0
    5.8613  -12.0127   26.4896 C   0  0  0  0  0  0  0  0  0  0  0  0
    5.9687  -13.3893   26.3788 C   0  0  0  0  0  0  0  0  0  0  0  0
    8.9060  -17.3298   26.3539 C   0  0  0  0  0  0  0  0  0  0  0  0
    8.5849  -17.6118   27.5363 O   0  0  0  0  0  0  0  0  0  0  0  0
   10.5717  -20.3487   24.8391 C   0  0  0  0  0  0  0  0  0  0  0  0
    9.9434  -19.5990   26.0182 C   0  0  2  0  0  0  0  0  0  0  0  0
    9.5878  -18.2868   25.5558 N   0  0  0  0  0  0  0  0  0  0  0  0
   10.9784  -19.5665   27.0818 C   0  0  0  0  0  0  0  0  0  0  0  0
   11.5446  -18.5242   27.4925 O   0  0  0  0  0  0  0  0  0  0  0  0
   11.3451  -20.7721   27.6618 O   0  0  0  0  0  0  0  0  0  0  0  0
  2  1  1  0
  3  2  2  0
  4  3  1  0
  5 11  1  0
  5  4  2  0
  6  5  1  0
  7  6  1  0
  7  8  1  6
  9  7  1  0
  9 10  2  0
 11 12  2  0
 12  2  1  0
 13  9  1  0
 14 13  1  0
 14 15  1  6
 16 15  1  0
 16 17  2  0
 18 17  1  0
 19 18  2  0
 20 21  2  0
 20 19  1  0
 21 16  1  0
 22 14  1  0
 23 22  2  0
 25 24  1  6
 25 27  1  0
 25 26  1  0
 26 22  1  0
 27 29  1  0
 28 27  2  0
M  END
$$$$
