YFA.pdb
     RDKit          3D

 29 30  0  0  1  0  0  0  0  0999 V2000
   10.1250  -18.9811   14.7747 O   0  0  0  0  0  0  0  0  0  0  0  0
    9.9889  -18.1973   15.9308 C   0  0  0  0  0  0  0  0  0  0  0  0
   11.0815  -17.9675   16.7083 C   0  0  0  0  0  0  0  0  0  0  0  0
   10.9563  -17.2006   17.8424 C   0  0  0  0  0  0  0  0  0  0  0  0
    9.7241  -16.6561   18.2051 C   0  0  0  0  0  0  0  0  0  0  0  0
    9.6662  -15.8482   19.4284 C   0  0  0  0  0  0  0  0  0  0  0  0
    9.7344  -16.7528   20.6460 C   0  0  2  0  0  0  0  0  0  0  0  0
    8.5932  -17.6471   20.7014 N   0  0  0  0  0  0  0  0  0  0  0  0
    9.6543  -15.8491   21.8374 C   0  0  0  0  0  0  0  0  0  0  0  0
   10.5832  -15.0493   22.1220 O   0  0  0  0  0  0  0  0  0  0  0  0
    8.6305  -16.8933   17.4158 C   0  0  0  0  0  0  0  0  0  0  0  0
    8.7673  -17.6655   16.2779 C   0  0  0  0  0  0  0  0  0  0  0  0
    8.5185  -15.8659   22.6910 N   0  0  0  0  0  0  0  0  0  0  0  0
    8.5135  -15.0870   23.8887 C   0  0  1  0  0  0  0  0  0  0  0  0
    7.2000  -14.3629   24.1085 C   0  0  0  0  0  0  0  0  0  0  0  0
    7.1915  -13.5741   25.3435 C   0  0  0  0  0  0  0  0  0  0  0  0
    6.5346  -13.9624   26.4938 C   0  0  0  0  0  0  0  0  0  0  0  0
    6.5442  -13.2000   27.6394 C   0  0  0  0  0  0  0  0  0  0  0  0
    7.2302  -11.9947   27.6672 C   0  0  0  0  0  0  0  0  0  0  0  0
    7.8929  -11.5874   26.5311 C   0  0  0  0  0  0  0  0  0  0  0  0
    7.8692  -12.3715   25.3893 C   0  0  0  0  0  0  0  0  0  0  0  0
    8.8799  -15.9009   25.0849 C   0  0  0  0  0  0  0  0  0  0  0  0
    8.0886  -16.7911   25.4876 O   0  0  0  0  0  0  0  0  0  0  0  0
   12.1434  -16.3898   26.8050 C   0  0  0  0  0  0  0  0  0  0  0  0
   10.6206  -16.5553   26.7819 C   0  0  2  0  0  0  0  0  0  0  0  0
   10.1061  -15.6795   25.7667 N   0  0  0  0  0  0  0  0  0  0  0  0
   10.1479  -16.1908   28.1410 C   0  0  0  0  0  0  0  0  0  0  0  0
    9.4500  -15.1814   28.4050 O   0  0  0  0  0  0  0  0  0  0  0  0
   10.5024  -17.0238   29.1920 O   0  0  0  0  0  0  0  0  0  0  0  0
  2  1  1  0
  3  2  2  0
  4  3  1  0
  5 11  1  0
  5  4  2  0
  6  5  1  0
  7  6  1  0
  7  8  1  6
  9  7  1  0
  9 10  2  0
 11 12  2  0
 12  2  1  0
 13  9  1  0
 14 13  1  0
 14 15  1  1
 16 15  1  0
 16 17  2  0
 18 17  1  0
 19 18  2  0
 20 21  2  0
 20 19  1  0
 21 16  1  0
 22 14  1  0
 23 22  2  0
 25 24  1  1
 25 27  1  0
 25 26  1  0
 26 22  1  0
 27 29  1  0
 28 27  2  0
M  END
$$$$
