YFA.pdb
     RDKit          3D

 29 30  0  0  1  0  0  0  0  0999 V2000
    9.9765  -21.5335   16.0337 O   0  0  0  0  0  0  0  0  0  0  0  0
   10.0320  -20.7205   17.1761 C   0  0  0  0  0  0  0  0  0  0  0  0
    9.1744  -20.9624   18.2043 C   0  0  0  0  0  0  0  0  0  0  0  0
    9.2226  -20.1703   19.3269 C   0  0  0  0  0  0  0  0  0  0  0  0
   10.1390  -19.1228   19.4243 C   0  0  0  0  0  0  0  0  0  0  0  0
   10.1327  -18.3199   20.6521 C   0  0  0  0  0  0  0  0  0  0  0  0
    9.7041  -16.8982   20.3349 C   0  0  2  0  0  0  0  0  0  0  0  0
   10.6698  -16.2365   19.4778 N   0  0  0  0  0  0  0  0  0  0  0  0
    9.6913  -16.1687   21.6427 C   0  0  0  0  0  0  0  0  0  0  0  0
   10.7541  -15.9170   22.2676 O   0  0  0  0  0  0  0  0  0  0  0  0
   10.9978  -18.8876   18.3839 C   0  0  0  0  0  0  0  0  0  0  0  0
   10.9410  -19.6899   17.2600 C   0  0  0  0  0  0  0  0  0  0  0  0
    8.4698  -15.7344   22.2241 N   0  0  0  0  0  0  0  0  0  0  0  0
    8.4839  -14.9929   23.4453 C   0  0  1  0  0  0  0  0  0  0  0  0
    7.2884  -14.0709   23.5821 C   0  0  0  0  0  0  0  0  0  0  0  0
    7.2791  -13.3459   24.8556 C   0  0  0  0  0  0  0  0  0  0  0  0
    8.1126  -12.2816   25.1352 C   0  0  0  0  0  0  0  0  0  0  0  0
    8.0811  -11.6197   26.3413 C   0  0  0  0  0  0  0  0  0  0  0  0
    7.1905  -12.0148   27.3287 C   0  0  0  0  0  0  0  0  0  0  0  0
    6.3495  -13.0742   27.0718 C   0  0  0  0  0  0  0  0  0  0  0  0
    6.3990  -13.7255   25.8501 C   0  0  0  0  0  0  0  0  0  0  0  0
    8.6092  -15.8830   24.6368 C   0  0  0  0  0  0  0  0  0  0  0  0
    7.6289  -16.5916   24.9798 O   0  0  0  0  0  0  0  0  0  0  0  0
   11.5074  -17.3223   26.3587 C   0  0  0  0  0  0  0  0  0  0  0  0
   10.0505  -16.8588   26.4558 C   0  0  2  0  0  0  0  0  0  0  0  0
    9.8181  -15.9355   25.3807 N   0  0  0  0  0  0  0  0  0  0  0  0
    9.9101  -16.2248   27.7906 C   0  0  0  0  0  0  0  0  0  0  0  0
    9.6577  -15.0096   27.9786 O   0  0  0  0  0  0  0  0  0  0  0  0
   10.0689  -17.0318   28.9077 O   0  0  0  0  0  0  0  0  0  0  0  0
  2  1  1  0
  3  2  2  0
  4  3  1  0
  5 11  1  0
  5  4  2  0
  6  5  1  0
  7  6  1  0
  7  8  1  6
  9  7  1  0
  9 10  2  0
 11 12  2  0
 12  2  1  0
 13  9  1  0
 14 13  1  0
 14 15  1  1
 16 15  1  0
 16 17  2  0
 18 17  1  0
 19 18  2  0
 20 21  2  0
 20 19  1  0
 21 16  1  0
 22 14  1  0
 23 22  2  0
 25 24  1  6
 25 27  1  0
 25 26  1  0
 26 22  1  0
 27 29  1  0
 28 27  2  0
M  END
$$$$
