YFA.pdb
     RDKit          3D

 29 30  0  0  1  0  0  0  0  0999 V2000
    4.0962  -24.8051   25.5704 O   0  0  0  0  0  0  0  0  0  0  0  0
    4.8185  -23.7441   25.0031 C   0  0  0  0  0  0  0  0  0  0  0  0
    5.1148  -22.6594   25.7690 C   0  0  0  0  0  0  0  0  0  0  0  0
    5.8221  -21.6159   25.2204 C   0  0  0  0  0  0  0  0  0  0  0  0
    6.2390  -21.6559   23.8896 C   0  0  0  0  0  0  0  0  0  0  0  0
    6.9897  -20.5063   23.3727 C   0  0  0  0  0  0  0  0  0  0  0  0
    6.0279  -19.4745   22.8107 C   0  0  2  0  0  0  0  0  0  0  0  0
    5.9300  -19.5782   21.3668 N   0  0  0  0  0  0  0  0  0  0  0  0
    6.6256  -18.1379   23.1247 C   0  0  0  0  0  0  0  0  0  0  0  0
    7.4615  -17.5928   22.3580 O   0  0  0  0  0  0  0  0  0  0  0  0
    5.9356  -22.7522   23.1272 C   0  0  0  0  0  0  0  0  0  0  0  0
    5.2242  -23.7956   23.6885 C   0  0  0  0  0  0  0  0  0  0  0  0
    6.2656  -17.4370   24.3071 N   0  0  0  0  0  0  0  0  0  0  0  0
    6.9132  -16.2060   24.6330 C   0  0  1  0  0  0  0  0  0  0  0  0
    6.1846  -15.4313   25.7132 C   0  0  0  0  0  0  0  0  0  0  0  0
    6.8183  -14.1430   26.0072 C   0  0  0  0  0  0  0  0  0  0  0  0
    7.6045  -13.9141   27.1185 C   0  0  0  0  0  0  0  0  0  0  0  0
    8.1869  -12.6926   27.3685 C   0  0  0  0  0  0  0  0  0  0  0  0
    7.9939  -11.6368   26.4897 C   0  0  0  0  0  0  0  0  0  0  0  0
    7.2133  -11.8424   25.3742 C   0  0  0  0  0  0  0  0  0  0  0  0
    6.6371  -13.0808   25.1432 C   0  0  0  0  0  0  0  0  0  0  0  0
    8.3462  -16.4090   24.9977 C   0  0  0  0  0  0  0  0  0  0  0  0
    8.6306  -17.1049   26.0055 O   0  0  0  0  0  0  0  0  0  0  0  0
   11.5210  -15.5203   23.1870 C   0  0  0  0  0  0  0  0  0  0  0  0
   10.7656  -16.1996   24.3336 C   0  0  2  0  0  0  0  0  0  0  0  0
    9.3833  -15.8269   24.2211 N   0  0  0  0  0  0  0  0  0  0  0  0
   11.3887  -15.7033   25.5861 C   0  0  0  0  0  0  0  0  0  0  0  0
   12.5793  -15.9163   25.9218 O   0  0  0  0  0  0  0  0  0  0  0  0
   10.6000  -14.9518   26.4449 O   0  0  0  0  0  0  0  0  0  0  0  0
  2  1  1  0
  3  2  2  0
  4  3  1  0
  5 11  1  0
  5  4  2  0
  6  5  1  0
  7  6  1  0
  7  8  1  6
  9  7  1  0
  9 10  2  0
 11 12  2  0
 12  2  1  0
 13  9  1  0
 14 13  1  0
 14 15  1  1
 16 15  1  0
 16 17  2  0
 18 17  1  0
 19 18  2  0
 20 21  2  0
 20 19  1  0
 21 16  1  0
 22 14  1  0
 23 22  2  0
 25 24  1  6
 25 27  1  0
 25 26  1  0
 26 22  1  0
 27 29  1  0
 28 27  2  0
M  END
$$$$
