YFA.pdb
     RDKit          3D

 29 30  0  0  1  0  0  0  0  0999 V2000
    7.5809  -14.5607   14.4311 O   0  0  0  0  0  0  0  0  0  0  0  0
    7.9669  -14.4605   15.7766 C   0  0  0  0  0  0  0  0  0  0  0  0
    7.8607  -13.2607   16.4092 C   0  0  0  0  0  0  0  0  0  0  0  0
    8.2368  -13.1545   17.7273 C   0  0  0  0  0  0  0  0  0  0  0  0
    8.7253  -14.2608   18.4230 C   0  0  0  0  0  0  0  0  0  0  0  0
    9.1070  -14.0725   19.8270 C   0  0  0  0  0  0  0  0  0  0  0  0
    9.3502  -15.4219   20.4793 C   0  0  2  0  0  0  0  0  0  0  0  0
    8.2255  -16.3154   20.2749 N   0  0  0  0  0  0  0  0  0  0  0  0
    9.4516  -15.1579   21.9499 C   0  0  0  0  0  0  0  0  0  0  0  0
   10.4406  -14.5580   22.4454 O   0  0  0  0  0  0  0  0  0  0  0  0
    8.8282  -15.4640   17.7771 C   0  0  0  0  0  0  0  0  0  0  0  0
    8.4474  -15.5597   16.4521 C   0  0  0  0  0  0  0  0  0  0  0  0
    8.4268  -15.5793   22.8393 N   0  0  0  0  0  0  0  0  0  0  0  0
    8.2971  -14.9642   24.1223 C   0  0  1  0  0  0  0  0  0  0  0  0
    6.9585  -14.2774   24.3076 C   0  0  0  0  0  0  0  0  0  0  0  0
    6.8925  -13.4972   25.5464 C   0  0  0  0  0  0  0  0  0  0  0  0
    7.7599  -12.4665   25.8475 C   0  0  0  0  0  0  0  0  0  0  0  0
    7.6734  -11.7511   27.0200 C   0  0  0  0  0  0  0  0  0  0  0  0
    6.6897  -12.0550   27.9495 C   0  0  0  0  0  0  0  0  0  0  0  0
    5.8132  -13.0795   27.6701 C   0  0  0  0  0  0  0  0  0  0  0  0
    5.9194  -13.7859   26.4832 C   0  0  0  0  0  0  0  0  0  0  0  0
    8.5597  -15.9274   25.2318 C   0  0  0  0  0  0  0  0  0  0  0  0
    8.2628  -15.6031   26.4096 O   0  0  0  0  0  0  0  0  0  0  0  0
    9.6397  -19.5191   25.2762 C   0  0  0  0  0  0  0  0  0  0  0  0
    9.3825  -18.1848   25.9837 C   0  0  2  0  0  0  0  0  0  0  0  0
    9.1380  -17.1979   24.9694 N   0  0  0  0  0  0  0  0  0  0  0  0
   10.6056  -17.8974   26.7741 C   0  0  0  0  0  0  0  0  0  0  0  0
   11.0200  -18.6028   27.7262 O   0  0  0  0  0  0  0  0  0  0  0  0
   11.3416  -16.7709   26.4369 O   0  0  0  0  0  0  0  0  0  0  0  0
  2  1  1  0
  3  2  2  0
  4  3  1  0
  5 11  1  0
  5  4  2  0
  6  5  1  0
  7  6  1  0
  7  8  1  1
  9  7  1  0
  9 10  2  0
 11 12  2  0
 12  2  1  0
 13  9  1  0
 14 13  1  0
 14 15  1  1
 16 15  1  0
 16 17  2  0
 18 17  1  0
 19 18  2  0
 20 21  2  0
 20 19  1  0
 21 16  1  0
 22 14  1  0
 23 22  2  0
 25 24  1  6
 25 27  1  0
 25 26  1  0
 26 22  1  0
 27 29  1  0
 28 27  2  0
M  END
$$$$
