SYR.pdb
     RDKit          3D

 30 30  0  0  1  0  0  0  0  0999 V2000
    6.8801  -16.0742   20.1812 O   0  0  0  0  0  0  0  0  0  0  0  0
    7.4155  -15.0462   19.4352 C   0  0  0  0  0  0  0  0  0  0  0  0
    7.3451  -13.7101   20.1827 C   0  0  2  0  0  0  0  0  0  0  0  0
    7.9390  -12.6969   19.3440 N   0  0  0  0  0  0  0  0  0  0  0  0
    8.1601  -13.9081   21.4253 C   0  0  0  0  0  0  0  0  0  0  0  0
    9.4129  -13.8877   21.3445 O   0  0  0  0  0  0  0  0  0  0  0  0
   10.3806  -14.9092   29.9789 O   0  0  0  0  0  0  0  0  0  0  0  0
    9.6762  -14.6969   28.7882 C   0  0  0  0  0  0  0  0  0  0  0  0
    9.5026  -13.4359   28.2588 C   0  0  0  0  0  0  0  0  0  0  0  0
    8.8148  -13.1947   27.0896 C   0  0  0  0  0  0  0  0  0  0  0  0
    8.2729  -14.2601   26.4134 C   0  0  0  0  0  0  0  0  0  0  0  0
    7.5359  -14.0135   25.1558 C   0  0  0  0  0  0  0  0  0  0  0  0
    8.3338  -14.3220   23.9098 C   0  0  2  0  0  0  0  0  0  0  0  0
    7.5788  -14.1192   22.6982 N   0  0  0  0  0  0  0  0  0  0  0  0
    8.9136  -15.6643   24.0025 C   0  0  0  0  0  0  0  0  0  0  0  0
    8.2114  -16.6836   23.8396 O   0  0  0  0  0  0  0  0  0  0  0  0
    8.4198  -15.5341   26.9017 C   0  0  0  0  0  0  0  0  0  0  0  0
    9.1152  -15.7352   28.0755 C   0  0  0  0  0  0  0  0  0  0  0  0
   11.5852  -19.7112   18.2099 N   0  0  0  0  0  0  0  0  0  0  0  0
   10.8326  -18.5063   18.3852 C   0  0  0  0  0  0  0  0  0  0  0  0
    9.9724  -18.1858   17.4854 N   0  0  0  0  0  0  0  0  0  0  0  0
   11.0556  -17.7048   19.5394 N   0  0  0  0  0  0  0  0  0  0  0  0
   11.9380  -18.2308   20.5499 C   0  0  0  0  0  0  0  0  0  0  0  0
   11.2860  -18.3157   21.9053 C   0  0  0  0  0  0  0  0  0  0  0  0
   11.8013  -17.2531   22.8534 C   0  0  0  0  0  0  0  0  0  0  0  0
   10.9572  -17.1530   24.0736 C   0  0  2  0  0  0  0  0  0  0  0  0
   10.2937  -15.9174   24.2801 N   0  0  0  0  0  0  0  0  0  0  0  0
   11.7523  -17.4658   25.2886 C   0  0  0  0  0  0  0  0  0  0  0  0
   11.7858  -16.6919   26.2765 O   0  0  0  0  0  0  0  0  0  0  0  0
   12.4887  -18.6374   25.3641 O   0  0  0  0  0  0  0  0  0  0  0  0
  1  2  1  0
  3  4  1  6
  3  2  1  0
  5  3  1  0
  6  5  2  0
  8  9  2  0
  8  7  1  0
 10  9  1  0
 11 10  2  0
 12 11  1  0
 13 12  1  1
 13 14  1  0
 14  5  1  0
 15 27  1  0
 15 13  1  0
 16 15  2  0
 17 11  1  0
 17 18  2  0
 18  8  1  0
 20 19  1  0
 21 20  2  0
 22 20  1  0
 23 22  1  0
 24 25  1  0
 24 23  1  0
 26 25  1  6
 26 27  1  0
 28 26  1  0
 28 30  1  0
 29 28  2  0
M  END
$$$$
