SYR.pdb
     RDKit          3D

 30 30  0  0  1  0  0  0  0  0999 V2000
    7.6071  -15.5108   19.3673 O   0  0  0  0  0  0  0  0  0  0  0  0
    6.6314  -14.5413   19.4562 C   0  0  0  0  0  0  0  0  0  0  0  0
    7.2083  -13.2009   19.9247 C   0  0  2  0  0  0  0  0  0  0  0  0
    8.0681  -12.6952   18.8818 N   0  0  0  0  0  0  0  0  0  0  0  0
    8.0048  -13.5207   21.1539 C   0  0  0  0  0  0  0  0  0  0  0  0
    9.2365  -13.7388   21.0447 O   0  0  0  0  0  0  0  0  0  0  0  0
   10.2759  -14.5812   29.6822 O   0  0  0  0  0  0  0  0  0  0  0  0
    9.5594  -14.3473   28.5029 C   0  0  0  0  0  0  0  0  0  0  0  0
    9.4340  -13.0845   27.9644 C   0  0  0  0  0  0  0  0  0  0  0  0
    8.7359  -12.8222   26.8059 C   0  0  0  0  0  0  0  0  0  0  0  0
    8.1324  -13.8675   26.1505 C   0  0  0  0  0  0  0  0  0  0  0  0
    7.3836  -13.5984   24.9046 C   0  0  0  0  0  0  0  0  0  0  0  0
    8.1668  -13.8928   23.6458 C   0  0  2  0  0  0  0  0  0  0  0  0
    7.4288  -13.5892   22.4448 N   0  0  0  0  0  0  0  0  0  0  0  0
    8.6679  -15.2692   23.6747 C   0  0  0  0  0  0  0  0  0  0  0  0
    7.9086  -16.2373   23.4631 O   0  0  0  0  0  0  0  0  0  0  0  0
    8.2297  -15.1424   26.6486 C   0  0  0  0  0  0  0  0  0  0  0  0
    8.9374  -15.3649   27.8112 C   0  0  0  0  0  0  0  0  0  0  0  0
   14.3612  -15.2174   20.5524 N   0  0  0  0  0  0  0  0  0  0  0  0
   13.2723  -14.8426   19.7022 C   0  0  0  0  0  0  0  0  0  0  0  0
   13.4014  -13.7950   18.9687 N   0  0  0  0  0  0  0  0  0  0  0  0
   12.0892  -15.6327   19.6927 N   0  0  0  0  0  0  0  0  0  0  0  0
   12.1286  -16.8919   20.3921 C   0  0  0  0  0  0  0  0  0  0  0  0
   11.0470  -17.0136   21.4336 C   0  0  0  0  0  0  0  0  0  0  0  0
   11.6140  -17.1487   22.8314 C   0  0  0  0  0  0  0  0  0  0  0  0
   10.5724  -16.9222   23.8683 C   0  0  2  0  0  0  0  0  0  0  0  0
   10.0302  -15.6144   23.9405 N   0  0  0  0  0  0  0  0  0  0  0  0
   11.0824  -17.2921   25.2135 C   0  0  0  0  0  0  0  0  0  0  0  0
   11.5724  -18.4238   25.4487 O   0  0  0  0  0  0  0  0  0  0  0  0
   11.0297  -16.3840   26.2591 O   0  0  0  0  0  0  0  0  0  0  0  0
  1  2  1  0
  3  4  1  6
  3  2  1  0
  5  3  1  0
  6  5  2  0
  8  9  2  0
  8  7  1  0
 10  9  1  0
 11 10  2  0
 12 11  1  0
 13 12  1  1
 13 14  1  0
 14  5  1  0
 15 27  1  0
 15 13  1  0
 16 15  2  0
 17 11  1  0
 17 18  2  0
 18  8  1  0
 20 19  1  0
 21 20  2  0
 22 20  1  0
 23 22  1  0
 24 25  1  0
 24 23  1  0
 26 25  1  6
 26 27  1  0
 28 26  1  0
 28 30  1  0
 29 28  2  0
M  END
$$$$
