SYR.pdb
     RDKit          3D

 30 30  0  0  1  0  0  0  0  0999 V2000
    6.8143  -15.0904   17.9036 O   0  0  0  0  0  0  0  0  0  0  0  0
    7.7179  -14.8049   18.9046 C   0  0  0  0  0  0  0  0  0  0  0  0
    7.3112  -13.5548   19.6926 C   0  0  2  0  0  0  0  0  0  0  0  0
    7.6974  -12.3963   18.9237 N   0  0  0  0  0  0  0  0  0  0  0  0
    8.0915  -13.6215   20.9710 C   0  0  0  0  0  0  0  0  0  0  0  0
    9.3165  -13.3471   20.9546 O   0  0  0  0  0  0  0  0  0  0  0  0
   10.1190  -14.8930   29.5426 O   0  0  0  0  0  0  0  0  0  0  0  0
    9.4317  -14.7141   28.3366 C   0  0  0  0  0  0  0  0  0  0  0  0
    9.1644  -13.4607   27.8287 C   0  0  0  0  0  0  0  0  0  0  0  0
    8.4906  -13.2521   26.6452 C   0  0  0  0  0  0  0  0  0  0  0  0
    8.0612  -14.3441   25.9314 C   0  0  0  0  0  0  0  0  0  0  0  0
    7.3403  -14.1324   24.6583 C   0  0  0  0  0  0  0  0  0  0  0  0
    8.2396  -14.1089   23.4438 C   0  0  2  0  0  0  0  0  0  0  0  0
    7.5070  -13.9825   22.2083 N   0  0  0  0  0  0  0  0  0  0  0  0
    9.1367  -15.2672   23.4589 C   0  0  0  0  0  0  0  0  0  0  0  0
    8.7126  -16.4155   23.2135 O   0  0  0  0  0  0  0  0  0  0  0  0
    8.3041  -15.6118   26.3972 C   0  0  0  0  0  0  0  0  0  0  0  0
    8.9820  -15.7798   27.5864 C   0  0  0  0  0  0  0  0  0  0  0  0
   16.7273  -15.6643   19.3849 N   0  0  0  0  0  0  0  0  0  0  0  0
   15.3472  -15.3643   19.1519 C   0  0  0  0  0  0  0  0  0  0  0  0
   15.0434  -14.6245   18.1455 N   0  0  0  0  0  0  0  0  0  0  0  0
   14.3600  -15.8883   20.0321 N   0  0  0  0  0  0  0  0  0  0  0  0
   14.7763  -16.2205   21.3710 C   0  0  0  0  0  0  0  0  0  0  0  0
   13.6418  -16.7210   22.2263 C   0  0  0  0  0  0  0  0  0  0  0  0
   12.6761  -15.6148   22.5970 C   0  0  0  0  0  0  0  0  0  0  0  0
   11.5087  -16.1389   23.3545 C   0  0  2  0  0  0  0  0  0  0  0  0
   10.5351  -15.1867   23.7481 N   0  0  0  0  0  0  0  0  0  0  0  0
   11.9563  -16.8774   24.5631 C   0  0  0  0  0  0  0  0  0  0  0  0
   12.8069  -17.7985   24.5002 O   0  0  0  0  0  0  0  0  0  0  0  0
   11.4388  -16.5638   25.8099 O   0  0  0  0  0  0  0  0  0  0  0  0
  1  2  1  0
  3  4  1  6
  3  2  1  0
  5  3  1  0
  6  5  2  0
  8  9  2  0
  8  7  1  0
 10  9  1  0
 11 10  2  0
 12 11  1  0
 13 12  1  1
 13 14  1  0
 14  5  1  0
 15 27  1  0
 15 13  1  0
 16 15  2  0
 17 11  1  0
 17 18  2  0
 18  8  1  0
 20 19  1  0
 21 20  2  0
 22 20  1  0
 23 22  1  0
 24 25  1  0
 24 23  1  0
 26 25  1  1
 26 27  1  0
 28 26  1  0
 28 30  1  0
 29 28  2  0
M  END
$$$$
