SYR.pdb
     RDKit          3D

 30 30  0  0  1  0  0  0  0  0999 V2000
    7.8617  -15.5530   19.0064 O   0  0  0  0  0  0  0  0  0  0  0  0
    6.8087  -14.7421   19.3716 C   0  0  0  0  0  0  0  0  0  0  0  0
    7.2932  -13.3702   19.8535 C   0  0  2  0  0  0  0  0  0  0  0  0
    8.0982  -12.7876   18.8069 N   0  0  0  0  0  0  0  0  0  0  0  0
    8.1292  -13.6491   21.0663 C   0  0  0  0  0  0  0  0  0  0  0  0
    9.3574  -13.8682   20.9251 O   0  0  0  0  0  0  0  0  0  0  0  0
   10.5465  -14.8276   29.5509 O   0  0  0  0  0  0  0  0  0  0  0  0
    9.8231  -14.5433   28.3870 C   0  0  0  0  0  0  0  0  0  0  0  0
    9.0621  -15.4999   27.7496 C   0  0  0  0  0  0  0  0  0  0  0  0
    8.3393  -15.2511   26.6033 C   0  0  0  0  0  0  0  0  0  0  0  0
    8.3751  -13.9884   26.0642 C   0  0  0  0  0  0  0  0  0  0  0  0
    7.6006  -13.7089   24.8364 C   0  0  0  0  0  0  0  0  0  0  0  0
    8.3646  -13.9725   23.5591 C   0  0  2  0  0  0  0  0  0  0  0  0
    7.5945  -13.6775   22.3763 N   0  0  0  0  0  0  0  0  0  0  0  0
    8.9009  -15.3358   23.5652 C   0  0  0  0  0  0  0  0  0  0  0  0
    8.1731  -16.3171   23.3080 O   0  0  0  0  0  0  0  0  0  0  0  0
    9.1187  -13.0031   26.6635 C   0  0  0  0  0  0  0  0  0  0  0  0
    9.8288  -13.2911   27.8101 C   0  0  0  0  0  0  0  0  0  0  0  0
   12.5298  -14.7690   18.4539 N   0  0  0  0  0  0  0  0  0  0  0  0
   13.5863  -14.8248   19.4181 C   0  0  0  0  0  0  0  0  0  0  0  0
   14.5645  -13.9989   19.3024 N   0  0  0  0  0  0  0  0  0  0  0  0
   13.5247  -15.7834   20.4675 N   0  0  0  0  0  0  0  0  0  0  0  0
   12.5538  -16.8408   20.3418 C   0  0  0  0  0  0  0  0  0  0  0  0
   11.4500  -16.7420   21.3623 C   0  0  0  0  0  0  0  0  0  0  0  0
   11.9251  -17.1070   22.7532 C   0  0  0  0  0  0  0  0  0  0  0  0
   10.8440  -16.9432   23.7610 C   0  0  2  0  0  0  0  0  0  0  0  0
   10.2645  -15.6531   23.8581 N   0  0  0  0  0  0  0  0  0  0  0  0
   11.3188  -17.3455   25.1097 C   0  0  0  0  0  0  0  0  0  0  0  0
   11.2800  -16.5597   26.0880 O   0  0  0  0  0  0  0  0  0  0  0  0
   11.8243  -18.6176   25.3261 O   0  0  0  0  0  0  0  0  0  0  0  0
  1  2  1  0
  3  4  1  6
  3  2  1  0
  5  3  1  0
  6  5  2  0
  8  9  2  0
  8  7  1  0
 10  9  1  0
 11 10  2  0
 12 11  1  0
 13 12  1  1
 13 14  1  0
 14  5  1  0
 15 27  1  0
 15 13  1  0
 16 15  2  0
 17 11  1  0
 17 18  2  0
 18  8  1  0
 20 19  1  0
 21 20  2  0
 22 20  1  0
 23 22  1  0
 24 25  1  0
 24 23  1  0
 26 25  1  6
 26 27  1  0
 28 26  1  0
 28 30  1  0
 29 28  2  0
M  END
$$$$
