SYR.pdb
     RDKit          3D

 30 30  0  0  1  0  0  0  0  0999 V2000
    8.0000  -15.7909   19.9780 O   0  0  0  0  0  0  0  0  0  0  0  0
    6.7729  -15.2121   20.2209 C   0  0  0  0  0  0  0  0  0  0  0  0
    6.9187  -13.8258   20.8578 C   0  0  2  0  0  0  0  0  0  0  0  0
    7.4664  -12.9330   19.8650 N   0  0  0  0  0  0  0  0  0  0  0  0
    7.8845  -14.0095   21.9896 C   0  0  0  0  0  0  0  0  0  0  0  0
    9.1101  -13.8326   21.7823 O   0  0  0  0  0  0  0  0  0  0  0  0
   11.1761  -14.9544   30.1847 O   0  0  0  0  0  0  0  0  0  0  0  0
   10.3154  -14.8335   29.0878 C   0  0  0  0  0  0  0  0  0  0  0  0
    9.7024  -15.9289   28.5179 C   0  0  0  0  0  0  0  0  0  0  0  0
    8.8506  -15.8425   27.4384 C   0  0  0  0  0  0  0  0  0  0  0  0
    8.5958  -14.6055   26.8989 C   0  0  0  0  0  0  0  0  0  0  0  0
    7.6807  -14.5003   25.7427 C   0  0  0  0  0  0  0  0  0  0  0  0
    8.3792  -14.5592   24.4036 C   0  0  2  0  0  0  0  0  0  0  0  0
    7.4765  -14.3768   23.2940 N   0  0  0  0  0  0  0  0  0  0  0  0
    9.1681  -15.7895   24.3007 C   0  0  0  0  0  0  0  0  0  0  0  0
    8.6217  -16.8903   24.0811 O   0  0  0  0  0  0  0  0  0  0  0  0
    9.1831  -13.4859   27.4324 C   0  0  0  0  0  0  0  0  0  0  0  0
   10.0301  -13.6132   28.5132 C   0  0  0  0  0  0  0  0  0  0  0  0
   13.4654  -18.9859   18.9791 N   0  0  0  0  0  0  0  0  0  0  0  0
   13.7894  -19.9763   19.9606 C   0  0  0  0  0  0  0  0  0  0  0  0
   14.0290  -21.1753   19.5639 N   0  0  0  0  0  0  0  0  0  0  0  0
   13.8369  -19.6094   21.3343 N   0  0  0  0  0  0  0  0  0  0  0  0
   13.1264  -18.4186   21.7262 C   0  0  0  0  0  0  0  0  0  0  0  0
   13.3920  -18.0261   23.1561 C   0  0  0  0  0  0  0  0  0  0  0  0
   12.7040  -16.7294   23.5286 C   0  0  0  0  0  0  0  0  0  0  0  0
   11.3999  -16.9753   24.1996 C   0  0  2  0  0  0  0  0  0  0  0  0
   10.5909  -15.8361   24.4393 N   0  0  0  0  0  0  0  0  0  0  0  0
   11.5989  -17.6871   25.4881 C   0  0  0  0  0  0  0  0  0  0  0  0
   10.9039  -18.6816   25.8104 O   0  0  0  0  0  0  0  0  0  0  0  0
   12.5714  -17.2655   26.3809 O   0  0  0  0  0  0  0  0  0  0  0  0
  1  2  1  0
  3  4  1  6
  3  2  1  0
  5  3  1  0
  6  5  2  0
  8  9  2  0
  8  7  1  0
 10  9  1  0
 11 10  2  0
 12 11  1  0
 13 12  1  1
 13 14  1  0
 14  5  1  0
 15 27  1  0
 15 13  1  0
 16 15  2  0
 17 11  1  0
 17 18  2  0
 18  8  1  0
 20 19  1  0
 21 20  2  0
 22 20  1  0
 23 22  1  0
 24 25  1  0
 24 23  1  0
 26 25  1  1
 26 27  1  0
 28 26  1  0
 28 30  1  0
 29 28  2  0
M  END
$$$$
