SYR.pdb
     RDKit          3D

 30 30  0  0  1  0  0  0  0  0999 V2000
    7.6322  -15.1099   18.2573 O   0  0  0  0  0  0  0  0  0  0  0  0
    8.4234  -14.9445   19.3737 C   0  0  0  0  0  0  0  0  0  0  0  0
    8.0868  -13.6472   20.1170 C   0  0  2  0  0  0  0  0  0  0  0  0
    8.6472  -12.5462   19.3711 N   0  0  0  0  0  0  0  0  0  0  0  0
    8.7554  -13.7715   21.4531 C   0  0  0  0  0  0  0  0  0  0  0  0
    9.9789  -13.5075   21.5515 O   0  0  0  0  0  0  0  0  0  0  0  0
   10.0140  -15.1908   30.1450 O   0  0  0  0  0  0  0  0  0  0  0  0
    9.4422  -14.9618   28.8882 C   0  0  0  0  0  0  0  0  0  0  0  0
    9.3898  -13.7026   28.3296 C   0  0  0  0  0  0  0  0  0  0  0  0
    8.8340  -13.4452   27.0955 C   0  0  0  0  0  0  0  0  0  0  0  0
    8.3041  -14.4919   26.3815 C   0  0  0  0  0  0  0  0  0  0  0  0
    7.7083  -14.2281   25.0545 C   0  0  0  0  0  0  0  0  0  0  0  0
    8.6885  -14.3481   23.9102 C   0  0  2  0  0  0  0  0  0  0  0  0
    8.0660  -14.1764   22.6209 N   0  0  0  0  0  0  0  0  0  0  0  0
    9.4385  -15.6019   24.0189 C   0  0  0  0  0  0  0  0  0  0  0  0
    8.8815  -16.7050   23.8411 O   0  0  0  0  0  0  0  0  0  0  0  0
    8.3332  -15.7634   26.8967 C   0  0  0  0  0  0  0  0  0  0  0  0
    8.8983  -15.9810   28.1357 C   0  0  0  0  0  0  0  0  0  0  0  0
   15.5196  -14.8242   19.6695 N   0  0  0  0  0  0  0  0  0  0  0  0
   14.2697  -15.1944   19.0781 C   0  0  0  0  0  0  0  0  0  0  0  0
   14.0966  -14.9720   17.8239 N   0  0  0  0  0  0  0  0  0  0  0  0
   13.2637  -15.7925   19.8870 N   0  0  0  0  0  0  0  0  0  0  0  0
   13.5870  -16.0411   21.2691 C   0  0  0  0  0  0  0  0  0  0  0  0
   12.4277  -16.6097   22.0450 C   0  0  0  0  0  0  0  0  0  0  0  0
   12.7953  -16.9060   23.4840 C   0  0  0  0  0  0  0  0  0  0  0  0
   11.6045  -16.8589   24.3735 C   0  0  2  0  0  0  0  0  0  0  0  0
   10.8330  -15.6705   24.3297 N   0  0  0  0  0  0  0  0  0  0  0  0
   11.9935  -17.1123   25.7845 C   0  0  0  0  0  0  0  0  0  0  0  0
   12.1148  -18.2758   26.2401 O   0  0  0  0  0  0  0  0  0  0  0  0
   12.2363  -16.0552   26.6471 O   0  0  0  0  0  0  0  0  0  0  0  0
  1  2  1  0
  3  4  1  6
  3  2  1  0
  5  3  1  0
  6  5  2  0
  8  9  2  0
  8  7  1  0
 10  9  1  0
 11 10  2  0
 12 11  1  0
 13 12  1  1
 13 14  1  0
 14  5  1  0
 15 27  1  0
 15 13  1  0
 16 15  2  0
 17 11  1  0
 17 18  2  0
 18  8  1  0
 20 19  1  0
 21 20  2  0
 22 20  1  0
 23 22  1  0
 24 25  1  0
 24 23  1  0
 26 25  1  6
 26 27  1  0
 28 26  1  0
 28 30  1  0
 29 28  2  0
M  END
$$$$
