DAQ.pdb
     RDKit          3D

 23 22  0  0  1  0  0  0  0  0999 V2000
   18.9990  -12.3932  -17.9230 N   0  0  0  0  0  0  0  0  0  0  0  0
   19.2860  -12.0116  -16.5624 C   0  0  1  0  0  0  0  0  0  0  0  0
   20.5572  -12.7066  -16.0601 C   0  0  0  0  0  0  0  0  0  0  0  0
   20.3409  -14.1702  -16.0611 C   0  0  0  0  0  0  0  0  0  0  0  0
   19.3852  -14.6891  -15.4464 O   0  0  0  0  0  0  0  0  0  0  0  0
   19.4569  -10.5432  -16.4333 C   0  0  0  0  0  0  0  0  0  0  0  0
   20.2631   -9.9709  -17.2079 O   0  0  0  0  0  0  0  0  0  0  0  0
   21.2083  -14.9931  -16.7535 O   0  0  0  0  0  0  0  0  0  0  0  0
   17.6439   -7.8832  -14.4756 C   0  0  0  0  0  0  0  0  0  0  0  0
   18.7427   -8.4351  -15.3758 C   0  0  2  0  0  0  0  0  0  0  0  0
   18.7140   -9.8600  -15.4563 N   0  0  0  0  0  0  0  0  0  0  0  0
   20.0751   -7.9611  -14.8525 C   0  0  0  0  0  0  0  0  0  0  0  0
   20.6564   -8.5980  -13.9300 O   0  0  0  0  0  0  0  0  0  0  0  0
   23.6989   -4.0050  -18.0778 N   0  0  0  0  0  0  0  0  0  0  0  0
   23.4563   -5.3930  -18.2539 C   0  0  0  0  0  0  0  0  0  0  0  0
   23.7291   -5.8564  -19.3909 O   0  0  0  0  0  0  0  0  0  0  0  0
   22.9235   -6.2416  -17.1899 C   0  0  0  0  0  0  0  0  0  0  0  0
   22.6384   -5.5626  -15.9110 C   0  0  0  0  0  0  0  0  0  0  0  0
   21.9934   -6.4092  -14.8519 C   0  0  2  0  0  0  0  0  0  0  0  0
   20.7038   -6.8042  -15.3736 N   0  0  0  0  0  0  0  0  0  0  0  0
   21.7495   -5.5632  -13.6295 C   0  0  0  0  0  0  0  0  0  0  0  0
   20.4789   -5.1842  -13.2252 O   0  0  0  0  0  0  0  0  0  0  0  0
   22.7091   -5.1579  -12.9113 O   0  0  0  0  0  0  0  0  0  0  0  0
  2  1  1  6
  2  3  1  0
  3  4  1  0
  4  5  2  0
  6 11  1  0
  6  2  1  0
  7  6  2  0
  8  4  1  0
 10  9  1  1
 10 12  1  0
 10 11  1  0
 12 20  1  0
 13 12  2  0
 15 14  1  0
 15 17  1  0
 16 15  2  0
 18 17  1  0
 19 21  1  0
 19 18  1  6
 20 19  1  0
 21 22  1  0
 23 21  2  0
M  END
$$$$
