DAQ.pdb
     RDKit          3D

 23 22  0  0  1  0  0  0  0  0999 V2000
   15.1850  -23.7803  -13.8949 N   0  0  0  0  0  0  0  0  0  0  0  0
   15.5444  -22.4456  -14.3057 C   0  0  1  0  0  0  0  0  0  0  0  0
   15.3469  -21.4516  -13.1551 C   0  0  0  0  0  0  0  0  0  0  0  0
   13.8980  -21.2549  -12.9289 C   0  0  0  0  0  0  0  0  0  0  0  0
   13.3688  -21.5114  -11.8267 O   0  0  0  0  0  0  0  0  0  0  0  0
   16.9542  -22.3781  -14.7638 C   0  0  0  0  0  0  0  0  0  0  0  0
   17.7981  -23.1115  -14.1915 O   0  0  0  0  0  0  0  0  0  0  0  0
   13.1009  -20.7774  -13.9514 O   0  0  0  0  0  0  0  0  0  0  0  0
   18.6292  -20.9672  -17.7905 C   0  0  0  0  0  0  0  0  0  0  0  0
   18.6041  -21.4656  -16.3506 C   0  0  2  0  0  0  0  0  0  0  0  0
   17.2828  -21.5022  -15.8118 N   0  0  0  0  0  0  0  0  0  0  0  0
   19.4908  -20.5739  -15.5184 C   0  0  0  0  0  0  0  0  0  0  0  0
   18.9914  -19.6154  -14.8656 O   0  0  0  0  0  0  0  0  0  0  0  0
   25.3713  -22.8370  -12.9432 N   0  0  0  0  0  0  0  0  0  0  0  0
   24.7804  -22.0192  -13.9424 C   0  0  0  0  0  0  0  0  0  0  0  0
   25.4729  -21.8306  -14.9754 O   0  0  0  0  0  0  0  0  0  0  0  0
   23.4524  -21.4274  -13.7934 C   0  0  0  0  0  0  0  0  0  0  0  0
   23.1105  -20.3683  -14.7627 C   0  0  0  0  0  0  0  0  0  0  0  0
   21.7022  -19.8520  -14.6958 C   0  0  2  0  0  0  0  0  0  0  0  0
   20.8894  -20.7832  -15.4464 N   0  0  0  0  0  0  0  0  0  0  0  0
   21.6344  -18.5209  -15.3980 C   0  0  0  0  0  0  0  0  0  0  0  0
   21.5293  -17.3202  -14.7135 O   0  0  0  0  0  0  0  0  0  0  0  0
   21.6710  -18.4438  -16.6604 O   0  0  0  0  0  0  0  0  0  0  0  0
  2  1  1  1
  2  3  1  0
  3  4  1  0
  4  5  2  0
  6 11  1  0
  6  2  1  0
  7  6  2  0
  8  4  1  0
 10  9  1  6
 10 12  1  0
 10 11  1  0
 12 20  1  0
 13 12  2  0
 15 14  1  0
 15 17  1  0
 16 15  2  0
 18 17  1  0
 19 21  1  0
 19 18  1  6
 20 19  1  0
 21 22  1  0
 23 21  2  0
M  END
$$$$
