DAQ.pdb
     RDKit          3D

 23 22  0  0  1  0  0  0  0  0999 V2000
   17.4865  -10.3329  -17.1680 N   0  0  0  0  0  0  0  0  0  0  0  0
   17.1216  -10.6390  -15.8070 C   0  0  1  0  0  0  0  0  0  0  0  0
   18.1739  -11.5419  -15.1525 C   0  0  0  0  0  0  0  0  0  0  0  0
   18.0912  -12.8930  -15.7497 C   0  0  0  0  0  0  0  0  0  0  0  0
   16.9946  -13.3997  -16.0682 O   0  0  0  0  0  0  0  0  0  0  0  0
   16.9710   -9.4070  -14.9936 C   0  0  0  0  0  0  0  0  0  0  0  0
   17.8615   -8.5258  -15.0838 O   0  0  0  0  0  0  0  0  0  0  0  0
   19.2452  -13.6214  -15.9655 O   0  0  0  0  0  0  0  0  0  0  0  0
   14.1805   -7.9571  -12.9407 C   0  0  0  0  0  0  0  0  0  0  0  0
   15.6273   -8.0929  -13.3998 C   0  0  2  0  0  0  0  0  0  0  0  0
   15.8457   -9.2796  -14.1625 N   0  0  0  0  0  0  0  0  0  0  0  0
   16.5203   -8.0726  -12.1849 C   0  0  0  0  0  0  0  0  0  0  0  0
   16.8913   -9.1562  -11.6532 O   0  0  0  0  0  0  0  0  0  0  0  0
   21.8123   -7.0804  -12.2886 N   0  0  0  0  0  0  0  0  0  0  0  0
   21.0717   -5.8688  -12.2804 C   0  0  0  0  0  0  0  0  0  0  0  0
   21.6248   -4.8854  -12.8362 O   0  0  0  0  0  0  0  0  0  0  0  0
   19.7491   -5.7571  -11.6685 C   0  0  0  0  0  0  0  0  0  0  0  0
   19.2417   -6.9777  -11.0123 C   0  0  0  0  0  0  0  0  0  0  0  0
   17.8446   -6.8940  -10.4687 C   0  0  2  0  0  0  0  0  0  0  0  0
   16.9622   -6.8546  -11.6136 N   0  0  0  0  0  0  0  0  0  0  0  0
   17.6847   -5.5929   -9.7265 C   0  0  0  0  0  0  0  0  0  0  0  0
   18.1985   -5.3905   -8.4551 O   0  0  0  0  0  0  0  0  0  0  0  0
   17.0651   -4.6171  -10.2413 O   0  0  0  0  0  0  0  0  0  0  0  0
  2  1  1  6
  2  3  1  0
  3  4  1  0
  4  5  2  0
  6 11  1  0
  6  2  1  0
  7  6  2  0
  8  4  1  0
 10  9  1  1
 10 12  1  0
 10 11  1  0
 12 20  1  0
 13 12  2  0
 15 14  1  0
 15 17  1  0
 16 15  2  0
 18 17  1  0
 19 21  1  0
 19 18  1  6
 20 19  1  0
 21 22  1  0
 23 21  2  0
M  END
$$$$
