DAQ.pdb
     RDKit          3D

 23 22  0  0  1  0  0  0  0  0999 V2000
   17.4393  -13.3619  -15.2887 N   0  0  0  0  0  0  0  0  0  0  0  0
   17.2913  -12.0047  -15.7528 C   0  0  1  0  0  0  0  0  0  0  0  0
   15.8115  -11.6585  -15.9556 C   0  0  0  0  0  0  0  0  0  0  0  0
   15.2492  -12.5348  -17.0068 C   0  0  0  0  0  0  0  0  0  0  0  0
   15.7042  -12.5329  -18.1703 O   0  0  0  0  0  0  0  0  0  0  0  0
   17.8865  -11.0356  -14.7997 C   0  0  0  0  0  0  0  0  0  0  0  0
   17.5442  -11.1058  -13.5932 O   0  0  0  0  0  0  0  0  0  0  0  0
   14.1970  -13.3790  -16.7083 O   0  0  0  0  0  0  0  0  0  0  0  0
   20.5494   -8.3814  -15.0546 C   0  0  0  0  0  0  0  0  0  0  0  0
   19.3688   -9.1043  -14.4176 C   0  0  2  0  0  0  0  0  0  0  0  0
   18.8018  -10.0866  -15.2844 N   0  0  0  0  0  0  0  0  0  0  0  0
   18.3324   -8.0806  -14.0281 C   0  0  0  0  0  0  0  0  0  0  0  0
   17.3558   -7.8452  -14.7930 O   0  0  0  0  0  0  0  0  0  0  0  0
   15.4380   -7.2991   -8.7762 N   0  0  0  0  0  0  0  0  0  0  0  0
   15.2579   -6.0328   -9.3932 C   0  0  0  0  0  0  0  0  0  0  0  0
   14.4755   -5.2434   -8.8043 O   0  0  0  0  0  0  0  0  0  0  0  0
   15.9325   -5.6571  -10.6341 C   0  0  0  0  0  0  0  0  0  0  0  0
   16.8321   -6.6764  -11.2082 C   0  0  0  0  0  0  0  0  0  0  0  0
   17.4547   -6.3280  -12.5293 C   0  0  2  0  0  0  0  0  0  0  0  0
   18.4238   -7.3639  -12.8102 N   0  0  0  0  0  0  0  0  0  0  0  0
   18.2052   -5.0292  -12.3901 C   0  0  0  0  0  0  0  0  0  0  0  0
   17.5945   -3.7941  -12.5418 O   0  0  0  0  0  0  0  0  0  0  0  0
   19.4423   -5.0127  -12.1252 O   0  0  0  0  0  0  0  0  0  0  0  0
  2  1  1  1
  2  3  1  0
  3  4  1  0
  4  5  2  0
  6 11  1  0
  6  2  1  0
  7  6  2  0
  8  4  1  0
 10  9  1  6
 10 12  1  0
 10 11  1  0
 12 20  1  0
 13 12  2  0
 15 14  1  0
 15 17  1  0
 16 15  2  0
 18 17  1  0
 19 21  1  0
 19 18  1  1
 20 19  1  0
 21 22  1  0
 23 21  2  0
M  END
$$$$
