DAQ.pdb
     RDKit          3D

 23 22  0  0  1  0  0  0  0  0999 V2000
   18.7626  -29.0968    1.2952 N   0  0  0  0  0  0  0  0  0  0  0  0
   18.2232  -27.8665    1.8192 C   0  0  1  0  0  0  0  0  0  0  0  0
   16.8083  -28.0842    2.3684 C   0  0  0  0  0  0  0  0  0  0  0  0
   15.8978  -28.4038    1.2468 C   0  0  0  0  0  0  0  0  0  0  0  0
   15.1354  -29.3926    1.2866 O   0  0  0  0  0  0  0  0  0  0  0  0
   19.0787  -27.3130    2.8981 C   0  0  0  0  0  0  0  0  0  0  0  0
   19.3651  -28.0587    3.8674 O   0  0  0  0  0  0  0  0  0  0  0  0
   15.8805  -27.5987    0.1242 O   0  0  0  0  0  0  0  0  0  0  0  0
   20.9262  -24.0583    3.3756 C   0  0  0  0  0  0  0  0  0  0  0  0
   20.3625  -25.4105    3.7952 C   0  0  2  0  0  0  0  0  0  0  0  0
   19.5290  -25.9868    2.7899 N   0  0  0  0  0  0  0  0  0  0  0  0
   19.5952  -25.2326    5.0810 C   0  0  0  0  0  0  0  0  0  0  0  0
   18.4132  -25.6659    5.1786 O   0  0  0  0  0  0  0  0  0  0  0  0
   16.8037  -26.6660   10.7782 N   0  0  0  0  0  0  0  0  0  0  0  0
   17.8232  -26.7963    9.7983 C   0  0  0  0  0  0  0  0  0  0  0  0
   18.7453  -27.6066   10.0722 O   0  0  0  0  0  0  0  0  0  0  0  0
   17.8143  -26.0428    8.5460 C   0  0  0  0  0  0  0  0  0  0  0  0
   19.1333  -25.8211    7.9223 C   0  0  0  0  0  0  0  0  0  0  0  0
   19.3867  -24.4341    7.4064 C   0  0  2  0  0  0  0  0  0  0  0  0
   20.1705  -24.5834    6.2003 N   0  0  0  0  0  0  0  0  0  0  0  0
   20.2291  -23.6856    8.4062 C   0  0  0  0  0  0  0  0  0  0  0  0
   19.6824  -23.0105    9.4864 O   0  0  0  0  0  0  0  0  0  0  0  0
   21.4891  -23.6420    8.2988 O   0  0  0  0  0  0  0  0  0  0  0  0
  2  1  1  1
  2  3  1  0
  3  4  1  0
  4  5  2  0
  6 11  1  0
  6  2  1  0
  7  6  2  0
  8  4  1  0
 10  9  1  6
 10 12  1  0
 10 11  1  0
 12 20  1  0
 13 12  2  0
 15 14  1  0
 15 17  1  0
 16 15  2  0
 18 17  1  0
 19 21  1  0
 19 18  1  1
 20 19  1  0
 21 22  1  0
 23 21  2  0
M  END
$$$$
