DAQ.pdb
     RDKit          3D

 23 22  0  0  1  0  0  0  0  0999 V2000
   17.5325  -11.3171  -16.9231 N   0  0  0  0  0  0  0  0  0  0  0  0
   18.6641  -10.5423  -17.3686 C   0  0  1  0  0  0  0  0  0  0  0  0
   18.2413   -9.5306  -18.4404 C   0  0  0  0  0  0  0  0  0  0  0  0
   17.8994  -10.2568  -19.6832 C   0  0  0  0  0  0  0  0  0  0  0  0
   18.1585  -11.4710  -19.8219 O   0  0  0  0  0  0  0  0  0  0  0  0
   19.3020   -9.8142  -16.2438 C   0  0  0  0  0  0  0  0  0  0  0  0
   18.5915   -9.0289  -15.5685 O   0  0  0  0  0  0  0  0  0  0  0  0
   17.2793   -9.5889  -20.7216 O   0  0  0  0  0  0  0  0  0  0  0  0
   22.6989   -9.9449  -14.6165 C   0  0  0  0  0  0  0  0  0  0  0  0
   21.3270   -9.3536  -14.9174 C   0  0  2  0  0  0  0  0  0  0  0  0
   20.6650  -10.0330  -15.9840 N   0  0  0  0  0  0  0  0  0  0  0  0
   21.4960   -7.8914  -15.2451 C   0  0  0  0  0  0  0  0  0  0  0  0
   21.8510   -7.5390  -16.4045 O   0  0  0  0  0  0  0  0  0  0  0  0
   17.5394   -3.6919  -14.7686 N   0  0  0  0  0  0  0  0  0  0  0  0
   17.9792   -4.5696  -15.7946 C   0  0  0  0  0  0  0  0  0  0  0  0
   17.1435   -4.8124  -16.7027 O   0  0  0  0  0  0  0  0  0  0  0  0
   19.3157   -5.1610  -15.8073 C   0  0  0  0  0  0  0  0  0  0  0  0
   20.1753   -4.8262  -14.6554 C   0  0  0  0  0  0  0  0  0  0  0  0
   21.5145   -5.5042  -14.6214 C   0  0  2  0  0  0  0  0  0  0  0  0
   21.2645   -6.8858  -14.2754 N   0  0  0  0  0  0  0  0  0  0  0  0
   22.3411   -4.9012  -13.5156 C   0  0  0  0  0  0  0  0  0  0  0  0
   22.6277   -5.5809  -12.3420 O   0  0  0  0  0  0  0  0  0  0  0  0
   22.8144   -3.7320  -13.6147 O   0  0  0  0  0  0  0  0  0  0  0  0
  2  1  1  1
  2  3  1  0
  3  4  1  0
  4  5  2  0
  6 11  1  0
  6  2  1  0
  7  6  2  0
  8  4  1  0
 10  9  1  6
 10 12  1  0
 10 11  1  0
 12 20  1  0
 13 12  2  0
 15 14  1  0
 15 17  1  0
 16 15  2  0
 18 17  1  0
 19 21  1  0
 19 18  1  1
 20 19  1  0
 21 22  1  0
 23 21  2  0
M  END
$$$$
