DAQ.pdb
     RDKit          3D

 23 22  0  0  1  0  0  0  0  0999 V2000
   16.9553  -12.5416  -14.3470 N   0  0  0  0  0  0  0  0  0  0  0  0
   16.2764  -11.3247  -14.7183 C   0  0  1  0  0  0  0  0  0  0  0  0
   14.7557  -11.5079  -14.6473 C   0  0  0  0  0  0  0  0  0  0  0  0
   14.3246  -12.4036  -15.7432 C   0  0  0  0  0  0  0  0  0  0  0  0
   13.6005  -11.9933  -16.6748 O   0  0  0  0  0  0  0  0  0  0  0  0
   16.6668  -10.1940  -13.8402 C   0  0  0  0  0  0  0  0  0  0  0  0
   16.4081  -10.2802  -12.6141 O   0  0  0  0  0  0  0  0  0  0  0  0
   14.7250  -13.7259  -15.7484 O   0  0  0  0  0  0  0  0  0  0  0  0
   18.6589   -7.0372  -14.3964 C   0  0  0  0  0  0  0  0  0  0  0  0
   17.8250   -8.0323  -13.5985 C   0  0  2  0  0  0  0  0  0  0  0  0
   17.3052   -9.0821  -14.4142 N   0  0  0  0  0  0  0  0  0  0  0  0
   16.7048   -7.2848  -12.9202 C   0  0  0  0  0  0  0  0  0  0  0  0
   15.5909   -7.1506  -13.4995 O   0  0  0  0  0  0  0  0  0  0  0  0
   15.1403   -7.2610   -6.9520 N   0  0  0  0  0  0  0  0  0  0  0  0
   14.4962   -6.0998   -7.4551 C   0  0  0  0  0  0  0  0  0  0  0  0
   13.7646   -5.4827   -6.6391 O   0  0  0  0  0  0  0  0  0  0  0  0
   14.6636   -5.6391   -8.8320 C   0  0  0  0  0  0  0  0  0  0  0  0
   15.6208   -6.4064   -9.6524 C   0  0  0  0  0  0  0  0  0  0  0  0
   15.7931   -5.9344  -11.0672 C   0  0  2  0  0  0  0  0  0  0  0  0
   16.8679   -6.7198  -11.6321 N   0  0  0  0  0  0  0  0  0  0  0  0
   16.2403   -4.4959  -11.0530 C   0  0  0  0  0  0  0  0  0  0  0  0
   15.3473   -3.4370  -10.9997 O   0  0  0  0  0  0  0  0  0  0  0  0
   17.4678   -4.1911  -11.0899 O   0  0  0  0  0  0  0  0  0  0  0  0
  2  1  1  1
  2  3  1  0
  3  4  1  0
  4  5  2  0
  6 11  1  0
  6  2  1  0
  7  6  2  0
  8  4  1  0
 10  9  1  6
 10 12  1  0
 10 11  1  0
 12 20  1  0
 13 12  2  0
 15 14  1  0
 15 17  1  0
 16 15  2  0
 18 17  1  0
 19 21  1  0
 19 18  1  1
 20 19  1  0
 21 22  1  0
 23 21  2  0
M  END
$$$$
