GLS.pdb
     RDKit          3D

 19 18  0  0  1  0  0  0  0  0999 V2000
    7.0909  -14.4282   20.1337 N   0  0  0  0  0  0  0  0  0  0  0  0
    6.4573  -15.0532   21.2776 C   0  0  0  0  0  0  0  0  0  0  0  0
    7.3624  -14.8939   22.4542 C   0  0  0  0  0  0  0  0  0  0  0  0
    8.6165  -15.0192   22.3147 O   0  0  0  0  0  0  0  0  0  0  0  0
    5.9729  -11.8311   27.0489 C   0  0  0  0  0  0  0  0  0  0  0  0
    6.6972  -12.3261   25.7807 C   0  0  1  0  0  0  0  0  0  0  0  0
    7.7120  -11.3187   25.4413 C   0  0  0  0  0  0  0  0  0  0  0  0
    7.0930  -13.7068   26.0360 C   0  0  0  0  0  0  0  0  0  0  0  0
    7.6462  -14.5430   24.9504 C   0  0  2  0  0  0  0  0  0  0  0  0
    6.8460  -14.6008   23.7461 N   0  0  0  0  0  0  0  0  0  0  0  0
    8.0920  -15.8812   25.3615 C   0  0  0  0  0  0  0  0  0  0  0  0
    7.2241  -16.7329   25.6721 O   0  0  0  0  0  0  0  0  0  0  0  0
   11.7950  -17.3266   24.5079 O   0  0  0  0  0  0  0  0  0  0  0  0
   10.7733  -18.2444   24.7436 C   0  0  0  0  0  0  0  0  0  0  0  0
    9.8425  -17.6574   25.7723 C   0  0  2  0  0  0  0  0  0  0  0  0
    9.4412  -16.3034   25.4398 N   0  0  0  0  0  0  0  0  0  0  0  0
   10.4595  -17.6939   27.1148 C   0  0  0  0  0  0  0  0  0  0  0  0
   10.8981  -18.8742   27.6785 O   0  0  0  0  0  0  0  0  0  0  0  0
   10.5898  -16.6316   27.7604 O   0  0  0  0  0  0  0  0  0  0  0  0
  2  1  1  0
  2  3  1  0
  3 10  1  0
  3  4  2  0
  6  8  1  0
  6  5  1  1
  7  6  1  0
  9  8  1  1
 10  9  1  0
 11  9  1  0
 11 16  1  0
 12 11  2  0
 13 14  1  0
 15 14  1  6
 15 16  1  0
 17 15  1  0
 18 17  1  0
 19 17  2  0
M  END
$$$$
