GLS.pdb
     RDKit          3D

 19 18  0  0  1  0  0  0  0  0999 V2000
    7.2915  -15.6506   20.3265 N   0  0  0  0  0  0  0  0  0  0  0  0
    6.5967  -15.8331   21.5852 C   0  0  0  0  0  0  0  0  0  0  0  0
    7.5239  -15.4425   22.6882 C   0  0  0  0  0  0  0  0  0  0  0  0
    8.7757  -15.4139   22.4880 O   0  0  0  0  0  0  0  0  0  0  0  0
    5.9873  -12.0664   26.9851 C   0  0  0  0  0  0  0  0  0  0  0  0
    6.6772  -12.6434   25.7324 C   0  0  1  0  0  0  0  0  0  0  0  0
    7.5166  -11.5759   25.1707 C   0  0  0  0  0  0  0  0  0  0  0  0
    7.2760  -13.9126   26.1310 C   0  0  0  0  0  0  0  0  0  0  0  0
    7.8701  -14.8131   25.1211 C   0  0  2  0  0  0  0  0  0  0  0  0
    7.0314  -15.0966   23.9764 N   0  0  0  0  0  0  0  0  0  0  0  0
    8.4731  -16.0399   25.6595 C   0  0  0  0  0  0  0  0  0  0  0  0
    7.7173  -16.9150   26.1477 O   0  0  0  0  0  0  0  0  0  0  0  0
   12.4913  -16.9172   25.2452 O   0  0  0  0  0  0  0  0  0  0  0  0
   11.6132  -17.9987   25.2779 C   0  0  0  0  0  0  0  0  0  0  0  0
   10.4108  -17.6033   26.0945 C   0  0  2  0  0  0  0  0  0  0  0  0
    9.8592  -16.3280   25.6768 N   0  0  0  0  0  0  0  0  0  0  0  0
   10.7460  -17.5697   27.5335 C   0  0  0  0  0  0  0  0  0  0  0  0
   11.3146  -18.6536   28.1702 O   0  0  0  0  0  0  0  0  0  0  0  0
   10.5109  -16.5360   28.1955 O   0  0  0  0  0  0  0  0  0  0  0  0
  2  1  1  0
  2  3  1  0
  3 10  1  0
  3  4  2  0
  6  8  1  0
  6  5  1  1
  7  6  1  0
  9  8  1  1
 10  9  1  0
 11  9  1  0
 11 16  1  0
 12 11  2  0
 13 14  1  0
 15 14  1  6
 15 16  1  0
 17 15  1  0
 18 17  1  0
 19 17  2  0
M  END
$$$$
