GLS.pdb
     RDKit          3D

 19 18  0  0  1  0  0  0  0  0999 V2000
    4.6999  -18.6084   22.8788 N   0  0  0  0  0  0  0  0  0  0  0  0
    5.0906  -18.2284   24.2217 C   0  0  0  0  0  0  0  0  0  0  0  0
    6.1400  -17.1715   24.1185 C   0  0  0  0  0  0  0  0  0  0  0  0
    6.8138  -17.0449   23.0517 O   0  0  0  0  0  0  0  0  0  0  0  0
    6.4426  -12.3907   27.3577 C   0  0  0  0  0  0  0  0  0  0  0  0
    6.4530  -13.2147   26.0542 C   0  0  1  0  0  0  0  0  0  0  0  0
    6.6203  -12.2662   24.9444 C   0  0  0  0  0  0  0  0  0  0  0  0
    7.4167  -14.2927   26.2476 C   0  0  0  0  0  0  0  0  0  0  0  0
    7.5330  -15.3834   25.2572 C   0  0  2  0  0  0  0  0  0  0  0  0
    6.4068  -16.2904   25.2019 N   0  0  0  0  0  0  0  0  0  0  0  0
    8.8075  -16.1137   25.2829 C   0  0  0  0  0  0  0  0  0  0  0  0
    9.0464  -16.8684   26.2569 O   0  0  0  0  0  0  0  0  0  0  0  0
   11.7455  -15.8377   22.3045 O   0  0  0  0  0  0  0  0  0  0  0  0
   11.4864  -17.0986   22.8381 C   0  0  0  0  0  0  0  0  0  0  0  0
   10.9646  -16.9177   24.2396 C   0  0  2  0  0  0  0  0  0  0  0  0
    9.8103  -16.0400   24.2861 N   0  0  0  0  0  0  0  0  0  0  0  0
   12.0293  -16.4114   25.1309 C   0  0  0  0  0  0  0  0  0  0  0  0
   13.2475  -17.0498   25.2392 O   0  0  0  0  0  0  0  0  0  0  0  0
   11.8266  -15.3794   25.8062 O   0  0  0  0  0  0  0  0  0  0  0  0
  2  1  1  0
  2  3  1  0
  3 10  1  0
  3  4  2  0
  6  8  1  0
  6  5  1  1
  7  6  1  0
  9  8  1  1
 10  9  1  0
 11  9  1  0
 11 16  1  0
 12 11  2  0
 13 14  1  0
 15 14  1  6
 15 16  1  0
 17 15  1  0
 18 17  1  0
 19 17  2  0
M  END
$$$$
