GLS.pdb
     RDKit          3D

 19 18  0  0  1  0  0  0  0  0999 V2000
    4.9553  -18.6800   23.3229 N   0  0  0  0  0  0  0  0  0  0  0  0
    5.3799  -18.1731   24.6126 C   0  0  0  0  0  0  0  0  0  0  0  0
    6.4504  -17.1581   24.3829 C   0  0  0  0  0  0  0  0  0  0  0  0
    7.0724  -17.1270   23.2783 O   0  0  0  0  0  0  0  0  0  0  0  0
    6.6725  -12.3608   27.3624 C   0  0  0  0  0  0  0  0  0  0  0  0
    6.7222  -13.1635   26.0467 C   0  0  1  0  0  0  0  0  0  0  0  0
    6.7081  -12.1903   24.9457 C   0  0  0  0  0  0  0  0  0  0  0  0
    7.8259  -14.1089   26.1741 C   0  0  0  0  0  0  0  0  0  0  0  0
    7.9080  -15.2915   25.2917 C   0  0  2  0  0  0  0  0  0  0  0  0
    6.7950  -16.2115   25.3862 N   0  0  0  0  0  0  0  0  0  0  0  0
    9.1936  -16.0020   25.3216 C   0  0  0  0  0  0  0  0  0  0  0  0
    9.4484  -16.7388   26.3052 O   0  0  0  0  0  0  0  0  0  0  0  0
   11.4996  -16.4739   21.9527 O   0  0  0  0  0  0  0  0  0  0  0  0
   11.5185  -17.4608   22.9362 C   0  0  0  0  0  0  0  0  0  0  0  0
   11.3547  -16.7922   24.2761 C   0  0  2  0  0  0  0  0  0  0  0  0
   10.1905  -15.9274   24.3190 N   0  0  0  0  0  0  0  0  0  0  0  0
   12.5711  -16.0317   24.6313 C   0  0  0  0  0  0  0  0  0  0  0  0
   13.8142  -16.6290   24.6670 O   0  0  0  0  0  0  0  0  0  0  0  0
   12.4775  -14.8163   24.9074 O   0  0  0  0  0  0  0  0  0  0  0  0
  2  1  1  0
  2  3  1  0
  3 10  1  0
  3  4  2  0
  6  8  1  0
  6  5  1  1
  7  6  1  0
  9  8  1  1
 10  9  1  0
 11  9  1  0
 11 16  1  0
 12 11  2  0
 13 14  1  0
 15 14  1  6
 15 16  1  0
 17 15  1  0
 18 17  1  0
 19 17  2  0
M  END
$$$$
