GLS.pdb
     RDKit          3D

 19 18  0  0  1  0  0  0  0  0999 V2000
    6.5844  -15.5911   20.1743 N   0  0  0  0  0  0  0  0  0  0  0  0
    5.9818  -15.5602   21.4920 C   0  0  0  0  0  0  0  0  0  0  0  0
    7.0454  -15.2140   22.4809 C   0  0  0  0  0  0  0  0  0  0  0  0
    8.2562  -15.1341   22.1124 O   0  0  0  0  0  0  0  0  0  0  0  0
    6.1155  -11.9273   27.0316 C   0  0  0  0  0  0  0  0  0  0  0  0
    6.6028  -12.4903   25.6811 C   0  0  1  0  0  0  0  0  0  0  0  0
    7.3899  -11.4334   25.0308 C   0  0  0  0  0  0  0  0  0  0  0  0
    7.2092  -13.7871   25.9620 C   0  0  0  0  0  0  0  0  0  0  0  0
    7.7068  -14.6382   24.8612 C   0  0  2  0  0  0  0  0  0  0  0  0
    6.7304  -14.9679   23.8453 N   0  0  0  0  0  0  0  0  0  0  0  0
    8.4600  -15.8262   25.2851 C   0  0  0  0  0  0  0  0  0  0  0  0
    7.8511  -16.7326   25.9040 O   0  0  0  0  0  0  0  0  0  0  0  0
   12.4609  -16.5847   24.2244 O   0  0  0  0  0  0  0  0  0  0  0  0
   11.5462  -17.6340   24.2881 C   0  0  0  0  0  0  0  0  0  0  0  0
   10.5154  -17.2962   25.3333 C   0  0  2  0  0  0  0  0  0  0  0  0
    9.8396  -16.0434   25.0525 N   0  0  0  0  0  0  0  0  0  0  0  0
   11.1291  -17.2572   26.6772 C   0  0  0  0  0  0  0  0  0  0  0  0
   11.7778  -18.3524   27.2093 O   0  0  0  0  0  0  0  0  0  0  0  0
   11.0619  -16.2082   27.3535 O   0  0  0  0  0  0  0  0  0  0  0  0
  2  1  1  0
  2  3  1  0
  3 10  1  0
  3  4  2  0
  6  8  1  0
  6  5  1  1
  7  6  1  0
  9  8  1  1
 10  9  1  0
 11  9  1  0
 11 16  1  0
 12 11  2  0
 13 14  1  0
 15 14  1  6
 15 16  1  0
 17 15  1  0
 18 17  1  0
 19 17  2  0
M  END
$$$$
