GLS.pdb
     RDKit          3D

 19 18  0  0  1  0  0  0  0  0999 V2000
    4.9650  -18.7767   23.2349 N   0  0  0  0  0  0  0  0  0  0  0  0
    5.2219  -18.1499   24.5162 C   0  0  0  0  0  0  0  0  0  0  0  0
    6.2664  -17.1015   24.3190 C   0  0  0  0  0  0  0  0  0  0  0  0
    6.8513  -16.9876   23.1996 O   0  0  0  0  0  0  0  0  0  0  0  0
    6.6793  -12.2299   27.3754 C   0  0  0  0  0  0  0  0  0  0  0  0
    6.6618  -13.0650   26.0791 C   0  0  1  0  0  0  0  0  0  0  0  0
    6.8029  -12.1257   24.9577 C   0  0  0  0  0  0  0  0  0  0  0  0
    7.6312  -14.1401   26.2601 C   0  0  0  0  0  0  0  0  0  0  0  0
    7.7069  -15.2543   25.2924 C   0  0  2  0  0  0  0  0  0  0  0  0
    6.6272  -16.2146   25.3700 N   0  0  0  0  0  0  0  0  0  0  0  0
    9.0129  -15.9227   25.2143 C   0  0  0  0  0  0  0  0  0  0  0  0
    9.3918  -16.6140   26.1909 O   0  0  0  0  0  0  0  0  0  0  0  0
   11.1680  -16.1388   21.6701 O   0  0  0  0  0  0  0  0  0  0  0  0
   11.1528  -17.2419   22.5214 C   0  0  0  0  0  0  0  0  0  0  0  0
   11.0346  -16.7414   23.9372 C   0  0  2  0  0  0  0  0  0  0  0  0
    9.8997  -15.8546   24.1126 N   0  0  0  0  0  0  0  0  0  0  0  0
   12.2809  -16.0675   24.3577 C   0  0  0  0  0  0  0  0  0  0  0  0
   13.4960  -16.7209   24.3488 O   0  0  0  0  0  0  0  0  0  0  0  0
   12.2393  -14.8757   24.7319 O   0  0  0  0  0  0  0  0  0  0  0  0
  2  1  1  0
  2  3  1  0
  3 10  1  0
  3  4  2  0
  6  8  1  0
  6  5  1  1
  7  6  1  0
  9  8  1  1
 10  9  1  0
 11  9  1  0
 11 16  1  0
 12 11  2  0
 13 14  1  0
 15 14  1  6
 15 16  1  0
 17 15  1  0
 18 17  1  0
 19 17  2  0
M  END
$$$$
