GLS.pdb
     RDKit          3D

 19 18  0  0  1  0  0  0  0  0999 V2000
    5.0440  -18.6821   23.3029 N   0  0  0  0  0  0  0  0  0  0  0  0
    5.2941  -17.9777   24.5446 C   0  0  0  0  0  0  0  0  0  0  0  0
    6.3649  -16.9671   24.2975 C   0  0  0  0  0  0  0  0  0  0  0  0
    6.9916  -16.9596   23.1952 O   0  0  0  0  0  0  0  0  0  0  0  0
    6.7706  -12.2385   27.4613 C   0  0  0  0  0  0  0  0  0  0  0  0
    6.6194  -13.0874   26.1828 C   0  0  1  0  0  0  0  0  0  0  0  0
    6.3056  -12.1628   25.0844 C   0  0  0  0  0  0  0  0  0  0  0  0
    7.7988  -13.9425   26.1056 C   0  0  0  0  0  0  0  0  0  0  0  0
    7.8315  -15.0962   25.1826 C   0  0  2  0  0  0  0  0  0  0  0  0
    6.7046  -15.9986   25.2815 N   0  0  0  0  0  0  0  0  0  0  0  0
    9.1037  -15.8303   25.1492 C   0  0  0  0  0  0  0  0  0  0  0  0
    9.3645  -16.6205   26.0887 O   0  0  0  0  0  0  0  0  0  0  0  0
   11.0493  -16.3887   21.6352 O   0  0  0  0  0  0  0  0  0  0  0  0
   11.1339  -17.3582   22.6325 C   0  0  0  0  0  0  0  0  0  0  0  0
   11.1777  -16.6584   23.9657 C   0  0  2  0  0  0  0  0  0  0  0  0
   10.0810  -15.7229   24.1304 N   0  0  0  0  0  0  0  0  0  0  0  0
   12.4716  -15.9685   24.1502 C   0  0  0  0  0  0  0  0  0  0  0  0
   12.5409  -14.6133   24.3989 O   0  0  0  0  0  0  0  0  0  0  0  0
   13.5334  -16.6243   24.0802 O   0  0  0  0  0  0  0  0  0  0  0  0
  2  1  1  0
  2  3  1  0
  3 10  1  0
  3  4  2  0
  6  8  1  0
  6  5  1  1
  7  6  1  0
  9  8  1  1
 10  9  1  0
 11  9  1  0
 11 16  1  0
 12 11  2  0
 13 14  1  0
 15 14  1  6
 15 16  1  0
 17 15  1  0
 18 17  1  0
 19 17  2  0
M  END
$$$$
