GLS.pdb
     RDKit          3D

 19 18  0  0  1  0  0  0  0  0999 V2000
    4.9227  -18.3920   22.6121 N   0  0  0  0  0  0  0  0  0  0  0  0
    5.0182  -17.8416   23.9494 C   0  0  0  0  0  0  0  0  0  0  0  0
    6.1896  -16.9167   23.9882 C   0  0  0  0  0  0  0  0  0  0  0  0
    6.9972  -16.8704   23.0117 O   0  0  0  0  0  0  0  0  0  0  0  0
    6.4707  -12.1973   27.2196 C   0  0  0  0  0  0  0  0  0  0  0  0
    6.6231  -13.0140   25.9204 C   0  0  1  0  0  0  0  0  0  0  0  0
    7.0047  -12.0716   24.8595 C   0  0  0  0  0  0  0  0  0  0  0  0
    7.4846  -14.1480   26.2371 C   0  0  0  0  0  0  0  0  0  0  0  0
    7.6190  -15.2764   25.2923 C   0  0  2  0  0  0  0  0  0  0  0  0
    6.4258  -16.0742   25.1089 N   0  0  0  0  0  0  0  0  0  0  0  0
    8.8022  -16.1226   25.4983 C   0  0  0  0  0  0  0  0  0  0  0  0
    8.8016  -16.9300   26.4593 O   0  0  0  0  0  0  0  0  0  0  0  0
   12.1452  -16.0839   22.9865 O   0  0  0  0  0  0  0  0  0  0  0  0
   11.6970  -17.3213   23.4442 C   0  0  0  0  0  0  0  0  0  0  0  0
   11.0105  -17.1120   24.7686 C   0  0  2  0  0  0  0  0  0  0  0  0
    9.9663  -16.1076   24.6926 N   0  0  0  0  0  0  0  0  0  0  0  0
   11.9920  -16.7526   25.8135 C   0  0  0  0  0  0  0  0  0  0  0  0
   13.0949  -17.5398   26.0728 O   0  0  0  0  0  0  0  0  0  0  0  0
   11.8239  -15.7102   26.4824 O   0  0  0  0  0  0  0  0  0  0  0  0
  2  1  1  0
  2  3  1  0
  3 10  1  0
  3  4  2  0
  6  8  1  0
  6  5  1  1
  7  6  1  0
  9  8  1  1
 10  9  1  0
 11  9  1  0
 11 16  1  0
 12 11  2  0
 13 14  1  0
 15 14  1  6
 15 16  1  0
 17 15  1  0
 18 17  1  0
 19 17  2  0
M  END
$$$$
