GLS.pdb
     RDKit          3D

 19 18  0  0  1  0  0  0  0  0999 V2000
   -1.2126  -26.5345   30.1807 N   0  0  0  0  0  0  0  0  0  0  0  0
   -1.8520  -26.3199   31.4635 C   0  0  0  0  0  0  0  0  0  0  0  0
   -3.2903  -26.0036   31.2182 C   0  0  0  0  0  0  0  0  0  0  0  0
   -3.7772  -26.1150   30.0527 O   0  0  0  0  0  0  0  0  0  0  0  0
   -7.4328  -27.5065   34.6833 C   0  0  0  0  0  0  0  0  0  0  0  0
   -6.6016  -27.3160   33.3985 C   0  0  1  0  0  0  0  0  0  0  0  0
   -7.2668  -28.0824   32.3356 C   0  0  0  0  0  0  0  0  0  0  0  0
   -6.3916  -25.8806   33.2443 C   0  0  0  0  0  0  0  0  0  0  0  0
   -5.5643  -25.3568   32.1374 C   0  0  2  0  0  0  0  0  0  0  0  0
   -4.1402  -25.5741   32.2740 N   0  0  0  0  0  0  0  0  0  0  0  0
   -5.8590  -23.9730   31.7415 C   0  0  0  0  0  0  0  0  0  0  0  0
   -5.4887  -23.0417   32.4971 O   0  0  0  0  0  0  0  0  0  0  0  0
   -7.7179  -22.9512   28.1653 O   0  0  0  0  0  0  0  0  0  0  0  0
   -6.8721  -21.9947   28.7233 C   0  0  0  0  0  0  0  0  0  0  0  0
   -6.8348  -22.2122   30.2134 C   0  0  2  0  0  0  0  0  0  0  0  0
   -6.5372  -23.5894   30.5594 N   0  0  0  0  0  0  0  0  0  0  0  0
   -8.1088  -21.7921   30.8336 C   0  0  0  0  0  0  0  0  0  0  0  0
   -8.5187  -20.4747   30.8252 O   0  0  0  0  0  0  0  0  0  0  0  0
   -8.8376  -22.6473   31.3810 O   0  0  0  0  0  0  0  0  0  0  0  0
  2  1  1  0
  2  3  1  0
  3 10  1  0
  3  4  2  0
  6  8  1  0
  6  5  1  1
  7  6  1  0
  9  8  1  1
 10  9  1  0
 11  9  1  0
 11 16  1  0
 12 11  2  0
 13 14  1  0
 15 14  1  6
 15 16  1  0
 17 15  1  0
 18 17  1  0
 19 17  2  0
M  END
$$$$
