GLS.pdb
     RDKit          3D

 19 18  0  0  1  0  0  0  0  0999 V2000
    4.9757  -18.6835   23.0522 N   0  0  0  0  0  0  0  0  0  0  0  0
    5.2135  -18.1069   24.3605 C   0  0  0  0  0  0  0  0  0  0  0  0
    6.2754  -17.0665   24.2232 C   0  0  0  0  0  0  0  0  0  0  0  0
    6.9147  -16.9485   23.1344 O   0  0  0  0  0  0  0  0  0  0  0  0
    6.5199  -12.3093   27.4282 C   0  0  0  0  0  0  0  0  0  0  0  0
    6.5369  -13.1125   26.1119 C   0  0  1  0  0  0  0  0  0  0  0  0
    6.6130  -12.1400   25.0128 C   0  0  0  0  0  0  0  0  0  0  0  0
    7.5677  -14.1345   26.2580 C   0  0  0  0  0  0  0  0  0  0  0  0
    7.6784  -15.2354   25.2784 C   0  0  2  0  0  0  0  0  0  0  0  0
    6.5925  -16.1917   25.2982 N   0  0  0  0  0  0  0  0  0  0  0  0
    8.9838  -15.9087   25.2443 C   0  0  0  0  0  0  0  0  0  0  0  0
    9.3029  -16.6468   26.2079 O   0  0  0  0  0  0  0  0  0  0  0  0
   11.1504  -16.1197   21.7568 O   0  0  0  0  0  0  0  0  0  0  0  0
   11.1674  -17.2133   22.6202 C   0  0  0  0  0  0  0  0  0  0  0  0
   11.0556  -16.6995   24.0318 C   0  0  2  0  0  0  0  0  0  0  0  0
    9.9327  -15.7963   24.1995 N   0  0  0  0  0  0  0  0  0  0  0  0
   12.3108  -16.0390   24.4470 C   0  0  0  0  0  0  0  0  0  0  0  0
   13.5188  -16.7054   24.4337 O   0  0  0  0  0  0  0  0  0  0  0  0
   12.2836  -14.8466   24.8207 O   0  0  0  0  0  0  0  0  0  0  0  0
  2  1  1  0
  2  3  1  0
  3 10  1  0
  3  4  2  0
  6  8  1  0
  6  5  1  1
  7  6  1  0
  9  8  1  1
 10  9  1  0
 11  9  1  0
 11 16  1  0
 12 11  2  0
 13 14  1  0
 15 14  1  6
 15 16  1  0
 17 15  1  0
 18 17  1  0
 19 17  2  0
M  END
$$$$
