PAC.pdb
     RDKit          3D

 19 19  0  0  1  0  0  0  0  0999 V2000
    8.3820  -15.0645   20.5255 N   0  0  0  0  0  0  0  0  0  0  0  0
    7.9509  -16.0340   19.5205 C   0  0  0  0  0  0  0  0  0  0  0  0
    7.4753  -17.2456   20.2676 C   0  0  0  0  0  0  0  0  0  0  0  0
    7.3254  -16.7654   21.6897 C   0  0  0  0  0  0  0  0  0  0  0  0
    7.3942  -15.2447   21.5648 C   0  0  1  0  0  0  0  0  0  0  0  0
    7.9085  -14.6652   22.8222 C   0  0  0  0  0  0  0  0  0  0  0  0
    9.1542  -14.5501   22.9636 O   0  0  0  0  0  0  0  0  0  0  0  0
    6.5422  -13.1259   25.9606 C   0  0  0  0  0  0  0  0  0  0  0  0
    7.6465  -13.6912   25.0786 C   0  0  2  0  0  0  0  0  0  0  0  0
    7.0479  -14.2340   23.8758 N   0  0  0  0  0  0  0  0  0  0  0  0
    8.3916  -14.7503   25.8184 C   0  0  0  0  0  0  0  0  0  0  0  0
    8.0470  -15.9510   25.6761 O   0  0  0  0  0  0  0  0  0  0  0  0
    9.4752  -14.4654   26.6787 N   0  0  0  0  0  0  0  0  0  0  0  0
   10.2792  -15.5356   27.2209 C   0  0  1  0  0  0  0  0  0  0  0  0
   11.5282  -14.9849   27.8785 C   0  0  0  0  0  0  0  0  0  0  0  0
   11.1644  -13.5855   28.9520 S   0  0  0  0  0  0  0  0  0  0  0  0
    9.5038  -16.2294   28.2657 C   0  0  0  0  0  0  0  0  0  0  0  0
   10.0185  -17.3727   28.8520 O   0  0  0  0  0  0  0  0  0  0  0  0
    8.3780  -15.8405   28.6687 O   0  0  0  0  0  0  0  0  0  0  0  0
  1  2  1  0
  3  2  1  0
  4  3  1  0
  4  5  1  0
  5  1  1  0
  5  6  1  1
  7  6  2  0
  9  8  1  1
  9 10  1  0
  9 11  1  0
 10  6  1  0
 11 13  1  0
 12 11  2  0
 13 14  1  0
 14 15  1  1
 14 17  1  0
 15 16  1  0
 17 19  2  0
 17 18  1  0
M  END
$$$$
