PAC.pdb
     RDKit          3D

 19 19  0  0  1  0  0  0  0  0999 V2000
    8.6782  -15.0326   19.6434 N   0  0  0  0  0  0  0  0  0  0  0  0
    8.8772  -14.5339   18.2841 C   0  0  0  0  0  0  0  0  0  0  0  0
    7.9362  -13.3781   18.1078 C   0  0  0  0  0  0  0  0  0  0  0  0
    7.4942  -13.0462   19.5114 C   0  0  0  0  0  0  0  0  0  0  0  0
    8.4826  -13.8107   20.3897 C   0  0  1  0  0  0  0  0  0  0  0  0
    7.8500  -14.1345   21.6845 C   0  0  0  0  0  0  0  0  0  0  0  0
    7.4571  -13.1861   22.4132 O   0  0  0  0  0  0  0  0  0  0  0  0
    7.0888  -17.1881   23.7361 C   0  0  0  0  0  0  0  0  0  0  0  0
    7.0988  -15.6932   23.4493 C   0  0  2  0  0  0  0  0  0  0  0  0
    7.6699  -15.4765   22.1353 N   0  0  0  0  0  0  0  0  0  0  0  0
    7.8955  -14.9842   24.4917 C   0  0  0  0  0  0  0  0  0  0  0  0
    9.1462  -14.9346   24.3746 O   0  0  0  0  0  0  0  0  0  0  0  0
    7.3058  -14.3606   25.6138 N   0  0  0  0  0  0  0  0  0  0  0  0
    8.1076  -13.5640   26.5128 C   0  0  1  0  0  0  0  0  0  0  0  0
    7.2249  -12.7556   27.4417 C   0  0  0  0  0  0  0  0  0  0  0  0
    5.6619  -12.3078   26.6673 S   0  0  0  0  0  0  0  0  0  0  0  0
    8.9169  -14.4662   27.3528 C   0  0  0  0  0  0  0  0  0  0  0  0
    9.9110  -13.9393   28.1591 O   0  0  0  0  0  0  0  0  0  0  0  0
    8.7590  -15.7131   27.3851 O   0  0  0  0  0  0  0  0  0  0  0  0
  1  2  1  0
  3  2  1  0
  4  3  1  0
  4  5  1  0
  5  1  1  0
  5  6  1  1
  7  6  2  0
  9  8  1  1
  9 10  1  0
  9 11  1  0
 10  6  1  0
 11 13  1  0
 12 11  2  0
 13 14  1  0
 14 15  1  1
 14 17  1  0
 15 16  1  0
 17 19  2  0
 17 18  1  0
M  END
$$$$
