PAC.pdb
     RDKit          3D

 19 19  0  0  1  0  0  0  0  0999 V2000
    7.4018  -18.3531   19.6090 N   0  0  0  0  0  0  0  0  0  0  0  0
    6.4790  -19.4737   19.7772 C   0  0  0  0  0  0  0  0  0  0  0  0
    5.8792  -19.3355   21.1460 C   0  0  0  0  0  0  0  0  0  0  0  0
    6.2280  -17.9275   21.5599 C   0  0  0  0  0  0  0  0  0  0  0  0
    6.6924  -17.2751   20.2593 C   0  0  1  0  0  0  0  0  0  0  0  0
    7.6440  -16.1866   20.5610 C   0  0  0  0  0  0  0  0  0  0  0  0
    8.8717  -16.4606   20.6106 O   0  0  0  0  0  0  0  0  0  0  0  0
    7.6797  -12.4732   20.7507 C   0  0  0  0  0  0  0  0  0  0  0  0
    8.2293  -13.8478   21.1050 C   0  0  2  0  0  0  0  0  0  0  0  0
    7.2228  -14.8436   20.7969 N   0  0  0  0  0  0  0  0  0  0  0  0
    8.5857  -13.8916   22.5524 C   0  0  0  0  0  0  0  0  0  0  0  0
    9.6103  -13.2793   22.9471 O   0  0  0  0  0  0  0  0  0  0  0  0
    7.8197  -14.5948   23.5087 N   0  0  0  0  0  0  0  0  0  0  0  0
    8.2006  -14.5838   24.9018 C   0  0  1  0  0  0  0  0  0  0  0  0
    6.9738  -14.5980   25.7910 C   0  0  0  0  0  0  0  0  0  0  0  0
    6.0012  -13.0918   25.6228 S   0  0  0  0  0  0  0  0  0  0  0  0
    8.9673  -15.8090   25.1939 C   0  0  0  0  0  0  0  0  0  0  0  0
    9.4614  -16.0171   26.4700 O   0  0  0  0  0  0  0  0  0  0  0  0
    9.2073  -16.6986   24.3385 O   0  0  0  0  0  0  0  0  0  0  0  0
  1  2  1  0
  3  2  1  0
  4  3  1  0
  4  5  1  0
  5  1  1  0
  5  6  1  1
  7  6  2  0
  9  8  1  1
  9 10  1  0
  9 11  1  0
 10  6  1  0
 11 13  1  0
 12 11  2  0
 13 14  1  0
 14 15  1  1
 14 17  1  0
 15 16  1  0
 17 19  2  0
 17 18  1  0
M  END
$$$$
