PAC.pdb
     RDKit          3D

 19 19  0  0  1  0  0  0  0  0999 V2000
    8.5883  -14.9559   19.3715 N   0  0  0  0  0  0  0  0  0  0  0  0
    8.7566  -14.3789   18.0394 C   0  0  0  0  0  0  0  0  0  0  0  0
    7.8774  -13.1639   17.9825 C   0  0  0  0  0  0  0  0  0  0  0  0
    7.5168  -12.9031   19.4238 C   0  0  0  0  0  0  0  0  0  0  0  0
    8.4964  -13.7779   20.2034 C   0  0  1  0  0  0  0  0  0  0  0  0
    7.9030  -14.1525   21.5030 C   0  0  0  0  0  0  0  0  0  0  0  0
    7.7481  -13.2549   22.3720 O   0  0  0  0  0  0  0  0  0  0  0  0
    6.0565  -16.9675   23.0522 C   0  0  0  0  0  0  0  0  0  0  0  0
    6.9975  -15.7737   23.1340 C   0  0  2  0  0  0  0  0  0  0  0  0
    7.5015  -15.4881   21.8059 N   0  0  0  0  0  0  0  0  0  0  0  0
    8.1199  -16.0783   24.0676 C   0  0  0  0  0  0  0  0  0  0  0  0
    7.8631  -16.3023   25.2777 O   0  0  0  0  0  0  0  0  0  0  0  0
    9.4693  -16.1274   23.6524 N   0  0  0  0  0  0  0  0  0  0  0  0
   10.5082  -16.4959   24.5855 C   0  0  1  0  0  0  0  0  0  0  0  0
   10.3524  -17.9405   25.0151 C   0  0  0  0  0  0  0  0  0  0  0  0
   11.1635  -18.2674   26.5894 S   0  0  0  0  0  0  0  0  0  0  0  0
   11.8147  -16.3779   23.9120 C   0  0  0  0  0  0  0  0  0  0  0  0
   12.9777  -16.4804   24.6556 O   0  0  0  0  0  0  0  0  0  0  0  0
   11.9443  -16.1855   22.6763 O   0  0  0  0  0  0  0  0  0  0  0  0
  1  2  1  0
  3  2  1  0
  4  3  1  0
  4  5  1  0
  5  1  1  0
  5  6  1  1
  7  6  2  0
  9  8  1  6
  9 10  1  0
  9 11  1  0
 10  6  1  0
 11 13  1  0
 12 11  2  0
 13 14  1  0
 14 15  1  6
 14 17  1  0
 15 16  1  0
 17 19  2  0
 17 18  1  0
M  END
$$$$
