PAC.pdb
     RDKit          3D

 19 19  0  0  1  0  0  0  0  0999 V2000
    7.5122  -14.9934   18.7788 N   0  0  0  0  0  0  0  0  0  0  0  0
    7.7613  -14.0789   17.6663 C   0  0  0  0  0  0  0  0  0  0  0  0
    8.0703  -12.7403   18.2707 C   0  0  0  0  0  0  0  0  0  0  0  0
    8.3335  -13.0450   19.7243 C   0  0  0  0  0  0  0  0  0  0  0  0
    8.4919  -14.5639   19.7503 C   0  0  1  0  0  0  0  0  0  0  0  0
    8.1090  -15.0811   21.0798 C   0  0  0  0  0  0  0  0  0  0  0  0
    6.8924  -15.0618   21.4026 O   0  0  0  0  0  0  0  0  0  0  0  0
    9.5466  -17.1344   23.8048 C   0  0  0  0  0  0  0  0  0  0  0  0
    8.5958  -16.0598   23.2964 C   0  0  2  0  0  0  0  0  0  0  0  0
    9.0643  -15.5986   22.0052 N   0  0  0  0  0  0  0  0  0  0  0  0
    8.5424  -14.9310   24.2697 C   0  0  0  0  0  0  0  0  0  0  0  0
    9.4716  -14.0842   24.2730 O   0  0  0  0  0  0  0  0  0  0  0  0
    7.4881  -14.7674   25.1956 N   0  0  0  0  0  0  0  0  0  0  0  0
    7.5255  -13.6970   26.1644 C   0  0  1  0  0  0  0  0  0  0  0  0
    6.1238  -13.2252   26.4933 C   0  0  0  0  0  0  0  0  0  0  0  0
    6.1329  -11.7878   27.5782 S   0  0  0  0  0  0  0  0  0  0  0  0
    8.1200  -14.2079   27.4134 C   0  0  0  0  0  0  0  0  0  0  0  0
    8.7535  -13.3307   28.2765 O   0  0  0  0  0  0  0  0  0  0  0  0
    8.0880  -15.4178   27.7537 O   0  0  0  0  0  0  0  0  0  0  0  0
  1  2  1  0
  3  2  1  0
  4  3  1  0
  4  5  1  0
  5  1  1  0
  5  6  1  1
  7  6  2  0
  9  8  1  1
  9 10  1  0
  9 11  1  0
 10  6  1  0
 11 13  1  0
 12 11  2  0
 13 14  1  0
 14 15  1  1
 14 17  1  0
 15 16  1  0
 17 19  2  0
 17 18  1  0
M  END
$$$$
