PAC.pdb
     RDKit          3D

 19 19  0  0  1  0  0  0  0  0999 V2000
    8.7843  -15.1916   19.7522 N   0  0  0  0  0  0  0  0  0  0  0  0
    8.9284  -14.7355   18.3713 C   0  0  0  0  0  0  0  0  0  0  0  0
    7.8815  -13.6822   18.1545 C   0  0  0  0  0  0  0  0  0  0  0  0
    7.4171  -13.3332   19.5466 C   0  0  0  0  0  0  0  0  0  0  0  0
    8.4777  -13.9625   20.4477 C   0  0  1  0  0  0  0  0  0  0  0  0
    7.8851  -14.2883   21.7607 C   0  0  0  0  0  0  0  0  0  0  0  0
    7.4286  -13.3478   22.4620 O   0  0  0  0  0  0  0  0  0  0  0  0
    7.2954  -17.3293   23.8878 C   0  0  0  0  0  0  0  0  0  0  0  0
    7.2455  -15.8405   23.5746 C   0  0  2  0  0  0  0  0  0  0  0  0
    7.8123  -15.6237   22.2588 N   0  0  0  0  0  0  0  0  0  0  0  0
    8.0085  -15.0812   24.6068 C   0  0  0  0  0  0  0  0  0  0  0  0
    9.2537  -14.9632   24.4807 O   0  0  0  0  0  0  0  0  0  0  0  0
    7.3925  -14.4835   25.7289 N   0  0  0  0  0  0  0  0  0  0  0  0
    8.1631  -13.6673   26.6375 C   0  0  1  0  0  0  0  0  0  0  0  0
    7.2686  -12.6778   27.3561 C   0  0  0  0  0  0  0  0  0  0  0  0
    5.8246  -12.2371   26.3745 S   0  0  0  0  0  0  0  0  0  0  0  0
    8.7655  -14.5383   27.6635 C   0  0  0  0  0  0  0  0  0  0  0  0
    9.6844  -14.0099   28.5536 O   0  0  0  0  0  0  0  0  0  0  0  0
    8.4923  -15.7595   27.7855 O   0  0  0  0  0  0  0  0  0  0  0  0
  1  2  1  0
  3  2  1  0
  4  3  1  0
  4  5  1  0
  5  1  1  0
  5  6  1  1
  7  6  2  0
  9  8  1  1
  9 10  1  0
  9 11  1  0
 10  6  1  0
 11 13  1  0
 12 11  2  0
 13 14  1  0
 14 15  1  1
 14 17  1  0
 15 16  1  0
 17 19  2  0
 17 18  1  0
M  END
$$$$
