PAC.pdb
     RDKit          3D

 19 19  0  0  1  0  0  0  0  0999 V2000
    8.7734  -14.9833   19.5231 N   0  0  0  0  0  0  0  0  0  0  0  0
    8.8460  -14.4948   18.1476 C   0  0  0  0  0  0  0  0  0  0  0  0
    7.7819  -13.4458   18.0069 C   0  0  0  0  0  0  0  0  0  0  0  0
    7.3841  -13.1324   19.4278 C   0  0  0  0  0  0  0  0  0  0  0  0
    8.4924  -13.7730   20.2609 C   0  0  1  0  0  0  0  0  0  0  0  0
    7.9676  -14.1335   21.5936 C   0  0  0  0  0  0  0  0  0  0  0  0
    7.5197  -13.2156   22.3296 O   0  0  0  0  0  0  0  0  0  0  0  0
    7.4507  -17.2345   23.6519 C   0  0  0  0  0  0  0  0  0  0  0  0
    7.3328  -15.7460   23.3558 C   0  0  2  0  0  0  0  0  0  0  0  0
    7.9506  -15.4776   22.0729 N   0  0  0  0  0  0  0  0  0  0  0  0
    8.0004  -14.9619   24.4345 C   0  0  0  0  0  0  0  0  0  0  0  0
    9.2402  -14.7648   24.3672 O   0  0  0  0  0  0  0  0  0  0  0  0
    7.2991  -14.4259   25.5375 N   0  0  0  0  0  0  0  0  0  0  0  0
    7.9882  -13.6263   26.5232 C   0  0  1  0  0  0  0  0  0  0  0  0
    7.0021  -12.8057   27.3293 C   0  0  0  0  0  0  0  0  0  0  0  0
    5.7766  -12.0034   26.2816 S   0  0  0  0  0  0  0  0  0  0  0  0
    8.6813  -14.5258   27.4639 C   0  0  0  0  0  0  0  0  0  0  0  0
    9.5602  -13.9962   28.3928 O   0  0  0  0  0  0  0  0  0  0  0  0
    8.5220  -15.7729   27.4775 O   0  0  0  0  0  0  0  0  0  0  0  0
  1  2  1  0
  3  2  1  0
  4  3  1  0
  4  5  1  0
  5  1  1  0
  5  6  1  1
  7  6  2  0
  9  8  1  1
  9 10  1  0
  9 11  1  0
 10  6  1  0
 11 13  1  0
 12 11  2  0
 13 14  1  0
 14 15  1  1
 14 17  1  0
 15 16  1  0
 17 19  2  0
 17 18  1  0
M  END
$$$$
