PAC.pdb
     RDKit          3D

 19 19  0  0  1  0  0  0  0  0999 V2000
    7.4592  -15.0879   19.3195 N   0  0  0  0  0  0  0  0  0  0  0  0
    7.8878  -14.2670   18.1889 C   0  0  0  0  0  0  0  0  0  0  0  0
    8.1543  -12.8933   18.7312 C   0  0  0  0  0  0  0  0  0  0  0  0
    8.2061  -13.0915   20.2257 C   0  0  0  0  0  0  0  0  0  0  0  0
    8.3102  -14.6070   20.3838 C   0  0  1  0  0  0  0  0  0  0  0  0
    7.7324  -15.0124   21.6813 C   0  0  0  0  0  0  0  0  0  0  0  0
    6.5320  -14.7184   21.9207 O   0  0  0  0  0  0  0  0  0  0  0  0
    8.1816  -17.3914   24.3841 C   0  0  0  0  0  0  0  0  0  0  0  0
    7.8727  -15.9629   23.9584 C   0  0  2  0  0  0  0  0  0  0  0  0
    8.4830  -15.7212   22.6667 N   0  0  0  0  0  0  0  0  0  0  0  0
    8.3995  -15.0077   24.9753 C   0  0  0  0  0  0  0  0  0  0  0  0
    9.5913  -14.6174   24.8857 O   0  0  0  0  0  0  0  0  0  0  0  0
    7.6159  -14.5168   26.0432 N   0  0  0  0  0  0  0  0  0  0  0  0
    8.1757  -13.5821   26.9913 C   0  0  1  0  0  0  0  0  0  0  0  0
    7.0801  -12.7681   27.6492 C   0  0  0  0  0  0  0  0  0  0  0  0
    5.8264  -12.2442   26.4673 S   0  0  0  0  0  0  0  0  0  0  0  0
    8.8590  -14.3386   28.0567 C   0  0  0  0  0  0  0  0  0  0  0  0
    9.6390  -13.6641   28.9800 O   0  0  0  0  0  0  0  0  0  0  0  0
    8.7773  -15.5867   28.1841 O   0  0  0  0  0  0  0  0  0  0  0  0
  1  2  1  0
  3  2  1  0
  4  3  1  0
  4  5  1  0
  5  1  1  0
  5  6  1  1
  7  6  2  0
  9  8  1  1
  9 10  1  0
  9 11  1  0
 10  6  1  0
 11 13  1  0
 12 11  2  0
 13 14  1  0
 14 15  1  1
 14 17  1  0
 15 16  1  0
 17 19  2  0
 17 18  1  0
M  END
$$$$
