PCI.pdb
     RDKit          3D

 22 22  0  0  1  0  0  0  0  0999 V2000
   20.2481   -9.7889  -16.6739 N   0  0  0  0  0  0  0  0  0  0  0  0
   20.5997  -11.1489  -16.9635 C   0  0  0  0  0  0  0  0  0  0  0  0
   20.0130  -12.0121  -15.8765 C   0  0  0  0  0  0  0  0  0  0  0  0
   19.7708  -11.0053  -14.7702 C   0  0  0  0  0  0  0  0  0  0  0  0
   19.3341   -9.7983  -15.5642 C   0  0  1  0  0  0  0  0  0  0  0  0
   19.4922   -8.5356  -14.8119 C   0  0  0  0  0  0  0  0  0  0  0  0
   18.7820   -8.3299  -13.8003 O   0  0  0  0  0  0  0  0  0  0  0  0
   20.4253   -7.5238  -15.1833 N   0  0  0  0  0  0  0  0  0  0  0  0
   20.5707   -6.2788  -14.4685 C   0  0  1  0  0  0  0  0  0  0  0  0
   22.0803   -6.0462  -14.3189 C   0  0  0  0  0  0  0  0  0  0  0  0
   22.3814   -4.4214  -13.5749 S   0  0  0  0  0  0  0  0  0  0  0  0
   20.0674   -5.1258  -15.2728 C   0  0  0  0  0  0  0  0  0  0  0  0
   20.4450   -4.9703  -16.4613 O   0  0  0  0  0  0  0  0  0  0  0  0
   14.9996   -4.0502  -15.8161 C   0  0  0  0  0  0  0  0  0  0  0  0
   16.4725   -4.1186  -16.0832 C   0  0  0  0  0  0  0  0  0  0  0  0
   17.1471   -2.9510  -15.3966 C   0  0  2  0  0  0  0  0  0  0  0  0
   16.7042   -1.6302  -15.9508 C   0  0  0  0  0  0  0  0  0  0  0  0
   18.6561   -3.0476  -15.4978 C   0  0  2  0  0  0  0  0  0  0  0  0
   19.1592   -4.1766  -14.7376 N   0  0  0  0  0  0  0  0  0  0  0  0
   19.2865   -1.8230  -14.9761 C   0  0  0  0  0  0  0  0  0  0  0  0
   19.4840   -1.6947  -13.7498 O   0  0  0  0  0  0  0  0  0  0  0  0
   19.6562   -0.8251  -15.8341 O   0  0  0  0  0  0  0  0  0  0  0  0
  2  1  1  0
  3  2  1  0
  4  3  1  0
  4  5  1  0
  5  1  1  0
  5  6  1  1
  6  8  1  0
  7  6  2  0
  9  8  1  0
  9 12  1  0
  9 10  1  6
 11 10  1  0
 12 19  1  0
 13 12  2  0
 15 14  1  0
 16 17  1  6
 16 15  1  0
 18 16  1  0
 18 19  1  1
 20 18  1  0
 20 22  1  0
 21 20  2  0
M  END
$$$$
