PCI.pdb
     RDKit          3D

 22 22  0  0  1  0  0  0  0  0999 V2000
   28.7515  -21.5731  -17.4632 N   0  0  0  0  0  0  0  0  0  0  0  0
   29.8713  -22.3156  -17.9652 C   0  0  0  0  0  0  0  0  0  0  0  0
   30.2331  -23.3490  -16.9298 C   0  0  0  0  0  0  0  0  0  0  0  0
   29.5777  -22.7898  -15.6831 C   0  0  0  0  0  0  0  0  0  0  0  0
   28.3058  -22.2132  -16.2556 C   0  0  1  0  0  0  0  0  0  0  0  0
   27.6989  -21.1916  -15.3762 C   0  0  0  0  0  0  0  0  0  0  0  0
   28.1802  -20.0348  -15.3548 O   0  0  0  0  0  0  0  0  0  0  0  0
   26.5771  -21.4580  -14.5380 N   0  0  0  0  0  0  0  0  0  0  0  0
   26.0306  -20.4932  -13.6146 C   0  0  1  0  0  0  0  0  0  0  0  0
   24.6762  -20.0652  -14.1961 C   0  0  0  0  0  0  0  0  0  0  0  0
   24.8953  -18.6177  -15.2641 S   0  0  0  0  0  0  0  0  0  0  0  0
   25.7184  -21.1172  -12.2945 C   0  0  0  0  0  0  0  0  0  0  0  0
   25.1811  -22.2520  -12.2420 O   0  0  0  0  0  0  0  0  0  0  0  0
   28.2939  -19.3414   -7.6802 C   0  0  0  0  0  0  0  0  0  0  0  0
   27.7203  -20.3101   -8.6692 C   0  0  0  0  0  0  0  0  0  0  0  0
   26.2117  -20.1951   -8.6455 C   0  0  2  0  0  0  0  0  0  0  0  0
   25.6247  -20.6597   -7.3466 C   0  0  0  0  0  0  0  0  0  0  0  0
   25.5803  -20.9766   -9.7801 C   0  0  2  0  0  0  0  0  0  0  0  0
   26.0103  -20.4661  -11.0685 N   0  0  0  0  0  0  0  0  0  0  0  0
   24.1119  -20.8839   -9.7143 C   0  0  0  0  0  0  0  0  0  0  0  0
   23.5215  -19.9198  -10.2447 O   0  0  0  0  0  0  0  0  0  0  0  0
   23.3933  -21.8536   -9.0724 O   0  0  0  0  0  0  0  0  0  0  0  0
  2  1  1  0
  3  2  1  0
  4  3  1  0
  4  5  1  0
  5  1  1  0
  5  6  1  1
  6  8  1  0
  7  6  2  0
  9  8  1  0
  9 12  1  0
  9 10  1  6
 11 10  1  0
 12 19  1  0
 13 12  2  0
 15 14  1  0
 16 17  1  1
 16 15  1  0
 18 16  1  0
 18 19  1  6
 20 18  1  0
 20 22  1  0
 21 20  2  0
M  END
$$$$
