PCI.pdb
     RDKit          3D

 22 22  0  0  1  0  0  0  0  0999 V2000
   26.1246  -22.4379  -14.1687 N   0  0  0  0  0  0  0  0  0  0  0  0
   25.6459  -22.8772  -15.4474 C   0  0  0  0  0  0  0  0  0  0  0  0
   25.7331  -21.7068  -16.3927 C   0  0  0  0  0  0  0  0  0  0  0  0
   25.8099  -20.5337  -15.4363 C   0  0  0  0  0  0  0  0  0  0  0  0
   26.6588  -21.1131  -14.3311 C   0  0  1  0  0  0  0  0  0  0  0  0
   26.5060  -20.3829  -13.0549 C   0  0  0  0  0  0  0  0  0  0  0  0
   26.8941  -19.1940  -12.9768 O   0  0  0  0  0  0  0  0  0  0  0  0
   25.9310  -20.9700  -11.8901 N   0  0  0  0  0  0  0  0  0  0  0  0
   25.4860  -20.2019  -10.7525 C   0  0  1  0  0  0  0  0  0  0  0  0
   23.9595  -20.3549  -10.7047 C   0  0  0  0  0  0  0  0  0  0  0  0
   23.3046  -19.5293   -9.2305 S   0  0  0  0  0  0  0  0  0  0  0  0
   25.9853  -20.7845   -9.4716 C   0  0  0  0  0  0  0  0  0  0  0  0
   25.8471  -22.0115   -9.2379 O   0  0  0  0  0  0  0  0  0  0  0  0
   29.6980  -19.2207   -4.7565 C   0  0  0  0  0  0  0  0  0  0  0  0
   28.7284  -20.1991   -5.3463 C   0  0  0  0  0  0  0  0  0  0  0  0
   28.1034  -19.5832   -6.5791 C   0  0  2  0  0  0  0  0  0  0  0  0
   27.4066  -18.2899   -6.2795 C   0  0  0  0  0  0  0  0  0  0  0  0
   27.1206  -20.5332   -7.2335 C   0  0  2  0  0  0  0  0  0  0  0  0
   26.6242  -19.9910   -8.4845 N   0  0  0  0  0  0  0  0  0  0  0  0
   25.9697  -20.7745   -6.3467 C   0  0  0  0  0  0  0  0  0  0  0  0
   24.8648  -20.2501   -6.5990 O   0  0  0  0  0  0  0  0  0  0  0  0
   26.1096  -21.5733   -5.2463 O   0  0  0  0  0  0  0  0  0  0  0  0
  2  1  1  0
  3  2  1  0
  4  3  1  0
  4  5  1  0
  5  1  1  0
  5  6  1  1
  6  8  1  0
  7  6  2  0
  9  8  1  0
  9 12  1  0
  9 10  1  1
 11 10  1  0
 12 19  1  0
 13 12  2  0
 15 14  1  0
 16 17  1  1
 16 15  1  0
 18 16  1  0
 18 19  1  6
 20 18  1  0
 20 22  1  0
 21 20  2  0
M  END
$$$$
