PCI.pdb
     RDKit          3D

 22 22  0  0  1  0  0  0  0  0999 V2000
   23.2974  -20.6716  -15.8516 N   0  0  0  0  0  0  0  0  0  0  0  0
   22.2202  -19.8585  -16.3370 C   0  0  0  0  0  0  0  0  0  0  0  0
   22.4244  -18.4651  -15.8007 C   0  0  0  0  0  0  0  0  0  0  0  0
   23.3629  -18.7094  -14.6363 C   0  0  0  0  0  0  0  0  0  0  0  0
   24.2375  -19.8071  -15.1915 C   0  0  1  0  0  0  0  0  0  0  0  0
   24.9239  -20.5771  -14.1327 C   0  0  0  0  0  0  0  0  0  0  0  0
   24.2576  -21.3484  -13.4037 O   0  0  0  0  0  0  0  0  0  0  0  0
   26.3264  -20.4865  -13.8940 N   0  0  0  0  0  0  0  0  0  0  0  0
   26.9729  -21.0636  -12.7402 C   0  0  1  0  0  0  0  0  0  0  0  0
   28.4816  -20.8975  -12.9686 C   0  0  0  0  0  0  0  0  0  0  0  0
   29.3976  -21.6520  -11.5992 S   0  0  0  0  0  0  0  0  0  0  0  0
   26.6698  -20.2890  -11.5003 C   0  0  0  0  0  0  0  0  0  0  0  0
   26.5665  -19.0373  -11.5452 O   0  0  0  0  0  0  0  0  0  0  0  0
   22.6808  -21.0121   -8.1373 C   0  0  0  0  0  0  0  0  0  0  0  0
   23.8031  -20.3914   -8.9124 C   0  0  0  0  0  0  0  0  0  0  0  0
   25.1115  -20.7304   -8.2319 C   0  0  2  0  0  0  0  0  0  0  0  0
   25.1729  -20.2151   -6.8253 C   0  0  0  0  0  0  0  0  0  0  0  0
   26.2946  -20.1881   -9.0082 C   0  0  2  0  0  0  0  0  0  0  0  0
   26.4892  -20.9229  -10.2442 N   0  0  0  0  0  0  0  0  0  0  0  0
   27.5273  -20.2952   -8.2093 C   0  0  0  0  0  0  0  0  0  0  0  0
   27.7479  -19.4822   -7.2875 O   0  0  0  0  0  0  0  0  0  0  0  0
   28.4315  -21.2852   -8.4759 O   0  0  0  0  0  0  0  0  0  0  0  0
  2  1  1  0
  3  2  1  0
  4  3  1  0
  4  5  1  0
  5  1  1  0
  5  6  1  1
  6  8  1  0
  7  6  2  0
  9  8  1  0
  9 12  1  0
  9 10  1  6
 11 10  1  0
 12 19  1  0
 13 12  2  0
 15 14  1  0
 16 17  1  1
 16 15  1  0
 18 16  1  0
 18 19  1  6
 20 18  1  0
 20 22  1  0
 21 20  2  0
M  END
$$$$
