PCI.pdb
     RDKit          3D

 22 22  0  0  1  0  0  0  0  0999 V2000
   23.0660  -18.1007  -15.4852 N   0  0  0  0  0  0  0  0  0  0  0  0
   23.1213  -17.7520  -16.8754 C   0  0  0  0  0  0  0  0  0  0  0  0
   22.1776  -18.6671  -17.6121 C   0  0  0  0  0  0  0  0  0  0  0  0
   22.0111  -19.8074  -16.6280 C   0  0  0  0  0  0  0  0  0  0  0  0
   22.0111  -19.0626  -15.3153 C   0  0  1  0  0  0  0  0  0  0  0  0
   22.3462  -19.9328  -14.1683 C   0  0  0  0  0  0  0  0  0  0  0  0
   21.5613  -20.8550  -13.8466 O   0  0  0  0  0  0  0  0  0  0  0  0
   23.5346  -19.7750  -13.3969 N   0  0  0  0  0  0  0  0  0  0  0  0
   24.0618  -20.8040  -12.5336 C   0  0  1  0  0  0  0  0  0  0  0  0
   24.4554  -21.9702  -13.4505 C   0  0  0  0  0  0  0  0  0  0  0  0
   25.3342  -23.2344  -12.4948 S   0  0  0  0  0  0  0  0  0  0  0  0
   25.3296  -20.3683  -11.8762 C   0  0  0  0  0  0  0  0  0  0  0  0
   26.2293  -19.8037  -12.5478 O   0  0  0  0  0  0  0  0  0  0  0  0
   27.6823  -18.6087   -6.8146 C   0  0  0  0  0  0  0  0  0  0  0  0
   27.9530  -19.8227   -7.6502 C   0  0  0  0  0  0  0  0  0  0  0  0
   26.6692  -20.2401   -8.3339 C   0  0  2  0  0  0  0  0  0  0  0  0
   26.2152  -21.6047   -7.9104 C   0  0  0  0  0  0  0  0  0  0  0  0
   26.8131  -20.2139   -9.8423 C   0  0  2  0  0  0  0  0  0  0  0  0
   25.5656  -20.5703  -10.4921 N   0  0  0  0  0  0  0  0  0  0  0  0
   27.8482  -21.1670  -10.2773 C   0  0  0  0  0  0  0  0  0  0  0  0
   27.6541  -22.3955  -10.1655 O   0  0  0  0  0  0  0  0  0  0  0  0
   29.0230  -20.7078  -10.8043 O   0  0  0  0  0  0  0  0  0  0  0  0
  2  1  1  0
  3  2  1  0
  4  3  1  0
  4  5  1  0
  5  1  1  0
  5  6  1  1
  6  8  1  0
  7  6  2  0
  9  8  1  0
  9 12  1  0
  9 10  1  6
 11 10  1  0
 12 19  1  0
 13 12  2  0
 15 14  1  0
 16 17  1  1
 16 15  1  0
 18 16  1  0
 18 19  1  6
 20 18  1  0
 20 22  1  0
 21 20  2  0
M  END
$$$$
