PCI.pdb
     RDKit          3D

 22 22  0  0  1  0  0  0  0  0999 V2000
   19.6446  -10.3856  -16.4760 N   0  0  0  0  0  0  0  0  0  0  0  0
   19.9437  -11.7648  -16.7324 C   0  0  0  0  0  0  0  0  0  0  0  0
   19.3710  -12.5735  -15.5972 C   0  0  0  0  0  0  0  0  0  0  0  0
   19.2002  -11.5244  -14.5171 C   0  0  0  0  0  0  0  0  0  0  0  0
   18.7719  -10.3303  -15.3349 C   0  0  1  0  0  0  0  0  0  0  0  0
   18.9959   -9.0497  -14.6311 C   0  0  0  0  0  0  0  0  0  0  0  0
   18.3553   -8.8045  -13.5826 O   0  0  0  0  0  0  0  0  0  0  0  0
   19.9174   -8.0638  -15.0905 N   0  0  0  0  0  0  0  0  0  0  0  0
   20.1155   -6.7956  -14.4312 C   0  0  1  0  0  0  0  0  0  0  0  0
   21.6326   -6.5664  -14.3935 C   0  0  0  0  0  0  0  0  0  0  0  0
   21.9892   -4.9182  -13.7300 S   0  0  0  0  0  0  0  0  0  0  0  0
   19.5619   -5.6683  -15.2388 C   0  0  0  0  0  0  0  0  0  0  0  0
   19.8647   -5.5509  -16.4528 O   0  0  0  0  0  0  0  0  0  0  0  0
   14.3701   -4.4674  -14.9014 C   0  0  0  0  0  0  0  0  0  0  0  0
   15.8002   -4.2292  -14.5228 C   0  0  0  0  0  0  0  0  0  0  0  0
   16.6117   -4.0295  -15.7843 C   0  0  2  0  0  0  0  0  0  0  0  0
   16.6007   -5.2412  -16.6671 C   0  0  0  0  0  0  0  0  0  0  0  0
   18.0475   -3.6642  -15.4654 C   0  0  2  0  0  0  0  0  0  0  0  0
   18.6878   -4.7017  -14.6785 N   0  0  0  0  0  0  0  0  0  0  0  0
   18.1010   -2.4065  -14.7007 C   0  0  0  0  0  0  0  0  0  0  0  0
   18.4871   -2.4124  -13.5132 O   0  0  0  0  0  0  0  0  0  0  0  0
   17.7282   -1.2310  -15.2904 O   0  0  0  0  0  0  0  0  0  0  0  0
  2  1  1  0
  3  2  1  0
  4  3  1  0
  4  5  1  0
  5  1  1  0
  5  6  1  1
  6  8  1  0
  7  6  2  0
  9  8  1  0
  9 12  1  0
  9 10  1  6
 11 10  1  0
 12 19  1  0
 13 12  2  0
 15 14  1  0
 16 17  1  1
 16 15  1  0
 18 16  1  0
 18 19  1  1
 20 18  1  0
 20 22  1  0
 21 20  2  0
M  END
$$$$
