PMI.pdb
     RDKit          3D

 24 24  0  0  1  0  0  0  0  0999 V2000
   28.3117  -20.6460  -16.0264 N   0  0  0  0  0  0  0  0  0  0  0  0
   29.0630  -19.6158  -16.7202 C   0  0  0  0  0  0  0  0  0  0  0  0
   28.4230  -18.3092  -16.3028 C   0  0  0  0  0  0  0  0  0  0  0  0
   27.4258  -18.7017  -15.2049 C   0  0  0  0  0  0  0  0  0  0  0  0
   28.0282  -20.0236  -14.7692 C   0  0  1  0  0  0  0  0  0  0  0  0
   27.1396  -20.7978  -13.9031 C   0  0  0  0  0  0  0  0  0  0  0  0
   26.3472  -21.6238  -14.4203 O   0  0  0  0  0  0  0  0  0  0  0  0
   27.4317  -19.7931   -7.5007 C   0  0  0  0  0  0  0  0  0  0  0  0
   25.8941  -20.7273   -7.5662 S   0  0  0  0  0  0  0  0  0  0  0  0
   25.3662  -21.0190   -9.2441 C   0  0  0  0  0  0  0  0  0  0  0  0
   26.4505  -20.7572  -10.2283 C   0  0  0  0  0  0  0  0  0  0  0  0
   25.9811  -20.9710  -11.6710 C   0  0  2  0  0  0  0  0  0  0  0  0
   27.1312  -20.6577  -12.4943 N   0  0  0  0  0  0  0  0  0  0  0  0
   24.7688  -20.2599  -12.0305 C   0  0  0  0  0  0  0  0  0  0  0  0
   24.7630  -19.0059  -12.1416 O   0  0  0  0  0  0  0  0  0  0  0  0
   20.6072  -20.4914  -16.1452 C   0  0  0  0  0  0  0  0  0  0  0  0
   20.8556  -20.1955  -14.6966 C   0  0  0  0  0  0  0  0  0  0  0  0
   22.1057  -20.7970  -14.1365 C   0  0  2  0  0  0  0  0  0  0  0  0
   22.0868  -22.3096  -14.1808 C   0  0  0  0  0  0  0  0  0  0  0  0
   22.3490  -20.3923  -12.6648 C   0  0  2  0  0  0  0  0  0  0  0  0
   23.5807  -20.9996  -12.2656 N   0  0  0  0  0  0  0  0  0  0  0  0
   21.1969  -20.8938  -11.8553 C   0  0  0  0  0  0  0  0  0  0  0  0
   20.1222  -20.0611  -11.6466 O   0  0  0  0  0  0  0  0  0  0  0  0
   21.1918  -22.0379  -11.3690 O   0  0  0  0  0  0  0  0  0  0  0  0
  1  5  1  0
  1  2  1  0
  2  3  1  0
  4  3  1  0
  5  4  1  0
  6 13  1  0
  5  6  1  1
  7  6  2  0
  8  9  1  0
  9 10  1  0
 10 11  1  0
 12 11  1  1
 12 13  1  0
 14 15  2  0
 14 12  1  0
 16 17  1  0
 17 18  1  0
 18 20  1  0
 18 19  1  1
 20 22  1  0
 20 21  1  1
 21 14  1  0
 22 23  1  0
 24 22  2  0
M  END
$$$$
