PMI.pdb
     RDKit          3D

 24 24  0  0  1  0  0  0  0  0999 V2000
   14.9226  -23.5760   -7.3252 N   0  0  0  0  0  0  0  0  0  0  0  0
   14.5572  -23.2604   -8.6942 C   0  0  0  0  0  0  0  0  0  0  0  0
   13.0620  -23.4847   -8.7672 C   0  0  0  0  0  0  0  0  0  0  0  0
   12.6398  -23.7450   -7.3154 C   0  0  0  0  0  0  0  0  0  0  0  0
   13.7971  -23.0881   -6.5879 C   0  0  1  0  0  0  0  0  0  0  0  0
   13.8298  -23.4083   -5.1612 C   0  0  0  0  0  0  0  0  0  0  0  0
   12.8978  -23.0056   -4.4217 O   0  0  0  0  0  0  0  0  0  0  0  0
   18.7647  -27.0013   -2.6647 C   0  0  0  0  0  0  0  0  0  0  0  0
   17.4305  -27.2896   -1.4908 S   0  0  0  0  0  0  0  0  0  0  0  0
   16.1360  -26.0733   -1.6461 C   0  0  0  0  0  0  0  0  0  0  0  0
   16.0293  -25.5393   -3.0304 C   0  0  0  0  0  0  0  0  0  0  0  0
   14.9038  -24.5083   -3.1636 C   0  0  2  0  0  0  0  0  0  0  0  0
   14.8741  -24.1588   -4.5691 N   0  0  0  0  0  0  0  0  0  0  0  0
   15.0026  -23.3766   -2.2613 C   0  0  0  0  0  0  0  0  0  0  0  0
   15.7619  -22.4065   -2.5208 O   0  0  0  0  0  0  0  0  0  0  0  0
   10.7519  -20.9237   -0.6448 C   0  0  0  0  0  0  0  0  0  0  0  0
   12.1581  -21.3660   -0.9182 C   0  0  0  0  0  0  0  0  0  0  0  0
   12.8889  -21.9100    0.2684 C   0  0  2  0  0  0  0  0  0  0  0  0
   12.9950  -20.9012    1.3916 C   0  0  0  0  0  0  0  0  0  0  0  0
   14.3287  -22.3541   -0.0760 C   0  0  2  0  0  0  0  0  0  0  0  0
   14.2215  -23.3703   -1.0765 N   0  0  0  0  0  0  0  0  0  0  0  0
   14.9594  -22.8740    1.1754 C   0  0  0  0  0  0  0  0  0  0  0  0
   15.7536  -22.0301    1.9164 O   0  0  0  0  0  0  0  0  0  0  0  0
   14.7839  -24.0446    1.5553 O   0  0  0  0  0  0  0  0  0  0  0  0
  1  5  1  0
  1  2  1  0
  2  3  1  0
  4  3  1  0
  5  4  1  0
  6 13  1  0
  5  6  1  1
  7  6  2  0
  8  9  1  0
  9 10  1  0
 10 11  1  0
 12 11  1  6
 12 13  1  0
 14 15  2  0
 14 12  1  0
 16 17  1  0
 17 18  1  0
 18 20  1  0
 18 19  1  1
 20 22  1  0
 20 21  1  6
 21 14  1  0
 22 23  1  0
 24 22  2  0
M  END
$$$$
