PMI.pdb
     RDKit          3D

 24 24  0  0  1  0  0  0  0  0999 V2000
   26.9252  -22.2383  -14.8580 N   0  0  0  0  0  0  0  0  0  0  0  0
   26.9338  -22.7326  -16.2228 C   0  0  0  0  0  0  0  0  0  0  0  0
   26.0893  -21.7502  -17.0056 C   0  0  0  0  0  0  0  0  0  0  0  0
   25.8028  -20.6136  -16.0156 C   0  0  0  0  0  0  0  0  0  0  0  0
   26.9507  -20.8198  -15.0462 C   0  0  1  0  0  0  0  0  0  0  0  0
   26.8016  -20.0480  -13.8128 C   0  0  0  0  0  0  0  0  0  0  0  0
   26.7020  -18.7977  -13.8810 O   0  0  0  0  0  0  0  0  0  0  0  0
   21.8024  -20.9022  -13.4655 C   0  0  0  0  0  0  0  0  0  0  0  0
   21.7561  -20.4458  -11.7246 S   0  0  0  0  0  0  0  0  0  0  0  0
   23.3863  -20.1166  -11.0817 C   0  0  0  0  0  0  0  0  0  0  0  0
   24.4528  -20.4087  -12.0767 C   0  0  0  0  0  0  0  0  0  0  0  0
   25.8550  -20.2350  -11.4841 C   0  0  2  0  0  0  0  0  0  0  0  0
   26.7639  -20.6512  -12.5325 N   0  0  0  0  0  0  0  0  0  0  0  0
   26.0639  -20.8914  -10.2074 C   0  0  0  0  0  0  0  0  0  0  0  0
   25.8901  -22.1319  -10.0814 O   0  0  0  0  0  0  0  0  0  0  0  0
   29.2198  -19.3672   -5.0855 C   0  0  0  0  0  0  0  0  0  0  0  0
   28.2056  -20.2258   -5.7798 C   0  0  0  0  0  0  0  0  0  0  0  0
   27.7578  -19.7175   -7.1137 C   0  0  2  0  0  0  0  0  0  0  0  0
   27.0663  -18.3749   -7.0156 C   0  0  0  0  0  0  0  0  0  0  0  0
   26.7732  -20.6814   -7.8140 C   0  0  2  0  0  0  0  0  0  0  0  0
   26.4777  -20.1153   -9.0936 N   0  0  0  0  0  0  0  0  0  0  0  0
   25.5510  -20.7877   -6.9603 C   0  0  0  0  0  0  0  0  0  0  0  0
   25.5837  -21.6077   -5.8564 O   0  0  0  0  0  0  0  0  0  0  0  0
   24.5134  -20.1571   -7.2272 O   0  0  0  0  0  0  0  0  0  0  0  0
  1  5  1  0
  1  2  1  0
  2  3  1  0
  4  3  1  0
  5  4  1  0
  6 13  1  0
  5  6  1  1
  7  6  2  0
  8  9  1  0
  9 10  1  0
 10 11  1  0
 12 11  1  6
 12 13  1  0
 14 15  2  0
 14 12  1  0
 16 17  1  0
 17 18  1  0
 18 20  1  0
 18 19  1  1
 20 22  1  0
 20 21  1  6
 21 14  1  0
 22 23  1  0
 24 22  2  0
M  END
$$$$
