PMI.pdb
     RDKit          3D

 24 24  0  0  1  0  0  0  0  0999 V2000
   27.2539  -21.0566  -14.6156 N   0  0  0  0  0  0  0  0  0  0  0  0
   28.0073  -21.0292  -15.8561 C   0  0  0  0  0  0  0  0  0  0  0  0
   28.4438  -19.5895  -16.0231 C   0  0  0  0  0  0  0  0  0  0  0  0
   28.0442  -18.9102  -14.7067 C   0  0  0  0  0  0  0  0  0  0  0  0
   27.9720  -20.1245  -13.8009 C   0  0  1  0  0  0  0  0  0  0  0  0
   27.3382  -19.8395  -12.5140 C   0  0  0  0  0  0  0  0  0  0  0  0
   27.8463  -18.9733  -11.7596 O   0  0  0  0  0  0  0  0  0  0  0  0
   20.9631  -20.6975  -11.3882 C   0  0  0  0  0  0  0  0  0  0  0  0
   21.7804  -19.6959  -12.6413 S   0  0  0  0  0  0  0  0  0  0  0  0
   23.5164  -19.4848  -12.2933 C   0  0  0  0  0  0  0  0  0  0  0  0
   23.9776  -20.3597  -11.1821 C   0  0  0  0  0  0  0  0  0  0  0  0
   25.4605  -20.1469  -10.8606 C   0  0  2  0  0  0  0  0  0  0  0  0
   26.1663  -20.5016  -12.0749 N   0  0  0  0  0  0  0  0  0  0  0  0
   25.9303  -20.8262   -9.6680 C   0  0  0  0  0  0  0  0  0  0  0  0
   26.2601  -22.0407   -9.7026 O   0  0  0  0  0  0  0  0  0  0  0  0
   28.9483  -17.9812   -6.2150 C   0  0  0  0  0  0  0  0  0  0  0  0
   28.2875  -19.0984   -6.9655 C   0  0  0  0  0  0  0  0  0  0  0  0
   27.0342  -19.6227   -6.3392 C   0  0  2  0  0  0  0  0  0  0  0  0
   27.2830  -20.2329   -4.9767 C   0  0  0  0  0  0  0  0  0  0  0  0
   26.3514  -20.7086   -7.2014 C   0  0  2  0  0  0  0  0  0  0  0  0
   26.0229  -20.0992   -8.4528 N   0  0  0  0  0  0  0  0  0  0  0  0
   25.1304  -21.1707   -6.4736 C   0  0  0  0  0  0  0  0  0  0  0  0
   23.9072  -20.6609   -6.8423 O   0  0  0  0  0  0  0  0  0  0  0  0
   25.1981  -21.9977   -5.5479 O   0  0  0  0  0  0  0  0  0  0  0  0
  1  5  1  0
  1  2  1  0
  2  3  1  0
  4  3  1  0
  5  4  1  0
  6 13  1  0
  5  6  1  1
  7  6  2  0
  8  9  1  0
  9 10  1  0
 10 11  1  0
 12 11  1  6
 12 13  1  0
 14 15  2  0
 14 12  1  0
 16 17  1  0
 17 18  1  0
 18 20  1  0
 18 19  1  1
 20 22  1  0
 20 21  1  6
 21 14  1  0
 22 23  1  0
 24 22  2  0
M  END
$$$$
