PMI.pdb
     RDKit          3D

 24 24  0  0  1  0  0  0  0  0999 V2000
   22.1719  -30.9371  -13.2283 N   0  0  0  0  0  0  0  0  0  0  0  0
   21.3083  -30.5859  -14.3410 C   0  0  0  0  0  0  0  0  0  0  0  0
   20.8536  -31.9074  -14.9224 C   0  0  0  0  0  0  0  0  0  0  0  0
   21.3696  -32.9614  -13.9342 C   0  0  0  0  0  0  0  0  0  0  0  0
   21.5283  -32.0994  -12.6965 C   0  0  1  0  0  0  0  0  0  0  0  0
   22.2761  -32.7645  -11.6300 C   0  0  0  0  0  0  0  0  0  0  0  0
   21.6494  -33.4073  -10.7514 O   0  0  0  0  0  0  0  0  0  0  0  0
   28.0556  -34.8901  -13.0494 C   0  0  0  0  0  0  0  0  0  0  0  0
   28.1836  -35.0670  -11.2623 S   0  0  0  0  0  0  0  0  0  0  0  0
   26.6474  -34.6769  -10.4455 C   0  0  0  0  0  0  0  0  0  0  0  0
   25.7785  -33.7968  -11.2722 C   0  0  0  0  0  0  0  0  0  0  0  0
   24.4505  -33.4824  -10.5759 C   0  0  2  0  0  0  0  0  0  0  0  0
   23.6883  -32.7168  -11.5411 N   0  0  0  0  0  0  0  0  0  0  0  0
   24.5772  -32.8572   -9.2730 C   0  0  0  0  0  0  0  0  0  0  0  0
   24.8523  -31.6333   -9.1665 O   0  0  0  0  0  0  0  0  0  0  0  0
   20.6763  -33.3907   -5.9696 C   0  0  0  0  0  0  0  0  0  0  0  0
   21.9550  -32.9563   -6.6208 C   0  0  0  0  0  0  0  0  0  0  0  0
   23.1949  -33.5528   -6.0334 C   0  0  2  0  0  0  0  0  0  0  0  0
   23.3842  -33.1728   -4.5807 C   0  0  0  0  0  0  0  0  0  0  0  0
   24.4740  -33.1166   -6.7835 C   0  0  2  0  0  0  0  0  0  0  0  0
   24.3781  -33.6446   -8.1092 N   0  0  0  0  0  0  0  0  0  0  0  0
   25.6492  -33.6762   -6.0488 C   0  0  0  0  0  0  0  0  0  0  0  0
   26.1216  -34.9184   -6.4036 O   0  0  0  0  0  0  0  0  0  0  0  0
   26.2020  -33.0477   -5.1297 O   0  0  0  0  0  0  0  0  0  0  0  0
  1  5  1  0
  1  2  1  0
  2  3  1  0
  4  3  1  0
  5  4  1  0
  6 13  1  0
  5  6  1  1
  7  6  2  0
  8  9  1  0
  9 10  1  0
 10 11  1  0
 12 11  1  6
 12 13  1  0
 14 15  2  0
 14 12  1  0
 16 17  1  0
 17 18  1  0
 18 20  1  0
 18 19  1  1
 20 22  1  0
 20 21  1  6
 21 14  1  0
 22 23  1  0
 24 22  2  0
M  END
$$$$
