PMI.pdb
     RDKit          3D

 24 24  0  0  1  0  0  0  0  0999 V2000
   27.4660  -21.1246  -15.0045 N   0  0  0  0  0  0  0  0  0  0  0  0
   28.1496  -21.0377  -16.2821 C   0  0  0  0  0  0  0  0  0  0  0  0
   28.3053  -19.5558  -16.5484 C   0  0  0  0  0  0  0  0  0  0  0  0
   27.8415  -18.8801  -15.2514 C   0  0  0  0  0  0  0  0  0  0  0  0
   28.0323  -20.0285  -14.2793 C   0  0  1  0  0  0  0  0  0  0  0  0
   27.4101  -19.7841  -12.9784 C   0  0  0  0  0  0  0  0  0  0  0  0
   27.8335  -18.8413  -12.2645 O   0  0  0  0  0  0  0  0  0  0  0  0
   21.3039  -20.6839  -12.8298 C   0  0  0  0  0  0  0  0  0  0  0  0
   21.4646  -20.1369  -11.1221 S   0  0  0  0  0  0  0  0  0  0  0  0
   23.1722  -19.9803  -10.6336 C   0  0  0  0  0  0  0  0  0  0  0  0
   24.1070  -20.3576  -11.7277 C   0  0  0  0  0  0  0  0  0  0  0  0
   25.5730  -20.2130  -11.3066 C   0  0  2  0  0  0  0  0  0  0  0  0
   26.3418  -20.5692  -12.4815 N   0  0  0  0  0  0  0  0  0  0  0  0
   25.9370  -20.9374  -10.1036 C   0  0  0  0  0  0  0  0  0  0  0  0
   26.1441  -22.1788  -10.1335 O   0  0  0  0  0  0  0  0  0  0  0  0
   29.0272  -18.2802   -6.5061 C   0  0  0  0  0  0  0  0  0  0  0  0
   28.3335  -19.3413   -7.3067 C   0  0  0  0  0  0  0  0  0  0  0  0
   27.0331  -19.8115   -6.7357 C   0  0  2  0  0  0  0  0  0  0  0  0
   27.1978  -20.4383   -5.3681 C   0  0  0  0  0  0  0  0  0  0  0  0
   26.3386  -20.8617   -7.6321 C   0  0  2  0  0  0  0  0  0  0  0  0
   26.0663  -20.2247   -8.8832 N   0  0  0  0  0  0  0  0  0  0  0  0
   25.0827  -21.2916   -6.9451 C   0  0  0  0  0  0  0  0  0  0  0  0
   25.1433  -22.3271   -6.0418 O   0  0  0  0  0  0  0  0  0  0  0  0
   23.9932  -20.7382   -7.1738 O   0  0  0  0  0  0  0  0  0  0  0  0
  1  5  1  0
  1  2  1  0
  2  3  1  0
  4  3  1  0
  5  4  1  0
  6 13  1  0
  5  6  1  1
  7  6  2  0
  8  9  1  0
  9 10  1  0
 10 11  1  0
 12 11  1  6
 12 13  1  0
 14 15  2  0
 14 12  1  0
 16 17  1  0
 17 18  1  0
 18 20  1  0
 18 19  1  1
 20 22  1  0
 20 21  1  6
 21 14  1  0
 22 23  1  0
 24 22  2  0
M  END
$$$$
