PMI.pdb
     RDKit          3D

 24 24  0  0  1  0  0  0  0  0999 V2000
   27.4065  -21.0688  -14.2454 N   0  0  0  0  0  0  0  0  0  0  0  0
   28.1173  -21.0274  -15.5104 C   0  0  0  0  0  0  0  0  0  0  0  0
   28.3828  -19.5596  -15.7680 C   0  0  0  0  0  0  0  0  0  0  0  0
   27.9452  -18.8561  -14.4767 C   0  0  0  0  0  0  0  0  0  0  0  0
   28.0364  -20.0178  -13.5060 C   0  0  1  0  0  0  0  0  0  0  0  0
   27.4101  -19.7333  -12.2153 C   0  0  0  0  0  0  0  0  0  0  0  0
   27.8508  -18.7876  -11.5159 O   0  0  0  0  0  0  0  0  0  0  0  0
   21.2296  -20.3844  -11.7935 C   0  0  0  0  0  0  0  0  0  0  0  0
   21.5317  -20.2342  -10.0250 S   0  0  0  0  0  0  0  0  0  0  0  0
   23.2587  -19.9733   -9.6670 C   0  0  0  0  0  0  0  0  0  0  0  0
   24.1317  -20.3289  -10.8179 C   0  0  0  0  0  0  0  0  0  0  0  0
   25.6171  -20.1431  -10.4915 C   0  0  2  0  0  0  0  0  0  0  0  0
   26.3188  -20.4823  -11.7126 N   0  0  0  0  0  0  0  0  0  0  0  0
   26.0768  -20.8534   -9.3131 C   0  0  0  0  0  0  0  0  0  0  0  0
   26.3499  -22.0813   -9.3631 O   0  0  0  0  0  0  0  0  0  0  0  0
   29.1432  -18.0387   -5.7322 C   0  0  0  0  0  0  0  0  0  0  0  0
   28.5244  -19.1532   -6.5213 C   0  0  0  0  0  0  0  0  0  0  0  0
   27.2288  -19.6662   -5.9769 C   0  0  2  0  0  0  0  0  0  0  0  0
   27.3789  -20.2522   -4.5897 C   0  0  0  0  0  0  0  0  0  0  0  0
   26.6077  -20.7671   -6.8664 C   0  0  2  0  0  0  0  0  0  0  0  0
   26.2246  -20.1417   -8.0941 N   0  0  0  0  0  0  0  0  0  0  0  0
   25.4288  -21.3311   -6.1412 C   0  0  0  0  0  0  0  0  0  0  0  0
   24.1970  -20.7474   -6.3253 O   0  0  0  0  0  0  0  0  0  0  0  0
   25.5388  -22.3073   -5.3794 O   0  0  0  0  0  0  0  0  0  0  0  0
  1  5  1  0
  1  2  1  0
  2  3  1  0
  4  3  1  0
  5  4  1  0
  6 13  1  0
  5  6  1  1
  7  6  2  0
  8  9  1  0
  9 10  1  0
 10 11  1  0
 12 11  1  6
 12 13  1  0
 14 15  2  0
 14 12  1  0
 16 17  1  0
 17 18  1  0
 18 20  1  0
 18 19  1  1
 20 22  1  0
 20 21  1  6
 21 14  1  0
 22 23  1  0
 24 22  2  0
M  END
$$$$
