CHR.pdb
     RDKit          3D

 28 28  0  0  1  0  0  0  0  0999 V2000
    9.6076  -17.8292   17.6488 N   0  0  0  0  0  0  0  0  0  0  0  0
    8.8433  -17.3143   18.7616 C   0  0  1  0  0  0  0  0  0  0  0  0
    7.4505  -17.9270   18.7977 C   0  0  0  0  0  0  0  0  0  0  0  0
    7.3605  -19.3538   19.8910 S   0  0  0  0  0  0  0  0  0  0  0  0
    9.5539  -17.5225   20.0583 C   0  0  0  0  0  0  0  0  0  0  0  0
    9.5787  -18.6808   20.5325 O   0  0  0  0  0  0  0  0  0  0  0  0
   10.1425  -16.3945   20.6481 N   0  0  0  0  0  0  0  0  0  0  0  0
    9.6175  -15.8051   21.9135 C   0  0  1  0  0  0  0  0  0  0  0  0
    8.2517  -15.2970   21.6369 C   0  0  0  0  0  0  0  0  0  0  0  0
    8.0484  -14.1782   20.7400 C   0  0  0  0  0  0  0  0  0  0  0  0
    9.1512  -13.5244   20.1350 C   0  0  0  0  0  0  0  0  0  0  0  0
    8.6662  -12.5495   19.3736 N   0  0  0  0  0  0  0  0  0  0  0  0
    7.3209  -12.5284   19.4457 C   0  0  0  0  0  0  0  0  0  0  0  0
    7.0016  -13.5199   20.2737 N   0  0  0  0  0  0  0  0  0  0  0  0
    9.7754  -16.8616   22.9050 C   0  0  0  0  0  0  0  0  0  0  0  0
    9.1141  -17.9480   22.7810 O   0  0  0  0  0  0  0  0  0  0  0  0
   12.2786  -23.5701   21.1960 N   0  0  0  0  0  0  0  0  0  0  0  0
   11.5953  -23.4414   22.4308 C   0  0  0  0  0  0  0  0  0  0  0  0
   10.7699  -24.3568   22.8235 N   0  0  0  0  0  0  0  0  0  0  0  0
   11.7651  -22.3279   23.2977 N   0  0  0  0  0  0  0  0  0  0  0  0
   12.2063  -21.0571   22.8376 C   0  0  0  0  0  0  0  0  0  0  0  0
   12.5255  -20.0565   23.9297 C   0  0  0  0  0  0  0  0  0  0  0  0
   11.8199  -18.7809   23.5235 C   0  0  0  0  0  0  0  0  0  0  0  0
   11.1706  -18.0404   24.6383 C   0  0  2  0  0  0  0  0  0  0  0  0
   10.6171  -16.8052   24.0192 N   0  0  0  0  0  0  0  0  0  0  0  0
   12.0543  -17.6833   25.7604 C   0  0  0  0  0  0  0  0  0  0  0  0
   11.9133  -18.3035   26.9805 O   0  0  0  0  0  0  0  0  0  0  0  0
   12.9429  -16.8156   25.6249 O   0  0  0  0  0  0  0  0  0  0  0  0
  2  1  1  6
  2  5  1  0
  3  2  1  0
  4  3  1  0
  5  6  2  0
  5  7  1  0
  7  8  1  0
  8 15  1  0
  8  9  1  6
 10  9  1  0
 10 11  2  0
 12 11  1  0
 13 12  1  0
 14 13  2  0
 14 10  1  0
 15 16  2  0
 17 18  1  0
 18 20  1  0
 19 18  2  0
 20 21  1  0
 21 22  1  0
 24 23  1  6
 23 22  1  0
 25 24  1  0
 25 15  1  0
 26 27  1  0
 26 24  1  0
 28 26  2  0
M  END
$$$$
