CHR.pdb
     RDKit          3D

 28 28  0  0  1  0  0  0  0  0999 V2000
    8.8539  -16.6306   17.0254 N   0  0  0  0  0  0  0  0  0  0  0  0
    8.2340  -17.1322   18.2303 C   0  0  1  0  0  0  0  0  0  0  0  0
    8.4300  -18.6359   18.3602 C   0  0  0  0  0  0  0  0  0  0  0  0
    7.7257  -19.5384   16.9715 S   0  0  0  0  0  0  0  0  0  0  0  0
    8.7358  -16.4198   19.4429 C   0  0  0  0  0  0  0  0  0  0  0  0
    9.9482  -16.1100   19.4796 O   0  0  0  0  0  0  0  0  0  0  0  0
    7.8017  -16.1514   20.4539 N   0  0  0  0  0  0  0  0  0  0  0  0
    8.1727  -15.3996   21.6873 C   0  0  1  0  0  0  0  0  0  0  0  0
    6.9166  -15.0656   22.4019 C   0  0  0  0  0  0  0  0  0  0  0  0
    6.9547  -14.4445   23.7097 C   0  0  0  0  0  0  0  0  0  0  0  0
    8.1874  -14.2396   24.3792 C   0  0  0  0  0  0  0  0  0  0  0  0
    7.9156  -13.6583   25.5427 N   0  0  0  0  0  0  0  0  0  0  0  0
    6.5871  -13.4732   25.6713 C   0  0  0  0  0  0  0  0  0  0  0  0
    6.0585  -13.9590   24.5509 N   0  0  0  0  0  0  0  0  0  0  0  0
    9.1457  -16.2517   22.3591 C   0  0  0  0  0  0  0  0  0  0  0  0
    8.9882  -17.5198   22.3487 O   0  0  0  0  0  0  0  0  0  0  0  0
   17.6764  -15.5306   23.0712 N   0  0  0  0  0  0  0  0  0  0  0  0
   17.4287  -16.7547   23.7405 C   0  0  0  0  0  0  0  0  0  0  0  0
   18.4103  -17.5128   24.1085 N   0  0  0  0  0  0  0  0  0  0  0  0
   16.1207  -17.2207   24.0442 N   0  0  0  0  0  0  0  0  0  0  0  0
   14.9467  -16.5859   23.5543 C   0  0  0  0  0  0  0  0  0  0  0  0
   13.6459  -17.1308   24.1081 C   0  0  0  0  0  0  0  0  0  0  0  0
   12.5546  -16.3400   23.4200 C   0  0  0  0  0  0  0  0  0  0  0  0
   11.1676  -16.7413   23.7778 C   0  0  2  0  0  0  0  0  0  0  0  0
   10.2833  -15.8022   23.0351 N   0  0  0  0  0  0  0  0  0  0  0  0
   10.8469  -16.6984   25.2140 C   0  0  0  0  0  0  0  0  0  0  0  0
   11.0263  -17.8137   25.9997 O   0  0  0  0  0  0  0  0  0  0  0  0
   10.4087  -15.6541   25.7416 O   0  0  0  0  0  0  0  0  0  0  0  0
  2  1  1  6
  2  5  1  0
  3  2  1  0
  4  3  1  0
  5  6  2  0
  5  7  1  0
  7  8  1  0
  8 15  1  0
  8  9  1  1
 10  9  1  0
 10 11  2  0
 12 11  1  0
 13 12  1  0
 14 13  2  0
 14 10  1  0
 15 16  2  0
 17 18  1  0
 18 20  1  0
 19 18  2  0
 20 21  1  0
 21 22  1  0
 24 23  1  1
 23 22  1  0
 25 24  1  0
 25 15  1  0
 26 27  1  0
 26 24  1  0
 28 26  2  0
M  END
$$$$
