CHR.pdb
     RDKit          3D

 28 28  0  0  1  0  0  0  0  0999 V2000
   10.4972  -18.1521   17.3038 N   0  0  0  0  0  0  0  0  0  0  0  0
    9.4462  -18.1700   18.2952 C   0  0  1  0  0  0  0  0  0  0  0  0
    9.3276  -19.5431   18.9408 C   0  0  0  0  0  0  0  0  0  0  0  0
   10.7620  -19.9496   19.9489 S   0  0  0  0  0  0  0  0  0  0  0  0
    9.6467  -17.1087   19.3263 C   0  0  0  0  0  0  0  0  0  0  0  0
   10.8032  -16.6554   19.4823 O   0  0  0  0  0  0  0  0  0  0  0  0
    8.5142  -16.6997   20.0452 N   0  0  0  0  0  0  0  0  0  0  0  0
    8.5869  -15.6352   21.0872 C   0  0  1  0  0  0  0  0  0  0  0  0
    7.5114  -14.6548   20.8003 C   0  0  0  0  0  0  0  0  0  0  0  0
    7.5773  -13.8102   19.6257 C   0  0  0  0  0  0  0  0  0  0  0  0
    8.6247  -12.8678   19.4683 C   0  0  0  0  0  0  0  0  0  0  0  0
    8.4280  -12.2450   18.3112 N   0  0  0  0  0  0  0  0  0  0  0  0
    7.3214  -12.7220   17.7082 C   0  0  0  0  0  0  0  0  0  0  0  0
    6.8506  -13.6540   18.5330 N   0  0  0  0  0  0  0  0  0  0  0  0
    8.5466  -16.3561   22.3533 C   0  0  0  0  0  0  0  0  0  0  0  0
    7.4867  -16.9871   22.6873 O   0  0  0  0  0  0  0  0  0  0  0  0
   11.7801  -20.7420   28.3820 N   0  0  0  0  0  0  0  0  0  0  0  0
   13.0267  -20.3450   27.8376 C   0  0  0  0  0  0  0  0  0  0  0  0
   14.1340  -20.6962   28.4069 N   0  0  0  0  0  0  0  0  0  0  0  0
   13.1423  -19.5550   26.6617 N   0  0  0  0  0  0  0  0  0  0  0  0
   12.2308  -19.6576   25.5755 C   0  0  0  0  0  0  0  0  0  0  0  0
   10.9161  -18.9306   25.7723 C   0  0  0  0  0  0  0  0  0  0  0  0
   10.7585  -18.0494   24.5523 C   0  0  0  0  0  0  0  0  0  0  0  0
    9.4931  -17.2691   24.5006 C   0  0  2  0  0  0  0  0  0  0  0  0
    9.5964  -16.4346   23.2725 N   0  0  0  0  0  0  0  0  0  0  0  0
    9.2311  -16.4100   25.6671 C   0  0  0  0  0  0  0  0  0  0  0  0
    8.6329  -16.9292   26.7922 O   0  0  0  0  0  0  0  0  0  0  0  0
    9.5459  -15.2010   25.6558 O   0  0  0  0  0  0  0  0  0  0  0  0
  2  1  1  6
  2  5  1  0
  3  2  1  0
  4  3  1  0
  5  6  2  0
  5  7  1  0
  7  8  1  0
  8 15  1  0
  8  9  1  1
 10  9  1  0
 10 11  2  0
 12 11  1  0
 13 12  1  0
 14 13  2  0
 14 10  1  0
 15 16  2  0
 17 18  1  0
 18 20  1  0
 19 18  2  0
 20 21  1  0
 21 22  1  0
 24 23  1  1
 23 22  1  0
 25 24  1  0
 25 15  1  0
 26 27  1  0
 26 24  1  0
 28 26  2  0
M  END
$$$$
