CHR.pdb
     RDKit          3D

 28 28  0  0  1  0  0  0  0  0999 V2000
    7.6567  -13.5529   18.4983 N   0  0  0  0  0  0  0  0  0  0  0  0
    8.9453  -13.0468   18.9122 C   0  0  1  0  0  0  0  0  0  0  0  0
    8.8457  -12.3275   20.2497 C   0  0  0  0  0  0  0  0  0  0  0  0
    7.8149  -13.2160   21.4275 S   0  0  0  0  0  0  0  0  0  0  0  0
    9.9703  -14.1315   18.9622 C   0  0  0  0  0  0  0  0  0  0  0  0
    9.5672  -15.3146   19.0337 O   0  0  0  0  0  0  0  0  0  0  0  0
   11.3153  -13.7364   18.9250 N   0  0  0  0  0  0  0  0  0  0  0  0
   12.4215  -14.7261   18.7795 C   0  0  1  0  0  0  0  0  0  0  0  0
   13.1278  -14.4238   17.5108 C   0  0  0  0  0  0  0  0  0  0  0  0
   12.8548  -15.1915   16.3134 C   0  0  0  0  0  0  0  0  0  0  0  0
   12.3674  -16.5199   16.3995 C   0  0  0  0  0  0  0  0  0  0  0  0
   12.2119  -16.9672   15.1581 N   0  0  0  0  0  0  0  0  0  0  0  0
   12.5667  -16.0154   14.2727 C   0  0  0  0  0  0  0  0  0  0  0  0
   12.9428  -14.9754   15.0127 N   0  0  0  0  0  0  0  0  0  0  0  0
   13.1682  -14.6295   20.0275 C   0  0  0  0  0  0  0  0  0  0  0  0
   13.5097  -13.4811   20.4718 O   0  0  0  0  0  0  0  0  0  0  0  0
   11.0795  -20.4970   23.9767 N   0  0  0  0  0  0  0  0  0  0  0  0
   11.6549  -19.9037   25.1277 C   0  0  0  0  0  0  0  0  0  0  0  0
   11.1315  -20.0924   26.2956 N   0  0  0  0  0  0  0  0  0  0  0  0
   12.8141  -19.0828   25.0787 N   0  0  0  0  0  0  0  0  0  0  0  0
   13.4312  -18.6981   23.8570 C   0  0  0  0  0  0  0  0  0  0  0  0
   13.2124  -17.2533   23.4566 C   0  0  0  0  0  0  0  0  0  0  0  0
   14.4539  -16.8581   22.6869 C   0  0  0  0  0  0  0  0  0  0  0  0
   14.3921  -15.5201   22.0398 C   0  0  2  0  0  0  0  0  0  0  0  0
   13.5579  -15.7112   20.8220 N   0  0  0  0  0  0  0  0  0  0  0  0
   15.6913  -14.9361   21.6681 C   0  0  0  0  0  0  0  0  0  0  0  0
   16.2848  -13.9917   22.4739 O   0  0  0  0  0  0  0  0  0  0  0  0
   16.2747  -15.2861   20.6203 O   0  0  0  0  0  0  0  0  0  0  0  0
  2  1  1  1
  2  5  1  0
  3  2  1  0
  4  3  1  0
  5  6  2  0
  5  7  1  0
  7  8  1  0
  8 15  1  0
  8  9  1  6
 10  9  1  0
 10 11  2  0
 12 11  1  0
 13 12  1  0
 14 13  2  0
 14 10  1  0
 15 16  2  0
 17 18  1  0
 18 20  1  0
 19 18  2  0
 20 21  1  0
 21 22  1  0
 24 23  1  6
 23 22  1  0
 25 24  1  0
 25 15  1  0
 26 27  1  0
 26 24  1  0
 28 26  2  0
M  END
$$$$
