CHR.pdb
     RDKit          3D

 28 28  0  0  1  0  0  0  0  0999 V2000
    8.1137  -12.6925   17.5431 N   0  0  0  0  0  0  0  0  0  0  0  0
    7.5584  -13.7481   18.3586 C   0  0  1  0  0  0  0  0  0  0  0  0
    7.7060  -15.1005   17.6762 C   0  0  0  0  0  0  0  0  0  0  0  0
    7.1808  -16.4593   18.7332 S   0  0  0  0  0  0  0  0  0  0  0  0
    8.1678  -13.7665   19.7217 C   0  0  0  0  0  0  0  0  0  0  0  0
    9.4035  -13.5876   19.8126 O   0  0  0  0  0  0  0  0  0  0  0  0
    7.3007  -13.9846   20.8021 N   0  0  0  0  0  0  0  0  0  0  0  0
    7.7779  -13.9393   22.2144 C   0  0  1  0  0  0  0  0  0  0  0  0
    6.6115  -13.6114   23.0699 C   0  0  0  0  0  0  0  0  0  0  0  0
    6.7463  -13.5545   24.5108 C   0  0  0  0  0  0  0  0  0  0  0  0
    6.9079  -14.7402   25.2711 C   0  0  0  0  0  0  0  0  0  0  0  0
    7.0046  -14.3835   26.5474 N   0  0  0  0  0  0  0  0  0  0  0  0
    6.9161  -13.0441   26.6642 C   0  0  0  0  0  0  0  0  0  0  0  0
    6.7628  -12.5962   25.4206 N   0  0  0  0  0  0  0  0  0  0  0  0
    8.4479  -15.2176   22.4177 C   0  0  0  0  0  0  0  0  0  0  0  0
    8.3136  -16.1461   21.5500 O   0  0  0  0  0  0  0  0  0  0  0  0
   14.4753  -17.4483   18.6148 N   0  0  0  0  0  0  0  0  0  0  0  0
   14.5245  -18.5289   19.5301 C   0  0  0  0  0  0  0  0  0  0  0  0
   15.3258  -19.5245   19.3290 N   0  0  0  0  0  0  0  0  0  0  0  0
   13.7185  -18.5913   20.6992 N   0  0  0  0  0  0  0  0  0  0  0  0
   12.7529  -17.5982   21.0196 C   0  0  0  0  0  0  0  0  0  0  0  0
   12.0046  -17.8281   22.3169 C   0  0  0  0  0  0  0  0  0  0  0  0
   10.9599  -16.7349   22.3763 C   0  0  0  0  0  0  0  0  0  0  0  0
   10.0440  -16.8048   23.5463 C   0  0  2  0  0  0  0  0  0  0  0  0
    9.2608  -15.5397   23.5079 N   0  0  0  0  0  0  0  0  0  0  0  0
   10.7004  -16.9457   24.8565 C   0  0  0  0  0  0  0  0  0  0  0  0
   11.3794  -18.0999   25.1730 O   0  0  0  0  0  0  0  0  0  0  0  0
   10.6528  -16.0246   25.6992 O   0  0  0  0  0  0  0  0  0  0  0  0
  2  1  1  6
  2  5  1  0
  3  2  1  0
  4  3  1  0
  5  6  2  0
  5  7  1  0
  7  8  1  0
  8 15  1  0
  8  9  1  1
 10  9  1  0
 10 11  2  0
 12 11  1  0
 13 12  1  0
 14 13  2  0
 14 10  1  0
 15 16  2  0
 17 18  1  0
 18 20  1  0
 19 18  2  0
 20 21  1  0
 21 22  1  0
 24 23  1  6
 23 22  1  0
 25 24  1  0
 25 15  1  0
 26 27  1  0
 26 24  1  0
 28 26  2  0
M  END
$$$$
