TAQ.pdb
     RDKit          3D

 22 21  0  0  1  0  0  0  0  0999 V2000
    8.1897  -17.0740   13.5280 C   0  0  0  0  0  0  0  0  0  0  0  0
    8.9851  -16.2114   14.4995 C   0  0  1  0  0  0  0  0  0  0  0  0
   10.0652  -15.6180   13.8609 O   0  0  0  0  0  0  0  0  0  0  0  0
    8.0960  -15.0864   15.0334 C   0  0  2  0  0  0  0  0  0  0  0  0
    7.9194  -14.0529   14.0361 N   0  0  0  0  0  0  0  0  0  0  0  0
    8.7913  -14.5486   16.2288 C   0  0  0  0  0  0  0  0  0  0  0  0
   10.0404  -14.5907   16.3510 O   0  0  0  0  0  0  0  0  0  0  0  0
    7.5785  -12.9923   19.5046 C   0  0  0  0  0  0  0  0  0  0  0  0
    8.5295  -13.6369   18.5580 C   0  0  2  0  0  0  0  0  0  0  0  0
    8.0171  -13.9671   17.2707 N   0  0  0  0  0  0  0  0  0  0  0  0
    9.1733  -14.8846   19.1551 C   0  0  0  0  0  0  0  0  0  0  0  0
    9.1287  -15.9582   18.5257 O   0  0  0  0  0  0  0  0  0  0  0  0
   15.9791  -15.1223   19.8837 N   0  0  0  0  0  0  0  0  0  0  0  0
   14.6538  -14.8574   19.4872 C   0  0  0  0  0  0  0  0  0  0  0  0
   14.4472  -14.0250   18.5814 O   0  0  0  0  0  0  0  0  0  0  0  0
   13.5266  -15.5521   20.1345 C   0  0  0  0  0  0  0  0  0  0  0  0
   12.1736  -14.9911   19.8404 C   0  0  0  0  0  0  0  0  0  0  0  0
   11.0895  -15.2719   20.8292 C   0  0  2  0  0  0  0  0  0  0  0  0
    9.8096  -14.8181   20.4066 N   0  0  0  0  0  0  0  0  0  0  0  0
   11.4682  -15.1379   22.2430 C   0  0  0  0  0  0  0  0  0  0  0  0
   12.5536  -15.6968   22.6804 O   0  0  0  0  0  0  0  0  0  0  0  0
   10.8037  -14.4685   23.2521 O   0  0  0  0  0  0  0  0  0  0  0  0
  2  1  1  6
  2  4  1  0
  3  2  1  0
  4  6  1  0
  4  5  1  6
  6 10  1  0
  7  6  2  0
  9  8  1  1
  9 11  1  0
 10  9  1  0
 11 19  1  0
 11 12  2  0
 14 13  1  0
 15 14  2  0
 16 14  1  0
 18 17  1  6
 17 16  1  0
 18 20  1  0
 19 18  1  0
 20 22  1  0
 21 20  2  0
M  END
$$$$
