TAQ.pdb
     RDKit          3D

 22 21  0  0  1  0  0  0  0  0999 V2000
    6.2045  -18.0841   16.1379 C   0  0  0  0  0  0  0  0  0  0  0  0
    7.0141  -17.5019   17.2896 C   0  0  1  0  0  0  0  0  0  0  0  0
    7.8870  -18.4492   17.8066 O   0  0  0  0  0  0  0  0  0  0  0  0
    7.8588  -16.3311   16.7830 C   0  0  2  0  0  0  0  0  0  0  0  0
    8.8718  -16.7901   15.8573 N   0  0  0  0  0  0  0  0  0  0  0  0
    8.4827  -15.7268   17.9861 C   0  0  0  0  0  0  0  0  0  0  0  0
    9.5602  -16.1561   18.4674 O   0  0  0  0  0  0  0  0  0  0  0  0
    7.5787  -12.7715   20.2360 C   0  0  0  0  0  0  0  0  0  0  0  0
    8.3208  -13.9828   19.7908 C   0  0  2  0  0  0  0  0  0  0  0  0
    7.8384  -14.6256   18.6149 N   0  0  0  0  0  0  0  0  0  0  0  0
    8.4313  -15.0253   20.8993 C   0  0  0  0  0  0  0  0  0  0  0  0
    7.4781  -15.7983   21.1107 O   0  0  0  0  0  0  0  0  0  0  0  0
   14.0079  -17.4664   22.5506 N   0  0  0  0  0  0  0  0  0  0  0  0
   13.1843  -17.9194   23.5995 C   0  0  0  0  0  0  0  0  0  0  0  0
   13.6443  -18.7380   24.4208 O   0  0  0  0  0  0  0  0  0  0  0  0
   11.7980  -17.4349   23.7243 C   0  0  0  0  0  0  0  0  0  0  0  0
   11.3586  -16.4702   22.6716 C   0  0  0  0  0  0  0  0  0  0  0  0
    9.9520  -15.9726   22.7471 C   0  0  2  0  0  0  0  0  0  0  0  0
    9.6014  -15.1081   21.6737 N   0  0  0  0  0  0  0  0  0  0  0  0
    9.4532  -15.6790   24.0980 C   0  0  0  0  0  0  0  0  0  0  0  0
    9.2317  -14.4524   24.4563 O   0  0  0  0  0  0  0  0  0  0  0  0
    9.1668  -16.5625   25.1204 O   0  0  0  0  0  0  0  0  0  0  0  0
  2  1  1  6
  2  4  1  0
  3  2  1  0
  4  6  1  0
  4  5  1  6
  6 10  1  0
  7  6  2  0
  9  8  1  1
  9 11  1  0
 10  9  1  0
 11 19  1  0
 11 12  2  0
 14 13  1  0
 15 14  2  0
 16 14  1  0
 18 17  1  1
 17 16  1  0
 18 20  1  0
 19 18  1  0
 20 22  1  0
 21 20  2  0
M  END
$$$$
