TAQ.pdb
     RDKit          3D

 22 21  0  0  1  0  0  0  0  0999 V2000
    6.1854  -18.8316   18.5897 C   0  0  0  0  0  0  0  0  0  0  0  0
    6.9678  -17.7360   19.3026 C   0  0  1  0  0  0  0  0  0  0  0  0
    7.9602  -18.2818   20.1049 O   0  0  0  0  0  0  0  0  0  0  0  0
    7.6562  -16.8416   18.2696 C   0  0  2  0  0  0  0  0  0  0  0  0
    8.5983  -17.6019   17.4770 N   0  0  0  0  0  0  0  0  0  0  0  0
    8.3541  -15.7856   19.0439 C   0  0  0  0  0  0  0  0  0  0  0  0
    9.5352  -15.9231   19.4479 O   0  0  0  0  0  0  0  0  0  0  0  0
    7.4049  -12.2497   20.1411 C   0  0  0  0  0  0  0  0  0  0  0  0
    8.2317  -13.4843   20.0508 C   0  0  2  0  0  0  0  0  0  0  0  0
    7.6621  -14.5784   19.3387 N   0  0  0  0  0  0  0  0  0  0  0  0
    8.6712  -13.9801   21.4252 C   0  0  0  0  0  0  0  0  0  0  0  0
    9.4004  -13.2595   22.1320 O   0  0  0  0  0  0  0  0  0  0  0  0
    6.8672  -19.7719   25.9151 N   0  0  0  0  0  0  0  0  0  0  0  0
    6.6433  -18.7806   24.9400 C   0  0  0  0  0  0  0  0  0  0  0  0
    5.5773  -18.7977   24.2922 O   0  0  0  0  0  0  0  0  0  0  0  0
    7.6546  -17.7389   24.6867 C   0  0  0  0  0  0  0  0  0  0  0  0
    7.4908  -16.9834   23.4083 C   0  0  0  0  0  0  0  0  0  0  0  0
    8.4887  -15.9103   23.1179 C   0  0  2  0  0  0  0  0  0  0  0  0
    8.2544  -15.2412   21.8850 N   0  0  0  0  0  0  0  0  0  0  0  0
    9.8704  -16.1995   23.5267 C   0  0  0  0  0  0  0  0  0  0  0  0
   10.1578  -16.3527   24.7820 O   0  0  0  0  0  0  0  0  0  0  0  0
   10.9915  -16.3397   22.7320 O   0  0  0  0  0  0  0  0  0  0  0  0
  2  1  1  6
  2  4  1  0
  3  2  1  0
  4  6  1  0
  4  5  1  1
  6 10  1  0
  7  6  2  0
  9  8  1  1
  9 11  1  0
 10  9  1  0
 11 19  1  0
 11 12  2  0
 14 13  1  0
 15 14  2  0
 16 14  1  0
 18 17  1  6
 17 16  1  0
 18 20  1  0
 19 18  1  0
 20 22  1  0
 21 20  2  0
M  END
$$$$
