TAQ.pdb
     RDKit          3D

 22 21  0  0  1  0  0  0  0  0999 V2000
   -8.5948  -21.1474   27.1602 C   0  0  0  0  0  0  0  0  0  0  0  0
   -8.6672  -21.9230   25.8510 C   0  0  1  0  0  0  0  0  0  0  0  0
   -9.4143  -21.2302   24.9086 O   0  0  0  0  0  0  0  0  0  0  0  0
   -7.2589  -22.0973   25.2790 C   0  0  2  0  0  0  0  0  0  0  0  0
   -7.2994  -22.8095   24.0200 N   0  0  0  0  0  0  0  0  0  0  0  0
   -6.4983  -22.8680   26.2935 C   0  0  0  0  0  0  0  0  0  0  0  0
   -6.7618  -24.0670   26.5578 O   0  0  0  0  0  0  0  0  0  0  0  0
   -3.4449  -22.1138   28.4573 C   0  0  0  0  0  0  0  0  0  0  0  0
   -4.6601  -22.8480   28.0097 C   0  0  2  0  0  0  0  0  0  0  0  0
   -5.4364  -22.2270   26.9897 N   0  0  0  0  0  0  0  0  0  0  0  0
   -5.5823  -23.1919   29.1754 C   0  0  0  0  0  0  0  0  0  0  0  0
   -6.2600  -22.2924   29.7067 O   0  0  0  0  0  0  0  0  0  0  0  0
   -8.9435  -28.2939   29.5785 N   0  0  0  0  0  0  0  0  0  0  0  0
   -9.1865  -27.0124   29.0472 C   0  0  0  0  0  0  0  0  0  0  0  0
  -10.1298  -26.8575   28.2457 O   0  0  0  0  0  0  0  0  0  0  0  0
   -8.3373  -25.8705   29.4310 C   0  0  0  0  0  0  0  0  0  0  0  0
   -7.2658  -26.1743   30.4268 C   0  0  0  0  0  0  0  0  0  0  0  0
   -6.3242  -25.0677   30.7740 C   0  0  2  0  0  0  0  0  0  0  0  0
   -5.6622  -24.5150   29.6431 N   0  0  0  0  0  0  0  0  0  0  0  0
   -5.5801  -25.2368   32.0301 C   0  0  0  0  0  0  0  0  0  0  0  0
   -4.3452  -25.6319   32.0054 O   0  0  0  0  0  0  0  0  0  0  0  0
   -6.0183  -25.0320   33.3240 O   0  0  0  0  0  0  0  0  0  0  0  0
  2  1  1  1
  2  4  1  0
  3  2  1  0
  4  6  1  0
  4  5  1  6
  6 10  1  0
  7  6  2  0
  9  8  1  1
  9 11  1  0
 10  9  1  0
 11 19  1  0
 11 12  2  0
 14 13  1  0
 15 14  2  0
 16 14  1  0
 18 17  1  6
 17 16  1  0
 18 20  1  0
 19 18  1  0
 20 22  1  0
 21 20  2  0
M  END
$$$$
