TAQ.pdb
     RDKit          3D

 22 21  0  0  1  0  0  0  0  0999 V2000
    6.7466  -16.6561   20.6464 C   0  0  0  0  0  0  0  0  0  0  0  0
    7.2024  -16.1579   22.0120 C   0  0  1  0  0  0  0  0  0  0  0  0
    8.0217  -17.0928   22.6292 O   0  0  0  0  0  0  0  0  0  0  0  0
    8.0192  -14.8751   21.8441 C   0  0  2  0  0  0  0  0  0  0  0  0
    9.2048  -15.1201   21.0513 N   0  0  0  0  0  0  0  0  0  0  0  0
    8.3853  -14.4415   23.2150 C   0  0  0  0  0  0  0  0  0  0  0  0
    9.4387  -14.8276   23.7794 O   0  0  0  0  0  0  0  0  0  0  0  0
    6.8292  -12.0259   25.7323 C   0  0  0  0  0  0  0  0  0  0  0  0
    7.7481  -13.0865   25.2356 C   0  0  2  0  0  0  0  0  0  0  0  0
    7.5140  -13.5601   23.9129 N   0  0  0  0  0  0  0  0  0  0  0  0
    7.7972  -14.2870   26.1759 C   0  0  0  0  0  0  0  0  0  0  0  0
    7.1158  -15.2966   25.9166 O   0  0  0  0  0  0  0  0  0  0  0  0
   11.4336  -17.7625   24.9990 N   0  0  0  0  0  0  0  0  0  0  0  0
   11.7075  -17.9782   26.3636 C   0  0  0  0  0  0  0  0  0  0  0  0
   12.5157  -18.8722   26.6856 O   0  0  0  0  0  0  0  0  0  0  0  0
   11.0472  -17.1607   27.3971 C   0  0  0  0  0  0  0  0  0  0  0  0
   10.1535  -16.0787   26.8848 C   0  0  0  0  0  0  0  0  0  0  0  0
    9.4597  -15.2299   27.8996 C   0  0  2  0  0  0  0  0  0  0  0  0
    8.6057  -14.2486   27.3250 N   0  0  0  0  0  0  0  0  0  0  0  0
   10.2518  -14.8851   29.0886 C   0  0  0  0  0  0  0  0  0  0  0  0
   10.6003  -13.6544   29.3024 O   0  0  0  0  0  0  0  0  0  0  0  0
   10.7212  -15.7220   30.0823 O   0  0  0  0  0  0  0  0  0  0  0  0
  2  1  1  6
  2  4  1  0
  3  2  1  0
  4  6  1  0
  4  5  1  6
  6 10  1  0
  7  6  2  0
  9  8  1  1
  9 11  1  0
 10  9  1  0
 11 19  1  0
 11 12  2  0
 14 13  1  0
 15 14  2  0
 16 14  1  0
 18 17  1  6
 17 16  1  0
 18 20  1  0
 19 18  1  0
 20 22  1  0
 21 20  2  0
M  END
$$$$
