TAQ.pdb
     RDKit          3D

 22 21  0  0  1  0  0  0  0  0999 V2000
    3.0002  -18.1853   20.7131 C   0  0  0  0  0  0  0  0  0  0  0  0
    4.3072  -17.5599   21.1836 C   0  0  1  0  0  0  0  0  0  0  0  0
    4.9386  -18.3770   22.1110 O   0  0  0  0  0  0  0  0  0  0  0  0
    5.2569  -17.3999   19.9947 C   0  0  2  0  0  0  0  0  0  0  0  0
    5.5899  -18.6879   19.4252 N   0  0  0  0  0  0  0  0  0  0  0  0
    6.4702  -16.7326   20.5278 C   0  0  0  0  0  0  0  0  0  0  0  0
    7.4575  -17.3815   20.9535 O   0  0  0  0  0  0  0  0  0  0  0  0
    7.5405  -13.0814   20.8899 C   0  0  0  0  0  0  0  0  0  0  0  0
    7.6121  -14.5577   21.0667 C   0  0  2  0  0  0  0  0  0  0  0  0
    6.5157  -15.3113   20.5583 N   0  0  0  0  0  0  0  0  0  0  0  0
    7.8310  -14.9491   22.5251 C   0  0  0  0  0  0  0  0  0  0  0  0
    6.8465  -15.1159   23.2691 O   0  0  0  0  0  0  0  0  0  0  0  0
    6.9104  -18.0223   26.1134 N   0  0  0  0  0  0  0  0  0  0  0  0
    8.2425  -18.3799   26.3986 C   0  0  0  0  0  0  0  0  0  0  0  0
    8.4900  -19.0083   27.4474 O   0  0  0  0  0  0  0  0  0  0  0  0
    9.3293  -18.0153   25.4722 C   0  0  0  0  0  0  0  0  0  0  0  0
    8.9220  -17.1787   24.3034 C   0  0  0  0  0  0  0  0  0  0  0  0
    9.6267  -15.8743   24.1200 C   0  0  2  0  0  0  0  0  0  0  0  0
    9.1355  -15.1178   23.0204 N   0  0  0  0  0  0  0  0  0  0  0  0
   11.0705  -15.8877   24.3947 C   0  0  0  0  0  0  0  0  0  0  0  0
   11.9186  -15.8246   23.4156 O   0  0  0  0  0  0  0  0  0  0  0  0
   11.7136  -15.9667   25.6146 O   0  0  0  0  0  0  0  0  0  0  0  0
  2  1  1  6
  2  4  1  0
  3  2  1  0
  4  6  1  0
  4  5  1  1
  6 10  1  0
  7  6  2  0
  9  8  1  1
  9 11  1  0
 10  9  1  0
 11 19  1  0
 11 12  2  0
 14 13  1  0
 15 14  2  0
 16 14  1  0
 18 17  1  6
 17 16  1  0
 18 20  1  0
 19 18  1  0
 20 22  1  0
 21 20  2  0
M  END
$$$$
