TAQ.pdb
     RDKit          3D

 22 21  0  0  1  0  0  0  0  0999 V2000
    6.9949  -15.5075   16.0277 C   0  0  0  0  0  0  0  0  0  0  0  0
    7.8131  -15.4192   17.3097 C   0  0  1  0  0  0  0  0  0  0  0  0
    9.1144  -15.8514   17.0945 O   0  0  0  0  0  0  0  0  0  0  0  0
    7.8863  -13.9628   17.7727 C   0  0  2  0  0  0  0  0  0  0  0  0
    8.6011  -13.1523   16.8103 N   0  0  0  0  0  0  0  0  0  0  0  0
    8.5991  -13.9831   19.0739 C   0  0  0  0  0  0  0  0  0  0  0  0
    9.8526  -13.9722   19.1496 O   0  0  0  0  0  0  0  0  0  0  0  0
    7.4607  -13.7541   22.7081 C   0  0  0  0  0  0  0  0  0  0  0  0
    8.4038  -13.9920   21.5811 C   0  0  2  0  0  0  0  0  0  0  0  0
    7.8374  -14.0166   20.2745 N   0  0  0  0  0  0  0  0  0  0  0  0
    9.2193  -15.2665   21.7772 C   0  0  0  0  0  0  0  0  0  0  0  0
    8.7242  -16.3651   21.4630 O   0  0  0  0  0  0  0  0  0  0  0  0
   13.4121  -13.5803   19.4943 N   0  0  0  0  0  0  0  0  0  0  0  0
   13.8538  -14.5361   20.4297 C   0  0  0  0  0  0  0  0  0  0  0  0
   14.9638  -14.3801   20.9773 O   0  0  0  0  0  0  0  0  0  0  0  0
   13.0178  -15.7053   20.7557 C   0  0  0  0  0  0  0  0  0  0  0  0
   12.8269  -15.9707   22.2134 C   0  0  0  0  0  0  0  0  0  0  0  0
   11.4312  -16.2204   22.6838 C   0  0  2  0  0  0  0  0  0  0  0  0
   10.5182  -15.1962   22.3095 N   0  0  0  0  0  0  0  0  0  0  0  0
   11.3089  -16.8419   24.0101 C   0  0  0  0  0  0  0  0  0  0  0  0
   10.4990  -16.3406   24.8901 O   0  0  0  0  0  0  0  0  0  0  0  0
   11.9686  -17.9499   24.5052 O   0  0  0  0  0  0  0  0  0  0  0  0
  2  1  1  6
  2  4  1  0
  3  2  1  0
  4  6  1  0
  4  5  1  6
  6 10  1  0
  7  6  2  0
  9  8  1  1
  9 11  1  0
 10  9  1  0
 11 19  1  0
 11 12  2  0
 14 13  1  0
 15 14  2  0
 16 14  1  0
 18 17  1  1
 17 16  1  0
 18 20  1  0
 19 18  1  0
 20 22  1  0
 21 20  2  0
M  END
$$$$
