TAQ.pdb
     RDKit          3D

 22 21  0  0  1  0  0  0  0  0999 V2000
    7.5220  -18.8103   20.1150 C   0  0  0  0  0  0  0  0  0  0  0  0
    7.0528  -18.0034   18.9111 C   0  0  1  0  0  0  0  0  0  0  0  0
    5.9221  -17.2621   19.2251 O   0  0  0  0  0  0  0  0  0  0  0  0
    8.1458  -17.0159   18.4974 C   0  0  2  0  0  0  0  0  0  0  0  0
    9.3409  -17.7167   18.0793 N   0  0  0  0  0  0  0  0  0  0  0  0
    8.4181  -16.1827   19.6946 C   0  0  0  0  0  0  0  0  0  0  0  0
    9.1117  -16.5990   20.6551 O   0  0  0  0  0  0  0  0  0  0  0  0
    7.5813  -12.5801   20.6533 C   0  0  0  0  0  0  0  0  0  0  0  0
    8.0805  -13.9699   20.8410 C   0  0  2  0  0  0  0  0  0  0  0  0
    7.8748  -14.8696   19.7562 N   0  0  0  0  0  0  0  0  0  0  0  0
    7.5262  -14.6102   22.1101 C   0  0  0  0  0  0  0  0  0  0  0  0
    6.3217  -14.9218   22.1634 O   0  0  0  0  0  0  0  0  0  0  0  0
    5.8447  -19.8887   25.4529 N   0  0  0  0  0  0  0  0  0  0  0  0
    6.8629  -19.3218   24.6619 C   0  0  0  0  0  0  0  0  0  0  0  0
    7.2260  -19.9141   23.6258 O   0  0  0  0  0  0  0  0  0  0  0  0
    7.4923  -18.0479   25.0536 C   0  0  0  0  0  0  0  0  0  0  0  0
    7.6858  -17.0618   23.9481 C   0  0  0  0  0  0  0  0  0  0  0  0
    8.2424  -15.7253   24.3165 C   0  0  2  0  0  0  0  0  0  0  0  0
    8.3720  -14.8436   23.2081 N   0  0  0  0  0  0  0  0  0  0  0  0
    9.2846  -15.7343   25.3527 C   0  0  0  0  0  0  0  0  0  0  0  0
   10.5113  -15.4500   25.0426 O   0  0  0  0  0  0  0  0  0  0  0  0
    9.1581  -16.0217   26.6978 O   0  0  0  0  0  0  0  0  0  0  0  0
  2  1  1  1
  2  4  1  0
  3  2  1  0
  4  6  1  0
  4  5  1  1
  6 10  1  0
  7  6  2  0
  9  8  1  6
  9 11  1  0
 10  9  1  0
 11 19  1  0
 11 12  2  0
 14 13  1  0
 15 14  2  0
 16 14  1  0
 18 17  1  6
 17 16  1  0
 18 20  1  0
 19 18  1  0
 20 22  1  0
 21 20  2  0
M  END
$$$$
