FGW.pdb
     RDKit          3D

 30 32  0  0  1  0  0  0  0  0999 V2000
   27.0402  -15.5158  -18.0831 N   0  0  0  0  0  0  0  0  0  0  0  0
   27.1660  -16.9399  -17.9204 C   0  0  1  0  0  0  0  0  0  0  0  0
   27.9288  -17.6206  -18.9951 C   0  0  0  0  0  0  0  0  0  0  0  0
   27.3307  -17.6098  -20.3247 C   0  0  0  0  0  0  0  0  0  0  0  0
   26.3184  -18.5571  -20.5548 C   0  0  0  0  0  0  0  0  0  0  0  0
   25.7025  -18.6240  -21.7632 C   0  0  0  0  0  0  0  0  0  0  0  0
   26.0402  -17.7727  -22.8091 C   0  0  0  0  0  0  0  0  0  0  0  0
   27.0482  -16.8379  -22.5625 C   0  0  0  0  0  0  0  0  0  0  0  0
   27.6797  -16.7576  -21.3477 C   0  0  0  0  0  0  0  0  0  0  0  0
   27.6046  -17.3446  -16.5691 C   0  0  0  0  0  0  0  0  0  0  0  0
   28.5679  -16.7382  -16.0462 O   0  0  0  0  0  0  0  0  0  0  0  0
   26.9340  -18.3959  -15.9049 N   0  0  0  0  0  0  0  0  0  0  0  0
   27.2333  -18.7577  -14.5221 C   0  0  0  0  0  0  0  0  0  0  0  0
   26.2958  -19.8196  -14.0436 C   0  0  0  0  0  0  0  0  0  0  0  0
   25.3823  -20.2125  -14.7916 O   0  0  0  0  0  0  0  0  0  0  0  0
   26.4492  -20.3691  -12.7550 N   0  0  0  0  0  0  0  0  0  0  0  0
   25.7123  -21.4388  -12.1875 C   0  0  1  0  0  0  0  0  0  0  0  0
   26.2529  -22.0582  -10.9516 C   0  0  0  0  0  0  0  0  0  0  0  0
   26.4014  -21.1393   -9.8125 C   0  0  0  0  0  0  0  0  0  0  0  0
   25.4542  -20.3190   -9.2825 C   0  0  0  0  0  0  0  0  0  0  0  0
   25.9652  -19.6277   -8.2391 N   0  0  0  0  0  0  0  0  0  0  0  0
   27.2572  -20.0123   -8.1010 C   0  0  0  0  0  0  0  0  0  0  0  0
   28.2222  -19.6051   -7.1831 C   0  0  0  0  0  0  0  0  0  0  0  0
   29.4796  -20.1636   -7.2644 C   0  0  0  0  0  0  0  0  0  0  0  0
   29.7870  -21.1030   -8.2257 C   0  0  0  0  0  0  0  0  0  0  0  0
   28.8274  -21.4925   -9.1204 C   0  0  0  0  0  0  0  0  0  0  0  0
   27.5596  -20.9462   -9.0582 C   0  0  0  0  0  0  0  0  0  0  0  0
   24.2897  -21.0324  -11.9373 C   0  0  0  0  0  0  0  0  0  0  0  0
   23.3242  -22.0449  -11.9867 O   0  0  0  0  0  0  0  0  0  0  0  0
   23.9093  -19.8792  -11.6917 O   0  0  0  0  0  0  0  0  0  0  0  0
  2  1  1  1
  2  3  1  0
  3  4  1  0
  4  5  2  0
  5  6  1  0
  7  6  2  0
  8  7  1  0
  9  4  1  0
  9  8  2  0
 10  2  1  0
 10 12  1  0
 11 10  2  0
 13 12  1  0
 13 14  1  0
 14 15  2  0
 16 14  1  0
 16 17  1  0
 17 18  1  1
 19 18  1  0
 20 19  2  0
 21 22  1  0
 21 20  1  0
 22 27  2  0
 23 24  2  0
 23 22  1  0
 24 25  1  0
 25 26  2  0
 27 19  1  0
 27 26  1  0
 28 17  1  0
 28 29  1  0
 30 28  2  0
M  END
$$$$
