FGW.pdb
     RDKit          3D

 30 32  0  0  1  0  0  0  0  0999 V2000
   26.0560  -19.7512   -7.0442 N   0  0  0  0  0  0  0  0  0  0  0  0
   27.2334  -20.1204   -7.7842 C   0  0  1  0  0  0  0  0  0  0  0  0
   28.3070  -20.7407   -6.9699 C   0  0  0  0  0  0  0  0  0  0  0  0
   28.6773  -20.0457   -5.7430 C   0  0  0  0  0  0  0  0  0  0  0  0
   28.7319  -20.8322   -4.5796 C   0  0  0  0  0  0  0  0  0  0  0  0
   29.0668  -20.2733   -3.3881 C   0  0  0  0  0  0  0  0  0  0  0  0
   29.3656  -18.9209   -3.2681 C   0  0  0  0  0  0  0  0  0  0  0  0
   29.3062  -18.1548   -4.4344 C   0  0  0  0  0  0  0  0  0  0  0  0
   28.9698  -18.7042   -5.6451 C   0  0  0  0  0  0  0  0  0  0  0  0
   26.9434  -20.8819   -9.0163 C   0  0  0  0  0  0  0  0  0  0  0  0
   27.9010  -21.3858   -9.6474 O   0  0  0  0  0  0  0  0  0  0  0  0
   25.6061  -21.0225   -9.4497 N   0  0  0  0  0  0  0  0  0  0  0  0
   25.2536  -21.7718  -10.6525 C   0  0  0  0  0  0  0  0  0  0  0  0
   24.5024  -20.9031  -11.6098 C   0  0  0  0  0  0  0  0  0  0  0  0
   23.7927  -19.9796  -11.1715 O   0  0  0  0  0  0  0  0  0  0  0  0
   24.6003  -21.1311  -12.9970 N   0  0  0  0  0  0  0  0  0  0  0  0
   24.0271  -20.3538  -14.0347 C   0  0  1  0  0  0  0  0  0  0  0  0
   24.7488  -20.3099  -15.3311 C   0  0  0  0  0  0  0  0  0  0  0  0
   26.1693  -19.9397  -15.2364 C   0  0  0  0  0  0  0  0  0  0  0  0
   27.2178  -20.7529  -14.9362 C   0  0  0  0  0  0  0  0  0  0  0  0
   28.3729  -20.0504  -14.9486 N   0  0  0  0  0  0  0  0  0  0  0  0
   28.0571  -18.7703  -15.2613 C   0  0  0  0  0  0  0  0  0  0  0  0
   28.8755  -17.6525  -15.4035 C   0  0  0  0  0  0  0  0  0  0  0  0
   28.2889  -16.4495  -15.7324 C   0  0  0  0  0  0  0  0  0  0  0  0
   26.9270  -16.3421  -15.9186 C   0  0  0  0  0  0  0  0  0  0  0  0
   26.1365  -17.4501  -15.7751 C   0  0  0  0  0  0  0  0  0  0  0  0
   26.7024  -18.6670  -15.4458 C   0  0  0  0  0  0  0  0  0  0  0  0
   22.6080  -20.7689  -14.2900 C   0  0  0  0  0  0  0  0  0  0  0  0
   21.7832  -19.8402  -14.9356 O   0  0  0  0  0  0  0  0  0  0  0  0
   22.1164  -21.8620  -13.9760 O   0  0  0  0  0  0  0  0  0  0  0  0
  2  1  1  1
  2  3  1  0
  3  4  1  0
  4  5  2  0
  5  6  1  0
  7  6  2  0
  8  7  1  0
  9  4  1  0
  9  8  2  0
 10  2  1  0
 10 12  1  0
 11 10  2  0
 13 12  1  0
 13 14  1  0
 14 15  2  0
 16 14  1  0
 16 17  1  0
 17 18  1  6
 19 18  1  0
 20 19  2  0
 21 22  1  0
 21 20  1  0
 22 27  2  0
 23 24  2  0
 23 22  1  0
 24 25  1  0
 25 26  2  0
 27 19  1  0
 27 26  1  0
 28 17  1  0
 28 29  1  0
 30 28  2  0
M  END
$$$$
