FGW.pdb
     RDKit          3D

 30 32  0  0  1  0  0  0  0  0999 V2000
   17.3250  -13.8718    8.3894 N   0  0  0  0  0  0  0  0  0  0  0  0
   17.2187  -14.8967    7.3852 C   0  0  1  0  0  0  0  0  0  0  0  0
   18.4192  -15.0497    6.5274 C   0  0  0  0  0  0  0  0  0  0  0  0
   18.9982  -13.8229    5.9935 C   0  0  0  0  0  0  0  0  0  0  0  0
   18.2496  -13.1668    5.0015 C   0  0  0  0  0  0  0  0  0  0  0  0
   18.7080  -12.0167    4.4436 C   0  0  0  0  0  0  0  0  0  0  0  0
   19.9180  -11.4467    4.8224 C   0  0  0  0  0  0  0  0  0  0  0  0
   20.6485  -12.1123    5.8093 C   0  0  0  0  0  0  0  0  0  0  0  0
   20.1993  -13.2744    6.3825 C   0  0  0  0  0  0  0  0  0  0  0  0
   16.7254  -16.1877    7.9071 C   0  0  0  0  0  0  0  0  0  0  0  0
   17.3605  -16.7396    8.8351 O   0  0  0  0  0  0  0  0  0  0  0  0
   15.5607  -16.7638    7.3526 N   0  0  0  0  0  0  0  0  0  0  0  0
   15.1636  -18.1401    7.6364 C   0  0  0  0  0  0  0  0  0  0  0  0
   15.2357  -18.9727    6.3967 C   0  0  0  0  0  0  0  0  0  0  0  0
   14.6756  -18.5756    5.3589 O   0  0  0  0  0  0  0  0  0  0  0  0
   15.9341  -20.1967    6.4072 N   0  0  0  0  0  0  0  0  0  0  0  0
   16.3738  -20.9408    5.2837 C   0  0  1  0  0  0  0  0  0  0  0  0
   17.4371  -20.3381    4.4413 C   0  0  0  0  0  0  0  0  0  0  0  0
   16.9549  -19.4159    3.4016 C   0  0  0  0  0  0  0  0  0  0  0  0
   16.0178  -19.6630    2.4467 C   0  0  0  0  0  0  0  0  0  0  0  0
   15.8383  -18.5685    1.6736 N   0  0  0  0  0  0  0  0  0  0  0  0
   16.6728  -17.6090    2.1417 C   0  0  0  0  0  0  0  0  0  0  0  0
   16.8762  -16.3032    1.7023 C   0  0  0  0  0  0  0  0  0  0  0  0
   17.7994  -15.5253    2.3672 C   0  0  0  0  0  0  0  0  0  0  0  0
   18.5103  -16.0158    3.4418 C   0  0  0  0  0  0  0  0  0  0  0  0
   18.2988  -17.3013    3.8614 C   0  0  0  0  0  0  0  0  0  0  0  0
   17.3781  -18.0998    3.2101 C   0  0  0  0  0  0  0  0  0  0  0  0
   16.8091  -22.3172    5.6930 C   0  0  0  0  0  0  0  0  0  0  0  0
   17.0425  -23.2389    4.6655 O   0  0  0  0  0  0  0  0  0  0  0  0
   16.9765  -22.6952    6.8609 O   0  0  0  0  0  0  0  0  0  0  0  0
  2  1  1  1
  2  3  1  0
  3  4  1  0
  4  5  2  0
  5  6  1  0
  7  6  2  0
  8  7  1  0
  9  4  1  0
  9  8  2  0
 10  2  1  0
 10 12  1  0
 11 10  2  0
 13 12  1  0
 13 14  1  0
 14 15  2  0
 16 14  1  0
 16 17  1  0
 17 18  1  1
 19 18  1  0
 20 19  2  0
 21 22  1  0
 21 20  1  0
 22 27  2  0
 23 24  2  0
 23 22  1  0
 24 25  1  0
 25 26  2  0
 27 19  1  0
 27 26  1  0
 28 17  1  0
 28 29  1  0
 30 28  2  0
M  END
$$$$
