FGW.pdb
     RDKit          3D

 30 32  0  0  1  0  0  0  0  0999 V2000
   25.2838  -20.4248  -16.3453 N   0  0  0  0  0  0  0  0  0  0  0  0
   26.6128  -20.0180  -15.9733 C   0  0  1  0  0  0  0  0  0  0  0  0
   27.0746  -18.7585  -16.6064 C   0  0  0  0  0  0  0  0  0  0  0  0
   26.8888  -18.6487  -18.0482 C   0  0  0  0  0  0  0  0  0  0  0  0
   27.8968  -19.2163  -18.8463 C   0  0  0  0  0  0  0  0  0  0  0  0
   27.8119  -19.1629  -20.2006 C   0  0  0  0  0  0  0  0  0  0  0  0
   26.7421  -18.5546  -20.8471 C   0  0  0  0  0  0  0  0  0  0  0  0
   25.7499  -17.9959  -20.0382 C   0  0  0  0  0  0  0  0  0  0  0  0
   25.8210  -18.0416  -18.6694 C   0  0  0  0  0  0  0  0  0  0  0  0
   26.8529  -20.0421  -14.5159 C   0  0  0  0  0  0  0  0  0  0  0  0
   26.0995  -19.3700  -13.7744 O   0  0  0  0  0  0  0  0  0  0  0  0
   27.9161  -20.8149  -13.9978 N   0  0  0  0  0  0  0  0  0  0  0  0
   28.2396  -20.8362  -12.5740 C   0  0  0  0  0  0  0  0  0  0  0  0
   27.0718  -21.3247  -11.7784 C   0  0  0  0  0  0  0  0  0  0  0  0
   26.1494  -21.9304  -12.3535 O   0  0  0  0  0  0  0  0  0  0  0  0
   27.0201  -21.0995  -10.3883 N   0  0  0  0  0  0  0  0  0  0  0  0
   26.0636  -21.6080   -9.4739 C   0  0  1  0  0  0  0  0  0  0  0  0
   26.4688  -21.7074   -8.0493 C   0  0  0  0  0  0  0  0  0  0  0  0
   26.9951  -20.4632   -7.4672 C   0  0  0  0  0  0  0  0  0  0  0  0
   26.6913  -19.1875   -7.8289 C   0  0  0  0  0  0  0  0  0  0  0  0
   27.3725  -18.3086   -7.0600 N   0  0  0  0  0  0  0  0  0  0  0  0
   28.1220  -19.0339   -6.1949 C   0  0  0  0  0  0  0  0  0  0  0  0
   28.9986  -18.6155   -5.1968 C   0  0  0  0  0  0  0  0  0  0  0  0
   29.6439  -19.5757   -4.4478 C   0  0  0  0  0  0  0  0  0  0  0  0
   29.4354  -20.9202   -4.6711 C   0  0  0  0  0  0  0  0  0  0  0  0
   28.5707  -21.3151   -5.6558 C   0  0  0  0  0  0  0  0  0  0  0  0
   27.9124  -20.3701   -6.4195 C   0  0  0  0  0  0  0  0  0  0  0  0
   24.7828  -20.8306   -9.5548 C   0  0  0  0  0  0  0  0  0  0  0  0
   24.8008  -19.6590  -10.3209 O   0  0  0  0  0  0  0  0  0  0  0  0
   23.7205  -21.1452   -9.0004 O   0  0  0  0  0  0  0  0  0  0  0  0
  2  1  1  1
  2  3  1  0
  3  4  1  0
  4  5  2  0
  5  6  1  0
  7  6  2  0
  8  7  1  0
  9  4  1  0
  9  8  2  0
 10  2  1  0
 10 12  1  0
 11 10  2  0
 13 12  1  0
 13 14  1  0
 14 15  2  0
 16 14  1  0
 16 17  1  0
 17 18  1  1
 19 18  1  0
 20 19  2  0
 21 22  1  0
 21 20  1  0
 22 27  2  0
 23 24  2  0
 23 22  1  0
 24 25  1  0
 25 26  2  0
 27 19  1  0
 27 26  1  0
 28 17  1  0
 28 29  1  0
 30 28  2  0
M  END
$$$$
