FGW.pdb
     RDKit          3D

 30 32  0  0  1  0  0  0  0  0999 V2000
   26.4750  -18.9088   -9.3559 N   0  0  0  0  0  0  0  0  0  0  0  0
   26.4693  -20.3364   -9.1770 C   0  0  1  0  0  0  0  0  0  0  0  0
   26.4578  -20.7828   -7.7624 C   0  0  0  0  0  0  0  0  0  0  0  0
   27.3744  -20.1005   -6.8571 C   0  0  0  0  0  0  0  0  0  0  0  0
   26.8819  -18.9382   -6.2392 C   0  0  0  0  0  0  0  0  0  0  0  0
   27.6628  -18.2339   -5.3800 C   0  0  0  0  0  0  0  0  0  0  0  0
   28.9625  -18.6245   -5.0785 C   0  0  0  0  0  0  0  0  0  0  0  0
   29.4352  -19.7816   -5.7016 C   0  0  0  0  0  0  0  0  0  0  0  0
   28.6590  -20.5040   -6.5715 C   0  0  0  0  0  0  0  0  0  0  0  0
   25.4589  -21.0319  -10.0001 C   0  0  0  0  0  0  0  0  0  0  0  0
   24.3180  -21.2168   -9.5170 O   0  0  0  0  0  0  0  0  0  0  0  0
   25.7998  -21.4681  -11.3000 N   0  0  0  0  0  0  0  0  0  0  0  0
   24.8299  -22.1082  -12.1843 C   0  0  0  0  0  0  0  0  0  0  0  0
   25.4203  -22.3246  -13.5407 C   0  0  0  0  0  0  0  0  0  0  0  0
   25.1293  -23.3527  -14.1785 O   0  0  0  0  0  0  0  0  0  0  0  0
   26.2988  -21.3690  -14.0895 N   0  0  0  0  0  0  0  0  0  0  0  0
   26.6037  -21.1742  -15.4601 C   0  0  1  0  0  0  0  0  0  0  0  0
   26.8616  -19.7832  -15.9096 C   0  0  0  0  0  0  0  0  0  0  0  0
   25.7960  -18.8213  -15.5887 C   0  0  0  0  0  0  0  0  0  0  0  0
   24.4522  -19.0248  -15.6492 C   0  0  0  0  0  0  0  0  0  0  0  0
   23.7925  -17.9059  -15.2744 N   0  0  0  0  0  0  0  0  0  0  0  0
   24.7286  -16.9747  -14.9701 C   0  0  0  0  0  0  0  0  0  0  0  0
   24.5796  -15.6608  -14.5329 C   0  0  0  0  0  0  0  0  0  0  0  0
   25.7155  -14.9184  -14.2921 C   0  0  0  0  0  0  0  0  0  0  0  0
   26.9737  -15.4515  -14.4757 C   0  0  0  0  0  0  0  0  0  0  0  0
   27.1032  -16.7443  -14.9058 C   0  0  0  0  0  0  0  0  0  0  0  0
   25.9784  -17.5078  -15.1536 C   0  0  0  0  0  0  0  0  0  0  0  0
   27.7602  -22.0347  -15.8765 C   0  0  0  0  0  0  0  0  0  0  0  0
   27.5780  -22.8344  -17.0110 O   0  0  0  0  0  0  0  0  0  0  0  0
   28.8542  -22.0895  -15.2975 O   0  0  0  0  0  0  0  0  0  0  0  0
  2  1  1  1
  2  3  1  0
  3  4  1  0
  4  5  2  0
  5  6  1  0
  7  6  2  0
  8  7  1  0
  9  4  1  0
  9  8  2  0
 10  2  1  0
 10 12  1  0
 11 10  2  0
 13 12  1  0
 13 14  1  0
 14 15  2  0
 16 14  1  0
 16 17  1  0
 17 18  1  1
 19 18  1  0
 20 19  2  0
 21 22  1  0
 21 20  1  0
 22 27  2  0
 23 24  2  0
 23 22  1  0
 24 25  1  0
 25 26  2  0
 27 19  1  0
 27 26  1  0
 28 17  1  0
 28 29  1  0
 30 28  2  0
M  END
$$$$
