MRI.pdb
     RDKit          3D

 28 27  0  0  1  0  0  0  0  0999 V2000
   27.8346  -25.0091  -16.3213 C   0  0  0  0  0  0  0  0  0  0  0  0
   29.1979  -24.2841  -17.2392 S   0  0  0  0  0  0  0  0  0  0  0  0
   29.9604  -22.8753  -16.4976 C   0  0  0  0  0  0  0  0  0  0  0  0
   29.0844  -21.8380  -15.9412 C   0  0  0  0  0  0  0  0  0  0  0  0
   28.1909  -21.0445  -16.7950 C   0  0  2  0  0  0  0  0  0  0  0  0
   28.8185  -20.2396  -17.7806 N   0  0  0  0  0  0  0  0  0  0  0  0
   27.2308  -20.2442  -15.9443 C   0  0  0  0  0  0  0  0  0  0  0  0
   27.6351  -19.1208  -15.5328 O   0  0  0  0  0  0  0  0  0  0  0  0
   22.8670  -18.5856  -19.2222 N   0  0  0  0  0  0  0  0  0  0  0  0
   22.1486  -19.7747  -18.8459 C   0  0  0  0  0  0  0  0  0  0  0  0
   21.9232  -20.6801  -19.7335 N   0  0  0  0  0  0  0  0  0  0  0  0
   21.6825  -19.9790  -17.5300 N   0  0  0  0  0  0  0  0  0  0  0  0
   21.9483  -18.9932  -16.4752 C   0  0  0  0  0  0  0  0  0  0  0  0
   23.4513  -18.9483  -16.1923 C   0  0  0  0  0  0  0  0  0  0  0  0
   23.7069  -19.8952  -15.0793 C   0  0  0  0  0  0  0  0  0  0  0  0
   25.1384  -19.9615  -14.6184 C   0  0  2  0  0  0  0  0  0  0  0  0
   25.9512  -20.6795  -15.6018 N   0  0  0  0  0  0  0  0  0  0  0  0
   25.1581  -20.7153  -13.3215 C   0  0  0  0  0  0  0  0  0  0  0  0
   26.0019  -21.6158  -13.0974 O   0  0  0  0  0  0  0  0  0  0  0  0
   21.3693  -21.5187  -19.5141 C   0  0  0  0  0  0  0  0  0  0  0  0
   26.8352  -20.5489   -8.0879 C   0  0  0  0  0  0  0  0  0  0  0  0
   25.7262  -21.1238   -8.8969 C   0  0  2  0  0  0  0  0  0  0  0  0
   25.6301  -20.5220  -10.2893 C   0  0  0  0  0  0  0  0  0  0  0  0
   26.0243  -19.0947  -10.2319 C   0  0  2  0  0  0  0  0  0  0  0  0
   24.3310  -20.8265  -10.9092 N   0  0  0  0  0  0  0  0  0  0  0  0
   24.2109  -20.4327  -12.2899 C   0  0  0  0  0  0  0  0  0  0  0  0
   23.1327  -20.4884  -10.1124 O   0  0  0  0  0  0  0  0  0  0  0  0
   23.0012  -21.0462   -9.0002 O   0  0  0  0  0  0  0  0  0  0  0  0
  2  1  1  0
  3  2  1  0
  4  3  1  0
  4  5  1  0
  5  6  1  1
  7  8  2  0
  7  5  1  0
  9 10  1  0
 10 12  1  0
 11 10  2  0
 12 13  1  0
 13 14  1  0
 14 15  1  0
 16 15  1  6
 16 17  1  0
 17  7  1  0
 18 25  1  0
 18 16  1  0
 19 18  2  0
 20 21  1  0
 21 22  1  0
 22 24  1  0
 22 23  1  6
 24 25  1  1
 24 26  1  0
 26 28  1  0
 27 26  2  0
M  END
$$$$
