MRI.pdb
     RDKit          3D

 28 27  0  0  1  0  0  0  0  0999 V2000
   27.5388  -15.7490  -16.5610 C   0  0  0  0  0  0  0  0  0  0  0  0
   27.8357  -17.2871  -17.4401 S   0  0  0  0  0  0  0  0  0  0  0  0
   27.8320  -18.7499  -16.4520 C   0  0  0  0  0  0  0  0  0  0  0  0
   27.7442  -18.5906  -14.9960 C   0  0  0  0  0  0  0  0  0  0  0  0
   27.8218  -19.7429  -14.0887 C   0  0  2  0  0  0  0  0  0  0  0  0
   27.5216  -21.0080  -14.6563 N   0  0  0  0  0  0  0  0  0  0  0  0
   27.0095  -19.4802  -12.8408 C   0  0  0  0  0  0  0  0  0  0  0  0
   27.1698  -18.3587  -12.2826 O   0  0  0  0  0  0  0  0  0  0  0  0
   19.5878  -20.6066  -13.9349 N   0  0  0  0  0  0  0  0  0  0  0  0
   20.5469  -21.6798  -13.9362 C   0  0  0  0  0  0  0  0  0  0  0  0
   20.4884  -22.5738  -14.8612 N   0  0  0  0  0  0  0  0  0  0  0  0
   21.5524  -21.7821  -12.9518 N   0  0  0  0  0  0  0  0  0  0  0  0
   21.6770  -20.7714  -11.8945 C   0  0  0  0  0  0  0  0  0  0  0  0
   23.0120  -20.0400  -12.0490 C   0  0  0  0  0  0  0  0  0  0  0  0
   23.9830  -20.7275  -11.1629 C   0  0  0  0  0  0  0  0  0  0  0  0
   25.3413  -20.0831  -11.0887 C   0  0  2  0  0  0  0  0  0  0  0  0
   26.1141  -20.3973  -12.2918 N   0  0  0  0  0  0  0  0  0  0  0  0
   26.0440  -20.6528   -9.8918 C   0  0  0  0  0  0  0  0  0  0  0  0
   26.5008  -21.8209   -9.8921 O   0  0  0  0  0  0  0  0  0  0  0  0
   21.1670  -23.3457  -14.9034 C   0  0  0  0  0  0  0  0  0  0  0  0
   29.5816  -19.4254   -5.0836 C   0  0  0  0  0  0  0  0  0  0  0  0
   28.4796  -20.2205   -5.6902 C   0  0  2  0  0  0  0  0  0  0  0  0
   27.8914  -19.5727   -6.9332 C   0  0  0  0  0  0  0  0  0  0  0  0
   27.6287  -18.1404   -6.6588 C   0  0  2  0  0  0  0  0  0  0  0  0
   26.7688  -20.3633   -7.4615 N   0  0  0  0  0  0  0  0  0  0  0  0
   26.2184  -19.8807   -8.7025 C   0  0  0  0  0  0  0  0  0  0  0  0
   25.7271  -20.7496   -6.4865 O   0  0  0  0  0  0  0  0  0  0  0  0
   26.0916  -21.3833   -5.4711 O   0  0  0  0  0  0  0  0  0  0  0  0
  2  1  1  0
  3  2  1  0
  4  3  1  0
  4  5  1  0
  5  6  1  6
  7  8  2  0
  7  5  1  0
  9 10  1  0
 10 12  1  0
 11 10  2  0
 12 13  1  0
 13 14  1  0
 14 15  1  0
 16 15  1  6
 16 17  1  0
 17  7  1  0
 18 25  1  0
 18 16  1  0
 19 18  2  0
 20 21  1  0
 21 22  1  0
 22 24  1  0
 22 23  1  6
 24 25  1  1
 24 26  1  0
 26 28  1  0
 27 26  2  0
M  END
$$$$
