MRI.pdb
     RDKit          3D

 28 27  0  0  1  0  0  0  0  0999 V2000
   26.4812  -18.8880   -4.9883 C   0  0  0  0  0  0  0  0  0  0  0  0
   28.1398  -19.0993   -5.6448 S   0  0  0  0  0  0  0  0  0  0  0  0
   28.2947  -20.2288   -6.9925 C   0  0  0  0  0  0  0  0  0  0  0  0
   27.3480  -20.0977   -8.1060 C   0  0  0  0  0  0  0  0  0  0  0  0
   27.3930  -20.9978   -9.2657 C   0  0  2  0  0  0  0  0  0  0  0  0
   28.6703  -21.2068   -9.8468 N   0  0  0  0  0  0  0  0  0  0  0  0
   26.3701  -20.5740  -10.2952 C   0  0  0  0  0  0  0  0  0  0  0  0
   26.4878  -19.4092  -10.7690 O   0  0  0  0  0  0  0  0  0  0  0  0
   25.4193  -25.8941  -16.1535 N   0  0  0  0  0  0  0  0  0  0  0  0
   24.4797  -25.6822  -15.0839 C   0  0  0  0  0  0  0  0  0  0  0  0
   23.7323  -26.6586  -14.7013 N   0  0  0  0  0  0  0  0  0  0  0  0
   24.3523  -24.4332  -14.4401 N   0  0  0  0  0  0  0  0  0  0  0  0
   24.5769  -23.1815  -15.1733 C   0  0  0  0  0  0  0  0  0  0  0  0
   24.1759  -21.9989  -14.2892 C   0  0  0  0  0  0  0  0  0  0  0  0
   24.8471  -22.1942  -12.9808 C   0  0  0  0  0  0  0  0  0  0  0  0
   24.6034  -21.1027  -11.9732 C   0  0  2  0  0  0  0  0  0  0  0  0
   25.3284  -21.3903  -10.7342 N   0  0  0  0  0  0  0  0  0  0  0  0
   23.1312  -21.0777  -11.6855 C   0  0  0  0  0  0  0  0  0  0  0  0
   22.6544  -21.6042  -10.6518 O   0  0  0  0  0  0  0  0  0  0  0  0
   23.0697  -26.5520  -13.9218 C   0  0  0  0  0  0  0  0  0  0  0  0
   20.5850  -16.5164  -12.3298 C   0  0  0  0  0  0  0  0  0  0  0  0
   20.9939  -17.8900  -11.9292 C   0  0  2  0  0  0  0  0  0  0  0  0
   20.2536  -18.9781  -12.6899 C   0  0  0  0  0  0  0  0  0  0  0  0
   18.7945  -18.7924  -12.5097 C   0  0  2  0  0  0  0  0  0  0  0  0
   20.7967  -20.3084  -12.3736 N   0  0  0  0  0  0  0  0  0  0  0  0
   22.2150  -20.4498  -12.5840 C   0  0  0  0  0  0  0  0  0  0  0  0
   20.0261  -21.4644  -12.8785 O   0  0  0  0  0  0  0  0  0  0  0  0
   20.2724  -21.8615  -14.0391 O   0  0  0  0  0  0  0  0  0  0  0  0
  2  1  1  0
  3  2  1  0
  4  3  1  0
  4  5  1  0
  5  6  1  6
  7  8  2  0
  7  5  1  0
  9 10  1  0
 10 12  1  0
 11 10  2  0
 12 13  1  0
 13 14  1  0
 14 15  1  0
 16 15  1  6
 16 17  1  0
 17  7  1  0
 18 25  1  0
 18 16  1  0
 19 18  2  0
 20 21  1  0
 21 22  1  0
 22 24  1  0
 22 23  1  6
 24 25  1  1
 24 26  1  0
 26 28  1  0
 27 26  2  0
M  END
$$$$
