MRI.pdb
     RDKit          3D

 28 27  0  0  1  0  0  0  0  0999 V2000
   30.2154  -16.7301  -15.8998 C   0  0  0  0  0  0  0  0  0  0  0  0
   29.7313  -18.0650  -16.9999 S   0  0  0  0  0  0  0  0  0  0  0  0
   28.1821  -18.8320  -16.6421 C   0  0  0  0  0  0  0  0  0  0  0  0
   27.6801  -18.7485  -15.2658 C   0  0  0  0  0  0  0  0  0  0  0  0
   28.0755  -19.7232  -14.2409 C   0  0  2  0  0  0  0  0  0  0  0  0
   28.0388  -21.0878  -14.6273 N   0  0  0  0  0  0  0  0  0  0  0  0
   27.3032  -19.4801  -12.9640 C   0  0  0  0  0  0  0  0  0  0  0  0
   27.2927  -18.2974  -12.5212 O   0  0  0  0  0  0  0  0  0  0  0  0
   19.6324  -21.9215  -12.9737 N   0  0  0  0  0  0  0  0  0  0  0  0
   20.7085  -21.1526  -13.5418 C   0  0  0  0  0  0  0  0  0  0  0  0
   20.7050  -20.9050  -14.8056 N   0  0  0  0  0  0  0  0  0  0  0  0
   21.7701  -20.6605  -12.7536 N   0  0  0  0  0  0  0  0  0  0  0  0
   21.8965  -21.0373  -11.3405 C   0  0  0  0  0  0  0  0  0  0  0  0
   23.1511  -20.3867  -10.7541 C   0  0  0  0  0  0  0  0  0  0  0  0
   24.2671  -20.6927  -11.6823 C   0  0  0  0  0  0  0  0  0  0  0  0
   25.6076  -20.1511  -11.2636 C   0  0  2  0  0  0  0  0  0  0  0  0
   26.6194  -20.4777  -12.2702 N   0  0  0  0  0  0  0  0  0  0  0  0
   25.9742  -20.8119   -9.9676 C   0  0  0  0  0  0  0  0  0  0  0  0
   26.1840  -22.0463   -9.8954 O   0  0  0  0  0  0  0  0  0  0  0  0
   21.4868  -20.4115  -15.2565 C   0  0  0  0  0  0  0  0  0  0  0  0
   29.3964  -18.6424   -6.4770 C   0  0  0  0  0  0  0  0  0  0  0  0
   28.5381  -19.6053   -7.2190 C   0  0  2  0  0  0  0  0  0  0  0  0
   27.1783  -19.8130   -6.5722 C   0  0  0  0  0  0  0  0  0  0  0  0
   27.3671  -20.3092   -5.1888 C   0  0  2  0  0  0  0  0  0  0  0  0
   26.2921  -20.6002   -7.4437 N   0  0  0  0  0  0  0  0  0  0  0  0
   26.0976  -20.0540   -8.7627 C   0  0  0  0  0  0  0  0  0  0  0  0
   25.0344  -21.0798   -6.8329 O   0  0  0  0  0  0  0  0  0  0  0  0
   25.1245  -21.8139   -5.8237 O   0  0  0  0  0  0  0  0  0  0  0  0
  2  1  1  0
  3  2  1  0
  4  3  1  0
  4  5  1  0
  5  6  1  6
  7  8  2  0
  7  5  1  0
  9 10  1  0
 10 12  1  0
 11 10  2  0
 12 13  1  0
 13 14  1  0
 14 15  1  0
 16 15  1  6
 16 17  1  0
 17  7  1  0
 18 25  1  0
 18 16  1  0
 19 18  2  0
 20 21  1  0
 21 22  1  0
 22 24  1  0
 22 23  1  6
 24 25  1  6
 24 26  1  0
 26 28  1  0
 27 26  2  0
M  END
$$$$
