MRI.pdb
     RDKit          3D

 28 27  0  0  1  0  0  0  0  0999 V2000
   21.1474  -18.9470  -13.6575 C   0  0  0  0  0  0  0  0  0  0  0  0
   21.3431  -19.0564  -15.4397 S   0  0  0  0  0  0  0  0  0  0  0  0
   21.6568  -20.6710  -16.0806 C   0  0  0  0  0  0  0  0  0  0  0  0
   20.8978  -21.7910  -15.5124 C   0  0  0  0  0  0  0  0  0  0  0  0
   21.2454  -23.1867  -15.8090 C   0  0  2  0  0  0  0  0  0  0  0  0
   21.3326  -23.5319  -17.1824 N   0  0  0  0  0  0  0  0  0  0  0  0
   20.3329  -24.1242  -15.0511 C   0  0  0  0  0  0  0  0  0  0  0  0
   19.2718  -24.4819  -15.6351 O   0  0  0  0  0  0  0  0  0  0  0  0
   19.2688  -30.5897   -9.8448 N   0  0  0  0  0  0  0  0  0  0  0  0
   20.3081  -30.3245  -10.8047 C   0  0  0  0  0  0  0  0  0  0  0  0
   20.7751  -31.2957  -11.5097 N   0  0  0  0  0  0  0  0  0  0  0  0
   20.8321  -29.0288  -10.9971 N   0  0  0  0  0  0  0  0  0  0  0  0
   20.3279  -27.8894  -10.2208 C   0  0  0  0  0  0  0  0  0  0  0  0
   19.4321  -27.0270  -11.1124 C   0  0  0  0  0  0  0  0  0  0  0  0
   20.3303  -26.2661  -12.0152 C   0  0  0  0  0  0  0  0  0  0  0  0
   19.6283  -25.4074  -13.0329 C   0  0  2  0  0  0  0  0  0  0  0  0
   20.6029  -24.5997  -13.7685 N   0  0  0  0  0  0  0  0  0  0  0  0
   18.6990  -24.4959  -12.2871 C   0  0  0  0  0  0  0  0  0  0  0  0
   19.1304  -23.5813  -11.5451 O   0  0  0  0  0  0  0  0  0  0  0  0
   21.5452  -31.1513  -12.1762 C   0  0  0  0  0  0  0  0  0  0  0  0
   14.2250  -23.6178  -14.7318 C   0  0  0  0  0  0  0  0  0  0  0  0
   15.2220  -23.1214  -13.7447 C   0  0  2  0  0  0  0  0  0  0  0  0
   15.0169  -23.6931  -12.3513 C   0  0  0  0  0  0  0  0  0  0  0  0
   13.9878  -22.8956  -11.6436 C   0  0  2  0  0  0  0  0  0  0  0  0
   16.3027  -23.8788  -11.6607 N   0  0  0  0  0  0  0  0  0  0  0  0
   17.2816  -24.6383  -12.3960 C   0  0  0  0  0  0  0  0  0  0  0  0
   16.2280  -24.2695  -10.2370 O   0  0  0  0  0  0  0  0  0  0  0  0
   16.3284  -25.4866   -9.9651 O   0  0  0  0  0  0  0  0  0  0  0  0
  2  1  1  0
  3  2  1  0
  4  3  1  0
  4  5  1  0
  5  6  1  6
  7  8  2  0
  7  5  1  0
  9 10  1  0
 10 12  1  0
 11 10  2  0
 12 13  1  0
 13 14  1  0
 14 15  1  0
 16 15  1  1
 16 17  1  0
 17  7  1  0
 18 25  1  0
 18 16  1  0
 19 18  2  0
 20 21  1  0
 21 22  1  0
 22 24  1  0
 22 23  1  1
 24 25  1  1
 24 26  1  0
 26 28  1  0
 27 26  2  0
M  END
$$$$
