MRI.pdb
     RDKit          3D

 28 27  0  0  1  0  0  0  0  0999 V2000
   18.2459  -23.4054  -11.4248 C   0  0  0  0  0  0  0  0  0  0  0  0
   18.1891  -23.3148   -9.6317 S   0  0  0  0  0  0  0  0  0  0  0  0
   19.6895  -22.8287   -8.8390 C   0  0  0  0  0  0  0  0  0  0  0  0
   20.6211  -21.9862   -9.5976 C   0  0  0  0  0  0  0  0  0  0  0  0
   21.9765  -21.7022   -9.1083 C   0  0  2  0  0  0  0  0  0  0  0  0
   22.0652  -21.0774   -7.8376 N   0  0  0  0  0  0  0  0  0  0  0  0
   22.7643  -20.9528  -10.1589 C   0  0  0  0  0  0  0  0  0  0  0  0
   22.7536  -19.6920  -10.0871 O   0  0  0  0  0  0  0  0  0  0  0  0
   28.6293  -19.4292  -11.9955 N   0  0  0  0  0  0  0  0  0  0  0  0
   29.1565  -20.7383  -12.2781 C   0  0  0  0  0  0  0  0  0  0  0  0
   29.9335  -21.3017  -11.4196 N   0  0  0  0  0  0  0  0  0  0  0  0
   28.8468  -21.4251  -13.4710 N   0  0  0  0  0  0  0  0  0  0  0  0
   27.4620  -21.5173  -13.9493 C   0  0  0  0  0  0  0  0  0  0  0  0
   26.5705  -20.6151  -13.0934 C   0  0  0  0  0  0  0  0  0  0  0  0
   25.5342  -21.4866  -12.4871 C   0  0  0  0  0  0  0  0  0  0  0  0
   24.2343  -20.7985  -12.1667 C   0  0  2  0  0  0  0  0  0  0  0  0
   23.4838  -21.5752  -11.1783 N   0  0  0  0  0  0  0  0  0  0  0  0
   23.4404  -20.7242  -13.4375 C   0  0  0  0  0  0  0  0  0  0  0  0
   22.8367  -21.7239  -13.8949 O   0  0  0  0  0  0  0  0  0  0  0  0
   30.3666  -22.2155  -11.6081 C   0  0  0  0  0  0  0  0  0  0  0  0
   20.6353  -16.2475  -14.5177 C   0  0  0  0  0  0  0  0  0  0  0  0
   21.1356  -17.6477  -14.4556 C   0  0  2  0  0  0  0  0  0  0  0  0
   22.0405  -18.0098  -15.6219 C   0  0  0  0  0  0  0  0  0  0  0  0
   21.3097  -17.7910  -16.8923 C   0  0  2  0  0  0  0  0  0  0  0  0
   22.6504  -19.3345  -15.4276 N   0  0  0  0  0  0  0  0  0  0  0  0
   23.3436  -19.5050  -14.1761 C   0  0  0  0  0  0  0  0  0  0  0  0
   23.4026  -19.8813  -16.5766 O   0  0  0  0  0  0  0  0  0  0  0  0
   24.6356  -19.6715  -16.6134 O   0  0  0  0  0  0  0  0  0  0  0  0
  2  1  1  0
  3  2  1  0
  4  3  1  0
  4  5  1  0
  5  6  1  1
  7  8  2  0
  7  5  1  0
  9 10  1  0
 10 12  1  0
 11 10  2  0
 12 13  1  0
 13 14  1  0
 14 15  1  0
 16 15  1  6
 16 17  1  0
 17  7  1  0
 18 25  1  0
 18 16  1  0
 19 18  2  0
 20 21  1  0
 21 22  1  0
 22 24  1  0
 22 23  1  1
 24 25  1  6
 24 26  1  0
 26 28  1  0
 27 26  2  0
M  END
$$$$
