MRI.pdb
     RDKit          3D

 28 27  0  0  1  0  0  0  0  0999 V2000
   17.9678  -19.6104  -14.9829 C   0  0  0  0  0  0  0  0  0  0  0  0
   18.7283  -18.9396  -16.4656 S   0  0  0  0  0  0  0  0  0  0  0  0
   20.4276  -19.3500  -16.7106 C   0  0  0  0  0  0  0  0  0  0  0  0
   21.0656  -20.2333  -15.7278 C   0  0  0  0  0  0  0  0  0  0  0  0
   21.6316  -21.5327  -16.1126 C   0  0  2  0  0  0  0  0  0  0  0  0
   20.7154  -22.6120  -16.2052 N   0  0  0  0  0  0  0  0  0  0  0  0
   22.8104  -21.8710  -15.2283 C   0  0  0  0  0  0  0  0  0  0  0  0
   22.6153  -22.7297  -14.3231 O   0  0  0  0  0  0  0  0  0  0  0  0
   28.4449  -20.6988  -17.5725 N   0  0  0  0  0  0  0  0  0  0  0  0
   29.2328  -21.6781  -16.8711 C   0  0  0  0  0  0  0  0  0  0  0  0
   29.7954  -22.6261  -17.5369 N   0  0  0  0  0  0  0  0  0  0  0  0
   29.4080  -21.6307  -15.4720 N   0  0  0  0  0  0  0  0  0  0  0  0
   28.8112  -20.5526  -14.6743 C   0  0  0  0  0  0  0  0  0  0  0  0
   27.5748  -21.0862  -13.9479 C   0  0  0  0  0  0  0  0  0  0  0  0
   26.4440  -20.9981  -14.9041 C   0  0  0  0  0  0  0  0  0  0  0  0
   25.1413  -21.5591  -14.4000 C   0  0  2  0  0  0  0  0  0  0  0  0
   24.0717  -21.2921  -15.3634 N   0  0  0  0  0  0  0  0  0  0  0  0
   24.8229  -20.8647  -13.1088 C   0  0  0  0  0  0  0  0  0  0  0  0
   24.3815  -19.6910  -13.0851 O   0  0  0  0  0  0  0  0  0  0  0  0
   30.3086  -23.3814  -17.0634 C   0  0  0  0  0  0  0  0  0  0  0  0
   28.2426  -20.4976   -9.3995 C   0  0  0  0  0  0  0  0  0  0  0  0
   27.0588  -21.1530  -10.0190 C   0  0  2  0  0  0  0  0  0  0  0  0
   25.7722  -20.3677   -9.8233 C   0  0  0  0  0  0  0  0  0  0  0  0
   25.5608  -20.1310   -8.3758 C   0  0  2  0  0  0  0  0  0  0  0  0
   24.6592  -20.9817  -10.5642 N   0  0  0  0  0  0  0  0  0  0  0  0
   25.0126  -21.5195  -11.8532 C   0  0  0  0  0  0  0  0  0  0  0  0
   23.3936  -20.2184  -10.5911 O   0  0  0  0  0  0  0  0  0  0  0  0
   23.3112  -19.2631  -11.3949 O   0  0  0  0  0  0  0  0  0  0  0  0
  2  1  1  0
  3  2  1  0
  4  3  1  0
  4  5  1  0
  5  6  1  1
  7  8  2  0
  7  5  1  0
  9 10  1  0
 10 12  1  0
 11 10  2  0
 12 13  1  0
 13 14  1  0
 14 15  1  0
 16 15  1  6
 16 17  1  0
 17  7  1  0
 18 25  1  0
 18 16  1  0
 19 18  2  0
 20 21  1  0
 21 22  1  0
 22 24  1  0
 22 23  1  6
 24 25  1  1
 24 26  1  0
 26 28  1  0
 27 26  2  0
M  END
$$$$
