MRI.pdb
     RDKit          3D

 28 27  0  0  1  0  0  0  0  0999 V2000
   36.8293   -3.0588   -0.0016 C   0  0  0  0  0  0  0  0  0  0  0  0
   37.5394   -3.7728   -1.4890 S   0  0  0  0  0  0  0  0  0  0  0  0
   39.2488   -4.2031   -1.3944 C   0  0  0  0  0  0  0  0  0  0  0  0
   39.8588   -4.8404   -2.5670 C   0  0  0  0  0  0  0  0  0  0  0  0
   41.2343   -5.3543   -2.5364 C   0  0  2  0  0  0  0  0  0  0  0  0
   42.2319   -4.4471   -2.0952 N   0  0  0  0  0  0  0  0  0  0  0  0
   41.5892   -5.9752   -3.8685 C   0  0  0  0  0  0  0  0  0  0  0  0
   41.9596   -5.1873   -4.7833 O   0  0  0  0  0  0  0  0  0  0  0  0
   46.5754  -12.0485   -6.2784 N   0  0  0  0  0  0  0  0  0  0  0  0
   45.7012  -12.1769   -7.4147 C   0  0  0  0  0  0  0  0  0  0  0  0
   46.1389  -12.7471   -8.4831 N   0  0  0  0  0  0  0  0  0  0  0  0
   44.3751  -11.6955   -7.3932 N   0  0  0  0  0  0  0  0  0  0  0  0
   43.8135  -11.0891   -6.1800 C   0  0  0  0  0  0  0  0  0  0  0  0
   43.0710   -9.8047   -6.5540 C   0  0  0  0  0  0  0  0  0  0  0  0
   42.6015   -9.1955   -5.2855 C   0  0  0  0  0  0  0  0  0  0  0  0
   41.8698   -7.8893   -5.4413 C   0  0  2  0  0  0  0  0  0  0  0  0
   41.5274   -7.3441   -4.1264 N   0  0  0  0  0  0  0  0  0  0  0  0
   40.6063   -8.1700   -6.1999 C   0  0  0  0  0  0  0  0  0  0  0  0
   39.8276   -9.0932   -5.8614 O   0  0  0  0  0  0  0  0  0  0  0  0
   45.5647  -12.8011   -9.3348 C   0  0  0  0  0  0  0  0  0  0  0  0
   36.5791   -5.5071   -6.1699 C   0  0  0  0  0  0  0  0  0  0  0  0
   37.7099   -6.4348   -6.4444 C   0  0  2  0  0  0  0  0  0  0  0  0
   37.9924   -6.6078   -7.9278 C   0  0  0  0  0  0  0  0  0  0  0  0
   36.7161   -6.8430   -8.6431 C   0  0  2  0  0  0  0  0  0  0  0  0
   39.0678   -7.5866   -8.1514 N   0  0  0  0  0  0  0  0  0  0  0  0
   40.2433   -7.3914   -7.3415 C   0  0  0  0  0  0  0  0  0  0  0  0
   39.3898   -7.8913   -9.5616 O   0  0  0  0  0  0  0  0  0  0  0  0
   40.3327   -7.2602  -10.0891 O   0  0  0  0  0  0  0  0  0  0  0  0
  2  1  1  0
  3  2  1  0
  4  3  1  0
  4  5  1  0
  5  6  1  6
  7  8  2  0
  7  5  1  0
  9 10  1  0
 10 12  1  0
 11 10  2  0
 12 13  1  0
 13 14  1  0
 14 15  1  0
 16 15  1  1
 16 17  1  0
 17  7  1  0
 18 25  1  0
 18 16  1  0
 19 18  2  0
 20 21  1  0
 21 22  1  0
 22 24  1  0
 22 23  1  6
 24 25  1  1
 24 26  1  0
 26 28  1  0
 27 26  2  0
M  END
$$$$
