MRI.pdb
     RDKit          3D

 28 27  0  0  1  0  0  0  0  0999 V2000
   23.2131  -21.7574  -19.5679 C   0  0  0  0  0  0  0  0  0  0  0  0
   24.1701  -20.4690  -20.3746 S   0  0  0  0  0  0  0  0  0  0  0  0
   25.2278  -19.5249  -19.3229 C   0  0  0  0  0  0  0  0  0  0  0  0
   25.3777  -19.9656  -17.9314 C   0  0  0  0  0  0  0  0  0  0  0  0
   26.0269  -19.1202  -16.9210 C   0  0  2  0  0  0  0  0  0  0  0  0
   27.1952  -18.4315  -17.3378 N   0  0  0  0  0  0  0  0  0  0  0  0
   26.2625  -19.9096  -15.6532 C   0  0  0  0  0  0  0  0  0  0  0  0
   25.2902  -20.5856  -15.2143 O   0  0  0  0  0  0  0  0  0  0  0  0
   32.7349  -21.4879  -11.3030 N   0  0  0  0  0  0  0  0  0  0  0  0
   32.5639  -22.5053  -12.3068 C   0  0  0  0  0  0  0  0  0  0  0  0
   33.0041  -23.6938  -12.0784 N   0  0  0  0  0  0  0  0  0  0  0  0
   31.9266  -22.2391  -13.5370 N   0  0  0  0  0  0  0  0  0  0  0  0
   31.4802  -20.8823  -13.8760 C   0  0  0  0  0  0  0  0  0  0  0  0
   30.0783  -20.9489  -14.4854 C   0  0  0  0  0  0  0  0  0  0  0  0
   29.1169  -20.7572  -13.3720 C   0  0  0  0  0  0  0  0  0  0  0  0
   27.6673  -20.7605  -13.7774 C   0  0  2  0  0  0  0  0  0  0  0  0
   27.4743  -19.9244  -14.9636 N   0  0  0  0  0  0  0  0  0  0  0  0
   26.8808  -20.1835  -12.6375 C   0  0  0  0  0  0  0  0  0  0  0  0
   26.9189  -18.9597  -12.3656 O   0  0  0  0  0  0  0  0  0  0  0  0
   32.9322  -24.4365  -12.7863 C   0  0  0  0  0  0  0  0  0  0  0  0
   21.8723  -21.2814  -12.2927 C   0  0  0  0  0  0  0  0  0  0  0  0
   23.2241  -20.6838  -12.1186 C   0  0  2  0  0  0  0  0  0  0  0  0
   23.8398  -20.9868  -10.7624 C   0  0  0  0  0  0  0  0  0  0  0  0
   22.9486  -20.4719   -9.6963 C   0  0  2  0  0  0  0  0  0  0  0  0
   25.2473  -20.5613  -10.7128 N   0  0  0  0  0  0  0  0  0  0  0  0
   26.0562  -21.0124  -11.8165 C   0  0  0  0  0  0  0  0  0  0  0  0
   25.9275  -20.7077   -9.4087 O   0  0  0  0  0  0  0  0  0  0  0  0
   26.8126  -21.5869   -9.3132 O   0  0  0  0  0  0  0  0  0  0  0  0
  2  1  1  0
  3  2  1  0
  4  3  1  0
  4  5  1  0
  5  6  1  6
  7  8  2  0
  7  5  1  0
  9 10  1  0
 10 12  1  0
 11 10  2  0
 12 13  1  0
 13 14  1  0
 14 15  1  0
 16 15  1  1
 16 17  1  0
 17  7  1  0
 18 25  1  0
 18 16  1  0
 19 18  2  0
 20 21  1  0
 21 22  1  0
 22 24  1  0
 22 23  1  1
 24 25  1  6
 24 26  1  0
 26 28  1  0
 27 26  2  0
M  END
$$$$
