QCH.pdb
     RDKit          3D

 26 26  0  0  1  0  0  0  0  0999 V2000
   12.9723  -12.8695  -12.8327 N   0  0  0  0  0  0  0  0  0  0  0  0
   13.4187  -13.5242  -14.0050 C   0  0  0  0  0  0  0  0  0  0  0  0
   12.6729  -14.3021  -14.6020 O   0  0  0  0  0  0  0  0  0  0  0  0
   14.8180  -13.2246  -14.4685 C   0  0  0  0  0  0  0  0  0  0  0  0
   15.4441  -12.1453  -13.6556 C   0  0  0  0  0  0  0  0  0  0  0  0
   16.4887  -11.4278  -14.4459 C   0  0  2  0  0  0  0  0  0  0  0  0
   17.5195  -12.3891  -14.8986 N   0  0  0  0  0  0  0  0  0  0  0  0
   17.1793  -10.3392  -13.7401 C   0  0  0  0  0  0  0  0  0  0  0  0
   17.8059  -10.5240  -12.6707 O   0  0  0  0  0  0  0  0  0  0  0  0
   17.1755   -8.9911  -14.2395 N   0  0  0  0  0  0  0  0  0  0  0  0
   17.9352   -7.9709  -13.5495 C   0  0  1  0  0  0  0  0  0  0  0  0
   18.9491   -7.3689  -14.5184 C   0  0  0  0  0  0  0  0  0  0  0  0
   20.3310   -8.5660  -14.6194 S   0  0  0  0  0  0  0  0  0  0  0  0
   17.0454   -6.8584  -13.0855 C   0  0  0  0  0  0  0  0  0  0  0  0
   16.0774   -6.5342  -13.7916 O   0  0  0  0  0  0  0  0  0  0  0  0
   17.2883   -6.1737  -11.8617 N   0  0  0  0  0  0  0  0  0  0  0  0
   16.4188   -5.1227  -11.3819 C   0  0  1  0  0  0  0  0  0  0  0  0
   16.5719   -5.0423   -9.8947 C   0  0  0  0  0  0  0  0  0  0  0  0
   15.8453   -6.0974   -9.1529 C   0  0  0  0  0  0  0  0  0  0  0  0
   15.1015   -7.0873   -9.7588 C   0  0  0  0  0  0  0  0  0  0  0  0
   14.5997   -7.8446   -8.7696 N   0  0  0  0  0  0  0  0  0  0  0  0
   14.9983   -7.3697   -7.5776 C   0  0  0  0  0  0  0  0  0  0  0  0
   15.7652   -6.2934   -7.8233 N   0  0  0  0  0  0  0  0  0  0  0  0
   16.6709   -3.8357  -12.0727 C   0  0  0  0  0  0  0  0  0  0  0  0
   17.8014   -3.5461  -12.5395 O   0  0  0  0  0  0  0  0  0  0  0  0
   15.6788   -2.8675  -12.2499 O   0  0  0  0  0  0  0  0  0  0  0  0
  1  2  1  0
  2  3  2  0
  4  2  1  0
  4  5  1  0
  6  5  1  0
  6  7  1  1
  8  9  2  0
  8  6  1  0
 10  8  1  0
 11 10  1  0
 11 12  1  6
 13 12  1  0
 14 11  1  0
 15 14  2  0
 16 14  1  0
 17 16  1  0
 17 18  1  1
 18 19  1  0
 19 23  1  0
 20 19  2  0
 20 21  1  0
 21 22  1  0
 23 22  2  0
 24 17  1  0
 25 24  2  0
 26 24  1  0
M  END
$$$$
