QCH.pdb
     RDKit          3D

 26 26  0  0  1  0  0  0  0  0999 V2000
   18.0571  -15.2467  -14.5013 N   0  0  0  0  0  0  0  0  0  0  0  0
   17.6558  -15.7302  -15.7692 C   0  0  0  0  0  0  0  0  0  0  0  0
   16.5538  -16.2631  -15.9082 O   0  0  0  0  0  0  0  0  0  0  0  0
   18.6250  -15.5610  -16.9070 C   0  0  0  0  0  0  0  0  0  0  0  0
   19.8402  -14.8116  -16.4835 C   0  0  0  0  0  0  0  0  0  0  0  0
   20.0314  -13.5951  -17.3285 C   0  0  2  0  0  0  0  0  0  0  0  0
   20.6666  -13.9735  -18.6110 N   0  0  0  0  0  0  0  0  0  0  0  0
   20.8474  -12.5300  -16.7286 C   0  0  0  0  0  0  0  0  0  0  0  0
   21.8359  -12.7730  -15.9978 O   0  0  0  0  0  0  0  0  0  0  0  0
   20.5562  -11.1392  -16.9474 N   0  0  0  0  0  0  0  0  0  0  0  0
   21.4053  -10.1291  -16.3535 C   0  0  1  0  0  0  0  0  0  0  0  0
   22.3680   -9.6052  -17.4156 C   0  0  0  0  0  0  0  0  0  0  0  0
   23.4413   -8.3840  -16.5732 S   0  0  0  0  0  0  0  0  0  0  0  0
   20.5978   -8.9639  -15.8688 C   0  0  0  0  0  0  0  0  0  0  0  0
   19.7458   -8.4720  -16.6256 O   0  0  0  0  0  0  0  0  0  0  0  0
   20.7886   -8.4168  -14.5688 N   0  0  0  0  0  0  0  0  0  0  0  0
   19.9947   -7.3145  -14.0734 C   0  0  1  0  0  0  0  0  0  0  0  0
   19.7696   -7.5315  -12.6092 C   0  0  0  0  0  0  0  0  0  0  0  0
   18.7395   -8.5482  -12.2987 C   0  0  0  0  0  0  0  0  0  0  0  0
   18.1027   -9.3114  -13.2538 C   0  0  0  0  0  0  0  0  0  0  0  0
   17.2457  -10.1079  -12.5941 N   0  0  0  0  0  0  0  0  0  0  0  0
   17.3218   -9.8735  -11.2733 C   0  0  0  0  0  0  0  0  0  0  0  0
   18.2445   -8.9113  -11.1004 N   0  0  0  0  0  0  0  0  0  0  0  0
   20.6087   -6.0029  -14.3893 C   0  0  0  0  0  0  0  0  0  0  0  0
   21.8101   -5.9036  -14.7448 O   0  0  0  0  0  0  0  0  0  0  0  0
   19.9004   -4.8005  -14.3140 O   0  0  0  0  0  0  0  0  0  0  0  0
  1  2  1  0
  2  3  2  0
  4  2  1  0
  4  5  1  0
  6  5  1  0
  6  7  1  6
  8  9  2  0
  8  6  1  0
 10  8  1  0
 11 10  1  0
 11 12  1  6
 13 12  1  0
 14 11  1  0
 15 14  2  0
 16 14  1  0
 17 16  1  0
 17 18  1  1
 18 19  1  0
 19 23  1  0
 20 19  2  0
 20 21  1  0
 21 22  1  0
 23 22  2  0
 24 17  1  0
 25 24  2  0
 26 24  1  0
M  END
$$$$
