QCH.pdb
     RDKit          3D

 26 26  0  0  1  0  0  0  0  0999 V2000
   26.6228  -20.5437  -10.0758 N   0  0  0  0  0  0  0  0  0  0  0  0
   25.3625  -21.0926   -9.7401 C   0  0  0  0  0  0  0  0  0  0  0  0
   25.2584  -21.8671   -8.7876 O   0  0  0  0  0  0  0  0  0  0  0  0
   24.1888  -20.6878  -10.5893 C   0  0  0  0  0  0  0  0  0  0  0  0
   24.5766  -19.6782  -11.6129 C   0  0  0  0  0  0  0  0  0  0  0  0
   24.3349  -20.2031  -12.9901 C   0  0  2  0  0  0  0  0  0  0  0  0
   24.9346  -21.5502  -13.1226 N   0  0  0  0  0  0  0  0  0  0  0  0
   24.8620  -19.3752  -14.0841 C   0  0  0  0  0  0  0  0  0  0  0  0
   24.4522  -18.2113  -14.3023 O   0  0  0  0  0  0  0  0  0  0  0  0
   25.8848  -19.8567  -14.9725 N   0  0  0  0  0  0  0  0  0  0  0  0
   26.3853  -18.9937  -16.0207 C   0  0  1  0  0  0  0  0  0  0  0  0
   27.9087  -18.9484  -15.9388 C   0  0  0  0  0  0  0  0  0  0  0  0
   28.4497  -17.7164  -17.1807 S   0  0  0  0  0  0  0  0  0  0  0  0
   26.0263  -19.5266  -17.3741 C   0  0  0  0  0  0  0  0  0  0  0  0
   26.1321  -20.7455  -17.5830 O   0  0  0  0  0  0  0  0  0  0  0  0
   25.5707  -18.6681  -18.4139 N   0  0  0  0  0  0  0  0  0  0  0  0
   25.2258  -19.1655  -19.7271 C   0  0  1  0  0  0  0  0  0  0  0  0
   24.1796  -18.2614  -20.3011 C   0  0  0  0  0  0  0  0  0  0  0  0
   22.8513  -18.3879  -19.6599 C   0  0  0  0  0  0  0  0  0  0  0  0
   22.5602  -19.3057  -18.6734 C   0  0  0  0  0  0  0  0  0  0  0  0
   21.2706  -19.1178  -18.3486 N   0  0  0  0  0  0  0  0  0  0  0  0
   20.7484  -18.1254  -19.0887 C   0  0  0  0  0  0  0  0  0  0  0  0
   21.7292  -17.6816  -19.8937 N   0  0  0  0  0  0  0  0  0  0  0  0
   26.4186  -19.3152  -20.5943 C   0  0  0  0  0  0  0  0  0  0  0  0
   27.5081  -18.7504  -20.3234 O   0  0  0  0  0  0  0  0  0  0  0  0
   26.4120  -20.0866  -21.7597 O   0  0  0  0  0  0  0  0  0  0  0  0
  1  2  1  0
  2  3  2  0
  4  2  1  0
  4  5  1  0
  6  5  1  0
  6  7  1  1
  8  9  2  0
  8  6  1  0
 10  8  1  0
 11 10  1  0
 11 12  1  6
 13 12  1  0
 14 11  1  0
 15 14  2  0
 16 14  1  0
 17 16  1  0
 17 18  1  6
 18 19  1  0
 19 23  1  0
 20 19  2  0
 20 21  1  0
 21 22  1  0
 23 22  2  0
 24 17  1  0
 25 24  2  0
 26 24  1  0
M  END
$$$$
