QCH.pdb
     RDKit          3D

 26 26  0  0  1  0  0  0  0  0999 V2000
   28.3090   -9.9047  -16.7697 N   0  0  0  0  0  0  0  0  0  0  0  0
   28.3524  -11.3066  -16.9568 C   0  0  0  0  0  0  0  0  0  0  0  0
   29.4359  -11.8891  -17.0237 O   0  0  0  0  0  0  0  0  0  0  0  0
   27.0359  -12.0260  -17.0666 C   0  0  0  0  0  0  0  0  0  0  0  0
   25.8874  -11.0845  -16.9568 C   0  0  0  0  0  0  0  0  0  0  0  0
   24.5912  -11.8172  -17.0739 C   0  0  2  0  0  0  0  0  0  0  0  0
   24.5716  -12.5979  -18.3315 N   0  0  0  0  0  0  0  0  0  0  0  0
   23.3856  -10.9767  -17.0568 C   0  0  0  0  0  0  0  0  0  0  0  0
   22.8821  -10.5044  -18.1025 O   0  0  0  0  0  0  0  0  0  0  0  0
   22.7107  -10.6463  -15.8311 N   0  0  0  0  0  0  0  0  0  0  0  0
   21.5235   -9.8199  -15.8692 C   0  0  1  0  0  0  0  0  0  0  0  0
   20.4699  -10.4246  -14.9453 C   0  0  0  0  0  0  0  0  0  0  0  0
   20.2585  -12.1626  -15.4816 S   0  0  0  0  0  0  0  0  0  0  0  0
   21.8138   -8.4370  -15.3711 C   0  0  0  0  0  0  0  0  0  0  0  0
   22.9111   -8.2135  -14.8358 O   0  0  0  0  0  0  0  0  0  0  0  0
   20.8629   -7.3859  -15.4997 N   0  0  0  0  0  0  0  0  0  0  0  0
   21.2199   -5.9975  -15.3105 C   0  0  1  0  0  0  0  0  0  0  0  0
   22.3816   -5.6954  -16.2053 C   0  0  0  0  0  0  0  0  0  0  0  0
   22.8462   -4.2912  -16.1417 C   0  0  0  0  0  0  0  0  0  0  0  0
   22.7095   -3.4877  -15.0300 C   0  0  0  0  0  0  0  0  0  0  0  0
   23.2425   -2.2981  -15.3534 N   0  0  0  0  0  0  0  0  0  0  0  0
   23.7037   -2.3270  -16.6151 C   0  0  0  0  0  0  0  0  0  0  0  0
   23.4554   -3.5587  -17.0930 N   0  0  0  0  0  0  0  0  0  0  0  0
   20.0630   -5.0942  -15.5178 C   0  0  0  0  0  0  0  0  0  0  0  0
   19.4045   -5.0983  -16.5883 O   0  0  0  0  0  0  0  0  0  0  0  0
   19.6311   -4.1865  -14.5470 O   0  0  0  0  0  0  0  0  0  0  0  0
  1  2  1  0
  2  3  2  0
  4  2  1  0
  4  5  1  0
  6  5  1  0
  6  7  1  6
  8  9  2  0
  8  6  1  0
 10  8  1  0
 11 10  1  0
 11 12  1  1
 13 12  1  0
 14 11  1  0
 15 14  2  0
 16 14  1  0
 17 16  1  0
 17 18  1  6
 18 19  1  0
 19 23  1  0
 20 19  2  0
 20 21  1  0
 21 22  1  0
 23 22  2  0
 24 17  1  0
 25 24  2  0
 26 24  1  0
M  END
$$$$
