QCH.pdb
     RDKit          3D

 26 26  0  0  1  0  0  0  0  0999 V2000
-2967.9812   92.0664 -779.9225 N   0  0  0  0  0  0  0  0  0  0  0  0
-2967.6809   93.3976 -780.2975 C   0  0  0  0  0  0  0  0  0  0  0  0
-2968.4014   93.9915 -781.1015 O   0  0  0  0  0  0  0  0  0  0  0  0
-2966.4658   94.0289 -779.6758 C   0  0  0  0  0  0  0  0  0  0  0  0
-2966.7439   94.5057 -778.2930 C   0  0  0  0  0  0  0  0  0  0  0  0
-2966.8013   95.9978 -778.2508 C   0  0  2  0  0  0  0  0  0  0  0  0
-2967.2915   96.4402 -776.9257 N   0  0  0  0  0  0  0  0  0  0  0  0
-2967.6523   96.6270 -779.2698 C   0  0  0  0  0  0  0  0  0  0  0  0
-2968.4597   97.5458 -778.9962 O   0  0  0  0  0  0  0  0  0  0  0  0
-2967.6077   96.2220 -780.6486 N   0  0  0  0  0  0  0  0  0  0  0  0
-2968.4214   96.9148 -781.6240 C   0  0  1  0  0  0  0  0  0  0  0  0
-2969.4199   95.9289 -782.2247 C   0  0  0  0  0  0  0  0  0  0  0  0
-2969.6536   94.6134 -780.9731 S   0  0  0  0  0  0  0  0  0  0  0  0
-2969.2104   98.0147 -780.9827 C   0  0  0  0  0  0  0  0  0  0  0  0
-2968.6008   98.9699 -780.4758 O   0  0  0  0  0  0  0  0  0  0  0  0
-2970.6333   97.9840 -780.9448 N   0  0  0  0  0  0  0  0  0  0  0  0
-2971.4331   99.1773 -781.1071 C   0  0  1  0  0  0  0  0  0  0  0  0
-2970.5046  100.3504 -781.1570 C   0  0  0  0  0  0  0  0  0  0  0  0
-2969.5776  100.4382 -780.0071 C   0  0  0  0  0  0  0  0  0  0  0  0
-2969.2908   99.3809 -779.1693 C   0  0  0  0  0  0  0  0  0  0  0  0
-2968.4209   99.8437 -778.2573 N   0  0  0  0  0  0  0  0  0  0  0  0
-2968.1538  101.1399 -778.4899 C   0  0  0  0  0  0  0  0  0  0  0  0
-2968.8716  101.4977 -779.5695 N   0  0  0  0  0  0  0  0  0  0  0  0
-2972.3340   99.0857 -782.2809 C   0  0  0  0  0  0  0  0  0  0  0  0
-2971.8984   98.8228 -783.4299 O   0  0  0  0  0  0  0  0  0  0  0  0
-2973.7146   99.2834 -782.1902 O   0  0  0  0  0  0  0  0  0  0  0  0
  1  2  1  0
  2  3  2  0
  4  2  1  0
  4  5  1  0
  6  5  1  0
  6  7  1  1
  8  9  2  0
  8  6  1  0
 10  8  1  0
 11 10  1  0
 11 12  1  1
 13 12  1  0
 14 11  1  0
 15 14  2  0
 16 14  1  0
 17 16  1  0
 17 18  1  6
 18 19  1  0
 19 23  1  0
 20 19  2  0
 20 21  1  0
 21 22  1  0
 23 22  2  0
 24 17  1  0
 25 24  2  0
 26 24  1  0
M  END
$$$$
