QCH.pdb
     RDKit          3D

 26 26  0  0  1  0  0  0  0  0999 V2000
   26.7893  -17.1370  -19.1987 N   0  0  0  0  0  0  0  0  0  0  0  0
   26.6137  -16.2983  -20.3248 C   0  0  0  0  0  0  0  0  0  0  0  0
   26.4607  -16.7889  -21.4445 O   0  0  0  0  0  0  0  0  0  0  0  0
   26.6243  -14.8135  -20.0837 C   0  0  0  0  0  0  0  0  0  0  0  0
   25.2676  -14.3058  -19.7384 C   0  0  0  0  0  0  0  0  0  0  0  0
   25.2951  -12.8276  -19.5271 C   0  0  2  0  0  0  0  0  0  0  0  0
   26.6870  -12.3346  -19.6335 N   0  0  0  0  0  0  0  0  0  0  0  0
   24.7587  -12.3624  -18.2403 C   0  0  0  0  0  0  0  0  0  0  0  0
   23.6973  -12.8159  -17.7524 O   0  0  0  0  0  0  0  0  0  0  0  0
   25.4256  -11.3539  -17.4625 N   0  0  0  0  0  0  0  0  0  0  0  0
   24.8514  -10.9246  -16.2055 C   0  0  1  0  0  0  0  0  0  0  0  0
   25.9644  -10.3838  -15.3122 C   0  0  0  0  0  0  0  0  0  0  0  0
   26.7903   -9.0604  -16.2711 S   0  0  0  0  0  0  0  0  0  0  0  0
   23.8671   -9.8146  -16.4144 C   0  0  0  0  0  0  0  0  0  0  0  0
   24.1112   -8.9545  -17.2753 O   0  0  0  0  0  0  0  0  0  0  0  0
   22.6691   -9.7301  -15.6505 N   0  0  0  0  0  0  0  0  0  0  0  0
   21.7038   -8.6716  -15.8472 C   0  0  1  0  0  0  0  0  0  0  0  0
   20.3360   -9.2697  -15.7335 C   0  0  0  0  0  0  0  0  0  0  0  0
   19.2335   -8.2928  -15.8804 C   0  0  0  0  0  0  0  0  0  0  0  0
   19.4265   -6.9457  -16.1002 C   0  0  0  0  0  0  0  0  0  0  0  0
   18.2041   -6.3942  -16.1755 N   0  0  0  0  0  0  0  0  0  0  0  0
   17.2616   -7.3378  -16.0125 C   0  0  0  0  0  0  0  0  0  0  0  0
   17.9047   -8.5043  -15.8313 N   0  0  0  0  0  0  0  0  0  0  0  0
   21.9311   -7.5351  -14.9232 C   0  0  0  0  0  0  0  0  0  0  0  0
   22.2928   -7.7129  -13.7327 O   0  0  0  0  0  0  0  0  0  0  0  0
   21.7602   -6.2029  -15.3095 O   0  0  0  0  0  0  0  0  0  0  0  0
  1  2  1  0
  2  3  2  0
  4  2  1  0
  4  5  1  0
  6  5  1  0
  6  7  1  1
  8  9  2  0
  8  6  1  0
 10  8  1  0
 11 10  1  0
 11 12  1  1
 13 12  1  0
 14 11  1  0
 15 14  2  0
 16 14  1  0
 17 16  1  0
 17 18  1  1
 18 19  1  0
 19 23  1  0
 20 19  2  0
 20 21  1  0
 21 22  1  0
 23 22  2  0
 24 17  1  0
 25 24  2  0
 26 24  1  0
M  END
$$$$
