QCH.pdb
     RDKit          3D

 26 26  0  0  1  0  0  0  0  0999 V2000
   20.4912  -34.5178  -13.6446 N   0  0  0  0  0  0  0  0  0  0  0  0
   21.3334  -33.7467  -14.4804 C   0  0  0  0  0  0  0  0  0  0  0  0
   20.9233  -33.3435  -15.5699 O   0  0  0  0  0  0  0  0  0  0  0  0
   22.7205  -33.4551  -13.9767 C   0  0  0  0  0  0  0  0  0  0  0  0
   22.9378  -34.0189  -12.6156 C   0  0  0  0  0  0  0  0  0  0  0  0
   24.3356  -33.7636  -12.1556 C   0  0  2  0  0  0  0  0  0  0  0  0
   25.2870  -34.4970  -13.0208 N   0  0  0  0  0  0  0  0  0  0  0  0
   24.6225  -34.1408  -10.7644 C   0  0  0  0  0  0  0  0  0  0  0  0
   24.9580  -35.3038  -10.4400 O   0  0  0  0  0  0  0  0  0  0  0  0
   24.5341  -33.1908   -9.6890 N   0  0  0  0  0  0  0  0  0  0  0  0
   24.8171  -33.6154   -8.3349 C   0  0  1  0  0  0  0  0  0  0  0  0
   26.0527  -32.8739   -7.8320 C   0  0  0  0  0  0  0  0  0  0  0  0
   25.6776  -31.0890   -7.9945 S   0  0  0  0  0  0  0  0  0  0  0  0
   23.6851  -33.2726   -7.4154 C   0  0  0  0  0  0  0  0  0  0  0  0
   22.8385  -32.4471   -7.7928 O   0  0  0  0  0  0  0  0  0  0  0  0
   23.5648  -33.8708   -6.1295 N   0  0  0  0  0  0  0  0  0  0  0  0
   22.5172  -33.5017   -5.2037 C   0  0  1  0  0  0  0  0  0  0  0  0
   21.2021  -33.7811   -5.8623 C   0  0  0  0  0  0  0  0  0  0  0  0
   20.0260  -33.5194   -5.0022 C   0  0  0  0  0  0  0  0  0  0  0  0
   20.0720  -32.7664   -3.8485 C   0  0  0  0  0  0  0  0  0  0  0  0
   18.8245  -32.7575   -3.3509 N   0  0  0  0  0  0  0  0  0  0  0  0
   18.0067  -33.4706   -4.1434 C   0  0  0  0  0  0  0  0  0  0  0  0
   18.7553  -33.9363   -5.1581 N   0  0  0  0  0  0  0  0  0  0  0  0
   22.6756  -34.1720   -3.8912 C   0  0  0  0  0  0  0  0  0  0  0  0
   23.1403  -35.3358   -3.7948 O   0  0  0  0  0  0  0  0  0  0  0  0
   22.3225  -33.5613   -2.6847 O   0  0  0  0  0  0  0  0  0  0  0  0
  1  2  1  0
  2  3  2  0
  4  2  1  0
  4  5  1  0
  6  5  1  0
  6  7  1  6
  8  9  2  0
  8  6  1  0
 10  8  1  0
 11 10  1  0
 11 12  1  1
 13 12  1  0
 14 11  1  0
 15 14  2  0
 16 14  1  0
 17 16  1  0
 17 18  1  6
 18 19  1  0
 19 23  1  0
 20 19  2  0
 20 21  1  0
 21 22  1  0
 23 22  2  0
 24 17  1  0
 25 24  2  0
 26 24  1  0
M  END
$$$$
