QCH.pdb
     RDKit          3D

 26 26  0  0  1  0  0  0  0  0999 V2000
   26.7028  -16.9673  -15.2568 N   0  0  0  0  0  0  0  0  0  0  0  0
   27.8775  -17.2183  -16.0047 C   0  0  0  0  0  0  0  0  0  0  0  0
   28.6741  -16.3062  -16.2313 O   0  0  0  0  0  0  0  0  0  0  0  0
   28.0928  -18.6243  -16.4942 C   0  0  0  0  0  0  0  0  0  0  0  0
   27.0174  -19.5390  -16.0205 C   0  0  0  0  0  0  0  0  0  0  0  0
   27.2653  -19.9585  -14.6087 C   0  0  2  0  0  0  0  0  0  0  0  0
   28.4502  -20.8442  -14.5523 N   0  0  0  0  0  0  0  0  0  0  0  0
   26.1546  -20.6643  -13.9542 C   0  0  0  0  0  0  0  0  0  0  0  0
   25.4959  -21.5605  -14.5315 O   0  0  0  0  0  0  0  0  0  0  0  0
   25.7577  -20.3649  -12.6052 N   0  0  0  0  0  0  0  0  0  0  0  0
   24.6813  -21.1142  -11.9938 C   0  0  1  0  0  0  0  0  0  0  0  0
   24.7038  -20.8724  -10.4870 C   0  0  0  0  0  0  0  0  0  0  0  0
   26.3452  -21.4375   -9.9043 S   0  0  0  0  0  0  0  0  0  0  0  0
   23.3488  -20.6533  -12.5004 C   0  0  0  0  0  0  0  0  0  0  0  0
   23.0799  -19.4423  -12.4567 O   0  0  0  0  0  0  0  0  0  0  0  0
   22.3955  -21.5705  -13.0254 N   0  0  0  0  0  0  0  0  0  0  0  0
   21.1526  -21.1325  -13.6205 C   0  0  1  0  0  0  0  0  0  0  0  0
   20.8902  -21.9890  -14.8202 C   0  0  0  0  0  0  0  0  0  0  0  0
   21.7794  -21.7097  -15.9703 C   0  0  0  0  0  0  0  0  0  0  0  0
   22.6399  -20.6344  -16.0311 C   0  0  0  0  0  0  0  0  0  0  0  0
   23.2686  -20.7176  -17.2150 N   0  0  0  0  0  0  0  0  0  0  0  0
   22.8374  -21.7955  -17.8915 C   0  0  0  0  0  0  0  0  0  0  0  0
   21.9202  -22.4007  -17.1172 N   0  0  0  0  0  0  0  0  0  0  0  0
   20.0397  -21.1294  -12.6414 C   0  0  0  0  0  0  0  0  0  0  0  0
   20.0181  -21.9172  -11.6624 O   0  0  0  0  0  0  0  0  0  0  0  0
   18.9507  -20.2590  -12.7398 O   0  0  0  0  0  0  0  0  0  0  0  0
  1  2  1  0
  2  3  2  0
  4  2  1  0
  4  5  1  0
  6  5  1  0
  6  7  1  6
  8  9  2  0
  8  6  1  0
 10  8  1  0
 11 10  1  0
 11 12  1  1
 13 12  1  0
 14 11  1  0
 15 14  2  0
 16 14  1  0
 17 16  1  0
 17 18  1  6
 18 19  1  0
 19 23  1  0
 20 19  2  0
 20 21  1  0
 21 22  1  0
 23 22  2  0
 24 17  1  0
 25 24  2  0
 26 24  1  0
M  END
$$$$
