KKM.pdb
     RDKit          3D

 27 26  0  0  1  0  0  0  0  0999 V2000
    6.7176  -17.5931   19.3691 N   0  0  0  0  0  0  0  0  0  0  0  0
    8.0063  -17.4210   19.9795 C   0  0  1  0  0  0  0  0  0  0  0  0
    8.7538  -16.2104   19.5798 C   0  0  0  0  0  0  0  0  0  0  0  0
    7.9245  -14.9803   19.4614 C   0  0  0  0  0  0  0  0  0  0  0  0
    8.7216  -13.7705   19.0701 C   0  0  0  0  0  0  0  0  0  0  0  0
    7.7238  -12.5925   19.0862 C   0  0  0  0  0  0  0  0  0  0  0  0
    8.4043  -11.3771   18.6967 N   0  0  0  0  0  0  0  0  0  0  0  0
    7.9005  -17.5148   21.4862 C   0  0  0  0  0  0  0  0  0  0  0  0
    6.8280  -17.1331   21.9671 O   0  0  0  0  0  0  0  0  0  0  0  0
    8.9735  -18.0045   22.2025 N   0  0  0  0  0  0  0  0  0  0  0  0
    9.0249  -18.2054   23.6031 C   0  0  1  0  0  0  0  0  0  0  0  0
    9.8138  -19.4071   24.0659 C   0  0  0  0  0  0  0  0  0  0  0  0
   11.2823  -19.1234   23.8885 C   0  0  0  0  0  0  0  0  0  0  0  0
   12.1178  -20.3711   24.2002 C   0  0  0  0  0  0  0  0  0  0  0  0
   13.5892  -20.0295   24.0170 C   0  0  0  0  0  0  0  0  0  0  0  0
   14.3591  -21.2309   24.1947 N   0  0  0  0  0  0  0  0  0  0  0  0
    9.2572  -16.9758   24.3345 C   0  0  0  0  0  0  0  0  0  0  0  0
   10.1958  -16.2176   23.9034 O   0  0  0  0  0  0  0  0  0  0  0  0
    6.5711  -10.9784   26.7877 C   0  0  0  0  0  0  0  0  0  0  0  0
    5.9222  -12.4433   25.9338 S   0  0  0  0  0  0  0  0  0  0  0  0
    7.3288  -13.4850   25.3879 C   0  0  0  0  0  0  0  0  0  0  0  0
    7.6720  -14.4975   26.4398 C   0  0  0  0  0  0  0  0  0  0  0  0
    8.8999  -15.2627   26.0833 C   0  0  2  0  0  0  0  0  0  0  0  0
    8.5606  -16.5358   25.4610 N   0  0  0  0  0  0  0  0  0  0  0  0
    9.6669  -15.5926   27.3027 C   0  0  0  0  0  0  0  0  0  0  0  0
   10.1055  -14.6198   28.0065 O   0  0  0  0  0  0  0  0  0  0  0  0
    9.9512  -16.8512   27.7539 O   0  0  0  0  0  0  0  0  0  0  0  0
  2  1  1  6
  2  8  1  0
  2  3  1  0
  4  5  1  0
  4  3  1  0
  6  5  1  0
  7  6  1  0
  8  9  2  0
 10 11  1  0
 10  8  1  0
 12 13  1  0
 11 12  1  6
 14 13  1  0
 15 14  1  0
 16 15  1  0
 17 18  2  0
 17 11  1  0
 19 20  1  0
 21 20  1  0
 21 22  1  0
 23 22  1  1
 23 24  1  0
 23 25  1  0
 24 17  1  0
 25 27  1  0
 26 25  2  0
M  END
$$$$
