KKM.pdb
     RDKit          3D

 27 26  0  0  1  0  0  0  0  0999 V2000
    9.9672  -15.2175   19.3912 N   0  0  0  0  0  0  0  0  0  0  0  0
    9.1648  -14.2676   20.1101 C   0  0  1  0  0  0  0  0  0  0  0  0
    8.0893  -13.6135   19.3359 C   0  0  0  0  0  0  0  0  0  0  0  0
    7.7532  -14.2854   18.0513 C   0  0  0  0  0  0  0  0  0  0  0  0
    7.9733  -13.4071   16.8545 C   0  0  0  0  0  0  0  0  0  0  0  0
    7.3897  -14.1850   15.6554 C   0  0  0  0  0  0  0  0  0  0  0  0
    7.6178  -13.4385   14.4376 N   0  0  0  0  0  0  0  0  0  0  0  0
    8.6158  -14.8839   21.3787 C   0  0  0  0  0  0  0  0  0  0  0  0
    7.8860  -14.1485   22.0524 O   0  0  0  0  0  0  0  0  0  0  0  0
    8.9546  -16.1845   21.6910 N   0  0  0  0  0  0  0  0  0  0  0  0
    8.5710  -16.8944   22.8544 C   0  0  1  0  0  0  0  0  0  0  0  0
    8.6268  -18.4003   22.7536 C   0  0  0  0  0  0  0  0  0  0  0  0
    8.1252  -18.9937   24.0437 C   0  0  0  0  0  0  0  0  0  0  0  0
    8.2749  -20.5199   24.0338 C   0  0  0  0  0  0  0  0  0  0  0  0
    7.6329  -21.0800   25.2945 C   0  0  0  0  0  0  0  0  0  0  0  0
    7.7815  -22.5102   25.2821 N   0  0  0  0  0  0  0  0  0  0  0  0
    9.1233  -16.3203   24.0653 C   0  0  0  0  0  0  0  0  0  0  0  0
   10.3938  -16.1581   24.0986 O   0  0  0  0  0  0  0  0  0  0  0  0
    5.9054  -10.8658   25.8388 C   0  0  0  0  0  0  0  0  0  0  0  0
    6.2028  -12.4109   26.7444 S   0  0  0  0  0  0  0  0  0  0  0  0
    7.8015  -13.1225   26.1971 C   0  0  0  0  0  0  0  0  0  0  0  0
    8.1443  -14.3335   27.0129 C   0  0  0  0  0  0  0  0  0  0  0  0
    9.0843  -15.2341   26.2878 C   0  0  2  0  0  0  0  0  0  0  0  0
    8.4091  -15.9267   25.1980 N   0  0  0  0  0  0  0  0  0  0  0  0
    9.5849  -16.2865   27.1963 C   0  0  0  0  0  0  0  0  0  0  0  0
    9.1881  -17.4839   26.9896 O   0  0  0  0  0  0  0  0  0  0  0  0
   10.4421  -16.0985   28.2443 O   0  0  0  0  0  0  0  0  0  0  0  0
  2  1  1  6
  2  8  1  0
  2  3  1  0
  4  5  1  0
  4  3  1  0
  6  5  1  0
  7  6  1  0
  8  9  2  0
 10 11  1  0
 10  8  1  0
 12 13  1  0
 11 12  1  6
 14 13  1  0
 15 14  1  0
 16 15  1  0
 17 18  2  0
 17 11  1  0
 19 20  1  0
 21 20  1  0
 21 22  1  0
 23 22  1  1
 23 24  1  0
 23 25  1  0
 24 17  1  0
 25 27  1  0
 26 25  2  0
M  END
$$$$
