KKM.pdb
     RDKit          3D

 27 26  0  0  1  0  0  0  0  0999 V2000
    6.1629  -16.4239   21.3023 N   0  0  0  0  0  0  0  0  0  0  0  0
    7.5633  -16.1888   21.5179 C   0  0  1  0  0  0  0  0  0  0  0  0
    8.0437  -14.8248   21.2133 C   0  0  0  0  0  0  0  0  0  0  0  0
    7.8007  -14.3797   19.8141 C   0  0  0  0  0  0  0  0  0  0  0  0
    8.5115  -13.1030   19.4725 C   0  0  0  0  0  0  0  0  0  0  0  0
    8.2097  -12.8458   17.9804 C   0  0  0  0  0  0  0  0  0  0  0  0
    8.8533  -11.6201   17.5612 N   0  0  0  0  0  0  0  0  0  0  0  0
    7.9647  -16.6002   22.9178 C   0  0  0  0  0  0  0  0  0  0  0  0
    7.1344  -16.3572   23.8003 O   0  0  0  0  0  0  0  0  0  0  0  0
    9.1920  -17.2004   23.1123 N   0  0  0  0  0  0  0  0  0  0  0  0
    9.7522  -17.5792   24.3561 C   0  0  1  0  0  0  0  0  0  0  0  0
   10.7727  -18.6914   24.3057 C   0  0  0  0  0  0  0  0  0  0  0  0
   10.0611  -20.0117   24.4422 C   0  0  0  0  0  0  0  0  0  0  0  0
   11.0622  -21.1731   24.4177 C   0  0  0  0  0  0  0  0  0  0  0  0
   10.2899  -22.4827   24.4805 C   0  0  0  0  0  0  0  0  0  0  0  0
   11.2324  -23.5676   24.4334 N   0  0  0  0  0  0  0  0  0  0  0  0
   10.0987  -16.4393   25.1818 C   0  0  0  0  0  0  0  0  0  0  0  0
   10.8744  -15.5638   24.6589 O   0  0  0  0  0  0  0  0  0  0  0  0
    6.0269  -11.6549   26.0923 C   0  0  0  0  0  0  0  0  0  0  0  0
    6.8307  -12.6139   27.4076 S   0  0  0  0  0  0  0  0  0  0  0  0
    8.2641  -13.5107   26.6984 C   0  0  0  0  0  0  0  0  0  0  0  0
    9.0060  -14.2487   27.7728 C   0  0  0  0  0  0  0  0  0  0  0  0
   10.1457  -15.0292   27.2140 C   0  0  2  0  0  0  0  0  0  0  0  0
    9.6716  -16.2008   26.4889 N   0  0  0  0  0  0  0  0  0  0  0  0
   10.9986  -15.5398   28.3075 C   0  0  0  0  0  0  0  0  0  0  0  0
   11.0247  -16.8038   28.4959 O   0  0  0  0  0  0  0  0  0  0  0  0
   11.7710  -14.7808   29.1416 O   0  0  0  0  0  0  0  0  0  0  0  0
  2  1  1  1
  2  8  1  0
  2  3  1  0
  4  5  1  0
  4  3  1  0
  6  5  1  0
  7  6  1  0
  8  9  2  0
 10 11  1  0
 10  8  1  0
 12 13  1  0
 11 12  1  6
 14 13  1  0
 15 14  1  0
 16 15  1  0
 17 18  2  0
 17 11  1  0
 19 20  1  0
 21 20  1  0
 21 22  1  0
 23 22  1  1
 23 24  1  0
 23 25  1  0
 24 17  1  0
 25 27  1  0
 26 25  2  0
M  END
$$$$
