KKM.pdb
     RDKit          3D

 27 26  0  0  1  0  0  0  0  0999 V2000
    6.3473  -16.5797   19.6717 N   0  0  0  0  0  0  0  0  0  0  0  0
    7.5561  -15.9809   20.1650 C   0  0  1  0  0  0  0  0  0  0  0  0
    7.6182  -14.5057   20.1033 C   0  0  0  0  0  0  0  0  0  0  0  0
    7.4255  -13.9332   18.7432 C   0  0  0  0  0  0  0  0  0  0  0  0
    8.7153  -13.5441   18.0820 C   0  0  0  0  0  0  0  0  0  0  0  0
    8.3244  -13.0262   16.6811 C   0  0  0  0  0  0  0  0  0  0  0  0
    9.5182  -12.6643   15.9489 N   0  0  0  0  0  0  0  0  0  0  0  0
    7.8650  -16.4742   21.5620 C   0  0  0  0  0  0  0  0  0  0  0  0
    6.9356  -16.3884   22.3720 O   0  0  0  0  0  0  0  0  0  0  0  0
    9.1234  -16.9716   21.8323 N   0  0  0  0  0  0  0  0  0  0  0  0
    9.6117  -17.3735   23.0991 C   0  0  1  0  0  0  0  0  0  0  0  0
   10.7810  -18.3290   23.0796 C   0  0  0  0  0  0  0  0  0  0  0  0
   11.1174  -18.7159   24.4958 C   0  0  0  0  0  0  0  0  0  0  0  0
   12.3597  -19.6143   24.5326 C   0  0  0  0  0  0  0  0  0  0  0  0
   12.6631  -19.9658   25.9817 C   0  0  0  0  0  0  0  0  0  0  0  0
   12.6111  -21.3960   26.1218 N   0  0  0  0  0  0  0  0  0  0  0  0
    9.7114  -16.2702   24.0338 C   0  0  0  0  0  0  0  0  0  0  0  0
   10.6956  -15.4658   23.8727 O   0  0  0  0  0  0  0  0  0  0  0  0
    6.3805  -10.6229   28.2101 C   0  0  0  0  0  0  0  0  0  0  0  0
    6.2057  -12.0183   27.0618 S   0  0  0  0  0  0  0  0  0  0  0  0
    7.8080  -12.9029   26.9531 C   0  0  0  0  0  0  0  0  0  0  0  0
    7.7234  -14.0228   25.9589 C   0  0  0  0  0  0  0  0  0  0  0  0
    9.0033  -14.7815   25.8786 C   0  0  2  0  0  0  0  0  0  0  0  0
    8.8424  -15.9969   25.0911 N   0  0  0  0  0  0  0  0  0  0  0  0
    9.4229  -15.2176   27.2267 C   0  0  0  0  0  0  0  0  0  0  0  0
    9.7748  -14.3126   28.0581 O   0  0  0  0  0  0  0  0  0  0  0  0
    9.4675  -16.5089   27.6730 O   0  0  0  0  0  0  0  0  0  0  0  0
  2  1  1  1
  2  8  1  0
  2  3  1  0
  4  5  1  0
  4  3  1  0
  6  5  1  0
  7  6  1  0
  8  9  2  0
 10 11  1  0
 10  8  1  0
 12 13  1  0
 11 12  1  6
 14 13  1  0
 15 14  1  0
 16 15  1  0
 17 18  2  0
 17 11  1  0
 19 20  1  0
 21 20  1  0
 21 22  1  0
 23 22  1  1
 23 24  1  0
 23 25  1  0
 24 17  1  0
 25 27  1  0
 26 25  2  0
M  END
$$$$
