KKM.pdb
     RDKit          3D

 27 26  0  0  1  0  0  0  0  0999 V2000
    9.5099  -15.6777   18.5491 N   0  0  0  0  0  0  0  0  0  0  0  0
    8.8554  -14.6621   19.3258 C   0  0  1  0  0  0  0  0  0  0  0  0
    7.6390  -14.0743   18.7268 C   0  0  0  0  0  0  0  0  0  0  0  0
    7.8648  -13.3560   17.4432 C   0  0  0  0  0  0  0  0  0  0  0  0
    7.8210  -14.2622   16.2478 C   0  0  0  0  0  0  0  0  0  0  0  0
    8.0866  -13.3540   15.0279 C   0  0  0  0  0  0  0  0  0  0  0  0
    7.9773  -14.1317   13.8132 N   0  0  0  0  0  0  0  0  0  0  0  0
    8.5783  -15.1580   20.7285 C   0  0  0  0  0  0  0  0  0  0  0  0
    7.8313  -14.4433   21.4055 O   0  0  0  0  0  0  0  0  0  0  0  0
    9.1589  -16.3377   21.1474 N   0  0  0  0  0  0  0  0  0  0  0  0
    8.9441  -16.9830   22.3892 C   0  0  1  0  0  0  0  0  0  0  0  0
    9.5462  -18.3613   22.5262 C   0  0  0  0  0  0  0  0  0  0  0  0
    8.7084  -19.3386   21.7443 C   0  0  0  0  0  0  0  0  0  0  0  0
    9.3847  -20.7140   21.6931 C   0  0  0  0  0  0  0  0  0  0  0  0
    8.5418  -21.6387   20.8271 C   0  0  0  0  0  0  0  0  0  0  0  0
    9.1877  -22.9222   20.7723 N   0  0  0  0  0  0  0  0  0  0  0  0
    9.1327  -16.0948   23.5190 C   0  0  0  0  0  0  0  0  0  0  0  0
   10.3010  -15.5899   23.6661 O   0  0  0  0  0  0  0  0  0  0  0  0
    6.8566  -10.2257   26.6379 C   0  0  0  0  0  0  0  0  0  0  0  0
    6.3525  -11.8297   27.3229 S   0  0  0  0  0  0  0  0  0  0  0  0
    7.6987  -13.0435   27.0468 C   0  0  0  0  0  0  0  0  0  0  0  0
    7.4150  -13.8752   25.8313 C   0  0  0  0  0  0  0  0  0  0  0  0
    8.5143  -14.8444   25.5622 C   0  0  2  0  0  0  0  0  0  0  0  0
    8.1687  -15.7351   24.4620 N   0  0  0  0  0  0  0  0  0  0  0  0
    8.7298  -15.7105   26.7401 C   0  0  0  0  0  0  0  0  0  0  0  0
    8.3824  -16.9369   26.6437 O   0  0  0  0  0  0  0  0  0  0  0  0
    9.2732  -15.3204   27.9321 O   0  0  0  0  0  0  0  0  0  0  0  0
  2  1  1  6
  2  8  1  0
  2  3  1  0
  4  5  1  0
  4  3  1  0
  6  5  1  0
  7  6  1  0
  8  9  2  0
 10 11  1  0
 10  8  1  0
 12 13  1  0
 11 12  1  1
 14 13  1  0
 15 14  1  0
 16 15  1  0
 17 18  2  0
 17 11  1  0
 19 20  1  0
 21 20  1  0
 21 22  1  0
 23 22  1  1
 23 24  1  0
 23 25  1  0
 24 17  1  0
 25 27  1  0
 26 25  2  0
M  END
$$$$
