KKM.pdb
     RDKit          3D

 27 26  0  0  1  0  0  0  0  0999 V2000
    8.7735  -19.2817   21.3142 N   0  0  0  0  0  0  0  0  0  0  0  0
    9.9915  -18.6937   21.7977 C   0  0  1  0  0  0  0  0  0  0  0  0
   11.1170  -18.6602   20.8406 C   0  0  0  0  0  0  0  0  0  0  0  0
   11.0012  -19.6246   19.7131 C   0  0  0  0  0  0  0  0  0  0  0  0
   11.7148  -19.1678   18.4744 C   0  0  0  0  0  0  0  0  0  0  0  0
   11.4578  -20.2645   17.4185 C   0  0  0  0  0  0  0  0  0  0  0  0
   12.0596  -19.8763   16.1618 N   0  0  0  0  0  0  0  0  0  0  0  0
    9.7300  -17.3168   22.3688 C   0  0  0  0  0  0  0  0  0  0  0  0
   10.6922  -16.7861   22.9343 O   0  0  0  0  0  0  0  0  0  0  0  0
    8.4751  -16.7611   22.2258 N   0  0  0  0  0  0  0  0  0  0  0  0
    8.0936  -15.4473   22.5907 C   0  0  1  0  0  0  0  0  0  0  0  0
    7.0722  -14.7871   21.6953 C   0  0  0  0  0  0  0  0  0  0  0  0
    7.6094  -14.7496   20.2888 C   0  0  0  0  0  0  0  0  0  0  0  0
    8.0917  -13.3390   19.9293 C   0  0  0  0  0  0  0  0  0  0  0  0
    8.5769  -13.3435   18.4871 C   0  0  0  0  0  0  0  0  0  0  0  0
    9.0731  -12.0313   18.1715 N   0  0  0  0  0  0  0  0  0  0  0  0
    7.8705  -15.3071   24.0160 C   0  0  0  0  0  0  0  0  0  0  0  0
    7.2293  -16.2535   24.5946 O   0  0  0  0  0  0  0  0  0  0  0  0
   11.4491  -15.1736   29.3510 C   0  0  0  0  0  0  0  0  0  0  0  0
   10.3227  -13.7635   29.5483 S   0  0  0  0  0  0  0  0  0  0  0  0
    8.8198  -14.0575   28.5400 C   0  0  0  0  0  0  0  0  0  0  0  0
    9.1482  -13.9979   27.0778 C   0  0  0  0  0  0  0  0  0  0  0  0
    7.9385  -14.2164   26.2356 C   0  0  2  0  0  0  0  0  0  0  0  0
    8.2845  -14.2444   24.8204 N   0  0  0  0  0  0  0  0  0  0  0  0
    6.9903  -13.0958   26.4049 C   0  0  0  0  0  0  0  0  0  0  0  0
    6.9278  -12.2275   25.4689 O   0  0  0  0  0  0  0  0  0  0  0  0
    6.1645  -12.9005   27.4766 O   0  0  0  0  0  0  0  0  0  0  0  0
  2  1  1  6
  2  8  1  0
  2  3  1  0
  4  5  1  0
  4  3  1  0
  6  5  1  0
  7  6  1  0
  8  9  2  0
 10 11  1  0
 10  8  1  0
 12 13  1  0
 11 12  1  6
 14 13  1  0
 15 14  1  0
 16 15  1  0
 17 18  2  0
 17 11  1  0
 19 20  1  0
 21 20  1  0
 21 22  1  0
 23 22  1  1
 23 24  1  0
 23 25  1  0
 24 17  1  0
 25 27  1  0
 26 25  2  0
M  END
$$$$
