KKM.pdb
     RDKit          3D

 27 26  0  0  1  0  0  0  0  0999 V2000
    6.7583  -20.1598   21.6576 N   0  0  0  0  0  0  0  0  0  0  0  0
    6.7894  -19.3760   22.8608 C   0  0  1  0  0  0  0  0  0  0  0  0
    7.3137  -20.0579   24.0626 C   0  0  0  0  0  0  0  0  0  0  0  0
    6.7656  -21.4226   24.2900 C   0  0  0  0  0  0  0  0  0  0  0  0
    7.2183  -22.0284   25.5862 C   0  0  0  0  0  0  0  0  0  0  0  0
    6.5104  -23.3976   25.6746 C   0  0  0  0  0  0  0  0  0  0  0  0
    6.8229  -24.0226   26.9410 N   0  0  0  0  0  0  0  0  0  0  0  0
    7.5120  -18.0670   22.6270 C   0  0  0  0  0  0  0  0  0  0  0  0
    8.7252  -18.0818   22.8621 O   0  0  0  0  0  0  0  0  0  0  0  0
    6.7931  -16.9769   22.1810 N   0  0  0  0  0  0  0  0  0  0  0  0
    7.3117  -15.6911   21.8940 C   0  0  1  0  0  0  0  0  0  0  0  0
    6.4568  -14.8218   21.0027 C   0  0  0  0  0  0  0  0  0  0  0  0
    7.2178  -13.5642   20.6743 C   0  0  0  0  0  0  0  0  0  0  0  0
    7.4852  -13.4694   19.1672 C   0  0  0  0  0  0  0  0  0  0  0  0
    8.1703  -12.1420   18.8772 C   0  0  0  0  0  0  0  0  0  0  0  0
    8.2557  -11.9780   17.4512 N   0  0  0  0  0  0  0  0  0  0  0  0
    7.8712  -15.0420   23.0629 C   0  0  0  0  0  0  0  0  0  0  0  0
    7.3830  -13.8998   23.3767 O   0  0  0  0  0  0  0  0  0  0  0  0
    5.7691  -12.9901   27.9819 C   0  0  0  0  0  0  0  0  0  0  0  0
    6.4973  -12.1278   26.5599 S   0  0  0  0  0  0  0  0  0  0  0  0
    8.1042  -12.9097   26.1497 C   0  0  0  0  0  0  0  0  0  0  0  0
    7.9053  -14.3425   25.7533 C   0  0  0  0  0  0  0  0  0  0  0  0
    9.1486  -14.9293   25.1787 C   0  0  2  0  0  0  0  0  0  0  0  0
    8.8884  -15.5372   23.8802 N   0  0  0  0  0  0  0  0  0  0  0  0
    9.6489  -16.0146   26.0479 C   0  0  0  0  0  0  0  0  0  0  0  0
    9.3719  -17.2164   25.7120 O   0  0  0  0  0  0  0  0  0  0  0  0
   10.3891  -15.8525   27.1856 O   0  0  0  0  0  0  0  0  0  0  0  0
  2  1  1  6
  2  8  1  0
  2  3  1  0
  4  5  1  0
  4  3  1  0
  6  5  1  0
  7  6  1  0
  8  9  2  0
 10 11  1  0
 10  8  1  0
 12 13  1  0
 11 12  1  1
 14 13  1  0
 15 14  1  0
 16 15  1  0
 17 18  2  0
 17 11  1  0
 19 20  1  0
 21 20  1  0
 21 22  1  0
 23 22  1  1
 23 24  1  0
 23 25  1  0
 24 17  1  0
 25 27  1  0
 26 25  2  0
M  END
$$$$
