KKM.pdb
     RDKit          3D

 27 26  0  0  1  0  0  0  0  0999 V2000
    7.3869  -16.1843   19.3423 N   0  0  0  0  0  0  0  0  0  0  0  0
    7.7108  -15.1221   20.2533 C   0  0  1  0  0  0  0  0  0  0  0  0
    7.1184  -13.8038   19.9451 C   0  0  0  0  0  0  0  0  0  0  0  0
    7.3555  -13.3268   18.5555 C   0  0  0  0  0  0  0  0  0  0  0  0
    8.6694  -13.7852   17.9938 C   0  0  0  0  0  0  0  0  0  0  0  0
    8.7491  -13.1798   16.5758 C   0  0  0  0  0  0  0  0  0  0  0  0
    9.9770  -13.6015   15.9383 N   0  0  0  0  0  0  0  0  0  0  0  0
    7.4055  -15.5290   21.6785 C   0  0  0  0  0  0  0  0  0  0  0  0
    6.8628  -14.6624   22.3725 O   0  0  0  0  0  0  0  0  0  0  0  0
    7.7419  -16.8000   22.0976 N   0  0  0  0  0  0  0  0  0  0  0  0
    7.5105  -17.3478   23.3825 C   0  0  1  0  0  0  0  0  0  0  0  0
    7.4436  -18.8550   23.4519 C   0  0  0  0  0  0  0  0  0  0  0  0
    7.2129  -19.2669   24.8821 C   0  0  0  0  0  0  0  0  0  0  0  0
    7.1491  -20.7942   25.0037 C   0  0  0  0  0  0  0  0  0  0  0  0
    6.9588  -21.1582   26.4688 C   0  0  0  0  0  0  0  0  0  0  0  0
    7.0246  -22.5893   26.5928 N   0  0  0  0  0  0  0  0  0  0  0  0
    8.2967  -16.7010   24.4142 C   0  0  0  0  0  0  0  0  0  0  0  0
    9.5670  -16.6888   24.2478 O   0  0  0  0  0  0  0  0  0  0  0  0
    6.9323  -10.2557   25.8106 C   0  0  0  0  0  0  0  0  0  0  0  0
    6.8867  -11.7112   26.8950 S   0  0  0  0  0  0  0  0  0  0  0  0
    7.9558  -13.0183   26.1809 C   0  0  0  0  0  0  0  0  0  0  0  0
    8.0111  -14.2081   27.0925 C   0  0  0  0  0  0  0  0  0  0  0  0
    8.7085  -15.3578   26.4506 C   0  0  2  0  0  0  0  0  0  0  0  0
    7.8079  -16.0904   25.5701 N   0  0  0  0  0  0  0  0  0  0  0  0
    9.1535  -16.3221   27.4781 C   0  0  0  0  0  0  0  0  0  0  0  0
    8.5178  -17.4276   27.5663 O   0  0  0  0  0  0  0  0  0  0  0  0
   10.1920  -16.1425   28.3486 O   0  0  0  0  0  0  0  0  0  0  0  0
  2  1  1  6
  2  8  1  0
  2  3  1  0
  4  5  1  0
  4  3  1  0
  6  5  1  0
  7  6  1  0
  8  9  2  0
 10 11  1  0
 10  8  1  0
 12 13  1  0
 11 12  1  6
 14 13  1  0
 15 14  1  0
 16 15  1  0
 17 18  2  0
 17 11  1  0
 19 20  1  0
 21 20  1  0
 21 22  1  0
 23 22  1  1
 23 24  1  0
 23 25  1  0
 24 17  1  0
 25 27  1  0
 26 25  2  0
M  END
$$$$
