KKM.pdb
     RDKit          3D

 27 26  0  0  1  0  0  0  0  0999 V2000
    6.1956  -16.3531   20.3198 N   0  0  0  0  0  0  0  0  0  0  0  0
    7.4375  -15.7087   20.6445 C   0  0  1  0  0  0  0  0  0  0  0  0
    7.4293  -14.2315   20.6019 C   0  0  0  0  0  0  0  0  0  0  0  0
    6.9141  -13.6506   19.3323 C   0  0  0  0  0  0  0  0  0  0  0  0
    7.6259  -12.3916   18.9316 C   0  0  0  0  0  0  0  0  0  0  0  0
    8.8292  -12.8480   18.0787 C   0  0  0  0  0  0  0  0  0  0  0  0
    8.3567  -13.3623   16.8121 N   0  0  0  0  0  0  0  0  0  0  0  0
    7.9656  -16.2054   21.9729 C   0  0  0  0  0  0  0  0  0  0  0  0
    7.1480  -16.2114   22.8996 O   0  0  0  0  0  0  0  0  0  0  0  0
    9.2830  -16.6065   22.0608 N   0  0  0  0  0  0  0  0  0  0  0  0
    9.9223  -17.1398   23.2060 C   0  0  1  0  0  0  0  0  0  0  0  0
   11.1884  -17.9215   22.9475 C   0  0  0  0  0  0  0  0  0  0  0  0
   10.8286  -19.2281   22.2905 C   0  0  0  0  0  0  0  0  0  0  0  0
   12.0799  -20.0860   22.0668 C   0  0  0  0  0  0  0  0  0  0  0  0
   11.6713  -21.3646   21.3501 C   0  0  0  0  0  0  0  0  0  0  0  0
   12.8365  -22.1944   21.2037 N   0  0  0  0  0  0  0  0  0  0  0  0
    9.9740  -16.1969   24.3056 C   0  0  0  0  0  0  0  0  0  0  0  0
   10.0222  -14.9543   23.9971 O   0  0  0  0  0  0  0  0  0  0  0  0
    7.7470  -11.3121   26.0278 C   0  0  0  0  0  0  0  0  0  0  0  0
    6.8320  -12.6256   26.8843 S   0  0  0  0  0  0  0  0  0  0  0  0
    8.0242  -13.8713   27.5077 C   0  0  0  0  0  0  0  0  0  0  0  0
    8.3656  -14.8570   26.4300 C   0  0  0  0  0  0  0  0  0  0  0  0
    9.7031  -15.4738   26.6560 C   0  0  2  0  0  0  0  0  0  0  0  0
    9.9763  -16.5076   25.6662 N   0  0  0  0  0  0  0  0  0  0  0  0
    9.7392  -16.1449   27.9721 C   0  0  0  0  0  0  0  0  0  0  0  0
    9.6084  -15.4137   29.0124 O   0  0  0  0  0  0  0  0  0  0  0  0
    9.8976  -17.4861   28.1831 O   0  0  0  0  0  0  0  0  0  0  0  0
  2  1  1  1
  2  8  1  0
  2  3  1  0
  4  5  1  0
  4  3  1  0
  6  5  1  0
  7  6  1  0
  8  9  2  0
 10 11  1  0
 10  8  1  0
 12 13  1  0
 11 12  1  6
 14 13  1  0
 15 14  1  0
 16 15  1  0
 17 18  2  0
 17 11  1  0
 19 20  1  0
 21 20  1  0
 21 22  1  0
 23 22  1  6
 23 24  1  0
 23 25  1  0
 24 17  1  0
 25 27  1  0
 26 25  2  0
M  END
$$$$
