KKM.pdb
     RDKit          3D

 27 26  0  0  1  0  0  0  0  0999 V2000
    6.9633  -16.0878   18.6738 N   0  0  0  0  0  0  0  0  0  0  0  0
    7.8980  -15.2882   19.4154 C   0  0  1  0  0  0  0  0  0  0  0  0
    7.6469  -13.8319   19.4127 C   0  0  0  0  0  0  0  0  0  0  0  0
    7.6082  -13.2117   18.0605 C   0  0  0  0  0  0  0  0  0  0  0  0
    8.8113  -13.5446   17.2274 C   0  0  0  0  0  0  0  0  0  0  0  0
    8.2559  -14.0383   15.8741 C   0  0  0  0  0  0  0  0  0  0  0  0
    9.3476  -14.4876   15.0383 N   0  0  0  0  0  0  0  0  0  0  0  0
    8.0400  -15.8068   20.8300 C   0  0  0  0  0  0  0  0  0  0  0  0
    7.2206  -15.3633   21.6419 O   0  0  0  0  0  0  0  0  0  0  0  0
    9.0425  -16.7119   21.1128 N   0  0  0  0  0  0  0  0  0  0  0  0
    9.3219  -17.2857   22.3767 C   0  0  1  0  0  0  0  0  0  0  0  0
   10.3574  -18.3850   22.3847 C   0  0  0  0  0  0  0  0  0  0  0  0
   10.5788  -18.8351   23.8048 C   0  0  0  0  0  0  0  0  0  0  0  0
   10.1195  -20.2862   23.9923 C   0  0  0  0  0  0  0  0  0  0  0  0
   10.3566  -20.6883   25.4406 C   0  0  0  0  0  0  0  0  0  0  0  0
    9.7942  -21.9957   25.6460 N   0  0  0  0  0  0  0  0  0  0  0  0
    9.4453  -16.2922   23.4249 C   0  0  0  0  0  0  0  0  0  0  0  0
   10.3698  -15.4166   23.2829 O   0  0  0  0  0  0  0  0  0  0  0  0
    6.6064  -10.6752   27.7485 C   0  0  0  0  0  0  0  0  0  0  0  0
    6.3497  -12.0067   26.5412 S   0  0  0  0  0  0  0  0  0  0  0  0
    7.7999  -13.1280   26.5756 C   0  0  0  0  0  0  0  0  0  0  0  0
    7.6619  -14.1975   25.5331 C   0  0  0  0  0  0  0  0  0  0  0  0
    8.8528  -15.0926   25.5059 C   0  0  2  0  0  0  0  0  0  0  0  0
    8.6577  -16.1947   24.5729 N   0  0  0  0  0  0  0  0  0  0  0  0
    9.0576  -15.7089   26.8333 C   0  0  0  0  0  0  0  0  0  0  0  0
    8.7106  -16.9306   26.9778 O   0  0  0  0  0  0  0  0  0  0  0  0
    9.5906  -15.0906   27.9297 O   0  0  0  0  0  0  0  0  0  0  0  0
  2  1  1  1
  2  8  1  0
  2  3  1  0
  4  5  1  0
  4  3  1  0
  6  5  1  0
  7  6  1  0
  8  9  2  0
 10 11  1  0
 10  8  1  0
 12 13  1  0
 11 12  1  6
 14 13  1  0
 15 14  1  0
 16 15  1  0
 17 18  2  0
 17 11  1  0
 19 20  1  0
 21 20  1  0
 21 22  1  0
 23 22  1  1
 23 24  1  0
 23 25  1  0
 24 17  1  0
 25 27  1  0
 26 25  2  0
M  END
$$$$
