YVV.pdb
     RDKit          3D

 27 27  0  0  1  0  0  0  0  0999 V2000
   29.9672  -22.5166  -17.8982 O   0  0  0  0  0  0  0  0  0  0  0  0
   29.4177  -21.8121  -16.8400 C   0  0  0  0  0  0  0  0  0  0  0  0
   29.5813  -22.3472  -15.5793 C   0  0  0  0  0  0  0  0  0  0  0  0
   29.0512  -21.6810  -14.4935 C   0  0  0  0  0  0  0  0  0  0  0  0
   28.3604  -20.4845  -14.6678 C   0  0  0  0  0  0  0  0  0  0  0  0
   27.8174  -19.8172  -13.4823 C   0  0  0  0  0  0  0  0  0  0  0  0
   26.5901  -20.4987  -12.9407 C   0  0  2  0  0  0  0  0  0  0  0  0
   25.4524  -20.3651  -13.8270 N   0  0  0  0  0  0  0  0  0  0  0  0
   26.1922  -19.9761  -11.6157 C   0  0  0  0  0  0  0  0  0  0  0  0
   25.5235  -18.8882  -11.6274 O   0  0  0  0  0  0  0  0  0  0  0  0
   28.1912  -19.9406  -15.9244 C   0  0  0  0  0  0  0  0  0  0  0  0
   28.7328  -20.6308  -16.9883 C   0  0  0  0  0  0  0  0  0  0  0  0
   24.8099  -22.1025   -8.7106 C   0  0  0  0  0  0  0  0  0  0  0  0
   24.6636  -20.5872   -8.8130 C   0  0  2  0  0  0  0  0  0  0  0  0
   23.6827  -20.2987   -9.9177 C   0  0  0  0  0  0  0  0  0  0  0  0
   26.0094  -19.9556   -9.1414 C   0  0  2  0  0  0  0  0  0  0  0  0
   26.4850  -20.5660  -10.3984 N   0  0  0  0  0  0  0  0  0  0  0  0
   27.0299  -20.3541   -8.1371 C   0  0  0  0  0  0  0  0  0  0  0  0
   27.6524  -21.4612   -8.2515 O   0  0  0  0  0  0  0  0  0  0  0  0
   30.2597  -19.5072   -4.5894 C   0  0  0  0  0  0  0  0  0  0  0  0
   29.2724  -18.9890   -5.6281 C   0  0  2  0  0  0  0  0  0  0  0  0
   28.5785  -17.8016   -5.0215 C   0  0  0  0  0  0  0  0  0  0  0  0
   28.3019  -20.0808   -6.0254 C   0  0  2  0  0  0  0  0  0  0  0  0
   27.3699  -19.5564   -7.0274 N   0  0  0  0  0  0  0  0  0  0  0  0
   27.5845  -20.5136   -4.8076 C   0  0  0  0  0  0  0  0  0  0  0  0
   28.2533  -21.2434   -3.8378 O   0  0  0  0  0  0  0  0  0  0  0  0
   26.3745  -20.2406   -4.6166 O   0  0  0  0  0  0  0  0  0  0  0  0
  2 12  2  0
  2  1  1  0
  3  2  1  0
  4  3  2  0
  5  4  1  0
  5 11  2  0
  6  5  1  0
  7  9  1  0
  7  6  1  0
  7  8  1  6
  9 10  2  0
 11 12  1  0
 14 13  1  6
 15 14  1  0
 16 14  1  0
 16 17  1  6
 17  9  1  0
 18 24  1  0
 18 16  1  0
 19 18  2  0
 21 23  1  0
 21 20  1  1
 22 21  1  0
 23 24  1  6
 25 23  1  0
 25 26  1  0
 27 25  2  0
M  END
$$$$
