YVV.pdb
     RDKit          3D

 27 27  0  0  1  0  0  0  0  0999 V2000
   21.6602  -13.1615  -18.8937 O   0  0  0  0  0  0  0  0  0  0  0  0
   22.0224  -14.3551  -18.2919 C   0  0  0  0  0  0  0  0  0  0  0  0
   22.9863  -14.2926  -17.3072 C   0  0  0  0  0  0  0  0  0  0  0  0
   23.3798  -15.4562  -16.6787 C   0  0  0  0  0  0  0  0  0  0  0  0
   22.8118  -16.6771  -17.0334 C   0  0  0  0  0  0  0  0  0  0  0  0
   23.2649  -17.8826  -16.3355 C   0  0  0  0  0  0  0  0  0  0  0  0
   24.5814  -18.3955  -16.8528 C   0  0  2  0  0  0  0  0  0  0  0  0
   24.4488  -19.0473  -18.1394 N   0  0  0  0  0  0  0  0  0  0  0  0
   25.2173  -19.3557  -15.9251 C   0  0  0  0  0  0  0  0  0  0  0  0
   24.7444  -20.5418  -15.9458 O   0  0  0  0  0  0  0  0  0  0  0  0
   21.8470  -16.7506  -18.0170 C   0  0  0  0  0  0  0  0  0  0  0  0
   21.4759  -15.5701  -18.6255 C   0  0  0  0  0  0  0  0  0  0  0  0
   28.8274  -20.6023  -15.5343 C   0  0  0  0  0  0  0  0  0  0  0  0
   28.3146  -20.0179  -14.2215 C   0  0  2  0  0  0  0  0  0  0  0  0
   28.9153  -20.8226  -13.1001 C   0  0  0  0  0  0  0  0  0  0  0  0
   26.7961  -20.1133  -14.1675 C   0  0  2  0  0  0  0  0  0  0  0  0
   26.2591  -19.0680  -15.0606 N   0  0  0  0  0  0  0  0  0  0  0  0
   26.2984  -19.7290  -12.8208 C   0  0  0  0  0  0  0  0  0  0  0  0
   26.5312  -18.5658  -12.3527 O   0  0  0  0  0  0  0  0  0  0  0  0
   23.5754  -22.0862  -10.4810 C   0  0  0  0  0  0  0  0  0  0  0  0
   23.6879  -20.5669  -10.4449 C   0  0  2  0  0  0  0  0  0  0  0  0
   22.7553  -20.0316  -11.4952 C   0  0  0  0  0  0  0  0  0  0  0  0
   25.1211  -20.1377  -10.6762 C   0  0  2  0  0  0  0  0  0  0  0  0
   25.5547  -20.5974  -11.9985 N   0  0  0  0  0  0  0  0  0  0  0  0
   25.9502  -20.7348   -9.6080 C   0  0  0  0  0  0  0  0  0  0  0  0
   25.9168  -20.1989   -8.3305 O   0  0  0  0  0  0  0  0  0  0  0  0
   26.6941  -21.7235   -9.8182 O   0  0  0  0  0  0  0  0  0  0  0  0
  2 12  2  0
  2  1  1  0
  3  2  1  0
  4  3  2  0
  5  4  1  0
  5 11  2  0
  6  5  1  0
  7  9  1  0
  7  6  1  0
  7  8  1  6
  9 10  2  0
 11 12  1  0
 14 13  1  6
 15 14  1  0
 16 14  1  0
 16 17  1  6
 17  9  1  0
 18 24  1  0
 18 16  1  0
 19 18  2  0
 21 23  1  0
 21 20  1  6
 22 21  1  0
 23 24  1  6
 25 23  1  0
 25 26  1  0
 27 25  2  0
M  END
$$$$
