YVV.pdb
     RDKit          3D

 27 27  0  0  1  0  0  0  0  0999 V2000
   15.2677  -28.9459  -10.5304 O   0  0  0  0  0  0  0  0  0  0  0  0
   15.7005  -27.7040  -10.9644 C   0  0  0  0  0  0  0  0  0  0  0  0
   15.1138  -26.5986  -10.3843 C   0  0  0  0  0  0  0  0  0  0  0  0
   15.5125  -25.3397  -10.7844 C   0  0  0  0  0  0  0  0  0  0  0  0
   16.4938  -25.1869  -11.7605 C   0  0  0  0  0  0  0  0  0  0  0  0
   16.8809  -23.8288  -12.1494 C   0  0  0  0  0  0  0  0  0  0  0  0
   18.1886  -23.3990  -11.5420 C   0  0  2  0  0  0  0  0  0  0  0  0
   18.1228  -23.3205  -10.0972 N   0  0  0  0  0  0  0  0  0  0  0  0
   18.6392  -22.0830  -12.0441 C   0  0  0  0  0  0  0  0  0  0  0  0
   18.3037  -21.0752  -11.3352 O   0  0  0  0  0  0  0  0  0  0  0  0
   17.0870  -26.2859  -12.3470 C   0  0  0  0  0  0  0  0  0  0  0  0
   16.6664  -27.5296  -11.9251 C   0  0  0  0  0  0  0  0  0  0  0  0
   22.0673  -21.6143  -13.8153 C   0  0  0  0  0  0  0  0  0  0  0  0
   21.3209  -20.4385  -13.1922 C   0  0  2  0  0  0  0  0  0  0  0  0
   21.4936  -20.5299  -11.6997 C   0  0  0  0  0  0  0  0  0  0  0  0
   19.8418  -20.5154  -13.5449 C   0  0  2  0  0  0  0  0  0  0  0  0
   19.3778  -21.8723  -13.1956 N   0  0  0  0  0  0  0  0  0  0  0  0
   19.6535  -20.4366  -15.0171 C   0  0  0  0  0  0  0  0  0  0  0  0
   19.8375  -21.4647  -15.7488 O   0  0  0  0  0  0  0  0  0  0  0  0
   17.5377  -17.3136  -16.8410 C   0  0  0  0  0  0  0  0  0  0  0  0
   17.6623  -18.7163  -17.4232 C   0  0  2  0  0  0  0  0  0  0  0  0
   16.5558  -19.5402  -16.8264 C   0  0  0  0  0  0  0  0  0  0  0  0
   19.0311  -19.2913  -17.1273 C   0  0  2  0  0  0  0  0  0  0  0  0
   19.2664  -19.2566  -15.6812 N   0  0  0  0  0  0  0  0  0  0  0  0
   20.0303  -18.4746  -17.8479 C   0  0  0  0  0  0  0  0  0  0  0  0
   20.1530  -18.5927  -19.2232 O   0  0  0  0  0  0  0  0  0  0  0  0
   20.7829  -17.6662  -17.2517 O   0  0  0  0  0  0  0  0  0  0  0  0
  2 12  2  0
  2  1  1  0
  3  2  1  0
  4  3  2  0
  5  4  1  0
  5 11  2  0
  6  5  1  0
  7  9  1  0
  7  6  1  0
  7  8  1  1
  9 10  2  0
 11 12  1  0
 14 13  1  6
 15 14  1  0
 16 14  1  0
 16 17  1  6
 17  9  1  0
 18 24  1  0
 18 16  1  0
 19 18  2  0
 21 23  1  0
 21 20  1  1
 22 21  1  0
 23 24  1  1
 25 23  1  0
 25 26  1  0
 27 25  2  0
M  END
$$$$
