YVV.pdb
     RDKit          3D

 27 27  0  0  1  0  0  0  0  0999 V2000
   29.4014  -19.4273   -3.7381 O   0  0  0  0  0  0  0  0  0  0  0  0
   28.9591  -19.6113   -5.0376 C   0  0  0  0  0  0  0  0  0  0  0  0
   28.1863  -18.6080   -5.5839 C   0  0  0  0  0  0  0  0  0  0  0  0
   27.7224  -18.7465   -6.8760 C   0  0  0  0  0  0  0  0  0  0  0  0
   28.0301  -19.8836   -7.6186 C   0  0  0  0  0  0  0  0  0  0  0  0
   27.5128  -19.9813   -8.9855 C   0  0  0  0  0  0  0  0  0  0  0  0
   26.0175  -20.1425   -9.0326 C   0  0  2  0  0  0  0  0  0  0  0  0
   25.5773  -21.3652   -8.3932 N   0  0  0  0  0  0  0  0  0  0  0  0
   25.4929  -20.1436  -10.4153 C   0  0  0  0  0  0  0  0  0  0  0  0
   25.9203  -19.2068  -11.1706 O   0  0  0  0  0  0  0  0  0  0  0  0
   28.8022  -20.8930   -7.0815 C   0  0  0  0  0  0  0  0  0  0  0  0
   29.2501  -20.7241   -5.7882 C   0  0  0  0  0  0  0  0  0  0  0  0
   26.1790  -22.1648  -13.1423 C   0  0  0  0  0  0  0  0  0  0  0  0
   24.6552  -22.1910  -13.0679 C   0  0  2  0  0  0  0  0  0  0  0  0
   24.1311  -22.1973  -14.4790 C   0  0  0  0  0  0  0  0  0  0  0  0
   24.1488  -20.9556  -12.3362 C   0  0  2  0  0  0  0  0  0  0  0  0
   24.5969  -21.0622  -10.9339 N   0  0  0  0  0  0  0  0  0  0  0  0
   22.6655  -20.9770  -12.2445 C   0  0  0  0  0  0  0  0  0  0  0  0
   22.0764  -21.8145  -11.4843 O   0  0  0  0  0  0  0  0  0  0  0  0
   20.1647  -18.0953  -14.1470 C   0  0  0  0  0  0  0  0  0  0  0  0
   19.7823  -18.8062  -12.8545 C   0  0  2  0  0  0  0  0  0  0  0  0
   20.2650  -17.9463  -11.7201 C   0  0  0  0  0  0  0  0  0  0  0  0
   20.3825  -20.1955  -12.8183 C   0  0  2  0  0  0  0  0  0  0  0  0
   21.8370  -20.0965  -12.9669 N   0  0  0  0  0  0  0  0  0  0  0  0
   19.7873  -20.9744  -13.9247 C   0  0  0  0  0  0  0  0  0  0  0  0
   18.5620  -21.5969  -13.7467 O   0  0  0  0  0  0  0  0  0  0  0  0
   20.3588  -21.0947  -15.0356 O   0  0  0  0  0  0  0  0  0  0  0  0
  2 12  2  0
  2  1  1  0
  3  2  1  0
  4  3  2  0
  5  4  1  0
  5 11  2  0
  6  5  1  0
  7  9  1  0
  7  6  1  0
  7  8  1  6
  9 10  2  0
 11 12  1  0
 14 13  1  6
 15 14  1  0
 16 14  1  0
 16 17  1  1
 17  9  1  0
 18 24  1  0
 18 16  1  0
 19 18  2  0
 21 23  1  0
 21 20  1  6
 22 21  1  0
 23 24  1  6
 25 23  1  0
 25 26  1  0
 27 25  2  0
M  END
$$$$
