YVV.pdb
     RDKit          3D

 27 27  0  0  1  0  0  0  0  0999 V2000
   29.2861  -20.3537   -3.5669 O   0  0  0  0  0  0  0  0  0  0  0  0
   28.6084  -20.2050   -4.7655 C   0  0  0  0  0  0  0  0  0  0  0  0
   29.0382  -19.2006   -5.6075 C   0  0  0  0  0  0  0  0  0  0  0  0
   28.3937  -19.0140   -6.8131 C   0  0  0  0  0  0  0  0  0  0  0  0
   27.3239  -19.8285   -7.1754 C   0  0  0  0  0  0  0  0  0  0  0  0
   26.6744  -19.5886   -8.4661 C   0  0  0  0  0  0  0  0  0  0  0  0
   26.8119  -20.7501   -9.4126 C   0  0  2  0  0  0  0  0  0  0  0  0
   28.1958  -21.0428   -9.7243 N   0  0  0  0  0  0  0  0  0  0  0  0
   26.1008  -20.5253  -10.6896 C   0  0  0  0  0  0  0  0  0  0  0  0
   26.7799  -19.9556  -11.6089 O   0  0  0  0  0  0  0  0  0  0  0  0
   26.8862  -20.8360   -6.3406 C   0  0  0  0  0  0  0  0  0  0  0  0
   27.5513  -20.9963   -5.1432 C   0  0  0  0  0  0  0  0  0  0  0  0
   23.9663  -23.1556  -12.3035 C   0  0  0  0  0  0  0  0  0  0  0  0
   24.4584  -21.9459  -13.0924 C   0  0  2  0  0  0  0  0  0  0  0  0
   25.9343  -22.1257  -13.3272 C   0  0  0  0  0  0  0  0  0  0  0  0
   24.2154  -20.6714  -12.2958 C   0  0  2  0  0  0  0  0  0  0  0  0
   24.7885  -20.8787  -10.9514 N   0  0  0  0  0  0  0  0  0  0  0  0
   22.7625  -20.4841  -12.0446 C   0  0  0  0  0  0  0  0  0  0  0  0
   22.2367  -20.8894  -10.9558 O   0  0  0  0  0  0  0  0  0  0  0  0
   20.3321  -17.9978  -14.4565 C   0  0  0  0  0  0  0  0  0  0  0  0
   20.0768  -18.2524  -12.9759 C   0  0  2  0  0  0  0  0  0  0  0  0
   20.8443  -17.2103  -12.2116 C   0  0  0  0  0  0  0  0  0  0  0  0
   20.4907  -19.6600  -12.6029 C   0  0  2  0  0  0  0  0  0  0  0  0
   21.8967  -19.8608  -12.9640 N   0  0  0  0  0  0  0  0  0  0  0  0
   19.6147  -20.5983  -13.3358 C   0  0  0  0  0  0  0  0  0  0  0  0
   18.3113  -20.7983  -12.9097 O   0  0  0  0  0  0  0  0  0  0  0  0
   20.0135  -21.2299  -14.3444 O   0  0  0  0  0  0  0  0  0  0  0  0
  2 12  2  0
  2  1  1  0
  3  2  1  0
  4  3  2  0
  5  4  1  0
  5 11  2  0
  6  5  1  0
  7  9  1  0
  7  6  1  0
  7  8  1  6
  9 10  2  0
 11 12  1  0
 14 13  1  1
 15 14  1  0
 16 14  1  0
 16 17  1  1
 17  9  1  0
 18 24  1  0
 18 16  1  0
 19 18  2  0
 21 23  1  0
 21 20  1  6
 22 21  1  0
 23 24  1  6
 25 23  1  0
 25 26  1  0
 27 25  2  0
M  END
$$$$
