YVV.pdb
     RDKit          3D

 27 27  0  0  1  0  0  0  0  0999 V2000
   19.8122  -23.6629   -7.7081 O   0  0  0  0  0  0  0  0  0  0  0  0
   20.7629  -22.7932   -8.2159 C   0  0  0  0  0  0  0  0  0  0  0  0
   20.8485  -22.6911   -9.5887 C   0  0  0  0  0  0  0  0  0  0  0  0
   21.7808  -21.8371  -10.1413 C   0  0  0  0  0  0  0  0  0  0  0  0
   22.6240  -21.0884   -9.3243 C   0  0  0  0  0  0  0  0  0  0  0  0
   23.5962  -20.1969   -9.9612 C   0  0  0  0  0  0  0  0  0  0  0  0
   24.8835  -20.8929  -10.3110 C   0  0  2  0  0  0  0  0  0  0  0  0
   25.6770  -21.1999   -9.1388 N   0  0  0  0  0  0  0  0  0  0  0  0
   25.7256  -20.0953  -11.2283 C   0  0  0  0  0  0  0  0  0  0  0  0
   26.4241  -19.1768  -10.6814 O   0  0  0  0  0  0  0  0  0  0  0  0
   22.5466  -21.1830   -7.9500 C   0  0  0  0  0  0  0  0  0  0  0  0
   21.6046  -22.0452   -7.4295 C   0  0  0  0  0  0  0  0  0  0  0  0
   28.6861  -19.6536  -14.9567 C   0  0  0  0  0  0  0  0  0  0  0  0
   27.7778  -20.4065  -13.9892 C   0  0  2  0  0  0  0  0  0  0  0  0
   27.0832  -21.4911  -14.7682 C   0  0  0  0  0  0  0  0  0  0  0  0
   26.7458  -19.4560  -13.3978 C   0  0  2  0  0  0  0  0  0  0  0  0
   25.8080  -20.2691  -12.5990 N   0  0  0  0  0  0  0  0  0  0  0  0
   25.8975  -18.8759  -14.4715 C   0  0  0  0  0  0  0  0  0  0  0  0
   24.9123  -19.5335  -14.9439 O   0  0  0  0  0  0  0  0  0  0  0  0
   24.3858  -14.9548  -17.0642 C   0  0  0  0  0  0  0  0  0  0  0  0
   25.0381  -15.5806  -15.8375 C   0  0  2  0  0  0  0  0  0  0  0  0
   26.3631  -14.8972  -15.6468 C   0  0  0  0  0  0  0  0  0  0  0  0
   25.1839  -17.0762  -16.0219 C   0  0  2  0  0  0  0  0  0  0  0  0
   26.1169  -17.5970  -15.0189 N   0  0  0  0  0  0  0  0  0  0  0  0
   25.6871  -17.3163  -17.3909 C   0  0  0  0  0  0  0  0  0  0  0  0
   24.7949  -17.6068  -18.4107 O   0  0  0  0  0  0  0  0  0  0  0  0
   26.9101  -17.2661  -17.6679 O   0  0  0  0  0  0  0  0  0  0  0  0
  2 12  2  0
  2  1  1  0
  3  2  1  0
  4  3  2  0
  5  4  1  0
  5 11  2  0
  6  5  1  0
  7  9  1  0
  7  6  1  0
  7  8  1  1
  9 10  2  0
 11 12  1  0
 14 13  1  6
 15 14  1  0
 16 14  1  0
 16 17  1  1
 17  9  1  0
 18 24  1  0
 18 16  1  0
 19 18  2  0
 21 23  1  0
 21 20  1  6
 22 21  1  0
 23 24  1  1
 25 23  1  0
 25 26  1  0
 27 25  2  0
M  END
$$$$
