YVV.pdb
     RDKit          3D

 27 27  0  0  1  0  0  0  0  0999 V2000
   30.6118  -20.3725   -6.7538 O   0  0  0  0  0  0  0  0  0  0  0  0
   29.3839  -20.3978   -7.3938 C   0  0  0  0  0  0  0  0  0  0  0  0
   29.2616  -21.2378   -8.4810 C   0  0  0  0  0  0  0  0  0  0  0  0
   28.0569  -21.2971   -9.1510 C   0  0  0  0  0  0  0  0  0  0  0  0
   26.9790  -20.5196   -8.7356 C   0  0  0  0  0  0  0  0  0  0  0  0
   25.7223  -20.6197   -9.4814 C   0  0  0  0  0  0  0  0  0  0  0  0
   25.9327  -20.7086  -10.9686 C   0  0  2  0  0  0  0  0  0  0  0  0
   26.9850  -19.8254  -11.4274 N   0  0  0  0  0  0  0  0  0  0  0  0
   24.7085  -20.3849  -11.7326 C   0  0  0  0  0  0  0  0  0  0  0  0
   24.2881  -19.1842  -11.6222 O   0  0  0  0  0  0  0  0  0  0  0  0
   27.0907  -19.6761   -7.6495 C   0  0  0  0  0  0  0  0  0  0  0  0
   28.3076  -19.6400   -7.0018 C   0  0  0  0  0  0  0  0  0  0  0  0
   24.1791  -19.6888  -14.9935 C   0  0  0  0  0  0  0  0  0  0  0  0
   23.1358  -20.7713  -14.7334 C   0  0  2  0  0  0  0  0  0  0  0  0
   21.9067  -20.4184  -15.5273 C   0  0  0  0  0  0  0  0  0  0  0  0
   22.7945  -20.8193  -13.2504 C   0  0  2  0  0  0  0  0  0  0  0  0
   24.0062  -21.2664  -12.5359 N   0  0  0  0  0  0  0  0  0  0  0  0
   21.7996  -21.8898  -12.9801 C   0  0  0  0  0  0  0  0  0  0  0  0
   22.0674  -23.1061  -13.2543 O   0  0  0  0  0  0  0  0  0  0  0  0
   19.7221  -22.5551   -9.7841 C   0  0  0  0  0  0  0  0  0  0  0  0
   18.7918  -22.5533  -10.9910 C   0  0  2  0  0  0  0  0  0  0  0  0
   17.7864  -23.6491  -10.7732 C   0  0  0  0  0  0  0  0  0  0  0  0
   19.5827  -22.7443  -12.2677 C   0  0  2  0  0  0  0  0  0  0  0  0
   20.5338  -21.6392  -12.4156 N   0  0  0  0  0  0  0  0  0  0  0  0
   18.6247  -22.7748  -13.3930 C   0  0  0  0  0  0  0  0  0  0  0  0
   18.3340  -23.9777  -14.0168 O   0  0  0  0  0  0  0  0  0  0  0  0
   18.0566  -21.7366  -13.8107 O   0  0  0  0  0  0  0  0  0  0  0  0
  2 12  2  0
  2  1  1  0
  3  2  1  0
  4  3  2  0
  5  4  1  0
  5 11  2  0
  6  5  1  0
  7  9  1  0
  7  6  1  0
  7  8  1  6
  9 10  2  0
 11 12  1  0
 14 13  1  1
 15 14  1  0
 16 14  1  0
 16 17  1  1
 17  9  1  0
 18 24  1  0
 18 16  1  0
 19 18  2  0
 21 23  1  0
 21 20  1  1
 22 21  1  0
 23 24  1  6
 25 23  1  0
 25 26  1  0
 27 25  2  0
M  END
$$$$
