YVV.pdb
     RDKit          3D

 27 27  0  0  1  0  0  0  0  0999 V2000
   18.1266  -16.7401  -17.9235 O   0  0  0  0  0  0  0  0  0  0  0  0
   18.9996  -17.4521  -17.1179 C   0  0  0  0  0  0  0  0  0  0  0  0
   20.3075  -17.0161  -17.0734 C   0  0  0  0  0  0  0  0  0  0  0  0
   21.2142  -17.6938  -16.2844 C   0  0  0  0  0  0  0  0  0  0  0  0
   20.8147  -18.8029  -15.5431 C   0  0  0  0  0  0  0  0  0  0  0  0
   21.8165  -19.4866  -14.7218 C   0  0  0  0  0  0  0  0  0  0  0  0
   22.8071  -20.2682  -15.5414 C   0  0  2  0  0  0  0  0  0  0  0  0
   22.1850  -21.3646  -16.2547 N   0  0  0  0  0  0  0  0  0  0  0  0
   23.9018  -20.8289  -14.7203 C   0  0  0  0  0  0  0  0  0  0  0  0
   23.6535  -21.9468  -14.1550 O   0  0  0  0  0  0  0  0  0  0  0  0
   19.5090  -19.2472  -15.5806 C   0  0  0  0  0  0  0  0  0  0  0  0
   18.6278  -18.5482  -16.3785 C   0  0  0  0  0  0  0  0  0  0  0  0
   28.5978  -21.0964  -13.2821 C   0  0  0  0  0  0  0  0  0  0  0  0
   27.5119  -20.5970  -14.2305 C   0  0  2  0  0  0  0  0  0  0  0  0
   27.6968  -19.1119  -14.3918 C   0  0  0  0  0  0  0  0  0  0  0  0
   26.1366  -20.8838  -13.6439 C   0  0  2  0  0  0  0  0  0  0  0  0
   25.1413  -20.2444  -14.5267 N   0  0  0  0  0  0  0  0  0  0  0  0
   25.9694  -20.1835  -12.3436 C   0  0  0  0  0  0  0  0  0  0  0  0
   25.8187  -18.9178  -12.3052 O   0  0  0  0  0  0  0  0  0  0  0  0
   24.6516  -21.8697   -8.7251 C   0  0  0  0  0  0  0  0  0  0  0  0
   24.6898  -20.3902   -9.0880 C   0  0  2  0  0  0  0  0  0  0  0  0
   23.4426  -20.0978   -9.8743 C   0  0  0  0  0  0  0  0  0  0  0  0
   25.9482  -20.0695   -9.8660 C   0  0  2  0  0  0  0  0  0  0  0  0
   25.9623  -20.8528  -11.1045 N   0  0  0  0  0  0  0  0  0  0  0  0
   27.1065  -20.4059   -9.0114 C   0  0  0  0  0  0  0  0  0  0  0  0
   27.9372  -21.4584   -9.3615 O   0  0  0  0  0  0  0  0  0  0  0  0
   27.3693  -19.7643   -7.9653 O   0  0  0  0  0  0  0  0  0  0  0  0
  2 12  2  0
  2  1  1  0
  3  2  1  0
  4  3  2  0
  5  4  1  0
  5 11  2  0
  6  5  1  0
  7  9  1  0
  7  6  1  0
  7  8  1  1
  9 10  2  0
 11 12  1  0
 14 13  1  1
 15 14  1  0
 16 14  1  0
 16 17  1  6
 17  9  1  0
 18 24  1  0
 18 16  1  0
 19 18  2  0
 21 23  1  0
 21 20  1  6
 22 21  1  0
 23 24  1  6
 25 23  1  0
 25 26  1  0
 27 25  2  0
M  END
$$$$
