YVV.pdb
     RDKit          3D

 27 27  0  0  1  0  0  0  0  0999 V2000
   18.6753  -16.8236  -17.3008 O   0  0  0  0  0  0  0  0  0  0  0  0
   19.5999  -17.5314  -16.5509 C   0  0  0  0  0  0  0  0  0  0  0  0
   19.1765  -18.7207  -15.9952 C   0  0  0  0  0  0  0  0  0  0  0  0
   20.0624  -19.4612  -15.2396 C   0  0  0  0  0  0  0  0  0  0  0  0
   21.3661  -19.0141  -15.0407 C   0  0  0  0  0  0  0  0  0  0  0  0
   22.2666  -19.8377  -14.2305 C   0  0  0  0  0  0  0  0  0  0  0  0
   23.4973  -20.2677  -14.9818 C   0  0  2  0  0  0  0  0  0  0  0  0
   23.1914  -21.1977  -16.0491 N   0  0  0  0  0  0  0  0  0  0  0  0
   24.5013  -20.9055  -14.1031 C   0  0  0  0  0  0  0  0  0  0  0  0
   24.3191  -22.1465  -13.8635 O   0  0  0  0  0  0  0  0  0  0  0  0
   21.7996  -17.8260  -15.5921 C   0  0  0  0  0  0  0  0  0  0  0  0
   20.8902  -17.1099  -16.3416 C   0  0  0  0  0  0  0  0  0  0  0  0
   28.2102  -19.3045  -13.2560 C   0  0  0  0  0  0  0  0  0  0  0  0
   27.9152  -20.7963  -13.1317 C   0  0  2  0  0  0  0  0  0  0  0  0
   28.0647  -21.4049  -14.5003 C   0  0  0  0  0  0  0  0  0  0  0  0
   26.4938  -21.0054  -12.6279 C   0  0  2  0  0  0  0  0  0  0  0  0
   25.5936  -20.2704  -13.5379 N   0  0  0  0  0  0  0  0  0  0  0  0
   26.3042  -20.3371  -11.3140 C   0  0  0  0  0  0  0  0  0  0  0  0
   26.0565  -19.0875  -11.2535 O   0  0  0  0  0  0  0  0  0  0  0  0
   25.1425  -20.0747   -6.6393 C   0  0  0  0  0  0  0  0  0  0  0  0
   25.2413  -20.8531   -7.9456 C   0  0  2  0  0  0  0  0  0  0  0  0
   25.5281  -22.2838   -7.5846 C   0  0  0  0  0  0  0  0  0  0  0  0
   26.3127  -20.2588   -8.8349 C   0  0  2  0  0  0  0  0  0  0  0  0
   26.3790  -21.0207  -10.0850 N   0  0  0  0  0  0  0  0  0  0  0  0
   27.5956  -20.3250   -8.1037 C   0  0  0  0  0  0  0  0  0  0  0  0
   28.5349  -21.2842   -8.4476 O   0  0  0  0  0  0  0  0  0  0  0  0
   27.8698  -19.5333   -7.1693 O   0  0  0  0  0  0  0  0  0  0  0  0
  2 12  2  0
  2  1  1  0
  3  2  1  0
  4  3  2  0
  5  4  1  0
  5 11  2  0
  6  5  1  0
  7  9  1  0
  7  6  1  0
  7  8  1  6
  9 10  2  0
 11 12  1  0
 14 13  1  6
 15 14  1  0
 16 14  1  0
 16 17  1  6
 17  9  1  0
 18 24  1  0
 18 16  1  0
 19 18  2  0
 21 23  1  0
 21 20  1  1
 22 21  1  0
 23 24  1  6
 25 23  1  0
 25 26  1  0
 27 25  2  0
M  END
$$$$
