NIR.pdb
     RDKit          3D

 28 27  0  0  1  0  0  0  0  0999 V2000
   28.2918  -18.3849  -17.4401 N   0  0  0  0  0  0  0  0  0  0  0  0
   27.9562  -18.1430  -16.0869 C   0  0  0  0  0  0  0  0  0  0  0  0
   28.4958  -17.1975  -15.4627 O   0  0  0  0  0  0  0  0  0  0  0  0
   26.9689  -18.9944  -15.3855 C   0  0  0  0  0  0  0  0  0  0  0  0
   27.6779  -19.9676  -14.4625 C   0  0  2  0  0  0  0  0  0  0  0  0
   28.3525  -20.9754  -15.2680 N   0  0  0  0  0  0  0  0  0  0  0  0
   26.7279  -20.6710  -13.5790 C   0  0  0  0  0  0  0  0  0  0  0  0
   26.2312  -21.7736  -13.8606 O   0  0  0  0  0  0  0  0  0  0  0  0
   27.1443  -20.6290   -8.3913 C   0  0  0  0  0  0  0  0  0  0  0  0
   26.7102  -21.2186   -9.7356 C   0  0  0  0  0  0  0  0  0  0  0  0
   25.3588  -20.6866  -10.1362 C   0  0  2  0  0  0  0  0  0  0  0  0
   24.3420  -21.3693   -9.2851 C   0  0  0  0  0  0  0  0  0  0  0  0
   25.2004  -20.6192  -11.5659 C   0  0  2  0  0  0  0  0  0  0  0  0
   26.3283  -20.0894  -12.3195 N   0  0  0  0  0  0  0  0  0  0  0  0
   23.9067  -20.2917  -12.1953 C   0  0  0  0  0  0  0  0  0  0  0  0
   23.3757  -19.1343  -12.1699 O   0  0  0  0  0  0  0  0  0  0  0  0
   22.4110  -23.3762  -19.5781 N   0  0  0  0  0  0  0  0  0  0  0  0
   23.2554  -22.2538  -19.4842 C   0  0  0  0  0  0  0  0  0  0  0  0
   23.9573  -21.8712  -20.4949 N   0  0  0  0  0  0  0  0  0  0  0  0
   23.3505  -21.5137  -18.2597 N   0  0  0  0  0  0  0  0  0  0  0  0
   22.4767  -21.9706  -17.1775 C   0  0  0  0  0  0  0  0  0  0  0  0
   22.6759  -21.0953  -15.9418 C   0  0  0  0  0  0  0  0  0  0  0  0
   21.8563  -21.6989  -14.8586 C   0  0  0  0  0  0  0  0  0  0  0  0
   21.8555  -20.9407  -13.5532 C   0  0  2  0  0  0  0  0  0  0  0  0
   23.1188  -21.2433  -12.8958 N   0  0  0  0  0  0  0  0  0  0  0  0
   20.7076  -21.2406  -12.6961 C   0  0  0  0  0  0  0  0  0  0  0  0
   19.5764  -20.7612  -12.9538 O   0  0  0  0  0  0  0  0  0  0  0  0
   20.8642  -22.0567  -11.5967 O   0  0  0  0  0  0  0  0  0  0  0  0
  2  1  1  0
  2  3  2  0
  4  2  1  0
  5  4  1  0
  5  6  1  6
  7  5  1  0
  8  7  2  0
  9 10  1  0
 11 13  1  0
 11 10  1  0
 11 12  1  6
 13 14  1  1
 14  7  1  0
 15 25  1  0
 15 13  1  0
 16 15  2  0
 17 18  1  0
 18 19  2  0
 20 18  1  0
 21 20  1  0
 22 21  1  0
 23 22  1  0
 24 23  1  6
 24 25  1  0
 26 28  1  0
 26 24  1  0
 27 26  2  0
M  END
$$$$
