NIR.pdb
     RDKit          3D

 28 27  0  0  1  0  0  0  0  0999 V2000
   11.9020  -24.0359    1.7653 N   0  0  0  0  0  0  0  0  0  0  0  0
   12.5267  -24.6853    0.6743 C   0  0  0  0  0  0  0  0  0  0  0  0
   11.8372  -25.3187   -0.1613 O   0  0  0  0  0  0  0  0  0  0  0  0
   13.9956  -24.6310    0.4983 C   0  0  0  0  0  0  0  0  0  0  0  0
   14.6397  -23.9317    1.6806 C   0  0  2  0  0  0  0  0  0  0  0  0
   14.2823  -22.5208    1.6460 N   0  0  0  0  0  0  0  0  0  0  0  0
   16.1121  -24.0162    1.6275 C   0  0  0  0  0  0  0  0  0  0  0  0
   16.8060  -23.2869    0.9007 O   0  0  0  0  0  0  0  0  0  0  0  0
   21.0250  -24.9896    5.0711 C   0  0  0  0  0  0  0  0  0  0  0  0
   20.4047  -24.9597    3.6719 C   0  0  0  0  0  0  0  0  0  0  0  0
   18.9008  -24.9373    3.7592 C   0  0  2  0  0  0  0  0  0  0  0  0
   18.5051  -25.8665    4.8566 C   0  0  0  0  0  0  0  0  0  0  0  0
   18.2775  -25.0164    2.4635 C   0  0  2  0  0  0  0  0  0  0  0  0
   16.8220  -24.9755    2.4399 N   0  0  0  0  0  0  0  0  0  0  0  0
   18.8291  -25.8519    1.3795 C   0  0  0  0  0  0  0  0  0  0  0  0
   20.0652  -25.8985    1.0759 O   0  0  0  0  0  0  0  0  0  0  0  0
   14.7994  -29.6689   -4.8874 N   0  0  0  0  0  0  0  0  0  0  0  0
   15.9591  -30.4612   -4.9831 C   0  0  0  0  0  0  0  0  0  0  0  0
   16.1543  -31.2225   -6.0043 N   0  0  0  0  0  0  0  0  0  0  0  0
   16.9469  -30.4357   -3.9439 N   0  0  0  0  0  0  0  0  0  0  0  0
   16.7048  -29.4732   -2.8676 C   0  0  0  0  0  0  0  0  0  0  0  0
   17.8004  -29.5879   -1.8095 C   0  0  0  0  0  0  0  0  0  0  0  0
   17.4740  -28.5952   -0.7525 C   0  0  0  0  0  0  0  0  0  0  0  0
   18.5540  -27.5797   -0.4673 C   0  0  2  0  0  0  0  0  0  0  0  0
   18.0291  -26.6920    0.5602 N   0  0  0  0  0  0  0  0  0  0  0  0
   19.0000  -26.8428   -1.6508 C   0  0  0  0  0  0  0  0  0  0  0  0
   19.9913  -27.2374   -2.3120 O   0  0  0  0  0  0  0  0  0  0  0  0
   18.3284  -25.7067   -2.0475 O   0  0  0  0  0  0  0  0  0  0  0  0
  2  1  1  0
  2  3  2  0
  4  2  1  0
  5  4  1  0
  5  6  1  6
  7  5  1  0
  8  7  2  0
  9 10  1  0
 11 13  1  0
 11 10  1  0
 11 12  1  1
 13 14  1  1
 14  7  1  0
 15 25  1  0
 15 13  1  0
 16 15  2  0
 17 18  1  0
 18 19  2  0
 20 18  1  0
 21 20  1  0
 22 21  1  0
 23 22  1  0
 24 23  1  6
 24 25  1  0
 26 28  1  0
 26 24  1  0
 27 26  2  0
M  END
$$$$
