NIR.pdb
     RDKit          3D

 28 27  0  0  1  0  0  0  0  0999 V2000
   18.3636  -23.9723  -11.1903 N   0  0  0  0  0  0  0  0  0  0  0  0
   18.1417  -23.1856  -12.3454 C   0  0  0  0  0  0  0  0  0  0  0  0
   17.1802  -23.4442  -13.1092 O   0  0  0  0  0  0  0  0  0  0  0  0
   19.0330  -22.0500  -12.6734 C   0  0  0  0  0  0  0  0  0  0  0  0
   20.1529  -21.9513  -11.6546 C   0  0  2  0  0  0  0  0  0  0  0  0
   19.6231  -21.3786  -10.4254 N   0  0  0  0  0  0  0  0  0  0  0  0
   21.2384  -21.0676  -12.1221 C   0  0  0  0  0  0  0  0  0  0  0  0
   21.1417  -19.8300  -12.1431 O   0  0  0  0  0  0  0  0  0  0  0  0
   26.9652  -21.7295  -13.2336 C   0  0  0  0  0  0  0  0  0  0  0  0
   25.5947  -22.1119  -12.6690 C   0  0  0  0  0  0  0  0  0  0  0  0
   24.8168  -20.8799  -12.2857 C   0  0  2  0  0  0  0  0  0  0  0  0
   24.8351  -20.7877  -10.7973 C   0  0  0  0  0  0  0  0  0  0  0  0
   23.5822  -20.7639  -13.0179 C   0  0  2  0  0  0  0  0  0  0  0  0
   22.4881  -21.6222  -12.5855 N   0  0  0  0  0  0  0  0  0  0  0  0
   23.5554  -20.5170  -14.4724 C   0  0  0  0  0  0  0  0  0  0  0  0
   23.2569  -21.4014  -15.3389 O   0  0  0  0  0  0  0  0  0  0  0  0
   22.4221  -12.9803  -18.4531 N   0  0  0  0  0  0  0  0  0  0  0  0
   22.5354  -13.7934  -19.5967 C   0  0  0  0  0  0  0  0  0  0  0  0
   22.3499  -13.3037  -20.7741 N   0  0  0  0  0  0  0  0  0  0  0  0
   22.8600  -15.1846  -19.4724 N   0  0  0  0  0  0  0  0  0  0  0  0
   22.9920  -15.6811  -18.1013 C   0  0  0  0  0  0  0  0  0  0  0  0
   23.4671  -17.1326  -18.1160 C   0  0  0  0  0  0  0  0  0  0  0  0
   23.5150  -17.5768  -16.6984 C   0  0  0  0  0  0  0  0  0  0  0  0
   23.9366  -19.0109  -16.4870 C   0  0  2  0  0  0  0  0  0  0  0  0
   23.8641  -19.2587  -15.0542 N   0  0  0  0  0  0  0  0  0  0  0  0
   25.2593  -19.3244  -17.0298 C   0  0  0  0  0  0  0  0  0  0  0  0
   25.3940  -19.6474  -18.2353 O   0  0  0  0  0  0  0  0  0  0  0  0
   26.3692  -19.2643  -16.2153 O   0  0  0  0  0  0  0  0  0  0  0  0
  2  1  1  0
  2  3  2  0
  4  2  1  0
  5  4  1  0
  5  6  1  1
  7  5  1  0
  8  7  2  0
  9 10  1  0
 11 13  1  0
 11 10  1  0
 11 12  1  1
 13 14  1  6
 14  7  1  0
 15 25  1  0
 15 13  1  0
 16 15  2  0
 17 18  1  0
 18 19  2  0
 20 18  1  0
 21 20  1  0
 22 21  1  0
 23 22  1  0
 24 23  1  1
 24 25  1  0
 26 28  1  0
 26 24  1  0
 27 26  2  0
M  END
$$$$
