NIR.pdb
     RDKit          3D

 28 27  0  0  1  0  0  0  0  0999 V2000
   29.9981  -22.0410  -11.4271 N   0  0  0  0  0  0  0  0  0  0  0  0
   29.3683  -21.2239  -10.4587 C   0  0  0  0  0  0  0  0  0  0  0  0
   29.9430  -20.9787   -9.3704 O   0  0  0  0  0  0  0  0  0  0  0  0
   28.0283  -20.6460  -10.7083 C   0  0  0  0  0  0  0  0  0  0  0  0
   27.5000  -21.1090  -12.0530 C   0  0  2  0  0  0  0  0  0  0  0  0
   28.3850  -20.6210  -13.1009 N   0  0  0  0  0  0  0  0  0  0  0  0
   26.1536  -20.5692  -12.3245 C   0  0  0  0  0  0  0  0  0  0  0  0
   25.9277  -19.3573  -12.4730 O   0  0  0  0  0  0  0  0  0  0  0  0
   23.7397  -19.3996  -16.3124 C   0  0  0  0  0  0  0  0  0  0  0  0
   23.8350  -20.5097  -15.2627 C   0  0  0  0  0  0  0  0  0  0  0  0
   23.7177  -19.9375  -13.8739 C   0  0  2  0  0  0  0  0  0  0  0  0
   24.6539  -18.7796  -13.7896 C   0  0  0  0  0  0  0  0  0  0  0  0
   23.7148  -20.9605  -12.8604 C   0  0  2  0  0  0  0  0  0  0  0  0
   25.0164  -21.4522  -12.4308 N   0  0  0  0  0  0  0  0  0  0  0  0
   22.6786  -22.0099  -12.8109 C   0  0  0  0  0  0  0  0  0  0  0  0
   22.8552  -23.2040  -13.2174 O   0  0  0  0  0  0  0  0  0  0  0  0
   17.7814  -25.5211   -6.8627 N   0  0  0  0  0  0  0  0  0  0  0  0
   17.5070  -24.5023   -7.7947 C   0  0  0  0  0  0  0  0  0  0  0  0
   16.5651  -24.6404   -8.6632 N   0  0  0  0  0  0  0  0  0  0  0  0
   18.2722  -23.2895   -7.7950 N   0  0  0  0  0  0  0  0  0  0  0  0
   18.2968  -22.5601   -9.0642 C   0  0  0  0  0  0  0  0  0  0  0  0
   19.3816  -23.1333   -9.9739 C   0  0  0  0  0  0  0  0  0  0  0  0
   19.3207  -22.3625  -11.2433 C   0  0  0  0  0  0  0  0  0  0  0  0
   20.3100  -22.7862  -12.3019 C   0  0  2  0  0  0  0  0  0  0  0  0
   21.3711  -21.7894  -12.3022 N   0  0  0  0  0  0  0  0  0  0  0  0
   19.7185  -22.9554  -13.6300 C   0  0  0  0  0  0  0  0  0  0  0  0
   19.5627  -21.9683  -14.3896 O   0  0  0  0  0  0  0  0  0  0  0  0
   19.3291  -24.2070  -14.0555 O   0  0  0  0  0  0  0  0  0  0  0  0
  2  1  1  0
  2  3  2  0
  4  2  1  0
  5  4  1  0
  5  6  1  6
  7  5  1  0
  8  7  2  0
  9 10  1  0
 11 13  1  0
 11 10  1  0
 11 12  1  1
 13 14  1  6
 14  7  1  0
 15 25  1  0
 15 13  1  0
 16 15  2  0
 17 18  1  0
 18 19  2  0
 20 18  1  0
 21 20  1  0
 22 21  1  0
 23 22  1  0
 24 23  1  1
 24 25  1  0
 26 28  1  0
 26 24  1  0
 27 26  2  0
M  END
$$$$
