NIR.pdb
     RDKit          3D

 28 27  0  0  1  0  0  0  0  0999 V2000
   23.1164  -25.7962   -6.7480 N   0  0  0  0  0  0  0  0  0  0  0  0
   22.7855  -24.5105   -6.2583 C   0  0  0  0  0  0  0  0  0  0  0  0
   22.2634  -24.3827   -5.1243 O   0  0  0  0  0  0  0  0  0  0  0  0
   23.0467  -23.2991   -7.0682 C   0  0  0  0  0  0  0  0  0  0  0  0
   23.6303  -23.6845   -8.4146 C   0  0  2  0  0  0  0  0  0  0  0  0
   24.8959  -24.3715   -8.2008 N   0  0  0  0  0  0  0  0  0  0  0  0
   23.9064  -22.4985   -9.2483 C   0  0  0  0  0  0  0  0  0  0  0  0
   23.0107  -21.7808   -9.7218 O   0  0  0  0  0  0  0  0  0  0  0  0
   27.9461  -19.0132   -8.2562 C   0  0  0  0  0  0  0  0  0  0  0  0
   26.6469  -19.7274   -8.6370 C   0  0  0  0  0  0  0  0  0  0  0  0
   26.6911  -20.1777  -10.0741 C   0  0  2  0  0  0  0  0  0  0  0  0
   27.0745  -18.9958  -10.8988 C   0  0  0  0  0  0  0  0  0  0  0  0
   25.5542  -20.9877  -10.4276 C   0  0  2  0  0  0  0  0  0  0  0  0
   25.2646  -22.1163   -9.5540 N   0  0  0  0  0  0  0  0  0  0  0  0
   25.1970  -21.2644  -11.8323 C   0  0  0  0  0  0  0  0  0  0  0  0
   25.6888  -22.2193  -12.5168 O   0  0  0  0  0  0  0  0  0  0  0  0
   19.3584  -22.7245  -17.3915 N   0  0  0  0  0  0  0  0  0  0  0  0
   19.6292  -23.5890  -16.3139 C   0  0  0  0  0  0  0  0  0  0  0  0
   19.4283  -24.8574  -16.4205 N   0  0  0  0  0  0  0  0  0  0  0  0
   20.1346  -23.0732  -15.0750 N   0  0  0  0  0  0  0  0  0  0  0  0
   20.3310  -21.6231  -15.0293 C   0  0  0  0  0  0  0  0  0  0  0  0
   21.8011  -21.2882  -15.2734 C   0  0  0  0  0  0  0  0  0  0  0  0
   22.4243  -21.1169  -13.9349 C   0  0  0  0  0  0  0  0  0  0  0  0
   23.8862  -20.7406  -13.9488 C   0  0  2  0  0  0  0  0  0  0  0  0
   24.2630  -20.4855  -12.5659 N   0  0  0  0  0  0  0  0  0  0  0  0
   24.1960  -19.6047  -14.8183 C   0  0  0  0  0  0  0  0  0  0  0  0
   24.0796  -18.4281  -14.3967 O   0  0  0  0  0  0  0  0  0  0  0  0
   24.6209  -19.8234  -16.1109 O   0  0  0  0  0  0  0  0  0  0  0  0
  2  1  1  0
  2  3  2  0
  4  2  1  0
  5  4  1  0
  5  6  1  1
  7  5  1  0
  8  7  2  0
  9 10  1  0
 11 13  1  0
 11 10  1  0
 11 12  1  6
 13 14  1  1
 14  7  1  0
 15 25  1  0
 15 13  1  0
 16 15  2  0
 17 18  1  0
 18 19  2  0
 20 18  1  0
 21 20  1  0
 22 21  1  0
 23 22  1  0
 24 23  1  1
 24 25  1  0
 26 28  1  0
 26 24  1  0
 27 26  2  0
M  END
$$$$
