NIR.pdb
     RDKit          3D

 28 27  0  0  1  0  0  0  0  0999 V2000
   27.7283  -25.3811  -16.6108 N   0  0  0  0  0  0  0  0  0  0  0  0
   27.1399  -24.2051  -17.1333 C   0  0  0  0  0  0  0  0  0  0  0  0
   27.3679  -23.8585  -18.3177 O   0  0  0  0  0  0  0  0  0  0  0  0
   26.2499  -23.3661  -16.2992 C   0  0  0  0  0  0  0  0  0  0  0  0
   26.5191  -21.8960  -16.5603 C   0  0  2  0  0  0  0  0  0  0  0  0
   27.8805  -21.5855  -16.1485 N   0  0  0  0  0  0  0  0  0  0  0  0
   25.6131  -21.0296  -15.7815 C   0  0  0  0  0  0  0  0  0  0  0  0
   25.4617  -21.1386  -14.5540 O   0  0  0  0  0  0  0  0  0  0  0  0
   26.3196  -16.1315  -15.2990 C   0  0  0  0  0  0  0  0  0  0  0  0
   25.8444  -17.5791  -15.1504 C   0  0  0  0  0  0  0  0  0  0  0  0
   24.4141  -17.7168  -15.6031 C   0  0  2  0  0  0  0  0  0  0  0  0
   23.6112  -16.7084  -14.8529 C   0  0  0  0  0  0  0  0  0  0  0  0
   23.9935  -19.0922  -15.6731 C   0  0  2  0  0  0  0  0  0  0  0  0
   24.8473  -19.9940  -16.4337 N   0  0  0  0  0  0  0  0  0  0  0  0
   22.5700  -19.4721  -15.7537 C   0  0  0  0  0  0  0  0  0  0  0  0
   21.8636  -19.3650  -16.8081 O   0  0  0  0  0  0  0  0  0  0  0  0
   16.2378  -23.9115  -12.6421 N   0  0  0  0  0  0  0  0  0  0  0  0
   17.3453  -24.6818  -13.0444 C   0  0  0  0  0  0  0  0  0  0  0  0
   17.1846  -25.8701  -13.5161 N   0  0  0  0  0  0  0  0  0  0  0  0
   18.6756  -24.1574  -12.9364 N   0  0  0  0  0  0  0  0  0  0  0  0
   18.7835  -22.8347  -12.3179 C   0  0  0  0  0  0  0  0  0  0  0  0
   18.7777  -21.7530  -13.3962 C   0  0  0  0  0  0  0  0  0  0  0  0
   20.1920  -21.3372  -13.5864 C   0  0  0  0  0  0  0  0  0  0  0  0
   20.4256  -20.3363  -14.6921 C   0  0  2  0  0  0  0  0  0  0  0  0
   21.8410  -19.9973  -14.6538 N   0  0  0  0  0  0  0  0  0  0  0  0
   19.5762  -19.1477  -14.6028 C   0  0  0  0  0  0  0  0  0  0  0  0
   19.8896  -18.1946  -13.8484 O   0  0  0  0  0  0  0  0  0  0  0  0
   18.4224  -19.0686  -15.3523 O   0  0  0  0  0  0  0  0  0  0  0  0
  2  1  1  0
  2  3  2  0
  4  2  1  0
  5  4  1  0
  5  6  1  1
  7  5  1  0
  8  7  2  0
  9 10  1  0
 11 13  1  0
 11 10  1  0
 11 12  1  1
 13 14  1  6
 14  7  1  0
 15 25  1  0
 15 13  1  0
 16 15  2  0
 17 18  1  0
 18 19  2  0
 20 18  1  0
 21 20  1  0
 22 21  1  0
 23 22  1  0
 24 23  1  1
 24 25  1  0
 26 28  1  0
 26 24  1  0
 27 26  2  0
M  END
$$$$
