KMN.pdb
     RDKit          3D

 26 25  0  0  1  0  0  0  0  0999 V2000
   17.8513  -10.9031  -15.9411 N   0  0  0  0  0  0  0  0  0  0  0  0
   16.9962  -10.2461  -15.0025 C   0  0  1  0  0  0  0  0  0  0  0  0
   16.1256  -11.2141  -14.2745 C   0  0  0  0  0  0  0  0  0  0  0  0
   15.6103  -12.3390  -15.0993 C   0  0  0  0  0  0  0  0  0  0  0  0
   14.9111  -13.3728  -14.3033 C   0  0  0  0  0  0  0  0  0  0  0  0
   14.5345  -14.5923  -15.1455 C   0  0  0  0  0  0  0  0  0  0  0  0
   13.9919  -15.6497  -14.3589 N   0  0  0  0  0  0  0  0  0  0  0  0
   17.8130   -9.4167  -14.0633 C   0  0  0  0  0  0  0  0  0  0  0  0
   17.3381   -8.7881  -13.0929 O   0  0  0  0  0  0  0  0  0  0  0  0
   24.4834  -10.4540  -15.9336 C   0  0  0  0  0  0  0  0  0  0  0  0
   23.7419   -9.9738  -14.3628 S   0  0  0  0  0  0  0  0  0  0  0  0
   22.0543   -9.3227  -14.6032 C   0  0  0  0  0  0  0  0  0  0  0  0
   21.3810   -9.0865  -13.2947 C   0  0  0  0  0  0  0  0  0  0  0  0
   20.0234   -8.4737  -13.4978 C   0  0  2  0  0  0  0  0  0  0  0  0
   19.2095   -9.3353  -14.2838 N   0  0  0  0  0  0  0  0  0  0  0  0
   20.2129   -7.1300  -14.0899 C   0  0  0  0  0  0  0  0  0  0  0  0
   21.0166   -6.2649  -13.6577 O   0  0  0  0  0  0  0  0  0  0  0  0
   20.8047   -3.6533  -18.5895 N   0  0  0  0  0  0  0  0  0  0  0  0
   20.7111   -3.8032  -17.1818 C   0  0  0  0  0  0  0  0  0  0  0  0
   20.6265   -2.7745  -16.4755 O   0  0  0  0  0  0  0  0  0  0  0  0
   20.7123   -5.1297  -16.5580 C   0  0  0  0  0  0  0  0  0  0  0  0
   19.4659   -5.4180  -15.7804 C   0  0  2  0  0  0  0  0  0  0  0  0
   19.4429   -6.7681  -15.2295 N   0  0  0  0  0  0  0  0  0  0  0  0
   18.2691   -5.2068  -16.6263 C   0  0  0  0  0  0  0  0  0  0  0  0
   17.7866   -3.9338  -16.8270 O   0  0  0  0  0  0  0  0  0  0  0  0
   17.6808   -6.1744  -17.1688 O   0  0  0  0  0  0  0  0  0  0  0  0
  2  1  1  6
  3  4  1  0
  3  2  1  0
  4  5  1  0
  6  5  1  0
  7  6  1  0
  8  2  1  0
  8  9  2  0
 10 11  1  0
 11 12  1  0
 12 13  1  0
 14 13  1  6
 14 15  1  0
 15  8  1  0
 16 14  1  0
 17 16  2  0
 18 19  1  0
 19 21  1  0
 20 19  2  0
 22 21  1  6
 22 24  1  0
 22 23  1  0
 23 16  1  0
 24 25  1  0
 26 24  2  0
M  END
$$$$
