KMN.pdb
     RDKit          3D

 26 25  0  0  1  0  0  0  0  0999 V2000
   26.6602  -19.4827  -13.8969 N   0  0  0  0  0  0  0  0  0  0  0  0
   26.7156  -20.9111  -13.9184 C   0  0  1  0  0  0  0  0  0  0  0  0
   28.0883  -21.4075  -14.2253 C   0  0  0  0  0  0  0  0  0  0  0  0
   28.5014  -21.2735  -15.6475 C   0  0  0  0  0  0  0  0  0  0  0  0
   28.3518  -19.8967  -16.1705 C   0  0  0  0  0  0  0  0  0  0  0  0
   28.7500  -19.7931  -17.6432 C   0  0  0  0  0  0  0  0  0  0  0  0
   28.4562  -18.5131  -18.1970 N   0  0  0  0  0  0  0  0  0  0  0  0
   26.2012  -21.4601  -12.6256 C   0  0  0  0  0  0  0  0  0  0  0  0
   26.0340  -22.6783  -12.4012 O   0  0  0  0  0  0  0  0  0  0  0  0
   27.3023  -19.9572   -5.9329 C   0  0  0  0  0  0  0  0  0  0  0  0
   27.7103  -19.4280   -7.6066 S   0  0  0  0  0  0  0  0  0  0  0  0
   27.0289  -20.5808   -8.8461 C   0  0  0  0  0  0  0  0  0  0  0  0
   25.6416  -20.1944   -9.2299 C   0  0  0  0  0  0  0  0  0  0  0  0
   25.1836  -20.9773  -10.4287 C   0  0  2  0  0  0  0  0  0  0  0  0
   25.8822  -20.5477  -11.5906 N   0  0  0  0  0  0  0  0  0  0  0  0
   23.7134  -20.8361  -10.5318 C   0  0  0  0  0  0  0  0  0  0  0  0
   22.9069  -21.0476   -9.5906 O   0  0  0  0  0  0  0  0  0  0  0  0
   19.4651  -17.4204  -12.7188 N   0  0  0  0  0  0  0  0  0  0  0  0
   19.9882  -18.7243  -12.9162 C   0  0  0  0  0  0  0  0  0  0  0  0
   19.1975  -19.6472  -13.2117 O   0  0  0  0  0  0  0  0  0  0  0  0
   21.4223  -18.9955  -12.7797 C   0  0  0  0  0  0  0  0  0  0  0  0
   21.7190  -20.1916  -11.9296 C   0  0  2  0  0  0  0  0  0  0  0  0
   23.1487  -20.4334  -11.7734 N   0  0  0  0  0  0  0  0  0  0  0  0
   21.0702  -21.3981  -12.4915 C   0  0  0  0  0  0  0  0  0  0  0  0
   19.8276  -21.7816  -12.0417 O   0  0  0  0  0  0  0  0  0  0  0  0
   21.6363  -22.0842  -13.3779 O   0  0  0  0  0  0  0  0  0  0  0  0
  2  1  1  1
  3  4  1  0
  3  2  1  0
  4  5  1  0
  6  5  1  0
  7  6  1  0
  8  2  1  0
  8  9  2  0
 10 11  1  0
 11 12  1  0
 12 13  1  0
 14 13  1  1
 14 15  1  0
 15  8  1  0
 16 14  1  0
 17 16  2  0
 18 19  1  0
 19 21  1  0
 20 19  2  0
 22 21  1  6
 22 24  1  0
 22 23  1  0
 23 16  1  0
 24 25  1  0
 26 24  2  0
M  END
$$$$
