KMN.pdb
     RDKit          3D

 26 25  0  0  1  0  0  0  0  0999 V2000
   23.3676  -15.5877  -19.9069 N   0  0  0  0  0  0  0  0  0  0  0  0
   23.4903  -14.1791  -20.1185 C   0  0  1  0  0  0  0  0  0  0  0  0
   22.3540  -13.6383  -20.9193 C   0  0  0  0  0  0  0  0  0  0  0  0
   22.1943  -14.2406  -22.2694 C   0  0  0  0  0  0  0  0  0  0  0  0
   21.1152  -13.6118  -23.0641 C   0  0  0  0  0  0  0  0  0  0  0  0
   20.9473  -14.2725  -24.4329 C   0  0  0  0  0  0  0  0  0  0  0  0
   20.0501  -13.5549  -25.2765 N   0  0  0  0  0  0  0  0  0  0  0  0
   23.6294  -13.4772  -18.8050 C   0  0  0  0  0  0  0  0  0  0  0  0
   22.8839  -13.6798  -17.8223 O   0  0  0  0  0  0  0  0  0  0  0  0
   28.7517  -13.0950  -15.1427 C   0  0  0  0  0  0  0  0  0  0  0  0
   28.1696  -11.3903  -15.0882 S   0  0  0  0  0  0  0  0  0  0  0  0
   26.4389  -11.2671  -15.6532 C   0  0  0  0  0  0  0  0  0  0  0  0
   26.2752  -11.8645  -17.0087 C   0  0  0  0  0  0  0  0  0  0  0  0
   24.8377  -11.8084  -17.4448 C   0  0  2  0  0  0  0  0  0  0  0  0
   24.6667  -12.5238  -18.6621 N   0  0  0  0  0  0  0  0  0  0  0  0
   24.4418  -10.3844  -17.5306 C   0  0  0  0  0  0  0  0  0  0  0  0
   24.7619   -9.6083  -18.4668 O   0  0  0  0  0  0  0  0  0  0  0  0
   22.0361   -5.8945  -16.5496 N   0  0  0  0  0  0  0  0  0  0  0  0
   21.5861   -6.8103  -15.5641 C   0  0  0  0  0  0  0  0  0  0  0  0
   20.7308   -6.4255  -14.7366 O   0  0  0  0  0  0  0  0  0  0  0  0
   22.1048   -8.1801  -15.5075 C   0  0  0  0  0  0  0  0  0  0  0  0
   23.1436   -8.4619  -16.5480 C   0  0  2  0  0  0  0  0  0  0  0  0
   23.6423   -9.8312  -16.4926 N   0  0  0  0  0  0  0  0  0  0  0  0
   24.2753   -7.5160  -16.4173 C   0  0  0  0  0  0  0  0  0  0  0  0
   24.1733   -6.2473  -16.9403 O   0  0  0  0  0  0  0  0  0  0  0  0
   25.3353   -7.8515  -15.8336 O   0  0  0  0  0  0  0  0  0  0  0  0
  2  1  1  1
  3  4  1  0
  3  2  1  0
  4  5  1  0
  6  5  1  0
  7  6  1  0
  8  2  1  0
  8  9  2  0
 10 11  1  0
 11 12  1  0
 12 13  1  0
 14 13  1  6
 14 15  1  0
 15  8  1  0
 16 14  1  0
 17 16  2  0
 18 19  1  0
 19 21  1  0
 20 19  2  0
 22 21  1  1
 22 24  1  0
 22 23  1  0
 23 16  1  0
 24 25  1  0
 26 24  2  0
M  END
$$$$
