KMN.pdb
     RDKit          3D

 26 25  0  0  1  0  0  0  0  0999 V2000
   27.9868  -20.6407  -15.1556 N   0  0  0  0  0  0  0  0  0  0  0  0
   26.8651  -21.2168  -15.8290 C   0  0  1  0  0  0  0  0  0  0  0  0
   27.2514  -22.4238  -16.6156 C   0  0  0  0  0  0  0  0  0  0  0  0
   28.7067  -22.5545  -16.8916 C   0  0  0  0  0  0  0  0  0  0  0  0
   29.2526  -23.8808  -16.5251 C   0  0  0  0  0  0  0  0  0  0  0  0
   30.7414  -24.0020  -16.8525 C   0  0  0  0  0  0  0  0  0  0  0  0
   31.3235  -25.1830  -16.3070 N   0  0  0  0  0  0  0  0  0  0  0  0
   25.7799  -21.5178  -14.8446 C   0  0  0  0  0  0  0  0  0  0  0  0
   24.8079  -22.2665  -15.0836 O   0  0  0  0  0  0  0  0  0  0  0  0
   26.3802  -19.8415   -8.5381 C   0  0  0  0  0  0  0  0  0  0  0  0
   27.0597  -21.3899   -9.1612 S   0  0  0  0  0  0  0  0  0  0  0  0
   26.4505  -21.7464  -10.8439 C   0  0  0  0  0  0  0  0  0  0  0  0
   25.3465  -20.8188  -11.2205 C   0  0  0  0  0  0  0  0  0  0  0  0
   24.8323  -21.1349  -12.5973 C   0  0  2  0  0  0  0  0  0  0  0  0
   25.8538  -20.9197  -13.5631 N   0  0  0  0  0  0  0  0  0  0  0  0
   23.6151  -20.3240  -12.8274 C   0  0  0  0  0  0  0  0  0  0  0  0
   23.6089  -19.0805  -13.0139 O   0  0  0  0  0  0  0  0  0  0  0  0
   20.8145  -17.8841  -16.2916 N   0  0  0  0  0  0  0  0  0  0  0  0
   20.7410  -18.5204  -15.0257 C   0  0  0  0  0  0  0  0  0  0  0  0
   20.1115  -17.9518  -14.1066 O   0  0  0  0  0  0  0  0  0  0  0  0
   21.3846  -19.8159  -14.7888 C   0  0  0  0  0  0  0  0  0  0  0  0
   21.1629  -20.3413  -13.4046 C   0  0  2  0  0  0  0  0  0  0  0  0
   22.3506  -20.9747  -12.8434 N   0  0  0  0  0  0  0  0  0  0  0  0
   20.0355  -21.3011  -13.3911 C   0  0  0  0  0  0  0  0  0  0  0  0
   20.2854  -22.6540  -13.4198 O   0  0  0  0  0  0  0  0  0  0  0  0
   18.8456  -20.9016  -13.3535 O   0  0  0  0  0  0  0  0  0  0  0  0
  2  1  1  1
  3  4  1  0
  3  2  1  0
  4  5  1  0
  6  5  1  0
  7  6  1  0
  8  2  1  0
  8  9  2  0
 10 11  1  0
 11 12  1  0
 12 13  1  0
 14 13  1  1
 14 15  1  0
 15  8  1  0
 16 14  1  0
 17 16  2  0
 18 19  1  0
 19 21  1  0
 20 19  2  0
 22 21  1  6
 22 24  1  0
 22 23  1  0
 23 16  1  0
 24 25  1  0
 26 24  2  0
M  END
$$$$
