KMN.pdb
     RDKit          3D

 26 25  0  0  1  0  0  0  0  0999 V2000
   20.4288  -13.0801  -15.7169 N   0  0  0  0  0  0  0  0  0  0  0  0
   20.4259  -11.9166  -16.5476 C   0  0  1  0  0  0  0  0  0  0  0  0
   19.0401  -11.4804  -16.8851 C   0  0  0  0  0  0  0  0  0  0  0  0
   18.1905  -12.5227  -17.5199 C   0  0  0  0  0  0  0  0  0  0  0  0
   16.8550  -12.0232  -17.9180 C   0  0  0  0  0  0  0  0  0  0  0  0
   16.0485  -13.0767  -18.6782 C   0  0  0  0  0  0  0  0  0  0  0  0
   16.8168  -13.7249  -19.6885 N   0  0  0  0  0  0  0  0  0  0  0  0
   21.2103  -10.8230  -15.8948 C   0  0  0  0  0  0  0  0  0  0  0  0
   21.0996  -10.5071  -14.6905 O   0  0  0  0  0  0  0  0  0  0  0  0
   27.3528   -9.4976  -16.1603 C   0  0  0  0  0  0  0  0  0  0  0  0
   26.4674  -10.4942  -14.9477 S   0  0  0  0  0  0  0  0  0  0  0  0
   24.6855  -10.1011  -14.9472 C   0  0  0  0  0  0  0  0  0  0  0  0
   24.3198   -9.2758  -16.1331 C   0  0  0  0  0  0  0  0  0  0  0  0
   22.8441   -8.9895  -16.1474 C   0  0  2  0  0  0  0  0  0  0  0  0
   22.1350  -10.0986  -16.6857 N   0  0  0  0  0  0  0  0  0  0  0  0
   22.6309   -7.7282  -16.8927 C   0  0  0  0  0  0  0  0  0  0  0  0
   22.7949   -7.5934  -18.1320 O   0  0  0  0  0  0  0  0  0  0  0  0
   18.3976   -5.1764  -15.8326 N   0  0  0  0  0  0  0  0  0  0  0  0
   19.5275   -5.2383  -16.6882 C   0  0  0  0  0  0  0  0  0  0  0  0
   19.4321   -5.8771  -17.7592 O   0  0  0  0  0  0  0  0  0  0  0  0
   20.7844   -4.5717  -16.3351 C   0  0  0  0  0  0  0  0  0  0  0  0
   21.9965   -5.2906  -16.8403 C   0  0  2  0  0  0  0  0  0  0  0  0
   22.2103   -6.5724  -16.1785 N   0  0  0  0  0  0  0  0  0  0  0  0
   23.2015   -4.4444  -16.6837 C   0  0  0  0  0  0  0  0  0  0  0  0
   23.2392   -3.1920  -17.2526 O   0  0  0  0  0  0  0  0  0  0  0  0
   24.1980   -4.8503  -16.0365 O   0  0  0  0  0  0  0  0  0  0  0  0
  2  1  1  1
  3  4  1  0
  3  2  1  0
  4  5  1  0
  6  5  1  0
  7  6  1  0
  8  2  1  0
  8  9  2  0
 10 11  1  0
 11 12  1  0
 12 13  1  0
 14 13  1  6
 14 15  1  0
 15  8  1  0
 16 14  1  0
 17 16  2  0
 18 19  1  0
 19 21  1  0
 20 19  2  0
 22 21  1  1
 22 24  1  0
 22 23  1  0
 23 16  1  0
 24 25  1  0
 26 24  2  0
M  END
$$$$
