KMN.pdb
     RDKit          3D

 26 25  0  0  1  0  0  0  0  0999 V2000
   21.4477  -14.0838  -16.5636 N   0  0  0  0  0  0  0  0  0  0  0  0
   21.2523  -12.7739  -17.1019 C   0  0  1  0  0  0  0  0  0  0  0  0
   19.8325  -12.5434  -17.4966 C   0  0  0  0  0  0  0  0  0  0  0  0
   19.2901  -13.5126  -18.4854 C   0  0  0  0  0  0  0  0  0  0  0  0
   17.8741  -13.2586  -18.8341 C   0  0  0  0  0  0  0  0  0  0  0  0
   17.3489  -14.2512  -19.8720 C   0  0  0  0  0  0  0  0  0  0  0  0
   15.9890  -14.0048  -20.2205 N   0  0  0  0  0  0  0  0  0  0  0  0
   21.7330  -11.7461  -16.1272 C   0  0  0  0  0  0  0  0  0  0  0  0
   21.3912  -11.7093  -14.9255 O   0  0  0  0  0  0  0  0  0  0  0  0
   27.6952  -12.4798  -14.4846 C   0  0  0  0  0  0  0  0  0  0  0  0
   27.0115  -11.0134  -15.2781 S   0  0  0  0  0  0  0  0  0  0  0  0
   25.1915  -10.9837  -15.1505 C   0  0  0  0  0  0  0  0  0  0  0  0
   24.6338   -9.7378  -15.7489 C   0  0  0  0  0  0  0  0  0  0  0  0
   23.1312   -9.7548  -15.7092 C   0  0  2  0  0  0  0  0  0  0  0  0
   22.6290  -10.7521  -16.5901 N   0  0  0  0  0  0  0  0  0  0  0  0
   22.6507   -8.3894  -16.0200 C   0  0  0  0  0  0  0  0  0  0  0  0
   22.6773   -7.8647  -17.1624 O   0  0  0  0  0  0  0  0  0  0  0  0
   20.3112   -3.7998  -15.6193 N   0  0  0  0  0  0  0  0  0  0  0  0
   19.5192   -4.8654  -15.1195 C   0  0  0  0  0  0  0  0  0  0  0  0
   18.3055   -4.6569  -14.9013 O   0  0  0  0  0  0  0  0  0  0  0  0
   20.0999   -6.1863  -14.8611 C   0  0  0  0  0  0  0  0  0  0  0  0
   21.5533   -6.2712  -15.2101 C   0  0  2  0  0  0  0  0  0  0  0  0
   22.1163   -7.5946  -14.9686 N   0  0  0  0  0  0  0  0  0  0  0  0
   22.3256   -5.2582  -14.4553 C   0  0  0  0  0  0  0  0  0  0  0  0
   22.4978   -3.9969  -14.9779 O   0  0  0  0  0  0  0  0  0  0  0  0
   22.8308   -5.5295  -13.3381 O   0  0  0  0  0  0  0  0  0  0  0  0
  2  1  1  1
  3  4  1  0
  3  2  1  0
  4  5  1  0
  6  5  1  0
  7  6  1  0
  8  2  1  0
  8  9  2  0
 10 11  1  0
 11 12  1  0
 12 13  1  0
 14 13  1  6
 14 15  1  0
 15  8  1  0
 16 14  1  0
 17 16  2  0
 18 19  1  0
 19 21  1  0
 20 19  2  0
 22 21  1  1
 22 24  1  0
 22 23  1  0
 23 16  1  0
 24 25  1  0
 26 24  2  0
M  END
$$$$
