SLF.pdb
     RDKit          3D

 26 26  0  0  1  0  0  0  0  0999 V2000
   26.8748  -22.1694  -15.1980 O   0  0  0  0  0  0  0  0  0  0  0  0
   27.4672  -23.2263  -15.8987 C   0  0  0  0  0  0  0  0  0  0  0  0
   28.8825  -22.8657  -16.3064 C   0  0  2  0  0  0  0  0  0  0  0  0
   28.8333  -21.8429  -17.3093 N   0  0  0  0  0  0  0  0  0  0  0  0
   29.6689  -24.0391  -16.6965 C   0  0  0  0  0  0  0  0  0  0  0  0
   29.6663  -24.4458  -17.8835 O   0  0  0  0  0  0  0  0  0  0  0  0
   34.0943  -25.0328  -17.0995 C   0  0  0  0  0  0  0  0  0  0  0  0
   33.6297  -25.1266  -15.6702 C   0  0  2  0  0  0  0  0  0  0  0  0
   34.8045  -25.3769  -14.7467 C   0  0  0  0  0  0  0  0  0  0  0  0
   32.5514  -26.1293  -15.5244 C   0  0  0  0  0  0  0  0  0  0  0  0
   31.2741  -25.8886  -16.2219 C   0  0  2  0  0  0  0  0  0  0  0  0
   30.4764  -24.7855  -15.7705 N   0  0  0  0  0  0  0  0  0  0  0  0
   30.3930  -27.1111  -16.1974 C   0  0  0  0  0  0  0  0  0  0  0  0
   29.9754  -27.4563  -15.0493 O   0  0  0  0  0  0  0  0  0  0  0  0
   30.0887  -27.7787  -17.3792 N   0  0  0  0  0  0  0  0  0  0  0  0
   29.1753  -28.9200  -17.3333 C   0  0  1  0  0  0  0  0  0  0  0  0
   27.9215  -28.3839  -16.6497 C   0  0  0  0  0  0  0  0  0  0  0  0
   26.8293  -29.3742  -16.6829 C   0  0  0  0  0  0  0  0  0  0  0  0
   26.8051  -30.5455  -15.9593 C   0  0  0  0  0  0  0  0  0  0  0  0
   25.7339  -31.4415  -16.0343 C   0  0  0  0  0  0  0  0  0  0  0  0
   24.6595  -31.1680  -16.8483 C   0  0  0  0  0  0  0  0  0  0  0  0
   24.6805  -29.9958  -17.5746 C   0  0  0  0  0  0  0  0  0  0  0  0
   25.7267  -29.1200  -17.5017 C   0  0  0  0  0  0  0  0  0  0  0  0
   28.9120  -29.4551  -18.6739 C   0  0  0  0  0  0  0  0  0  0  0  0
   29.1929  -28.7185  -19.8003 O   0  0  0  0  0  0  0  0  0  0  0  0
   28.4235  -30.5988  -18.7988 O   0  0  0  0  0  0  0  0  0  0  0  0
  1  2  1  0
  3  2  1  0
  3  5  1  0
  3  4  1  6
  5  6  2  0
  8  7  1  6
  8  9  1  0
 10  8  1  0
 11 10  1  1
 12 11  1  0
 12  5  1  0
 13 11  1  0
 13 14  2  0
 15 13  1  0
 16 15  1  0
 16 24  1  0
 16 17  1  6
 18 19  2  0
 18 17  1  0
 20 19  1  0
 21 20  2  0
 22 21  1  0
 22 23  2  0
 23 18  1  0
 24 26  2  0
 24 25  1  0
M  END
$$$$
