SLF.pdb
     RDKit          3D

 26 26  0  0  1  0  0  0  0  0999 V2000
   21.1576  -17.6712  -12.3675 O   0  0  0  0  0  0  0  0  0  0  0  0
   21.6859  -18.9059  -11.9736 C   0  0  0  0  0  0  0  0  0  0  0  0
   22.5156  -19.5089  -13.0905 C   0  0  2  0  0  0  0  0  0  0  0  0
   21.6375  -20.0861  -14.0652 N   0  0  0  0  0  0  0  0  0  0  0  0
   23.5366  -20.4348  -12.5923 C   0  0  0  0  0  0  0  0  0  0  0  0
   23.2378  -21.6158  -12.2919 O   0  0  0  0  0  0  0  0  0  0  0  0
   26.2322  -22.9090  -14.2523 C   0  0  0  0  0  0  0  0  0  0  0  0
   26.9778  -21.6071  -14.1226 C   0  0  2  0  0  0  0  0  0  0  0  0
   28.3102  -21.6860  -14.8396 C   0  0  0  0  0  0  0  0  0  0  0  0
   27.1032  -21.2031  -12.7047 C   0  0  0  0  0  0  0  0  0  0  0  0
   25.8686  -21.0116  -11.9206 C   0  0  2  0  0  0  0  0  0  0  0  0
   24.9144  -20.0635  -12.4181 N   0  0  0  0  0  0  0  0  0  0  0  0
   26.1739  -20.6261  -10.4960 C   0  0  0  0  0  0  0  0  0  0  0  0
   27.1919  -19.8836  -10.3407 O   0  0  0  0  0  0  0  0  0  0  0  0
   25.3647  -21.0792   -9.4592 N   0  0  0  0  0  0  0  0  0  0  0  0
   25.8875  -21.0633   -8.0934 C   0  0  1  0  0  0  0  0  0  0  0  0
   26.3643  -19.6303   -7.8792 C   0  0  0  0  0  0  0  0  0  0  0  0
   27.2335  -19.5276   -6.6923 C   0  0  0  0  0  0  0  0  0  0  0  0
   26.7860  -19.4052   -5.3959 C   0  0  0  0  0  0  0  0  0  0  0  0
   27.6663  -19.3159   -4.3129 C   0  0  0  0  0  0  0  0  0  0  0  0
   29.0254  -19.3487   -4.5220 C   0  0  0  0  0  0  0  0  0  0  0  0
   29.4770  -19.4711   -5.8193 C   0  0  0  0  0  0  0  0  0  0  0  0
   28.6174  -19.5585   -6.8779 C   0  0  0  0  0  0  0  0  0  0  0  0
   24.8706  -21.4796   -7.1211 C   0  0  0  0  0  0  0  0  0  0  0  0
   23.5299  -21.3434   -7.3934 O   0  0  0  0  0  0  0  0  0  0  0  0
   25.2244  -21.9660   -6.0254 O   0  0  0  0  0  0  0  0  0  0  0  0
  1  2  1  0
  3  2  1  0
  3  5  1  0
  3  4  1  6
  5  6  2  0
  8  7  1  1
  8  9  1  0
 10  8  1  0
 11 10  1  6
 12 11  1  0
 12  5  1  0
 13 11  1  0
 13 14  2  0
 15 13  1  0
 16 15  1  0
 16 24  1  0
 16 17  1  1
 18 19  2  0
 18 17  1  0
 20 19  1  0
 21 20  2  0
 22 21  1  0
 22 23  2  0
 23 18  1  0
 24 26  2  0
 24 25  1  0
M  END
$$$$
