SLF.pdb
     RDKit          3D

 26 26  0  0  1  0  0  0  0  0999 V2000
   23.0498  -21.9861  -14.5268 O   0  0  0  0  0  0  0  0  0  0  0  0
   21.8639  -21.4512  -14.0107 C   0  0  0  0  0  0  0  0  0  0  0  0
   21.9670  -21.2849  -12.5070 C   0  0  2  0  0  0  0  0  0  0  0  0
   20.7706  -20.6613  -12.0230 N   0  0  0  0  0  0  0  0  0  0  0  0
   23.1970  -20.5982  -12.1027 C   0  0  0  0  0  0  0  0  0  0  0  0
   23.2513  -19.3450  -12.0761 O   0  0  0  0  0  0  0  0  0  0  0  0
   25.4189  -18.8550   -8.7463 C   0  0  0  0  0  0  0  0  0  0  0  0
   25.3891  -20.3606   -8.7452 C   0  0  2  0  0  0  0  0  0  0  0  0
   25.9344  -20.9003   -7.4387 C   0  0  0  0  0  0  0  0  0  0  0  0
   26.0788  -20.9087   -9.9340 C   0  0  0  0  0  0  0  0  0  0  0  0
   25.5475  -20.5709  -11.2680 C   0  0  2  0  0  0  0  0  0  0  0  0
   24.3945  -21.2949  -11.7188 N   0  0  0  0  0  0  0  0  0  0  0  0
   26.6031  -20.7117  -12.3344 C   0  0  0  0  0  0  0  0  0  0  0  0
   27.7267  -21.1447  -11.9321 O   0  0  0  0  0  0  0  0  0  0  0  0
   26.3151  -20.3766  -13.6533 N   0  0  0  0  0  0  0  0  0  0  0  0
   26.7972  -21.2453  -14.7266 C   0  0  1  0  0  0  0  0  0  0  0  0
   26.2452  -22.6253  -14.3838 C   0  0  0  0  0  0  0  0  0  0  0  0
   26.5392  -23.5993  -15.4513 C   0  0  0  0  0  0  0  0  0  0  0  0
   26.0228  -24.8740  -15.5193 C   0  0  0  0  0  0  0  0  0  0  0  0
   26.3405  -25.7481  -16.5637 C   0  0  0  0  0  0  0  0  0  0  0  0
   27.1927  -25.3468  -17.5661 C   0  0  0  0  0  0  0  0  0  0  0  0
   27.7119  -24.0708  -17.5010 C   0  0  0  0  0  0  0  0  0  0  0  0
   27.4017  -23.2163  -16.4808 C   0  0  0  0  0  0  0  0  0  0  0  0
   26.3641  -20.7667  -16.0443 C   0  0  0  0  0  0  0  0  0  0  0  0
   25.0625  -20.3850  -16.2686 O   0  0  0  0  0  0  0  0  0  0  0  0
   27.1886  -20.7041  -16.9817 O   0  0  0  0  0  0  0  0  0  0  0  0
  1  2  1  0
  3  2  1  0
  3  5  1  0
  3  4  1  6
  5  6  2  0
  8  7  1  1
  8  9  1  0
 10  8  1  0
 11 10  1  1
 12 11  1  0
 12  5  1  0
 13 11  1  0
 13 14  2  0
 15 13  1  0
 16 15  1  0
 16 24  1  0
 16 17  1  1
 18 19  2  0
 18 17  1  0
 20 19  1  0
 21 20  2  0
 22 21  1  0
 22 23  2  0
 23 18  1  0
 24 26  2  0
 24 25  1  0
M  END
$$$$
