SLF.pdb
     RDKit          3D

 26 26  0  0  1  0  0  0  0  0999 V2000
   24.6417  -17.5017  -16.1770 O   0  0  0  0  0  0  0  0  0  0  0  0
   25.3236  -18.4219  -16.9815 C   0  0  0  0  0  0  0  0  0  0  0  0
   25.9899  -19.4825  -16.1268 C   0  0  2  0  0  0  0  0  0  0  0  0
   26.7269  -20.3714  -16.9759 N   0  0  0  0  0  0  0  0  0  0  0  0
   25.0428  -20.1624  -15.2388 C   0  0  0  0  0  0  0  0  0  0  0  0
   24.3487  -21.1207  -15.6564 O   0  0  0  0  0  0  0  0  0  0  0  0
   25.7479  -22.3841  -11.3974 C   0  0  0  0  0  0  0  0  0  0  0  0
   25.5055  -20.9321  -11.0801 C   0  0  2  0  0  0  0  0  0  0  0  0
   25.7029  -20.6731   -9.6005 C   0  0  0  0  0  0  0  0  0  0  0  0
   24.1832  -20.4911  -11.5765 C   0  0  0  0  0  0  0  0  0  0  0  0
   23.9380  -20.5178  -13.0308 C   0  0  2  0  0  0  0  0  0  0  0  0
   24.8488  -19.7882  -13.8644 N   0  0  0  0  0  0  0  0  0  0  0  0
   22.5496  -20.0365  -13.3653 C   0  0  0  0  0  0  0  0  0  0  0  0
   22.3996  -18.7758  -13.3749 O   0  0  0  0  0  0  0  0  0  0  0  0
   21.5377  -20.9515  -13.6368 N   0  0  0  0  0  0  0  0  0  0  0  0
   20.2501  -20.4598  -14.1261 C   0  0  1  0  0  0  0  0  0  0  0  0
   20.5745  -19.7846  -15.4549 C   0  0  0  0  0  0  0  0  0  0  0  0
   19.3481  -19.3365  -16.1406 C   0  0  0  0  0  0  0  0  0  0  0  0
   18.6326  -18.2055  -15.8170 C   0  0  0  0  0  0  0  0  0  0  0  0
   17.4769  -17.8349  -16.5119 C   0  0  0  0  0  0  0  0  0  0  0  0
   17.0198  -18.6069  -17.5545 C   0  0  0  0  0  0  0  0  0  0  0  0
   17.7339  -19.7405  -17.8812 C   0  0  0  0  0  0  0  0  0  0  0  0
   18.8631  -20.1030  -17.2026 C   0  0  0  0  0  0  0  0  0  0  0  0
   19.2727  -21.5459  -14.2596 C   0  0  0  0  0  0  0  0  0  0  0  0
   17.9468  -21.3496  -13.9539 O   0  0  0  0  0  0  0  0  0  0  0  0
   19.6474  -22.6703  -14.6567 O   0  0  0  0  0  0  0  0  0  0  0  0
  1  2  1  0
  3  2  1  0
  3  5  1  0
  3  4  1  6
  5  6  2  0
  8  7  1  1
  8  9  1  0
 10  8  1  0
 11 10  1  1
 12 11  1  0
 12  5  1  0
 13 11  1  0
 13 14  2  0
 15 13  1  0
 16 15  1  0
 16 24  1  0
 16 17  1  6
 18 19  2  0
 18 17  1  0
 20 19  1  0
 21 20  2  0
 22 21  1  0
 22 23  2  0
 23 18  1  0
 24 26  2  0
 24 25  1  0
M  END
$$$$
