SLF.pdb
     RDKit          3D

 26 26  0  0  1  0  0  0  0  0999 V2000
   26.1711  -10.6266  -15.0986 O   0  0  0  0  0  0  0  0  0  0  0  0
   25.1095   -9.7496  -15.3490 C   0  0  0  0  0  0  0  0  0  0  0  0
   24.1043  -10.3875  -16.2881 C   0  0  2  0  0  0  0  0  0  0  0  0
   24.6993  -10.5265  -17.5847 N   0  0  0  0  0  0  0  0  0  0  0  0
   22.8210   -9.6799  -16.2991 C   0  0  0  0  0  0  0  0  0  0  0  0
   22.5896   -8.7870  -17.1497 O   0  0  0  0  0  0  0  0  0  0  0  0
   18.1739   -9.7974  -17.3584 C   0  0  0  0  0  0  0  0  0  0  0  0
   18.6994  -10.7250  -16.2949 C   0  0  2  0  0  0  0  0  0  0  0  0
   17.6209  -11.6955  -15.8584 C   0  0  0  0  0  0  0  0  0  0  0  0
   19.2896   -9.9668  -15.1698 C   0  0  0  0  0  0  0  0  0  0  0  0
   20.5367   -9.2167  -15.4102 C   0  0  2  0  0  0  0  0  0  0  0  0
   21.7665   -9.9529  -15.3609 N   0  0  0  0  0  0  0  0  0  0  0  0
   20.6763   -8.0578  -14.4569 C   0  0  0  0  0  0  0  0  0  0  0  0
   20.8585   -8.3741  -13.2409 O   0  0  0  0  0  0  0  0  0  0  0  0
   20.6029   -6.7510  -14.9278 N   0  0  0  0  0  0  0  0  0  0  0  0
   20.8456   -5.6481  -13.9983 C   0  0  1  0  0  0  0  0  0  0  0  0
   22.3178   -5.7781  -13.6210 C   0  0  0  0  0  0  0  0  0  0  0  0
   23.1932   -5.4566  -14.7634 C   0  0  0  0  0  0  0  0  0  0  0  0
   23.4675   -4.1842  -15.2125 C   0  0  0  0  0  0  0  0  0  0  0  0
   24.3116   -3.9484  -16.3023 C   0  0  0  0  0  0  0  0  0  0  0  0
   24.8982   -5.0024  -16.9633 C   0  0  0  0  0  0  0  0  0  0  0  0
   24.6254   -6.2782  -16.5163 C   0  0  0  0  0  0  0  0  0  0  0  0
   23.8008   -6.5092  -15.4515 C   0  0  0  0  0  0  0  0  0  0  0  0
   20.5221   -4.3511  -14.6032 C   0  0  0  0  0  0  0  0  0  0  0  0
   20.5812   -3.1904  -13.8686 O   0  0  0  0  0  0  0  0  0  0  0  0
   20.1859   -4.2957  -15.8058 O   0  0  0  0  0  0  0  0  0  0  0  0
  1  2  1  0
  3  2  1  0
  3  5  1  0
  3  4  1  6
  5  6  2  0
  8  7  1  6
  8  9  1  0
 10  8  1  0
 11 10  1  1
 12 11  1  0
 12  5  1  0
 13 11  1  0
 13 14  2  0
 15 13  1  0
 16 15  1  0
 16 24  1  0
 16 17  1  6
 18 19  2  0
 18 17  1  0
 20 19  1  0
 21 20  2  0
 22 21  1  0
 22 23  2  0
 23 18  1  0
 24 26  2  0
 24 25  1  0
M  END
$$$$
