SLF.pdb
     RDKit          3D

 26 26  0  0  1  0  0  0  0  0999 V2000
   22.4769  -17.2683  -16.4468 O   0  0  0  0  0  0  0  0  0  0  0  0
   22.9210  -17.8680  -17.6308 C   0  0  0  0  0  0  0  0  0  0  0  0
   24.2225  -18.6094  -17.3944 C   0  0  2  0  0  0  0  0  0  0  0  0
   24.6818  -19.1549  -18.6377 N   0  0  0  0  0  0  0  0  0  0  0  0
   24.1159  -19.5984  -16.3181 C   0  0  0  0  0  0  0  0  0  0  0  0
   23.6008  -20.7226  -16.5305 O   0  0  0  0  0  0  0  0  0  0  0  0
   27.1237  -21.9019  -14.3509 C   0  0  0  0  0  0  0  0  0  0  0  0
   27.0039  -20.6355  -13.5449 C   0  0  2  0  0  0  0  0  0  0  0  0
   28.0640  -20.5938  -12.4632 C   0  0  0  0  0  0  0  0  0  0  0  0
   25.6309  -20.4647  -13.0205 C   0  0  0  0  0  0  0  0  0  0  0  0
   24.5185  -20.3869  -13.9860 C   0  0  2  0  0  0  0  0  0  0  0  0
   24.5820  -19.3551  -14.9801 N   0  0  0  0  0  0  0  0  0  0  0  0
   23.1903  -20.2474  -13.2877 C   0  0  0  0  0  0  0  0  0  0  0  0
   23.1108  -19.2891  -12.4588 O   0  0  0  0  0  0  0  0  0  0  0  0
   22.1553  -21.1336  -13.5679 N   0  0  0  0  0  0  0  0  0  0  0  0
   20.8888  -20.9938  -12.8500 C   0  0  1  0  0  0  0  0  0  0  0  0
   20.3927  -19.5972  -13.2106 C   0  0  0  0  0  0  0  0  0  0  0  0
   19.8182  -19.5676  -14.5685 C   0  0  0  0  0  0  0  0  0  0  0  0
   20.4397  -19.0353  -15.6759 C   0  0  0  0  0  0  0  0  0  0  0  0
   19.8390  -19.0430  -16.9388 C   0  0  0  0  0  0  0  0  0  0  0  0
   18.5895  -19.5929  -17.1067 C   0  0  0  0  0  0  0  0  0  0  0  0
   17.9641  -20.1268  -15.9997 C   0  0  0  0  0  0  0  0  0  0  0  0
   18.5505  -20.1197  -14.7655 C   0  0  0  0  0  0  0  0  0  0  0  0
   19.9401  -22.0509  -13.2180 C   0  0  0  0  0  0  0  0  0  0  0  0
   18.7553  -22.2096  -12.5388 O   0  0  0  0  0  0  0  0  0  0  0  0
   20.2097  -22.8228  -14.1634 O   0  0  0  0  0  0  0  0  0  0  0  0
  1  2  1  0
  3  2  1  0
  3  5  1  0
  3  4  1  6
  5  6  2  0
  8  7  1  1
  8  9  1  0
 10  8  1  0
 11 10  1  1
 12 11  1  0
 12  5  1  0
 13 11  1  0
 13 14  2  0
 15 13  1  0
 16 15  1  0
 16 24  1  0
 16 17  1  6
 18 19  2  0
 18 17  1  0
 20 19  1  0
 21 20  2  0
 22 21  1  0
 22 23  2  0
 23 18  1  0
 24 26  2  0
 24 25  1  0
M  END
$$$$
