VVY.pdb
     RDKit          3D

 27 27  0  0  1  0  0  0  0  0999 V2000
    7.2928  -17.3131   23.0799 C   0  0  0  0  0  0  0  0  0  0  0  0
    7.7213  -16.6292   21.7928 C   0  0  1  0  0  0  0  0  0  0  0  0
    7.0992  -17.2923   20.5958 C   0  0  0  0  0  0  0  0  0  0  0  0
    7.3839  -15.1534   21.8529 C   0  0  2  0  0  0  0  0  0  0  0  0
    7.8106  -14.4436   20.6863 N   0  0  0  0  0  0  0  0  0  0  0  0
    8.0163  -14.5950   23.0754 C   0  0  0  0  0  0  0  0  0  0  0  0
    9.2878  -14.5512   23.1389 O   0  0  0  0  0  0  0  0  0  0  0  0
    6.3532  -11.6845   25.4112 C   0  0  0  0  0  0  0  0  0  0  0  0
    6.7037  -12.9556   26.1259 C   0  0  2  0  0  0  0  0  0  0  0  0
    7.2578  -12.6372   27.4974 C   0  0  0  0  0  0  0  0  0  0  0  0
    7.7915  -13.7247   25.3605 C   0  0  2  0  0  0  0  0  0  0  0  0
    7.1985  -14.1341   24.1203 N   0  0  0  0  0  0  0  0  0  0  0  0
    8.1458  -14.9720   26.1135 C   0  0  0  0  0  0  0  0  0  0  0  0
    7.3624  -15.9475   26.2020 O   0  0  0  0  0  0  0  0  0  0  0  0
   15.0317  -15.9253   24.1763 O   0  0  0  0  0  0  0  0  0  0  0  0
   13.8172  -16.2550   24.7678 C   0  0  0  0  0  0  0  0  0  0  0  0
   13.7510  -17.2233   25.7509 C   0  0  0  0  0  0  0  0  0  0  0  0
   12.5641  -17.5645   26.3481 C   0  0  0  0  0  0  0  0  0  0  0  0
   11.4023  -16.9247   25.9583 C   0  0  0  0  0  0  0  0  0  0  0  0
   10.1371  -17.3070   26.5933 C   0  0  0  0  0  0  0  0  0  0  0  0
    9.6958  -16.2505   27.5546 C   0  0  2  0  0  0  0  0  0  0  0  0
    9.4056  -15.0570   26.7479 N   0  0  0  0  0  0  0  0  0  0  0  0
   10.7506  -15.9223   28.5285 C   0  0  0  0  0  0  0  0  0  0  0  0
   11.3235  -16.8245   29.4041 O   0  0  0  0  0  0  0  0  0  0  0  0
   11.4620  -15.9643   24.9841 C   0  0  0  0  0  0  0  0  0  0  0  0
   12.6571  -15.6288   24.3910 C   0  0  0  0  0  0  0  0  0  0  0  0
   11.1861  -14.7245   28.5921 O   0  0  0  0  0  0  0  0  0  0  0  0
  2  1  1  1
  2  4  1  0
  2  3  1  0
  4  6  1  0
  4  5  1  6
  6  7  2  0
  9  8  1  6
  9 11  1  0
 10  9  1  0
 11 13  1  0
 11 12  1  6
 12  6  1  0
 13 14  2  0
 15 16  1  0
 16 26  2  0
 16 17  1  0
 17 18  2  0
 18 19  1  0
 19 20  1  0
 21 20  1  6
 21 22  1  0
 21 23  1  0
 22 13  1  0
 23 27  2  0
 23 24  1  0
 25 19  2  0
 26 25  1  0
M  END
$$$$
