VVY.pdb
     RDKit          3D

 27 27  0  0  1  0  0  0  0  0999 V2000
    7.9238  -11.9613   25.3965 C   0  0  0  0  0  0  0  0  0  0  0  0
    6.8545  -12.6059   26.2619 C   0  0  1  0  0  0  0  0  0  0  0  0
    6.0633  -11.5669   27.0063 C   0  0  0  0  0  0  0  0  0  0  0  0
    5.9612  -13.4865   25.4121 C   0  0  2  0  0  0  0  0  0  0  0  0
    4.9881  -14.1934   26.1869 N   0  0  0  0  0  0  0  0  0  0  0  0
    6.8339  -14.4294   24.6668 C   0  0  0  0  0  0  0  0  0  0  0  0
    7.1580  -15.5293   25.2218 O   0  0  0  0  0  0  0  0  0  0  0  0
    6.6717  -14.5872   20.6414 C   0  0  0  0  0  0  0  0  0  0  0  0
    8.0697  -14.5216   21.1807 C   0  0  2  0  0  0  0  0  0  0  0  0
    8.9691  -15.4453   20.3888 C   0  0  0  0  0  0  0  0  0  0  0  0
    8.1080  -14.9896   22.6437 C   0  0  2  0  0  0  0  0  0  0  0  0
    7.2741  -14.0830   23.3787 N   0  0  0  0  0  0  0  0  0  0  0  0
    9.5005  -14.8419   23.1797 C   0  0  0  0  0  0  0  0  0  0  0  0
   10.0545  -13.7240   23.3090 O   0  0  0  0  0  0  0  0  0  0  0  0
   11.5861  -15.5350   31.1484 O   0  0  0  0  0  0  0  0  0  0  0  0
   11.1197  -15.6429   29.8429 C   0  0  0  0  0  0  0  0  0  0  0  0
   10.8631  -14.5136   29.0897 C   0  0  0  0  0  0  0  0  0  0  0  0
   10.4028  -14.5963   27.8001 C   0  0  0  0  0  0  0  0  0  0  0  0
   10.1891  -15.8404   27.2367 C   0  0  0  0  0  0  0  0  0  0  0  0
    9.6835  -15.9172   25.8624 C   0  0  0  0  0  0  0  0  0  0  0  0
   10.8173  -16.0400   24.8957 C   0  0  2  0  0  0  0  0  0  0  0  0
   10.2189  -15.9997   23.5541 N   0  0  0  0  0  0  0  0  0  0  0  0
   11.5383  -17.3139   25.0575 C   0  0  0  0  0  0  0  0  0  0  0  0
   12.7674  -17.4513   25.6734 O   0  0  0  0  0  0  0  0  0  0  0  0
   10.4414  -16.9632   27.9788 C   0  0  0  0  0  0  0  0  0  0  0  0
   10.9031  -16.8702   29.2714 C   0  0  0  0  0  0  0  0  0  0  0  0
   11.0146  -18.3857   24.6044 O   0  0  0  0  0  0  0  0  0  0  0  0
  2  1  1  6
  2  4  1  0
  2  3  1  0
  4  6  1  0
  4  5  1  1
  6  7  2  0
  9  8  1  6
  9 11  1  0
 10  9  1  0
 11 13  1  0
 11 12  1  1
 12  6  1  0
 13 14  2  0
 15 16  1  0
 16 26  2  0
 16 17  1  0
 17 18  2  0
 18 19  1  0
 19 20  1  0
 21 20  1  1
 21 22  1  0
 21 23  1  0
 22 13  1  0
 23 27  2  0
 23 24  1  0
 25 19  2  0
 26 25  1  0
M  END
$$$$
