VVY.pdb
     RDKit          3D

 27 27  0  0  1  0  0  0  0  0999 V2000
    5.9560  -11.2429   26.2037 C   0  0  0  0  0  0  0  0  0  0  0  0
    6.8636  -12.4051   25.8380 C   0  0  1  0  0  0  0  0  0  0  0  0
    7.7409  -12.7904   26.9961 C   0  0  0  0  0  0  0  0  0  0  0  0
    6.0350  -13.5760   25.3502 C   0  0  2  0  0  0  0  0  0  0  0  0
    5.2564  -14.1710   26.3926 N   0  0  0  0  0  0  0  0  0  0  0  0
    6.9637  -14.5671   24.7491 C   0  0  0  0  0  0  0  0  0  0  0  0
    7.2036  -15.6435   25.3867 O   0  0  0  0  0  0  0  0  0  0  0  0
    6.9818  -14.7685   20.7663 C   0  0  0  0  0  0  0  0  0  0  0  0
    8.3597  -14.8852   21.3471 C   0  0  2  0  0  0  0  0  0  0  0  0
    9.1402  -15.9493   20.6070 C   0  0  0  0  0  0  0  0  0  0  0  0
    8.2912  -15.3109   22.8218 C   0  0  2  0  0  0  0  0  0  0  0  0
    7.5473  -14.2903   23.5018 N   0  0  0  0  0  0  0  0  0  0  0  0
    9.6722  -15.3142   23.4060 C   0  0  0  0  0  0  0  0  0  0  0  0
   10.3924  -14.2876   23.4309 O   0  0  0  0  0  0  0  0  0  0  0  0
    9.7702  -14.0960   29.9261 O   0  0  0  0  0  0  0  0  0  0  0  0
   10.2340  -14.8719   28.8696 C   0  0  0  0  0  0  0  0  0  0  0  0
    9.7180  -16.1328   28.6405 C   0  0  0  0  0  0  0  0  0  0  0  0
   10.1604  -16.9155   27.6044 C   0  0  0  0  0  0  0  0  0  0  0  0
   11.1479  -16.4330   26.7660 C   0  0  0  0  0  0  0  0  0  0  0  0
   11.6232  -17.2835   25.6701 C   0  0  0  0  0  0  0  0  0  0  0  0
   11.5912  -16.5343   24.3768 C   0  0  2  0  0  0  0  0  0  0  0  0
   10.1855  -16.5135   23.9493 N   0  0  0  0  0  0  0  0  0  0  0  0
   12.3950  -17.2012   23.3385 C   0  0  0  0  0  0  0  0  0  0  0  0
   13.7654  -17.0857   23.2072 O   0  0  0  0  0  0  0  0  0  0  0  0
   11.6631  -15.1840   26.9886 C   0  0  0  0  0  0  0  0  0  0  0  0
   11.2130  -14.4063   28.0302 C   0  0  0  0  0  0  0  0  0  0  0  0
   11.8098  -17.9454   22.4828 O   0  0  0  0  0  0  0  0  0  0  0  0
  2  1  1  1
  2  4  1  0
  2  3  1  0
  4  6  1  0
  4  5  1  1
  6  7  2  0
  9  8  1  6
  9 11  1  0
 10  9  1  0
 11 13  1  0
 11 12  1  1
 12  6  1  0
 13 14  2  0
 15 16  1  0
 16 26  2  0
 16 17  1  0
 17 18  2  0
 18 19  1  0
 19 20  1  0
 21 20  1  1
 21 22  1  0
 21 23  1  0
 22 13  1  0
 23 27  2  0
 23 24  1  0
 25 19  2  0
 26 25  1  0
M  END
$$$$
