VVY.pdb
     RDKit          3D

 27 27  0  0  1  0  0  0  0  0999 V2000
    8.1486  -12.8804   21.5457 C   0  0  0  0  0  0  0  0  0  0  0  0
    7.4543  -13.3402   20.2750 C   0  0  1  0  0  0  0  0  0  0  0  0
    7.2988  -12.2041   19.3032 C   0  0  0  0  0  0  0  0  0  0  0  0
    8.2110  -14.5009   19.6621 C   0  0  2  0  0  0  0  0  0  0  0  0
    7.6136  -14.9674   18.4486 N   0  0  0  0  0  0  0  0  0  0  0  0
    8.2722  -15.5854   20.6751 C   0  0  0  0  0  0  0  0  0  0  0  0
    7.2532  -16.3340   20.8300 O   0  0  0  0  0  0  0  0  0  0  0  0
   10.6285  -18.2673   20.4549 C   0  0  0  0  0  0  0  0  0  0  0  0
   10.8577  -17.6318   21.7939 C   0  0  2  0  0  0  0  0  0  0  0  0
   11.1794  -18.6969   22.8193 C   0  0  0  0  0  0  0  0  0  0  0  0
    9.5913  -16.9046   22.2718 C   0  0  2  0  0  0  0  0  0  0  0  0
    9.4455  -15.7532   21.4289 N   0  0  0  0  0  0  0  0  0  0  0  0
    9.7993  -16.4047   23.6701 C   0  0  0  0  0  0  0  0  0  0  0  0
   10.6545  -15.5308   23.9498 O   0  0  0  0  0  0  0  0  0  0  0  0
    6.5239  -10.9240   26.0464 O   0  0  0  0  0  0  0  0  0  0  0  0
    6.8832  -12.2554   26.2245 C   0  0  0  0  0  0  0  0  0  0  0  0
    8.0747  -12.5885   26.8393 C   0  0  0  0  0  0  0  0  0  0  0  0
    8.4492  -13.8949   27.0257 C   0  0  0  0  0  0  0  0  0  0  0  0
    7.6151  -14.9067   26.5882 C   0  0  0  0  0  0  0  0  0  0  0  0
    8.0317  -16.2996   26.7799 C   0  0  0  0  0  0  0  0  0  0  0  0
    9.3359  -16.5530   26.0943 C   0  0  2  0  0  0  0  0  0  0  0  0
    9.0066  -16.9333   24.7137 N   0  0  0  0  0  0  0  0  0  0  0  0
   10.0812  -17.6544   26.7269 C   0  0  0  0  0  0  0  0  0  0  0  0
   10.8715  -17.5269   27.8530 O   0  0  0  0  0  0  0  0  0  0  0  0
    6.4330  -14.5823   25.9778 C   0  0  0  0  0  0  0  0  0  0  0  0
    6.0658  -13.2692   25.7955 C   0  0  0  0  0  0  0  0  0  0  0  0
   10.0121  -18.8231   26.2190 O   0  0  0  0  0  0  0  0  0  0  0  0
  2  1  1  1
  2  4  1  0
  2  3  1  0
  4  6  1  0
  4  5  1  6
  6  7  2  0
  9  8  1  6
  9 11  1  0
 10  9  1  0
 11 13  1  0
 11 12  1  6
 12  6  1  0
 13 14  2  0
 15 16  1  0
 16 26  2  0
 16 17  1  0
 17 18  2  0
 18 19  1  0
 19 20  1  0
 21 20  1  1
 21 22  1  0
 21 23  1  0
 22 13  1  0
 23 27  2  0
 23 24  1  0
 25 19  2  0
 26 25  1  0
M  END
$$$$
