VVY.pdb
     RDKit          3D

 27 27  0  0  1  0  0  0  0  0999 V2000
    6.1216  -17.8761   23.7052 C   0  0  0  0  0  0  0  0  0  0  0  0
    6.2660  -18.9140   22.6052 C   0  0  1  0  0  0  0  0  0  0  0  0
    5.2265  -19.9914   22.7394 C   0  0  0  0  0  0  0  0  0  0  0  0
    6.2043  -18.2430   21.2482 C   0  0  2  0  0  0  0  0  0  0  0  0
    6.3128  -19.1752   20.1683 N   0  0  0  0  0  0  0  0  0  0  0  0
    7.2946  -17.2361   21.1923 C   0  0  0  0  0  0  0  0  0  0  0  0
    8.4918  -17.6412   21.0327 O   0  0  0  0  0  0  0  0  0  0  0  0
    7.0241  -13.6981   19.3689 C   0  0  0  0  0  0  0  0  0  0  0  0
    7.3941  -13.5860   20.8181 C   0  0  2  0  0  0  0  0  0  0  0  0
    8.4226  -12.4917   21.0020 C   0  0  0  0  0  0  0  0  0  0  0  0
    8.0244  -14.8948   21.3186 C   0  0  2  0  0  0  0  0  0  0  0  0
    6.9760  -15.8737   21.3164 N   0  0  0  0  0  0  0  0  0  0  0  0
    8.4668  -14.7248   22.7412 C   0  0  0  0  0  0  0  0  0  0  0  0
    7.8582  -13.9827   23.5488 O   0  0  0  0  0  0  0  0  0  0  0  0
    5.6759  -11.3558   26.9494 O   0  0  0  0  0  0  0  0  0  0  0  0
    6.4559  -12.4446   26.5757 C   0  0  0  0  0  0  0  0  0  0  0  0
    7.8307  -12.3337   26.4966 C   0  0  0  0  0  0  0  0  0  0  0  0
    8.6197  -13.3944   26.1304 C   0  0  0  0  0  0  0  0  0  0  0  0
    8.0269  -14.6071   25.8321 C   0  0  0  0  0  0  0  0  0  0  0  0
    8.8786  -15.7303   25.4281 C   0  0  0  0  0  0  0  0  0  0  0  0
   10.0201  -15.2455   24.5932 C   0  0  2  0  0  0  0  0  0  0  0  0
    9.6090  -15.4230   23.1936 N   0  0  0  0  0  0  0  0  0  0  0  0
   11.2442  -16.0284   24.8330 C   0  0  0  0  0  0  0  0  0  0  0  0
   12.0938  -15.8533   25.9083 O   0  0  0  0  0  0  0  0  0  0  0  0
    6.6646  -14.7226   25.9085 C   0  0  0  0  0  0  0  0  0  0  0  0
    5.8816  -13.6532   26.2769 C   0  0  0  0  0  0  0  0  0  0  0  0
   11.5701  -16.9412   24.0029 O   0  0  0  0  0  0  0  0  0  0  0  0
  2  1  1  1
  2  4  1  0
  2  3  1  0
  4  6  1  0
  4  5  1  6
  6  7  2  0
  9  8  1  6
  9 11  1  0
 10  9  1  0
 11 13  1  0
 11 12  1  1
 12  6  1  0
 13 14  2  0
 15 16  1  0
 16 26  2  0
 16 17  1  0
 17 18  2  0
 18 19  1  0
 19 20  1  0
 21 20  1  1
 21 22  1  0
 21 23  1  0
 22 13  1  0
 23 27  2  0
 23 24  1  0
 25 19  2  0
 26 25  1  0
M  END
$$$$
