VVY.pdb
     RDKit          3D

 27 27  0  0  1  0  0  0  0  0999 V2000
    5.9296  -12.5851   26.6769 C   0  0  0  0  0  0  0  0  0  0  0  0
    6.9464  -13.4874   25.9987 C   0  0  1  0  0  0  0  0  0  0  0  0
    8.0760  -13.8247   26.9313 C   0  0  0  0  0  0  0  0  0  0  0  0
    6.2640  -14.7339   25.4730 C   0  0  2  0  0  0  0  0  0  0  0  0
    5.8750  -15.6302   26.5180 N   0  0  0  0  0  0  0  0  0  0  0  0
    7.1982  -15.3950   24.5264 C   0  0  0  0  0  0  0  0  0  0  0  0
    7.3465  -16.6582   24.5976 O   0  0  0  0  0  0  0  0  0  0  0  0
    7.0446  -13.6117   21.0380 C   0  0  0  0  0  0  0  0  0  0  0  0
    8.4288  -14.1134   21.3237 C   0  0  2  0  0  0  0  0  0  0  0  0
    9.0262  -14.7137   20.0698 C   0  0  0  0  0  0  0  0  0  0  0  0
    8.3943  -15.2203   22.3889 C   0  0  2  0  0  0  0  0  0  0  0  0
    7.8874  -14.6125   23.5852 N   0  0  0  0  0  0  0  0  0  0  0  0
    9.7924  -15.6751   22.6830 C   0  0  0  0  0  0  0  0  0  0  0  0
   10.6319  -15.8918   21.7766 O   0  0  0  0  0  0  0  0  0  0  0  0
   10.0854  -13.4261   29.7020 O   0  0  0  0  0  0  0  0  0  0  0  0
   10.4335  -14.3090   28.6857 C   0  0  0  0  0  0  0  0  0  0  0  0
   10.1409  -15.6552   28.7894 C   0  0  0  0  0  0  0  0  0  0  0  0
   10.4748  -16.5439   27.7993 C   0  0  0  0  0  0  0  0  0  0  0  0
   11.1209  -16.0839   26.6671 C   0  0  0  0  0  0  0  0  0  0  0  0
   11.4858  -17.0448   25.6212 C   0  0  0  0  0  0  0  0  0  0  0  0
   11.5400  -16.3696   24.2885 C   0  0  2  0  0  0  0  0  0  0  0  0
   10.1836  -15.8682   24.0271 N   0  0  0  0  0  0  0  0  0  0  0  0
   11.9166  -17.3059   23.2161 C   0  0  0  0  0  0  0  0  0  0  0  0
   11.0660  -17.7487   22.2215 O   0  0  0  0  0  0  0  0  0  0  0  0
   11.4138  -14.7506   26.5591 C   0  0  0  0  0  0  0  0  0  0  0  0
   11.0748  -13.8668   27.5573 C   0  0  0  0  0  0  0  0  0  0  0  0
   13.1088  -17.7594   23.1780 O   0  0  0  0  0  0  0  0  0  0  0  0
  2  1  1  1
  2  4  1  0
  2  3  1  0
  4  6  1  0
  4  5  1  1
  6  7  2  0
  9  8  1  6
  9 11  1  0
 10  9  1  0
 11 13  1  0
 11 12  1  1
 12  6  1  0
 13 14  2  0
 15 16  1  0
 16 26  2  0
 16 17  1  0
 17 18  2  0
 18 19  1  0
 19 20  1  0
 21 20  1  1
 21 22  1  0
 21 23  1  0
 22 13  1  0
 23 27  2  0
 23 24  1  0
 25 19  2  0
 26 25  1  0
M  END
$$$$
