VVY.pdb
     RDKit          3D

 27 27  0  0  1  0  0  0  0  0999 V2000
   10.5176  -20.2453   18.3683 C   0  0  0  0  0  0  0  0  0  0  0  0
   10.2353  -19.1003   19.3260 C   0  0  1  0  0  0  0  0  0  0  0  0
   11.2105  -19.1000   20.4699 C   0  0  0  0  0  0  0  0  0  0  0  0
   10.2506  -17.7830   18.5776 C   0  0  2  0  0  0  0  0  0  0  0  0
   11.4415  -17.6029   17.8054 N   0  0  0  0  0  0  0  0  0  0  0  0
   10.0952  -16.6946   19.5762 C   0  0  0  0  0  0  0  0  0  0  0  0
   11.1429  -16.1858   20.0922 O   0  0  0  0  0  0  0  0  0  0  0  0
    7.1707  -13.8484   19.4411 C   0  0  0  0  0  0  0  0  0  0  0  0
    7.2303  -14.6578   20.7023 C   0  0  2  0  0  0  0  0  0  0  0  0
    6.9249  -13.7757   21.8931 C   0  0  0  0  0  0  0  0  0  0  0  0
    8.6395  -15.2342   20.9096 C   0  0  2  0  0  0  0  0  0  0  0  0
    8.8047  -16.2600   19.9207 N   0  0  0  0  0  0  0  0  0  0  0  0
    8.7157  -15.8983   22.2517 C   0  0  0  0  0  0  0  0  0  0  0  0
    8.4154  -17.1042   22.4214 O   0  0  0  0  0  0  0  0  0  0  0  0
    5.7415  -11.0983   26.6786 O   0  0  0  0  0  0  0  0  0  0  0  0
    6.7519  -12.0205   26.4291 C   0  0  0  0  0  0  0  0  0  0  0  0
    7.4266  -12.0189   25.2236 C   0  0  0  0  0  0  0  0  0  0  0  0
    8.4266  -12.9191   24.9559 C   0  0  0  0  0  0  0  0  0  0  0  0
    8.7704  -13.8532   25.9152 C   0  0  0  0  0  0  0  0  0  0  0  0
    9.8312  -14.8196   25.6133 C   0  0  0  0  0  0  0  0  0  0  0  0
    9.3408  -15.8463   24.6434 C   0  0  2  0  0  0  0  0  0  0  0  0
    9.1402  -15.1437   23.3685 N   0  0  0  0  0  0  0  0  0  0  0  0
    8.0597  -16.4338   25.0703 C   0  0  0  0  0  0  0  0  0  0  0  0
    6.8479  -16.2251   24.4404 O   0  0  0  0  0  0  0  0  0  0  0  0
    8.1047  -13.8595   27.1118 C   0  0  0  0  0  0  0  0  0  0  0  0
    7.1033  -12.9527   27.3711 C   0  0  0  0  0  0  0  0  0  0  0  0
    8.0360  -17.1944   26.0947 O   0  0  0  0  0  0  0  0  0  0  0  0
  2  1  1  6
  2  4  1  0
  2  3  1  0
  4  6  1  0
  4  5  1  1
  6  7  2  0
  9  8  1  6
  9 11  1  0
 10  9  1  0
 11 13  1  0
 11 12  1  6
 12  6  1  0
 13 14  2  0
 15 16  1  0
 16 26  2  0
 16 17  1  0
 17 18  2  0
 18 19  1  0
 19 20  1  0
 21 20  1  1
 21 22  1  0
 21 23  1  0
 22 13  1  0
 23 27  2  0
 23 24  1  0
 25 19  2  0
 26 25  1  0
M  END
$$$$
