VVY.pdb
     RDKit          3D

 27 27  0  0  1  0  0  0  0  0999 V2000
   10.1972  -18.5239   18.9009 C   0  0  0  0  0  0  0  0  0  0  0  0
   10.5839  -17.6726   17.7035 C   0  0  1  0  0  0  0  0  0  0  0  0
   10.4325  -18.4430   16.4217 C   0  0  0  0  0  0  0  0  0  0  0  0
    9.7668  -16.3968   17.6892 C   0  0  2  0  0  0  0  0  0  0  0  0
   10.0741  -15.5594   16.5706 N   0  0  0  0  0  0  0  0  0  0  0  0
   10.0165  -15.6862   18.9693 C   0  0  0  0  0  0  0  0  0  0  0  0
   11.2033  -15.3076   19.2356 O   0  0  0  0  0  0  0  0  0  0  0  0
    6.7063  -15.1044   21.2965 C   0  0  0  0  0  0  0  0  0  0  0  0
    7.8480  -14.1555   21.5098 C   0  0  2  0  0  0  0  0  0  0  0  0
    7.6655  -12.9297   20.6418 C   0  0  0  0  0  0  0  0  0  0  0  0
    9.1781  -14.8091   21.1042 C   0  0  2  0  0  0  0  0  0  0  0  0
    8.9428  -15.4535   19.8444 N   0  0  0  0  0  0  0  0  0  0  0  0
    9.5291  -15.8826   22.0904 C   0  0  0  0  0  0  0  0  0  0  0  0
    9.2683  -17.0923   21.8863 O   0  0  0  0  0  0  0  0  0  0  0  0
    9.4596  -13.7094   29.6140 O   0  0  0  0  0  0  0  0  0  0  0  0
   10.0217  -14.2577   28.4665 C   0  0  0  0  0  0  0  0  0  0  0  0
   10.6627  -15.4807   28.5098 C   0  0  0  0  0  0  0  0  0  0  0  0
   11.2242  -16.0405   27.3904 C   0  0  0  0  0  0  0  0  0  0  0  0
   11.1484  -15.3660   26.1862 C   0  0  0  0  0  0  0  0  0  0  0  0
   11.7642  -15.9669   24.9988 C   0  0  0  0  0  0  0  0  0  0  0  0
   10.7215  -16.5999   24.1343 C   0  0  2  0  0  0  0  0  0  0  0  0
   10.1767  -15.5244   23.2943 N   0  0  0  0  0  0  0  0  0  0  0  0
    9.6287  -17.1811   24.9323 C   0  0  0  0  0  0  0  0  0  0  0  0
    9.7440  -18.3066   25.7252 O   0  0  0  0  0  0  0  0  0  0  0  0
   10.5145  -14.1532   26.1374 C   0  0  0  0  0  0  0  0  0  0  0  0
    9.9542  -13.5998   27.2654 C   0  0  0  0  0  0  0  0  0  0  0  0
    8.4795  -16.6268   24.9081 O   0  0  0  0  0  0  0  0  0  0  0  0
  2  1  1  1
  2  4  1  0
  2  3  1  0
  4  6  1  0
  4  5  1  6
  6  7  2  0
  9  8  1  6
  9 11  1  0
 10  9  1  0
 11 13  1  0
 11 12  1  6
 12  6  1  0
 13 14  2  0
 15 16  1  0
 16 26  2  0
 16 17  1  0
 17 18  2  0
 18 19  1  0
 19 20  1  0
 21 20  1  1
 21 22  1  0
 21 23  1  0
 22 13  1  0
 23 27  2  0
 23 24  1  0
 25 19  2  0
 26 25  1  0
M  END
$$$$
