LYM.pdb
     RDKit          3D

 29 29  0  0  1  0  0  0  0  0999 V2000
   29.4166  -18.8829  -16.4661 C   0  0  0  0  0  0  0  0  0  0  0  0
   27.9462  -18.6430  -16.7835 C   0  0  2  0  0  0  0  0  0  0  0  0
   27.7496  -17.5466  -17.7878 C   0  0  0  0  0  0  0  0  0  0  0  0
   27.2109  -18.3531  -15.4833 C   0  0  0  0  0  0  0  0  0  0  0  0
   27.6759  -19.4001  -14.4750 C   0  0  2  0  0  0  0  0  0  0  0  0
   27.5715  -20.7002  -15.1213 N   0  0  0  0  0  0  0  0  0  0  0  0
   26.8974  -19.3578  -13.2327 C   0  0  0  0  0  0  0  0  0  0  0  0
   26.6952  -18.2203  -12.7105 O   0  0  0  0  0  0  0  0  0  0  0  0
   20.1959  -19.3955  -15.1452 O   0  0  0  0  0  0  0  0  0  0  0  0
   21.1947  -19.8731  -14.3149 C   0  0  0  0  0  0  0  0  0  0  0  0
   22.2356  -20.6005  -14.8503 C   0  0  0  0  0  0  0  0  0  0  0  0
   23.2633  -21.1052  -14.0758 C   0  0  0  0  0  0  0  0  0  0  0  0
   23.2834  -20.8945  -12.7163 C   0  0  0  0  0  0  0  0  0  0  0  0
   24.3648  -21.4201  -11.8963 C   0  0  0  0  0  0  0  0  0  0  0  0
   25.4620  -20.4827  -11.5391 C   0  0  2  0  0  0  0  0  0  0  0  0
   26.4093  -20.5539  -12.6704 N   0  0  0  0  0  0  0  0  0  0  0  0
   26.2276  -20.8028  -10.3205 C   0  0  0  0  0  0  0  0  0  0  0  0
   26.8504  -21.9207  -10.2312 O   0  0  0  0  0  0  0  0  0  0  0  0
   22.2378  -20.1639  -12.1788 C   0  0  0  0  0  0  0  0  0  0  0  0
   21.2150  -19.6619  -12.9512 C   0  0  0  0  0  0  0  0  0  0  0  0
   30.5687  -19.3893   -5.6694 C   0  0  0  0  0  0  0  0  0  0  0  0
   28.9881  -19.0642   -4.8219 S   0  0  0  0  0  0  0  0  0  0  0  0
   27.7315  -20.0824   -5.6747 C   0  0  0  0  0  0  0  0  0  0  0  0
   27.5126  -19.6168   -7.0724 C   0  0  0  0  0  0  0  0  0  0  0  0
   26.5739  -20.5465   -7.8374 C   0  0  2  0  0  0  0  0  0  0  0  0
   26.3661  -19.9726   -9.1793 N   0  0  0  0  0  0  0  0  0  0  0  0
   25.3135  -20.8126   -7.1312 C   0  0  0  0  0  0  0  0  0  0  0  0
   24.2853  -20.1736   -7.4642 O   0  0  0  0  0  0  0  0  0  0  0  0
   25.1461  -21.7263   -6.1066 O   0  0  0  0  0  0  0  0  0  0  0  0
  2  4  1  0
  2  1  1  1
  3  2  1  0
  5  6  1  6
  5  4  1  0
  7  5  1  0
  7  8  2  0
  9 10  1  0
 10 20  2  0
 10 11  1  0
 11 12  2  0
 12 13  1  0
 13 14  1  0
 15 14  1  6
 16 15  1  0
 16  7  1  0
 17 15  1  0
 17 18  2  0
 19 13  2  0
 20 19  1  0
 22 21  1  0
 22 23  1  0
 23 24  1  0
 25 24  1  1
 25 27  1  0
 26 25  1  0
 26 17  1  0
 27 28  2  0
 27 29  1  0
M  END
$$$$
