LYM.pdb
     RDKit          3D

 29 29  0  0  1  0  0  0  0  0999 V2000
   29.2947  -18.8774  -16.0754 C   0  0  0  0  0  0  0  0  0  0  0  0
   28.2282  -17.8156  -16.3114 C   0  0  2  0  0  0  0  0  0  0  0  0
   28.8176  -16.4794  -16.6525 C   0  0  0  0  0  0  0  0  0  0  0  0
   27.3388  -17.7400  -15.0792 C   0  0  0  0  0  0  0  0  0  0  0  0
   26.9301  -19.1722  -14.7462 C   0  0  2  0  0  0  0  0  0  0  0  0
   26.1109  -19.6561  -15.8478 N   0  0  0  0  0  0  0  0  0  0  0  0
   26.2139  -19.2619  -13.4693 C   0  0  0  0  0  0  0  0  0  0  0  0
   25.5737  -18.2364  -13.0874 O   0  0  0  0  0  0  0  0  0  0  0  0
   19.8406  -19.8992  -14.5106 O   0  0  0  0  0  0  0  0  0  0  0  0
   20.9524  -20.2864  -13.7834 C   0  0  0  0  0  0  0  0  0  0  0  0
   21.9569  -20.9985  -14.4022 C   0  0  0  0  0  0  0  0  0  0  0  0
   23.0922  -21.4147  -13.7324 C   0  0  0  0  0  0  0  0  0  0  0  0
   23.2623  -21.1266  -12.3979 C   0  0  0  0  0  0  0  0  0  0  0  0
   24.4573  -21.5587  -11.6883 C   0  0  0  0  0  0  0  0  0  0  0  0
   25.5116  -20.5378  -11.4512 C   0  0  2  0  0  0  0  0  0  0  0  0
   26.2581  -20.4563  -12.7234 N   0  0  0  0  0  0  0  0  0  0  0  0
   26.4962  -20.8440  -10.3974 C   0  0  0  0  0  0  0  0  0  0  0  0
   27.1442  -21.9505  -10.4291 O   0  0  0  0  0  0  0  0  0  0  0  0
   22.2532  -20.4113  -11.7764 C   0  0  0  0  0  0  0  0  0  0  0  0
   21.1233  -19.9975  -12.4447 C   0  0  0  0  0  0  0  0  0  0  0  0
   30.4478  -19.1177   -5.1308 C   0  0  0  0  0  0  0  0  0  0  0  0
   28.7204  -18.7944   -4.6476 S   0  0  0  0  0  0  0  0  0  0  0  0
   27.6900  -19.9334   -5.6395 C   0  0  0  0  0  0  0  0  0  0  0  0
   27.6915  -19.5525   -7.0794 C   0  0  0  0  0  0  0  0  0  0  0  0
   26.9038  -20.5477   -7.9281 C   0  0  2  0  0  0  0  0  0  0  0  0
   26.8300  -20.0112   -9.2992 N   0  0  0  0  0  0  0  0  0  0  0  0
   25.5831  -20.8713   -7.3721 C   0  0  0  0  0  0  0  0  0  0  0  0
   24.5834  -20.2224   -7.7670 O   0  0  0  0  0  0  0  0  0  0  0  0
   25.3283  -21.8508   -6.4296 O   0  0  0  0  0  0  0  0  0  0  0  0
  2  4  1  0
  2  1  1  1
  3  2  1  0
  5  6  1  6
  5  4  1  0
  7  5  1  0
  7  8  2  0
  9 10  1  0
 10 20  2  0
 10 11  1  0
 11 12  2  0
 12 13  1  0
 13 14  1  0
 15 14  1  6
 16 15  1  0
 16  7  1  0
 17 15  1  0
 17 18  2  0
 19 13  2  0
 20 19  1  0
 22 21  1  0
 22 23  1  0
 23 24  1  0
 25 24  1  1
 25 27  1  0
 26 25  1  0
 26 17  1  0
 27 28  2  0
 27 29  1  0
M  END
$$$$
