LYM.pdb
     RDKit          3D

 29 29  0  0  1  0  0  0  0  0999 V2000
   29.9346  -17.5160  -17.0082 C   0  0  0  0  0  0  0  0  0  0  0  0
   28.5456  -17.2342  -17.5665 C   0  0  2  0  0  0  0  0  0  0  0  0
   28.5024  -15.9777  -18.3844 C   0  0  0  0  0  0  0  0  0  0  0  0
   27.5589  -17.1861  -16.4093 C   0  0  0  0  0  0  0  0  0  0  0  0
   27.8034  -18.4395  -15.5737 C   0  0  2  0  0  0  0  0  0  0  0  0
   27.7673  -19.5781  -16.4800 N   0  0  0  0  0  0  0  0  0  0  0  0
   26.8219  -18.5861  -14.4936 C   0  0  0  0  0  0  0  0  0  0  0  0
   26.6406  -17.5888  -13.7321 O   0  0  0  0  0  0  0  0  0  0  0  0
   19.3876  -21.8133  -10.8659 O   0  0  0  0  0  0  0  0  0  0  0  0
   20.5278  -21.5900  -11.6176 C   0  0  0  0  0  0  0  0  0  0  0  0
   20.7420  -20.3495  -12.1783 C   0  0  0  0  0  0  0  0  0  0  0  0
   21.8596  -20.0623  -12.9391 C   0  0  0  0  0  0  0  0  0  0  0  0
   22.8166  -21.0241  -13.1677 C   0  0  0  0  0  0  0  0  0  0  0  0
   23.9974  -20.7264  -13.9647 C   0  0  0  0  0  0  0  0  0  0  0  0
   25.0511  -19.8916  -13.3300 C   0  0  2  0  0  0  0  0  0  0  0  0
   26.1269  -19.8018  -14.3384 N   0  0  0  0  0  0  0  0  0  0  0  0
   25.6622  -20.4292  -12.1007 C   0  0  0  0  0  0  0  0  0  0  0  0
   26.3901  -21.4839  -12.1563 O   0  0  0  0  0  0  0  0  0  0  0  0
   22.6013  -22.2701  -12.6044 C   0  0  0  0  0  0  0  0  0  0  0  0
   21.4878  -22.5546  -11.8470 C   0  0  0  0  0  0  0  0  0  0  0  0
   28.8171  -18.1686   -7.4395 C   0  0  0  0  0  0  0  0  0  0  0  0
   28.1955  -19.5200   -6.3862 S   0  0  0  0  0  0  0  0  0  0  0  0
   27.1249  -20.5489   -7.4530 C   0  0  0  0  0  0  0  0  0  0  0  0
   26.7993  -19.8526   -8.7287 C   0  0  0  0  0  0  0  0  0  0  0  0
   25.8592  -20.6811   -9.6008 C   0  0  2  0  0  0  0  0  0  0  0  0
   25.5353  -19.8839  -10.7978 N   0  0  0  0  0  0  0  0  0  0  0  0
   24.6628  -21.1486   -8.8880 C   0  0  0  0  0  0  0  0  0  0  0  0
   24.7941  -22.0057   -7.9800 O   0  0  0  0  0  0  0  0  0  0  0  0
   23.3692  -20.7220   -9.1275 O   0  0  0  0  0  0  0  0  0  0  0  0
  2  4  1  0
  2  1  1  1
  3  2  1  0
  5  6  1  6
  5  4  1  0
  7  5  1  0
  7  8  2  0
  9 10  1  0
 10 20  2  0
 10 11  1  0
 11 12  2  0
 12 13  1  0
 13 14  1  0
 15 14  1  6
 16 15  1  0
 16  7  1  0
 17 15  1  0
 17 18  2  0
 19 13  2  0
 20 19  1  0
 22 21  1  0
 22 23  1  0
 23 24  1  0
 25 24  1  1
 25 27  1  0
 26 25  1  0
 26 17  1  0
 27 28  2  0
 27 29  1  0
M  END
$$$$
