LYM.pdb
     RDKit          3D

 29 29  0  0  1  0  0  0  0  0999 V2000
   29.0049  -17.9720  -16.1691 C   0  0  0  0  0  0  0  0  0  0  0  0
   27.5468  -17.9224  -16.6073 C   0  0  2  0  0  0  0  0  0  0  0  0
   27.2507  -16.7354  -17.4748 C   0  0  0  0  0  0  0  0  0  0  0  0
   26.6669  -17.9455  -15.3662 C   0  0  0  0  0  0  0  0  0  0  0  0
   27.2503  -19.0055  -14.4361 C   0  0  2  0  0  0  0  0  0  0  0  0
   27.2671  -20.2630  -15.1690 N   0  0  0  0  0  0  0  0  0  0  0  0
   26.4907  -19.1260  -13.1871 C   0  0  0  0  0  0  0  0  0  0  0  0
   26.1768  -18.0523  -12.5905 O   0  0  0  0  0  0  0  0  0  0  0  0
   19.6343  -19.3706  -14.4582 O   0  0  0  0  0  0  0  0  0  0  0  0
   20.7701  -19.8951  -13.8668 C   0  0  0  0  0  0  0  0  0  0  0  0
   20.9237  -19.8179  -12.4995 C   0  0  0  0  0  0  0  0  0  0  0  0
   22.0338  -20.3218  -11.8481 C   0  0  0  0  0  0  0  0  0  0  0  0
   23.0444  -20.9304  -12.5563 C   0  0  0  0  0  0  0  0  0  0  0  0
   24.2138  -21.4663  -11.8756 C   0  0  0  0  0  0  0  0  0  0  0  0
   25.2821  -20.5023  -11.5021 C   0  0  2  0  0  0  0  0  0  0  0  0
   26.1413  -20.4009  -12.6996 N   0  0  0  0  0  0  0  0  0  0  0  0
   26.1565  -20.8936  -10.3814 C   0  0  0  0  0  0  0  0  0  0  0  0
   26.7379  -22.0370  -10.3924 O   0  0  0  0  0  0  0  0  0  0  0  0
   22.8900  -21.0077  -13.9297 C   0  0  0  0  0  0  0  0  0  0  0  0
   21.7839  -20.5054  -14.5770 C   0  0  0  0  0  0  0  0  0  0  0  0
   28.4781  -17.5140   -5.3308 C   0  0  0  0  0  0  0  0  0  0  0  0
   28.7938  -19.2034   -4.7238 S   0  0  0  0  0  0  0  0  0  0  0  0
   27.7097  -20.3078   -5.6974 C   0  0  0  0  0  0  0  0  0  0  0  0
   27.5229  -19.8001   -7.0851 C   0  0  0  0  0  0  0  0  0  0  0  0
   26.6408  -20.7309   -7.9135 C   0  0  2  0  0  0  0  0  0  0  0  0
   26.4475  -20.1095   -9.2363 N   0  0  0  0  0  0  0  0  0  0  0  0
   25.3729  -21.0722   -7.2548 C   0  0  0  0  0  0  0  0  0  0  0  0
   25.3894  -21.8661   -6.2821 O   0  0  0  0  0  0  0  0  0  0  0  0
   24.1278  -20.5883   -7.6128 O   0  0  0  0  0  0  0  0  0  0  0  0
  2  4  1  0
  2  1  1  1
  3  2  1  0
  5  6  1  6
  5  4  1  0
  7  5  1  0
  7  8  2  0
  9 10  1  0
 10 20  2  0
 10 11  1  0
 11 12  2  0
 12 13  1  0
 13 14  1  0
 15 14  1  6
 16 15  1  0
 16  7  1  0
 17 15  1  0
 17 18  2  0
 19 13  2  0
 20 19  1  0
 22 21  1  0
 22 23  1  0
 23 24  1  0
 25 24  1  1
 25 27  1  0
 26 25  1  0
 26 17  1  0
 27 28  2  0
 27 29  1  0
M  END
$$$$
