LYM.pdb
     RDKit          3D

 29 29  0  0  1  0  0  0  0  0999 V2000
   32.6512  -30.5504  -20.6692 C   0  0  0  0  0  0  0  0  0  0  0  0
   32.0523  -30.7413  -19.2817 C   0  0  2  0  0  0  0  0  0  0  0  0
   30.6072  -31.1394  -19.3326 C   0  0  0  0  0  0  0  0  0  0  0  0
   32.2550  -29.4603  -18.4860 C   0  0  0  0  0  0  0  0  0  0  0  0
   33.7587  -29.2023  -18.4481 C   0  0  2  0  0  0  0  0  0  0  0  0
   34.3388  -30.1580  -17.5159 N   0  0  0  0  0  0  0  0  0  0  0  0
   34.0752  -27.8227  -18.0637 C   0  0  0  0  0  0  0  0  0  0  0  0
   33.9052  -27.5031  -16.8487 O   0  0  0  0  0  0  0  0  0  0  0  0
   38.9890  -20.4980  -18.1748 O   0  0  0  0  0  0  0  0  0  0  0  0
   38.3249  -21.7025  -18.3269 C   0  0  0  0  0  0  0  0  0  0  0  0
   38.8388  -22.6616  -19.1726 C   0  0  0  0  0  0  0  0  0  0  0  0
   38.2242  -23.8841  -19.3684 C   0  0  0  0  0  0  0  0  0  0  0  0
   37.0546  -24.1922  -18.7126 C   0  0  0  0  0  0  0  0  0  0  0  0
   36.4049  -25.4793  -18.9118 C   0  0  0  0  0  0  0  0  0  0  0  0
   34.9510  -25.5585  -18.6121 C   0  0  2  0  0  0  0  0  0  0  0  0
   34.5472  -26.9158  -19.0331 N   0  0  0  0  0  0  0  0  0  0  0  0
   34.0802  -24.6115  -19.3321 C   0  0  0  0  0  0  0  0  0  0  0  0
   33.4902  -24.9778  -20.4106 O   0  0  0  0  0  0  0  0  0  0  0  0
   36.5385  -23.2287  -17.8632 C   0  0  0  0  0  0  0  0  0  0  0  0
   37.1517  -22.0117  -17.6692 C   0  0  0  0  0  0  0  0  0  0  0  0
   33.1357  -17.8612  -18.5855 C   0  0  0  0  0  0  0  0  0  0  0  0
   31.5085  -18.6480  -18.8210 S   0  0  0  0  0  0  0  0  0  0  0  0
   31.8150  -20.1849  -19.7628 C   0  0  0  0  0  0  0  0  0  0  0  0
   32.6563  -21.1384  -18.9873 C   0  0  0  0  0  0  0  0  0  0  0  0
   32.9861  -22.3894  -19.7978 C   0  0  2  0  0  0  0  0  0  0  0  0
   33.8014  -23.2755  -18.9472 N   0  0  0  0  0  0  0  0  0  0  0  0
   33.6229  -22.0968  -21.0889 C   0  0  0  0  0  0  0  0  0  0  0  0
   34.8522  -21.8428  -21.1150 O   0  0  0  0  0  0  0  0  0  0  0  0
   32.9799  -22.0749  -22.3131 O   0  0  0  0  0  0  0  0  0  0  0  0
  2  4  1  0
  2  1  1  6
  3  2  1  0
  5  6  1  1
  5  4  1  0
  7  5  1  0
  7  8  2  0
  9 10  1  0
 10 20  2  0
 10 11  1  0
 11 12  2  0
 12 13  1  0
 13 14  1  0
 15 14  1  6
 16 15  1  0
 16  7  1  0
 17 15  1  0
 17 18  2  0
 19 13  2  0
 20 19  1  0
 22 21  1  0
 22 23  1  0
 23 24  1  0
 25 24  1  1
 25 27  1  0
 26 25  1  0
 26 17  1  0
 27 28  2  0
 27 29  1  0
M  END
$$$$
