LYM.pdb
     RDKit          3D

 29 29  0  0  1  0  0  0  0  0999 V2000
   28.4662  -15.3935  -16.5045 C   0  0  0  0  0  0  0  0  0  0  0  0
   27.4419  -14.3740  -16.9860 C   0  0  2  0  0  0  0  0  0  0  0  0
   27.8913  -12.9612  -16.7591 C   0  0  0  0  0  0  0  0  0  0  0  0
   26.1146  -14.6591  -16.2988 C   0  0  0  0  0  0  0  0  0  0  0  0
   25.8159  -16.1391  -16.5214 C   0  0  2  0  0  0  0  0  0  0  0  0
   25.8809  -16.3833  -17.9549 N   0  0  0  0  0  0  0  0  0  0  0  0
   24.5136  -16.5307  -15.9720 C   0  0  0  0  0  0  0  0  0  0  0  0
   24.0343  -15.8141  -15.0424 O   0  0  0  0  0  0  0  0  0  0  0  0
   19.1346  -13.6070  -19.2097 O   0  0  0  0  0  0  0  0  0  0  0  0
   19.7878  -14.7235  -18.7179 C   0  0  0  0  0  0  0  0  0  0  0  0
   19.1247  -15.5808  -17.8669 C   0  0  0  0  0  0  0  0  0  0  0  0
   19.7203  -16.7121  -17.3414 C   0  0  0  0  0  0  0  0  0  0  0  0
   21.0219  -17.0280  -17.6560 C   0  0  0  0  0  0  0  0  0  0  0  0
   21.6530  -18.2199  -17.1089 C   0  0  0  0  0  0  0  0  0  0  0  0
   22.5337  -18.0381  -15.9251 C   0  0  2  0  0  0  0  0  0  0  0  0
   23.8502  -17.6644  -16.4817 N   0  0  0  0  0  0  0  0  0  0  0  0
   22.7496  -19.2262  -15.0794 C   0  0  0  0  0  0  0  0  0  0  0  0
   23.0995  -20.3380  -15.6151 O   0  0  0  0  0  0  0  0  0  0  0  0
   21.6879  -16.1666  -18.5108 C   0  0  0  0  0  0  0  0  0  0  0  0
   21.0935  -15.0404  -19.0334 C   0  0  0  0  0  0  0  0  0  0  0  0
   26.5718  -20.4229  -10.2012 C   0  0  0  0  0  0  0  0  0  0  0  0
   25.0374  -21.0936   -9.4815 S   0  0  0  0  0  0  0  0  0  0  0  0
   23.9265  -21.4521  -10.8887 C   0  0  0  0  0  0  0  0  0  0  0  0
   23.7034  -20.2412  -11.7267 C   0  0  0  0  0  0  0  0  0  0  0  0
   22.8163  -20.5436  -12.9319 C   0  0  2  0  0  0  0  0  0  0  0  0
   22.6128  -19.2833  -13.6691 N   0  0  0  0  0  0  0  0  0  0  0  0
   21.5535  -21.2042  -12.5755 C   0  0  0  0  0  0  0  0  0  0  0  0
   20.5470  -20.4954  -12.3282 O   0  0  0  0  0  0  0  0  0  0  0  0
   21.3614  -22.5707  -12.4849 O   0  0  0  0  0  0  0  0  0  0  0  0
  2  4  1  0
  2  1  1  1
  3  2  1  0
  5  6  1  6
  5  4  1  0
  7  5  1  0
  7  8  2  0
  9 10  1  0
 10 20  2  0
 10 11  1  0
 11 12  2  0
 12 13  1  0
 13 14  1  0
 15 14  1  6
 16 15  1  0
 16  7  1  0
 17 15  1  0
 17 18  2  0
 19 13  2  0
 20 19  1  0
 22 21  1  0
 22 23  1  0
 23 24  1  0
 25 24  1  1
 25 27  1  0
 26 25  1  0
 26 17  1  0
 27 28  2  0
 27 29  1  0
M  END
$$$$
