LYM.pdb
     RDKit          3D

 29 29  0  0  1  0  0  0  0  0999 V2000
   29.3477  -18.2801  -16.1922 C   0  0  0  0  0  0  0  0  0  0  0  0
   27.8935  -18.1327  -16.6210 C   0  0  2  0  0  0  0  0  0  0  0  0
   27.6692  -16.9196  -17.4740 C   0  0  0  0  0  0  0  0  0  0  0  0
   27.0205  -18.1132  -15.3750 C   0  0  0  0  0  0  0  0  0  0  0  0
   27.5004  -19.2578  -14.4868 C   0  0  2  0  0  0  0  0  0  0  0  0
   27.2947  -20.4949  -15.2257 N   0  0  0  0  0  0  0  0  0  0  0  0
   26.8061  -19.2860  -13.1951 C   0  0  0  0  0  0  0  0  0  0  0  0
   26.6739  -18.1849  -12.5808 O   0  0  0  0  0  0  0  0  0  0  0  0
   20.0066  -19.2609  -14.6886 O   0  0  0  0  0  0  0  0  0  0  0  0
   21.0498  -19.7729  -13.9371 C   0  0  0  0  0  0  0  0  0  0  0  0
   22.0852  -20.4289  -14.5669 C   0  0  0  0  0  0  0  0  0  0  0  0
   23.1555  -20.9628  -13.8742 C   0  0  0  0  0  0  0  0  0  0  0  0
   23.2260  -20.8558  -12.5043 C   0  0  0  0  0  0  0  0  0  0  0  0
   24.3524  -21.4126  -11.7699 C   0  0  0  0  0  0  0  0  0  0  0  0
   25.4845  -20.4974  -11.4688 C   0  0  2  0  0  0  0  0  0  0  0  0
   26.3186  -20.5068  -12.6881 N   0  0  0  0  0  0  0  0  0  0  0  0
   26.3615  -20.8850  -10.3488 C   0  0  0  0  0  0  0  0  0  0  0  0
   26.8703  -22.0619  -10.3122 O   0  0  0  0  0  0  0  0  0  0  0  0
   22.1858  -20.1969  -11.8718 C   0  0  0  0  0  0  0  0  0  0  0  0
   21.1205  -19.6657  -12.5630 C   0  0  0  0  0  0  0  0  0  0  0  0
   28.7387  -17.3487   -5.2287 C   0  0  0  0  0  0  0  0  0  0  0  0
   29.2125  -19.0640   -4.8345 S   0  0  0  0  0  0  0  0  0  0  0  0
   28.0310  -20.1385   -5.7248 C   0  0  0  0  0  0  0  0  0  0  0  0
   27.8631  -19.7055   -7.1399 C   0  0  0  0  0  0  0  0  0  0  0  0
   26.9136  -20.6254   -7.9036 C   0  0  2  0  0  0  0  0  0  0  0  0
   26.7300  -20.0629   -9.2538 N   0  0  0  0  0  0  0  0  0  0  0  0
   25.6416  -20.8588   -7.2069 C   0  0  0  0  0  0  0  0  0  0  0  0
   24.6522  -20.1411   -7.4942 O   0  0  0  0  0  0  0  0  0  0  0  0
   25.4230  -21.8214   -6.2382 O   0  0  0  0  0  0  0  0  0  0  0  0
  2  4  1  0
  2  1  1  1
  3  2  1  0
  5  6  1  6
  5  4  1  0
  7  5  1  0
  7  8  2  0
  9 10  1  0
 10 20  2  0
 10 11  1  0
 11 12  2  0
 12 13  1  0
 13 14  1  0
 15 14  1  6
 16 15  1  0
 16  7  1  0
 17 15  1  0
 17 18  2  0
 19 13  2  0
 20 19  1  0
 22 21  1  0
 22 23  1  0
 23 24  1  0
 25 24  1  1
 25 27  1  0
 26 25  1  0
 26 17  1  0
 27 28  2  0
 27 29  1  0
M  END
$$$$
