LTW.pdb
     RDKit          3D

 30 31  0  0  1  0  0  0  0  0999 V2000
   29.6979  -22.4271  -19.7881 C   0  0  0  0  0  0  0  0  0  0  0  0
   29.2221  -22.9284  -18.4567 C   0  0  1  0  0  0  0  0  0  0  0  0
   30.1326  -24.0018  -17.9534 C   0  0  0  0  0  0  0  0  0  0  0  0
   28.9521  -21.8480  -17.4673 C   0  0  0  0  0  0  0  0  0  0  0  0
   28.5617  -22.3743  -16.1047 C   0  0  2  0  0  0  0  0  0  0  0  0
   27.4076  -23.2338  -16.2836 N   0  0  0  0  0  0  0  0  0  0  0  0
   28.2645  -21.2675  -15.1589 C   0  0  0  0  0  0  0  0  0  0  0  0
   28.7035  -20.0922  -15.4066 O   0  0  0  0  0  0  0  0  0  0  0  0
   27.0092  -19.0524  -15.3279 C   0  0  0  0  0  0  0  0  0  0  0  0
   26.1602  -19.4343  -14.1381 C   0  0  1  0  0  0  0  0  0  0  0  0
   25.1463  -20.2674  -14.6451 O   0  0  0  0  0  0  0  0  0  0  0  0
   26.9858  -20.2978  -13.1930 C   0  0  2  0  0  0  0  0  0  0  0  0
   27.5193  -21.4247  -13.9865 N   0  0  0  0  0  0  0  0  0  0  0  0
   26.2575  -20.8068  -12.0329 C   0  0  0  0  0  0  0  0  0  0  0  0
   25.7816  -22.0040  -12.1091 O   0  0  0  0  0  0  0  0  0  0  0  0
   25.9973  -20.1613  -10.8107 N   0  0  0  0  0  0  0  0  0  0  0  0
   25.1942  -20.7422   -9.7273 C   0  0  1  0  0  0  0  0  0  0  0  0
   25.6322  -20.2311   -8.4061 C   0  0  0  0  0  0  0  0  0  0  0  0
   27.0300  -20.4664   -8.0592 C   0  0  0  0  0  0  0  0  0  0  0  0
   27.9148  -21.2454   -8.7757 C   0  0  0  0  0  0  0  0  0  0  0  0
   29.1027  -21.2595   -8.1355 N   0  0  0  0  0  0  0  0  0  0  0  0
   29.0329  -20.5079   -7.0091 C   0  0  0  0  0  0  0  0  0  0  0  0
   29.9806  -20.2163   -6.0603 C   0  0  0  0  0  0  0  0  0  0  0  0
   29.6448  -19.3865   -4.9976 C   0  0  0  0  0  0  0  0  0  0  0  0
   28.3623  -18.8859   -4.9394 C   0  0  0  0  0  0  0  0  0  0  0  0
   27.4165  -19.1778   -5.8863 C   0  0  0  0  0  0  0  0  0  0  0  0
   27.7262  -20.0111   -6.9666 C   0  0  0  0  0  0  0  0  0  0  0  0
   23.7692  -20.6772   -9.9460 C   0  0  0  0  0  0  0  0  0  0  0  0
   22.8562  -21.3197   -9.0918 O   0  0  0  0  0  0  0  0  0  0  0  0
   23.2576  -20.0535  -10.8974 O   0  0  0  0  0  0  0  0  0  0  0  0
  2  1  1  6
  3  2  1  0
  4  2  1  0
  5  4  1  0
  5  6  1  6
  7  8  2  0
  7  5  1  0
 10  9  1  6
 10 12  1  0
 11 10  1  0
 12 13  1  6
 13  7  1  0
 14 12  1  0
 14 16  1  0
 15 14  2  0
 17 16  1  0
 17 28  1  0
 18 19  1  0
 17 18  1  1
 19 27  1  0
 20 19  2  0
 20 21  1  0
 21 22  1  0
 22 23  1  0
 23 24  2  0
 25 24  1  0
 26 25  2  0
 27 22  2  0
 27 26  1  0
 28 29  1  0
 30 28  2  0
M  END
$$$$
