LTW.pdb
     RDKit          3D

 30 31  0  0  1  0  0  0  0  0999 V2000
   26.4310  -14.1568  -16.4679 C   0  0  0  0  0  0  0  0  0  0  0  0
   27.1180  -15.4204  -16.0416 C   0  0  1  0  0  0  0  0  0  0  0  0
   28.5079  -15.1222  -15.5793 C   0  0  0  0  0  0  0  0  0  0  0  0
   26.3249  -16.2455  -15.0880 C   0  0  0  0  0  0  0  0  0  0  0  0
   27.0570  -17.4837  -14.6224 C   0  0  2  0  0  0  0  0  0  0  0  0
   27.6273  -18.1196  -15.7942 N   0  0  0  0  0  0  0  0  0  0  0  0
   26.1505  -18.4109  -13.8969 C   0  0  0  0  0  0  0  0  0  0  0  0
   24.9168  -18.1046  -13.7567 O   0  0  0  0  0  0  0  0  0  0  0  0
   26.3875  -21.1502  -15.7611 C   0  0  0  0  0  0  0  0  0  0  0  0
   26.4235  -21.7950  -14.3954 C   0  0  1  0  0  0  0  0  0  0  0  0
   27.7827  -21.8534  -14.0373 O   0  0  0  0  0  0  0  0  0  0  0  0
   25.7588  -20.8660  -13.3877 C   0  0  2  0  0  0  0  0  0  0  0  0
   26.5621  -19.6264  -13.3421 N   0  0  0  0  0  0  0  0  0  0  0  0
   25.6199  -21.4188  -12.0422 C   0  0  0  0  0  0  0  0  0  0  0  0
   24.7775  -22.3832  -11.8807 O   0  0  0  0  0  0  0  0  0  0  0  0
   26.2942  -21.0415  -10.8671 N   0  0  0  0  0  0  0  0  0  0  0  0
   26.0039  -21.5934   -9.5377 C   0  0  1  0  0  0  0  0  0  0  0  0
   27.2267  -21.6382   -8.7004 C   0  0  0  0  0  0  0  0  0  0  0  0
   27.4160  -20.5201   -7.7819 C   0  0  0  0  0  0  0  0  0  0  0  0
   26.9182  -19.2453   -7.9557 C   0  0  0  0  0  0  0  0  0  0  0  0
   27.3244  -18.4731   -6.9262 N   0  0  0  0  0  0  0  0  0  0  0  0
   28.0807  -19.2016   -6.0685 C   0  0  0  0  0  0  0  0  0  0  0  0
   28.6907  -18.8562   -4.8887 C   0  0  0  0  0  0  0  0  0  0  0  0
   29.4006  -19.8203   -4.1835 C   0  0  0  0  0  0  0  0  0  0  0  0
   29.4636  -21.0953   -4.7025 C   0  0  0  0  0  0  0  0  0  0  0  0
   28.8552  -21.4393   -5.8805 C   0  0  0  0  0  0  0  0  0  0  0  0
   28.1345  -20.4891   -6.6121 C   0  0  0  0  0  0  0  0  0  0  0  0
   24.8605  -21.0001   -8.8868 C   0  0  0  0  0  0  0  0  0  0  0  0
   24.1842  -19.8958   -9.4337 O   0  0  0  0  0  0  0  0  0  0  0  0
   24.4008  -21.4229   -7.8071 O   0  0  0  0  0  0  0  0  0  0  0  0
  2  1  1  1
  3  2  1  0
  4  2  1  0
  5  4  1  0
  5  6  1  6
  7  8  2  0
  7  5  1  0
 10  9  1  6
 10 12  1  0
 11 10  1  0
 12 13  1  1
 13  7  1  0
 14 12  1  0
 14 16  1  0
 15 14  2  0
 17 16  1  0
 17 28  1  0
 18 19  1  0
 17 18  1  1
 19 27  1  0
 20 19  2  0
 20 21  1  0
 21 22  1  0
 22 23  1  0
 23 24  2  0
 25 24  1  0
 26 25  2  0
 27 22  2  0
 27 26  1  0
 28 29  1  0
 30 28  2  0
M  END
$$$$
