LTW.pdb
     RDKit          3D

 30 31  0  0  1  0  0  0  0  0999 V2000
   13.1969  -22.5173  -10.6463 C   0  0  0  0  0  0  0  0  0  0  0  0
   13.5815  -22.8692   -9.2397 C   0  0  1  0  0  0  0  0  0  0  0  0
   15.0367  -23.2039   -9.1704 C   0  0  0  0  0  0  0  0  0  0  0  0
   13.1392  -21.8711   -8.2262 C   0  0  0  0  0  0  0  0  0  0  0  0
   13.4299  -22.2984   -6.8053 C   0  0  2  0  0  0  0  0  0  0  0  0
   12.7617  -23.5666   -6.5860 N   0  0  0  0  0  0  0  0  0  0  0  0
   12.9758  -21.2768   -5.8265 C   0  0  0  0  0  0  0  0  0  0  0  0
   13.4639  -20.0958   -5.8764 O   0  0  0  0  0  0  0  0  0  0  0  0
   10.8999  -18.9769   -5.7497 C   0  0  0  0  0  0  0  0  0  0  0  0
   10.3663  -19.7861   -4.5909 C   0  0  1  0  0  0  0  0  0  0  0  0
    9.5792  -20.8009   -5.1652 O   0  0  0  0  0  0  0  0  0  0  0  0
   11.5261  -20.4897   -3.8981 C   0  0  2  0  0  0  0  0  0  0  0  0
   12.0278  -21.5223   -4.8287 N   0  0  0  0  0  0  0  0  0  0  0  0
   11.1944  -21.0980   -2.6115 C   0  0  0  0  0  0  0  0  0  0  0  0
   11.2491  -22.3849   -2.5316 O   0  0  0  0  0  0  0  0  0  0  0  0
   10.8171  -20.4631   -1.4146 N   0  0  0  0  0  0  0  0  0  0  0  0
   10.4131  -21.1761   -0.1962 C   0  0  1  0  0  0  0  0  0  0  0  0
   11.4826  -22.0944    0.2636 C   0  0  0  0  0  0  0  0  0  0  0  0
   12.3650  -21.5797    1.3058 C   0  0  0  0  0  0  0  0  0  0  0  0
   12.0073  -20.6799    2.2884 C   0  0  0  0  0  0  0  0  0  0  0  0
   13.0892  -20.4087    3.0479 N   0  0  0  0  0  0  0  0  0  0  0  0
   14.1609  -21.1064    2.5968 C   0  0  0  0  0  0  0  0  0  0  0  0
   15.4538  -21.1664    3.0529 C   0  0  0  0  0  0  0  0  0  0  0  0
   16.3639  -21.9946    2.4074 C   0  0  0  0  0  0  0  0  0  0  0  0
   15.9268  -22.7284    1.3261 C   0  0  0  0  0  0  0  0  0  0  0  0
   14.6363  -22.6675    0.8708 C   0  0  0  0  0  0  0  0  0  0  0  0
   13.6988  -21.8417    1.5005 C   0  0  0  0  0  0  0  0  0  0  0  0
    9.8770  -20.3245    0.8383 C   0  0  0  0  0  0  0  0  0  0  0  0
    9.0412  -20.8233    1.8525 O   0  0  0  0  0  0  0  0  0  0  0  0
   10.1166  -19.1020    0.9011 O   0  0  0  0  0  0  0  0  0  0  0  0
  2  1  1  6
  3  2  1  0
  4  2  1  0
  5  4  1  0
  5  6  1  1
  7  8  2  0
  7  5  1  0
 10  9  1  6
 10 12  1  0
 11 10  1  0
 12 13  1  6
 13  7  1  0
 14 12  1  0
 14 16  1  0
 15 14  2  0
 17 16  1  0
 17 28  1  0
 18 19  1  0
 17 18  1  1
 19 27  1  0
 20 19  2  0
 20 21  1  0
 21 22  1  0
 22 23  1  0
 23 24  2  0
 25 24  1  0
 26 25  2  0
 27 22  2  0
 27 26  1  0
 28 29  1  0
 30 28  2  0
M  END
$$$$
