LTW.pdb
     RDKit          3D

 30 31  0  0  1  0  0  0  0  0999 V2000
   29.5420  -16.0990  -16.7274 C   0  0  0  0  0  0  0  0  0  0  0  0
   28.7322  -17.3601  -16.7921 C   0  0  1  0  0  0  0  0  0  0  0  0
   29.6339  -18.5493  -16.8775 C   0  0  0  0  0  0  0  0  0  0  0  0
   27.6908  -17.4628  -15.7319 C   0  0  0  0  0  0  0  0  0  0  0  0
   26.9527  -18.7823  -15.7500 C   0  0  2  0  0  0  0  0  0  0  0  0
   26.1866  -18.8366  -16.9800 N   0  0  0  0  0  0  0  0  0  0  0  0
   26.0716  -18.9288  -14.5626 C   0  0  0  0  0  0  0  0  0  0  0  0
   24.9348  -18.3432  -14.5456 O   0  0  0  0  0  0  0  0  0  0  0  0
   23.5218  -21.2029  -11.6052 C   0  0  0  0  0  0  0  0  0  0  0  0
   24.3098  -20.6907  -12.7880 C   0  0  1  0  0  0  0  0  0  0  0  0
   23.4660  -19.7726  -13.4393 O   0  0  0  0  0  0  0  0  0  0  0  0
   25.5015  -19.8874  -12.2830 C   0  0  2  0  0  0  0  0  0  0  0  0
   26.4066  -19.6813  -13.4329 N   0  0  0  0  0  0  0  0  0  0  0  0
   26.2328  -20.5033  -11.1781 C   0  0  0  0  0  0  0  0  0  0  0  0
   26.9253  -21.5603  -11.4405 O   0  0  0  0  0  0  0  0  0  0  0  0
   26.2937  -20.0951   -9.8335 N   0  0  0  0  0  0  0  0  0  0  0  0
   26.5789  -20.9979   -8.7111 C   0  0  1  0  0  0  0  0  0  0  0  0
   27.9135  -20.7188   -8.1283 C   0  0  0  0  0  0  0  0  0  0  0  0
   27.9504  -19.7300   -7.0556 C   0  0  0  0  0  0  0  0  0  0  0  0
   27.3016  -18.5127   -7.0632 C   0  0  0  0  0  0  0  0  0  0  0  0
   27.5949  -17.8536   -5.9228 N   0  0  0  0  0  0  0  0  0  0  0  0
   28.4235  -18.6018   -5.1532 C   0  0  0  0  0  0  0  0  0  0  0  0
   28.9696  -18.3591   -3.9178 C   0  0  0  0  0  0  0  0  0  0  0  0
   29.7832  -19.3224   -3.3339 C   0  0  0  0  0  0  0  0  0  0  0  0
   30.0103  -20.4924   -4.0255 C   0  0  0  0  0  0  0  0  0  0  0  0
   29.4655  -20.7338   -5.2589 C   0  0  0  0  0  0  0  0  0  0  0  0
   28.6433  -19.7817   -5.8712 C   0  0  0  0  0  0  0  0  0  0  0  0
   25.5151  -21.0903   -7.7402 C   0  0  0  0  0  0  0  0  0  0  0  0
   25.5683  -21.9918   -6.6630 O   0  0  0  0  0  0  0  0  0  0  0  0
   24.4881  -20.3841   -7.7913 O   0  0  0  0  0  0  0  0  0  0  0  0
  2  1  1  1
  3  2  1  0
  4  2  1  0
  5  4  1  0
  5  6  1  6
  7  8  2  0
  7  5  1  0
 10  9  1  1
 10 12  1  0
 11 10  1  0
 12 13  1  6
 13  7  1  0
 14 12  1  0
 14 16  1  0
 15 14  2  0
 17 16  1  0
 17 28  1  0
 18 19  1  0
 17 18  1  1
 19 27  1  0
 20 19  2  0
 20 21  1  0
 21 22  1  0
 22 23  1  0
 23 24  2  0
 25 24  1  0
 26 25  2  0
 27 22  2  0
 27 26  1  0
 28 29  1  0
 30 28  2  0
M  END
$$$$
