LTW.pdb
     RDKit          3D

 30 31  0  0  1  0  0  0  0  0999 V2000
   26.5227  -19.5462  -20.4344 C   0  0  0  0  0  0  0  0  0  0  0  0
   26.5892  -20.5220  -19.2969 C   0  0  1  0  0  0  0  0  0  0  0  0
   27.2878  -21.7712  -19.7281 C   0  0  0  0  0  0  0  0  0  0  0  0
   27.1156  -19.9379  -18.0317 C   0  0  0  0  0  0  0  0  0  0  0  0
   27.3940  -20.9764  -16.9686 C   0  0  2  0  0  0  0  0  0  0  0  0
   26.1995  -21.7863  -16.8269 N   0  0  0  0  0  0  0  0  0  0  0  0
   27.7702  -20.3452  -15.6771 C   0  0  0  0  0  0  0  0  0  0  0  0
   28.6516  -19.4187  -15.6619 O   0  0  0  0  0  0  0  0  0  0  0  0
   27.3840  -17.9598  -14.7611 C   0  0  0  0  0  0  0  0  0  0  0  0
   26.7380  -18.5242  -13.5175 C   0  0  1  0  0  0  0  0  0  0  0  0
   25.3933  -18.7574  -13.8590 O   0  0  0  0  0  0  0  0  0  0  0  0
   27.3425  -19.8898  -13.2175 C   0  0  2  0  0  0  0  0  0  0  0  0
   27.2140  -20.7024  -14.4452 N   0  0  0  0  0  0  0  0  0  0  0  0
   26.7377  -20.5940  -12.0890 C   0  0  0  0  0  0  0  0  0  0  0  0
   25.8136  -21.4554  -12.3530 O   0  0  0  0  0  0  0  0  0  0  0  0
   27.0296  -20.4655  -10.7191 N   0  0  0  0  0  0  0  0  0  0  0  0
   26.3368  -21.2053   -9.6567 C   0  0  1  0  0  0  0  0  0  0  0  0
   27.2240  -21.4148   -8.4873 C   0  0  0  0  0  0  0  0  0  0  0  0
   27.3696  -20.2796   -7.5818 C   0  0  0  0  0  0  0  0  0  0  0  0
   26.8217  -19.0276   -7.7694 C   0  0  0  0  0  0  0  0  0  0  0  0
   27.1979  -18.2281   -6.7494 N   0  0  0  0  0  0  0  0  0  0  0  0
   27.9833  -18.9165   -5.8844 C   0  0  0  0  0  0  0  0  0  0  0  0
   28.5801  -18.5337   -4.7094 C   0  0  0  0  0  0  0  0  0  0  0  0
   29.3282  -19.4609   -3.9942 C   0  0  0  0  0  0  0  0  0  0  0  0
   29.4410  -20.7383   -4.4987 C   0  0  0  0  0  0  0  0  0  0  0  0
   28.8457  -21.1195   -5.6720 C   0  0  0  0  0  0  0  0  0  0  0  0
   28.0874  -20.2069   -6.4134 C   0  0  0  0  0  0  0  0  0  0  0  0
   25.0322  -20.6842   -9.3259 C   0  0  0  0  0  0  0  0  0  0  0  0
   24.1333  -21.3939   -8.5108 O   0  0  0  0  0  0  0  0  0  0  0  0
   24.6191  -19.5813   -9.7368 O   0  0  0  0  0  0  0  0  0  0  0  0
  2  1  1  6
  3  2  1  0
  4  2  1  0
  5  4  1  0
  5  6  1  1
  7  8  2  0
  7  5  1  0
 10  9  1  6
 10 12  1  0
 11 10  1  0
 12 13  1  6
 13  7  1  0
 14 12  1  0
 14 16  1  0
 15 14  2  0
 17 16  1  0
 17 28  1  0
 18 19  1  0
 17 18  1  1
 19 27  1  0
 20 19  2  0
 20 21  1  0
 21 22  1  0
 22 23  1  0
 23 24  2  0
 25 24  1  0
 26 25  2  0
 27 22  2  0
 27 26  1  0
 28 29  1  0
 30 28  2  0
M  END
$$$$
