LTW.pdb
     RDKit          3D

 30 31  0  0  1  0  0  0  0  0999 V2000
   10.1295  -21.8904    1.0820 C   0  0  0  0  0  0  0  0  0  0  0  0
   11.3837  -21.0713    1.0022 C   0  0  1  0  0  0  0  0  0  0  0  0
   11.1529  -19.8530    0.1673 C   0  0  0  0  0  0  0  0  0  0  0  0
   12.0057  -20.7908    2.3264 C   0  0  0  0  0  0  0  0  0  0  0  0
   13.2795  -19.9824    2.2252 C   0  0  2  0  0  0  0  0  0  0  0  0
   14.2816  -20.8242    1.6007 N   0  0  0  0  0  0  0  0  0  0  0  0
   13.7315  -19.5105    3.5596 C   0  0  0  0  0  0  0  0  0  0  0  0
   12.9367  -18.8210    4.2865 O   0  0  0  0  0  0  0  0  0  0  0  0
   14.9390  -21.6309    6.2554 C   0  0  0  0  0  0  0  0  0  0  0  0
   16.0132  -20.5762    6.1292 C   0  0  1  0  0  0  0  0  0  0  0  0
   16.9673  -21.1081    5.2427 O   0  0  0  0  0  0  0  0  0  0  0  0
   15.4296  -19.3502    5.4387 C   0  0  2  0  0  0  0  0  0  0  0  0
   14.9978  -19.7739    4.0904 N   0  0  0  0  0  0  0  0  0  0  0  0
   16.3407  -18.2125    5.3350 C   0  0  0  0  0  0  0  0  0  0  0  0
   16.3815  -17.5855    4.2077 O   0  0  0  0  0  0  0  0  0  0  0  0
   17.2002  -17.6873    6.3166 N   0  0  0  0  0  0  0  0  0  0  0  0
   17.9996  -16.4678    6.1439 C   0  0  1  0  0  0  0  0  0  0  0  0
   17.1467  -15.3241    5.7401 C   0  0  0  0  0  0  0  0  0  0  0  0
   17.8480  -14.0902    5.4003 C   0  0  0  0  0  0  0  0  0  0  0  0
   17.6460  -13.3398    4.2605 C   0  0  0  0  0  0  0  0  0  0  0  0
   18.4959  -12.2916    4.2706 N   0  0  0  0  0  0  0  0  0  0  0  0
   19.2601  -12.3234    5.3903 C   0  0  0  0  0  0  0  0  0  0  0  0
   20.2377  -11.4708    5.8383 C   0  0  0  0  0  0  0  0  0  0  0  0
   20.8594  -11.7293    7.0539 C   0  0  0  0  0  0  0  0  0  0  0  0
   20.4652  -12.8412    7.7660 C   0  0  0  0  0  0  0  0  0  0  0  0
   19.4899  -13.6923    7.3179 C   0  0  0  0  0  0  0  0  0  0  0  0
   18.8476  -13.4573    6.0974 C   0  0  0  0  0  0  0  0  0  0  0  0
   18.8919  -16.1839    7.2422 C   0  0  0  0  0  0  0  0  0  0  0  0
   20.2838  -16.0982    7.0657 O   0  0  0  0  0  0  0  0  0  0  0  0
   18.4921  -15.9976    8.4089 O   0  0  0  0  0  0  0  0  0  0  0  0
  2  1  1  1
  3  2  1  0
  4  2  1  0
  5  4  1  0
  5  6  1  1
  7  8  2  0
  7  5  1  0
 10  9  1  6
 10 12  1  0
 11 10  1  0
 12 13  1  6
 13  7  1  0
 14 12  1  0
 14 16  1  0
 15 14  2  0
 17 16  1  0
 17 28  1  0
 18 19  1  0
 17 18  1  1
 19 27  1  0
 20 19  2  0
 20 21  1  0
 21 22  1  0
 22 23  1  0
 23 24  2  0
 25 24  1  0
 26 25  2  0
 27 22  2  0
 27 26  1  0
 28 29  1  0
 30 28  2  0
M  END
$$$$
