GWA.pdb
     RDKit          3D

 24 25  0  0  1  0  0  0  0  0999 V2000
    6.8252  -16.3266   19.3755 N   0  0  0  0  0  0  0  0  0  0  0  0
    6.8844  -16.8041   20.7284 C   0  0  0  0  0  0  0  0  0  0  0  0
    7.9840  -16.1764   21.5038 C   0  0  0  0  0  0  0  0  0  0  0  0
    8.7887  -15.3972   20.9370 O   0  0  0  0  0  0  0  0  0  0  0  0
    8.1780  -16.4180   22.8890 N   0  0  0  0  0  0  0  0  0  0  0  0
    9.1257  -15.7169   23.7263 C   0  0  1  0  0  0  0  0  0  0  0  0
    8.7934  -15.6605   25.1656 C   0  0  0  0  0  0  0  0  0  0  0  0
    7.5427  -15.0047   25.5433 C   0  0  0  0  0  0  0  0  0  0  0  0
    6.2805  -15.4898   25.7556 C   0  0  0  0  0  0  0  0  0  0  0  0
    5.4999  -14.4499   26.0783 N   0  0  0  0  0  0  0  0  0  0  0  0
    6.2009  -13.3243   26.0827 C   0  0  0  0  0  0  0  0  0  0  0  0
    5.8233  -12.0152   26.3528 C   0  0  0  0  0  0  0  0  0  0  0  0
    6.7889  -11.0355   26.2763 C   0  0  0  0  0  0  0  0  0  0  0  0
    8.0883  -11.3216   25.9456 C   0  0  0  0  0  0  0  0  0  0  0  0
    8.4505  -12.6146   25.6812 C   0  0  0  0  0  0  0  0  0  0  0  0
    7.4930  -13.6275   25.7511 C   0  0  0  0  0  0  0  0  0  0  0  0
   10.3936  -16.5435   23.6316 C   0  0  0  0  0  0  0  0  0  0  0  0
   10.2516  -17.8019   23.7672 O   0  0  0  0  0  0  0  0  0  0  0  0
   13.9258  -16.1922   22.4738 C   0  0  0  0  0  0  0  0  0  0  0  0
   12.8042  -16.8890   23.1729 C   0  0  2  0  0  0  0  0  0  0  0  0
   11.6622  -16.0026   23.4106 N   0  0  0  0  0  0  0  0  0  0  0  0
   13.3209  -17.4016   24.4642 C   0  0  0  0  0  0  0  0  0  0  0  0
   12.7042  -16.9793   25.6354 O   0  0  0  0  0  0  0  0  0  0  0  0
   14.2764  -18.1839   24.4720 O   0  0  0  0  0  0  0  0  0  0  0  0
  1  2  1  0
  3  4  2  0
  3  2  1  0
  5  3  1  0
  6  5  1  0
  6  7  1  1
  8  7  1  0
  8 16  1  0
  9  8  2  0
 10  9  1  0
 10 11  1  0
 11 12  1  0
 11 16  2  0
 12 13  2  0
 13 14  1  0
 15 14  2  0
 16 15  1  0
 17  6  1  0
 18 17  2  0
 20 19  1  1
 20 22  1  0
 20 21  1  0
 21 17  1  0
 22 23  1  0
 24 22  2  0
M  END
$$$$
