GWA.pdb
     RDKit          3D

 24 25  0  0  1  0  0  0  0  0999 V2000
    7.0748  -18.8838   18.9489 N   0  0  0  0  0  0  0  0  0  0  0  0
    6.8939  -18.3790   20.2809 C   0  0  0  0  0  0  0  0  0  0  0  0
    7.8830  -17.3276   20.6282 C   0  0  0  0  0  0  0  0  0  0  0  0
    8.8684  -17.1183   19.8791 O   0  0  0  0  0  0  0  0  0  0  0  0
    7.7695  -16.5256   21.7939 N   0  0  0  0  0  0  0  0  0  0  0  0
    8.6899  -15.4752   22.1682 C   0  0  1  0  0  0  0  0  0  0  0  0
    8.0845  -14.2867   22.8055 C   0  0  0  0  0  0  0  0  0  0  0  0
    7.4023  -14.4813   24.0836 C   0  0  0  0  0  0  0  0  0  0  0  0
    6.7806  -15.5689   24.6351 C   0  0  0  0  0  0  0  0  0  0  0  0
    6.3139  -15.1988   25.8351 N   0  0  0  0  0  0  0  0  0  0  0  0
    6.6067  -13.9284   26.0778 C   0  0  0  0  0  0  0  0  0  0  0  0
    6.3307  -13.1218   27.1742 C   0  0  0  0  0  0  0  0  0  0  0  0
    6.7683  -11.8158   27.1420 C   0  0  0  0  0  0  0  0  0  0  0  0
    7.4566  -11.3075   26.0708 C   0  0  0  0  0  0  0  0  0  0  0  0
    7.7236  -12.1102   24.9950 C   0  0  0  0  0  0  0  0  0  0  0  0
    7.2922  -13.4375   25.0005 C   0  0  0  0  0  0  0  0  0  0  0  0
    9.5678  -16.1065   23.2315 C   0  0  0  0  0  0  0  0  0  0  0  0
    9.0299  -17.0303   23.9239 O   0  0  0  0  0  0  0  0  0  0  0  0
   13.2529  -16.3843   23.6549 C   0  0  0  0  0  0  0  0  0  0  0  0
   11.8398  -16.7055   24.0188 C   0  0  2  0  0  0  0  0  0  0  0  0
   10.8911  -15.7312   23.4738 N   0  0  0  0  0  0  0  0  0  0  0  0
   11.7443  -16.7280   25.4979 C   0  0  0  0  0  0  0  0  0  0  0  0
   10.8545  -15.8571   26.1145 O   0  0  0  0  0  0  0  0  0  0  0  0
   12.4485  -17.5109   26.1431 O   0  0  0  0  0  0  0  0  0  0  0  0
  1  2  1  0
  3  4  2  0
  3  2  1  0
  5  3  1  0
  6  5  1  0
  6  7  1  1
  8  7  1  0
  8 16  1  0
  9  8  2  0
 10  9  1  0
 10 11  1  0
 11 12  1  0
 11 16  2  0
 12 13  2  0
 13 14  1  0
 15 14  2  0
 16 15  1  0
 17  6  1  0
 18 17  2  0
 20 19  1  1
 20 22  1  0
 20 21  1  0
 21 17  1  0
 22 23  1  0
 24 22  2  0
M  END
$$$$
