GWA.pdb
     RDKit          3D

 24 25  0  0  1  0  0  0  0  0999 V2000
    6.0868  -16.4294   19.6323 N   0  0  0  0  0  0  0  0  0  0  0  0
    6.5269  -17.0971   20.8249 C   0  0  0  0  0  0  0  0  0  0  0  0
    7.6021  -16.3526   21.5277 C   0  0  0  0  0  0  0  0  0  0  0  0
    8.1905  -15.4043   20.9528 O   0  0  0  0  0  0  0  0  0  0  0  0
    8.0105  -16.6656   22.8506 N   0  0  0  0  0  0  0  0  0  0  0  0
    9.0274  -15.9545   23.5927 C   0  0  1  0  0  0  0  0  0  0  0  0
    8.7965  -15.8353   25.0479 C   0  0  0  0  0  0  0  0  0  0  0  0
    7.5839  -15.1447   25.4835 C   0  0  0  0  0  0  0  0  0  0  0  0
    6.3107  -15.5880   25.7201 C   0  0  0  0  0  0  0  0  0  0  0  0
    5.5810  -14.5299   26.0976 N   0  0  0  0  0  0  0  0  0  0  0  0
    6.3249  -13.4322   26.1140 C   0  0  0  0  0  0  0  0  0  0  0  0
    6.0065  -12.1189   26.4346 C   0  0  0  0  0  0  0  0  0  0  0  0
    7.0066  -11.1744   26.3576 C   0  0  0  0  0  0  0  0  0  0  0  0
    8.2835  -11.4991   25.9786 C   0  0  0  0  0  0  0  0  0  0  0  0
    8.5873  -12.7960   25.6646 C   0  0  0  0  0  0  0  0  0  0  0  0
    7.5938  -13.7737   25.7338 C   0  0  0  0  0  0  0  0  0  0  0  0
   10.2692  -16.8123   23.4448 C   0  0  0  0  0  0  0  0  0  0  0  0
   10.0983  -18.0685   23.5679 O   0  0  0  0  0  0  0  0  0  0  0  0
   13.7761  -16.5848   22.2024 C   0  0  0  0  0  0  0  0  0  0  0  0
   12.6706  -17.2154   22.9850 C   0  0  2  0  0  0  0  0  0  0  0  0
   11.5438  -16.3017   23.1893 N   0  0  0  0  0  0  0  0  0  0  0  0
   13.2222  -17.6352   24.2953 C   0  0  0  0  0  0  0  0  0  0  0  0
   14.2461  -18.5742   24.3092 O   0  0  0  0  0  0  0  0  0  0  0  0
   12.7661  -17.1474   25.3340 O   0  0  0  0  0  0  0  0  0  0  0  0
  1  2  1  0
  3  4  2  0
  3  2  1  0
  5  3  1  0
  6  5  1  0
  6  7  1  1
  8  7  1  0
  8 16  1  0
  9  8  2  0
 10  9  1  0
 10 11  1  0
 11 12  1  0
 11 16  2  0
 12 13  2  0
 13 14  1  0
 15 14  2  0
 16 15  1  0
 17  6  1  0
 18 17  2  0
 20 19  1  6
 20 22  1  0
 20 21  1  0
 21 17  1  0
 22 23  1  0
 24 22  2  0
M  END
$$$$
