GWA.pdb
     RDKit          3D

 24 25  0  0  1  0  0  0  0  0999 V2000
    6.3648  -15.9938   19.4622 N   0  0  0  0  0  0  0  0  0  0  0  0
    6.6579  -16.6520   20.7042 C   0  0  0  0  0  0  0  0  0  0  0  0
    7.7756  -16.0066   21.4381 C   0  0  0  0  0  0  0  0  0  0  0  0
    8.4137  -15.0632   20.9101 O   0  0  0  0  0  0  0  0  0  0  0  0
    8.1709  -16.4116   22.7399 N   0  0  0  0  0  0  0  0  0  0  0  0
    9.1496  -15.7297   23.5570 C   0  0  1  0  0  0  0  0  0  0  0  0
    8.8576  -15.6825   25.0053 C   0  0  0  0  0  0  0  0  0  0  0  0
    7.6083  -15.0470   25.4205 C   0  0  0  0  0  0  0  0  0  0  0  0
    6.3423  -15.5383   25.5921 C   0  0  0  0  0  0  0  0  0  0  0  0
    5.5654  -14.5187   25.9814 N   0  0  0  0  0  0  0  0  0  0  0  0
    6.2724  -13.4000   26.0671 C   0  0  0  0  0  0  0  0  0  0  0  0
    5.9002  -12.1105   26.4246 C   0  0  0  0  0  0  0  0  0  0  0  0
    6.8715  -11.1334   26.4209 C   0  0  0  0  0  0  0  0  0  0  0  0
    8.1712  -11.4036   26.0784 C   0  0  0  0  0  0  0  0  0  0  0  0
    8.5280  -12.6773   25.7275 C   0  0  0  0  0  0  0  0  0  0  0  0
    7.5647  -13.6871   25.7223 C   0  0  0  0  0  0  0  0  0  0  0  0
   10.4043  -16.5704   23.4202 C   0  0  0  0  0  0  0  0  0  0  0  0
   10.2521  -17.8275   23.5572 O   0  0  0  0  0  0  0  0  0  0  0  0
   13.9259  -16.2957   22.2162 C   0  0  0  0  0  0  0  0  0  0  0  0
   12.8137  -16.9422   22.9761 C   0  0  2  0  0  0  0  0  0  0  0  0
   11.6715  -16.0436   23.1603 N   0  0  0  0  0  0  0  0  0  0  0  0
   13.3453  -17.3577   24.2960 C   0  0  0  0  0  0  0  0  0  0  0  0
   14.4488  -18.2013   24.3263 O   0  0  0  0  0  0  0  0  0  0  0  0
   12.8034  -16.9500   25.3280 O   0  0  0  0  0  0  0  0  0  0  0  0
  1  2  1  0
  3  4  2  0
  3  2  1  0
  5  3  1  0
  6  5  1  0
  6  7  1  1
  8  7  1  0
  8 16  1  0
  9  8  2  0
 10  9  1  0
 10 11  1  0
 11 12  1  0
 11 16  2  0
 12 13  2  0
 13 14  1  0
 15 14  2  0
 16 15  1  0
 17  6  1  0
 18 17  2  0
 20 19  1  6
 20 22  1  0
 20 21  1  0
 21 17  1  0
 22 23  1  0
 24 22  2  0
M  END
$$$$
