CCE.pdb
     RDKit          3D

 22 21  0  0  1  0  0  0  0  0999 V2000
    8.9366  -14.1829   18.5338 N   0  0  0  0  0  0  0  0  0  0  0  0
    9.9589  -14.4657   19.4907 C   0  0  1  0  0  0  0  0  0  0  0  0
   10.6289  -13.1887   19.9218 C   0  0  0  0  0  0  0  0  0  0  0  0
   12.1130  -12.9671   18.8787 S   0  0  0  0  0  0  0  0  0  0  0  0
    9.4849  -15.2734   20.6362 C   0  0  0  0  0  0  0  0  0  0  0  0
    8.2577  -15.2642   20.9106 O   0  0  0  0  0  0  0  0  0  0  0  0
   10.3260  -16.0659   21.4556 N   0  0  0  0  0  0  0  0  0  0  0  0
    9.8522  -16.8542   22.5741 C   0  0  1  0  0  0  0  0  0  0  0  0
    9.2429  -18.1632   22.1234 C   0  0  0  0  0  0  0  0  0  0  0  0
    9.2113  -19.2741   23.5571 S   0  0  0  0  0  0  0  0  0  0  0  0
   10.9061  -17.1493   23.5526 C   0  0  0  0  0  0  0  0  0  0  0  0
   12.0170  -17.6564   23.2645 O   0  0  0  0  0  0  0  0  0  0  0  0
   10.6558  -16.8417   24.9182 N   0  0  0  0  0  0  0  0  0  0  0  0
   11.6583  -17.0068   25.9523 C   0  0  1  0  0  0  0  0  0  0  0  0
   11.1339  -16.4409   27.2558 C   0  0  0  0  0  0  0  0  0  0  0  0
   10.5047  -15.0698   27.0370 C   0  0  0  0  0  0  0  0  0  0  0  0
   10.0180  -14.6131   28.3869 C   0  0  0  0  0  0  0  0  0  0  0  0
   10.1307  -15.2922   29.4170 O   0  0  0  0  0  0  0  0  0  0  0  0
   11.8702  -18.4632   26.1592 C   0  0  0  0  0  0  0  0  0  0  0  0
   11.1418  -19.3466   25.6401 O   0  0  0  0  0  0  0  0  0  0  0  0
    9.4161  -13.3617   28.4487 O   0  0  0  0  0  0  0  0  0  0  0  0
   12.9195  -18.9223   26.9637 O   0  0  0  0  0  0  0  0  0  0  0  0
  2  1  1  6
  2  5  1  0
  3  2  1  0
  4  3  1  0
  5  6  2  0
  7  5  1  0
  7  8  1  0
  8 11  1  0
  8  9  1  6
 10  9  1  0
 11 13  1  0
 11 12  2  0
 13 14  1  0
 14 15  1  1
 15 16  1  0
 17 16  1  0
 18 17  2  0
 19 14  1  0
 19 22  1  0
 20 19  2  0
 21 17  1  0
M  END
$$$$
