CCE.pdb
     RDKit          3D

 22 21  0  0  1  0  0  0  0  0999 V2000
    8.1255  -13.6178   17.1974 N   0  0  0  0  0  0  0  0  0  0  0  0
    7.8934  -14.7314   18.0613 C   0  0  1  0  0  0  0  0  0  0  0  0
    8.4115  -15.9936   17.4257 C   0  0  0  0  0  0  0  0  0  0  0  0
    6.9970  -16.8241   16.6199 S   0  0  0  0  0  0  0  0  0  0  0  0
    8.4134  -14.5307   19.4319 C   0  0  0  0  0  0  0  0  0  0  0  0
    9.5410  -13.9922   19.5736 O   0  0  0  0  0  0  0  0  0  0  0  0
    7.7226  -14.9069   20.6101 N   0  0  0  0  0  0  0  0  0  0  0  0
    8.2180  -14.6623   21.9486 C   0  0  1  0  0  0  0  0  0  0  0  0
    7.0955  -14.3803   22.9225 C   0  0  0  0  0  0  0  0  0  0  0  0
    7.8434  -14.0852   24.5486 S   0  0  0  0  0  0  0  0  0  0  0  0
    9.0159  -15.7763   22.4754 C   0  0  0  0  0  0  0  0  0  0  0  0
    8.6519  -16.9770   22.4591 O   0  0  0  0  0  0  0  0  0  0  0  0
   10.2859  -15.4798   23.0422 N   0  0  0  0  0  0  0  0  0  0  0  0
   11.1832  -16.5090   23.5292 C   0  0  1  0  0  0  0  0  0  0  0  0
   12.6018  -15.9778   23.5347 C   0  0  0  0  0  0  0  0  0  0  0  0
   13.5844  -17.0527   23.0845 C   0  0  0  0  0  0  0  0  0  0  0  0
   14.9393  -16.3959   23.0586 C   0  0  0  0  0  0  0  0  0  0  0  0
   15.1031  -15.1791   22.8934 O   0  0  0  0  0  0  0  0  0  0  0  0
   10.8200  -16.8064   24.9394 C   0  0  0  0  0  0  0  0  0  0  0  0
   10.2821  -15.9667   25.7047 O   0  0  0  0  0  0  0  0  0  0  0  0
   16.0431  -17.2228   23.2314 O   0  0  0  0  0  0  0  0  0  0  0  0
   11.0697  -18.0700   25.4870 O   0  0  0  0  0  0  0  0  0  0  0  0
  2  1  1  6
  2  5  1  0
  3  2  1  0
  4  3  1  0
  5  6  2  0
  7  5  1  0
  7  8  1  0
  8 11  1  0
  8  9  1  1
 10  9  1  0
 11 13  1  0
 11 12  2  0
 13 14  1  0
 14 15  1  1
 15 16  1  0
 17 16  1  0
 18 17  2  0
 19 14  1  0
 19 22  1  0
 20 19  2  0
 21 17  1  0
M  END
$$$$
