CCE.pdb
     RDKit          3D

 22 21  0  0  1  0  0  0  0  0999 V2000
    9.1023  -14.9880   20.0581 N   0  0  0  0  0  0  0  0  0  0  0  0
    8.0934  -15.2980   21.0207 C   0  0  1  0  0  0  0  0  0  0  0  0
    7.6910  -16.7432   20.8984 C   0  0  0  0  0  0  0  0  0  0  0  0
    6.5612  -17.1186   22.2848 S   0  0  0  0  0  0  0  0  0  0  0  0
    8.4663  -14.9272   22.4037 C   0  0  0  0  0  0  0  0  0  0  0  0
    9.5985  -15.2677   22.8321 O   0  0  0  0  0  0  0  0  0  0  0  0
    7.6280  -14.2070   23.2899 N   0  0  0  0  0  0  0  0  0  0  0  0
    7.9577  -13.9405   24.6746 C   0  0  1  0  0  0  0  0  0  0  0  0
    6.9011  -13.0977   25.3535 C   0  0  0  0  0  0  0  0  0  0  0  0
    7.4629  -12.7768   27.0483 S   0  0  0  0  0  0  0  0  0  0  0  0
    8.1475  -15.1643   25.4628 C   0  0  0  0  0  0  0  0  0  0  0  0
    7.3601  -16.1412   25.4533 O   0  0  0  0  0  0  0  0  0  0  0  0
    9.2984  -15.2531   26.2933 N   0  0  0  0  0  0  0  0  0  0  0  0
    9.6746  -16.4738   26.9786 C   0  0  1  0  0  0  0  0  0  0  0  0
   10.8038  -17.1459   26.2252 C   0  0  0  0  0  0  0  0  0  0  0  0
   11.3046  -18.3718   26.9802 C   0  0  0  0  0  0  0  0  0  0  0  0
   12.3895  -18.9739   26.1269 C   0  0  0  0  0  0  0  0  0  0  0  0
   13.5892  -18.9527   26.4355 O   0  0  0  0  0  0  0  0  0  0  0  0
   10.1993  -16.1056   28.3196 C   0  0  0  0  0  0  0  0  0  0  0  0
   10.5195  -16.9529   29.1912 O   0  0  0  0  0  0  0  0  0  0  0  0
   11.9940  -19.5770   24.9387 O   0  0  0  0  0  0  0  0  0  0  0  0
   10.3622  -14.7618   28.6754 O   0  0  0  0  0  0  0  0  0  0  0  0
  2  1  1  6
  2  5  1  0
  3  2  1  0
  4  3  1  0
  5  6  2  0
  7  5  1  0
  7  8  1  0
  8 11  1  0
  8  9  1  1
 10  9  1  0
 11 13  1  0
 11 12  2  0
 13 14  1  0
 14 15  1  6
 15 16  1  0
 17 16  1  0
 18 17  2  0
 19 14  1  0
 19 22  1  0
 20 19  2  0
 21 17  1  0
M  END
$$$$
