CCE.pdb
     RDKit          3D

 22 21  0  0  1  0  0  0  0  0999 V2000
    7.7571  -12.6482   20.0056 N   0  0  0  0  0  0  0  0  0  0  0  0
    7.2261  -13.5934   20.9356 C   0  0  1  0  0  0  0  0  0  0  0  0
    7.1473  -14.9548   20.2985 C   0  0  0  0  0  0  0  0  0  0  0  0
    5.8665  -14.8795   18.9970 S   0  0  0  0  0  0  0  0  0  0  0  0
    7.9437  -13.6124   22.2294 C   0  0  0  0  0  0  0  0  0  0  0  0
    9.1937  -13.4745   22.2248 O   0  0  0  0  0  0  0  0  0  0  0  0
    7.3147  -13.7768   23.4880 N   0  0  0  0  0  0  0  0  0  0  0  0
    8.0338  -13.9608   24.7313 C   0  0  1  0  0  0  0  0  0  0  0  0
    7.2274  -13.4953   25.9233 C   0  0  0  0  0  0  0  0  0  0  0  0
    5.5055  -13.9950   25.6476 S   0  0  0  0  0  0  0  0  0  0  0  0
    8.4319  -15.3552   24.9605 C   0  0  0  0  0  0  0  0  0  0  0  0
    7.6934  -16.3463   24.7448 O   0  0  0  0  0  0  0  0  0  0  0  0
    9.7400  -15.6037   25.4598 N   0  0  0  0  0  0  0  0  0  0  0  0
   10.2226  -16.9383   25.7552 C   0  0  1  0  0  0  0  0  0  0  0  0
   11.7068  -17.0127   25.4618 C   0  0  0  0  0  0  0  0  0  0  0  0
   11.9638  -16.9914   23.9594 C   0  0  0  0  0  0  0  0  0  0  0  0
   13.4534  -16.8476   23.7922 C   0  0  0  0  0  0  0  0  0  0  0  0
   14.2375  -17.8064   23.8199 O   0  0  0  0  0  0  0  0  0  0  0  0
   10.0502  -17.1780   27.2118 C   0  0  0  0  0  0  0  0  0  0  0  0
    9.7528  -16.2706   28.0295 O   0  0  0  0  0  0  0  0  0  0  0  0
   13.9438  -15.5615   23.5985 O   0  0  0  0  0  0  0  0  0  0  0  0
   10.2170  -18.4607   27.7464 O   0  0  0  0  0  0  0  0  0  0  0  0
  2  1  1  6
  2  5  1  0
  3  2  1  0
  4  3  1  0
  5  6  2  0
  7  5  1  0
  7  8  1  0
  8 11  1  0
  8  9  1  1
 10  9  1  0
 11 13  1  0
 11 12  2  0
 13 14  1  0
 14 15  1  1
 15 16  1  0
 17 16  1  0
 18 17  2  0
 19 14  1  0
 19 22  1  0
 20 19  2  0
 21 17  1  0
M  END
$$$$
