CCE.pdb
     RDKit          3D

 22 21  0  0  1  0  0  0  0  0999 V2000
   -3.6248  -24.9507   28.4838 N   0  0  0  0  0  0  0  0  0  0  0  0
   -3.8210  -23.7770   29.2740 C   0  0  1  0  0  0  0  0  0  0  0  0
   -2.5679  -22.9432   29.2783 C   0  0  0  0  0  0  0  0  0  0  0  0
   -1.3471  -23.7906   30.3418 S   0  0  0  0  0  0  0  0  0  0  0  0
   -5.0190  -23.0003   28.8858 C   0  0  0  0  0  0  0  0  0  0  0  0
   -5.3384  -22.0018   29.5804 O   0  0  0  0  0  0  0  0  0  0  0  0
   -5.8415  -23.3055   27.7735 N   0  0  0  0  0  0  0  0  0  0  0  0
   -7.0847  -22.6241   27.4784 C   0  0  1  0  0  0  0  0  0  0  0  0
   -7.1784  -22.2276   26.0218 C   0  0  0  0  0  0  0  0  0  0  0  0
   -5.9019  -20.9764   25.7123 S   0  0  0  0  0  0  0  0  0  0  0  0
   -8.2689  -23.4238   27.8153 C   0  0  0  0  0  0  0  0  0  0  0  0
   -8.3967  -24.6440   27.5524 O   0  0  0  0  0  0  0  0  0  0  0  0
   -9.3444  -22.7771   28.4839 N   0  0  0  0  0  0  0  0  0  0  0  0
  -10.5057  -23.4951   28.9712 C   0  0  1  0  0  0  0  0  0  0  0  0
  -10.4866  -23.5133   30.4857 C   0  0  0  0  0  0  0  0  0  0  0  0
  -11.7283  -24.2062   31.0348 C   0  0  0  0  0  0  0  0  0  0  0  0
  -11.5262  -24.3080   32.5236 C   0  0  0  0  0  0  0  0  0  0  0  0
  -11.7271  -23.3670   33.3040 O   0  0  0  0  0  0  0  0  0  0  0  0
  -11.7189  -22.7434   28.5562 C   0  0  0  0  0  0  0  0  0  0  0  0
  -11.7317  -21.4991   28.3778 O   0  0  0  0  0  0  0  0  0  0  0  0
  -11.0917  -25.5325   33.0176 O   0  0  0  0  0  0  0  0  0  0  0  0
  -12.9303  -23.4107   28.3413 O   0  0  0  0  0  0  0  0  0  0  0  0
  2  1  1  6
  2  5  1  0
  3  2  1  0
  4  3  1  0
  5  6  2  0
  7  5  1  0
  7  8  1  0
  8 11  1  0
  8  9  1  6
 10  9  1  0
 11 13  1  0
 11 12  2  0
 13 14  1  0
 14 15  1  1
 15 16  1  0
 17 16  1  0
 18 17  2  0
 19 14  1  0
 19 22  1  0
 20 19  2  0
 21 17  1  0
M  END
$$$$
