CCE.pdb
     RDKit          3D

 22 21  0  0  1  0  0  0  0  0999 V2000
    8.3328  -12.7893   18.6477 N   0  0  0  0  0  0  0  0  0  0  0  0
    7.8656  -13.9336   19.3639 C   0  0  1  0  0  0  0  0  0  0  0  0
    8.2040  -15.1894   18.6063 C   0  0  0  0  0  0  0  0  0  0  0  0
    6.9502  -15.3938   17.2926 S   0  0  0  0  0  0  0  0  0  0  0  0
    8.3265  -13.9762   20.7693 C   0  0  0  0  0  0  0  0  0  0  0  0
    9.5551  -13.8434   21.0026 O   0  0  0  0  0  0  0  0  0  0  0  0
    7.4714  -14.1584   21.8839 N   0  0  0  0  0  0  0  0  0  0  0  0
    7.9417  -14.3133   23.2447 C   0  0  1  0  0  0  0  0  0  0  0  0
    6.8047  -14.2787   24.2416 C   0  0  0  0  0  0  0  0  0  0  0  0
    7.5219  -14.4751   25.8962 S   0  0  0  0  0  0  0  0  0  0  0  0
    8.6973  -15.5550   23.4505 C   0  0  0  0  0  0  0  0  0  0  0  0
    8.2429  -16.7040   23.2326 O   0  0  0  0  0  0  0  0  0  0  0  0
   10.0329  -15.4536   23.9282 N   0  0  0  0  0  0  0  0  0  0  0  0
   10.8962  -16.6078   24.0841 C   0  0  1  0  0  0  0  0  0  0  0  0
   12.3428  -16.1586   24.0743 C   0  0  0  0  0  0  0  0  0  0  0  0
   13.2781  -17.3393   24.3082 C   0  0  0  0  0  0  0  0  0  0  0  0
   14.5488  -17.0192   23.5662 C   0  0  0  0  0  0  0  0  0  0  0  0
   15.4214  -16.2581   24.0069 O   0  0  0  0  0  0  0  0  0  0  0  0
   10.6303  -17.2041   25.4192 C   0  0  0  0  0  0  0  0  0  0  0  0
   10.9287  -18.3883   25.7172 O   0  0  0  0  0  0  0  0  0  0  0  0
   14.7232  -17.6235   22.3267 O   0  0  0  0  0  0  0  0  0  0  0  0
   10.0195  -16.4488   26.4269 O   0  0  0  0  0  0  0  0  0  0  0  0
  2  1  1  6
  2  5  1  0
  3  2  1  0
  4  3  1  0
  5  6  2  0
  7  5  1  0
  7  8  1  0
  8 11  1  0
  8  9  1  1
 10  9  1  0
 11 13  1  0
 11 12  2  0
 13 14  1  0
 14 15  1  1
 15 16  1  0
 17 16  1  0
 18 17  2  0
 19 14  1  0
 19 22  1  0
 20 19  2  0
 21 17  1  0
M  END
$$$$
