CCE.pdb
     RDKit          3D

 22 21  0  0  1  0  0  0  0  0999 V2000
    8.2784  -18.6547   19.0672 N   0  0  0  0  0  0  0  0  0  0  0  0
    8.9859  -17.4564   18.7451 C   0  0  1  0  0  0  0  0  0  0  0  0
    8.1777  -16.6223   17.7876 C   0  0  0  0  0  0  0  0  0  0  0  0
    6.4958  -16.4606   18.4837 S   0  0  0  0  0  0  0  0  0  0  0  0
    9.4220  -16.6930   19.9351 C   0  0  0  0  0  0  0  0  0  0  0  0
   10.5751  -16.1913   19.9374 O   0  0  0  0  0  0  0  0  0  0  0  0
    8.6226  -16.4847   21.0860 N   0  0  0  0  0  0  0  0  0  0  0  0
    9.0567  -15.7317   22.2442 C   0  0  1  0  0  0  0  0  0  0  0  0
    7.8870  -15.1899   23.0353 C   0  0  0  0  0  0  0  0  0  0  0  0
    8.4890  -14.7939   24.7001 S   0  0  0  0  0  0  0  0  0  0  0  0
    9.9029  -16.5161   23.1519 C   0  0  0  0  0  0  0  0  0  0  0  0
    9.5875  -17.6355   23.6227 O   0  0  0  0  0  0  0  0  0  0  0  0
   11.1643  -15.9755   23.5246 N   0  0  0  0  0  0  0  0  0  0  0  0
   12.2701  -16.8040   23.9632 C   0  0  1  0  0  0  0  0  0  0  0  0
   13.5776  -16.1322   23.5975 C   0  0  0  0  0  0  0  0  0  0  0  0
   14.7630  -17.0152   23.9703 C   0  0  0  0  0  0  0  0  0  0  0  0
   15.9910  -16.2956   23.4786 C   0  0  0  0  0  0  0  0  0  0  0  0
   16.1353  -15.9167   22.3079 O   0  0  0  0  0  0  0  0  0  0  0  0
   12.2203  -16.8903   25.4461 C   0  0  0  0  0  0  0  0  0  0  0  0
   11.5975  -16.0676   26.1642 O   0  0  0  0  0  0  0  0  0  0  0  0
   16.9966  -16.0588   24.4086 O   0  0  0  0  0  0  0  0  0  0  0  0
   12.8840  -17.9210   26.1215 O   0  0  0  0  0  0  0  0  0  0  0  0
  2  1  1  1
  2  5  1  0
  3  2  1  0
  4  3  1  0
  5  6  2  0
  7  5  1  0
  7  8  1  0
  8 11  1  0
  8  9  1  1
 10  9  1  0
 11 13  1  0
 11 12  2  0
 13 14  1  0
 14 15  1  1
 15 16  1  0
 17 16  1  0
 18 17  2  0
 19 14  1  0
 19 22  1  0
 20 19  2  0
 21 17  1  0
M  END
$$$$
