CCE.pdb
     RDKit          3D

 22 21  0  0  1  0  0  0  0  0999 V2000
    8.3750  -15.1530   19.8479 N   0  0  0  0  0  0  0  0  0  0  0  0
    7.6847  -15.5510   21.0335 C   0  0  1  0  0  0  0  0  0  0  0  0
    7.5370  -17.0486   21.0657 C   0  0  0  0  0  0  0  0  0  0  0  0
    6.0235  -17.4719   20.1330 S   0  0  0  0  0  0  0  0  0  0  0  0
    8.2868  -15.0127   22.2733 C   0  0  0  0  0  0  0  0  0  0  0  0
    9.5402  -14.9478   22.3531 O   0  0  0  0  0  0  0  0  0  0  0  0
    7.5422  -14.5599   23.3901 N   0  0  0  0  0  0  0  0  0  0  0  0
    8.1375  -14.1602   24.6482 C   0  0  1  0  0  0  0  0  0  0  0  0
    7.1111  -13.5907   25.6020 C   0  0  0  0  0  0  0  0  0  0  0  0
    7.9888  -13.0645   27.0998 S   0  0  0  0  0  0  0  0  0  0  0  0
    8.8355  -15.2600   25.3254 C   0  0  0  0  0  0  0  0  0  0  0  0
    8.3147  -16.3695   25.5937 O   0  0  0  0  0  0  0  0  0  0  0  0
   10.1915  -15.0590   25.7038 N   0  0  0  0  0  0  0  0  0  0  0  0
   11.0303  -16.1313   26.2017 C   0  0  1  0  0  0  0  0  0  0  0  0
   12.4584  -15.9032   25.7510 C   0  0  0  0  0  0  0  0  0  0  0  0
   13.3737  -17.0046   26.2732 C   0  0  0  0  0  0  0  0  0  0  0  0
   14.7456  -16.6992   25.7326 C   0  0  0  0  0  0  0  0  0  0  0  0
   15.7834  -16.8271   26.3971 O   0  0  0  0  0  0  0  0  0  0  0  0
   11.0231  -16.0693   27.6867 C   0  0  0  0  0  0  0  0  0  0  0  0
   10.7238  -15.0329   28.3321 O   0  0  0  0  0  0  0  0  0  0  0  0
   14.8193  -16.2532   24.4182 O   0  0  0  0  0  0  0  0  0  0  0  0
   11.3591  -17.1951   28.4474 O   0  0  0  0  0  0  0  0  0  0  0  0
  2  1  1  6
  2  5  1  0
  3  2  1  0
  4  3  1  0
  5  6  2  0
  7  5  1  0
  7  8  1  0
  8 11  1  0
  8  9  1  1
 10  9  1  0
 11 13  1  0
 11 12  2  0
 13 14  1  0
 14 15  1  6
 15 16  1  0
 17 16  1  0
 18 17  2  0
 19 14  1  0
 19 22  1  0
 20 19  2  0
 21 17  1  0
M  END
$$$$
