CCE.pdb
     RDKit          3D

 22 21  0  0  1  0  0  0  0  0999 V2000
    7.3339  -16.8462   20.3967 N   0  0  0  0  0  0  0  0  0  0  0  0
    8.2305  -15.7389   20.2946 C   0  0  1  0  0  0  0  0  0  0  0  0
    7.5624  -14.5996   19.5727 C   0  0  0  0  0  0  0  0  0  0  0  0
    6.0344  -14.1896   20.4876 S   0  0  0  0  0  0  0  0  0  0  0  0
    8.8078  -15.3279   21.5935 C   0  0  0  0  0  0  0  0  0  0  0  0
    9.9344  -14.7692   21.6001 O   0  0  0  0  0  0  0  0  0  0  0  0
    8.1734  -15.5217   22.8453 N   0  0  0  0  0  0  0  0  0  0  0  0
    8.8095  -15.2645   24.1204 C   0  0  1  0  0  0  0  0  0  0  0  0
    7.8097  -14.8451   25.1750 C   0  0  0  0  0  0  0  0  0  0  0  0
    6.4713  -16.0696   25.1776 S   0  0  0  0  0  0  0  0  0  0  0  0
    9.5582  -16.4204   24.6292 C   0  0  0  0  0  0  0  0  0  0  0  0
    9.1137  -17.5933   24.6599 O   0  0  0  0  0  0  0  0  0  0  0  0
   10.8745  -16.2008   25.1205 N   0  0  0  0  0  0  0  0  0  0  0  0
   11.7092  -17.2739   25.6237 C   0  0  1  0  0  0  0  0  0  0  0  0
   13.1616  -16.9628   25.3262 C   0  0  0  0  0  0  0  0  0  0  0  0
   13.3584  -16.6602   23.8452 C   0  0  0  0  0  0  0  0  0  0  0  0
   14.8200  -16.3403   23.6747 C   0  0  0  0  0  0  0  0  0  0  0  0
   15.4357  -15.5558   24.4098 O   0  0  0  0  0  0  0  0  0  0  0  0
   11.5629  -17.3159   27.1021 C   0  0  0  0  0  0  0  0  0  0  0  0
   10.9730  -16.4235   27.7623 O   0  0  0  0  0  0  0  0  0  0  0  0
   15.4851  -16.9728   22.6308 O   0  0  0  0  0  0  0  0  0  0  0  0
   12.0914  -18.3818   27.8393 O   0  0  0  0  0  0  0  0  0  0  0  0
  2  1  1  1
  2  5  1  0
  3  2  1  0
  4  3  1  0
  5  6  2  0
  7  5  1  0
  7  8  1  0
  8 11  1  0
  8  9  1  1
 10  9  1  0
 11 13  1  0
 11 12  2  0
 13 14  1  0
 14 15  1  1
 15 16  1  0
 17 16  1  0
 18 17  2  0
 19 14  1  0
 19 22  1  0
 20 19  2  0
 21 17  1  0
M  END
$$$$
