DHV.pdb
     RDKit          3D

 26 26  0  0  1  0  0  0  0  0999 V2000
   16.5291  -11.3510  -17.0617 N   0  0  0  0  0  0  0  0  0  0  0  0
   16.5152   -9.9192  -16.8209 C   0  0  1  0  0  0  0  0  0  0  0  0
   15.4599   -9.5740  -15.7995 C   0  0  0  0  0  0  0  0  0  0  0  0
   14.1124   -9.4763  -16.4001 C   0  0  0  0  0  0  0  0  0  0  0  0
   13.9806   -9.4050  -17.6343 O   0  0  0  0  0  0  0  0  0  0  0  0
   17.8741   -9.5177  -16.3719 C   0  0  0  0  0  0  0  0  0  0  0  0
   18.4429  -10.0926  -15.4004 O   0  0  0  0  0  0  0  0  0  0  0  0
   13.0015   -9.4643  -15.5924 O   0  0  0  0  0  0  0  0  0  0  0  0
   18.6101   -8.4699  -17.0042 N   0  0  0  0  0  0  0  0  0  0  0  0
   19.9427   -8.0717  -16.6291 C   0  0  1  0  0  0  0  0  0  0  0  0
   20.6586   -7.5578  -17.8440 C   0  0  0  0  0  0  0  0  0  0  0  0
   21.2243   -8.6331  -18.6894 C   0  0  0  0  0  0  0  0  0  0  0  0
   21.2764   -9.9828  -18.4758 C   0  0  0  0  0  0  0  0  0  0  0  0
   21.8889  -10.5531  -19.5295 N   0  0  0  0  0  0  0  0  0  0  0  0
   22.2254   -9.6069  -20.4020 C   0  0  0  0  0  0  0  0  0  0  0  0
   21.8160   -8.4427  -19.8802 N   0  0  0  0  0  0  0  0  0  0  0  0
   19.9300   -7.0641  -15.5272 C   0  0  0  0  0  0  0  0  0  0  0  0
   19.1175   -6.1065  -15.5758 O   0  0  0  0  0  0  0  0  0  0  0  0
   22.1536   -7.6663  -11.9064 C   0  0  0  0  0  0  0  0  0  0  0  0
   20.8867   -6.8531  -11.9789 C   0  0  1  0  0  0  0  0  0  0  0  0
   20.8835   -5.9023  -10.8116 C   0  0  0  0  0  0  0  0  0  0  0  0
   20.7440   -6.1993  -13.2974 C   0  0  2  0  0  0  0  0  0  0  0  0
   20.8015   -7.1346  -14.4123 N   0  0  0  0  0  0  0  0  0  0  0  0
   21.8087   -5.1613  -13.4329 C   0  0  0  0  0  0  0  0  0  0  0  0
   22.8272   -5.4093  -14.1080 O   0  0  0  0  0  0  0  0  0  0  0  0
   21.6805   -3.9133  -12.8133 O   0  0  0  0  0  0  0  0  0  0  0  0
  2  1  1  1
  2  3  1  0
  2  6  1  0
  4  8  1  0
  4  3  1  0
  5  4  2  0
  6  7  2  0
  9  6  1  0
  9 10  1  0
 10 11  1  6
 11 12  1  0
 12 13  2  0
 14 13  1  0
 15 14  1  0
 16 15  2  0
 16 12  1  0
 17 10  1  0
 17 18  2  0
 20 19  1  6
 20 22  1  0
 21 20  1  0
 22 23  1  6
 22 24  1  0
 23 17  1  0
 24 26  1  0
 25 24  2  0
M  END
$$$$
