DHV.pdb
     RDKit          3D

 26 26  0  0  1  0  0  0  0  0999 V2000
   24.0722  -20.3018  -17.6203 N   0  0  0  0  0  0  0  0  0  0  0  0
   24.5812  -19.3216  -16.6777 C   0  0  1  0  0  0  0  0  0  0  0  0
   23.4673  -18.4124  -16.2209 C   0  0  0  0  0  0  0  0  0  0  0  0
   23.0619  -17.4547  -17.2719 C   0  0  0  0  0  0  0  0  0  0  0  0
   23.8895  -16.6566  -17.7449 O   0  0  0  0  0  0  0  0  0  0  0  0
   25.1983  -20.0562  -15.5424 C   0  0  0  0  0  0  0  0  0  0  0  0
   24.5704  -20.9643  -14.9268 O   0  0  0  0  0  0  0  0  0  0  0  0
   21.7663  -17.4461  -17.7281 O   0  0  0  0  0  0  0  0  0  0  0  0
   26.5231  -19.7830  -15.0844 N   0  0  0  0  0  0  0  0  0  0  0  0
   27.1180  -20.3784  -13.9153 C   0  0  1  0  0  0  0  0  0  0  0  0
   28.6032  -20.1674  -13.9623 C   0  0  0  0  0  0  0  0  0  0  0  0
   29.3074  -20.6898  -12.7697 C   0  0  0  0  0  0  0  0  0  0  0  0
   28.8145  -21.3459  -11.6758 C   0  0  0  0  0  0  0  0  0  0  0  0
   29.8418  -21.6228  -10.8519 N   0  0  0  0  0  0  0  0  0  0  0  0
   30.9679  -21.1626  -11.3903 C   0  0  0  0  0  0  0  0  0  0  0  0
   30.6304  -20.5969  -12.5571 N   0  0  0  0  0  0  0  0  0  0  0  0
   26.5225  -19.8407  -12.6561 C   0  0  0  0  0  0  0  0  0  0  0  0
   26.5166  -18.5998  -12.4569 O   0  0  0  0  0  0  0  0  0  0  0  0
   23.1277  -20.1340  -11.2837 C   0  0  0  0  0  0  0  0  0  0  0  0
   24.0267  -20.5570  -10.1504 C   0  0  1  0  0  0  0  0  0  0  0  0
   23.8295  -22.0339   -9.9342 C   0  0  0  0  0  0  0  0  0  0  0  0
   25.4287  -20.1600  -10.4013 C   0  0  2  0  0  0  0  0  0  0  0  0
   25.9550  -20.6721  -11.6590 N   0  0  0  0  0  0  0  0  0  0  0  0
   26.2682  -20.6250   -9.2575 C   0  0  0  0  0  0  0  0  0  0  0  0
   27.1359  -21.5002   -9.4472 O   0  0  0  0  0  0  0  0  0  0  0  0
   26.0958  -20.0931   -7.9749 O   0  0  0  0  0  0  0  0  0  0  0  0
  2  1  1  6
  2  3  1  0
  2  6  1  0
  4  8  1  0
  4  3  1  0
  5  4  2  0
  6  7  2  0
  9  6  1  0
  9 10  1  0
 10 11  1  1
 11 12  1  0
 12 13  2  0
 14 13  1  0
 15 14  1  0
 16 15  2  0
 16 12  1  0
 17 10  1  0
 17 18  2  0
 20 19  1  6
 20 22  1  0
 21 20  1  0
 22 23  1  6
 22 24  1  0
 23 17  1  0
 24 26  1  0
 25 24  2  0
M  END
$$$$
