DHV.pdb
     RDKit          3D

 26 26  0  0  1  0  0  0  0  0999 V2000
   16.8978  -14.8485  -17.5560 N   0  0  0  0  0  0  0  0  0  0  0  0
   16.5310  -13.4717  -17.2764 C   0  0  1  0  0  0  0  0  0  0  0  0
   15.9738  -13.3556  -15.8792 C   0  0  0  0  0  0  0  0  0  0  0  0
   14.6955  -14.0827  -15.7258 C   0  0  0  0  0  0  0  0  0  0  0  0
   13.9022  -14.1627  -16.6797 O   0  0  0  0  0  0  0  0  0  0  0  0
   17.7413  -12.6291  -17.4625 C   0  0  0  0  0  0  0  0  0  0  0  0
   18.8813  -13.1449  -17.6420 O   0  0  0  0  0  0  0  0  0  0  0  0
   14.3825  -14.6724  -14.5253 O   0  0  0  0  0  0  0  0  0  0  0  0
   17.6891  -11.2020  -17.4499 N   0  0  0  0  0  0  0  0  0  0  0  0
   18.8115  -10.3449  -17.7338 C   0  0  1  0  0  0  0  0  0  0  0  0
   18.3628   -9.2384  -18.6431 C   0  0  0  0  0  0  0  0  0  0  0  0
   18.2027   -9.6656  -20.0513 C   0  0  0  0  0  0  0  0  0  0  0  0
   19.1482  -10.0033  -20.9797 C   0  0  0  0  0  0  0  0  0  0  0  0
   18.5188  -10.3242  -22.1250 N   0  0  0  0  0  0  0  0  0  0  0  0
   17.2060  -10.2000  -21.9498 C   0  0  0  0  0  0  0  0  0  0  0  0
   17.0254   -9.7987  -20.6842 N   0  0  0  0  0  0  0  0  0  0  0  0
   19.4341   -9.8156  -16.4841 C   0  0  0  0  0  0  0  0  0  0  0  0
   18.6988   -9.4892  -15.5186 O   0  0  0  0  0  0  0  0  0  0  0  0
   23.7442   -9.9168  -15.7500 C   0  0  0  0  0  0  0  0  0  0  0  0
   22.6431  -10.1200  -14.7412 C   0  0  1  0  0  0  0  0  0  0  0  0
   23.2197   -9.8652  -13.3739 C   0  0  0  0  0  0  0  0  0  0  0  0
   21.4593   -9.2958  -15.0661 C   0  0  2  0  0  0  0  0  0  0  0  0
   20.8340   -9.6606  -16.3298 N   0  0  0  0  0  0  0  0  0  0  0  0
   21.8678   -7.8597  -15.0826 C   0  0  0  0  0  0  0  0  0  0  0  0
   22.0397   -7.2816  -16.1739 O   0  0  0  0  0  0  0  0  0  0  0  0
   22.0607   -7.1524  -13.8909 O   0  0  0  0  0  0  0  0  0  0  0  0
  2  1  1  1
  2  3  1  0
  2  6  1  0
  4  8  1  0
  4  3  1  0
  5  4  2  0
  6  7  2  0
  9  6  1  0
  9 10  1  0
 10 11  1  6
 11 12  1  0
 12 13  2  0
 14 13  1  0
 15 14  1  0
 16 15  2  0
 16 12  1  0
 17 10  1  0
 17 18  2  0
 20 19  1  6
 20 22  1  0
 21 20  1  0
 22 23  1  6
 22 24  1  0
 23 17  1  0
 24 26  1  0
 25 24  2  0
M  END
$$$$
