DHV.pdb
     RDKit          3D

 26 26  0  0  1  0  0  0  0  0999 V2000
   16.0259  -12.6165  -14.5389 N   0  0  0  0  0  0  0  0  0  0  0  0
   15.0876  -11.6137  -14.0674 C   0  0  1  0  0  0  0  0  0  0  0  0
   13.9281  -12.2760  -13.3653 C   0  0  0  0  0  0  0  0  0  0  0  0
   13.0311  -12.9772  -14.3086 C   0  0  0  0  0  0  0  0  0  0  0  0
   12.5667  -12.3780  -15.2940 O   0  0  0  0  0  0  0  0  0  0  0  0
   15.8231  -10.6856  -13.1690 C   0  0  0  0  0  0  0  0  0  0  0  0
   16.4443  -11.1079  -12.1523 O   0  0  0  0  0  0  0  0  0  0  0  0
   12.7090  -14.2955  -14.0963 O   0  0  0  0  0  0  0  0  0  0  0  0
   15.8714   -9.2769  -13.3983 N   0  0  0  0  0  0  0  0  0  0  0  0
   16.6435   -8.3509  -12.6100 C   0  0  1  0  0  0  0  0  0  0  0  0
   17.6175   -7.6419  -13.5050 C   0  0  0  0  0  0  0  0  0  0  0  0
   18.7319   -8.5043  -13.9583 C   0  0  0  0  0  0  0  0  0  0  0  0
   19.0014   -9.8141  -13.6721 C   0  0  0  0  0  0  0  0  0  0  0  0
   20.1287  -10.1636  -14.3185 N   0  0  0  0  0  0  0  0  0  0  0  0
   20.5799   -9.1165  -15.0040 C   0  0  0  0  0  0  0  0  0  0  0  0
   19.7219   -8.1126  -14.7772 N   0  0  0  0  0  0  0  0  0  0  0  0
   15.7708   -7.3905  -11.8714 C   0  0  0  0  0  0  0  0  0  0  0  0
   14.8186   -6.8332  -12.4734 O   0  0  0  0  0  0  0  0  0  0  0  0
   13.7097   -7.9370   -8.7600 C   0  0  0  0  0  0  0  0  0  0  0  0
   14.5897   -6.7407   -8.5033 C   0  0  1  0  0  0  0  0  0  0  0  0
   15.6673   -7.1613   -7.5395 C   0  0  0  0  0  0  0  0  0  0  0  0
   15.0946   -6.1652   -9.7681 C   0  0  2  0  0  0  0  0  0  0  0  0
   15.9652   -7.0709  -10.5048 N   0  0  0  0  0  0  0  0  0  0  0  0
   15.8094   -4.8908   -9.4607 C   0  0  0  0  0  0  0  0  0  0  0  0
   17.0489   -4.8354   -9.5845 O   0  0  0  0  0  0  0  0  0  0  0  0
   15.1087   -3.7569   -9.0353 O   0  0  0  0  0  0  0  0  0  0  0  0
  2  1  1  1
  2  3  1  0
  2  6  1  0
  4  8  1  0
  4  3  1  0
  5  4  2  0
  6  7  2  0
  9  6  1  0
  9 10  1  0
 10 11  1  6
 11 12  1  0
 12 13  2  0
 14 13  1  0
 15 14  1  0
 16 15  2  0
 16 12  1  0
 17 10  1  0
 17 18  2  0
 20 19  1  6
 20 22  1  0
 21 20  1  0
 22 23  1  1
 22 24  1  0
 23 17  1  0
 24 26  1  0
 25 24  2  0
M  END
$$$$
