DHV.pdb
     RDKit          3D

 26 26  0  0  1  0  0  0  0  0999 V2000
   17.6716  -13.8254  -16.9272 N   0  0  0  0  0  0  0  0  0  0  0  0
   17.1235  -12.4979  -16.7140 C   0  0  1  0  0  0  0  0  0  0  0  0
   16.3934  -12.4426  -15.3949 C   0  0  0  0  0  0  0  0  0  0  0  0
   15.1733  -13.2778  -15.3966 C   0  0  0  0  0  0  0  0  0  0  0  0
   14.3753  -13.2186  -16.3481 O   0  0  0  0  0  0  0  0  0  0  0  0
   18.2463  -11.5254  -16.7676 C   0  0  0  0  0  0  0  0  0  0  0  0
   19.3340  -11.7416  -16.1610 O   0  0  0  0  0  0  0  0  0  0  0  0
   14.9198  -14.1226  -14.3436 O   0  0  0  0  0  0  0  0  0  0  0  0
   18.1642  -10.3020  -17.4997 N   0  0  0  0  0  0  0  0  0  0  0  0
   19.2403   -9.3517  -17.6182 C   0  0  1  0  0  0  0  0  0  0  0  0
   19.1153   -8.6339  -18.9303 C   0  0  0  0  0  0  0  0  0  0  0  0
   20.2229   -7.6861  -19.1877 C   0  0  0  0  0  0  0  0  0  0  0  0
   21.3022   -7.3649  -18.4119 C   0  0  0  0  0  0  0  0  0  0  0  0
   22.0372   -6.4499  -19.0702 N   0  0  0  0  0  0  0  0  0  0  0  0
   21.4566   -6.1828  -20.2370 C   0  0  0  0  0  0  0  0  0  0  0  0
   20.3535   -6.9408  -20.2975 N   0  0  0  0  0  0  0  0  0  0  0  0
   19.2680   -8.4002  -16.4677 C   0  0  0  0  0  0  0  0  0  0  0  0
   18.2137   -7.8021  -16.1359 O   0  0  0  0  0  0  0  0  0  0  0  0
   20.2514   -9.1653  -12.9091 C   0  0  0  0  0  0  0  0  0  0  0  0
   21.0682   -7.9798  -13.3552 C   0  0  1  0  0  0  0  0  0  0  0  0
   22.4774   -8.4550  -13.5902 C   0  0  0  0  0  0  0  0  0  0  0  0
   20.4494   -7.3098  -14.5189 C   0  0  2  0  0  0  0  0  0  0  0  0
   20.4416   -8.1338  -15.7198 N   0  0  0  0  0  0  0  0  0  0  0  0
   21.1724   -6.0280  -14.7716 C   0  0  0  0  0  0  0  0  0  0  0  0
   21.9177   -5.9279  -15.7662 O   0  0  0  0  0  0  0  0  0  0  0  0
   21.0262   -4.9367  -13.9082 O   0  0  0  0  0  0  0  0  0  0  0  0
  2  1  1  1
  2  3  1  0
  2  6  1  0
  4  8  1  0
  4  3  1  0
  5  4  2  0
  6  7  2  0
  9  6  1  0
  9 10  1  0
 10 11  1  6
 11 12  1  0
 12 13  2  0
 14 13  1  0
 15 14  1  0
 16 15  2  0
 16 12  1  0
 17 10  1  0
 17 18  2  0
 20 19  1  6
 20 22  1  0
 21 20  1  0
 22 23  1  6
 22 24  1  0
 23 17  1  0
 24 26  1  0
 25 24  2  0
M  END
$$$$
