DHV.pdb
     RDKit          3D

 26 26  0  0  1  0  0  0  0  0999 V2000
   18.4413  -15.8012  -17.1962 N   0  0  0  0  0  0  0  0  0  0  0  0
   17.8418  -14.4852  -17.0654 C   0  0  1  0  0  0  0  0  0  0  0  0
   17.1077  -14.3766  -15.7518 C   0  0  0  0  0  0  0  0  0  0  0  0
   15.8475  -15.1499  -15.7510 C   0  0  0  0  0  0  0  0  0  0  0  0
   15.0408  -15.0337  -16.6899 O   0  0  0  0  0  0  0  0  0  0  0  0
   18.9262  -13.4752  -17.1799 C   0  0  0  0  0  0  0  0  0  0  0  0
   20.0136  -13.6023  -16.5479 O   0  0  0  0  0  0  0  0  0  0  0  0
   15.5660  -16.0001  -14.7095 O   0  0  0  0  0  0  0  0  0  0  0  0
   18.8058  -12.3135  -18.0017 N   0  0  0  0  0  0  0  0  0  0  0  0
   19.8266  -11.3065  -18.1406 C   0  0  1  0  0  0  0  0  0  0  0  0
   19.5456  -10.4931  -19.3702 C   0  0  0  0  0  0  0  0  0  0  0  0
   20.5975   -9.4943  -19.6652 C   0  0  0  0  0  0  0  0  0  0  0  0
   21.7567   -9.2156  -18.9955 C   0  0  0  0  0  0  0  0  0  0  0  0
   22.3911   -8.2230  -19.6458 N   0  0  0  0  0  0  0  0  0  0  0  0
   21.6697   -7.8657  -20.7049 C   0  0  0  0  0  0  0  0  0  0  0  0
   20.5806   -8.6461  -20.7066 N   0  0  0  0  0  0  0  0  0  0  0  0
   19.9286  -10.4497  -16.9220 C   0  0  0  0  0  0  0  0  0  0  0  0
   18.8850  -10.1501  -16.2890 O   0  0  0  0  0  0  0  0  0  0  0  0
   23.5692  -10.0017  -14.7372 C   0  0  0  0  0  0  0  0  0  0  0  0
   22.1677   -9.8543  -14.2028 C   0  0  1  0  0  0  0  0  0  0  0  0
   22.2529   -9.1392  -12.8806 C   0  0  0  0  0  0  0  0  0  0  0  0
   21.2826   -9.2026  -15.1917 C   0  0  2  0  0  0  0  0  0  0  0  0
   21.1620   -9.9497  -16.4360 N   0  0  0  0  0  0  0  0  0  0  0  0
   21.7967   -7.8263  -15.4583 C   0  0  0  0  0  0  0  0  0  0  0  0
   22.4569   -7.6060  -16.4929 O   0  0  0  0  0  0  0  0  0  0  0  0
   21.5487   -6.7793  -14.5639 O   0  0  0  0  0  0  0  0  0  0  0  0
  2  1  1  1
  2  3  1  0
  2  6  1  0
  4  8  1  0
  4  3  1  0
  5  4  2  0
  6  7  2  0
  9  6  1  0
  9 10  1  0
 10 11  1  6
 11 12  1  0
 12 13  2  0
 14 13  1  0
 15 14  1  0
 16 15  2  0
 16 12  1  0
 17 10  1  0
 17 18  2  0
 20 19  1  6
 20 22  1  0
 21 20  1  0
 22 23  1  6
 22 24  1  0
 23 17  1  0
 24 26  1  0
 25 24  2  0
M  END
$$$$
