DHV.pdb
     RDKit          3D

 26 26  0  0  1  0  0  0  0  0999 V2000
   23.2900  -18.6084  -17.7611 N   0  0  0  0  0  0  0  0  0  0  0  0
   23.0436  -19.8054  -16.9771 C   0  0  1  0  0  0  0  0  0  0  0  0
   22.6671  -20.9517  -17.8829 C   0  0  0  0  0  0  0  0  0  0  0  0
   21.5422  -20.6088  -18.7792 C   0  0  0  0  0  0  0  0  0  0  0  0
   21.6228  -20.8335  -19.9993 O   0  0  0  0  0  0  0  0  0  0  0  0
   24.2713  -20.0989  -16.1923 C   0  0  0  0  0  0  0  0  0  0  0  0
   24.5055  -21.2580  -15.7455 O   0  0  0  0  0  0  0  0  0  0  0  0
   20.4036  -20.0399  -18.2628 O   0  0  0  0  0  0  0  0  0  0  0  0
   25.2488  -19.1000  -15.8994 N   0  0  0  0  0  0  0  0  0  0  0  0
   26.4080  -19.3149  -15.0716 C   0  0  1  0  0  0  0  0  0  0  0  0
   27.4856  -18.3540  -15.4818 C   0  0  0  0  0  0  0  0  0  0  0  0
   28.1555  -18.7301  -16.7471 C   0  0  0  0  0  0  0  0  0  0  0  0
   27.9933  -19.8386  -17.5311 C   0  0  0  0  0  0  0  0  0  0  0  0
   28.8248  -19.7357  -18.5840 N   0  0  0  0  0  0  0  0  0  0  0  0
   29.5072  -18.5976  -18.4902 C   0  0  0  0  0  0  0  0  0  0  0  0
   29.0915  -17.9940  -17.3685 N   0  0  0  0  0  0  0  0  0  0  0  0
   26.0818  -19.1931  -13.6196 C   0  0  0  0  0  0  0  0  0  0  0  0
   25.2447  -18.3338  -13.2450 O   0  0  0  0  0  0  0  0  0  0  0  0
   24.8191  -22.1137  -11.7120 C   0  0  0  0  0  0  0  0  0  0  0  0
   24.8239  -20.7030  -11.1817 C   0  0  1  0  0  0  0  0  0  0  0  0
   24.2425  -20.7320   -9.7932 C   0  0  0  0  0  0  0  0  0  0  0  0
   26.1729  -20.1034  -11.2647 C   0  0  2  0  0  0  0  0  0  0  0  0
   26.6779  -20.0104  -12.6275 N   0  0  0  0  0  0  0  0  0  0  0  0
   27.1046  -20.9059  -10.4176 C   0  0  0  0  0  0  0  0  0  0  0  0
   27.9696  -21.6204  -10.9616 O   0  0  0  0  0  0  0  0  0  0  0  0
   27.0214  -20.8681   -9.0214 O   0  0  0  0  0  0  0  0  0  0  0  0
  2  1  1  6
  2  3  1  0
  2  6  1  0
  4  8  1  0
  4  3  1  0
  5  4  2  0
  6  7  2  0
  9  6  1  0
  9 10  1  0
 10 11  1  6
 11 12  1  0
 12 13  2  0
 14 13  1  0
 15 14  1  0
 16 15  2  0
 16 12  1  0
 17 10  1  0
 17 18  2  0
 20 19  1  1
 20 22  1  0
 21 20  1  0
 22 23  1  6
 22 24  1  0
 23 17  1  0
 24 26  1  0
 25 24  2  0
M  END
$$$$
