DHV.pdb
     RDKit          3D

 26 26  0  0  1  0  0  0  0  0999 V2000
   28.1615  -19.8495  -19.5644 N   0  0  0  0  0  0  0  0  0  0  0  0
   28.0595  -20.6899  -18.3847 C   0  0  1  0  0  0  0  0  0  0  0  0
   29.4156  -20.8537  -17.7442 C   0  0  0  0  0  0  0  0  0  0  0  0
   30.3219  -21.6885  -18.5614 C   0  0  0  0  0  0  0  0  0  0  0  0
   31.4463  -21.2647  -18.8804 O   0  0  0  0  0  0  0  0  0  0  0  0
   27.0810  -20.0618  -17.4588 C   0  0  0  0  0  0  0  0  0  0  0  0
   27.0970  -18.8190  -17.2283 O   0  0  0  0  0  0  0  0  0  0  0  0
   29.9210  -22.9371  -18.9702 O   0  0  0  0  0  0  0  0  0  0  0  0
   26.0753  -20.8164  -16.7817 N   0  0  0  0  0  0  0  0  0  0  0  0
   25.1095  -20.2530  -15.8735 C   0  0  1  0  0  0  0  0  0  0  0  0
   23.7860  -20.1460  -16.5733 C   0  0  0  0  0  0  0  0  0  0  0  0
   22.7047  -19.6272  -15.7057 C   0  0  0  0  0  0  0  0  0  0  0  0
   22.3090  -18.3396  -15.4703 C   0  0  0  0  0  0  0  0  0  0  0  0
   21.2789  -18.3666  -14.6049 N   0  0  0  0  0  0  0  0  0  0  0  0
   21.0112  -19.6302  -14.2861 C   0  0  0  0  0  0  0  0  0  0  0  0
   21.8851  -20.3883  -14.9620 N   0  0  0  0  0  0  0  0  0  0  0  0
   25.0060  -21.0465  -14.6129 C   0  0  0  0  0  0  0  0  0  0  0  0
   24.8114  -22.2864  -14.6783 O   0  0  0  0  0  0  0  0  0  0  0  0
   25.6571  -19.3235  -10.6835 C   0  0  0  0  0  0  0  0  0  0  0  0
   25.8629  -20.7797  -11.0133 C   0  0  1  0  0  0  0  0  0  0  0  0
   25.7313  -21.5634   -9.7345 C   0  0  0  0  0  0  0  0  0  0  0  0
   24.9532  -21.2187  -12.0930 C   0  0  2  0  0  0  0  0  0  0  0  0
   25.1181  -20.4626  -13.3268 N   0  0  0  0  0  0  0  0  0  0  0  0
   23.5464  -21.1156  -11.6031 C   0  0  0  0  0  0  0  0  0  0  0  0
   23.1706  -21.8346  -10.6563 O   0  0  0  0  0  0  0  0  0  0  0  0
   22.6429  -20.2235  -12.1910 O   0  0  0  0  0  0  0  0  0  0  0  0
  2  1  1  6
  2  3  1  0
  2  6  1  0
  4  8  1  0
  4  3  1  0
  5  4  2  0
  6  7  2  0
  9  6  1  0
  9 10  1  0
 10 11  1  6
 11 12  1  0
 12 13  2  0
 14 13  1  0
 15 14  1  0
 16 15  2  0
 16 12  1  0
 17 10  1  0
 17 18  2  0
 20 19  1  1
 20 22  1  0
 21 20  1  0
 22 23  1  6
 22 24  1  0
 23 17  1  0
 24 26  1  0
 25 24  2  0
M  END
$$$$
