DHV.pdb
     RDKit          3D

 26 26  0  0  1  0  0  0  0  0999 V2000
   17.5494  -10.9100  -17.4659 N   0  0  0  0  0  0  0  0  0  0  0  0
   18.2930  -11.5219  -16.3792 C   0  0  1  0  0  0  0  0  0  0  0  0
   18.5554  -12.9762  -16.6830 C   0  0  0  0  0  0  0  0  0  0  0  0
   17.3215  -13.7891  -16.6298 C   0  0  0  0  0  0  0  0  0  0  0  0
   16.2298  -13.2540  -16.3698 O   0  0  0  0  0  0  0  0  0  0  0  0
   19.5544  -10.7563  -16.2002 C   0  0  0  0  0  0  0  0  0  0  0  0
   20.4364  -11.1249  -15.3731 O   0  0  0  0  0  0  0  0  0  0  0  0
   17.3806  -15.1405  -16.8683 O   0  0  0  0  0  0  0  0  0  0  0  0
   19.8422   -9.5716  -16.9438 N   0  0  0  0  0  0  0  0  0  0  0  0
   21.0061   -8.7473  -16.7415 C   0  0  1  0  0  0  0  0  0  0  0  0
   21.6588   -8.4903  -18.0683 C   0  0  0  0  0  0  0  0  0  0  0  0
   22.2933   -9.6935  -18.6521 C   0  0  0  0  0  0  0  0  0  0  0  0
   21.9759  -10.3924  -19.7838 C   0  0  0  0  0  0  0  0  0  0  0  0
   22.8413  -11.4158  -19.9040 N   0  0  0  0  0  0  0  0  0  0  0  0
   23.6953  -11.3858  -18.8844 C   0  0  0  0  0  0  0  0  0  0  0  0
   23.3522  -10.3335  -18.1292 N   0  0  0  0  0  0  0  0  0  0  0  0
   20.6681   -7.4756  -16.0358 C   0  0  0  0  0  0  0  0  0  0  0  0
   19.6970   -6.7862  -16.4374 O   0  0  0  0  0  0  0  0  0  0  0  0
   19.4085   -6.9546  -12.7331 C   0  0  0  0  0  0  0  0  0  0  0  0
   20.6272   -6.0695  -12.7864 C   0  0  1  0  0  0  0  0  0  0  0  0
   21.6978   -6.7104  -11.9437 C   0  0  0  0  0  0  0  0  0  0  0  0
   21.0321   -5.7980  -14.1823 C   0  0  2  0  0  0  0  0  0  0  0  0
   21.3985   -6.9997  -14.9189 N   0  0  0  0  0  0  0  0  0  0  0  0
   22.1675   -4.8282  -14.1697 C   0  0  0  0  0  0  0  0  0  0  0  0
   23.3066   -5.2105  -14.5029 O   0  0  0  0  0  0  0  0  0  0  0  0
   21.9722   -3.4960  -13.7895 O   0  0  0  0  0  0  0  0  0  0  0  0
  2  1  1  6
  2  3  1  0
  2  6  1  0
  4  8  1  0
  4  3  1  0
  5  4  2  0
  6  7  2  0
  9  6  1  0
  9 10  1  0
 10 11  1  6
 11 12  1  0
 12 13  2  0
 14 13  1  0
 15 14  1  0
 16 15  2  0
 16 12  1  0
 17 10  1  0
 17 18  2  0
 20 19  1  6
 20 22  1  0
 21 20  1  0
 22 23  1  1
 22 24  1  0
 23 17  1  0
 24 26  1  0
 25 24  2  0
M  END
$$$$
