DHV.pdb
     RDKit          3D

 26 26  0  0  1  0  0  0  0  0999 V2000
   25.4543  -23.6702  -13.8496 N   0  0  0  0  0  0  0  0  0  0  0  0
   25.0443  -23.1539  -15.1433 C   0  0  1  0  0  0  0  0  0  0  0  0
   25.3067  -24.1787  -16.2190 C   0  0  0  0  0  0  0  0  0  0  0  0
   26.7520  -24.3967  -16.4417 C   0  0  0  0  0  0  0  0  0  0  0  0
   27.5905  -23.7772  -15.7643 O   0  0  0  0  0  0  0  0  0  0  0  0
   23.6042  -22.7962  -15.0575 C   0  0  0  0  0  0  0  0  0  0  0  0
   22.8078  -23.0391  -16.0086 O   0  0  0  0  0  0  0  0  0  0  0  0
   27.1710  -25.2867  -17.4005 O   0  0  0  0  0  0  0  0  0  0  0  0
   23.0404  -22.1636  -13.9080 N   0  0  0  0  0  0  0  0  0  0  0  0
   21.6413  -21.8576  -13.7526 C   0  0  1  0  0  0  0  0  0  0  0  0
   21.0833  -22.6816  -12.6292 C   0  0  0  0  0  0  0  0  0  0  0  0
   20.7179  -24.0570  -13.0366 C   0  0  0  0  0  0  0  0  0  0  0  0
   21.2694  -25.2555  -12.6767 C   0  0  0  0  0  0  0  0  0  0  0  0
   20.5959  -26.2356  -13.3065 N   0  0  0  0  0  0  0  0  0  0  0  0
   19.6366  -25.6946  -14.0527 C   0  0  0  0  0  0  0  0  0  0  0  0
   19.7204  -24.3684  -13.8806 N   0  0  0  0  0  0  0  0  0  0  0  0
   21.4148  -20.3981  -13.5335 C   0  0  0  0  0  0  0  0  0  0  0  0
   22.0239  -19.8117  -12.6037 O   0  0  0  0  0  0  0  0  0  0  0  0
   22.1788  -17.4928  -15.6349 C   0  0  0  0  0  0  0  0  0  0  0  0
   20.7022  -17.4036  -15.3466 C   0  0  1  0  0  0  0  0  0  0  0  0
   19.9649  -17.7963  -16.5992 C   0  0  0  0  0  0  0  0  0  0  0  0
   20.3402  -18.1971  -14.1527 C   0  0  2  0  0  0  0  0  0  0  0  0
   20.5338  -19.6292  -14.3336 N   0  0  0  0  0  0  0  0  0  0  0  0
   18.9196  -17.9044  -13.7980 C   0  0  0  0  0  0  0  0  0  0  0  0
   18.0563  -18.7941  -13.9316 O   0  0  0  0  0  0  0  0  0  0  0  0
   18.5422  -16.6456  -13.3176 O   0  0  0  0  0  0  0  0  0  0  0  0
  2  1  1  1
  2  3  1  0
  2  6  1  0
  4  8  1  0
  4  3  1  0
  5  4  2  0
  6  7  2  0
  9  6  1  0
  9 10  1  0
 10 11  1  1
 11 12  1  0
 12 13  2  0
 14 13  1  0
 15 14  1  0
 16 15  2  0
 16 12  1  0
 17 10  1  0
 17 18  2  0
 20 19  1  6
 20 22  1  0
 21 20  1  0
 22 23  1  6
 22 24  1  0
 23 17  1  0
 24 26  1  0
 25 24  2  0
M  END
$$$$
