FVY.pdb
     RDKit          3D

 31 32  0  0  1  0  0  0  0  0999 V2000
   23.8730  -13.1970  -16.7642 N   0  0  0  0  0  0  0  0  0  0  0  0
   24.9027  -14.1912  -16.7815 C   0  0  1  0  0  0  0  0  0  0  0  0
   26.1370  -13.5422  -16.1406 C   0  0  0  0  0  0  0  0  0  0  0  0
   27.0203  -12.9857  -17.1871 C   0  0  0  0  0  0  0  0  0  0  0  0
   26.9281  -11.6800  -17.5749 C   0  0  0  0  0  0  0  0  0  0  0  0
   27.7370  -11.1505  -18.5400 C   0  0  0  0  0  0  0  0  0  0  0  0
   28.6693  -11.9628  -19.1335 C   0  0  0  0  0  0  0  0  0  0  0  0
   28.7937  -13.2791  -18.7727 C   0  0  0  0  0  0  0  0  0  0  0  0
   27.9654  -13.7849  -17.7974 C   0  0  0  0  0  0  0  0  0  0  0  0
   24.5586  -15.3385  -15.8806 C   0  0  0  0  0  0  0  0  0  0  0  0
   23.5129  -15.3569  -15.2204 O   0  0  0  0  0  0  0  0  0  0  0  0
   24.6189  -18.5425  -17.8616 C   0  0  0  0  0  0  0  0  0  0  0  0
   24.0085  -18.3113  -16.4808 C   0  0  2  0  0  0  0  0  0  0  0  0
   22.7901  -17.4360  -16.5328 C   0  0  0  0  0  0  0  0  0  0  0  0
   25.0425  -17.7957  -15.5050 C   0  0  2  0  0  0  0  0  0  0  0  0
   25.4537  -16.4497  -15.7724 N   0  0  0  0  0  0  0  0  0  0  0  0
   26.1996  -18.7147  -15.4124 C   0  0  0  0  0  0  0  0  0  0  0  0
   27.0692  -18.6487  -16.3107 O   0  0  0  0  0  0  0  0  0  0  0  0
   24.0549  -21.5306   -8.9090 O   0  0  0  0  0  0  0  0  0  0  0  0
   25.0111  -21.1382   -9.8384 C   0  0  0  0  0  0  0  0  0  0  0  0
   24.9249  -19.9603  -10.5394 C   0  0  0  0  0  0  0  0  0  0  0  0
   25.9106  -19.6216  -11.4560 C   0  0  0  0  0  0  0  0  0  0  0  0
   26.9946  -20.4343  -11.6970 C   0  0  0  0  0  0  0  0  0  0  0  0
   28.0556  -20.1174  -12.6703 C   0  0  0  0  0  0  0  0  0  0  0  0
   27.5594  -20.3682  -14.0472 C   0  0  2  0  0  0  0  0  0  0  0  0
   26.3403  -19.6453  -14.3553 N   0  0  0  0  0  0  0  0  0  0  0  0
   27.3880  -21.7821  -14.4145 C   0  0  0  0  0  0  0  0  0  0  0  0
   28.4188  -22.5214  -14.5201 O   0  0  0  0  0  0  0  0  0  0  0  0
   27.0822  -21.6138  -10.9959 C   0  0  0  0  0  0  0  0  0  0  0  0
   26.1043  -21.9710  -10.0732 C   0  0  0  0  0  0  0  0  0  0  0  0
   26.1818  -22.4170  -14.6663 O   0  0  0  0  0  0  0  0  0  0  0  0
  2  1  1  1
  2 10  1  0
  2  3  1  0
  3  4  1  0
  4  9  1  0
  4  5  2  0
  5  6  1  0
  6  7  2  0
  8  7  1  0
  9  8  2  0
 10 11  2  0
 13 15  1  0
 13 14  1  6
 13 12  1  0
 15 16  1  6
 16 10  1  0
 17 26  1  0
 17 15  1  0
 18 17  2  0
 20 30  2  0
 20 19  1  0
 21 20  1  0
 22 23  1  0
 22 21  2  0
 23 29  2  0
 24 23  1  0
 25 26  1  0
 25 24  1  1
 27 25  1  0
 28 27  2  0
 29 30  1  0
 31 27  1  0
M  END
$$$$
