FVY.pdb
     RDKit          3D

 31 32  0  0  1  0  0  0  0  0999 V2000
   26.3460  -21.4688  -17.3121 N   0  0  0  0  0  0  0  0  0  0  0  0
   25.8434  -20.4721  -16.4161 C   0  0  1  0  0  0  0  0  0  0  0  0
   24.6528  -19.8156  -17.1282 C   0  0  0  0  0  0  0  0  0  0  0  0
   25.1268  -19.0054  -18.2700 C   0  0  0  0  0  0  0  0  0  0  0  0
   25.0545  -19.4713  -19.5511 C   0  0  0  0  0  0  0  0  0  0  0  0
   25.4878  -18.7349  -20.6170 C   0  0  0  0  0  0  0  0  0  0  0  0
   26.0106  -17.4884  -20.3846 C   0  0  0  0  0  0  0  0  0  0  0  0
   26.1008  -16.9842  -19.1134 C   0  0  0  0  0  0  0  0  0  0  0  0
   25.6562  -17.7485  -18.0593 C   0  0  0  0  0  0  0  0  0  0  0  0
   25.2593  -21.0990  -15.1863 C   0  0  0  0  0  0  0  0  0  0  0  0
   24.6582  -22.1790  -15.2289 O   0  0  0  0  0  0  0  0  0  0  0  0
   27.1607  -21.4657  -11.8475 C   0  0  0  0  0  0  0  0  0  0  0  0
   25.8151  -20.8183  -11.5267 C   0  0  2  0  0  0  0  0  0  0  0  0
   25.2226  -21.3335  -10.2472 C   0  0  0  0  0  0  0  0  0  0  0  0
   24.8576  -20.9409  -12.6910 C   0  0  2  0  0  0  0  0  0  0  0  0
   25.3944  -20.4424  -13.9220 N   0  0  0  0  0  0  0  0  0  0  0  0
   23.5470  -20.3285  -12.3759 C   0  0  0  0  0  0  0  0  0  0  0  0
   23.5322  -19.1196  -12.0504 O   0  0  0  0  0  0  0  0  0  0  0  0
   15.6940  -17.1971  -13.5620 O   0  0  0  0  0  0  0  0  0  0  0  0
   16.9839  -17.7135  -13.5239 C   0  0  0  0  0  0  0  0  0  0  0  0
   17.9540  -17.2252  -12.6831 C   0  0  0  0  0  0  0  0  0  0  0  0
   19.2258  -17.7811  -12.6901 C   0  0  0  0  0  0  0  0  0  0  0  0
   19.5628  -18.8240  -13.5222 C   0  0  0  0  0  0  0  0  0  0  0  0
   20.9043  -19.4337  -13.5692 C   0  0  0  0  0  0  0  0  0  0  0  0
   21.0159  -20.4737  -12.5152 C   0  0  2  0  0  0  0  0  0  0  0  0
   22.3386  -21.0632  -12.4326 N   0  0  0  0  0  0  0  0  0  0  0  0
   20.0119  -21.5470  -12.5708 C   0  0  0  0  0  0  0  0  0  0  0  0
   20.2199  -22.5476  -13.3296 O   0  0  0  0  0  0  0  0  0  0  0  0
   18.5927  -19.3138  -14.3644 C   0  0  0  0  0  0  0  0  0  0  0  0
   17.3123  -18.7699  -14.3723 C   0  0  0  0  0  0  0  0  0  0  0  0
   18.8224  -21.5863  -11.8600 O   0  0  0  0  0  0  0  0  0  0  0  0
  2  1  1  6
  2 10  1  0
  2  3  1  0
  3  4  1  0
  4  9  1  0
  4  5  2  0
  5  6  1  0
  6  7  2  0
  8  7  1  0
  9  8  2  0
 10 11  2  0
 13 15  1  0
 13 14  1  1
 13 12  1  0
 15 16  1  6
 16 10  1  0
 17 26  1  0
 17 15  1  0
 18 17  2  0
 20 30  2  0
 20 19  1  0
 21 20  1  0
 22 23  1  0
 22 21  2  0
 23 29  2  0
 24 23  1  0
 25 26  1  0
 25 24  1  6
 27 25  1  0
 28 27  2  0
 29 30  1  0
 31 27  1  0
M  END
$$$$
