FVY.pdb
     RDKit          3D

 31 32  0  0  1  0  0  0  0  0999 V2000
   24.5465  -20.7709  -18.0028 N   0  0  0  0  0  0  0  0  0  0  0  0
   23.1286  -20.7687  -17.8066 C   0  0  1  0  0  0  0  0  0  0  0  0
   22.6500  -22.1936  -18.1169 C   0  0  0  0  0  0  0  0  0  0  0  0
   22.7795  -22.4701  -19.5631 C   0  0  0  0  0  0  0  0  0  0  0  0
   22.0155  -21.8126  -20.4839 C   0  0  0  0  0  0  0  0  0  0  0  0
   22.1234  -22.0563  -21.8238 C   0  0  0  0  0  0  0  0  0  0  0  0
   23.0306  -22.9925  -22.2498 C   0  0  0  0  0  0  0  0  0  0  0  0
   23.8163  -23.6743  -21.3575 C   0  0  0  0  0  0  0  0  0  0  0  0
   23.6860  -23.4079  -20.0140 C   0  0  0  0  0  0  0  0  0  0  0  0
   22.7851  -20.5521  -16.3638 C   0  0  0  0  0  0  0  0  0  0  0  0
   23.6244  -20.6935  -15.4665 O   0  0  0  0  0  0  0  0  0  0  0  0
   21.5781  -17.3861  -14.9237 C   0  0  0  0  0  0  0  0  0  0  0  0
   20.5114  -18.4153  -14.5554 C   0  0  2  0  0  0  0  0  0  0  0  0
   19.8989  -18.1489  -13.2111 C   0  0  0  0  0  0  0  0  0  0  0  0
   21.0481  -19.8245  -14.6708 C   0  0  2  0  0  0  0  0  0  0  0  0
   21.4549  -20.1698  -16.0003 N   0  0  0  0  0  0  0  0  0  0  0  0
   20.0931  -20.8105  -14.1158 C   0  0  0  0  0  0  0  0  0  0  0  0
   19.0608  -21.0587  -14.7792 O   0  0  0  0  0  0  0  0  0  0  0  0
   16.2793  -26.9834   -9.2231 O   0  0  0  0  0  0  0  0  0  0  0  0
   17.1822  -26.0262   -9.6710 C   0  0  0  0  0  0  0  0  0  0  0  0
   17.2131  -24.7459   -9.1749 C   0  0  0  0  0  0  0  0  0  0  0  0
   18.1377  -23.8324   -9.6620 C   0  0  0  0  0  0  0  0  0  0  0  0
   19.0448  -24.1632  -10.6425 C   0  0  0  0  0  0  0  0  0  0  0  0
   20.0337  -23.2199  -11.1954 C   0  0  0  0  0  0  0  0  0  0  0  0
   19.4031  -22.4085  -12.2672 C   0  0  2  0  0  0  0  0  0  0  0  0
   20.3165  -21.4627  -12.8797 N   0  0  0  0  0  0  0  0  0  0  0  0
   18.1648  -21.7094  -11.8915 C   0  0  0  0  0  0  0  0  0  0  0  0
   18.2461  -20.6025  -11.2681 O   0  0  0  0  0  0  0  0  0  0  0  0
   19.0150  -25.4446  -11.1400 C   0  0  0  0  0  0  0  0  0  0  0  0
   18.0957  -26.3744  -10.6649 C   0  0  0  0  0  0  0  0  0  0  0  0
   16.8743  -22.1423  -12.1535 O   0  0  0  0  0  0  0  0  0  0  0  0
  2  1  1  1
  2 10  1  0
  2  3  1  0
  3  4  1  0
  4  9  1  0
  4  5  2  0
  5  6  1  0
  6  7  2  0
  8  7  1  0
  9  8  2  0
 10 11  2  0
 13 15  1  0
 13 14  1  1
 13 12  1  0
 15 16  1  6
 16 10  1  0
 17 26  1  0
 17 15  1  0
 18 17  2  0
 20 30  2  0
 20 19  1  0
 21 20  1  0
 22 23  1  0
 22 21  2  0
 23 29  2  0
 24 23  1  0
 25 26  1  0
 25 24  1  1
 27 25  1  0
 28 27  2  0
 29 30  1  0
 31 27  1  0
M  END
$$$$
