LTP.pdb
     RDKit          3D

 23 23  0  0  1  0  0  0  0  0999 V2000
   20.1158  -23.2366   10.5670 C   0  0  0  0  0  0  0  0  0  0  0  0
   20.9895  -23.0383    9.3497 C   0  0  2  0  0  0  0  0  0  0  0  0
   20.2382  -23.4978    8.1196 C   0  0  0  0  0  0  0  0  0  0  0  0
   22.2615  -23.8035    9.5485 C   0  0  0  0  0  0  0  0  0  0  0  0
   23.0179  -23.1871   10.7019 C   0  0  2  0  0  0  0  0  0  0  0  0
   23.3146  -21.8031   10.4748 N   0  0  0  0  0  0  0  0  0  0  0  0
   24.2668  -23.9810   10.9719 C   0  0  0  0  0  0  0  0  0  0  0  0
   24.1588  -25.2119   11.1852 O   0  0  0  0  0  0  0  0  0  0  0  0
   27.0449  -24.7316    8.8554 C   0  0  0  0  0  0  0  0  0  0  0  0
   27.6278  -23.9379   10.0043 C   0  0  1  0  0  0  0  0  0  0  0  0
   27.5315  -22.5770    9.6323 O   0  0  0  0  0  0  0  0  0  0  0  0
   26.7773  -24.1613   11.2724 C   0  0  2  0  0  0  0  0  0  0  0  0
   25.5413  -23.4059   10.9951 N   0  0  0  0  0  0  0  0  0  0  0  0
   27.4699  -23.5952   12.4552 C   0  0  0  0  0  0  0  0  0  0  0  0
   27.3811  -22.3207   12.5722 O   0  0  0  0  0  0  0  0  0  0  0  0
   28.1883  -24.3600   13.4149 N   0  0  0  0  0  0  0  0  0  0  0  0
   28.1974  -25.7826   13.4930 C   0  0  0  0  0  0  0  0  0  0  0  0
   29.6354  -26.0429   13.9846 C   0  0  0  0  0  0  0  0  0  0  0  0
   29.7391  -24.9500   15.0651 C   0  0  0  0  0  0  0  0  0  0  0  0
   28.9579  -23.7968   14.4751 C   0  0  1  0  0  0  0  0  0  0  0  0
   29.8845  -22.7297   14.0058 C   0  0  0  0  0  0  0  0  0  0  0  0
   30.1404  -22.6332   12.8029 O   0  0  0  0  0  0  0  0  0  0  0  0
   30.4377  -21.8725   14.9196 O   0  0  0  0  0  0  0  0  0  0  0  0
  2  3  1  6
  2  1  1  0
  4  2  1  0
  5  7  1  0
  5  4  1  0
  5  6  1  6
  7 13  1  0
  8  7  2  0
 10  9  1  6
 10 12  1  0
 11 10  1  0
 12 13  1  6
 12 14  1  0
 14 16  1  0
 15 14  2  0
 16 20  1  0
 16 17  1  0
 17 18  1  0
 19 18  1  0
 20 19  1  0
 20 21  1  6
 21 23  1  0
 22 21  2  0
M  END
$$$$
