LTP.pdb
     RDKit          3D

 23 23  0  0  1  0  0  0  0  0999 V2000
   19.7654  -19.8314  -14.5138 C   0  0  0  0  0  0  0  0  0  0  0  0
   20.9103  -20.6243  -13.9263 C   0  0  2  0  0  0  0  0  0  0  0  0
   20.8970  -22.0207  -14.5083 C   0  0  0  0  0  0  0  0  0  0  0  0
   20.7637  -20.6365  -12.4358 C   0  0  0  0  0  0  0  0  0  0  0  0
   21.9627  -21.3369  -11.8407 C   0  0  2  0  0  0  0  0  0  0  0  0
   21.7932  -21.6036  -10.4425 N   0  0  0  0  0  0  0  0  0  0  0  0
   23.2038  -20.5274  -12.1005 C   0  0  0  0  0  0  0  0  0  0  0  0
   23.3645  -19.4582  -11.4654 O   0  0  0  0  0  0  0  0  0  0  0  0
   26.5617  -21.5156  -11.4315 C   0  0  0  0  0  0  0  0  0  0  0  0
   26.5305  -21.2400  -12.9190 C   0  0  1  0  0  0  0  0  0  0  0  0
   26.1612  -22.4568  -13.5377 O   0  0  0  0  0  0  0  0  0  0  0  0
   25.4481  -20.1843  -13.2277 C   0  0  2  0  0  0  0  0  0  0  0  0
   24.1846  -20.9157  -13.0185 N   0  0  0  0  0  0  0  0  0  0  0  0
   25.5572  -19.7421  -14.6390 C   0  0  0  0  0  0  0  0  0  0  0  0
   25.1484  -20.5969  -15.5041 O   0  0  0  0  0  0  0  0  0  0  0  0
   26.0659  -18.4810  -15.0548 N   0  0  0  0  0  0  0  0  0  0  0  0
   26.4311  -17.4140  -14.1841 C   0  0  0  0  0  0  0  0  0  0  0  0
   27.6135  -16.7941  -14.9555 C   0  0  0  0  0  0  0  0  0  0  0  0
   27.0266  -16.8083  -16.3796 C   0  0  0  0  0  0  0  0  0  0  0  0
   26.2252  -18.0907  -16.4170 C   0  0  1  0  0  0  0  0  0  0  0  0
   26.9324  -19.1198  -17.2285 C   0  0  0  0  0  0  0  0  0  0  0  0
   26.8111  -19.1143  -18.4560 O   0  0  0  0  0  0  0  0  0  0  0  0
   27.7066  -20.0563  -16.5965 O   0  0  0  0  0  0  0  0  0  0  0  0
  2  3  1  6
  2  1  1  0
  4  2  1  0
  5  7  1  0
  5  4  1  0
  5  6  1  1
  7 13  1  0
  8  7  2  0
 10  9  1  1
 10 12  1  0
 11 10  1  0
 12 13  1  6
 12 14  1  0
 14 16  1  0
 15 14  2  0
 16 20  1  0
 16 17  1  0
 17 18  1  0
 19 18  1  0
 20 19  1  0
 20 21  1  6
 21 23  1  0
 22 21  2  0
M  END
$$$$
