LTP.pdb
     RDKit          3D

 23 23  0  0  1  0  0  0  0  0999 V2000
   22.0459  -20.2931  -12.9555 C   0  0  0  0  0  0  0  0  0  0  0  0
   23.4748  -19.9636  -12.5889 C   0  0  2  0  0  0  0  0  0  0  0  0
   24.0921  -19.1353  -13.6942 C   0  0  0  0  0  0  0  0  0  0  0  0
   24.2162  -21.2460  -12.3683 C   0  0  0  0  0  0  0  0  0  0  0  0
   24.2522  -21.5312  -10.8851 C   0  0  2  0  0  0  0  0  0  0  0  0
   23.3767  -20.6681  -10.1479 N   0  0  0  0  0  0  0  0  0  0  0  0
   25.6678  -21.4374  -10.3846 C   0  0  0  0  0  0  0  0  0  0  0  0
   26.5369  -22.1755  -10.9063 O   0  0  0  0  0  0  0  0  0  0  0  0
   28.3776  -19.7096  -10.9599 C   0  0  0  0  0  0  0  0  0  0  0  0
   28.0668  -19.3209   -9.5309 C   0  0  1  0  0  0  0  0  0  0  0  0
   27.1230  -18.2704   -9.6045 O   0  0  0  0  0  0  0  0  0  0  0  0
   27.4169  -20.5141   -8.7992 C   0  0  2  0  0  0  0  0  0  0  0  0
   26.0553  -20.5636   -9.3638 N   0  0  0  0  0  0  0  0  0  0  0  0
   27.3585  -20.2459   -7.3418 C   0  0  0  0  0  0  0  0  0  0  0  0
   26.3119  -19.6142   -6.9522 O   0  0  0  0  0  0  0  0  0  0  0  0
   28.3555  -20.6373   -6.4065 N   0  0  0  0  0  0  0  0  0  0  0  0
   29.4563  -21.4965   -6.6892 C   0  0  0  0  0  0  0  0  0  0  0  0
   30.5427  -20.8963   -5.7745 C   0  0  0  0  0  0  0  0  0  0  0  0
   29.7094  -20.6735   -4.4983 C   0  0  0  0  0  0  0  0  0  0  0  0
   28.3539  -20.2640   -5.0303 C   0  0  1  0  0  0  0  0  0  0  0  0
   28.1398  -18.8036   -4.8333 C   0  0  0  0  0  0  0  0  0  0  0  0
   28.2667  -18.0364   -5.7909 O   0  0  0  0  0  0  0  0  0  0  0  0
   27.8052  -18.3366   -3.5900 O   0  0  0  0  0  0  0  0  0  0  0  0
  2  3  1  6
  2  1  1  0
  4  2  1  0
  5  7  1  0
  5  4  1  0
  5  6  1  1
  7 13  1  0
  8  7  2  0
 10  9  1  6
 10 12  1  0
 11 10  1  0
 12 13  1  6
 12 14  1  0
 14 16  1  0
 15 14  2  0
 16 20  1  0
 16 17  1  0
 17 18  1  0
 19 18  1  0
 20 19  1  0
 20 21  1  6
 21 23  1  0
 22 21  2  0
M  END
$$$$
