LTP.pdb
     RDKit          3D

 23 23  0  0  1  0  0  0  0  0999 V2000
   25.9787  -10.1596  -14.8760 C   0  0  0  0  0  0  0  0  0  0  0  0
   26.4885  -10.6356  -16.2170 C   0  0  2  0  0  0  0  0  0  0  0  0
   27.8846  -10.0959  -16.4371 C   0  0  0  0  0  0  0  0  0  0  0  0
   25.5359  -10.1761  -17.2774 C   0  0  0  0  0  0  0  0  0  0  0  0
   24.1758  -10.7681  -16.9908 C   0  0  2  0  0  0  0  0  0  0  0  0
   24.0864  -12.1388  -17.4008 N   0  0  0  0  0  0  0  0  0  0  0  0
   23.1098   -9.9284  -17.6400 C   0  0  0  0  0  0  0  0  0  0  0  0
   22.9852   -9.9789  -18.8867 O   0  0  0  0  0  0  0  0  0  0  0  0
   19.7124  -10.2976  -17.7355 C   0  0  0  0  0  0  0  0  0  0  0  0
   19.8890   -8.9710  -17.0292 C   0  0  1  0  0  0  0  0  0  0  0  0
   20.0386   -9.2726  -15.6557 O   0  0  0  0  0  0  0  0  0  0  0  0
   21.1808   -8.2880  -17.5252 C   0  0  2  0  0  0  0  0  0  0  0  0
   22.2532   -9.0951  -16.9138 N   0  0  0  0  0  0  0  0  0  0  0  0
   21.2415   -6.8926  -17.0268 C   0  0  0  0  0  0  0  0  0  0  0  0
   21.4467   -6.7799  -15.7654 O   0  0  0  0  0  0  0  0  0  0  0  0
   21.0919   -5.7358  -17.8402 N   0  0  0  0  0  0  0  0  0  0  0  0
   21.0353   -5.7331  -19.2638 C   0  0  0  0  0  0  0  0  0  0  0  0
   20.0611   -4.5656  -19.5191 C   0  0  0  0  0  0  0  0  0  0  0  0
   20.6135   -3.5443  -18.5070 C   0  0  0  0  0  0  0  0  0  0  0  0
   21.0362   -4.4032  -17.3357 C   0  0  1  0  0  0  0  0  0  0  0  0
   20.0713   -4.2565  -16.2110 C   0  0  0  0  0  0  0  0  0  0  0  0
   19.2428   -5.1461  -16.0015 O   0  0  0  0  0  0  0  0  0  0  0  0
   20.1206   -3.1344  -15.4273 O   0  0  0  0  0  0  0  0  0  0  0  0
  2  3  1  6
  2  1  1  0
  4  2  1  0
  5  7  1  0
  5  4  1  0
  5  6  1  6
  7 13  1  0
  8  7  2  0
 10  9  1  6
 10 12  1  0
 11 10  1  0
 12 13  1  1
 12 14  1  0
 14 16  1  0
 15 14  2  0
 16 20  1  0
 16 17  1  0
 17 18  1  0
 19 18  1  0
 20 19  1  0
 20 21  1  1
 21 23  1  0
 22 21  2  0
M  END
$$$$
