LTP.pdb
     RDKit          3D

 23 23  0  0  1  0  0  0  0  0999 V2000
   17.4236  -33.5140   -6.1913 C   0  0  0  0  0  0  0  0  0  0  0  0
   18.7726  -32.9577   -6.5856 C   0  0  2  0  0  0  0  0  0  0  0  0
   19.8509  -33.9400   -6.1839 C   0  0  0  0  0  0  0  0  0  0  0  0
   18.9501  -31.6273   -5.9213 C   0  0  0  0  0  0  0  0  0  0  0  0
   17.9304  -30.6673   -6.4880 C   0  0  2  0  0  0  0  0  0  0  0  0
   18.1902  -30.3530   -7.8623 N   0  0  0  0  0  0  0  0  0  0  0  0
   17.8758  -29.4260   -5.6400 C   0  0  0  0  0  0  0  0  0  0  0  0
   18.8679  -28.6591   -5.6375 O   0  0  0  0  0  0  0  0  0  0  0  0
   16.5241  -26.4241   -5.9621 C   0  0  0  0  0  0  0  0  0  0  0  0
   15.8068  -26.9280   -4.7287 C   0  0  1  0  0  0  0  0  0  0  0  0
   14.6706  -27.6305   -5.1928 O   0  0  0  0  0  0  0  0  0  0  0  0
   16.7166  -27.9149   -3.9672 C   0  0  2  0  0  0  0  0  0  0  0  0
   16.7676  -29.0911   -4.8556 N   0  0  0  0  0  0  0  0  0  0  0  0
   16.0981  -28.2786   -2.6695 C   0  0  0  0  0  0  0  0  0  0  0  0
   15.1085  -29.0909   -2.7536 O   0  0  0  0  0  0  0  0  0  0  0  0
   16.5296  -27.7951   -1.4037 N   0  0  0  0  0  0  0  0  0  0  0  0
   17.6293  -26.9145   -1.1912 C   0  0  0  0  0  0  0  0  0  0  0  0
   17.1247  -26.0967    0.0146 C   0  0  0  0  0  0  0  0  0  0  0  0
   16.5352  -27.2353    0.8684 C   0  0  0  0  0  0  0  0  0  0  0  0
   15.9484  -28.1777   -0.1591 C   0  0  1  0  0  0  0  0  0  0  0  0
   14.4627  -28.0767   -0.1658 C   0  0  0  0  0  0  0  0  0  0  0  0
   13.8967  -27.5070   -1.1022 O   0  0  0  0  0  0  0  0  0  0  0  0
   13.7491  -28.6191    0.8698 O   0  0  0  0  0  0  0  0  0  0  0  0
  2  3  1  1
  2  1  1  0
  4  2  1  0
  5  7  1  0
  5  4  1  0
  5  6  1  6
  7 13  1  0
  8  7  2  0
 10  9  1  6
 10 12  1  0
 11 10  1  0
 12 13  1  6
 12 14  1  0
 14 16  1  0
 15 14  2  0
 16 20  1  0
 16 17  1  0
 17 18  1  0
 19 18  1  0
 20 19  1  0
 20 21  1  6
 21 23  1  0
 22 21  2  0
M  END
$$$$
