LTP.pdb
     RDKit          3D

 23 23  0  0  1  0  0  0  0  0999 V2000
   13.6243   -6.4489   -9.8296 C   0  0  0  0  0  0  0  0  0  0  0  0
   14.3910   -7.1986   -8.7644 C   0  0  2  0  0  0  0  0  0  0  0  0
   14.5613   -6.3060   -7.5548 C   0  0  0  0  0  0  0  0  0  0  0  0
   15.7078   -7.6236   -9.3376 C   0  0  0  0  0  0  0  0  0  0  0  0
   15.4478   -8.5238  -10.5228 C   0  0  2  0  0  0  0  0  0  0  0  0
   15.0235   -9.8335  -10.1231 N   0  0  0  0  0  0  0  0  0  0  0  0
   16.6734   -8.5837  -11.3930 C   0  0  0  0  0  0  0  0  0  0  0  0
   17.5994   -9.3647  -11.0692 O   0  0  0  0  0  0  0  0  0  0  0  0
   17.0288   -9.5883  -14.9221 C   0  0  0  0  0  0  0  0  0  0  0  0
   17.4226   -8.1311  -14.8164 C   0  0  1  0  0  0  0  0  0  0  0  0
   16.2271   -7.3886  -14.9550 O   0  0  0  0  0  0  0  0  0  0  0  0
   18.0128   -7.8541  -13.4176 C   0  0  2  0  0  0  0  0  0  0  0  0
   16.8240   -7.8068  -12.5460 N   0  0  0  0  0  0  0  0  0  0  0  0
   18.7074   -6.5439  -13.4094 C   0  0  0  0  0  0  0  0  0  0  0  0
   17.9334   -5.5237  -13.4880 O   0  0  0  0  0  0  0  0  0  0  0  0
   20.1167   -6.3759  -13.3217 N   0  0  0  0  0  0  0  0  0  0  0  0
   21.0592   -7.4256  -13.1222 C   0  0  0  0  0  0  0  0  0  0  0  0
   22.2575   -6.9072  -13.9424 C   0  0  0  0  0  0  0  0  0  0  0  0
   22.2497   -5.4308  -13.5033 C   0  0  0  0  0  0  0  0  0  0  0  0
   20.7774   -5.1129  -13.3642 C   0  0  1  0  0  0  0  0  0  0  0  0
   20.3208   -4.2658  -14.5006 C   0  0  0  0  0  0  0  0  0  0  0  0
   19.7409   -4.7903  -15.4547 O   0  0  0  0  0  0  0  0  0  0  0  0
   20.5531   -2.9165  -14.4667 O   0  0  0  0  0  0  0  0  0  0  0  0
  2  3  1  1
  2  1  1  0
  4  2  1  0
  5  7  1  0
  5  4  1  0
  5  6  1  1
  7 13  1  0
  8  7  2  0
 10  9  1  1
 10 12  1  0
 11 10  1  0
 12 13  1  1
 12 14  1  0
 14 16  1  0
 15 14  2  0
 16 20  1  0
 16 17  1  0
 17 18  1  0
 19 18  1  0
 20 19  1  0
 20 21  1  6
 21 23  1  0
 22 21  2  0
M  END
$$$$
