LTP.pdb
     RDKit          3D

 23 23  0  0  1  0  0  0  0  0999 V2000
   22.4257  -18.9694  -12.0466 C   0  0  0  0  0  0  0  0  0  0  0  0
   22.2176  -20.4635  -12.1419 C   0  0  2  0  0  0  0  0  0  0  0  0
   20.8071  -20.7966  -11.7078 C   0  0  0  0  0  0  0  0  0  0  0  0
   23.2427  -21.1411  -11.2857 C   0  0  0  0  0  0  0  0  0  0  0  0
   24.6153  -20.7120  -11.7489 C   0  0  2  0  0  0  0  0  0  0  0  0
   24.9046  -21.1698  -13.0762 N   0  0  0  0  0  0  0  0  0  0  0  0
   25.6525  -21.1819  -10.7659 C   0  0  0  0  0  0  0  0  0  0  0  0
   25.8260  -22.4156  -10.6232 O   0  0  0  0  0  0  0  0  0  0  0  0
   29.0860  -21.2863  -10.8729 C   0  0  0  0  0  0  0  0  0  0  0  0
   28.7856  -20.3301   -9.7393 C   0  0  1  0  0  0  0  0  0  0  0  0
   28.6068  -19.0590  -10.3326 O   0  0  0  0  0  0  0  0  0  0  0  0
   27.4665  -20.7404   -9.0513 C   0  0  2  0  0  0  0  0  0  0  0  0
   26.4305  -20.3031  -10.0056 N   0  0  0  0  0  0  0  0  0  0  0  0
   27.3176  -20.0171   -7.7653 C   0  0  0  0  0  0  0  0  0  0  0  0
   26.6477  -18.9252   -7.8362 O   0  0  0  0  0  0  0  0  0  0  0  0
   27.8537  -20.4559   -6.5235 N   0  0  0  0  0  0  0  0  0  0  0  0
   28.4715  -21.7192   -6.2949 C   0  0  0  0  0  0  0  0  0  0  0  0
   29.5412  -21.3410   -5.2509 C   0  0  0  0  0  0  0  0  0  0  0  0
   28.7002  -20.4246   -4.3421 C   0  0  0  0  0  0  0  0  0  0  0  0
   27.7914  -19.7042   -5.3134 C   0  0  1  0  0  0  0  0  0  0  0  0
   28.2371  -18.2945   -5.4914 C   0  0  0  0  0  0  0  0  0  0  0  0
   28.7768  -17.9568   -6.5479 O   0  0  0  0  0  0  0  0  0  0  0  0
   28.0397  -17.3957   -4.4770 O   0  0  0  0  0  0  0  0  0  0  0  0
  2  3  1  1
  2  1  1  0
  4  2  1  0
  5  7  1  0
  5  4  1  0
  5  6  1  6
  7 13  1  0
  8  7  2  0
 10  9  1  6
 10 12  1  0
 11 10  1  0
 12 13  1  6
 12 14  1  0
 14 16  1  0
 15 14  2  0
 16 20  1  0
 16 17  1  0
 17 18  1  0
 19 18  1  0
 20 19  1  0
 20 21  1  6
 21 23  1  0
 22 21  2  0
M  END
$$$$
