LTP.pdb
     RDKit          3D

 23 23  0  0  1  0  0  0  0  0999 V2000
   20.7397  -36.5039  -10.9786 C   0  0  0  0  0  0  0  0  0  0  0  0
   21.8965  -37.3879  -11.3850 C   0  0  2  0  0  0  0  0  0  0  0  0
   21.6834  -38.7749  -10.8198 C   0  0  0  0  0  0  0  0  0  0  0  0
   23.1656  -36.7680  -10.8868 C   0  0  0  0  0  0  0  0  0  0  0  0
   23.2371  -35.3464  -11.3931 C   0  0  2  0  0  0  0  0  0  0  0  0
   23.4660  -35.2877  -12.8069 N   0  0  0  0  0  0  0  0  0  0  0  0
   24.2913  -34.5893  -10.6325 C   0  0  0  0  0  0  0  0  0  0  0  0
   25.4122  -34.4223  -11.1693 O   0  0  0  0  0  0  0  0  0  0  0  0
   24.4961  -31.1634   -9.6847 C   0  0  0  0  0  0  0  0  0  0  0  0
   24.4566  -31.9359   -8.3842 C   0  0  1  0  0  0  0  0  0  0  0  0
   23.0887  -32.1114   -8.0713 O   0  0  0  0  0  0  0  0  0  0  0  0
   25.0957  -33.3257   -8.5876 C   0  0  2  0  0  0  0  0  0  0  0  0
   24.0752  -34.0646   -9.3544 N   0  0  0  0  0  0  0  0  0  0  0  0
   25.3228  -33.9777   -7.2752 C   0  0  0  0  0  0  0  0  0  0  0  0
   24.2611  -34.1814   -6.5843 O   0  0  0  0  0  0  0  0  0  0  0  0
   26.5956  -34.3677   -6.7750 N   0  0  0  0  0  0  0  0  0  0  0  0
   27.8392  -34.1580   -7.4379 C   0  0  0  0  0  0  0  0  0  0  0  0
   28.7783  -33.9232   -6.2379 C   0  0  0  0  0  0  0  0  0  0  0  0
   28.2842  -35.0427   -5.3023 C   0  0  0  0  0  0  0  0  0  0  0  0
   26.7934  -35.0807   -5.5561 C   0  0  1  0  0  0  0  0  0  0  0  0
   26.0576  -34.4745   -4.4122 C   0  0  0  0  0  0  0  0  0  0  0  0
   25.5677  -33.3489   -4.5330 O   0  0  0  0  0  0  0  0  0  0  0  0
   25.9374  -35.1786   -3.2435 O   0  0  0  0  0  0  0  0  0  0  0  0
  2  3  1  1
  2  1  1  0
  4  2  1  0
  5  7  1  0
  5  4  1  0
  5  6  1  6
  7 13  1  0
  8  7  2  0
 10  9  1  6
 10 12  1  0
 11 10  1  0
 12 13  1  6
 12 14  1  0
 14 16  1  0
 15 14  2  0
 16 20  1  0
 16 17  1  0
 17 18  1  0
 19 18  1  0
 20 19  1  0
 20 21  1  1
 21 23  1  0
 22 21  2  0
M  END
$$$$
