LTP.pdb
     RDKit          3D

 23 23  0  0  1  0  0  0  0  0999 V2000
   21.6316  -17.1534  -18.6975 C   0  0  0  0  0  0  0  0  0  0  0  0
   20.2574  -16.6307  -19.0483 C   0  0  2  0  0  0  0  0  0  0  0  0
   19.7356  -17.3782  -20.2557 C   0  0  0  0  0  0  0  0  0  0  0  0
   20.3601  -15.1582  -19.3017 C   0  0  0  0  0  0  0  0  0  0  0  0
   20.8109  -14.4818  -18.0282 C   0  0  2  0  0  0  0  0  0  0  0  0
   20.1360  -14.9989  -16.8741 N   0  0  0  0  0  0  0  0  0  0  0  0
   20.6287  -12.9937  -18.1520 C   0  0  0  0  0  0  0  0  0  0  0  0
   21.1715  -12.4027  -19.1156 O   0  0  0  0  0  0  0  0  0  0  0  0
   17.4395  -11.0952  -18.3617 C   0  0  0  0  0  0  0  0  0  0  0  0
   18.1766  -10.5983  -17.1371 C   0  0  1  0  0  0  0  0  0  0  0  0
   17.7608  -11.4222  -16.0656 O   0  0  0  0  0  0  0  0  0  0  0  0
   19.6957  -10.7823  -17.3367 C   0  0  2  0  0  0  0  0  0  0  0  0
   19.8810  -12.2423  -17.2399 N   0  0  0  0  0  0  0  0  0  0  0  0
   20.4376  -10.0980  -16.2503 C   0  0  0  0  0  0  0  0  0  0  0  0
   20.3049  -10.6293  -15.0901 O   0  0  0  0  0  0  0  0  0  0  0  0
   21.2472   -8.9423  -16.4268 N   0  0  0  0  0  0  0  0  0  0  0  0
   21.6882   -8.4309  -17.6813 C   0  0  0  0  0  0  0  0  0  0  0  0
   21.6908   -6.9152  -17.3987 C   0  0  0  0  0  0  0  0  0  0  0  0
   22.3371   -6.9159  -16.0005 C   0  0  0  0  0  0  0  0  0  0  0  0
   21.7796   -8.1657  -15.3559 C   0  0  1  0  0  0  0  0  0  0  0  0
   20.7507   -7.8096  -14.3400 C   0  0  0  0  0  0  0  0  0  0  0  0
   19.5560   -7.8556  -14.6435 O   0  0  0  0  0  0  0  0  0  0  0  0
   21.1495   -7.4365  -13.0840 O   0  0  0  0  0  0  0  0  0  0  0  0
  2  3  1  6
  2  1  1  0
  4  2  1  0
  5  7  1  0
  5  4  1  0
  5  6  1  1
  7 13  1  0
  8  7  2  0
 10  9  1  6
 10 12  1  0
 11 10  1  0
 12 13  1  1
 12 14  1  0
 14 16  1  0
 15 14  2  0
 16 20  1  0
 16 17  1  0
 17 18  1  0
 19 18  1  0
 20 19  1  0
 20 21  1  1
 21 23  1  0
 22 21  2  0
M  END
$$$$
