PTH.pdb
     RDKit          3D

 25 26  0  0  1  0  0  0  0  0999 V2000
    8.8735  -18.5818   17.5611 N   0  0  0  0  0  0  0  0  0  0  0  0
    7.7591  -19.2776   16.9597 C   0  0  0  0  0  0  0  0  0  0  0  0
    6.7167  -18.2693   16.6138 C   0  0  0  0  0  0  0  0  0  0  0  0
    7.0980  -17.0220   17.3757 C   0  0  0  0  0  0  0  0  0  0  0  0
    8.5869  -17.1870   17.5515 C   0  0  1  0  0  0  0  0  0  0  0  0
    9.0998  -16.4904   18.7493 C   0  0  0  0  0  0  0  0  0  0  0  0
   10.3460  -16.3469   18.8620 O   0  0  0  0  0  0  0  0  0  0  0  0
    6.3779  -15.4006   21.7411 C   0  0  0  0  0  0  0  0  0  0  0  0
    7.5299  -14.4494   21.5093 C   0  0  1  0  0  0  0  0  0  0  0  0
    7.8872  -13.8882   22.7079 O   0  0  0  0  0  0  0  0  0  0  0  0
    8.6514  -15.2354   20.8611 C   0  0  2  0  0  0  0  0  0  0  0  0
    8.1934  -16.0053   19.7319 N   0  0  0  0  0  0  0  0  0  0  0  0
    9.0879  -16.2218   21.9120 C   0  0  0  0  0  0  0  0  0  0  0  0
    8.4594  -17.3046   22.0365 O   0  0  0  0  0  0  0  0  0  0  0  0
   10.1888  -15.9719   22.7712 N   0  0  0  0  0  0  0  0  0  0  0  0
   10.5866  -16.9968   23.7123 C   0  0  1  0  0  0  0  0  0  0  0  0
   12.0856  -17.2261   23.6874 C   0  0  0  0  0  0  0  0  0  0  0  0
   12.4811  -17.9193   22.4333 C   0  0  0  0  0  0  0  0  0  0  0  0
   11.7251  -18.6416   21.5445 C   0  0  0  0  0  0  0  0  0  0  0  0
   12.5341  -19.0711   20.5658 N   0  0  0  0  0  0  0  0  0  0  0  0
   13.7856  -18.6297   20.8267 C   0  0  0  0  0  0  0  0  0  0  0  0
   13.7639  -17.9232   21.9685 N   0  0  0  0  0  0  0  0  0  0  0  0
   10.1667  -16.6170   25.0848 C   0  0  0  0  0  0  0  0  0  0  0  0
    9.5268  -15.4138   25.2857 O   0  0  0  0  0  0  0  0  0  0  0  0
   10.3905  -17.3864   26.0693 O   0  0  0  0  0  0  0  0  0  0  0  0
  1  5  1  0
  1  2  1  0
  2  3  1  0
  4  3  1  0
  5  6  1  1
  5  4  1  0
  6  7  2  0
  9  8  1  1
  9 10  1  0
 11  9  1  0
 12  6  1  0
 11 12  1  6
 13 14  2  0
 13 11  1  0
 15 13  1  0
 16 17  1  1
 16 15  1  0
 17 18  1  0
 18 22  1  0
 18 19  2  0
 19 20  1  0
 21 20  1  0
 22 21  2  0
 23 24  1  0
 23 16  1  0
 25 23  2  0
M  END
$$$$
