PTH.pdb
     RDKit          3D

 25 26  0  0  1  0  0  0  0  0999 V2000
    9.6246  -14.3043   19.3284 N   0  0  0  0  0  0  0  0  0  0  0  0
    9.1827  -13.6958   18.0947 C   0  0  0  0  0  0  0  0  0  0  0  0
    8.0108  -12.8267   18.4017 C   0  0  0  0  0  0  0  0  0  0  0  0
    7.5525  -13.2446   19.7790 C   0  0  0  0  0  0  0  0  0  0  0  0
    8.8125  -13.8076   20.3874 C   0  0  1  0  0  0  0  0  0  0  0  0
    8.5396  -14.8252   21.4233 C   0  0  0  0  0  0  0  0  0  0  0  0
    7.7594  -14.5181   22.3632 O   0  0  0  0  0  0  0  0  0  0  0  0
    8.5538  -18.8994   20.7995 C   0  0  0  0  0  0  0  0  0  0  0  0
    9.4382  -18.4662   21.9466 C   0  0  1  0  0  0  0  0  0  0  0  0
   10.7449  -18.4979   21.5332 O   0  0  0  0  0  0  0  0  0  0  0  0
    8.9838  -17.0878   22.3818 C   0  0  2  0  0  0  0  0  0  0  0  0
    9.1516  -16.1061   21.3398 N   0  0  0  0  0  0  0  0  0  0  0  0
    9.9236  -16.7060   23.4948 C   0  0  0  0  0  0  0  0  0  0  0  0
   10.4027  -15.5429   23.5220 O   0  0  0  0  0  0  0  0  0  0  0  0
   10.2897  -17.6163   24.5195 N   0  0  0  0  0  0  0  0  0  0  0  0
   10.4117  -17.1280   25.8764 C   0  0  1  0  0  0  0  0  0  0  0  0
    9.1153  -16.5128   26.3669 C   0  0  0  0  0  0  0  0  0  0  0  0
    9.3905  -15.2622   27.1219 C   0  0  0  0  0  0  0  0  0  0  0  0
   10.5787  -14.6240   27.3751 C   0  0  0  0  0  0  0  0  0  0  0  0
   10.3140  -13.5282   28.1003 N   0  0  0  0  0  0  0  0  0  0  0  0
    8.9786  -13.4689   28.3059 C   0  0  0  0  0  0  0  0  0  0  0  0
    8.4037  -14.5264   27.7106 N   0  0  0  0  0  0  0  0  0  0  0  0
   10.8073  -18.2365   26.7815 C   0  0  0  0  0  0  0  0  0  0  0  0
   11.8501  -18.0490   27.6618 O   0  0  0  0  0  0  0  0  0  0  0  0
   10.1968  -19.3491   26.7520 O   0  0  0  0  0  0  0  0  0  0  0  0
  1  5  1  0
  1  2  1  0
  2  3  1  0
  4  3  1  0
  5  6  1  1
  5  4  1  0
  6  7  2  0
  9  8  1  6
  9 10  1  0
 11  9  1  0
 12  6  1  0
 11 12  1  6
 13 14  2  0
 13 11  1  0
 15 13  1  0
 16 17  1  1
 16 15  1  0
 17 18  1  0
 18 22  1  0
 18 19  2  0
 19 20  1  0
 21 20  1  0
 22 21  2  0
 23 24  1  0
 23 16  1  0
 25 23  2  0
M  END
$$$$
