PTH.pdb
     RDKit          3D

 25 26  0  0  1  0  0  0  0  0999 V2000
    9.9219  -15.6518   14.8422 N   0  0  0  0  0  0  0  0  0  0  0  0
    9.8964  -16.8055   13.9729 C   0  0  0  0  0  0  0  0  0  0  0  0
    8.9909  -17.8223   14.5805 C   0  0  0  0  0  0  0  0  0  0  0  0
    8.7921  -17.3777   16.0103 C   0  0  0  0  0  0  0  0  0  0  0  0
    9.0324  -15.8909   15.9282 C   0  0  1  0  0  0  0  0  0  0  0  0
    9.5196  -15.3214   17.2015 C   0  0  0  0  0  0  0  0  0  0  0  0
   10.7587  -15.1363   17.3312 O   0  0  0  0  0  0  0  0  0  0  0  0
    7.7646  -12.4361   19.4788 C   0  0  0  0  0  0  0  0  0  0  0  0
    7.9704  -13.7276   20.2373 C   0  0  1  0  0  0  0  0  0  0  0  0
    6.7731  -14.3910   20.3130 O   0  0  0  0  0  0  0  0  0  0  0  0
    9.0448  -14.5169   19.5173 C   0  0  2  0  0  0  0  0  0  0  0  0
    8.5972  -14.9997   18.2351 N   0  0  0  0  0  0  0  0  0  0  0  0
    9.2772  -15.7282   20.3814 C   0  0  0  0  0  0  0  0  0  0  0  0
    9.0648  -16.8728   19.9040 O   0  0  0  0  0  0  0  0  0  0  0  0
    9.7297  -15.6238   21.7219 N   0  0  0  0  0  0  0  0  0  0  0  0
   10.5400  -16.6901   22.2704 C   0  0  1  0  0  0  0  0  0  0  0  0
   11.7911  -16.9214   21.4451 C   0  0  0  0  0  0  0  0  0  0  0  0
   11.6287  -18.1246   20.5874 C   0  0  0  0  0  0  0  0  0  0  0  0
   10.5631  -18.9785   20.4524 C   0  0  0  0  0  0  0  0  0  0  0  0
   10.8953  -19.9169   19.5546 N   0  0  0  0  0  0  0  0  0  0  0  0
   12.1525  -19.6649   19.1244 C   0  0  0  0  0  0  0  0  0  0  0  0
   12.6108  -18.5692   19.7509 N   0  0  0  0  0  0  0  0  0  0  0  0
   10.9216  -16.3702   23.6690 C   0  0  0  0  0  0  0  0  0  0  0  0
   11.0278  -17.3897   24.5893 O   0  0  0  0  0  0  0  0  0  0  0  0
   11.1498  -15.1726   24.0229 O   0  0  0  0  0  0  0  0  0  0  0  0
  1  5  1  0
  1  2  1  0
  2  3  1  0
  4  3  1  0
  5  6  1  1
  5  4  1  0
  6  7  2  0
  9  8  1  6
  9 10  1  0
 11  9  1  0
 12  6  1  0
 11 12  1  6
 13 14  2  0
 13 11  1  0
 15 13  1  0
 16 17  1  6
 16 15  1  0
 17 18  1  0
 18 22  1  0
 18 19  2  0
 19 20  1  0
 21 20  1  0
 22 21  2  0
 23 24  1  0
 23 16  1  0
 25 23  2  0
M  END
$$$$
