PTH.pdb
     RDKit          3D

 25 26  0  0  1  0  0  0  0  0999 V2000
   10.3951  -21.2583   16.0980 N   0  0  0  0  0  0  0  0  0  0  0  0
    9.1516  -20.6794   16.5518 C   0  0  0  0  0  0  0  0  0  0  0  0
    9.4752  -19.5246   17.4376 C   0  0  0  0  0  0  0  0  0  0  0  0
   10.9358  -19.6855   17.7873 C   0  0  0  0  0  0  0  0  0  0  0  0
   11.4671  -20.4800   16.6205 C   0  0  1  0  0  0  0  0  0  0  0  0
   12.6453  -21.2972   16.9770 C   0  0  0  0  0  0  0  0  0  0  0  0
   12.4608  -22.5119   17.2542 O   0  0  0  0  0  0  0  0  0  0  0  0
   17.5364  -21.7314   17.2020 C   0  0  0  0  0  0  0  0  0  0  0  0
   16.3682  -20.9040   16.7162 C   0  0  1  0  0  0  0  0  0  0  0  0
   16.3520  -20.9246   15.3455 O   0  0  0  0  0  0  0  0  0  0  0  0
   15.1099  -21.4772   17.3359 C   0  0  2  0  0  0  0  0  0  0  0  0
   13.9390  -20.7070   16.9995 N   0  0  0  0  0  0  0  0  0  0  0  0
   15.3126  -21.3345   18.8213 C   0  0  0  0  0  0  0  0  0  0  0  0
   15.2829  -20.1875   19.3376 O   0  0  0  0  0  0  0  0  0  0  0  0
   15.5372  -22.4537   19.6637 N   0  0  0  0  0  0  0  0  0  0  0  0
   15.6435  -22.2428   21.0914 C   0  0  1  0  0  0  0  0  0  0  0  0
   15.3914  -23.5225   21.8651 C   0  0  0  0  0  0  0  0  0  0  0  0
   15.3751  -23.2480   23.3260 C   0  0  0  0  0  0  0  0  0  0  0  0
   15.5135  -22.0642   24.0061 C   0  0  0  0  0  0  0  0  0  0  0  0
   15.4283  -22.3275   25.3177 N   0  0  0  0  0  0  0  0  0  0  0  0
   15.2386  -23.6578   25.4710 C   0  0  0  0  0  0  0  0  0  0  0  0
   15.2045  -24.2308   24.2569 N   0  0  0  0  0  0  0  0  0  0  0  0
   16.9908  -21.7178   21.4285 C   0  0  0  0  0  0  0  0  0  0  0  0
   17.1022  -20.6497   22.2912 O   0  0  0  0  0  0  0  0  0  0  0  0
   18.0353  -22.2411   20.9318 O   0  0  0  0  0  0  0  0  0  0  0  0
  1  5  1  0
  1  2  1  0
  2  3  1  0
  4  3  1  0
  5  6  1  1
  5  4  1  0
  6  7  2  0
  9  8  1  1
  9 10  1  0
 11  9  1  0
 12  6  1  0
 11 12  1  6
 13 14  2  0
 13 11  1  0
 15 13  1  0
 16 17  1  1
 16 15  1  0
 17 18  1  0
 18 22  1  0
 18 19  2  0
 19 20  1  0
 21 20  1  0
 22 21  2  0
 23 24  1  0
 23 16  1  0
 25 23  2  0
M  END
$$$$
