PTH.pdb
     RDKit          3D

 25 26  0  0  1  0  0  0  0  0999 V2000
    8.9038  -14.6696   18.9678 N   0  0  0  0  0  0  0  0  0  0  0  0
    8.5504  -14.0819   17.6961 C   0  0  0  0  0  0  0  0  0  0  0  0
    7.8918  -12.7706   17.9599 C   0  0  0  0  0  0  0  0  0  0  0  0
    7.5330  -12.7909   19.4270 C   0  0  0  0  0  0  0  0  0  0  0  0
    8.5416  -13.7560   19.9982 C   0  0  1  0  0  0  0  0  0  0  0  0
    8.0544  -14.4340   21.2173 C   0  0  0  0  0  0  0  0  0  0  0  0
    7.7334  -13.7193   22.2035 O   0  0  0  0  0  0  0  0  0  0  0  0
    5.7496  -17.7183   21.0917 C   0  0  0  0  0  0  0  0  0  0  0  0
    6.8975  -17.9129   22.0561 C   0  0  1  0  0  0  0  0  0  0  0  0
    7.8308  -18.7303   21.4727 O   0  0  0  0  0  0  0  0  0  0  0  0
    7.4408  -16.5424   22.4061 C   0  0  2  0  0  0  0  0  0  0  0  0
    7.9595  -15.8525   21.2518 N   0  0  0  0  0  0  0  0  0  0  0  0
    8.6115  -16.8125   23.3141 C   0  0  0  0  0  0  0  0  0  0  0  0
    9.7793  -16.7064   22.8581 O   0  0  0  0  0  0  0  0  0  0  0  0
    8.4432  -17.1845   24.6727 N   0  0  0  0  0  0  0  0  0  0  0  0
    9.2722  -16.5535   25.6772 C   0  0  1  0  0  0  0  0  0  0  0  0
    8.5860  -15.3482   26.2907 C   0  0  0  0  0  0  0  0  0  0  0  0
    9.4131  -14.7879   27.3914 C   0  0  0  0  0  0  0  0  0  0  0  0
   10.5436  -15.2842   27.9903 C   0  0  0  0  0  0  0  0  0  0  0  0
   10.9263  -14.4155   28.9368 N   0  0  0  0  0  0  0  0  0  0  0  0
   10.0537  -13.3823   28.9410 C   0  0  0  0  0  0  0  0  0  0  0  0
    9.1229  -13.6007   27.9981 N   0  0  0  0  0  0  0  0  0  0  0  0
    9.6076  -17.5289   26.7451 C   0  0  0  0  0  0  0  0  0  0  0  0
    9.1034  -18.8088   26.6723 O   0  0  0  0  0  0  0  0  0  0  0  0
   10.3506  -17.1964   27.7192 O   0  0  0  0  0  0  0  0  0  0  0  0
  1  5  1  0
  1  2  1  0
  2  3  1  0
  4  3  1  0
  5  6  1  1
  5  4  1  0
  6  7  2  0
  9  8  1  6
  9 10  1  0
 11  9  1  0
 12  6  1  0
 11 12  1  6
 13 14  2  0
 13 11  1  0
 15 13  1  0
 16 17  1  1
 16 15  1  0
 17 18  1  0
 18 22  1  0
 18 19  2  0
 19 20  1  0
 21 20  1  0
 22 21  2  0
 23 24  1  0
 23 16  1  0
 25 23  2  0
M  END
$$$$
