PTH.pdb
     RDKit          3D

 25 26  0  0  1  0  0  0  0  0999 V2000
    8.9499  -14.7659   17.2578 N   0  0  0  0  0  0  0  0  0  0  0  0
    8.0158  -14.8752   16.1610 C   0  0  0  0  0  0  0  0  0  0  0  0
    7.1517  -13.6602   16.1666 C   0  0  0  0  0  0  0  0  0  0  0  0
    7.3605  -13.0270   17.5220 C   0  0  0  0  0  0  0  0  0  0  0  0
    8.7354  -13.5153   17.9042 C   0  0  1  0  0  0  0  0  0  0  0  0
    8.9278  -13.5883   19.3673 C   0  0  0  0  0  0  0  0  0  0  0  0
    8.4293  -12.6740   20.0759 O   0  0  0  0  0  0  0  0  0  0  0  0
    7.5291  -13.9281   21.7655 C   0  0  0  0  0  0  0  0  0  0  0  0
    8.4187  -15.1273   22.0023 C   0  0  1  0  0  0  0  0  0  0  0  0
    7.8057  -16.2404   21.4879 O   0  0  0  0  0  0  0  0  0  0  0  0
    9.7612  -14.8368   21.3628 C   0  0  2  0  0  0  0  0  0  0  0  0
    9.6580  -14.6686   19.9350 N   0  0  0  0  0  0  0  0  0  0  0  0
   10.5765  -16.0812   21.5964 C   0  0  0  0  0  0  0  0  0  0  0  0
   10.8915  -16.8022   20.6146 O   0  0  0  0  0  0  0  0  0  0  0  0
   11.0043  -16.4716   22.8915 N   0  0  0  0  0  0  0  0  0  0  0  0
   12.4104  -16.7323   23.1134 C   0  0  1  0  0  0  0  0  0  0  0  0
   13.2578  -15.5089   22.8220 C   0  0  0  0  0  0  0  0  0  0  0  0
   13.7941  -15.5702   21.4370 C   0  0  0  0  0  0  0  0  0  0  0  0
   13.6291  -16.5246   20.4650 C   0  0  0  0  0  0  0  0  0  0  0  0
   14.3107  -16.1326   19.3794 N   0  0  0  0  0  0  0  0  0  0  0  0
   14.9008  -14.9473   19.6552 C   0  0  0  0  0  0  0  0  0  0  0  0
   14.5905  -14.5940   20.9131 N   0  0  0  0  0  0  0  0  0  0  0  0
   12.6317  -17.1651   24.5162 C   0  0  0  0  0  0  0  0  0  0  0  0
   13.8669  -17.6502   24.8856 O   0  0  0  0  0  0  0  0  0  0  0  0
   11.6985  -17.0928   25.3737 O   0  0  0  0  0  0  0  0  0  0  0  0
  1  5  1  0
  1  2  1  0
  2  3  1  0
  4  3  1  0
  5  6  1  1
  5  4  1  0
  6  7  2  0
  9  8  1  6
  9 10  1  0
 11  9  1  0
 12  6  1  0
 11 12  1  6
 13 14  2  0
 13 11  1  0
 15 13  1  0
 16 17  1  1
 16 15  1  0
 17 18  1  0
 18 22  1  0
 18 19  2  0
 19 20  1  0
 21 20  1  0
 22 21  2  0
 23 24  1  0
 23 16  1  0
 25 23  2  0
M  END
$$$$
