PTH.pdb
     RDKit          3D

 25 26  0  0  1  0  0  0  0  0999 V2000
    9.3107  -18.4488   20.5655 N   0  0  0  0  0  0  0  0  0  0  0  0
    8.9480  -19.2603   19.4264 C   0  0  0  0  0  0  0  0  0  0  0  0
    9.4969  -18.6102   18.2020 C   0  0  0  0  0  0  0  0  0  0  0  0
    9.8596  -17.2056   18.6231 C   0  0  0  0  0  0  0  0  0  0  0  0
   10.1027  -17.3592   20.1037 C   0  0  1  0  0  0  0  0  0  0  0  0
    9.8514  -16.1119   20.8548 C   0  0  0  0  0  0  0  0  0  0  0  0
   10.7910  -15.2784   20.9487 O   0  0  0  0  0  0  0  0  0  0  0  0
    6.9418  -13.5142   20.3921 C   0  0  0  0  0  0  0  0  0  0  0  0
    6.8809  -14.1398   21.7671 C   0  0  1  0  0  0  0  0  0  0  0  0
    5.9376  -15.1345   21.7583 O   0  0  0  0  0  0  0  0  0  0  0  0
    8.2707  -14.6390   22.1066 C   0  0  2  0  0  0  0  0  0  0  0  0
    8.5782  -15.8821   21.4451 N   0  0  0  0  0  0  0  0  0  0  0  0
    8.2248  -14.9316   23.5831 C   0  0  0  0  0  0  0  0  0  0  0  0
    8.0492  -13.9837   24.3917 O   0  0  0  0  0  0  0  0  0  0  0  0
    8.3734  -16.2453   24.0975 N   0  0  0  0  0  0  0  0  0  0  0  0
    8.4242  -16.4320   25.5317 C   0  0  1  0  0  0  0  0  0  0  0  0
    7.1516  -17.0679   26.0573 C   0  0  0  0  0  0  0  0  0  0  0  0
    6.7926  -18.2564   25.2399 C   0  0  0  0  0  0  0  0  0  0  0  0
    7.4274  -18.8109   24.1571 C   0  0  0  0  0  0  0  0  0  0  0  0
    6.7178  -19.8775   23.7623 N   0  0  0  0  0  0  0  0  0  0  0  0
    5.6479  -20.0006   24.5804 C   0  0  0  0  0  0  0  0  0  0  0  0
    5.6844  -19.0124   25.4890 N   0  0  0  0  0  0  0  0  0  0  0  0
    9.5874  -17.2811   25.8927 C   0  0  0  0  0  0  0  0  0  0  0  0
   10.4213  -17.7413   24.8975 O   0  0  0  0  0  0  0  0  0  0  0  0
    9.8195  -17.5852   27.1031 O   0  0  0  0  0  0  0  0  0  0  0  0
  1  5  1  0
  1  2  1  0
  2  3  1  0
  4  3  1  0
  5  6  1  1
  5  4  1  0
  6  7  2  0
  9  8  1  6
  9 10  1  0
 11  9  1  0
 12  6  1  0
 11 12  1  6
 13 14  2  0
 13 11  1  0
 15 13  1  0
 16 17  1  6
 16 15  1  0
 17 18  1  0
 18 22  1  0
 18 19  2  0
 19 20  1  0
 21 20  1  0
 22 21  2  0
 23 24  1  0
 23 16  1  0
 25 23  2  0
M  END
$$$$
