PTH.pdb
     RDKit          3D

 25 26  0  0  1  0  0  0  0  0999 V2000
    8.1547  -15.3396   17.2208 N   0  0  0  0  0  0  0  0  0  0  0  0
    7.1945  -15.0866   16.1713 C   0  0  0  0  0  0  0  0  0  0  0  0
    7.2838  -13.6453   15.8006 C   0  0  0  0  0  0  0  0  0  0  0  0
    8.0521  -12.9900   16.9239 C   0  0  0  0  0  0  0  0  0  0  0  0
    8.8674  -14.1332   17.4746 C   0  0  1  0  0  0  0  0  0  0  0  0
    9.2027  -13.9577   18.9028 C   0  0  0  0  0  0  0  0  0  0  0  0
    9.8890  -12.9536   19.2303 O   0  0  0  0  0  0  0  0  0  0  0  0
    7.2021  -13.5045   21.9793 C   0  0  0  0  0  0  0  0  0  0  0  0
    7.9295  -14.8159   22.1701 C   0  0  1  0  0  0  0  0  0  0  0  0
    7.0590  -15.8446   21.9181 O   0  0  0  0  0  0  0  0  0  0  0  0
    9.1317  -14.8129   21.2478 C   0  0  2  0  0  0  0  0  0  0  0  0
    8.7525  -14.9077   19.8605 N   0  0  0  0  0  0  0  0  0  0  0  0
    9.8772  -16.0778   21.5826 C   0  0  0  0  0  0  0  0  0  0  0  0
   10.1218  -16.9066   20.6681 O   0  0  0  0  0  0  0  0  0  0  0  0
   10.3160  -16.3695   22.8998 N   0  0  0  0  0  0  0  0  0  0  0  0
   11.3528  -17.3617   23.0868 C   0  0  1  0  0  0  0  0  0  0  0  0
   12.6356  -16.9687   22.3797 C   0  0  0  0  0  0  0  0  0  0  0  0
   13.6883  -17.9918   22.6135 C   0  0  0  0  0  0  0  0  0  0  0  0
   13.6444  -19.1588   23.3342 C   0  0  0  0  0  0  0  0  0  0  0  0
   14.8474  -19.7439   23.2487 N   0  0  0  0  0  0  0  0  0  0  0  0
   15.6451  -18.9624   22.4858 C   0  0  0  0  0  0  0  0  0  0  0  0
   14.9446  -17.8866   22.0917 N   0  0  0  0  0  0  0  0  0  0  0  0
   11.6227  -17.5478   24.5348 C   0  0  0  0  0  0  0  0  0  0  0  0
   12.1889  -18.7260   24.9694 O   0  0  0  0  0  0  0  0  0  0  0  0
   11.3383  -16.6365   25.3714 O   0  0  0  0  0  0  0  0  0  0  0  0
  1  5  1  0
  1  2  1  0
  2  3  1  0
  4  3  1  0
  5  6  1  1
  5  4  1  0
  6  7  2  0
  9  8  1  6
  9 10  1  0
 11  9  1  0
 12  6  1  0
 11 12  1  6
 13 14  2  0
 13 11  1  0
 15 13  1  0
 16 17  1  6
 16 15  1  0
 17 18  1  0
 18 22  1  0
 18 19  2  0
 19 20  1  0
 21 20  1  0
 22 21  2  0
 23 24  1  0
 23 16  1  0
 25 23  2  0
M  END
$$$$
