PTH.pdb
     RDKit          3D

 25 26  0  0  1  0  0  0  0  0999 V2000
    9.4964  -16.0513   18.4357 N   0  0  0  0  0  0  0  0  0  0  0  0
    9.1194  -16.5794   17.1448 C   0  0  0  0  0  0  0  0  0  0  0  0
    8.7869  -15.4307   16.2544 C   0  0  0  0  0  0  0  0  0  0  0  0
    8.6155  -14.2464   17.1762 C   0  0  0  0  0  0  0  0  0  0  0  0
    9.4629  -14.6295   18.3637 C   0  0  1  0  0  0  0  0  0  0  0  0
    8.9990  -14.0049   19.6198 C   0  0  0  0  0  0  0  0  0  0  0  0
    8.8591  -12.7533   19.6416 O   0  0  0  0  0  0  0  0  0  0  0  0
    5.7910  -14.0340   20.9918 C   0  0  0  0  0  0  0  0  0  0  0  0
    6.6165  -14.7860   22.0110 C   0  0  1  0  0  0  0  0  0  0  0  0
    6.5006  -16.1302   21.7682 O   0  0  0  0  0  0  0  0  0  0  0  0
    8.0420  -14.2825   21.9094 C   0  0  2  0  0  0  0  0  0  0  0  0
    8.7251  -14.8138   20.7569 N   0  0  0  0  0  0  0  0  0  0  0  0
    8.7357  -14.8425   23.1230 C   0  0  0  0  0  0  0  0  0  0  0  0
    9.5323  -15.8065   22.9846 O   0  0  0  0  0  0  0  0  0  0  0  0
    8.5217  -14.3188   24.4240 N   0  0  0  0  0  0  0  0  0  0  0  0
    9.2793  -14.8645   25.5297 C   0  0  1  0  0  0  0  0  0  0  0  0
    9.1690  -13.9931   26.7660 C   0  0  0  0  0  0  0  0  0  0  0  0
    9.8112  -14.6617   27.9280 C   0  0  0  0  0  0  0  0  0  0  0  0
   10.3713  -15.9101   28.0328 C   0  0  0  0  0  0  0  0  0  0  0  0
   10.8219  -16.0580   29.2866 N   0  0  0  0  0  0  0  0  0  0  0  0
   10.5533  -14.9221   29.9698 C   0  0  0  0  0  0  0  0  0  0  0  0
    9.9343  -14.0604   29.1466 N   0  0  0  0  0  0  0  0  0  0  0  0
    8.8023  -16.2345   25.8455 C   0  0  0  0  0  0  0  0  0  0  0  0
    9.7045  -17.1787   26.2838 O   0  0  0  0  0  0  0  0  0  0  0  0
    7.5776  -16.5423   25.7162 O   0  0  0  0  0  0  0  0  0  0  0  0
  1  5  1  0
  1  2  1  0
  2  3  1  0
  4  3  1  0
  5  6  1  1
  5  4  1  0
  6  7  2  0
  9  8  1  6
  9 10  1  0
 11  9  1  0
 12  6  1  0
 11 12  1  6
 13 14  2  0
 13 11  1  0
 15 13  1  0
 16 17  1  1
 16 15  1  0
 17 18  1  0
 18 22  1  0
 18 19  2  0
 19 20  1  0
 21 20  1  0
 22 21  2  0
 23 24  1  0
 23 16  1  0
 25 23  2  0
M  END
$$$$
