PTH.pdb
     RDKit          3D

 25 26  0  0  1  0  0  0  0  0999 V2000
    9.4455  -14.4627   19.1023 N   0  0  0  0  0  0  0  0  0  0  0  0
    9.2030  -13.9126   17.7886 C   0  0  0  0  0  0  0  0  0  0  0  0
    8.0550  -12.9664   17.8882 C   0  0  0  0  0  0  0  0  0  0  0  0
    7.3992  -13.2711   19.2143 C   0  0  0  0  0  0  0  0  0  0  0  0
    8.5348  -13.8581   20.0149 C   0  0  1  0  0  0  0  0  0  0  0  0
    8.0709  -14.7919   21.0617 C   0  0  0  0  0  0  0  0  0  0  0  0
    7.1829  -14.3916   21.8603 O   0  0  0  0  0  0  0  0  0  0  0  0
    8.0082  -18.9880   20.7105 C   0  0  0  0  0  0  0  0  0  0  0  0
    8.7359  -18.4270   21.9110 C   0  0  1  0  0  0  0  0  0  0  0  0
   10.0839  -18.4536   21.6626 O   0  0  0  0  0  0  0  0  0  0  0  0
    8.2030  -17.0306   22.1600 C   0  0  2  0  0  0  0  0  0  0  0  0
    8.6257  -16.0987   21.1449 N   0  0  0  0  0  0  0  0  0  0  0  0
    8.8510  -16.5949   23.4477 C   0  0  0  0  0  0  0  0  0  0  0  0
    9.9049  -15.9091   23.4033 O   0  0  0  0  0  0  0  0  0  0  0  0
    8.3122  -16.9323   24.7160 N   0  0  0  0  0  0  0  0  0  0  0  0
    8.9939  -16.4757   25.9081 C   0  0  1  0  0  0  0  0  0  0  0  0
    8.0409  -15.7909   26.8686 C   0  0  0  0  0  0  0  0  0  0  0  0
    7.5491  -14.5148   26.2859 C   0  0  0  0  0  0  0  0  0  0  0  0
    8.1094  -13.7029   25.3321 C   0  0  0  0  0  0  0  0  0  0  0  0
    7.2868  -12.6624   25.1385 N   0  0  0  0  0  0  0  0  0  0  0  0
    6.2193  -12.8088   25.9559 C   0  0  0  0  0  0  0  0  0  0  0  0
    6.3703  -13.9404   26.6630 N   0  0  0  0  0  0  0  0  0  0  0  0
    9.6462  -17.6216   26.5907 C   0  0  0  0  0  0  0  0  0  0  0  0
   10.4593  -17.3854   27.6773 O   0  0  0  0  0  0  0  0  0  0  0  0
    9.4626  -18.8102   26.1847 O   0  0  0  0  0  0  0  0  0  0  0  0
  1  5  1  0
  1  2  1  0
  2  3  1  0
  4  3  1  0
  5  6  1  1
  5  4  1  0
  6  7  2  0
  9  8  1  6
  9 10  1  0
 11  9  1  0
 12  6  1  0
 11 12  1  6
 13 14  2  0
 13 11  1  0
 15 13  1  0
 16 17  1  1
 16 15  1  0
 17 18  1  0
 18 22  1  0
 18 19  2  0
 19 20  1  0
 21 20  1  0
 22 21  2  0
 23 24  1  0
 23 16  1  0
 25 23  2  0
M  END
$$$$
