PTH.pdb
     RDKit          3D

 25 26  0  0  1  0  0  0  0  0999 V2000
    8.4367  -14.5798   18.6933 N   0  0  0  0  0  0  0  0  0  0  0  0
    7.9524  -13.4916   17.8755 C   0  0  0  0  0  0  0  0  0  0  0  0
    7.6209  -12.3494   18.7747 C   0  0  0  0  0  0  0  0  0  0  0  0
    7.5674  -12.9372   20.1651 C   0  0  0  0  0  0  0  0  0  0  0  0
    8.4689  -14.1407   20.0476 C   0  0  1  0  0  0  0  0  0  0  0  0
    8.1176  -15.2111   21.0035 C   0  0  0  0  0  0  0  0  0  0  0  0
    6.9119  -15.5686   21.0746 O   0  0  0  0  0  0  0  0  0  0  0  0
    9.1933  -19.1631   23.4634 C   0  0  0  0  0  0  0  0  0  0  0  0
    9.6905  -18.0810   22.5321 C   0  0  1  0  0  0  0  0  0  0  0  0
    9.6526  -18.5536   21.2458 O   0  0  0  0  0  0  0  0  0  0  0  0
    8.8215  -16.8578   22.7437 C   0  0  2  0  0  0  0  0  0  0  0  0
    9.1284  -15.8049   21.8085 N   0  0  0  0  0  0  0  0  0  0  0  0
    9.1981  -16.3495   24.1103 C   0  0  0  0  0  0  0  0  0  0  0  0
   10.2936  -15.7497   24.2618 O   0  0  0  0  0  0  0  0  0  0  0  0
    8.3567  -16.5241   25.2391 N   0  0  0  0  0  0  0  0  0  0  0  0
    8.7422  -15.9216   26.4972 C   0  0  1  0  0  0  0  0  0  0  0  0
    7.5817  -15.1915   27.1454 C   0  0  0  0  0  0  0  0  0  0  0  0
    7.3445  -13.8916   26.4646 C   0  0  0  0  0  0  0  0  0  0  0  0
    8.0871  -13.2436   25.5098 C   0  0  0  0  0  0  0  0  0  0  0  0
    7.4622  -12.0971   25.2065 N   0  0  0  0  0  0  0  0  0  0  0  0
    6.3394  -12.0158   25.9560 C   0  0  0  0  0  0  0  0  0  0  0  0
    6.2580  -13.1101   26.7301 N   0  0  0  0  0  0  0  0  0  0  0  0
    9.2517  -16.9633   27.4243 C   0  0  0  0  0  0  0  0  0  0  0  0
    9.8849  -16.5807   28.5864 O   0  0  0  0  0  0  0  0  0  0  0  0
    9.1102  -18.1962   27.1577 O   0  0  0  0  0  0  0  0  0  0  0  0
  1  5  1  0
  1  2  1  0
  2  3  1  0
  4  3  1  0
  5  6  1  1
  5  4  1  0
  6  7  2  0
  9  8  1  1
  9 10  1  0
 11  9  1  0
 12  6  1  0
 11 12  1  6
 13 14  2  0
 13 11  1  0
 15 13  1  0
 16 17  1  1
 16 15  1  0
 17 18  1  0
 18 22  1  0
 18 19  2  0
 19 20  1  0
 21 20  1  0
 22 21  2  0
 23 24  1  0
 23 16  1  0
 25 23  2  0
M  END
$$$$
