HMQ.pdb
     RDKit          3D

 28 28  0  0  1  0  0  0  0  0999 V2000
    9.2361  -16.3270   19.5239 N   0  0  0  0  0  0  0  0  0  0  0  0
    8.2320  -16.4915   20.5267 C   0  0  1  0  0  0  0  0  0  0  0  0
    7.9055  -17.9662   20.6758 C   0  0  0  0  0  0  0  0  0  0  0  0
    7.2517  -18.4664   19.4412 C   0  0  0  0  0  0  0  0  0  0  0  0
    5.9022  -18.4165   19.1017 C   0  0  0  0  0  0  0  0  0  0  0  0
    5.7547  -18.9863   17.8906 N   0  0  0  0  0  0  0  0  0  0  0  0
    6.9513  -19.3908   17.4567 C   0  0  0  0  0  0  0  0  0  0  0  0
    7.8639  -19.0733   18.4029 N   0  0  0  0  0  0  0  0  0  0  0  0
    8.6002  -15.8825   21.8294 C   0  0  0  0  0  0  0  0  0  0  0  0
    9.7958  -16.0568   22.2144 O   0  0  0  0  0  0  0  0  0  0  0  0
    6.6261  -11.0756   27.8408 C   0  0  0  0  0  0  0  0  0  0  0  0
    6.1544  -11.8059   26.2629 S   0  0  0  0  0  0  0  0  0  0  0  0
    7.4188  -13.0245   25.7411 C   0  0  0  0  0  0  0  0  0  0  0  0
    7.0604  -13.5816   24.3978 C   0  0  0  0  0  0  0  0  0  0  0  0
    8.0726  -14.5656   23.9363 C   0  0  2  0  0  0  0  0  0  0  0  0
    7.7126  -15.1401   22.6386 N   0  0  0  0  0  0  0  0  0  0  0  0
    8.2429  -15.6913   24.8678 C   0  0  0  0  0  0  0  0  0  0  0  0
    7.4321  -16.6392   25.0262 O   0  0  0  0  0  0  0  0  0  0  0  0
    8.6798  -20.3983   24.3677 N   0  0  0  0  0  0  0  0  0  0  0  0
    9.7345  -20.3704   25.3343 C   0  0  0  0  0  0  0  0  0  0  0  0
    9.8105  -21.2782   26.2001 O   0  0  0  0  0  0  0  0  0  0  0  0
   10.7516  -19.2901   25.3444 C   0  0  0  0  0  0  0  0  0  0  0  0
   10.1034  -18.0027   24.9942 C   0  0  0  0  0  0  0  0  0  0  0  0
    9.9464  -17.0558   26.1602 C   0  0  2  0  0  0  0  0  0  0  0  0
    9.4086  -15.8043   25.7147 N   0  0  0  0  0  0  0  0  0  0  0  0
   11.1556  -16.9318   26.9714 C   0  0  0  0  0  0  0  0  0  0  0  0
   11.3573  -17.6783   27.9623 O   0  0  0  0  0  0  0  0  0  0  0  0
   12.1409  -15.9960   26.7013 O   0  0  0  0  0  0  0  0  0  0  0  0
  2  1  1  6
  2  3  1  0
  3  4  1  0
  4  8  1  0
  5  6  1  0
  5  4  2  0
  6  7  1  0
  7  8  2  0
  9  2  1  0
  9 10  2  0
 12 11  1  0
 13 14  1  0
 13 12  1  0
 15 14  1  1
 15 16  1  0
 16  9  1  0
 17 25  1  0
 17 15  1  0
 18 17  2  0
 19 20  1  0
 20 21  2  0
 20 22  1  0
 22 23  1  0
 24 23  1  6
 24 25  1  0
 24 26  1  0
 26 27  2  0
 26 28  1  0
M  END
$$$$
