HMQ.pdb
     RDKit          3D

 28 28  0  0  1  0  0  0  0  0999 V2000
    9.0506  -17.1844   20.5578 N   0  0  0  0  0  0  0  0  0  0  0  0
   10.3287  -16.8812   21.1195 C   0  0  1  0  0  0  0  0  0  0  0  0
   11.1947  -16.2107   20.0688 C   0  0  0  0  0  0  0  0  0  0  0  0
   11.3577  -17.1097   18.8995 C   0  0  0  0  0  0  0  0  0  0  0  0
   11.1560  -18.4861   18.8380 C   0  0  0  0  0  0  0  0  0  0  0  0
   11.4200  -18.8912   17.5812 N   0  0  0  0  0  0  0  0  0  0  0  0
   11.7779  -17.8303   16.8532 C   0  0  0  0  0  0  0  0  0  0  0  0
   11.7396  -16.7440   17.6579 N   0  0  0  0  0  0  0  0  0  0  0  0
   10.2458  -16.0648   22.3565 C   0  0  0  0  0  0  0  0  0  0  0  0
   11.3489  -15.7160   22.8757 O   0  0  0  0  0  0  0  0  0  0  0  0
    6.2786  -11.6566   27.5519 C   0  0  0  0  0  0  0  0  0  0  0  0
    6.3181  -12.4175   25.9194 S   0  0  0  0  0  0  0  0  0  0  0  0
    7.6856  -13.6336   25.8351 C   0  0  0  0  0  0  0  0  0  0  0  0
    7.7793  -14.1942   24.4494 C   0  0  0  0  0  0  0  0  0  0  0  0
    8.9448  -15.1050   24.3155 C   0  0  2  0  0  0  0  0  0  0  0  0
    9.0359  -15.6681   22.9671 N   0  0  0  0  0  0  0  0  0  0  0  0
    8.8936  -16.2410   25.2487 C   0  0  0  0  0  0  0  0  0  0  0  0
    7.8768  -16.9368   25.4996 O   0  0  0  0  0  0  0  0  0  0  0  0
   13.4729  -19.6086   25.8873 N   0  0  0  0  0  0  0  0  0  0  0  0
   12.4967  -19.4508   24.8529 C   0  0  0  0  0  0  0  0  0  0  0  0
   12.8123  -19.6799   23.6581 O   0  0  0  0  0  0  0  0  0  0  0  0
   11.1088  -19.0203   25.1527 C   0  0  0  0  0  0  0  0  0  0  0  0
   10.9624  -18.8197   26.6150 C   0  0  0  0  0  0  0  0  0  0  0  0
   10.0328  -17.6904   26.9910 C   0  0  2  0  0  0  0  0  0  0  0  0
   10.0606  -16.6688   25.9861 N   0  0  0  0  0  0  0  0  0  0  0  0
   10.2422  -17.1972   28.3506 C   0  0  0  0  0  0  0  0  0  0  0  0
   10.1933  -17.9697   29.3408 O   0  0  0  0  0  0  0  0  0  0  0  0
   10.5042  -15.8652   28.6276 O   0  0  0  0  0  0  0  0  0  0  0  0
  2  1  1  6
  2  3  1  0
  3  4  1  0
  4  8  1  0
  5  6  1  0
  5  4  2  0
  6  7  1  0
  7  8  2  0
  9  2  1  0
  9 10  2  0
 12 11  1  0
 13 14  1  0
 13 12  1  0
 15 14  1  6
 15 16  1  0
 16  9  1  0
 17 25  1  0
 17 15  1  0
 18 17  2  0
 19 20  1  0
 20 21  2  0
 20 22  1  0
 22 23  1  0
 24 23  1  6
 24 25  1  0
 24 26  1  0
 26 27  2  0
 26 28  1  0
M  END
$$$$
