HMQ.pdb
     RDKit          3D

 28 28  0  0  1  0  0  0  0  0999 V2000
    7.3950  -13.5285   19.4837 N   0  0  0  0  0  0  0  0  0  0  0  0
    8.1597  -14.6374   19.9598 C   0  0  1  0  0  0  0  0  0  0  0  0
    9.3514  -14.8573   19.0458 C   0  0  0  0  0  0  0  0  0  0  0  0
    8.8927  -14.9917   17.6410 C   0  0  0  0  0  0  0  0  0  0  0  0
    8.4119  -13.9965   16.7941 C   0  0  0  0  0  0  0  0  0  0  0  0
    8.1116  -14.5643   15.6106 N   0  0  0  0  0  0  0  0  0  0  0  0
    8.3828  -15.8702   15.6785 C   0  0  0  0  0  0  0  0  0  0  0  0
    8.8592  -16.1302   16.9172 N   0  0  0  0  0  0  0  0  0  0  0  0
    8.5809  -14.4932   21.3759 C   0  0  0  0  0  0  0  0  0  0  0  0
    9.8245  -14.5869   21.6056 O   0  0  0  0  0  0  0  0  0  0  0  0
    7.1097  -11.6040   28.5554 C   0  0  0  0  0  0  0  0  0  0  0  0
    6.4746  -11.9562   26.9067 S   0  0  0  0  0  0  0  0  0  0  0  0
    7.6335  -13.0631   26.0192 C   0  0  0  0  0  0  0  0  0  0  0  0
    7.1772  -13.2436   24.6042 C   0  0  0  0  0  0  0  0  0  0  0  0
    8.1149  -14.1079   23.8428 C   0  0  2  0  0  0  0  0  0  0  0  0
    7.6929  -14.2636   22.4495 N   0  0  0  0  0  0  0  0  0  0  0  0
    8.2311  -15.4617   24.4063 C   0  0  0  0  0  0  0  0  0  0  0  0
    7.6601  -16.4905   23.9630 O   0  0  0  0  0  0  0  0  0  0  0  0
   12.1606  -19.8708   22.6768 N   0  0  0  0  0  0  0  0  0  0  0  0
   12.2458  -18.6793   23.4645 C   0  0  0  0  0  0  0  0  0  0  0  0
   13.0276  -17.7581   23.1185 O   0  0  0  0  0  0  0  0  0  0  0  0
   11.4298  -18.4976   24.6904 C   0  0  0  0  0  0  0  0  0  0  0  0
   10.5835  -17.2886   24.5417 C   0  0  0  0  0  0  0  0  0  0  0  0
    9.7637  -16.9573   25.7660 C   0  0  2  0  0  0  0  0  0  0  0  0
    9.0480  -15.7315   25.5677 N   0  0  0  0  0  0  0  0  0  0  0  0
   10.5327  -17.0061   27.0077 C   0  0  0  0  0  0  0  0  0  0  0  0
   10.7799  -15.9636   27.6648 O   0  0  0  0  0  0  0  0  0  0  0  0
   11.0300  -18.1892   27.5298 O   0  0  0  0  0  0  0  0  0  0  0  0
  2  1  1  6
  2  3  1  0
  3  4  1  0
  4  8  1  0
  5  6  1  0
  5  4  2  0
  6  7  1  0
  7  8  2  0
  9  2  1  0
  9 10  2  0
 12 11  1  0
 13 14  1  0
 13 12  1  0
 15 14  1  1
 15 16  1  0
 16  9  1  0
 17 25  1  0
 17 15  1  0
 18 17  2  0
 19 20  1  0
 20 21  2  0
 20 22  1  0
 22 23  1  0
 24 23  1  6
 24 25  1  0
 24 26  1  0
 26 27  2  0
 26 28  1  0
M  END
$$$$
