HMQ.pdb
     RDKit          3D

 28 28  0  0  1  0  0  0  0  0999 V2000
    9.0967  -12.5779   19.2773 N   0  0  0  0  0  0  0  0  0  0  0  0
    8.6068  -13.7997   19.8323 C   0  0  1  0  0  0  0  0  0  0  0  0
    9.1587  -14.9704   19.0394 C   0  0  0  0  0  0  0  0  0  0  0  0
    8.5485  -14.9972   17.6870 C   0  0  0  0  0  0  0  0  0  0  0  0
    7.7684  -14.0191   17.0757 C   0  0  0  0  0  0  0  0  0  0  0  0
    7.4283  -14.4615   15.8503 N   0  0  0  0  0  0  0  0  0  0  0  0
    7.9604  -15.6726   15.6669 C   0  0  0  0  0  0  0  0  0  0  0  0
    8.6435  -15.9988   16.7876 N   0  0  0  0  0  0  0  0  0  0  0  0
    8.8950  -13.9415   21.2816 C   0  0  0  0  0  0  0  0  0  0  0  0
   10.0767  -13.6663   21.6501 O   0  0  0  0  0  0  0  0  0  0  0  0
    6.2100  -11.2140   27.3213 C   0  0  0  0  0  0  0  0  0  0  0  0
    5.6483  -12.7519   26.5697 S   0  0  0  0  0  0  0  0  0  0  0  0
    7.0729  -13.6403   25.8366 C   0  0  0  0  0  0  0  0  0  0  0  0
    6.8797  -13.7725   24.3573 C   0  0  0  0  0  0  0  0  0  0  0  0
    8.1310  -14.2120   23.6888 C   0  0  2  0  0  0  0  0  0  0  0  0
    7.9475  -14.3554   22.2433 N   0  0  0  0  0  0  0  0  0  0  0  0
    8.6214  -15.5067   24.1861 C   0  0  0  0  0  0  0  0  0  0  0  0
    8.2583  -16.6360   23.7690 O   0  0  0  0  0  0  0  0  0  0  0  0
   11.4596  -16.0384   29.7663 N   0  0  0  0  0  0  0  0  0  0  0  0
   11.3987  -17.4047   29.3454 C   0  0  0  0  0  0  0  0  0  0  0  0
   11.7822  -18.3142   30.1234 O   0  0  0  0  0  0  0  0  0  0  0  0
   10.8908  -17.7830   28.0035 C   0  0  0  0  0  0  0  0  0  0  0  0
   10.5538  -16.5553   27.2425 C   0  0  0  0  0  0  0  0  0  0  0  0
    9.9998  -16.8195   25.8626 C   0  0  2  0  0  0  0  0  0  0  0  0
    9.6046  -15.5895   25.2421 N   0  0  0  0  0  0  0  0  0  0  0  0
    8.9709  -17.8571   25.8414 C   0  0  0  0  0  0  0  0  0  0  0  0
    9.2036  -18.9987   25.3698 O   0  0  0  0  0  0  0  0  0  0  0  0
    7.6926  -17.6486   26.3334 O   0  0  0  0  0  0  0  0  0  0  0  0
  2  1  1  6
  2  3  1  0
  3  4  1  0
  4  8  1  0
  5  6  1  0
  5  4  2  0
  6  7  1  0
  7  8  2  0
  9  2  1  0
  9 10  2  0
 12 11  1  0
 13 14  1  0
 13 12  1  0
 15 14  1  1
 15 16  1  0
 16  9  1  0
 17 25  1  0
 17 15  1  0
 18 17  2  0
 19 20  1  0
 20 21  2  0
 20 22  1  0
 22 23  1  0
 24 23  1  1
 24 25  1  0
 24 26  1  0
 26 27  2  0
 26 28  1  0
M  END
$$$$
