HMQ.pdb
     RDKit          3D

 28 28  0  0  1  0  0  0  0  0999 V2000
    9.5480  -16.1324   19.3455 N   0  0  0  0  0  0  0  0  0  0  0  0
    8.5723  -16.5041   20.3206 C   0  0  1  0  0  0  0  0  0  0  0  0
    8.4221  -18.0144   20.3330 C   0  0  0  0  0  0  0  0  0  0  0  0
    7.8957  -18.4806   19.0263 C   0  0  0  0  0  0  0  0  0  0  0  0
    6.5968  -18.3765   18.5356 C   0  0  0  0  0  0  0  0  0  0  0  0
    6.5677  -18.9319   17.3092 N   0  0  0  0  0  0  0  0  0  0  0  0
    7.7901  -19.3789   17.0102 C   0  0  0  0  0  0  0  0  0  0  0  0
    8.5996  -19.1033   18.0579 N   0  0  0  0  0  0  0  0  0  0  0  0
    8.8689  -15.9768   21.6762 C   0  0  0  0  0  0  0  0  0  0  0  0
    9.9402  -16.3861   22.2174 O   0  0  0  0  0  0  0  0  0  0  0  0
    6.6460  -11.3316   27.7440 C   0  0  0  0  0  0  0  0  0  0  0  0
    6.3002  -11.9161   26.0753 S   0  0  0  0  0  0  0  0  0  0  0  0
    7.5401  -13.1741   25.5896 C   0  0  0  0  0  0  0  0  0  0  0  0
    7.3099  -13.5892   24.1691 C   0  0  0  0  0  0  0  0  0  0  0  0
    8.3034  -14.6055   23.7381 C   0  0  2  0  0  0  0  0  0  0  0  0
    8.0427  -15.0688   22.3739 N   0  0  0  0  0  0  0  0  0  0  0  0
    8.3119  -15.7986   24.5985 C   0  0  0  0  0  0  0  0  0  0  0  0
    7.4442  -16.7086   24.5966 O   0  0  0  0  0  0  0  0  0  0  0  0
   11.3724  -19.8488   23.1539 N   0  0  0  0  0  0  0  0  0  0  0  0
   11.3990  -20.2916   24.5144 C   0  0  0  0  0  0  0  0  0  0  0  0
   12.0206  -21.3415   24.8159 O   0  0  0  0  0  0  0  0  0  0  0  0
   10.7071  -19.5399   25.5904 C   0  0  0  0  0  0  0  0  0  0  0  0
   10.3569  -18.1860   25.0959 C   0  0  0  0  0  0  0  0  0  0  0  0
    9.6589  -17.3196   26.1172 C   0  0  2  0  0  0  0  0  0  0  0  0
    9.3659  -16.0323   25.5593 N   0  0  0  0  0  0  0  0  0  0  0  0
   10.3508  -17.2702   27.4034 C   0  0  0  0  0  0  0  0  0  0  0  0
   10.3026  -18.2338   28.2090 O   0  0  0  0  0  0  0  0  0  0  0  0
   11.0927  -16.1723   27.8083 O   0  0  0  0  0  0  0  0  0  0  0  0
  2  1  1  6
  2  3  1  0
  3  4  1  0
  4  8  1  0
  5  6  1  0
  5  4  2  0
  6  7  1  0
  7  8  2  0
  9  2  1  0
  9 10  2  0
 12 11  1  0
 13 14  1  0
 13 12  1  0
 15 14  1  1
 15 16  1  0
 16  9  1  0
 17 25  1  0
 17 15  1  0
 18 17  2  0
 19 20  1  0
 20 21  2  0
 20 22  1  0
 22 23  1  0
 24 23  1  6
 24 25  1  0
 24 26  1  0
 26 27  2  0
 26 28  1  0
M  END
$$$$
