HMQ.pdb
     RDKit          3D

 28 28  0  0  1  0  0  0  0  0999 V2000
   10.1050  -15.7739   19.7074 N   0  0  0  0  0  0  0  0  0  0  0  0
    8.9177  -15.9721   20.4767 C   0  0  1  0  0  0  0  0  0  0  0  0
    8.4486  -17.4070   20.3190 C   0  0  0  0  0  0  0  0  0  0  0  0
    8.0684  -17.6620   18.9076 C   0  0  0  0  0  0  0  0  0  0  0  0
    7.4394  -16.7967   18.0162 C   0  0  0  0  0  0  0  0  0  0  0  0
    7.2879  -17.4419   16.8441 N   0  0  0  0  0  0  0  0  0  0  0  0
    7.7937  -18.6723   16.9616 C   0  0  0  0  0  0  0  0  0  0  0  0
    8.2696  -18.8059   18.2204 N   0  0  0  0  0  0  0  0  0  0  0  0
    9.0790  -15.6077   21.9067 C   0  0  0  0  0  0  0  0  0  0  0  0
   10.2195  -15.8231   22.4173 O   0  0  0  0  0  0  0  0  0  0  0  0
    6.8386  -10.5874   26.7151 C   0  0  0  0  0  0  0  0  0  0  0  0
    6.0640  -12.2030   26.5265 S   0  0  0  0  0  0  0  0  0  0  0  0
    7.3212  -13.4392   26.0294 C   0  0  0  0  0  0  0  0  0  0  0  0
    7.1689  -13.7586   24.5741 C   0  0  0  0  0  0  0  0  0  0  0  0
    8.2144  -14.7108   24.1202 C   0  0  2  0  0  0  0  0  0  0  0  0
    8.0564  -15.0493   22.7045 N   0  0  0  0  0  0  0  0  0  0  0  0
    8.1963  -15.9788   24.8657 C   0  0  0  0  0  0  0  0  0  0  0  0
    7.4339  -16.9520   24.6361 O   0  0  0  0  0  0  0  0  0  0  0  0
   13.1968  -19.9098   24.6616 N   0  0  0  0  0  0  0  0  0  0  0  0
   11.8597  -19.4813   24.3856 C   0  0  0  0  0  0  0  0  0  0  0  0
   11.1135  -20.1920   23.6661 O   0  0  0  0  0  0  0  0  0  0  0  0
   11.3230  -18.2093   24.9294 C   0  0  0  0  0  0  0  0  0  0  0  0
    9.8970  -18.3944   25.2934 C   0  0  0  0  0  0  0  0  0  0  0  0
    9.4384  -17.5290   26.4430 C   0  0  2  0  0  0  0  0  0  0  0  0
    9.0938  -16.2198   25.9726 N   0  0  0  0  0  0  0  0  0  0  0  0
   10.3629  -17.5332   27.5748 C   0  0  0  0  0  0  0  0  0  0  0  0
   10.5320  -18.5620   28.2768 O   0  0  0  0  0  0  0  0  0  0  0  0
   11.1000  -16.4179   27.9385 O   0  0  0  0  0  0  0  0  0  0  0  0
  2  1  1  6
  2  3  1  0
  3  4  1  0
  4  8  1  0
  5  6  1  0
  5  4  2  0
  6  7  1  0
  7  8  2  0
  9  2  1  0
  9 10  2  0
 12 11  1  0
 13 14  1  0
 13 12  1  0
 15 14  1  1
 15 16  1  0
 16  9  1  0
 17 25  1  0
 17 15  1  0
 18 17  2  0
 19 20  1  0
 20 21  2  0
 20 22  1  0
 22 23  1  0
 24 23  1  6
 24 25  1  0
 24 26  1  0
 26 27  2  0
 26 28  1  0
M  END
$$$$
