HMQ.pdb
     RDKit          3D

 28 28  0  0  1  0  0  0  0  0999 V2000
   10.1072  -13.4825   20.2019 N   0  0  0  0  0  0  0  0  0  0  0  0
    8.9628  -14.0683   20.8248 C   0  0  1  0  0  0  0  0  0  0  0  0
    8.5232  -15.2841   20.0297 C   0  0  0  0  0  0  0  0  0  0  0  0
    8.0627  -14.8672   18.6821 C   0  0  0  0  0  0  0  0  0  0  0  0
    8.1583  -13.6099   18.0912 C   0  0  0  0  0  0  0  0  0  0  0  0
    7.6127  -13.6833   16.8624 N   0  0  0  0  0  0  0  0  0  0  0  0
    7.1798  -14.9299   16.6574 C   0  0  0  0  0  0  0  0  0  0  0  0
    7.4546  -15.6515   17.7677 N   0  0  0  0  0  0  0  0  0  0  0  0
    9.1819  -14.4044   22.2540 C   0  0  0  0  0  0  0  0  0  0  0  0
   10.3629  -14.7306   22.5809 O   0  0  0  0  0  0  0  0  0  0  0  0
    6.5755  -12.2052   28.1308 C   0  0  0  0  0  0  0  0  0  0  0  0
    6.0994  -11.7621   26.4507 S   0  0  0  0  0  0  0  0  0  0  0  0
    7.2635  -12.5197   25.2562 C   0  0  0  0  0  0  0  0  0  0  0  0
    7.3571  -13.9934   25.5063 C   0  0  0  0  0  0  0  0  0  0  0  0
    8.4109  -14.6158   24.6649 C   0  0  2  0  0  0  0  0  0  0  0  0
    8.1712  -14.3801   23.2399 N   0  0  0  0  0  0  0  0  0  0  0  0
    8.5018  -16.0728   24.8461 C   0  0  0  0  0  0  0  0  0  0  0  0
    7.5620  -16.8912   24.6784 O   0  0  0  0  0  0  0  0  0  0  0  0
   13.5948  -18.5581   24.0877 N   0  0  0  0  0  0  0  0  0  0  0  0
   12.5591  -18.3575   23.1209 C   0  0  0  0  0  0  0  0  0  0  0  0
   12.8610  -18.1311   21.9221 O   0  0  0  0  0  0  0  0  0  0  0  0
   11.1245  -18.4095   23.4962 C   0  0  0  0  0  0  0  0  0  0  0  0
   11.0060  -18.7405   24.9372 C   0  0  0  0  0  0  0  0  0  0  0  0
    9.8270  -18.0915   25.6224 C   0  0  2  0  0  0  0  0  0  0  0  0
    9.7342  -16.7107   25.2498 N   0  0  0  0  0  0  0  0  0  0  0  0
    9.7961  -18.3247   27.0647 C   0  0  0  0  0  0  0  0  0  0  0  0
    9.8470  -19.4870   27.5401 O   0  0  0  0  0  0  0  0  0  0  0  0
    9.7100  -17.2920   27.9844 O   0  0  0  0  0  0  0  0  0  0  0  0
  2  1  1  6
  2  3  1  0
  3  4  1  0
  4  8  1  0
  5  6  1  0
  5  4  2  0
  6  7  1  0
  7  8  2  0
  9  2  1  0
  9 10  2  0
 12 11  1  0
 13 14  1  0
 13 12  1  0
 15 14  1  1
 15 16  1  0
 16  9  1  0
 17 25  1  0
 17 15  1  0
 18 17  2  0
 19 20  1  0
 20 21  2  0
 20 22  1  0
 22 23  1  0
 24 23  1  1
 24 25  1  0
 24 26  1  0
 26 27  2  0
 26 28  1  0
M  END
$$$$
