LQP.pdb
     RDKit          3D

 25 25  0  0  1  0  0  0  0  0999 V2000
    8.4473  -19.3721   20.6825 C   0  0  0  0  0  0  0  0  0  0  0  0
    9.9635  -19.3742   20.8385 C   0  0  2  0  0  0  0  0  0  0  0  0
   10.3749  -20.7499   21.2583 C   0  0  0  0  0  0  0  0  0  0  0  0
   10.3667  -18.3454   21.8454 C   0  0  0  0  0  0  0  0  0  0  0  0
    9.9474  -16.9871   21.3565 C   0  0  2  0  0  0  0  0  0  0  0  0
   10.7394  -16.5281   20.2323 N   0  0  0  0  0  0  0  0  0  0  0  0
   10.0854  -15.9602   22.4446 C   0  0  0  0  0  0  0  0  0  0  0  0
   11.1477  -15.3434   22.6624 O   0  0  0  0  0  0  0  0  0  0  0  0
    4.9389  -14.2972   26.2320 N   0  0  0  0  0  0  0  0  0  0  0  0
    6.0246  -13.3817   26.2762 C   0  0  0  0  0  0  0  0  0  0  0  0
    5.7907  -12.1750   26.4918 O   0  0  0  0  0  0  0  0  0  0  0  0
    7.4310  -13.8122   26.0744 C   0  0  0  0  0  0  0  0  0  0  0  0
    7.5578  -14.5511   24.7433 C   0  0  0  0  0  0  0  0  0  0  0  0
    9.0115  -14.9047   24.4790 C   0  0  2  0  0  0  0  0  0  0  0  0
    8.9584  -15.7027   23.2343 N   0  0  0  0  0  0  0  0  0  0  0  0
    9.5936  -15.7793   25.5183 C   0  0  0  0  0  0  0  0  0  0  0  0
    9.7974  -17.0217   25.2678 O   0  0  0  0  0  0  0  0  0  0  0  0
    9.9590  -15.3465   26.8080 N   0  0  0  0  0  0  0  0  0  0  0  0
    9.4864  -14.1388   27.4463 C   0  0  0  0  0  0  0  0  0  0  0  0
   10.4701  -13.8285   28.5355 C   0  0  0  0  0  0  0  0  0  0  0  0
   11.5831  -14.8032   28.3568 C   0  0  0  0  0  0  0  0  0  0  0  0
   10.8841  -16.0132   27.7351 C   0  0  1  0  0  0  0  0  0  0  0  0
   10.1645  -16.7852   28.7507 C   0  0  0  0  0  0  0  0  0  0  0  0
    8.7821  -16.8251   28.8363 O   0  0  0  0  0  0  0  0  0  0  0  0
   10.7926  -17.4694   29.6197 O   0  0  0  0  0  0  0  0  0  0  0  0
  2  1  1  1
  2  3  1  0
  4  2  1  0
  5  4  1  0
  5  6  1  6
  7  5  1  0
  7  8  2  0
  9 10  1  0
 10 12  1  0
 11 10  2  0
 13 12  1  0
 14 13  1  1
 14 15  1  0
 14 16  1  0
 15  7  1  0
 16 17  2  0
 16 18  1  0
 18 22  1  0
 19 20  1  0
 19 18  1  0
 20 21  1  0
 22 21  1  0
 22 23  1  1
 23 25  2  0
 23 24  1  0
M  END
$$$$
