LQP.pdb
     RDKit          3D

 25 25  0  0  1  0  0  0  0  0999 V2000
    9.8696  -13.7717   19.2637 C   0  0  0  0  0  0  0  0  0  0  0  0
    8.4010  -13.7793   18.8556 C   0  0  2  0  0  0  0  0  0  0  0  0
    8.1017  -12.4624   18.2119 C   0  0  0  0  0  0  0  0  0  0  0  0
    7.5460  -14.0132   20.0593 C   0  0  0  0  0  0  0  0  0  0  0  0
    7.9135  -15.3343   20.6751 C   0  0  2  0  0  0  0  0  0  0  0  0
    7.4840  -16.4638   19.8740 N   0  0  0  0  0  0  0  0  0  0  0  0
    7.2833  -15.4872   22.0306 C   0  0  0  0  0  0  0  0  0  0  0  0
    6.0723  -15.2748   22.2418 O   0  0  0  0  0  0  0  0  0  0  0  0
    6.9398  -20.2119   24.8621 N   0  0  0  0  0  0  0  0  0  0  0  0
    6.0124  -19.4250   24.1275 C   0  0  0  0  0  0  0  0  0  0  0  0
    5.0209  -19.9807   23.6127 O   0  0  0  0  0  0  0  0  0  0  0  0
    6.1829  -17.9608   23.9508 C   0  0  0  0  0  0  0  0  0  0  0  0
    7.4467  -17.4981   24.6739 C   0  0  0  0  0  0  0  0  0  0  0  0
    7.6401  -16.0035   24.4825 C   0  0  2  0  0  0  0  0  0  0  0  0
    8.1127  -15.8863   23.0854 N   0  0  0  0  0  0  0  0  0  0  0  0
    8.7061  -15.4425   25.3387 C   0  0  0  0  0  0  0  0  0  0  0  0
    9.9346  -15.7284   25.1000 O   0  0  0  0  0  0  0  0  0  0  0  0
    8.4780  -14.5868   26.4340 N   0  0  0  0  0  0  0  0  0  0  0  0
    7.1972  -14.0249   26.7993 C   0  0  0  0  0  0  0  0  0  0  0  0
    7.4933  -12.8369   27.6661 C   0  0  0  0  0  0  0  0  0  0  0  0
    8.9729  -12.6667   27.6172 C   0  0  0  0  0  0  0  0  0  0  0  0
    9.4760  -14.0936   27.3935 C   0  0  1  0  0  0  0  0  0  0  0  0
    9.4502  -14.8627   28.6396 C   0  0  0  0  0  0  0  0  0  0  0  0
    8.5584  -15.8966   28.8759 O   0  0  0  0  0  0  0  0  0  0  0  0
   10.2654  -14.6089   29.5824 O   0  0  0  0  0  0  0  0  0  0  0  0
  2  1  1  1
  2  3  1  0
  4  2  1  0
  5  4  1  0
  5  6  1  6
  7  5  1  0
  7  8  2  0
  9 10  1  0
 10 12  1  0
 11 10  2  0
 13 12  1  0
 14 13  1  1
 14 15  1  0
 14 16  1  0
 15  7  1  0
 16 17  2  0
 16 18  1  0
 18 22  1  0
 19 20  1  0
 19 18  1  0
 20 21  1  0
 22 21  1  0
 22 23  1  1
 23 25  2  0
 23 24  1  0
M  END
$$$$
