LQP.pdb
     RDKit          3D

 25 25  0  0  1  0  0  0  0  0999 V2000
    9.6552  -13.7306   19.7091 C   0  0  0  0  0  0  0  0  0  0  0  0
    8.3392  -13.7943   18.9427 C   0  0  2  0  0  0  0  0  0  0  0  0
    8.1110  -12.4534   18.3199 C   0  0  0  0  0  0  0  0  0  0  0  0
    7.2318  -14.1662   19.8754 C   0  0  0  0  0  0  0  0  0  0  0  0
    7.5594  -15.4792   20.5300 C   0  0  2  0  0  0  0  0  0  0  0  0
    7.1517  -16.6191   19.7324 N   0  0  0  0  0  0  0  0  0  0  0  0
    6.8717  -15.6006   21.8605 C   0  0  0  0  0  0  0  0  0  0  0  0
    5.6620  -15.8833   21.9739 O   0  0  0  0  0  0  0  0  0  0  0  0
    6.2107  -19.4613   25.5133 N   0  0  0  0  0  0  0  0  0  0  0  0
    7.5656  -19.0339   25.4924 C   0  0  0  0  0  0  0  0  0  0  0  0
    8.4448  -19.7847   25.9618 O   0  0  0  0  0  0  0  0  0  0  0  0
    7.9724  -17.7216   24.9298 C   0  0  0  0  0  0  0  0  0  0  0  0
    6.7308  -16.9173   24.5480 C   0  0  0  0  0  0  0  0  0  0  0  0
    7.0905  -15.4512   24.3776 C   0  0  2  0  0  0  0  0  0  0  0  0
    7.6443  -15.3821   23.0074 N   0  0  0  0  0  0  0  0  0  0  0  0
    8.1642  -15.0077   25.2912 C   0  0  0  0  0  0  0  0  0  0  0  0
    9.3918  -15.2359   24.9934 O   0  0  0  0  0  0  0  0  0  0  0  0
    7.9444  -14.3285   26.5054 N   0  0  0  0  0  0  0  0  0  0  0  0
    6.6594  -14.1624   27.1461 C   0  0  0  0  0  0  0  0  0  0  0  0
    6.8084  -13.0056   28.0895 C   0  0  0  0  0  0  0  0  0  0  0  0
    8.1586  -12.4384   27.8143 C   0  0  0  0  0  0  0  0  0  0  0  0
    8.9522  -13.6556   27.3369 C   0  0  1  0  0  0  0  0  0  0  0  0
    9.3636  -14.4924   28.4664 C   0  0  0  0  0  0  0  0  0  0  0  0
    8.8438  -15.7543   28.7058 O   0  0  0  0  0  0  0  0  0  0  0  0
   10.2373  -14.0871   29.2972 O   0  0  0  0  0  0  0  0  0  0  0  0
  2  1  1  1
  2  3  1  0
  4  2  1  0
  5  4  1  0
  5  6  1  6
  7  5  1  0
  7  8  2  0
  9 10  1  0
 10 12  1  0
 11 10  2  0
 13 12  1  0
 14 13  1  1
 14 15  1  0
 14 16  1  0
 15  7  1  0
 16 17  2  0
 16 18  1  0
 18 22  1  0
 19 20  1  0
 19 18  1  0
 20 21  1  0
 22 21  1  0
 22 23  1  1
 23 25  2  0
 23 24  1  0
M  END
$$$$
