LQP.pdb
     RDKit          3D

 25 25  0  0  1  0  0  0  0  0999 V2000
    9.6506  -13.5943   19.4643 C   0  0  0  0  0  0  0  0  0  0  0  0
    8.2967  -13.7002   18.7722 C   0  0  2  0  0  0  0  0  0  0  0  0
    7.9667  -12.3531   18.2116 C   0  0  0  0  0  0  0  0  0  0  0  0
    7.2655  -14.1586   19.7526 C   0  0  0  0  0  0  0  0  0  0  0  0
    7.7382  -15.4262   20.4080 C   0  0  2  0  0  0  0  0  0  0  0  0
    7.4513  -16.6061   19.6159 N   0  0  0  0  0  0  0  0  0  0  0  0
    7.0768  -15.6173   21.7436 C   0  0  0  0  0  0  0  0  0  0  0  0
    5.8670  -15.8957   21.8662 O   0  0  0  0  0  0  0  0  0  0  0  0
    7.5094  -19.8665   25.0600 N   0  0  0  0  0  0  0  0  0  0  0  0
    7.0273  -18.9904   26.0694 C   0  0  0  0  0  0  0  0  0  0  0  0
    6.6152  -19.4730   27.1438 O   0  0  0  0  0  0  0  0  0  0  0  0
    6.9970  -17.5170   25.8895 C   0  0  0  0  0  0  0  0  0  0  0  0
    7.4655  -17.1602   24.4798 C   0  0  0  0  0  0  0  0  0  0  0  0
    7.3596  -15.6609   24.2583 C   0  0  2  0  0  0  0  0  0  0  0  0
    7.8749  -15.4713   22.8845 N   0  0  0  0  0  0  0  0  0  0  0  0
    8.2393  -14.8793   25.1523 C   0  0  0  0  0  0  0  0  0  0  0  0
    9.4984  -14.8120   24.9113 O   0  0  0  0  0  0  0  0  0  0  0  0
    7.7945  -14.1743   26.2876 N   0  0  0  0  0  0  0  0  0  0  0  0
    6.4432  -14.1892   26.8007 C   0  0  0  0  0  0  0  0  0  0  0  0
    6.3090  -12.9685   27.6622 C   0  0  0  0  0  0  0  0  0  0  0  0
    7.5693  -12.1989   27.4619 C   0  0  0  0  0  0  0  0  0  0  0  0
    8.5932  -13.2911   27.1490 C   0  0  1  0  0  0  0  0  0  0  0  0
    9.0230  -13.9758   28.3703 C   0  0  0  0  0  0  0  0  0  0  0  0
    9.9711  -13.4578   29.2380 O   0  0  0  0  0  0  0  0  0  0  0  0
    8.5326  -15.1034   28.6957 O   0  0  0  0  0  0  0  0  0  0  0  0
  2  1  1  1
  2  3  1  0
  4  2  1  0
  5  4  1  0
  5  6  1  6
  7  5  1  0
  7  8  2  0
  9 10  1  0
 10 12  1  0
 11 10  2  0
 13 12  1  0
 14 13  1  1
 14 15  1  0
 14 16  1  0
 15  7  1  0
 16 17  2  0
 16 18  1  0
 18 22  1  0
 19 20  1  0
 19 18  1  0
 20 21  1  0
 22 21  1  0
 22 23  1  1
 23 25  2  0
 23 24  1  0
M  END
$$$$
