LQP.pdb
     RDKit          3D

 25 25  0  0  1  0  0  0  0  0999 V2000
    9.3121  -12.9910   18.7537 C   0  0  0  0  0  0  0  0  0  0  0  0
    7.9615  -13.6922   18.6678 C   0  0  2  0  0  0  0  0  0  0  0  0
    7.1092  -12.9206   17.7107 C   0  0  0  0  0  0  0  0  0  0  0  0
    7.3433  -13.7606   20.0271 C   0  0  0  0  0  0  0  0  0  0  0  0
    8.2726  -14.4928   20.9545 C   0  0  2  0  0  0  0  0  0  0  0  0
    8.4995  -15.8663   20.5496 N   0  0  0  0  0  0  0  0  0  0  0  0
    7.7179  -14.5282   22.3505 C   0  0  0  0  0  0  0  0  0  0  0  0
    7.2068  -13.5323   22.9013 O   0  0  0  0  0  0  0  0  0  0  0  0
    6.7874  -20.1083   25.0837 N   0  0  0  0  0  0  0  0  0  0  0  0
    6.7295  -19.2286   26.1980 C   0  0  0  0  0  0  0  0  0  0  0  0
    6.5020  -19.7002   27.3306 O   0  0  0  0  0  0  0  0  0  0  0  0
    6.9309  -17.7641   26.0609 C   0  0  0  0  0  0  0  0  0  0  0  0
    7.2023  -17.4159   24.5983 C   0  0  0  0  0  0  0  0  0  0  0  0
    7.3113  -15.9098   24.4318 C   0  0  2  0  0  0  0  0  0  0  0  0
    7.7898  -15.7435   23.0417 N   0  0  0  0  0  0  0  0  0  0  0  0
    8.3351  -15.3023   25.3076 C   0  0  0  0  0  0  0  0  0  0  0  0
    9.5799  -15.5206   25.0826 O   0  0  0  0  0  0  0  0  0  0  0  0
    8.0480  -14.4713   26.4080 N   0  0  0  0  0  0  0  0  0  0  0  0
    6.7222  -14.1550   26.8894 C   0  0  0  0  0  0  0  0  0  0  0  0
    6.8608  -12.9045   27.7063 C   0  0  0  0  0  0  0  0  0  0  0  0
    8.2676  -12.4542   27.5101 C   0  0  0  0  0  0  0  0  0  0  0  0
    9.0160  -13.7639   27.2580 C   0  0  1  0  0  0  0  0  0  0  0  0
    9.2574  -14.4825   28.5112 C   0  0  0  0  0  0  0  0  0  0  0  0
   10.2713  -14.1490   29.3949 O   0  0  0  0  0  0  0  0  0  0  0  0
    8.5289  -15.4681   28.8514 O   0  0  0  0  0  0  0  0  0  0  0  0
  2  1  1  1
  2  3  1  0
  4  2  1  0
  5  4  1  0
  5  6  1  6
  7  5  1  0
  7  8  2  0
  9 10  1  0
 10 12  1  0
 11 10  2  0
 13 12  1  0
 14 13  1  1
 14 15  1  0
 14 16  1  0
 15  7  1  0
 16 17  2  0
 16 18  1  0
 18 22  1  0
 19 20  1  0
 19 18  1  0
 20 21  1  0
 22 21  1  0
 22 23  1  1
 23 25  2  0
 23 24  1  0
M  END
$$$$
