LQP.pdb
     RDKit          3D

 25 25  0  0  1  0  0  0  0  0999 V2000
    7.2789  -12.2617   19.8089 C   0  0  0  0  0  0  0  0  0  0  0  0
    8.2216  -13.4052   20.1651 C   0  0  2  0  0  0  0  0  0  0  0  0
    9.6038  -12.9957   19.7655 C   0  0  0  0  0  0  0  0  0  0  0  0
    7.7890  -14.6510   19.4612 C   0  0  0  0  0  0  0  0  0  0  0  0
    8.0539  -15.8352   20.3485 C   0  0  2  0  0  0  0  0  0  0  0  0
    7.6768  -17.0919   19.7317 N   0  0  0  0  0  0  0  0  0  0  0  0
    7.2841  -15.7239   21.6341 C   0  0  0  0  0  0  0  0  0  0  0  0
    6.0417  -15.8221   21.6899 O   0  0  0  0  0  0  0  0  0  0  0  0
    7.5069  -19.7734   25.1856 N   0  0  0  0  0  0  0  0  0  0  0  0
    7.0715  -18.8339   26.1585 C   0  0  0  0  0  0  0  0  0  0  0  0
    6.7073  -19.2467   27.2784 O   0  0  0  0  0  0  0  0  0  0  0  0
    7.0349  -17.3746   25.8881 C   0  0  0  0  0  0  0  0  0  0  0  0
    7.5074  -17.1029   24.4608 C   0  0  0  0  0  0  0  0  0  0  0  0
    7.4279  -15.6161   24.1587 C   0  0  2  0  0  0  0  0  0  0  0  0
    8.0163  -15.5003   22.8062 N   0  0  0  0  0  0  0  0  0  0  0  0
    8.2672  -14.7963   25.0574 C   0  0  0  0  0  0  0  0  0  0  0  0
    9.5354  -14.7350   24.8683 O   0  0  0  0  0  0  0  0  0  0  0  0
    7.7727  -14.0471   26.1428 N   0  0  0  0  0  0  0  0  0  0  0  0
    6.3900  -14.0006   26.5616 C   0  0  0  0  0  0  0  0  0  0  0  0
    6.2433  -12.7544   27.3836 C   0  0  0  0  0  0  0  0  0  0  0  0
    7.5422  -12.0358   27.2531 C   0  0  0  0  0  0  0  0  0  0  0  0
    8.5434  -13.1715   27.0368 C   0  0  1  0  0  0  0  0  0  0  0  0
    8.8631  -13.8399   28.3002 C   0  0  0  0  0  0  0  0  0  0  0  0
    9.7652  -13.3319   29.2212 O   0  0  0  0  0  0  0  0  0  0  0  0
    8.3130  -14.9427   28.6148 O   0  0  0  0  0  0  0  0  0  0  0  0
  2  1  1  6
  2  3  1  0
  4  2  1  0
  5  4  1  0
  5  6  1  6
  7  5  1  0
  7  8  2  0
  9 10  1  0
 10 12  1  0
 11 10  2  0
 13 12  1  0
 14 13  1  1
 14 15  1  0
 14 16  1  0
 15  7  1  0
 16 17  2  0
 16 18  1  0
 18 22  1  0
 19 20  1  0
 19 18  1  0
 20 21  1  0
 22 21  1  0
 22 23  1  1
 23 25  2  0
 23 24  1  0
M  END
$$$$
