LQP.pdb
     RDKit          3D

 25 25  0  0  1  0  0  0  0  0999 V2000
    5.7361  -11.9829   27.9095 C   0  0  0  0  0  0  0  0  0  0  0  0
    6.7584  -12.6984   27.0342 C   0  0  2  0  0  0  0  0  0  0  0  0
    7.4316  -11.6663   26.1860 C   0  0  0  0  0  0  0  0  0  0  0  0
    6.0716  -13.7342   26.2035 C   0  0  0  0  0  0  0  0  0  0  0  0
    6.9294  -14.9674   26.1458 C   0  0  2  0  0  0  0  0  0  0  0  0
    7.4951  -15.3161   27.4343 N   0  0  0  0  0  0  0  0  0  0  0  0
    8.0771  -14.7774   25.1948 C   0  0  0  0  0  0  0  0  0  0  0  0
    8.9621  -13.9150   25.3656 O   0  0  0  0  0  0  0  0  0  0  0  0
   11.7893  -18.5496   22.7016 N   0  0  0  0  0  0  0  0  0  0  0  0
   12.0243  -17.4858   23.6137 C   0  0  0  0  0  0  0  0  0  0  0  0
   13.0474  -17.5149   24.3274 O   0  0  0  0  0  0  0  0  0  0  0  0
   11.0922  -16.3379   23.7471 C   0  0  0  0  0  0  0  0  0  0  0  0
    9.9014  -16.5292   22.8094 C   0  0  0  0  0  0  0  0  0  0  0  0
    8.9731  -15.3296   22.8930 C   0  0  2  0  0  0  0  0  0  0  0  0
    8.1326  -15.6173   24.0761 N   0  0  0  0  0  0  0  0  0  0  0  0
    8.0569  -15.2239   21.7382 C   0  0  0  0  0  0  0  0  0  0  0  0
    6.9263  -15.8314   21.7614 O   0  0  0  0  0  0  0  0  0  0  0  0
    8.3302  -14.4829   20.5720 N   0  0  0  0  0  0  0  0  0  0  0  0
    9.4444  -13.5777   20.4023 C   0  0  0  0  0  0  0  0  0  0  0  0
    9.0779  -12.6714   19.2645 C   0  0  0  0  0  0  0  0  0  0  0  0
    7.6612  -12.9967   18.9363 C   0  0  0  0  0  0  0  0  0  0  0  0
    7.5471  -14.4706   19.3284 C   0  0  1  0  0  0  0  0  0  0  0  0
    8.1443  -15.3351   18.3080 C   0  0  0  0  0  0  0  0  0  0  0  0
    9.3882  -15.9291   18.4490 O   0  0  0  0  0  0  0  0  0  0  0  0
    7.5321  -15.5843   17.2213 O   0  0  0  0  0  0  0  0  0  0  0  0
  2  1  1  1
  2  3  1  0
  4  2  1  0
  5  4  1  0
  5  6  1  1
  7  5  1  0
  7  8  2  0
  9 10  1  0
 10 12  1  0
 11 10  2  0
 13 12  1  0
 14 13  1  6
 14 15  1  0
 14 16  1  0
 15  7  1  0
 16 17  2  0
 16 18  1  0
 18 22  1  0
 19 20  1  0
 19 18  1  0
 20 21  1  0
 22 21  1  0
 22 23  1  6
 23 25  2  0
 23 24  1  0
M  END
$$$$
