NWF.pdb
     RDKit          3D

 34 36  0  0  1  0  0  0  0  0999 V2000
   10.0893  -17.9999   16.6866 N   0  0  0  0  0  0  0  0  0  0  0  0
   10.0232  -16.5950   16.9144 C   0  0  0  0  0  0  0  0  0  0  0  0
   10.1924  -15.8331   15.9329 O   0  0  0  0  0  0  0  0  0  0  0  0
    9.7651  -16.0118   18.2509 C   0  0  0  0  0  0  0  0  0  0  0  0
    9.6884  -17.1026   19.2582 C   0  0  2  0  0  0  0  0  0  0  0  0
    8.6174  -17.9932   18.9402 N   0  0  0  0  0  0  0  0  0  0  0  0
    9.6756  -16.6338   20.6571 C   0  0  0  0  0  0  0  0  0  0  0  0
   10.5299  -15.7698   21.0027 O   0  0  0  0  0  0  0  0  0  0  0  0
    8.7784  -17.0774   21.6479 N   0  0  0  0  0  0  0  0  0  0  0  0
    8.7874  -16.6008   23.0217 C   0  0  1  0  0  0  0  0  0  0  0  0
    7.5598  -16.9488   23.7653 C   0  0  0  0  0  0  0  0  0  0  0  0
    6.9219  -15.8650   24.5353 C   0  0  0  0  0  0  0  0  0  0  0  0
    5.7923  -16.0748   25.3684 C   0  0  0  0  0  0  0  0  0  0  0  0
    5.4748  -14.9252   25.9686 N   0  0  0  0  0  0  0  0  0  0  0  0
    6.3116  -13.9473   25.5992 C   0  0  0  0  0  0  0  0  0  0  0  0
    6.3985  -12.6010   25.9249 C   0  0  0  0  0  0  0  0  0  0  0  0
    7.3959  -11.8542   25.3429 C   0  0  0  0  0  0  0  0  0  0  0  0
    8.2834  -12.4158   24.4643 C   0  0  0  0  0  0  0  0  0  0  0  0
    8.2036  -13.7532   24.1360 C   0  0  0  0  0  0  0  0  0  0  0  0
    7.2149  -14.5362   24.7026 C   0  0  0  0  0  0  0  0  0  0  0  0
   10.0078  -17.0239   23.7052 C   0  0  0  0  0  0  0  0  0  0  0  0
   10.6717  -17.9956   23.2643 O   0  0  0  0  0  0  0  0  0  0  0  0
   10.4812  -16.3648   24.8728 N   0  0  0  0  0  0  0  0  0  0  0  0
   11.6532  -16.8996   25.5480 C   0  0  1  0  0  0  0  0  0  0  0  0
   12.2971  -15.7619   26.3024 C   0  0  0  0  0  0  0  0  0  0  0  0
   11.3795  -15.0536   27.2199 C   0  0  0  0  0  0  0  0  0  0  0  0
   11.1803  -15.4506   28.5235 C   0  0  0  0  0  0  0  0  0  0  0  0
   10.3331  -14.7894   29.3779 C   0  0  0  0  0  0  0  0  0  0  0  0
    9.6479  -13.6790   28.9193 C   0  0  0  0  0  0  0  0  0  0  0  0
    9.8493  -13.2826   27.6106 C   0  0  0  0  0  0  0  0  0  0  0  0
   10.6988  -13.9422   26.7473 C   0  0  0  0  0  0  0  0  0  0  0  0
   11.2823  -17.9797   26.4935 C   0  0  0  0  0  0  0  0  0  0  0  0
   12.1951  -18.7866   27.1471 O   0  0  0  0  0  0  0  0  0  0  0  0
   10.0608  -18.1762   26.7149 O   0  0  0  0  0  0  0  0  0  0  0  0
  2  1  1  0
  2  3  2  0
  4  2  1  0
  5  7  1  0
  5  4  1  0
  5  6  1  6
  7  8  2  0
  9 10  1  0
  9  7  1  0
 10 11  1  1
 11 12  1  0
 12 20  1  0
 13 14  1  0
 13 12  2  0
 14 15  1  0
 15 20  2  0
 15 16  1  0
 16 17  2  0
 17 18  1  0
 19 18  2  0
 20 19  1  0
 21 10  1  0
 22 21  2  0
 23 21  1  0
 24 25  1  1
 24 23  1  0
 25 26  1  0
 26 27  2  0
 27 28  1  0
 29 28  2  0
 30 29  1  0
 31 26  1  0
 31 30  2  0
 32 24  1  0
 32 33  1  0
 34 32  2  0
M  END
$$$$
