NWF.pdb
     RDKit          3D

 34 36  0  0  1  0  0  0  0  0999 V2000
    9.4388  -16.6626   15.9178 N   0  0  0  0  0  0  0  0  0  0  0  0
   10.2143  -17.1172   17.0231 C   0  0  0  0  0  0  0  0  0  0  0  0
   10.9126  -18.1468   16.8658 O   0  0  0  0  0  0  0  0  0  0  0  0
   10.2242  -16.4258   18.3327 C   0  0  0  0  0  0  0  0  0  0  0  0
    9.3123  -17.1330   19.2702 C   0  0  2  0  0  0  0  0  0  0  0  0
    8.0008  -17.2215   18.7101 N   0  0  0  0  0  0  0  0  0  0  0  0
    9.3354  -16.6065   20.6484 C   0  0  0  0  0  0  0  0  0  0  0  0
    9.9434  -15.5197   20.8598 O   0  0  0  0  0  0  0  0  0  0  0  0
    8.7279  -17.2254   21.7580 N   0  0  0  0  0  0  0  0  0  0  0  0
    8.7776  -16.6937   23.1106 C   0  0  1  0  0  0  0  0  0  0  0  0
    7.5895  -17.0421   23.9157 C   0  0  0  0  0  0  0  0  0  0  0  0
    6.9644  -15.9483   24.6820 C   0  0  0  0  0  0  0  0  0  0  0  0
    5.7997  -16.1302   25.4723 C   0  0  0  0  0  0  0  0  0  0  0  0
    5.5029  -14.9796   26.0810 N   0  0  0  0  0  0  0  0  0  0  0  0
    6.3864  -14.0269   25.7572 C   0  0  0  0  0  0  0  0  0  0  0  0
    6.5100  -12.6901   26.1088 C   0  0  0  0  0  0  0  0  0  0  0  0
    7.5531  -11.9708   25.5742 C   0  0  0  0  0  0  0  0  0  0  0  0
    8.4499  -12.5501   24.7169 C   0  0  0  0  0  0  0  0  0  0  0  0
    8.3339  -13.8783   24.3631 C   0  0  0  0  0  0  0  0  0  0  0  0
    7.2987  -14.6338   24.8820 C   0  0  0  0  0  0  0  0  0  0  0  0
   10.0345  -17.0581   23.7609 C   0  0  0  0  0  0  0  0  0  0  0  0
   10.5472  -18.1864   23.5526 O   0  0  0  0  0  0  0  0  0  0  0  0
   10.7120  -16.1667   24.6375 N   0  0  0  0  0  0  0  0  0  0  0  0
   11.8941  -16.6430   25.3384 C   0  0  1  0  0  0  0  0  0  0  0  0
   12.5179  -15.4549   26.0292 C   0  0  0  0  0  0  0  0  0  0  0  0
   11.5853  -14.7077   26.8994 C   0  0  0  0  0  0  0  0  0  0  0  0
   11.3909  -15.0257   28.2253 C   0  0  0  0  0  0  0  0  0  0  0  0
   10.5297  -14.3281   29.0357 C   0  0  0  0  0  0  0  0  0  0  0  0
    9.8248  -13.2619   28.5075 C   0  0  0  0  0  0  0  0  0  0  0  0
   10.0214  -12.9448   27.1767 C   0  0  0  0  0  0  0  0  0  0  0  0
   10.8849  -13.6412   26.3573 C   0  0  0  0  0  0  0  0  0  0  0  0
   11.5436  -17.6771   26.3415 C   0  0  0  0  0  0  0  0  0  0  0  0
   10.2521  -17.9619   26.7441 O   0  0  0  0  0  0  0  0  0  0  0  0
   12.4794  -18.3366   26.8604 O   0  0  0  0  0  0  0  0  0  0  0  0
  2  1  1  0
  2  3  2  0
  4  2  1  0
  5  7  1  0
  5  4  1  0
  5  6  1  6
  7  8  2  0
  9 10  1  0
  9  7  1  0
 10 11  1  1
 11 12  1  0
 12 20  1  0
 13 14  1  0
 13 12  2  0
 14 15  1  0
 15 20  2  0
 15 16  1  0
 16 17  2  0
 17 18  1  0
 19 18  2  0
 20 19  1  0
 21 10  1  0
 22 21  2  0
 23 21  1  0
 24 25  1  1
 24 23  1  0
 25 26  1  0
 26 27  2  0
 27 28  1  0
 29 28  2  0
 30 29  1  0
 31 26  1  0
 31 30  2  0
 32 24  1  0
 32 33  1  0
 34 32  2  0
M  END
$$$$
