NWF.pdb
     RDKit          3D

 34 36  0  0  1  0  0  0  0  0999 V2000
   12.8015  -17.7102   17.0230 N   0  0  0  0  0  0  0  0  0  0  0  0
   11.5017  -17.8733   17.5831 C   0  0  0  0  0  0  0  0  0  0  0  0
   10.8545  -18.9019   17.2737 O   0  0  0  0  0  0  0  0  0  0  0  0
   10.8970  -16.8843   18.5048 C   0  0  0  0  0  0  0  0  0  0  0  0
   10.8326  -17.4613   19.8735 C   0  0  2  0  0  0  0  0  0  0  0  0
   10.1277  -18.7039   19.8523 N   0  0  0  0  0  0  0  0  0  0  0  0
   10.3495  -16.5217   20.9034 C   0  0  0  0  0  0  0  0  0  0  0  0
   10.9668  -15.4293   21.0485 O   0  0  0  0  0  0  0  0  0  0  0  0
    9.2443  -16.7482   21.7465 N   0  0  0  0  0  0  0  0  0  0  0  0
    8.8121  -15.8237   22.7823 C   0  0  1  0  0  0  0  0  0  0  0  0
    7.3805  -15.9573   23.1196 C   0  0  0  0  0  0  0  0  0  0  0  0
    6.8968  -15.1802   24.2758 C   0  0  0  0  0  0  0  0  0  0  0  0
    6.3248  -15.7857   25.4248 C   0  0  0  0  0  0  0  0  0  0  0  0
    6.0305  -14.8361   26.3161 N   0  0  0  0  0  0  0  0  0  0  0  0
    6.3629  -13.6254   25.8504 C   0  0  0  0  0  0  0  0  0  0  0  0
    6.2544  -12.3455   26.3758 C   0  0  0  0  0  0  0  0  0  0  0  0
    6.6905  -11.2893   25.6106 C   0  0  0  0  0  0  0  0  0  0  0  0
    7.2184  -11.4864   24.3625 C   0  0  0  0  0  0  0  0  0  0  0  0
    7.3298  -12.7555   23.8338 C   0  0  0  0  0  0  0  0  0  0  0  0
    6.9034  -13.8422   24.5747 C   0  0  0  0  0  0  0  0  0  0  0  0
    9.6847  -15.9156   23.9510 C   0  0  0  0  0  0  0  0  0  0  0  0
    9.7250  -14.9739   24.7822 O   0  0  0  0  0  0  0  0  0  0  0  0
   10.5056  -17.0523   24.1872 N   0  0  0  0  0  0  0  0  0  0  0  0
   11.4334  -17.0212   25.3068 C   0  0  1  0  0  0  0  0  0  0  0  0
   10.6116  -16.9871   26.5724 C   0  0  0  0  0  0  0  0  0  0  0  0
   10.6913  -15.7063   27.3064 C   0  0  0  0  0  0  0  0  0  0  0  0
   10.5385  -14.4853   26.6878 C   0  0  0  0  0  0  0  0  0  0  0  0
   10.6060  -13.2958   27.3701 C   0  0  0  0  0  0  0  0  0  0  0  0
   10.8367  -13.3151   28.7335 C   0  0  0  0  0  0  0  0  0  0  0  0
   10.9901  -14.5416   29.3521 C   0  0  0  0  0  0  0  0  0  0  0  0
   10.9232  -15.7400   28.6727 C   0  0  0  0  0  0  0  0  0  0  0  0
   12.3095  -18.2173   25.3119 C   0  0  0  0  0  0  0  0  0  0  0  0
   13.3741  -18.3961   26.1757 O   0  0  0  0  0  0  0  0  0  0  0  0
   12.0712  -19.1266   24.4775 O   0  0  0  0  0  0  0  0  0  0  0  0
  2  1  1  0
  2  3  2  0
  4  2  1  0
  5  7  1  0
  5  4  1  0
  5  6  1  6
  7  8  2  0
  9 10  1  0
  9  7  1  0
 10 11  1  1
 11 12  1  0
 12 20  1  0
 13 14  1  0
 13 12  2  0
 14 15  1  0
 15 20  2  0
 15 16  1  0
 16 17  2  0
 17 18  1  0
 19 18  2  0
 20 19  1  0
 21 10  1  0
 22 21  2  0
 23 21  1  0
 24 25  1  1
 24 23  1  0
 25 26  1  0
 26 27  2  0
 27 28  1  0
 29 28  2  0
 30 29  1  0
 31 26  1  0
 31 30  2  0
 32 24  1  0
 32 33  1  0
 34 32  2  0
M  END
$$$$
