NWF.pdb
     RDKit          3D

 34 36  0  0  1  0  0  0  0  0999 V2000
   11.7812  -20.1848   19.0807 N   0  0  0  0  0  0  0  0  0  0  0  0
   11.0689  -19.0813   18.5287 C   0  0  0  0  0  0  0  0  0  0  0  0
   11.0144  -18.9840   17.2797 O   0  0  0  0  0  0  0  0  0  0  0  0
   10.4001  -18.0597   19.3668 C   0  0  0  0  0  0  0  0  0  0  0  0
   10.6711  -18.3443   20.8007 C   0  0  2  0  0  0  0  0  0  0  0  0
    9.7896  -19.3632   21.2765 N   0  0  0  0  0  0  0  0  0  0  0  0
   10.7098  -17.1444   21.6583 C   0  0  0  0  0  0  0  0  0  0  0  0
   11.6273  -16.2995   21.4581 O   0  0  0  0  0  0  0  0  0  0  0  0
    9.7967  -16.8631   22.6930 N   0  0  0  0  0  0  0  0  0  0  0  0
    9.8052  -15.6338   23.4697 C   0  0  1  0  0  0  0  0  0  0  0  0
    8.4737  -15.0036   23.5744 C   0  0  0  0  0  0  0  0  0  0  0  0
    7.7169  -14.8414   22.3193 C   0  0  0  0  0  0  0  0  0  0  0  0
    6.5485  -15.5905   22.0229 C   0  0  0  0  0  0  0  0  0  0  0  0
    6.0618  -15.1899   20.8459 N   0  0  0  0  0  0  0  0  0  0  0  0
    6.8208  -14.2195   20.3212 C   0  0  0  0  0  0  0  0  0  0  0  0
    6.7486  -13.4939   19.1404 C   0  0  0  0  0  0  0  0  0  0  0  0
    7.7220  -12.5542   18.8941 C   0  0  0  0  0  0  0  0  0  0  0  0
    8.7389  -12.3343   19.7843 C   0  0  0  0  0  0  0  0  0  0  0  0
    8.8171  -13.0513   20.9601 C   0  0  0  0  0  0  0  0  0  0  0  0
    7.8554  -14.0035   21.2430 C   0  0  0  0  0  0  0  0  0  0  0  0
   10.4377  -15.8505   24.7692 C   0  0  0  0  0  0  0  0  0  0  0  0
   11.3723  -15.1002   25.1474 O   0  0  0  0  0  0  0  0  0  0  0  0
   10.0277  -16.8987   25.6381 N   0  0  0  0  0  0  0  0  0  0  0  0
   10.5945  -16.9562   26.9763 C   0  0  1  0  0  0  0  0  0  0  0  0
    9.5564  -16.4152   27.9292 C   0  0  0  0  0  0  0  0  0  0  0  0
    9.3723  -14.9506   27.8490 C   0  0  0  0  0  0  0  0  0  0  0  0
    8.1637  -14.3704   27.5336 C   0  0  0  0  0  0  0  0  0  0  0  0
    7.9906  -13.0102   27.4653 C   0  0  0  0  0  0  0  0  0  0  0  0
    9.0678  -12.1817   27.7218 C   0  0  0  0  0  0  0  0  0  0  0  0
   10.2798  -12.7663   28.0379 C   0  0  0  0  0  0  0  0  0  0  0  0
   10.4604  -14.1318   28.1083 C   0  0  0  0  0  0  0  0  0  0  0  0
   10.9421  -18.3474   27.3531 C   0  0  0  0  0  0  0  0  0  0  0  0
   11.5501  -18.7004   28.5435 O   0  0  0  0  0  0  0  0  0  0  0  0
   10.6684  -19.2650   26.5389 O   0  0  0  0  0  0  0  0  0  0  0  0
  2  1  1  0
  2  3  2  0
  4  2  1  0
  5  7  1  0
  5  4  1  0
  5  6  1  1
  7  8  2  0
  9 10  1  0
  9  7  1  0
 10 11  1  1
 11 12  1  0
 12 20  1  0
 13 14  1  0
 13 12  2  0
 14 15  1  0
 15 20  2  0
 15 16  1  0
 16 17  2  0
 17 18  1  0
 19 18  2  0
 20 19  1  0
 21 10  1  0
 22 21  2  0
 23 21  1  0
 24 25  1  1
 24 23  1  0
 25 26  1  0
 26 27  2  0
 27 28  1  0
 29 28  2  0
 30 29  1  0
 31 26  1  0
 31 30  2  0
 32 24  1  0
 32 33  1  0
 34 32  2  0
M  END
$$$$
