NWF.pdb
     RDKit          3D

 34 36  0  0  1  0  0  0  0  0999 V2000
   11.7626  -19.1272   17.4924 N   0  0  0  0  0  0  0  0  0  0  0  0
   12.7347  -18.3457   18.1810 C   0  0  0  0  0  0  0  0  0  0  0  0
   13.8712  -18.2339   17.6631 O   0  0  0  0  0  0  0  0  0  0  0  0
   12.4535  -17.6707   19.4687 C   0  0  0  0  0  0  0  0  0  0  0  0
   11.0699  -17.1270   19.4483 C   0  0  2  0  0  0  0  0  0  0  0  0
   10.9098  -16.2264   18.3507 N   0  0  0  0  0  0  0  0  0  0  0  0
   10.6180  -16.5755   20.7401 C   0  0  0  0  0  0  0  0  0  0  0  0
   11.3240  -15.6806   21.2843 O   0  0  0  0  0  0  0  0  0  0  0  0
    9.4509  -16.9714   21.4217 N   0  0  0  0  0  0  0  0  0  0  0  0
    9.0475  -16.4408   22.7141 C   0  0  1  0  0  0  0  0  0  0  0  0
    7.5822  -16.3983   22.8928 C   0  0  0  0  0  0  0  0  0  0  0  0
    7.0842  -15.7902   24.1405 C   0  0  0  0  0  0  0  0  0  0  0  0
    6.4025  -16.5326   25.1397 C   0  0  0  0  0  0  0  0  0  0  0  0
    6.1213  -15.7254   26.1654 N   0  0  0  0  0  0  0  0  0  0  0  0
    6.5648  -14.4839   25.9310 C   0  0  0  0  0  0  0  0  0  0  0  0
    6.5137  -13.3056   26.6623 C   0  0  0  0  0  0  0  0  0  0  0  0
    7.0680  -12.1738   26.1116 C   0  0  0  0  0  0  0  0  0  0  0  0
    7.6559  -12.2001   24.8751 C   0  0  0  0  0  0  0  0  0  0  0  0
    7.7108  -13.3675   24.1425 C   0  0  0  0  0  0  0  0  0  0  0  0
    7.1656  -14.5259   24.6645 C   0  0  0  0  0  0  0  0  0  0  0  0
    9.7342  -17.1433   23.7960 C   0  0  0  0  0  0  0  0  0  0  0  0
    9.7279  -18.3994   23.8347 O   0  0  0  0  0  0  0  0  0  0  0  0
   10.4223  -16.4455   24.8263 N   0  0  0  0  0  0  0  0  0  0  0  0
   11.1121  -17.2160   25.8489 C   0  0  1  0  0  0  0  0  0  0  0  0
   12.1438  -16.3104   26.4765 C   0  0  0  0  0  0  0  0  0  0  0  0
   11.5688  -15.1746   27.2281 C   0  0  0  0  0  0  0  0  0  0  0  0
   11.3368  -13.9449   26.6527 C   0  0  0  0  0  0  0  0  0  0  0  0
   10.7968  -12.8917   27.3486 C   0  0  0  0  0  0  0  0  0  0  0  0
   10.4699  -13.0636   28.6813 C   0  0  0  0  0  0  0  0  0  0  0  0
   10.7038  -14.2984   29.2565 C   0  0  0  0  0  0  0  0  0  0  0  0
   11.2457  -15.3604   28.5633 C   0  0  0  0  0  0  0  0  0  0  0  0
   10.1693  -17.6950   26.8881 C   0  0  0  0  0  0  0  0  0  0  0  0
   10.4942  -18.6175   27.8652 O   0  0  0  0  0  0  0  0  0  0  0  0
    8.9996  -17.2350   26.8805 O   0  0  0  0  0  0  0  0  0  0  0  0
  2  1  1  0
  2  3  2  0
  4  2  1  0
  5  7  1  0
  5  4  1  0
  5  6  1  6
  7  8  2  0
  9 10  1  0
  9  7  1  0
 10 11  1  1
 11 12  1  0
 12 20  1  0
 13 14  1  0
 13 12  2  0
 14 15  1  0
 15 20  2  0
 15 16  1  0
 16 17  2  0
 17 18  1  0
 19 18  2  0
 20 19  1  0
 21 10  1  0
 22 21  2  0
 23 21  1  0
 24 25  1  1
 24 23  1  0
 25 26  1  0
 26 27  2  0
 27 28  1  0
 29 28  2  0
 30 29  1  0
 31 26  1  0
 31 30  2  0
 32 24  1  0
 32 33  1  0
 34 32  2  0
M  END
$$$$
