NWF.pdb
     RDKit          3D

 34 36  0  0  1  0  0  0  0  0999 V2000
    9.8488  -21.5919   20.2646 N   0  0  0  0  0  0  0  0  0  0  0  0
   10.2162  -20.5257   19.3940 C   0  0  0  0  0  0  0  0  0  0  0  0
   10.4467  -20.8022   18.1928 O   0  0  0  0  0  0  0  0  0  0  0  0
   10.3336  -19.1223   19.8519 C   0  0  0  0  0  0  0  0  0  0  0  0
   10.1521  -19.0681   21.3265 C   0  0  2  0  0  0  0  0  0  0  0  0
    8.8666  -19.5788   21.6844 N   0  0  0  0  0  0  0  0  0  0  0  0
   10.4572  -17.7546   21.9253 C   0  0  0  0  0  0  0  0  0  0  0  0
   11.6238  -17.2919   21.7814 O   0  0  0  0  0  0  0  0  0  0  0  0
    9.5427  -16.9678   22.6520 N   0  0  0  0  0  0  0  0  0  0  0  0
    9.8339  -15.6295   23.1404 C   0  0  1  0  0  0  0  0  0  0  0  0
    8.6477  -14.7502   23.1675 C   0  0  0  0  0  0  0  0  0  0  0  0
    7.9064  -14.5985   21.9018 C   0  0  0  0  0  0  0  0  0  0  0  0
    6.7632  -15.3762   21.5816 C   0  0  0  0  0  0  0  0  0  0  0  0
    6.2843  -14.9796   20.4000 N   0  0  0  0  0  0  0  0  0  0  0  0
    7.0251  -13.9853   19.8944 C   0  0  0  0  0  0  0  0  0  0  0  0
    6.9518  -13.2528   18.7180 C   0  0  0  0  0  0  0  0  0  0  0  0
    7.9035  -12.2856   18.4939 C   0  0  0  0  0  0  0  0  0  0  0  0
    8.9002  -12.0456   19.4016 C   0  0  0  0  0  0  0  0  0  0  0  0
    8.9793  -12.7693   20.5732 C   0  0  0  0  0  0  0  0  0  0  0  0
    8.0391  -13.7489   20.8340 C   0  0  0  0  0  0  0  0  0  0  0  0
   10.5286  -15.6902   24.4247 C   0  0  0  0  0  0  0  0  0  0  0  0
   11.6157  -15.0796   24.5818 O   0  0  0  0  0  0  0  0  0  0  0  0
   10.0108  -16.4285   25.5240 N   0  0  0  0  0  0  0  0  0  0  0  0
   10.7615  -16.4421   26.7697 C   0  0  1  0  0  0  0  0  0  0  0  0
   10.7131  -15.0456   27.3404 C   0  0  0  0  0  0  0  0  0  0  0  0
    9.3696  -14.4296   27.3086 C   0  0  0  0  0  0  0  0  0  0  0  0
    9.0878  -13.2306   27.9249 C   0  0  0  0  0  0  0  0  0  0  0  0
    7.8419  -12.6549   27.8903 C   0  0  0  0  0  0  0  0  0  0  0  0
    6.8229  -13.2980   27.2115 C   0  0  0  0  0  0  0  0  0  0  0  0
    7.1080  -14.5012   26.5940 C   0  0  0  0  0  0  0  0  0  0  0  0
    8.3573  -15.0849   26.6248 C   0  0  0  0  0  0  0  0  0  0  0  0
   10.1760  -17.3988   27.7393 C   0  0  0  0  0  0  0  0  0  0  0  0
    9.0789  -18.1976   27.4757 O   0  0  0  0  0  0  0  0  0  0  0  0
   10.7093  -17.4895   28.8738 O   0  0  0  0  0  0  0  0  0  0  0  0
  2  1  1  0
  2  3  2  0
  4  2  1  0
  5  7  1  0
  5  4  1  0
  5  6  1  6
  7  8  2  0
  9 10  1  0
  9  7  1  0
 10 11  1  1
 11 12  1  0
 12 20  1  0
 13 14  1  0
 13 12  2  0
 14 15  1  0
 15 20  2  0
 15 16  1  0
 16 17  2  0
 17 18  1  0
 19 18  2  0
 20 19  1  0
 21 10  1  0
 22 21  2  0
 23 21  1  0
 24 25  1  1
 24 23  1  0
 25 26  1  0
 26 27  2  0
 27 28  1  0
 29 28  2  0
 30 29  1  0
 31 26  1  0
 31 30  2  0
 32 24  1  0
 32 33  1  0
 34 32  2  0
M  END
$$$$
