NWF.pdb
     RDKit          3D

 34 36  0  0  1  0  0  0  0  0999 V2000
    8.1672  -15.6282   16.6092 N   0  0  0  0  0  0  0  0  0  0  0  0
    9.1697  -15.9328   17.5746 C   0  0  0  0  0  0  0  0  0  0  0  0
   10.1559  -16.6118   17.2019 O   0  0  0  0  0  0  0  0  0  0  0  0
    9.0886  -15.4819   18.9829 C   0  0  0  0  0  0  0  0  0  0  0  0
    9.6192  -16.5481   19.8731 C   0  0  2  0  0  0  0  0  0  0  0  0
    8.9626  -17.7880   19.6031 N   0  0  0  0  0  0  0  0  0  0  0  0
    9.6406  -16.1862   21.3033 C   0  0  0  0  0  0  0  0  0  0  0  0
   10.2002  -15.1033   21.6345 O   0  0  0  0  0  0  0  0  0  0  0  0
    9.0818  -16.9598   22.3391 N   0  0  0  0  0  0  0  0  0  0  0  0
    9.2116  -16.6385   23.7513 C   0  0  1  0  0  0  0  0  0  0  0  0
    8.0448  -17.0600   24.5525 C   0  0  0  0  0  0  0  0  0  0  0  0
    7.0812  -16.0075   24.9242 C   0  0  0  0  0  0  0  0  0  0  0  0
    5.7660  -16.2927   25.3750 C   0  0  0  0  0  0  0  0  0  0  0  0
    5.1527  -15.1467   25.6804 N   0  0  0  0  0  0  0  0  0  0  0  0
    5.9616  -14.1012   25.4668 C   0  0  0  0  0  0  0  0  0  0  0  0
    5.7988  -12.7311   25.6166 C   0  0  0  0  0  0  0  0  0  0  0  0
    6.8524  -11.9112   25.2863 C   0  0  0  0  0  0  0  0  0  0  0  0
    8.0335  -12.4245   24.8209 C   0  0  0  0  0  0  0  0  0  0  0  0
    8.2028  -13.7851   24.6697 C   0  0  0  0  0  0  0  0  0  0  0  0
    7.1662  -14.6409   24.9934 C   0  0  0  0  0  0  0  0  0  0  0  0
   10.4781  -17.1414   24.2792 C   0  0  0  0  0  0  0  0  0  0  0  0
   11.0845  -18.0678   23.6847 O   0  0  0  0  0  0  0  0  0  0  0  0
   11.0610  -16.6118   25.4631 N   0  0  0  0  0  0  0  0  0  0  0  0
   12.2381  -17.2657   26.0128 C   0  0  1  0  0  0  0  0  0  0  0  0
   12.9434  -16.2608   26.8907 C   0  0  0  0  0  0  0  0  0  0  0  0
   12.0445  -15.5287   27.8081 C   0  0  0  0  0  0  0  0  0  0  0  0
   11.7369  -15.9879   29.0695 C   0  0  0  0  0  0  0  0  0  0  0  0
   10.9073  -15.3051   29.9243 C   0  0  0  0  0  0  0  0  0  0  0  0
   10.3537  -14.1074   29.5101 C   0  0  0  0  0  0  0  0  0  0  0  0
   10.6638  -13.6487   28.2436 C   0  0  0  0  0  0  0  0  0  0  0  0
   11.4964  -14.3294   27.3802 C   0  0  0  0  0  0  0  0  0  0  0  0
   11.8660  -18.4559   26.8149 C   0  0  0  0  0  0  0  0  0  0  0  0
   12.7742  -19.3732   27.3101 O   0  0  0  0  0  0  0  0  0  0  0  0
   10.6478  -18.6448   27.0599 O   0  0  0  0  0  0  0  0  0  0  0  0
  2  1  1  0
  2  3  2  0
  4  2  1  0
  5  7  1  0
  5  4  1  0
  5  6  1  1
  7  8  2  0
  9 10  1  0
  9  7  1  0
 10 11  1  1
 11 12  1  0
 12 20  1  0
 13 14  1  0
 13 12  2  0
 14 15  1  0
 15 20  2  0
 15 16  1  0
 16 17  2  0
 17 18  1  0
 19 18  2  0
 20 19  1  0
 21 10  1  0
 22 21  2  0
 23 21  1  0
 24 25  1  1
 24 23  1  0
 25 26  1  0
 26 27  2  0
 27 28  1  0
 29 28  2  0
 30 29  1  0
 31 26  1  0
 31 30  2  0
 32 24  1  0
 32 33  1  0
 34 32  2  0
M  END
$$$$
