NWF.pdb
     RDKit          3D

 34 36  0  0  1  0  0  0  0  0999 V2000
   14.1965  -17.9428   17.7866 N   0  0  0  0  0  0  0  0  0  0  0  0
   12.8515  -17.5079   17.9648 C   0  0  0  0  0  0  0  0  0  0  0  0
   12.0162  -17.8067   17.0785 O   0  0  0  0  0  0  0  0  0  0  0  0
   12.4119  -16.7265   19.1434 C   0  0  0  0  0  0  0  0  0  0  0  0
   11.8623  -17.6506   20.1703 C   0  0  2  0  0  0  0  0  0  0  0  0
   10.8191  -18.4487   19.6079 N   0  0  0  0  0  0  0  0  0  0  0  0
   11.4898  -16.9933   21.4377 C   0  0  0  0  0  0  0  0  0  0  0  0
   12.3439  -16.2474   21.9942 O   0  0  0  0  0  0  0  0  0  0  0  0
   10.2459  -17.1330   22.0831 N   0  0  0  0  0  0  0  0  0  0  0  0
    9.9465  -16.5804   23.3944 C   0  0  1  0  0  0  0  0  0  0  0  0
    8.4985  -16.4433   23.6501 C   0  0  0  0  0  0  0  0  0  0  0  0
    7.6859  -15.8639   22.5646 C   0  0  0  0  0  0  0  0  0  0  0  0
    6.4473  -16.4192   22.1500 C   0  0  0  0  0  0  0  0  0  0  0  0
    5.9267  -15.6525   21.1889 N   0  0  0  0  0  0  0  0  0  0  0  0
    6.7280  -14.6136   20.9210 C   0  0  0  0  0  0  0  0  0  0  0  0
    6.6451  -13.5604   20.0211 C   0  0  0  0  0  0  0  0  0  0  0  0
    7.6734  -12.6476   19.9919 C   0  0  0  0  0  0  0  0  0  0  0  0
    8.7539  -12.7676   20.8245 C   0  0  0  0  0  0  0  0  0  0  0  0
    8.8431  -13.8115   21.7217 C   0  0  0  0  0  0  0  0  0  0  0  0
    7.8275  -14.7478   21.7811 C   0  0  0  0  0  0  0  0  0  0  0  0
   10.6422  -17.3286   24.4393 C   0  0  0  0  0  0  0  0  0  0  0  0
   11.7717  -17.8293   24.2092 O   0  0  0  0  0  0  0  0  0  0  0  0
   10.0781  -17.5151   25.7311 N   0  0  0  0  0  0  0  0  0  0  0  0
   10.9498  -17.4241   26.8918 C   0  0  1  0  0  0  0  0  0  0  0  0
   11.4217  -15.9938   26.9902 C   0  0  0  0  0  0  0  0  0  0  0  0
   10.3962  -15.0559   27.4942 C   0  0  0  0  0  0  0  0  0  0  0  0
    9.6183  -14.2866   26.6577 C   0  0  0  0  0  0  0  0  0  0  0  0
    8.6613  -13.4202   27.1250 C   0  0  0  0  0  0  0  0  0  0  0  0
    8.4639  -13.3090   28.4894 C   0  0  0  0  0  0  0  0  0  0  0  0
    9.2460  -14.0818   29.3269 C   0  0  0  0  0  0  0  0  0  0  0  0
   10.2088  -14.9541   28.8640 C   0  0  0  0  0  0  0  0  0  0  0  0
   10.2321  -17.8001   28.1335 C   0  0  0  0  0  0  0  0  0  0  0  0
    8.8909  -18.1316   28.1848 O   0  0  0  0  0  0  0  0  0  0  0  0
   10.8828  -17.8177   29.2087 O   0  0  0  0  0  0  0  0  0  0  0  0
  2  1  1  0
  2  3  2  0
  4  2  1  0
  5  7  1  0
  5  4  1  0
  5  6  1  6
  7  8  2  0
  9 10  1  0
  9  7  1  0
 10 11  1  1
 11 12  1  0
 12 20  1  0
 13 14  1  0
 13 12  2  0
 14 15  1  0
 15 20  2  0
 15 16  1  0
 16 17  2  0
 17 18  1  0
 19 18  2  0
 20 19  1  0
 21 10  1  0
 22 21  2  0
 23 21  1  0
 24 25  1  1
 24 23  1  0
 25 26  1  0
 26 27  2  0
 27 28  1  0
 29 28  2  0
 30 29  1  0
 31 26  1  0
 31 30  2  0
 32 24  1  0
 32 33  1  0
 34 32  2  0
M  END
$$$$
