DAC.pdb
     RDKit          3D

 20 19  0  0  1  0  0  0  0  0999 V2000
   18.9492  -12.0856  -17.3583 N   0  0  0  0  0  0  0  0  0  0  0  0
   19.7328  -10.9511  -17.8056 C   0  0  1  0  0  0  0  0  0  0  0  0
   19.3365  -10.7006  -19.2520 C   0  0  0  0  0  0  0  0  0  0  0  0
   19.8862  -11.8334  -20.0431 C   0  0  0  0  0  0  0  0  0  0  0  0
   21.1168  -12.0896  -19.9928 O   0  0  0  0  0  0  0  0  0  0  0  0
   19.4271   -9.8038  -16.9374 C   0  0  0  0  0  0  0  0  0  0  0  0
   18.2382   -9.4276  -16.8008 O   0  0  0  0  0  0  0  0  0  0  0  0
   19.1033  -12.6448  -20.8537 O   0  0  0  0  0  0  0  0  0  0  0  0
   21.4408   -7.6028  -14.6479 C   0  0  0  0  0  0  0  0  0  0  0  0
   20.1312   -7.9416  -15.3672 C   0  0  2  0  0  0  0  0  0  0  0  0
   20.4051   -9.0628  -16.2167 N   0  0  0  0  0  0  0  0  0  0  0  0
   19.7394   -6.7219  -16.1087 C   0  0  0  0  0  0  0  0  0  0  0  0
   20.2155   -6.3651  -17.2009 O   0  0  0  0  0  0  0  0  0  0  0  0
   18.7282   -5.9156  -15.4841 N   0  0  0  0  0  0  0  0  0  0  0  0
   18.2355   -4.7013  -16.0617 C   0  0  1  0  0  0  0  0  0  0  0  0
   16.7839   -4.5088  -15.6055 C   0  0  0  0  0  0  0  0  0  0  0  0
   15.7272   -5.8487  -16.1590 S   0  0  0  0  0  0  0  0  0  0  0  0
   19.0341   -3.5687  -15.5513 C   0  0  0  0  0  0  0  0  0  0  0  0
   18.9135   -2.3216  -16.1318 O   0  0  0  0  0  0  0  0  0  0  0  0
   19.8245   -3.7138  -14.5968 O   0  0  0  0  0  0  0  0  0  0  0  0
  2  1  1  1
  2  3  1  0
  4  5  2  0
  4  3  1  0
  6  2  1  0
  7  6  2  0
  8  4  1  0
 10  9  1  6
 10 12  1  0
 10 11  1  0
 11  6  1  0
 12 13  2  0
 14 15  1  0
 14 12  1  0
 15 16  1  1
 16 17  1  0
 18 15  1  0
 19 18  1  0
 20 18  2  0
M  END
$$$$
