DAC.pdb
     RDKit          3D

 20 19  0  0  1  0  0  0  0  0999 V2000
   17.6384  -11.9689  -16.7503 N   0  0  0  0  0  0  0  0  0  0  0  0
   17.1103  -11.0005  -15.8097 C   0  0  1  0  0  0  0  0  0  0  0  0
   17.3573  -11.5723  -14.4227 C   0  0  0  0  0  0  0  0  0  0  0  0
   16.4257  -12.7209  -14.2670 C   0  0  0  0  0  0  0  0  0  0  0  0
   15.2295  -12.6082  -14.6395 O   0  0  0  0  0  0  0  0  0  0  0  0
   17.8079   -9.7224  -16.0178 C   0  0  0  0  0  0  0  0  0  0  0  0
   19.0597   -9.6792  -15.9472 O   0  0  0  0  0  0  0  0  0  0  0  0
   16.8067  -13.9398  -13.7217 O   0  0  0  0  0  0  0  0  0  0  0  0
   16.7166   -6.2065  -16.8076 C   0  0  0  0  0  0  0  0  0  0  0  0
   17.8116   -7.2334  -16.5015 C   0  0  2  0  0  0  0  0  0  0  0  0
   17.1539   -8.4910  -16.3022 N   0  0  0  0  0  0  0  0  0  0  0  0
   18.5164   -6.7394  -15.2971 C   0  0  0  0  0  0  0  0  0  0  0  0
   18.1493   -6.9314  -14.1245 O   0  0  0  0  0  0  0  0  0  0  0  0
   19.7124   -5.9842  -15.5460 N   0  0  0  0  0  0  0  0  0  0  0  0
   20.5104   -5.4240  -14.4971 C   0  0  1  0  0  0  0  0  0  0  0  0
   21.9738   -5.8052  -14.7533 C   0  0  0  0  0  0  0  0  0  0  0  0
   23.0824   -5.0235  -13.5793 S   0  0  0  0  0  0  0  0  0  0  0  0
   20.4014   -3.9520  -14.5452 C   0  0  0  0  0  0  0  0  0  0  0  0
   20.4535   -3.2950  -15.7586 O   0  0  0  0  0  0  0  0  0  0  0  0
   20.2617   -3.2801  -13.5032 O   0  0  0  0  0  0  0  0  0  0  0  0
  2  1  1  6
  2  3  1  0
  4  5  2  0
  4  3  1  0
  6  2  1  0
  7  6  2  0
  8  4  1  0
 10  9  1  1
 10 12  1  0
 10 11  1  0
 11  6  1  0
 12 13  2  0
 14 15  1  0
 14 12  1  0
 15 16  1  6
 16 17  1  0
 18 15  1  0
 19 18  1  0
 20 18  2  0
M  END
$$$$
