DAC.pdb
     RDKit          3D

 20 19  0  0  1  0  0  0  0  0999 V2000
   17.8341  -12.0849  -16.8308 N   0  0  0  0  0  0  0  0  0  0  0  0
   17.2748  -10.9115  -16.1892 C   0  0  1  0  0  0  0  0  0  0  0  0
   17.0443  -11.2881  -14.7343 C   0  0  0  0  0  0  0  0  0  0  0  0
   15.8372  -12.1563  -14.7086 C   0  0  0  0  0  0  0  0  0  0  0  0
   14.8076  -11.8112  -15.3435 O   0  0  0  0  0  0  0  0  0  0  0  0
   18.2311   -9.8031  -16.3330 C   0  0  0  0  0  0  0  0  0  0  0  0
   19.4383   -9.9826  -16.0431 O   0  0  0  0  0  0  0  0  0  0  0  0
   15.7775  -13.3541  -14.0086 O   0  0  0  0  0  0  0  0  0  0  0  0
   18.0225   -6.2782  -17.6299 C   0  0  0  0  0  0  0  0  0  0  0  0
   18.7997   -7.4108  -16.9514 C   0  0  2  0  0  0  0  0  0  0  0  0
   17.8837   -8.5010  -16.7899 N   0  0  0  0  0  0  0  0  0  0  0  0
   19.2947   -6.8618  -15.6688 C   0  0  0  0  0  0  0  0  0  0  0  0
   18.6251   -6.7686  -14.6249 O   0  0  0  0  0  0  0  0  0  0  0  0
   20.6589   -6.4130  -15.6729 N   0  0  0  0  0  0  0  0  0  0  0  0
   21.3334   -5.9648  -14.4918 C   0  0  1  0  0  0  0  0  0  0  0  0
   22.7029   -6.6528  -14.4323 C   0  0  0  0  0  0  0  0  0  0  0  0
   22.5579   -8.3936  -14.0236 S   0  0  0  0  0  0  0  0  0  0  0  0
   21.5525   -4.5075  -14.5881 C   0  0  0  0  0  0  0  0  0  0  0  0
   21.8929   -3.7844  -13.4621 O   0  0  0  0  0  0  0  0  0  0  0  0
   21.4359   -3.9072  -15.6757 O   0  0  0  0  0  0  0  0  0  0  0  0
  2  1  1  6
  2  3  1  0
  4  5  2  0
  4  3  1  0
  6  2  1  0
  7  6  2  0
  8  4  1  0
 10  9  1  1
 10 12  1  0
 10 11  1  0
 11  6  1  0
 12 13  2  0
 14 15  1  0
 14 12  1  0
 15 16  1  6
 16 17  1  0
 18 15  1  0
 19 18  1  0
 20 18  2  0
M  END
$$$$
