DAC.pdb
     RDKit          3D

 20 19  0  0  1  0  0  0  0  0999 V2000
   19.3426  -10.3312  -14.6586 N   0  0  0  0  0  0  0  0  0  0  0  0
   18.0607   -9.6571  -14.7210 C   0  0  1  0  0  0  0  0  0  0  0  0
   17.0019  -10.7480  -14.6999 C   0  0  0  0  0  0  0  0  0  0  0  0
   17.0038  -11.3650  -16.0530 C   0  0  0  0  0  0  0  0  0  0  0  0
   17.2648  -12.5892  -16.1794 O   0  0  0  0  0  0  0  0  0  0  0  0
   17.9538   -8.7544  -13.5646 C   0  0  0  0  0  0  0  0  0  0  0  0
   18.0804   -9.2137  -12.4041 O   0  0  0  0  0  0  0  0  0  0  0  0
   16.7280  -10.6535  -17.2131 O   0  0  0  0  0  0  0  0  0  0  0  0
   17.4514   -5.0497  -13.1311 C   0  0  0  0  0  0  0  0  0  0  0  0
   17.5814   -6.4611  -12.5492 C   0  0  2  0  0  0  0  0  0  0  0  0
   17.7101   -7.3557  -13.6613 N   0  0  0  0  0  0  0  0  0  0  0  0
   16.3594   -6.6910  -11.7459 C   0  0  0  0  0  0  0  0  0  0  0  0
   15.2537   -7.0264  -12.2060 O   0  0  0  0  0  0  0  0  0  0  0  0
   16.5048   -6.5014  -10.3297 N   0  0  0  0  0  0  0  0  0  0  0  0
   15.4316   -6.7059   -9.4038 C   0  0  1  0  0  0  0  0  0  0  0  0
   16.0374   -7.0497   -8.0373 C   0  0  0  0  0  0  0  0  0  0  0  0
   14.7712   -7.3865   -6.8118 S   0  0  0  0  0  0  0  0  0  0  0  0
   14.6691   -5.4485   -9.2678 C   0  0  0  0  0  0  0  0  0  0  0  0
   13.3062   -5.4875   -9.0495 O   0  0  0  0  0  0  0  0  0  0  0  0
   15.2339   -4.3387   -9.3464 O   0  0  0  0  0  0  0  0  0  0  0  0
  2  1  1  1
  2  3  1  0
  4  5  2  0
  4  3  1  0
  6  2  1  0
  7  6  2  0
  8  4  1  0
 10  9  1  6
 10 12  1  0
 10 11  1  0
 11  6  1  0
 12 13  2  0
 14 15  1  0
 14 12  1  0
 15 16  1  1
 16 17  1  0
 18 15  1  0
 19 18  1  0
 20 18  2  0
M  END
$$$$
