DAC.pdb
     RDKit          3D

 20 19  0  0  1  0  0  0  0  0999 V2000
   16.9302  -12.3822  -13.9407 N   0  0  0  0  0  0  0  0  0  0  0  0
   16.5344  -11.0178  -14.2290 C   0  0  1  0  0  0  0  0  0  0  0  0
   15.0670  -11.0721  -14.6236 C   0  0  0  0  0  0  0  0  0  0  0  0
   15.0046  -11.7973  -15.9204 C   0  0  0  0  0  0  0  0  0  0  0  0
   15.7626  -11.4536  -16.8638 O   0  0  0  0  0  0  0  0  0  0  0  0
   16.7575  -10.2047  -13.0237 C   0  0  0  0  0  0  0  0  0  0  0  0
   16.1273  -10.4677  -11.9714 O   0  0  0  0  0  0  0  0  0  0  0  0
   14.1388  -12.8566  -16.1577 O   0  0  0  0  0  0  0  0  0  0  0  0
   19.0165   -7.3240  -12.1501 C   0  0  0  0  0  0  0  0  0  0  0  0
   17.8792   -8.2887  -11.7991 C   0  0  2  0  0  0  0  0  0  0  0  0
   17.6612   -9.1076  -12.9547 N   0  0  0  0  0  0  0  0  0  0  0  0
   16.7153   -7.4446  -11.4466 C   0  0  0  0  0  0  0  0  0  0  0  0
   15.9422   -6.9149  -12.2643 O   0  0  0  0  0  0  0  0  0  0  0  0
   16.4971   -7.2469  -10.0409 N   0  0  0  0  0  0  0  0  0  0  0  0
   15.4160   -6.4621   -9.5249 C   0  0  1  0  0  0  0  0  0  0  0  0
   15.1496   -6.9051   -8.0808 C   0  0  0  0  0  0  0  0  0  0  0  0
   14.5443   -8.5920   -8.0012 S   0  0  0  0  0  0  0  0  0  0  0  0
   15.8207   -5.0420   -9.5051 C   0  0  0  0  0  0  0  0  0  0  0  0
   14.8731   -4.0565   -9.3117 O   0  0  0  0  0  0  0  0  0  0  0  0
   17.0127   -4.7077   -9.6610 O   0  0  0  0  0  0  0  0  0  0  0  0
  2  1  1  1
  2  3  1  0
  4  5  2  0
  4  3  1  0
  6  2  1  0
  7  6  2  0
  8  4  1  0
 10  9  1  6
 10 12  1  0
 10 11  1  0
 11  6  1  0
 12 13  2  0
 14 15  1  0
 14 12  1  0
 15 16  1  1
 16 17  1  0
 18 15  1  0
 19 18  1  0
 20 18  2  0
M  END
$$$$
