DAC.pdb
     RDKit          3D

 20 19  0  0  1  0  0  0  0  0999 V2000
   16.7184  -11.2626  -16.7947 N   0  0  0  0  0  0  0  0  0  0  0  0
   16.6661  -10.4389  -15.6030 C   0  0  1  0  0  0  0  0  0  0  0  0
   17.0607  -11.3390  -14.4428 C   0  0  0  0  0  0  0  0  0  0  0  0
   15.9625  -12.3289  -14.2834 C   0  0  0  0  0  0  0  0  0  0  0  0
   14.7665  -11.9390  -14.2870 O   0  0  0  0  0  0  0  0  0  0  0  0
   17.5960   -9.3125  -15.7756 C   0  0  0  0  0  0  0  0  0  0  0  0
   18.7656   -9.5280  -16.1749 O   0  0  0  0  0  0  0  0  0  0  0  0
   16.1838  -13.6908  -14.1269 O   0  0  0  0  0  0  0  0  0  0  0  0
   17.3016   -5.5737  -15.5556 C   0  0  0  0  0  0  0  0  0  0  0  0
   18.1544   -6.8415  -15.6690 C   0  0  2  0  0  0  0  0  0  0  0  0
   17.2631   -7.9533  -15.5170 N   0  0  0  0  0  0  0  0  0  0  0  0
   19.1728   -6.7516  -14.5984 C   0  0  0  0  0  0  0  0  0  0  0  0
   18.9672   -6.9852  -13.3943 O   0  0  0  0  0  0  0  0  0  0  0  0
   20.4872   -6.3610  -15.0256 N   0  0  0  0  0  0  0  0  0  0  0  0
   21.5968   -6.2535  -14.1267 C   0  0  1  0  0  0  0  0  0  0  0  0
   22.8478   -6.7732  -14.8461 C   0  0  0  0  0  0  0  0  0  0  0  0
   22.7492   -8.5354  -15.1671 S   0  0  0  0  0  0  0  0  0  0  0  0
   21.8113   -4.8299  -13.7974 C   0  0  0  0  0  0  0  0  0  0  0  0
   22.5352   -4.4825  -12.6741 O   0  0  0  0  0  0  0  0  0  0  0  0
   21.3484   -3.9231  -14.5187 O   0  0  0  0  0  0  0  0  0  0  0  0
  2  1  1  6
  2  3  1  0
  4  5  2  0
  4  3  1  0
  6  2  1  0
  7  6  2  0
  8  4  1  0
 10  9  1  1
 10 12  1  0
 10 11  1  0
 11  6  1  0
 12 13  2  0
 14 15  1  0
 14 12  1  0
 15 16  1  6
 16 17  1  0
 18 15  1  0
 19 18  1  0
 20 18  2  0
M  END
$$$$
