DAC.pdb
     RDKit          3D

 20 19  0  0  1  0  0  0  0  0999 V2000
   18.5161  -14.9926  -17.1945 N   0  0  0  0  0  0  0  0  0  0  0  0
   17.8037  -13.8139  -16.7422 C   0  0  1  0  0  0  0  0  0  0  0  0
   17.4019  -14.0834  -15.3008 C   0  0  0  0  0  0  0  0  0  0  0  0
   16.3168  -15.0991  -15.3473 C   0  0  0  0  0  0  0  0  0  0  0  0
   15.9960  -15.7168  -14.2994 O   0  0  0  0  0  0  0  0  0  0  0  0
   18.7002  -12.6541  -16.8634 C   0  0  0  0  0  0  0  0  0  0  0  0
   19.8996  -12.7565  -16.5102 O   0  0  0  0  0  0  0  0  0  0  0  0
   15.6198  -15.4141  -16.5062 O   0  0  0  0  0  0  0  0  0  0  0  0
   18.3426   -9.1552  -18.2009 C   0  0  0  0  0  0  0  0  0  0  0  0
   19.1519  -10.2355  -17.4761 C   0  0  2  0  0  0  0  0  0  0  0  0
   18.3016  -11.3838  -17.3658 N   0  0  0  0  0  0  0  0  0  0  0  0
   19.5345   -9.6574  -16.1681 C   0  0  0  0  0  0  0  0  0  0  0  0
   18.8240   -9.6654  -15.1474 O   0  0  0  0  0  0  0  0  0  0  0  0
   20.8348   -9.0498  -16.1164 N   0  0  0  0  0  0  0  0  0  0  0  0
   21.3825   -8.4863  -14.9192 C   0  0  1  0  0  0  0  0  0  0  0  0
   22.9053   -8.4034  -15.0823 C   0  0  0  0  0  0  0  0  0  0  0  0
   23.7123   -9.9314  -14.6001 S   0  0  0  0  0  0  0  0  0  0  0  0
   20.8606   -7.1150  -14.7518 C   0  0  0  0  0  0  0  0  0  0  0  0
   20.7326   -6.5743  -13.4877 O   0  0  0  0  0  0  0  0  0  0  0  0
   20.5286   -6.4254  -15.7372 O   0  0  0  0  0  0  0  0  0  0  0  0
  2  1  1  1
  2  3  1  0
  4  5  2  0
  4  3  1  0
  6  2  1  0
  7  6  2  0
  8  4  1  0
 10  9  1  6
 10 12  1  0
 10 11  1  0
 11  6  1  0
 12 13  2  0
 14 15  1  0
 14 12  1  0
 15 16  1  6
 16 17  1  0
 18 15  1  0
 19 18  1  0
 20 18  2  0
M  END
$$$$
