DAC.pdb
     RDKit          3D

 20 19  0  0  1  0  0  0  0  0999 V2000
   20.0811  -21.8346  -15.2116 N   0  0  0  0  0  0  0  0  0  0  0  0
   20.6412  -20.4979  -15.2377 C   0  0  1  0  0  0  0  0  0  0  0  0
   20.0273  -19.7534  -14.0628 C   0  0  0  0  0  0  0  0  0  0  0  0
   18.6157  -19.4685  -14.4339 C   0  0  0  0  0  0  0  0  0  0  0  0
   17.7061  -19.6038  -13.5755 O   0  0  0  0  0  0  0  0  0  0  0  0
   22.1040  -20.6048  -15.1267 C   0  0  0  0  0  0  0  0  0  0  0  0
   22.6089  -21.5090  -14.4187 O   0  0  0  0  0  0  0  0  0  0  0  0
   18.2326  -19.0521  -15.7020 O   0  0  0  0  0  0  0  0  0  0  0  0
   24.9641  -18.4417  -16.2480 C   0  0  0  0  0  0  0  0  0  0  0  0
   24.4332  -19.6903  -15.5365 C   0  0  2  0  0  0  0  0  0  0  0  0
   23.0217  -19.7353  -15.7802 N   0  0  0  0  0  0  0  0  0  0  0  0
   24.7797  -19.5297  -14.1063 C   0  0  0  0  0  0  0  0  0  0  0  0
   24.1146  -18.8837  -13.2774 O   0  0  0  0  0  0  0  0  0  0  0  0
   25.9850  -20.1866  -13.6838 N   0  0  0  0  0  0  0  0  0  0  0  0
   26.4767  -20.1201  -12.3404 C   0  0  1  0  0  0  0  0  0  0  0  0
   25.5098  -20.8968  -11.4379 C   0  0  0  0  0  0  0  0  0  0  0  0
   26.1748  -21.1245   -9.7874 S   0  0  0  0  0  0  0  0  0  0  0  0
   27.7964  -20.7800  -12.2793 C   0  0  0  0  0  0  0  0  0  0  0  0
   28.0347  -21.9179  -13.0243 O   0  0  0  0  0  0  0  0  0  0  0  0
   28.7120  -20.3283  -11.5620 O   0  0  0  0  0  0  0  0  0  0  0  0
  2  1  1  1
  2  3  1  0
  4  5  2  0
  4  3  1  0
  6  2  1  0
  7  6  2  0
  8  4  1  0
 10  9  1  6
 10 12  1  0
 10 11  1  0
 11  6  1  0
 12 13  2  0
 14 15  1  0
 14 12  1  0
 15 16  1  1
 16 17  1  0
 18 15  1  0
 19 18  1  0
 20 18  2  0
M  END
$$$$
