DAC.pdb
     RDKit          3D

 20 19  0  0  1  0  0  0  0  0999 V2000
   15.7266  -10.1326  -14.1717 N   0  0  0  0  0  0  0  0  0  0  0  0
   16.9104  -10.2971  -14.9920 C   0  0  1  0  0  0  0  0  0  0  0  0
   16.4302  -10.8187  -16.3370 C   0  0  0  0  0  0  0  0  0  0  0  0
   15.7606  -12.1196  -16.0712 C   0  0  0  0  0  0  0  0  0  0  0  0
   16.2903  -12.9435  -15.2818 O   0  0  0  0  0  0  0  0  0  0  0  0
   17.5807   -8.9929  -15.1073 C   0  0  0  0  0  0  0  0  0  0  0  0
   18.6408   -8.8957  -15.7710 O   0  0  0  0  0  0  0  0  0  0  0  0
   14.5565  -12.4882  -16.6566 O   0  0  0  0  0  0  0  0  0  0  0  0
   16.7514   -5.4899  -14.0238 C   0  0  0  0  0  0  0  0  0  0  0  0
   17.7224   -6.5060  -14.6336 C   0  0  2  0  0  0  0  0  0  0  0  0
   17.1064   -7.7936  -14.5058 N   0  0  0  0  0  0  0  0  0  0  0  0
   18.9856   -6.3786  -13.8724 C   0  0  0  0  0  0  0  0  0  0  0  0
   19.2319   -6.9487  -12.7948 O   0  0  0  0  0  0  0  0  0  0  0  0
   19.9775   -5.5209  -14.4582 N   0  0  0  0  0  0  0  0  0  0  0  0
   21.3159   -5.4250  -13.9576 C   0  0  1  0  0  0  0  0  0  0  0  0
   22.1819   -6.4441  -14.7085 C   0  0  0  0  0  0  0  0  0  0  0  0
   22.0706   -8.0798  -13.9801 S   0  0  0  0  0  0  0  0  0  0  0  0
   21.8395   -4.0741  -14.2437 C   0  0  0  0  0  0  0  0  0  0  0  0
   22.8883   -3.5685  -13.5013 O   0  0  0  0  0  0  0  0  0  0  0  0
   21.3509   -3.3706  -15.1510 O   0  0  0  0  0  0  0  0  0  0  0  0
  2  1  1  1
  2  3  1  0
  4  5  2  0
  4  3  1  0
  6  2  1  0
  7  6  2  0
  8  4  1  0
 10  9  1  1
 10 12  1  0
 10 11  1  0
 11  6  1  0
 12 13  2  0
 14 15  1  0
 14 12  1  0
 15 16  1  6
 16 17  1  0
 18 15  1  0
 19 18  1  0
 20 18  2  0
M  END
$$$$
