DAC.pdb
     RDKit          3D

 20 19  0  0  1  0  0  0  0  0999 V2000
   19.2058  -12.5971  -15.7921 N   0  0  0  0  0  0  0  0  0  0  0  0
   19.1972  -11.4977  -16.7369 C   0  0  1  0  0  0  0  0  0  0  0  0
   17.7724  -10.9676  -16.7640 C   0  0  0  0  0  0  0  0  0  0  0  0
   16.9539  -11.9913  -17.4665 C   0  0  0  0  0  0  0  0  0  0  0  0
   15.7040  -11.9950  -17.3242 O   0  0  0  0  0  0  0  0  0  0  0  0
   20.1601  -10.4843  -16.2792 C   0  0  0  0  0  0  0  0  0  0  0  0
   20.0722  -10.0248  -15.1152 O   0  0  0  0  0  0  0  0  0  0  0  0
   17.5002  -12.9668  -18.2900 O   0  0  0  0  0  0  0  0  0  0  0  0
   23.1043   -8.7306  -17.8385 C   0  0  0  0  0  0  0  0  0  0  0  0
   22.1101   -8.9160  -16.6876 C   0  0  2  0  0  0  0  0  0  0  0  0
   21.2178   -9.9670  -17.0784 N   0  0  0  0  0  0  0  0  0  0  0  0
   21.4386   -7.6092  -16.5071 C   0  0  0  0  0  0  0  0  0  0  0  0
   20.4353   -7.2278  -17.1354 O   0  0  0  0  0  0  0  0  0  0  0  0
   22.0225   -6.7443  -15.5203 N   0  0  0  0  0  0  0  0  0  0  0  0
   21.4927   -5.4506  -15.2094 C   0  0  1  0  0  0  0  0  0  0  0  0
   20.7429   -5.5484  -13.8750 C   0  0  0  0  0  0  0  0  0  0  0  0
   20.2876   -3.9315  -13.2452 S   0  0  0  0  0  0  0  0  0  0  0  0
   22.6118   -4.5015  -15.0418 C   0  0  0  0  0  0  0  0  0  0  0  0
   22.4311   -3.1631  -15.3294 O   0  0  0  0  0  0  0  0  0  0  0  0
   23.7297   -4.8850  -14.6418 O   0  0  0  0  0  0  0  0  0  0  0  0
  2  1  1  1
  2  3  1  0
  4  5  2  0
  4  3  1  0
  6  2  1  0
  7  6  2  0
  8  4  1  0
 10  9  1  6
 10 12  1  0
 10 11  1  0
 11  6  1  0
 12 13  2  0
 14 15  1  0
 14 12  1  0
 15 16  1  1
 16 17  1  0
 18 15  1  0
 19 18  1  0
 20 18  2  0
M  END
$$$$
