QQY.pdb
     RDKit          3D

 31 31  0  0  1  0  0  0  0  0999 V2000
   17.7967  -14.7380  -14.8322 N   0  0  0  0  0  0  0  0  0  0  0  0
   17.4935  -15.8490  -15.6775 C   0  0  0  0  0  0  0  0  0  0  0  0
   16.4568  -16.4908  -15.4074 O   0  0  0  0  0  0  0  0  0  0  0  0
   18.3732  -16.1902  -16.7948 C   0  0  0  0  0  0  0  0  0  0  0  0
   19.4960  -15.2253  -17.0192 C   0  0  0  0  0  0  0  0  0  0  0  0
   19.1183  -13.9614  -17.7137 C   0  0  2  0  0  0  0  0  0  0  0  0
   18.7257  -14.2819  -19.0755 N   0  0  0  0  0  0  0  0  0  0  0  0
   20.2508  -12.9731  -17.7147 C   0  0  0  0  0  0  0  0  0  0  0  0
   21.3076  -13.3111  -18.2731 O   0  0  0  0  0  0  0  0  0  0  0  0
   21.8810   -7.9192  -20.1324 N   0  0  0  0  0  0  0  0  0  0  0  0
   20.5783   -8.4643  -20.1621 C   0  0  0  0  0  0  0  0  0  0  0  0
   19.7423   -7.9477  -20.9287 O   0  0  0  0  0  0  0  0  0  0  0  0
   20.1818   -9.6319  -19.3112 C   0  0  0  0  0  0  0  0  0  0  0  0
   21.3179  -10.1170  -18.4914 C   0  0  0  0  0  0  0  0  0  0  0  0
   20.9676  -10.6383  -17.1159 C   0  0  2  0  0  0  0  0  0  0  0  0
   20.0566  -11.7322  -17.0906 N   0  0  0  0  0  0  0  0  0  0  0  0
   20.5508   -9.5201  -16.2592 C   0  0  0  0  0  0  0  0  0  0  0  0
   19.3126   -9.2018  -16.1340 O   0  0  0  0  0  0  0  0  0  0  0  0
   26.0442   -4.5290  -16.5813 O   0  0  0  0  0  0  0  0  0  0  0  0
   25.0683   -5.2090  -15.8647 C   0  0  0  0  0  0  0  0  0  0  0  0
   24.9880   -6.5704  -15.8065 C   0  0  0  0  0  0  0  0  0  0  0  0
   24.0347   -7.2597  -15.1065 C   0  0  0  0  0  0  0  0  0  0  0  0
   23.0775   -6.5239  -14.4029 C   0  0  0  0  0  0  0  0  0  0  0  0
   22.0248   -7.2364  -13.6556 C   0  0  0  0  0  0  0  0  0  0  0  0
   20.9436   -7.6832  -14.5767 C   0  0  2  0  0  0  0  0  0  0  0  0
   21.4486   -8.7126  -15.5128 N   0  0  0  0  0  0  0  0  0  0  0  0
   20.3380   -6.6068  -15.3690 C   0  0  0  0  0  0  0  0  0  0  0  0
   19.5269   -5.6699  -14.7615 O   0  0  0  0  0  0  0  0  0  0  0  0
   23.1439   -5.1541  -14.4511 C   0  0  0  0  0  0  0  0  0  0  0  0
   24.1151   -4.4693  -15.1642 C   0  0  0  0  0  0  0  0  0  0  0  0
   20.5531   -6.5335  -16.5951 O   0  0  0  0  0  0  0  0  0  0  0  0
  2  3  2  0
  2  1  1  0
  4  2  1  0
  5  4  1  0
  6  5  1  0
  6  7  1  6
  8  9  2  0
  8  6  1  0
 11 10  1  0
 11 12  2  0
 13 11  1  0
 14 13  1  0
 15 14  1  6
 15 16  1  0
 16  8  1  0
 17 15  1  0
 17 18  2  0
 19 20  1  0
 20 21  2  0
 21 22  1  0
 23 22  2  0
 23 24  1  0
 25 24  1  6
 25 26  1  0
 26 17  1  0
 27 25  1  0
 28 27  1  0
 29 23  1  0
 30 20  1  0
 30 29  2  0
 31 27  2  0
M  END
$$$$
