QQY.pdb
     RDKit          3D

 31 31  0  0  1  0  0  0  0  0999 V2000
   27.7324  -37.3863  -11.7347 N   0  0  0  0  0  0  0  0  0  0  0  0
   26.6244  -37.2530  -12.6266 C   0  0  0  0  0  0  0  0  0  0  0  0
   26.5690  -38.0640  -13.5747 O   0  0  0  0  0  0  0  0  0  0  0  0
   25.6229  -36.2093  -12.4115 C   0  0  0  0  0  0  0  0  0  0  0  0
   25.8756  -35.3418  -11.2175 C   0  0  0  0  0  0  0  0  0  0  0  0
   24.7662  -34.4116  -10.8618 C   0  0  2  0  0  0  0  0  0  0  0  0
   24.4676  -33.5846  -12.0187 N   0  0  0  0  0  0  0  0  0  0  0  0
   25.1246  -33.5514   -9.6825 C   0  0  0  0  0  0  0  0  0  0  0  0
   24.6141  -32.4207   -9.6200 O   0  0  0  0  0  0  0  0  0  0  0  0
   22.1960  -33.0281   -6.0026 N   0  0  0  0  0  0  0  0  0  0  0  0
   23.1516  -33.2254   -4.9814 C   0  0  0  0  0  0  0  0  0  0  0  0
   22.8714  -32.8363   -3.8309 O   0  0  0  0  0  0  0  0  0  0  0  0
   24.4726  -33.8831   -5.2403 C   0  0  0  0  0  0  0  0  0  0  0  0
   24.6268  -34.2477   -6.6691 C   0  0  0  0  0  0  0  0  0  0  0  0
   25.9313  -33.8444   -7.3188 C   0  0  2  0  0  0  0  0  0  0  0  0
   26.0088  -34.0658   -8.7230 N   0  0  0  0  0  0  0  0  0  0  0  0
   27.0521  -34.4383   -6.5780 C   0  0  0  0  0  0  0  0  0  0  0  0
   27.1740  -35.7118   -6.4614 O   0  0  0  0  0  0  0  0  0  0  0  0
   35.0529  -36.1195   -3.4587 O   0  0  0  0  0  0  0  0  0  0  0  0
   33.9268  -35.4754   -3.9540 C   0  0  0  0  0  0  0  0  0  0  0  0
   33.7242  -35.2263   -5.2807 C   0  0  0  0  0  0  0  0  0  0  0  0
   32.6220  -34.5934   -5.7891 C   0  0  0  0  0  0  0  0  0  0  0  0
   31.6357  -34.1725   -4.8932 C   0  0  0  0  0  0  0  0  0  0  0  0
   30.4457  -33.4696   -5.4070 C   0  0  0  0  0  0  0  0  0  0  0  0
   29.2502  -34.3549   -5.3445 C   0  0  2  0  0  0  0  0  0  0  0  0
   28.0734  -33.6847   -5.9421 N   0  0  0  0  0  0  0  0  0  0  0  0
   28.8866  -34.7893   -3.9909 C   0  0  0  0  0  0  0  0  0  0  0  0
   29.2650  -36.0365   -3.5372 O   0  0  0  0  0  0  0  0  0  0  0  0
   31.8240  -34.4152   -3.5558 C   0  0  0  0  0  0  0  0  0  0  0  0
   32.9453  -35.0573   -3.0549 C   0  0  0  0  0  0  0  0  0  0  0  0
   28.2340  -34.0336   -3.2440 O   0  0  0  0  0  0  0  0  0  0  0  0
  2  3  2  0
  2  1  1  0
  4  2  1  0
  5  4  1  0
  6  5  1  0
  6  7  1  6
  8  9  2  0
  8  6  1  0
 11 10  1  0
 11 12  2  0
 13 11  1  0
 14 13  1  0
 15 14  1  1
 15 16  1  0
 16  8  1  0
 17 15  1  0
 17 18  2  0
 19 20  1  0
 20 21  2  0
 21 22  1  0
 23 22  2  0
 23 24  1  0
 25 24  1  1
 25 26  1  0
 26 17  1  0
 27 25  1  0
 28 27  1  0
 29 23  1  0
 30 20  1  0
 30 29  2  0
 31 27  2  0
M  END
$$$$
