QQY.pdb
     RDKit          3D

 31 31  0  0  1  0  0  0  0  0999 V2000
   27.2926  -26.5013  -15.6859 N   0  0  0  0  0  0  0  0  0  0  0  0
   27.6682  -26.0004  -16.9699 C   0  0  0  0  0  0  0  0  0  0  0  0
   28.4817  -26.6877  -17.6222 O   0  0  0  0  0  0  0  0  0  0  0  0
   27.1091  -24.7435  -17.4662 C   0  0  0  0  0  0  0  0  0  0  0  0
   26.0979  -24.1122  -16.5603 C   0  0  0  0  0  0  0  0  0  0  0  0
   25.4621  -22.8702  -17.0855 C   0  0  2  0  0  0  0  0  0  0  0  0
   26.2652  -22.3709  -18.1888 N   0  0  0  0  0  0  0  0  0  0  0  0
   25.3335  -21.8220  -16.0159 C   0  0  0  0  0  0  0  0  0  0  0  0
   25.9620  -20.7620  -16.1719 O   0  0  0  0  0  0  0  0  0  0  0  0
   20.6585  -19.4914  -12.4482 N   0  0  0  0  0  0  0  0  0  0  0  0
   20.8769  -19.3833  -13.8395 C   0  0  0  0  0  0  0  0  0  0  0  0
   20.1631  -18.5930  -14.4870 O   0  0  0  0  0  0  0  0  0  0  0  0
   21.9306  -20.1799  -14.5465 C   0  0  0  0  0  0  0  0  0  0  0  0
   22.6951  -21.0287  -13.6014 C   0  0  0  0  0  0  0  0  0  0  0  0
   24.1744  -21.1668  -13.8826 C   0  0  2  0  0  0  0  0  0  0  0  0
   24.5177  -22.0932  -14.9077 N   0  0  0  0  0  0  0  0  0  0  0  0
   24.8925  -21.4066  -12.6237 C   0  0  0  0  0  0  0  0  0  0  0  0
   24.6797  -22.4639  -11.9259 O   0  0  0  0  0  0  0  0  0  0  0  0
   29.1221  -20.1565   -5.0051 O   0  0  0  0  0  0  0  0  0  0  0  0
   28.7148  -20.0673   -6.3296 C   0  0  0  0  0  0  0  0  0  0  0  0
   29.1874  -20.8800   -7.3193 C   0  0  0  0  0  0  0  0  0  0  0  0
   28.7992  -20.8086   -8.6300 C   0  0  0  0  0  0  0  0  0  0  0  0
   27.8558  -19.8399   -8.9828 C   0  0  0  0  0  0  0  0  0  0  0  0
   27.4320  -19.7235  -10.3903 C   0  0  0  0  0  0  0  0  0  0  0  0
   26.3191  -20.6696  -10.6792 C   0  0  2  0  0  0  0  0  0  0  0  0
   25.8584  -20.5209  -12.0780 N   0  0  0  0  0  0  0  0  0  0  0  0
   25.1540  -20.5230   -9.7994 C   0  0  0  0  0  0  0  0  0  0  0  0
   25.0331  -21.3086   -8.6712 O   0  0  0  0  0  0  0  0  0  0  0  0
   27.3706  -19.0146   -7.9998 C   0  0  0  0  0  0  0  0  0  0  0  0
   27.7727  -19.0983   -6.6763 C   0  0  0  0  0  0  0  0  0  0  0  0
   24.2675  -19.6879  -10.0668 O   0  0  0  0  0  0  0  0  0  0  0  0
  2  3  2  0
  2  1  1  0
  4  2  1  0
  5  4  1  0
  6  5  1  0
  6  7  1  6
  8  9  2  0
  8  6  1  0
 11 10  1  0
 11 12  2  0
 13 11  1  0
 14 13  1  0
 15 14  1  1
 15 16  1  0
 16  8  1  0
 17 15  1  0
 17 18  2  0
 19 20  1  0
 20 21  2  0
 21 22  1  0
 23 22  2  0
 23 24  1  0
 25 24  1  1
 25 26  1  0
 26 17  1  0
 27 25  1  0
 28 27  1  0
 29 23  1  0
 30 20  1  0
 30 29  2  0
 31 27  2  0
M  END
$$$$
