QQY.pdb
     RDKit          3D

 31 31  0  0  1  0  0  0  0  0999 V2000
   23.4355   -6.1668  -13.7052 N   0  0  0  0  0  0  0  0  0  0  0  0
   22.4585   -5.7821  -14.6739 C   0  0  0  0  0  0  0  0  0  0  0  0
   22.6517   -4.6981  -15.2631 O   0  0  0  0  0  0  0  0  0  0  0  0
   21.3025   -6.6377  -14.9388 C   0  0  0  0  0  0  0  0  0  0  0  0
   21.3423   -7.9671  -14.2509 C   0  0  0  0  0  0  0  0  0  0  0  0
   20.2709   -8.9228  -14.6528 C   0  0  2  0  0  0  0  0  0  0  0  0
   20.3712   -9.1542  -16.0839 N   0  0  0  0  0  0  0  0  0  0  0  0
   18.9060   -8.4004  -14.3018 C   0  0  0  0  0  0  0  0  0  0  0  0
   18.2518   -7.8510  -15.2035 O   0  0  0  0  0  0  0  0  0  0  0  0
   15.0806  -11.3649  -10.4149 N   0  0  0  0  0  0  0  0  0  0  0  0
   14.4179  -10.1294  -10.5859 C   0  0  0  0  0  0  0  0  0  0  0  0
   13.2840   -9.9963  -10.0857 O   0  0  0  0  0  0  0  0  0  0  0  0
   15.0342   -8.9903  -11.3391 C   0  0  0  0  0  0  0  0  0  0  0  0
   16.4080   -9.3178  -11.7903 C   0  0  0  0  0  0  0  0  0  0  0  0
   17.1489   -8.2150  -12.5123 C   0  0  2  0  0  0  0  0  0  0  0  0
   18.4466   -8.5592  -12.9862 N   0  0  0  0  0  0  0  0  0  0  0  0
   17.1386   -6.9976  -11.6904 C   0  0  0  0  0  0  0  0  0  0  0  0
   17.8574   -6.9032  -10.6299 O   0  0  0  0  0  0  0  0  0  0  0  0
   18.5821    0.7307   -8.4398 O   0  0  0  0  0  0  0  0  0  0  0  0
   18.4213   -0.4891   -9.0837 C   0  0  0  0  0  0  0  0  0  0  0  0
   18.1829   -1.6617   -8.4269 C   0  0  0  0  0  0  0  0  0  0  0  0
   18.0215   -2.8737   -9.0422 C   0  0  0  0  0  0  0  0  0  0  0  0
   18.1057   -2.9179  -10.4364 C   0  0  0  0  0  0  0  0  0  0  0  0
   17.9568   -4.2115  -11.1283 C   0  0  0  0  0  0  0  0  0  0  0  0
   16.5217   -4.6023  -11.1989 C   0  0  2  0  0  0  0  0  0  0  0  0
   16.3586   -5.8478  -11.9819 N   0  0  0  0  0  0  0  0  0  0  0  0
   15.6427   -3.5817  -11.7808 C   0  0  0  0  0  0  0  0  0  0  0  0
   14.9948   -3.8229  -12.9753 O   0  0  0  0  0  0  0  0  0  0  0  0
   18.3451   -1.7478  -11.1120 C   0  0  0  0  0  0  0  0  0  0  0  0
   18.5065   -0.5273  -10.4757 C   0  0  0  0  0  0  0  0  0  0  0  0
   15.4767   -2.4914  -11.1989 O   0  0  0  0  0  0  0  0  0  0  0  0
  2  3  2  0
  2  1  1  0
  4  2  1  0
  5  4  1  0
  6  5  1  0
  6  7  1  6
  8  9  2  0
  8  6  1  0
 11 10  1  0
 11 12  2  0
 13 11  1  0
 14 13  1  0
 15 14  1  1
 15 16  1  0
 16  8  1  0
 17 15  1  0
 17 18  2  0
 19 20  1  0
 20 21  2  0
 21 22  1  0
 23 22  2  0
 23 24  1  0
 25 24  1  6
 25 26  1  0
 26 17  1  0
 27 25  1  0
 28 27  1  0
 29 23  1  0
 30 20  1  0
 30 29  2  0
 31 27  2  0
M  END
$$$$
