QQY.pdb
     RDKit          3D

 31 31  0  0  1  0  0  0  0  0999 V2000
   46.6137   -9.1007   -3.6285 N   0  0  0  0  0  0  0  0  0  0  0  0
   45.8325   -9.9625   -4.4579 C   0  0  0  0  0  0  0  0  0  0  0  0
   46.4469  -10.8690   -5.0581 O   0  0  0  0  0  0  0  0  0  0  0  0
   44.3881   -9.7661   -4.5757 C   0  0  0  0  0  0  0  0  0  0  0  0
   43.9635   -8.9783   -5.7761 C   0  0  0  0  0  0  0  0  0  0  0  0
   42.4935   -8.7709   -5.9125 C   0  0  2  0  0  0  0  0  0  0  0  0
   41.8181  -10.0114   -5.5712 N   0  0  0  0  0  0  0  0  0  0  0  0
   42.1242   -8.3402   -7.3043 C   0  0  0  0  0  0  0  0  0  0  0  0
   42.6991   -7.3415   -7.7682 O   0  0  0  0  0  0  0  0  0  0  0  0
   42.3621  -12.9919  -11.5398 N   0  0  0  0  0  0  0  0  0  0  0  0
   41.3931  -12.0018  -11.2642 C   0  0  0  0  0  0  0  0  0  0  0  0
   40.3052  -12.0593  -11.8697 O   0  0  0  0  0  0  0  0  0  0  0  0
   41.6340  -10.9022  -10.2755 C   0  0  0  0  0  0  0  0  0  0  0  0
   40.4926   -9.9574  -10.2256 C   0  0  0  0  0  0  0  0  0  0  0  0
   40.6503   -8.7762   -9.2947 C   0  0  2  0  0  0  0  0  0  0  0  0
   41.1585   -9.0819   -8.0003 N   0  0  0  0  0  0  0  0  0  0  0  0
   39.3971   -8.0109   -9.2569 C   0  0  0  0  0  0  0  0  0  0  0  0
   38.2564   -8.5948   -9.3472 O   0  0  0  0  0  0  0  0  0  0  0  0
   39.6064   -3.5817   -3.2714 O   0  0  0  0  0  0  0  0  0  0  0  0
   39.0535   -4.2381   -4.3630 C   0  0  0  0  0  0  0  0  0  0  0  0
   38.2092   -3.6398   -5.2531 C   0  0  0  0  0  0  0  0  0  0  0  0
   37.6539   -4.2685   -6.3349 C   0  0  0  0  0  0  0  0  0  0  0  0
   37.9700   -5.6133   -6.5456 C   0  0  0  0  0  0  0  0  0  0  0  0
   37.3720   -6.3250   -7.6902 C   0  0  0  0  0  0  0  0  0  0  0  0
   38.0294   -5.9129   -8.9610 C   0  0  2  0  0  0  0  0  0  0  0  0
   39.3310   -6.5994   -9.1209 N   0  0  0  0  0  0  0  0  0  0  0  0
   38.2592   -4.4690   -9.0851 C   0  0  0  0  0  0  0  0  0  0  0  0
   37.1901   -3.5974   -9.1289 O   0  0  0  0  0  0  0  0  0  0  0  0
   38.8174   -6.2299   -5.6597 C   0  0  0  0  0  0  0  0  0  0  0  0
   39.3725   -5.5807   -4.5685 C   0  0  0  0  0  0  0  0  0  0  0  0
   39.4216   -4.0225   -9.1515 O   0  0  0  0  0  0  0  0  0  0  0  0
  2  3  2  0
  2  1  1  0
  4  2  1  0
  5  4  1  0
  6  5  1  0
  6  7  1  6
  8  9  2  0
  8  6  1  0
 11 10  1  0
 11 12  2  0
 13 11  1  0
 14 13  1  0
 15 14  1  1
 15 16  1  0
 16  8  1  0
 17 15  1  0
 17 18  2  0
 19 20  1  0
 20 21  2  0
 21 22  1  0
 23 22  2  0
 23 24  1  0
 25 24  1  1
 25 26  1  0
 26 17  1  0
 27 25  1  0
 28 27  1  0
 29 23  1  0
 30 20  1  0
 30 29  2  0
 31 27  2  0
M  END
$$$$
