QQY.pdb
     RDKit          3D

 31 31  0  0  1  0  0  0  0  0999 V2000
   22.2914  -19.7351  -17.9227 N   0  0  0  0  0  0  0  0  0  0  0  0
   20.8657  -19.8151  -17.9662 C   0  0  0  0  0  0  0  0  0  0  0  0
   20.3556  -20.9007  -17.6187 O   0  0  0  0  0  0  0  0  0  0  0  0
   20.0731  -18.6651  -18.3998 C   0  0  0  0  0  0  0  0  0  0  0  0
   20.8809  -17.4882  -18.8520 C   0  0  0  0  0  0  0  0  0  0  0  0
   20.8317  -16.3005  -17.9523 C   0  0  2  0  0  0  0  0  0  0  0  0
   19.4397  -15.9803  -17.6854 N   0  0  0  0  0  0  0  0  0  0  0  0
   21.5328  -15.1184  -18.5609 C   0  0  0  0  0  0  0  0  0  0  0  0
   22.3011  -15.3338  -19.5128 O   0  0  0  0  0  0  0  0  0  0  0  0
   19.4496  -13.7076  -21.6256 N   0  0  0  0  0  0  0  0  0  0  0  0
   20.8271  -13.7343  -21.9363 C   0  0  0  0  0  0  0  0  0  0  0  0
   21.1863  -14.3408  -22.9643 O   0  0  0  0  0  0  0  0  0  0  0  0
   21.8527  -13.0602  -21.0769 C   0  0  0  0  0  0  0  0  0  0  0  0
   21.2205  -12.3027  -19.9702 C   0  0  0  0  0  0  0  0  0  0  0  0
   21.7297  -12.6115  -18.5803 C   0  0  2  0  0  0  0  0  0  0  0  0
   21.2850  -13.8455  -18.0267 N   0  0  0  0  0  0  0  0  0  0  0  0
   21.4819  -11.4615  -17.7006 C   0  0  0  0  0  0  0  0  0  0  0  0
   20.3386  -11.2832  -17.1425 O   0  0  0  0  0  0  0  0  0  0  0  0
   22.0482   -4.0610  -13.0156 O   0  0  0  0  0  0  0  0  0  0  0  0
   22.3652   -5.2220  -13.7084 C   0  0  0  0  0  0  0  0  0  0  0  0
   22.9351   -5.2271  -14.9487 C   0  0  0  0  0  0  0  0  0  0  0  0
   23.2553   -6.3595  -15.6480 C   0  0  0  0  0  0  0  0  0  0  0  0
   22.9818   -7.5953  -15.0559 C   0  0  0  0  0  0  0  0  0  0  0  0
   23.2958   -8.8339  -15.7918 C   0  0  0  0  0  0  0  0  0  0  0  0
   22.1046   -9.3052  -16.5508 C   0  0  2  0  0  0  0  0  0  0  0  0
   22.4517  -10.4711  -17.3941 N   0  0  0  0  0  0  0  0  0  0  0  0
   21.4926   -8.2875  -17.4127 C   0  0  0  0  0  0  0  0  0  0  0  0
   22.0101   -8.0382  -18.6675 O   0  0  0  0  0  0  0  0  0  0  0  0
   22.4088   -7.6078  -13.8092 C   0  0  0  0  0  0  0  0  0  0  0  0
   22.0899   -6.4531  -13.1125 C   0  0  0  0  0  0  0  0  0  0  0  0
   20.5018   -7.6429  -17.0154 O   0  0  0  0  0  0  0  0  0  0  0  0
  2  3  2  0
  2  1  1  0
  4  2  1  0
  5  4  1  0
  6  5  1  0
  6  7  1  6
  8  9  2  0
  8  6  1  0
 11 10  1  0
 11 12  2  0
 13 11  1  0
 14 13  1  0
 15 14  1  6
 15 16  1  0
 16  8  1  0
 17 15  1  0
 17 18  2  0
 19 20  1  0
 20 21  2  0
 21 22  1  0
 23 22  2  0
 23 24  1  0
 25 24  1  6
 25 26  1  0
 26 17  1  0
 27 25  1  0
 28 27  1  0
 29 23  1  0
 30 20  1  0
 30 29  2  0
 31 27  2  0
M  END
$$$$
