QQY.pdb
     RDKit          3D

 31 31  0  0  1  0  0  0  0  0999 V2000
   27.8623  -27.7246  -16.4381 N   0  0  0  0  0  0  0  0  0  0  0  0
   28.6168  -27.0460  -17.4436 C   0  0  0  0  0  0  0  0  0  0  0  0
   28.2510  -27.2138  -18.6258 O   0  0  0  0  0  0  0  0  0  0  0  0
   29.7539  -26.2043  -17.0734 C   0  0  0  0  0  0  0  0  0  0  0  0
   29.3864  -24.8212  -16.6331 C   0  0  0  0  0  0  0  0  0  0  0  0
   28.8947  -23.9200  -17.7142 C   0  0  2  0  0  0  0  0  0  0  0  0
   30.0404  -23.4148  -18.4515 N   0  0  0  0  0  0  0  0  0  0  0  0
   28.0872  -22.7809  -17.1577 C   0  0  0  0  0  0  0  0  0  0  0  0
   28.6547  -21.6835  -17.0290 O   0  0  0  0  0  0  0  0  0  0  0  0
   21.8903  -23.1129  -16.2120 N   0  0  0  0  0  0  0  0  0  0  0  0
   22.1676  -21.7700  -15.8732 C   0  0  0  0  0  0  0  0  0  0  0  0
   21.2675  -21.1041  -15.3256 O   0  0  0  0  0  0  0  0  0  0  0  0
   23.4965  -21.1352  -16.1482 C   0  0  0  0  0  0  0  0  0  0  0  0
   24.4410  -22.0979  -16.7642 C   0  0  0  0  0  0  0  0  0  0  0  0
   25.8588  -22.0631  -16.2396 C   0  0  2  0  0  0  0  0  0  0  0  0
   26.7472  -23.0147  -16.8160 N   0  0  0  0  0  0  0  0  0  0  0  0
   25.8396  -22.1065  -14.7715 C   0  0  0  0  0  0  0  0  0  0  0  0
   25.7172  -23.2179  -14.1389 O   0  0  0  0  0  0  0  0  0  0  0  0
   26.8431  -20.3630   -6.2176 O   0  0  0  0  0  0  0  0  0  0  0  0
   26.8821  -20.3255   -7.6052 C   0  0  0  0  0  0  0  0  0  0  0  0
   27.7410  -21.0760   -8.3550 C   0  0  0  0  0  0  0  0  0  0  0  0
   27.7954  -21.0538   -9.7227 C   0  0  0  0  0  0  0  0  0  0  0  0
   26.9141  -20.2073  -10.4005 C   0  0  0  0  0  0  0  0  0  0  0  0
   26.9614  -20.1449  -11.8729 C   0  0  0  0  0  0  0  0  0  0  0  0
   25.9786  -21.0931  -12.4664 C   0  0  2  0  0  0  0  0  0  0  0  0
   25.9516  -20.9610  -13.9405 N   0  0  0  0  0  0  0  0  0  0  0  0
   24.6066  -20.9343  -11.9710 C   0  0  0  0  0  0  0  0  0  0  0  0
   23.7101  -20.1375  -12.6537 O   0  0  0  0  0  0  0  0  0  0  0  0
   26.0440  -19.4459   -9.6614 C   0  0  0  0  0  0  0  0  0  0  0  0
   25.9999  -19.4785   -8.2767 C   0  0  0  0  0  0  0  0  0  0  0  0
   24.2441  -21.5184  -10.9306 O   0  0  0  0  0  0  0  0  0  0  0  0
  2  3  2  0
  2  1  1  0
  4  2  1  0
  5  4  1  0
  6  5  1  0
  6  7  1  1
  8  9  2  0
  8  6  1  0
 11 10  1  0
 11 12  2  0
 13 11  1  0
 14 13  1  0
 15 14  1  6
 15 16  1  0
 16  8  1  0
 17 15  1  0
 17 18  2  0
 19 20  1  0
 20 21  2  0
 21 22  1  0
 23 22  2  0
 23 24  1  0
 25 24  1  1
 25 26  1  0
 26 17  1  0
 27 25  1  0
 28 27  1  0
 29 23  1  0
 30 20  1  0
 30 29  2  0
 31 27  2  0
M  END
$$$$
