QQY.pdb
     RDKit          3D

 31 31  0  0  1  0  0  0  0  0999 V2000
   28.7270  -18.3744  -17.7629 N   0  0  0  0  0  0  0  0  0  0  0  0
   27.4417  -17.7508  -17.7590 C   0  0  0  0  0  0  0  0  0  0  0  0
   27.2801  -16.8079  -16.9562 O   0  0  0  0  0  0  0  0  0  0  0  0
   26.3907  -18.2168  -18.6627 C   0  0  0  0  0  0  0  0  0  0  0  0
   25.2036  -18.8194  -17.9773 C   0  0  0  0  0  0  0  0  0  0  0  0
   25.4579  -20.1178  -17.2903 C   0  0  2  0  0  0  0  0  0  0  0  0
   25.7694  -21.1195  -18.2959 N   0  0  0  0  0  0  0  0  0  0  0  0
   24.2738  -20.5494  -16.4713 C   0  0  0  0  0  0  0  0  0  0  0  0
   23.2944  -21.0140  -17.0779 O   0  0  0  0  0  0  0  0  0  0  0  0
   24.7376  -21.3119  -10.1178 N   0  0  0  0  0  0  0  0  0  0  0  0
   23.6343  -20.4565  -10.3324 C   0  0  0  0  0  0  0  0  0  0  0  0
   23.0977  -19.9286   -9.3389 O   0  0  0  0  0  0  0  0  0  0  0  0
   23.1017  -20.1689  -11.7029 C   0  0  0  0  0  0  0  0  0  0  0  0
   23.7764  -20.9958  -12.7321 C   0  0  0  0  0  0  0  0  0  0  0  0
   23.3176  -20.7843  -14.1573 C   0  0  2  0  0  0  0  0  0  0  0  0
   24.3362  -20.4064  -15.0775 N   0  0  0  0  0  0  0  0  0  0  0  0
   22.1620  -19.8776  -14.1710 C   0  0  0  0  0  0  0  0  0  0  0  0
   22.3123  -18.6047  -14.0853 O   0  0  0  0  0  0  0  0  0  0  0  0
   19.0082  -21.6566  -20.3078 O   0  0  0  0  0  0  0  0  0  0  0  0
   19.2146  -20.8943  -19.1657 C   0  0  0  0  0  0  0  0  0  0  0  0
   18.2280  -20.5960  -18.2708 C   0  0  0  0  0  0  0  0  0  0  0  0
   18.4104  -19.8468  -17.1398 C   0  0  0  0  0  0  0  0  0  0  0  0
   19.6913  -19.3522  -16.8802 C   0  0  0  0  0  0  0  0  0  0  0  0
   19.9165  -18.5245  -15.6808 C   0  0  0  0  0  0  0  0  0  0  0  0
   19.7154  -19.3314  -14.4457 C   0  0  2  0  0  0  0  0  0  0  0  0
   20.8138  -20.3093  -14.2773 N   0  0  0  0  0  0  0  0  0  0  0  0
   18.4446  -20.0634  -14.3991 C   0  0  0  0  0  0  0  0  0  0  0  0
   18.4396  -21.4391  -14.2892 O   0  0  0  0  0  0  0  0  0  0  0  0
   20.6946  -19.6429  -17.7700 C   0  0  0  0  0  0  0  0  0  0  0  0
   20.4954  -20.4030  -18.9115 C   0  0  0  0  0  0  0  0  0  0  0  0
   17.3628  -19.4460  -14.4587 O   0  0  0  0  0  0  0  0  0  0  0  0
  2  3  2  0
  2  1  1  0
  4  2  1  0
  5  4  1  0
  6  5  1  0
  6  7  1  6
  8  9  2  0
  8  6  1  0
 11 10  1  0
 11 12  2  0
 13 11  1  0
 14 13  1  0
 15 14  1  1
 15 16  1  0
 16  8  1  0
 17 15  1  0
 17 18  2  0
 19 20  1  0
 20 21  2  0
 21 22  1  0
 23 22  2  0
 23 24  1  0
 25 24  1  6
 25 26  1  0
 26 17  1  0
 27 25  1  0
 28 27  1  0
 29 23  1  0
 30 20  1  0
 30 29  2  0
 31 27  2  0
M  END
$$$$
