QQY.pdb
     RDKit          3D

 31 31  0  0  1  0  0  0  0  0999 V2000
   27.9189  -26.5690  -15.9598 N   0  0  0  0  0  0  0  0  0  0  0  0
   26.6454  -26.8617  -16.5370 C   0  0  0  0  0  0  0  0  0  0  0  0
   26.5190  -27.9820  -17.0742 O   0  0  0  0  0  0  0  0  0  0  0  0
   25.5651  -25.8774  -16.4837 C   0  0  0  0  0  0  0  0  0  0  0  0
   25.8779  -24.6541  -15.6789 C   0  0  0  0  0  0  0  0  0  0  0  0
   26.5964  -23.5755  -16.4156 C   0  0  2  0  0  0  0  0  0  0  0  0
   28.0049  -23.6341  -16.0630 N   0  0  0  0  0  0  0  0  0  0  0  0
   26.0332  -22.2193  -16.0952 C   0  0  0  0  0  0  0  0  0  0  0  0
   26.5311  -21.6016  -15.1395 O   0  0  0  0  0  0  0  0  0  0  0  0
   23.5585  -18.3401  -20.3938 N   0  0  0  0  0  0  0  0  0  0  0  0
   23.2696  -17.6913  -19.1729 C   0  0  0  0  0  0  0  0  0  0  0  0
   22.8004  -16.5374  -19.2170 O   0  0  0  0  0  0  0  0  0  0  0  0
   23.5060  -18.3451  -17.8458 C   0  0  0  0  0  0  0  0  0  0  0  0
   24.1107  -19.6897  -18.0030 C   0  0  0  0  0  0  0  0  0  0  0  0
   24.3466  -20.4637  -16.7256 C   0  0  2  0  0  0  0  0  0  0  0  0
   24.9842  -21.7266  -16.8852 N   0  0  0  0  0  0  0  0  0  0  0  0
   23.0947  -20.5415  -15.9612 C   0  0  0  0  0  0  0  0  0  0  0  0
   22.2116  -21.4384  -16.2177 O   0  0  0  0  0  0  0  0  0  0  0  0
   16.3363  -19.2242  -10.5283 O   0  0  0  0  0  0  0  0  0  0  0  0
   17.5692  -19.1076  -11.1565 C   0  0  0  0  0  0  0  0  0  0  0  0
   17.8592  -18.1378  -12.0722 C   0  0  0  0  0  0  0  0  0  0  0  0
   19.0672  -18.0056  -12.7024 C   0  0  0  0  0  0  0  0  0  0  0  0
   20.0738  -18.9230  -12.3899 C   0  0  0  0  0  0  0  0  0  0  0  0
   21.3799  -18.8203  -13.0666 C   0  0  0  0  0  0  0  0  0  0  0  0
   21.4608  -19.7906  -14.1932 C   0  0  2  0  0  0  0  0  0  0  0  0
   22.7544  -19.6612  -14.9007 N   0  0  0  0  0  0  0  0  0  0  0  0
   20.3863  -19.6610  -15.1840 C   0  0  0  0  0  0  0  0  0  0  0  0
   20.4333  -18.6588  -16.1316 O   0  0  0  0  0  0  0  0  0  0  0  0
   19.7986  -19.9044  -11.4712 C   0  0  0  0  0  0  0  0  0  0  0  0
   18.5706  -20.0264  -10.8408 C   0  0  0  0  0  0  0  0  0  0  0  0
   19.4255  -20.4557  -15.1746 O   0  0  0  0  0  0  0  0  0  0  0  0
  2  3  2  0
  2  1  1  0
  4  2  1  0
  5  4  1  0
  6  5  1  0
  6  7  1  1
  8  9  2  0
  8  6  1  0
 11 10  1  0
 11 12  2  0
 13 11  1  0
 14 13  1  0
 15 14  1  6
 15 16  1  0
 16  8  1  0
 17 15  1  0
 17 18  2  0
 19 20  1  0
 20 21  2  0
 21 22  1  0
 23 22  2  0
 23 24  1  0
 25 24  1  1
 25 26  1  0
 26 17  1  0
 27 25  1  0
 28 27  1  0
 29 23  1  0
 30 20  1  0
 30 29  2  0
 31 27  2  0
M  END
$$$$
