TLN.pdb
     RDKit          3D

 24 23  0  0  1  0  0  0  0  0999 V2000
   13.3304   -4.3281   -8.6580 C   0  0  0  0  0  0  0  0  0  0  0  0
   14.5995   -4.9713   -9.2271 C   0  0  1  0  0  0  0  0  0  0  0  0
   15.6737   -4.1371   -8.9384 O   0  0  0  0  0  0  0  0  0  0  0  0
   14.7996   -6.2580   -8.4550 C   0  0  2  0  0  0  0  0  0  0  0  0
   14.9685   -6.0231   -7.0460 N   0  0  0  0  0  0  0  0  0  0  0  0
   15.9839   -7.0091   -8.9453 C   0  0  0  0  0  0  0  0  0  0  0  0
   17.0783   -6.9989   -8.2979 O   0  0  0  0  0  0  0  0  0  0  0  0
   17.7083  -10.6850  -12.9545 C   0  0  0  0  0  0  0  0  0  0  0  0
   17.2777  -10.9629  -11.5419 C   0  0  2  0  0  0  0  0  0  0  0  0
   16.3427  -12.1905  -11.6227 C   0  0  0  0  0  0  0  0  0  0  0  0
   16.5296   -9.8854  -10.8961 C   0  0  0  0  0  0  0  0  0  0  0  0
   17.1240   -8.5687  -10.6025 C   0  0  2  0  0  0  0  0  0  0  0  0
   15.9381   -7.7589  -10.1431 N   0  0  0  0  0  0  0  0  0  0  0  0
   17.6983   -7.7684  -11.6759 C   0  0  0  0  0  0  0  0  0  0  0  0
   16.9469   -7.1006  -12.4602 O   0  0  0  0  0  0  0  0  0  0  0  0
   21.1601   -5.2302  -14.9598 N   0  0  0  0  0  0  0  0  0  0  0  0
   21.6296   -5.4869  -13.6510 C   0  0  0  0  0  0  0  0  0  0  0  0
   22.7721   -5.0050  -13.3715 O   0  0  0  0  0  0  0  0  0  0  0  0
   20.9555   -6.2348  -12.5989 C   0  0  0  0  0  0  0  0  0  0  0  0
   19.6211   -6.8395  -13.0056 C   0  0  2  0  0  0  0  0  0  0  0  0
   19.0878   -7.6529  -11.9317 N   0  0  0  0  0  0  0  0  0  0  0  0
   19.7761   -7.5193  -14.2911 C   0  0  0  0  0  0  0  0  0  0  0  0
   20.4086   -8.5864  -14.3799 O   0  0  0  0  0  0  0  0  0  0  0  0
   19.2050   -6.9549  -15.4174 O   0  0  0  0  0  0  0  0  0  0  0  0
  2  3  1  0
  2  1  1  1
  4  2  1  0
  4  5  1  1
  6  4  1  0
  6  7  2  0
  9 11  1  0
  9  8  1  6
  9 10  1  0
 12 13  1  0
 12 11  1  6
 13  6  1  0
 14 12  1  0
 15 14  2  0
 16 17  1  0
 17 19  1  0
 17 18  2  0
 20 19  1  1
 20 21  1  0
 21 14  1  0
 22 24  1  0
 22 20  1  0
 23 22  2  0
M  END
$$$$
