TLN.pdb
     RDKit          3D

 24 23  0  0  1  0  0  0  0  0999 V2000
   18.7984  -11.0336  -19.5844 C   0  0  0  0  0  0  0  0  0  0  0  0
   19.8230  -10.5898  -18.5349 C   0  0  1  0  0  0  0  0  0  0  0  0
   19.1495   -9.8827  -17.5452 O   0  0  0  0  0  0  0  0  0  0  0  0
   20.3564  -11.8597  -17.9068 C   0  0  2  0  0  0  0  0  0  0  0  0
   19.3002  -12.7237  -17.4520 N   0  0  0  0  0  0  0  0  0  0  0  0
   21.2443  -11.5654  -16.7526 C   0  0  0  0  0  0  0  0  0  0  0  0
   20.8849  -11.8415  -15.5645 O   0  0  0  0  0  0  0  0  0  0  0  0
   26.1846   -9.7006  -14.5626 C   0  0  0  0  0  0  0  0  0  0  0  0
   25.8275  -11.0108  -15.2060 C   0  0  2  0  0  0  0  0  0  0  0  0
   27.0814  -11.4439  -15.9986 C   0  0  0  0  0  0  0  0  0  0  0  0
   24.7115  -10.9571  -16.1490 C   0  0  0  0  0  0  0  0  0  0  0  0
   23.3520  -10.5492  -15.7508 C   0  0  2  0  0  0  0  0  0  0  0  0
   22.5146  -10.9709  -16.9316 N   0  0  0  0  0  0  0  0  0  0  0  0
   23.0305   -9.1384  -15.5811 C   0  0  0  0  0  0  0  0  0  0  0  0
   23.4010   -8.5101  -14.5355 O   0  0  0  0  0  0  0  0  0  0  0  0
   24.1655   -6.4713  -19.3907 N   0  0  0  0  0  0  0  0  0  0  0  0
   23.6891   -6.2032  -18.0866 C   0  0  0  0  0  0  0  0  0  0  0  0
   24.5800   -5.9456  -17.2172 O   0  0  0  0  0  0  0  0  0  0  0  0
   22.3049   -6.1897  -17.6345 C   0  0  0  0  0  0  0  0  0  0  0  0
   22.0524   -6.9492  -16.3418 C   0  0  2  0  0  0  0  0  0  0  0  0
   22.3154   -8.3619  -16.5273 N   0  0  0  0  0  0  0  0  0  0  0  0
   20.7168   -6.6187  -15.8462 C   0  0  0  0  0  0  0  0  0  0  0  0
   20.3737   -5.4367  -15.6674 O   0  0  0  0  0  0  0  0  0  0  0  0
   19.8318   -7.6470  -15.5764 O   0  0  0  0  0  0  0  0  0  0  0  0
  2  3  1  0
  2  1  1  6
  4  2  1  0
  4  5  1  1
  6  4  1  0
  6  7  2  0
  9 11  1  0
  9  8  1  6
  9 10  1  0
 12 13  1  0
 12 11  1  6
 13  6  1  0
 14 12  1  0
 15 14  2  0
 16 17  1  0
 17 19  1  0
 17 18  2  0
 20 19  1  6
 20 21  1  0
 21 14  1  0
 22 24  1  0
 22 20  1  0
 23 22  2  0
M  END
$$$$
