TLN.pdb
     RDKit          3D

 24 23  0  0  1  0  0  0  0  0999 V2000
   17.9370   -8.1485  -18.5592 C   0  0  0  0  0  0  0  0  0  0  0  0
   16.9826   -8.9891  -17.7044 C   0  0  1  0  0  0  0  0  0  0  0  0
   16.1026   -9.6454  -18.5576 O   0  0  0  0  0  0  0  0  0  0  0  0
   17.8384  -10.0416  -17.0325 C   0  0  2  0  0  0  0  0  0  0  0  0
   17.0453  -11.0411  -16.3684 N   0  0  0  0  0  0  0  0  0  0  0  0
   18.7578   -9.4395  -16.0328 C   0  0  0  0  0  0  0  0  0  0  0  0
   18.3366   -9.0882  -14.8856 O   0  0  0  0  0  0  0  0  0  0  0  0
   22.5046  -10.3264  -13.0476 C   0  0  0  0  0  0  0  0  0  0  0  0
   22.4430  -10.6186  -14.5203 C   0  0  2  0  0  0  0  0  0  0  0  0
   23.8117  -11.2380  -14.8821 C   0  0  0  0  0  0  0  0  0  0  0  0
   22.2511   -9.4509  -15.3788 C   0  0  0  0  0  0  0  0  0  0  0  0
   21.0491   -8.6003  -15.3086 C   0  0  2  0  0  0  0  0  0  0  0  0
   20.1275   -9.2360  -16.3185 N   0  0  0  0  0  0  0  0  0  0  0  0
   21.1133   -7.2055  -15.7243 C   0  0  0  0  0  0  0  0  0  0  0  0
   20.8508   -6.8746  -16.9272 O   0  0  0  0  0  0  0  0  0  0  0  0
   20.9019   -1.9678  -16.1792 N   0  0  0  0  0  0  0  0  0  0  0  0
   19.9384   -2.9969  -16.2878 C   0  0  0  0  0  0  0  0  0  0  0  0
   18.8397   -2.6669  -16.8353 O   0  0  0  0  0  0  0  0  0  0  0  0
   20.0647   -4.3789  -15.8463 C   0  0  0  0  0  0  0  0  0  0  0  0
   21.4341   -4.7472  -15.2981 C   0  0  2  0  0  0  0  0  0  0  0  0
   21.4486   -6.1295  -14.8644 N   0  0  0  0  0  0  0  0  0  0  0  0
   21.8230   -3.7667  -14.2851 C   0  0  0  0  0  0  0  0  0  0  0  0
   21.9680   -4.0976  -13.0950 O   0  0  0  0  0  0  0  0  0  0  0  0
   22.0294   -2.4546  -14.6711 O   0  0  0  0  0  0  0  0  0  0  0  0
  2  3  1  0
  2  1  1  6
  4  2  1  0
  4  5  1  1
  6  4  1  0
  6  7  2  0
  9 11  1  0
  9  8  1  1
  9 10  1  0
 12 13  1  0
 12 11  1  6
 13  6  1  0
 14 12  1  0
 15 14  2  0
 16 17  1  0
 17 19  1  0
 17 18  2  0
 20 19  1  1
 20 21  1  0
 21 14  1  0
 22 24  1  0
 22 20  1  0
 23 22  2  0
M  END
$$$$
