TLN.pdb
     RDKit          3D

 24 23  0  0  1  0  0  0  0  0999 V2000
   27.3291  -24.1867  -16.0647 C   0  0  0  0  0  0  0  0  0  0  0  0
   27.9995  -22.8461  -15.7463 C   0  0  1  0  0  0  0  0  0  0  0  0
   28.9907  -22.6222  -16.6953 O   0  0  0  0  0  0  0  0  0  0  0  0
   26.9340  -21.7883  -15.9398 C   0  0  2  0  0  0  0  0  0  0  0  0
   27.4792  -20.4577  -15.9025 N   0  0  0  0  0  0  0  0  0  0  0  0
   25.8753  -21.8850  -14.9022 C   0  0  0  0  0  0  0  0  0  0  0  0
   25.0489  -22.8515  -14.8996 O   0  0  0  0  0  0  0  0  0  0  0  0
   24.6741  -21.8068   -9.8042 C   0  0  0  0  0  0  0  0  0  0  0  0
   25.6905  -20.9768  -10.5362 C   0  0  2  0  0  0  0  0  0  0  0  0
   26.1653  -19.9083   -9.5259 C   0  0  0  0  0  0  0  0  0  0  0  0
   25.1865  -20.2715  -11.7136 C   0  0  0  0  0  0  0  0  0  0  0  0
   24.6242  -20.9734  -12.8816 C   0  0  2  0  0  0  0  0  0  0  0  0
   25.7481  -20.9114  -13.8848 N   0  0  0  0  0  0  0  0  0  0  0  0
   23.4866  -20.4105  -13.5969 C   0  0  0  0  0  0  0  0  0  0  0  0
   23.5912  -19.2956  -14.2065 O   0  0  0  0  0  0  0  0  0  0  0  0
   19.4733  -20.6048  -17.8545 N   0  0  0  0  0  0  0  0  0  0  0  0
   19.9139  -20.2621  -16.5554 C   0  0  0  0  0  0  0  0  0  0  0  0
   19.3447  -19.2548  -16.0289 O   0  0  0  0  0  0  0  0  0  0  0  0
   20.9371  -20.9290  -15.7624 C   0  0  0  0  0  0  0  0  0  0  0  0
   21.0847  -20.4014  -14.3441 C   0  0  2  0  0  0  0  0  0  0  0  0
   22.2140  -21.0283  -13.6879 N   0  0  0  0  0  0  0  0  0  0  0  0
   19.8038  -20.5304  -13.6503 C   0  0  0  0  0  0  0  0  0  0  0  0
   19.0605  -19.5466  -13.4883 O   0  0  0  0  0  0  0  0  0  0  0  0
   19.4262  -21.7723  -13.1722 O   0  0  0  0  0  0  0  0  0  0  0  0
  2  3  1  0
  2  1  1  6
  4  2  1  0
  4  5  1  1
  6  4  1  0
  6  7  2  0
  9 11  1  0
  9  8  1  1
  9 10  1  0
 12 13  1  0
 12 11  1  1
 13  6  1  0
 14 12  1  0
 15 14  2  0
 16 17  1  0
 17 19  1  0
 17 18  2  0
 20 19  1  6
 20 21  1  0
 21 14  1  0
 22 24  1  0
 22 20  1  0
 23 22  2  0
M  END
$$$$
