TLN.pdb
     RDKit          3D

 24 23  0  0  1  0  0  0  0  0999 V2000
   20.5150   -9.8442  -19.4435 C   0  0  0  0  0  0  0  0  0  0  0  0
   20.1939  -11.1165  -18.6523 C   0  0  1  0  0  0  0  0  0  0  0  0
   19.6175  -12.0337  -19.5239 O   0  0  0  0  0  0  0  0  0  0  0  0
   21.5264  -11.6821  -18.2092 C   0  0  2  0  0  0  0  0  0  0  0  0
   21.4007  -13.0147  -17.6826 N   0  0  0  0  0  0  0  0  0  0  0  0
   22.1613  -10.8308  -17.1703 C   0  0  0  0  0  0  0  0  0  0  0  0
   21.5650  -10.5820  -16.0751 O   0  0  0  0  0  0  0  0  0  0  0  0
   26.4837  -11.0922  -14.8436 C   0  0  0  0  0  0  0  0  0  0  0  0
   26.2898  -10.7909  -16.3029 C   0  0  2  0  0  0  0  0  0  0  0  0
   27.7092  -10.6024  -16.8841 C   0  0  0  0  0  0  0  0  0  0  0  0
   25.5340   -9.5732  -16.5917 C   0  0  0  0  0  0  0  0  0  0  0  0
   24.0984   -9.4362  -16.2862 C   0  0  2  0  0  0  0  0  0  0  0  0
   23.4448  -10.2690  -17.3599 N   0  0  0  0  0  0  0  0  0  0  0  0
   23.4447   -8.1396  -16.4041 C   0  0  0  0  0  0  0  0  0  0  0  0
   23.2742   -7.6008  -17.5470 O   0  0  0  0  0  0  0  0  0  0  0  0
   20.4680   -3.7758  -15.6538 N   0  0  0  0  0  0  0  0  0  0  0  0
   20.0832   -5.0774  -16.0504 C   0  0  0  0  0  0  0  0  0  0  0  0
   18.9319   -5.1735  -16.5805 O   0  0  0  0  0  0  0  0  0  0  0  0
   20.8524   -6.3070  -15.9199 C   0  0  0  0  0  0  0  0  0  0  0  0
   22.2903   -6.1107  -15.4665 C   0  0  2  0  0  0  0  0  0  0  0  0
   22.9480   -7.3918  -15.3070 N   0  0  0  0  0  0  0  0  0  0  0  0
   22.3061   -5.2452  -14.2878 C   0  0  0  0  0  0  0  0  0  0  0  0
   21.9681   -4.0509  -14.3648 O   0  0  0  0  0  0  0  0  0  0  0  0
   22.7054   -5.7770  -13.0749 O   0  0  0  0  0  0  0  0  0  0  0  0
  2  3  1  0
  2  1  1  6
  4  2  1  0
  4  5  1  1
  6  4  1  0
  6  7  2  0
  9 11  1  0
  9  8  1  1
  9 10  1  0
 12 13  1  0
 12 11  1  6
 13  6  1  0
 14 12  1  0
 15 14  2  0
 16 17  1  0
 17 19  1  0
 17 18  2  0
 20 19  1  1
 20 21  1  0
 21 14  1  0
 22 24  1  0
 22 20  1  0
 23 22  2  0
M  END
$$$$
