TLN.pdb
     RDKit          3D

 24 23  0  0  1  0  0  0  0  0999 V2000
   20.0709   -8.0439  -19.5521 C   0  0  0  0  0  0  0  0  0  0  0  0
   19.0492   -9.1774  -19.4120 C   0  0  1  0  0  0  0  0  0  0  0  0
   18.6034   -9.5172  -20.6844 O   0  0  0  0  0  0  0  0  0  0  0  0
   19.8124  -10.3639  -18.8630 C   0  0  2  0  0  0  0  0  0  0  0  0
   19.0162  -11.5619  -18.8528 N   0  0  0  0  0  0  0  0  0  0  0  0
   20.2890  -10.1120  -17.4786 C   0  0  0  0  0  0  0  0  0  0  0  0
   19.4740  -10.0756  -16.5032 O   0  0  0  0  0  0  0  0  0  0  0  0
   22.5460  -12.2012  -14.0303 C   0  0  0  0  0  0  0  0  0  0  0  0
   23.2160  -11.8740  -15.3350 C   0  0  2  0  0  0  0  0  0  0  0  0
   24.6568  -12.4193  -15.2145 C   0  0  0  0  0  0  0  0  0  0  0  0
   23.3128  -10.4483  -15.6444 C   0  0  0  0  0  0  0  0  0  0  0  0
   22.1277   -9.5853  -15.7992 C   0  0  2  0  0  0  0  0  0  0  0  0
   21.6588   -9.9047  -17.1962 N   0  0  0  0  0  0  0  0  0  0  0  0
   22.2725   -8.1356  -15.8027 C   0  0  0  0  0  0  0  0  0  0  0  0
   23.0754   -7.5661  -16.6130 O   0  0  0  0  0  0  0  0  0  0  0  0
   18.4093   -5.9821  -16.6680 N   0  0  0  0  0  0  0  0  0  0  0  0
   19.7203   -5.4867  -16.4804 C   0  0  0  0  0  0  0  0  0  0  0  0
   20.4035   -5.3223  -17.5397 O   0  0  0  0  0  0  0  0  0  0  0  0
   20.3674   -5.1476  -15.2207 C   0  0  0  0  0  0  0  0  0  0  0  0
   21.7132   -5.8189  -14.9979 C   0  0  2  0  0  0  0  0  0  0  0  0
   21.5568   -7.2584  -14.9495 N   0  0  0  0  0  0  0  0  0  0  0  0
   22.3602   -5.2177  -13.8322 C   0  0  0  0  0  0  0  0  0  0  0  0
   22.6084   -5.8926  -12.8176 O   0  0  0  0  0  0  0  0  0  0  0  0
   22.6957   -3.8764  -13.8732 O   0  0  0  0  0  0  0  0  0  0  0  0
  2  3  1  0
  2  1  1  6
  4  2  1  0
  4  5  1  1
  6  4  1  0
  6  7  2  0
  9 11  1  0
  9  8  1  1
  9 10  1  0
 12 13  1  0
 12 11  1  6
 13  6  1  0
 14 12  1  0
 15 14  2  0
 16 17  1  0
 17 19  1  0
 17 18  2  0
 20 19  1  1
 20 21  1  0
 21 14  1  0
 22 24  1  0
 22 20  1  0
 23 22  2  0
M  END
$$$$
