TLN.pdb
     RDKit          3D

 24 23  0  0  1  0  0  0  0  0999 V2000
   28.6291  -21.1123  -17.3509 C   0  0  0  0  0  0  0  0  0  0  0  0
   27.8594  -21.8259  -16.2345 C   0  0  1  0  0  0  0  0  0  0  0  0
   28.7413  -22.0664  -15.1869 O   0  0  0  0  0  0  0  0  0  0  0  0
   26.8233  -20.8381  -15.7422 C   0  0  2  0  0  0  0  0  0  0  0  0
   27.4131  -19.5877  -15.3453 N   0  0  0  0  0  0  0  0  0  0  0  0
   26.0606  -21.3785  -14.5874 C   0  0  0  0  0  0  0  0  0  0  0  0
   25.4321  -22.4803  -14.6772 O   0  0  0  0  0  0  0  0  0  0  0  0
   25.8721  -19.7071   -8.7234 C   0  0  0  0  0  0  0  0  0  0  0  0
   25.0903  -20.4621   -9.7611 C   0  0  2  0  0  0  0  0  0  0  0  0
   24.8170  -21.8544   -9.1489 C   0  0  0  0  0  0  0  0  0  0  0  0
   25.7830  -20.6716  -11.0314 C   0  0  0  0  0  0  0  0  0  0  0  0
   25.0949  -21.1523  -12.2433 C   0  0  2  0  0  0  0  0  0  0  0  0
   26.0059  -20.6916  -13.3529 N   0  0  0  0  0  0  0  0  0  0  0  0
   23.7943  -20.6089  -12.6115 C   0  0  0  0  0  0  0  0  0  0  0  0
   23.7092  -19.5901  -13.3733 O   0  0  0  0  0  0  0  0  0  0  0  0
   18.9584  -20.7781  -14.6894 N   0  0  0  0  0  0  0  0  0  0  0  0
   20.2043  -21.2957  -15.1128 C   0  0  0  0  0  0  0  0  0  0  0  0
   20.2538  -21.6936  -16.3191 O   0  0  0  0  0  0  0  0  0  0  0  0
   21.4241  -21.4219  -14.3276 C   0  0  0  0  0  0  0  0  0  0  0  0
   21.3140  -20.9150  -12.8984 C   0  0  2  0  0  0  0  0  0  0  0  0
   22.5535  -21.1455  -12.1846 N   0  0  0  0  0  0  0  0  0  0  0  0
   20.1175  -21.4847  -12.2799 C   0  0  0  0  0  0  0  0  0  0  0  0
   18.9862  -21.2591  -12.7446 O   0  0  0  0  0  0  0  0  0  0  0  0
   20.2616  -22.2852  -11.1611 O   0  0  0  0  0  0  0  0  0  0  0  0
  2  3  1  0
  2  1  1  6
  4  2  1  0
  4  5  1  1
  6  4  1  0
  6  7  2  0
  9 11  1  0
  9  8  1  1
  9 10  1  0
 12 13  1  0
 12 11  1  1
 13  6  1  0
 14 12  1  0
 15 14  2  0
 16 17  1  0
 17 19  1  0
 17 18  2  0
 20 19  1  6
 20 21  1  0
 21 14  1  0
 22 24  1  0
 22 20  1  0
 23 22  2  0
M  END
$$$$
