TLN.pdb
     RDKit          3D

 24 23  0  0  1  0  0  0  0  0999 V2000
   20.2950  -22.2253  -10.1195 C   0  0  0  0  0  0  0  0  0  0  0  0
   21.0145  -21.3253  -11.1297 C   0  0  1  0  0  0  0  0  0  0  0  0
   20.2411  -20.1859  -11.3212 O   0  0  0  0  0  0  0  0  0  0  0  0
   22.3044  -20.8957  -10.4639 C   0  0  2  0  0  0  0  0  0  0  0  0
   22.0691  -20.0673   -9.3118 N   0  0  0  0  0  0  0  0  0  0  0  0
   23.1791  -20.1469  -11.4028 C   0  0  0  0  0  0  0  0  0  0  0  0
   23.1652  -18.8759  -11.4362 O   0  0  0  0  0  0  0  0  0  0  0  0
   28.4282  -21.3330  -14.1244 C   0  0  0  0  0  0  0  0  0  0  0  0
   27.2209  -20.4458  -14.2410 C   0  0  2  0  0  0  0  0  0  0  0  0
   27.7388  -19.0044  -14.0364 C   0  0  0  0  0  0  0  0  0  0  0  0
   26.1776  -20.6808  -13.2441 C   0  0  0  0  0  0  0  0  0  0  0  0
   24.8436  -20.0588  -13.3264 C   0  0  2  0  0  0  0  0  0  0  0  0
   24.0544  -20.8163  -12.2887 N   0  0  0  0  0  0  0  0  0  0  0  0
   24.0460  -20.1933  -14.5381 C   0  0  0  0  0  0  0  0  0  0  0  0
   23.5193  -21.3126  -14.8469 O   0  0  0  0  0  0  0  0  0  0  0  0
   21.6536  -16.0567  -15.5009 N   0  0  0  0  0  0  0  0  0  0  0  0
   21.5212  -17.3539  -16.0478 C   0  0  0  0  0  0  0  0  0  0  0  0
   20.5514  -18.0435  -15.6007 O   0  0  0  0  0  0  0  0  0  0  0  0
   22.3645  -17.9805  -17.0562 C   0  0  0  0  0  0  0  0  0  0  0  0
   22.9774  -19.3068  -16.6357 C   0  0  2  0  0  0  0  0  0  0  0  0
   23.7826  -19.1348  -15.4435 N   0  0  0  0  0  0  0  0  0  0  0  0
   23.6685  -19.8984  -17.7807 C   0  0  0  0  0  0  0  0  0  0  0  0
   24.9005  -20.0678  -17.7684 O   0  0  0  0  0  0  0  0  0  0  0  0
   22.9275  -20.2707  -18.8878 O   0  0  0  0  0  0  0  0  0  0  0  0
  2  3  1  0
  2  1  1  1
  4  2  1  0
  4  5  1  1
  6  4  1  0
  6  7  2  0
  9 11  1  0
  9  8  1  1
  9 10  1  0
 12 13  1  0
 12 11  1  6
 13  6  1  0
 14 12  1  0
 15 14  2  0
 16 17  1  0
 17 19  1  0
 17 18  2  0
 20 19  1  6
 20 21  1  0
 21 14  1  0
 22 24  1  0
 22 20  1  0
 23 22  2  0
M  END
$$$$
