TLN.pdb
     RDKit          3D

 24 23  0  0  1  0  0  0  0  0999 V2000
   20.0434  -15.8328  -19.3313 C   0  0  0  0  0  0  0  0  0  0  0  0
   20.3890  -14.9743  -18.1100 C   0  0  1  0  0  0  0  0  0  0  0  0
   21.3885  -15.6235  -17.3940 O   0  0  0  0  0  0  0  0  0  0  0  0
   20.9771  -13.6896  -18.6537 C   0  0  2  0  0  0  0  0  0  0  0  0
   22.1374  -13.9283  -19.4696 N   0  0  0  0  0  0  0  0  0  0  0  0
   21.3623  -12.7609  -17.5599 C   0  0  0  0  0  0  0  0  0  0  0  0
   20.5361  -12.4509  -16.6443 O   0  0  0  0  0  0  0  0  0  0  0  0
   26.8706  -10.6360  -15.8821 C   0  0  0  0  0  0  0  0  0  0  0  0
   25.3974  -10.4778  -15.6318 C   0  0  2  0  0  0  0  0  0  0  0  0
   25.1953  -10.7624  -14.1264 C   0  0  0  0  0  0  0  0  0  0  0  0
   24.5380  -11.4016  -16.3704 C   0  0  0  0  0  0  0  0  0  0  0  0
   23.0666  -11.3177  -16.3387 C   0  0  2  0  0  0  0  0  0  0  0  0
   22.6546  -12.1907  -17.4969 N   0  0  0  0  0  0  0  0  0  0  0  0
   22.3992  -10.0499  -16.6027 C   0  0  0  0  0  0  0  0  0  0  0  0
   22.5932   -9.4313  -17.7006 O   0  0  0  0  0  0  0  0  0  0  0  0
   19.2700   -5.6675  -16.2468 N   0  0  0  0  0  0  0  0  0  0  0  0
   18.7114   -6.9049  -15.8519 C   0  0  0  0  0  0  0  0  0  0  0  0
   17.4598   -6.8982  -15.6301 O   0  0  0  0  0  0  0  0  0  0  0  0
   19.4047   -8.1730  -15.6731 C   0  0  0  0  0  0  0  0  0  0  0  0
   20.8919   -8.1327  -15.9861 C   0  0  2  0  0  0  0  0  0  0  0  0
   21.5011   -9.4172  -15.7068 N   0  0  0  0  0  0  0  0  0  0  0  0
   21.4939   -6.9895  -15.3009 C   0  0  0  0  0  0  0  0  0  0  0  0
   21.1458   -5.8259  -15.5680 O   0  0  0  0  0  0  0  0  0  0  0  0
   22.4644   -7.2214  -14.3429 O   0  0  0  0  0  0  0  0  0  0  0  0
  2  3  1  0
  2  1  1  6
  4  2  1  0
  4  5  1  1
  6  4  1  0
  6  7  2  0
  9 11  1  0
  9  8  1  6
  9 10  1  0
 12 13  1  0
 12 11  1  6
 13  6  1  0
 14 12  1  0
 15 14  2  0
 16 17  1  0
 17 19  1  0
 17 18  2  0
 20 19  1  1
 20 21  1  0
 21 14  1  0
 22 24  1  0
 22 20  1  0
 23 22  2  0
M  END
$$$$
