TLN.pdb
     RDKit          3D

 24 23  0  0  1  0  0  0  0  0999 V2000
   20.1291  -11.6009  -21.7617 C   0  0  0  0  0  0  0  0  0  0  0  0
   20.5089  -10.9292  -20.4378 C   0  0  1  0  0  0  0  0  0  0  0  0
   19.3367  -10.6343  -19.7508 O   0  0  0  0  0  0  0  0  0  0  0  0
   21.2574  -11.9737  -19.6375 C   0  0  2  0  0  0  0  0  0  0  0  0
   20.4889  -13.1774  -19.4658 N   0  0  0  0  0  0  0  0  0  0  0  0
   21.6302  -11.4655  -18.2922 C   0  0  0  0  0  0  0  0  0  0  0  0
   20.9426  -11.7672  -17.2659 O   0  0  0  0  0  0  0  0  0  0  0  0
   26.7450  -10.0555  -15.5209 C   0  0  0  0  0  0  0  0  0  0  0  0
   25.2788   -9.7278  -15.4908 C   0  0  2  0  0  0  0  0  0  0  0  0
   24.7439  -10.3213  -14.1681 C   0  0  0  0  0  0  0  0  0  0  0  0
   24.4901  -10.3038  -16.5788 C   0  0  0  0  0  0  0  0  0  0  0  0
   23.0559  -10.0155  -16.7613 C   0  0  2  0  0  0  0  0  0  0  0  0
   22.7569  -10.6322  -18.1043 N   0  0  0  0  0  0  0  0  0  0  0  0
   22.5970   -8.6397  -16.8992 C   0  0  0  0  0  0  0  0  0  0  0  0
   22.8274   -7.9832  -17.9676 O   0  0  0  0  0  0  0  0  0  0  0  0
   19.2795   -4.1743  -17.0841 N   0  0  0  0  0  0  0  0  0  0  0  0
   19.5740   -4.9642  -15.9489 C   0  0  0  0  0  0  0  0  0  0  0  0
   19.4296   -4.3882  -14.8249 O   0  0  0  0  0  0  0  0  0  0  0  0
   20.0198   -6.3503  -15.9255 C   0  0  0  0  0  0  0  0  0  0  0  0
   21.5250   -6.5345  -16.0350 C   0  0  2  0  0  0  0  0  0  0  0  0
   21.8724   -7.9351  -15.9052 N   0  0  0  0  0  0  0  0  0  0  0  0
   22.1868   -5.6331  -15.0926 C   0  0  0  0  0  0  0  0  0  0  0  0
   22.5363   -6.0273  -13.9660 O   0  0  0  0  0  0  0  0  0  0  0  0
   22.4212   -4.3242  -15.4738 O   0  0  0  0  0  0  0  0  0  0  0  0
  2  3  1  0
  2  1  1  6
  4  2  1  0
  4  5  1  1
  6  4  1  0
  6  7  2  0
  9 11  1  0
  9  8  1  6
  9 10  1  0
 12 13  1  0
 12 11  1  6
 13  6  1  0
 14 12  1  0
 15 14  2  0
 16 17  1  0
 17 19  1  0
 17 18  2  0
 20 19  1  1
 20 21  1  0
 21 14  1  0
 22 24  1  0
 22 20  1  0
 23 22  2  0
M  END
$$$$
