TLN.pdb
     RDKit          3D

 24 23  0  0  1  0  0  0  0  0999 V2000
   20.7604  -10.5969  -22.4395 C   0  0  0  0  0  0  0  0  0  0  0  0
   20.9769  -10.0728  -21.0160 C   0  0  1  0  0  0  0  0  0  0  0  0
   19.7381   -9.7219  -20.4914 O   0  0  0  0  0  0  0  0  0  0  0  0
   21.4981  -11.2452  -20.2124 C   0  0  2  0  0  0  0  0  0  0  0  0
   20.5966  -12.3657  -20.2429 N   0  0  0  0  0  0  0  0  0  0  0  0
   21.7282  -10.8734  -18.7926 C   0  0  0  0  0  0  0  0  0  0  0  0
   20.8344  -11.0755  -17.9109 O   0  0  0  0  0  0  0  0  0  0  0  0
   26.7509  -10.5531  -15.5131 C   0  0  0  0  0  0  0  0  0  0  0  0
   25.3347  -10.0505  -15.5187 C   0  0  2  0  0  0  0  0  0  0  0  0
   24.6673  -10.6645  -14.2675 C   0  0  0  0  0  0  0  0  0  0  0  0
   24.5380  -10.4480  -16.6784 C   0  0  0  0  0  0  0  0  0  0  0  0
   23.1788   -9.9330  -16.9245 C   0  0  2  0  0  0  0  0  0  0  0  0
   22.9426  -10.2844  -18.3716 N   0  0  0  0  0  0  0  0  0  0  0  0
   22.9162   -8.5012  -16.8658 C   0  0  0  0  0  0  0  0  0  0  0  0
   23.3610   -7.7226  -17.7722 O   0  0  0  0  0  0  0  0  0  0  0  0
   21.1277   -3.6132  -15.4484 N   0  0  0  0  0  0  0  0  0  0  0  0
   20.2040   -4.6701  -15.6192 C   0  0  0  0  0  0  0  0  0  0  0  0
   18.9800   -4.3300  -15.6620 O   0  0  0  0  0  0  0  0  0  0  0  0
   20.4974   -6.0904  -15.7501 C   0  0  0  0  0  0  0  0  0  0  0  0
   21.9785   -6.4317  -15.7861 C   0  0  2  0  0  0  0  0  0  0  0  0
   22.1640   -7.8674  -15.8450 N   0  0  0  0  0  0  0  0  0  0  0  0
   22.6519   -5.7562  -14.6774 C   0  0  0  0  0  0  0  0  0  0  0  0
   22.7052   -6.2746  -13.5482 O   0  0  0  0  0  0  0  0  0  0  0  0
   23.2341   -4.5219  -14.9030 O   0  0  0  0  0  0  0  0  0  0  0  0
  2  3  1  0
  2  1  1  6
  4  2  1  0
  4  5  1  1
  6  4  1  0
  6  7  2  0
  9 11  1  0
  9  8  1  6
  9 10  1  0
 12 13  1  0
 12 11  1  6
 13  6  1  0
 14 12  1  0
 15 14  2  0
 16 17  1  0
 17 19  1  0
 17 18  2  0
 20 19  1  1
 20 21  1  0
 21 14  1  0
 22 24  1  0
 22 20  1  0
 23 22  2  0
M  END
$$$$
