TLN.pdb
     RDKit          3D

 24 23  0  0  1  0  0  0  0  0999 V2000
   18.1528  -10.1586  -19.4132 C   0  0  0  0  0  0  0  0  0  0  0  0
   17.3546  -11.3114  -18.7951 C   0  0  1  0  0  0  0  0  0  0  0  0
   17.1000  -12.2450  -19.7934 O   0  0  0  0  0  0  0  0  0  0  0  0
   18.2738  -11.9627  -17.7839 C   0  0  2  0  0  0  0  0  0  0  0  0
   17.7212  -13.1814  -17.2561 N   0  0  0  0  0  0  0  0  0  0  0  0
   18.5631  -11.0533  -16.6453 C   0  0  0  0  0  0  0  0  0  0  0  0
   17.6921  -10.8362  -15.7446 O   0  0  0  0  0  0  0  0  0  0  0  0
   23.5197   -9.7045  -13.5817 C   0  0  0  0  0  0  0  0  0  0  0  0
   22.1432   -9.1715  -13.8634 C   0  0  2  0  0  0  0  0  0  0  0  0
   21.3696   -9.2836  -12.5304 C   0  0  0  0  0  0  0  0  0  0  0  0
   21.3848   -9.9095  -14.8722 C   0  0  0  0  0  0  0  0  0  0  0  0
   20.0827   -9.4463  -15.3855 C   0  0  2  0  0  0  0  0  0  0  0  0
   19.8105  -10.3993  -16.5218 N   0  0  0  0  0  0  0  0  0  0  0  0
   19.9629   -8.1299  -15.9979 C   0  0  0  0  0  0  0  0  0  0  0  0
   20.3941   -7.9228  -17.1797 O   0  0  0  0  0  0  0  0  0  0  0  0
   18.2955   -3.4084  -17.6541 N   0  0  0  0  0  0  0  0  0  0  0  0
   17.9493   -4.7353  -17.9991 C   0  0  0  0  0  0  0  0  0  0  0  0
   17.2096   -4.8622  -19.0250 O   0  0  0  0  0  0  0  0  0  0  0  0
   18.3425   -5.9596  -17.3157 C   0  0  0  0  0  0  0  0  0  0  0  0
   19.1613   -5.7461  -16.0525 C   0  0  2  0  0  0  0  0  0  0  0  0
   19.3709   -7.0061  -15.3685 N   0  0  0  0  0  0  0  0  0  0  0  0
   18.5389   -4.6925  -15.2517 C   0  0  0  0  0  0  0  0  0  0  0  0
   17.3803   -4.8172  -14.8172 O   0  0  0  0  0  0  0  0  0  0  0  0
   19.2621   -3.5448  -14.9813 O   0  0  0  0  0  0  0  0  0  0  0  0
  2  3  1  0
  2  1  1  6
  4  2  1  0
  4  5  1  1
  6  4  1  0
  6  7  2  0
  9 11  1  0
  9  8  1  1
  9 10  1  0
 12 13  1  0
 12 11  1  6
 13  6  1  0
 14 12  1  0
 15 14  2  0
 16 17  1  0
 17 19  1  0
 17 18  2  0
 20 19  1  6
 20 21  1  0
 21 14  1  0
 22 24  1  0
 22 20  1  0
 23 22  2  0
M  END
$$$$
