DTY.pdb
     RDKit          3D

 28 28  0  0  1  0  0  0  0  0999 V2000
    9.4068  -17.0744   19.8447 N   0  0  0  0  0  0  0  0  0  0  0  0
    8.6309  -16.4132   20.8772 C   0  0  1  0  0  0  0  0  0  0  0  0
    7.1632  -16.6307   20.6019 C   0  0  0  0  0  0  0  0  0  0  0  0
    7.0061  -16.8447   19.1381 C   0  0  0  0  0  0  0  0  0  0  0  0
    7.7021  -16.1898   18.2941 O   0  0  0  0  0  0  0  0  0  0  0  0
    9.0394  -16.9726   22.1900 C   0  0  0  0  0  0  0  0  0  0  0  0
    8.3593  -17.8838   22.7619 O   0  0  0  0  0  0  0  0  0  0  0  0
    6.0994  -17.7624   18.6196 O   0  0  0  0  0  0  0  0  0  0  0  0
   11.9708  -18.8563   22.7405 C   0  0  0  0  0  0  0  0  0  0  0  0
   12.0249  -17.7590   23.7760 C   0  0  1  0  0  0  0  0  0  0  0  0
   12.9070  -16.8021   23.3388 O   0  0  0  0  0  0  0  0  0  0  0  0
   10.6407  -17.2227   24.0948 C   0  0  2  0  0  0  0  0  0  0  0  0
   10.1991  -16.5373   22.8889 N   0  0  0  0  0  0  0  0  0  0  0  0
   10.7530  -16.2804   25.2414 C   0  0  0  0  0  0  0  0  0  0  0  0
   11.2588  -15.1363   25.0970 O   0  0  0  0  0  0  0  0  0  0  0  0
    6.1122  -11.8187   25.0646 O   0  0  0  0  0  0  0  0  0  0  0  0
    6.8637  -12.6953   25.8622 C   0  0  0  0  0  0  0  0  0  0  0  0
    6.4863  -14.0186   25.9120 C   0  0  0  0  0  0  0  0  0  0  0  0
    7.2134  -14.8899   26.6895 C   0  0  0  0  0  0  0  0  0  0  0  0
    8.3271  -14.4927   27.4381 C   0  0  0  0  0  0  0  0  0  0  0  0
    9.0604  -15.4592   28.2789 C   0  0  0  0  0  0  0  0  0  0  0  0
   10.3954  -15.7564   27.6932 C   0  0  2  0  0  0  0  0  0  0  0  0
   10.2957  -16.6342   26.5360 N   0  0  0  0  0  0  0  0  0  0  0  0
   11.2644  -16.4065   28.6852 C   0  0  0  0  0  0  0  0  0  0  0  0
   11.5285  -15.7920   29.7580 O   0  0  0  0  0  0  0  0  0  0  0  0
    8.6546  -13.1569   27.3474 C   0  0  0  0  0  0  0  0  0  0  0  0
    7.9444  -12.2549   26.5749 C   0  0  0  0  0  0  0  0  0  0  0  0
   11.8366  -17.6625   28.5581 O   0  0  0  0  0  0  0  0  0  0  0  0
  2  1  1  6
  2  3  1  0
  3  4  1  0
  4  8  1  0
  5  4  2  0
  6  2  1  0
  7  6  2  0
 10  9  1  6
 10 11  1  0
 10 12  1  0
 12 14  1  0
 12 13  1  6
 13  6  1  0
 14 15  2  0
 16 17  1  0
 17 18  2  0
 18 19  1  0
 20 19  2  0
 20 21  1  0
 22 21  1  1
 22 24  1  0
 23 22  1  0
 23 14  1  0
 24 25  2  0
 24 28  1  0
 26 20  1  0
 27 17  1  0
 27 26  2  0
M  END
$$$$
