DTY.pdb
     RDKit          3D

 28 28  0  0  1  0  0  0  0  0999 V2000
    9.2637  -17.9763   18.5236 N   0  0  0  0  0  0  0  0  0  0  0  0
   10.4917  -17.4386   19.0787 C   0  0  1  0  0  0  0  0  0  0  0  0
   11.3049  -16.8248   17.9656 C   0  0  0  0  0  0  0  0  0  0  0  0
   11.9360  -17.9355   17.2031 C   0  0  0  0  0  0  0  0  0  0  0  0
   11.6072  -19.1503   17.4075 O   0  0  0  0  0  0  0  0  0  0  0  0
   10.1302  -16.4424   20.1180 C   0  0  0  0  0  0  0  0  0  0  0  0
   11.0154  -15.7197   20.6785 O   0  0  0  0  0  0  0  0  0  0  0  0
   12.9089  -17.7075   16.2364 O   0  0  0  0  0  0  0  0  0  0  0  0
    6.6757  -14.2070   20.1500 C   0  0  0  0  0  0  0  0  0  0  0  0
    7.0003  -14.9486   21.4243 C   0  0  1  0  0  0  0  0  0  0  0  0
    6.2251  -16.0808   21.4690 O   0  0  0  0  0  0  0  0  0  0  0  0
    8.4896  -15.2150   21.5520 C   0  0  2  0  0  0  0  0  0  0  0  0
    8.7930  -16.2292   20.5528 N   0  0  0  0  0  0  0  0  0  0  0  0
    8.7629  -15.7132   22.9277 C   0  0  0  0  0  0  0  0  0  0  0  0
    8.8377  -16.9464   23.1708 O   0  0  0  0  0  0  0  0  0  0  0  0
   11.2970  -16.0632   31.3024 O   0  0  0  0  0  0  0  0  0  0  0  0
   10.8430  -15.5530   30.0764 C   0  0  0  0  0  0  0  0  0  0  0  0
   10.7547  -16.4124   29.0042 C   0  0  0  0  0  0  0  0  0  0  0  0
   10.3111  -15.9269   27.7960 C   0  0  0  0  0  0  0  0  0  0  0  0
    9.9423  -14.5907   27.6029 C   0  0  0  0  0  0  0  0  0  0  0  0
    9.4972  -14.1098   26.2802 C   0  0  0  0  0  0  0  0  0  0  0  0
    9.1931  -15.2555   25.3811 C   0  0  2  0  0  0  0  0  0  0  0  0
    8.9490  -14.8204   24.0133 N   0  0  0  0  0  0  0  0  0  0  0  0
    8.0024  -15.9804   25.8484 C   0  0  0  0  0  0  0  0  0  0  0  0
    6.8599  -15.5120   25.5773 O   0  0  0  0  0  0  0  0  0  0  0  0
   10.0529  -13.7805   28.7125 C   0  0  0  0  0  0  0  0  0  0  0  0
   10.4951  -14.2375   29.9414 C   0  0  0  0  0  0  0  0  0  0  0  0
    8.0086  -17.1607   26.5748 O   0  0  0  0  0  0  0  0  0  0  0  0
  2  1  1  6
  2  3  1  0
  3  4  1  0
  4  8  1  0
  5  4  2  0
  6  2  1  0
  7  6  2  0
 10  9  1  6
 10 11  1  0
 10 12  1  0
 12 14  1  0
 12 13  1  6
 13  6  1  0
 14 15  2  0
 16 17  1  0
 17 18  2  0
 18 19  1  0
 20 19  2  0
 20 21  1  0
 22 21  1  1
 22 24  1  0
 23 22  1  0
 23 14  1  0
 24 25  2  0
 24 28  1  0
 26 20  1  0
 27 17  1  0
 27 26  2  0
M  END
$$$$
