DTY.pdb
     RDKit          3D

 28 28  0  0  1  0  0  0  0  0999 V2000
   11.9860  -14.2255   17.2486 N   0  0  0  0  0  0  0  0  0  0  0  0
   12.0416  -15.0360   18.4508 C   0  0  1  0  0  0  0  0  0  0  0  0
   13.4794  -15.1603   18.8917 C   0  0  0  0  0  0  0  0  0  0  0  0
   14.1141  -16.2220   18.0651 C   0  0  0  0  0  0  0  0  0  0  0  0
   13.9566  -16.2602   16.8004 O   0  0  0  0  0  0  0  0  0  0  0  0
   11.1972  -14.3861   19.4841 C   0  0  0  0  0  0  0  0  0  0  0  0
   11.3750  -13.1702   19.8156 O   0  0  0  0  0  0  0  0  0  0  0  0
   14.9052  -17.2190   18.6249 O   0  0  0  0  0  0  0  0  0  0  0  0
    7.6268  -13.5509   19.5498 C   0  0  0  0  0  0  0  0  0  0  0  0
    7.9111  -14.4931   20.6946 C   0  0  1  0  0  0  0  0  0  0  0  0
    7.5516  -15.7595   20.3051 O   0  0  0  0  0  0  0  0  0  0  0  0
    9.3489  -14.3783   21.1689 C   0  0  2  0  0  0  0  0  0  0  0  0
   10.1485  -15.0644   20.1645 N   0  0  0  0  0  0  0  0  0  0  0  0
    9.4619  -15.0430   22.4959 C   0  0  0  0  0  0  0  0  0  0  0  0
    9.8236  -16.2452   22.5933 O   0  0  0  0  0  0  0  0  0  0  0  0
   10.5849  -15.8645   31.1928 O   0  0  0  0  0  0  0  0  0  0  0  0
   10.1537  -15.4237   29.9322 C   0  0  0  0  0  0  0  0  0  0  0  0
   10.9064  -14.4723   29.2807 C   0  0  0  0  0  0  0  0  0  0  0  0
   10.4965  -14.0305   28.0442 C   0  0  0  0  0  0  0  0  0  0  0  0
    9.3420  -14.5054   27.4116 C   0  0  0  0  0  0  0  0  0  0  0  0
    8.9277  -13.9816   26.0952 C   0  0  0  0  0  0  0  0  0  0  0  0
    9.2512  -14.9556   25.0181 C   0  0  2  0  0  0  0  0  0  0  0  0
    9.1675  -14.3496   23.6970 N   0  0  0  0  0  0  0  0  0  0  0  0
    8.3256  -16.0974   25.0555 C   0  0  0  0  0  0  0  0  0  0  0  0
    7.1951  -15.9823   24.5015 O   0  0  0  0  0  0  0  0  0  0  0  0
    8.6314  -15.4554   28.1134 C   0  0  0  0  0  0  0  0  0  0  0  0
    9.0165  -15.9209   29.3583 C   0  0  0  0  0  0  0  0  0  0  0  0
    8.5779  -17.3225   25.6524 O   0  0  0  0  0  0  0  0  0  0  0  0
  2  1  1  6
  2  3  1  0
  3  4  1  0
  4  8  1  0
  5  4  2  0
  6  2  1  0
  7  6  2  0
 10  9  1  6
 10 11  1  0
 10 12  1  0
 12 14  1  0
 12 13  1  6
 13  6  1  0
 14 15  2  0
 16 17  1  0
 17 18  2  0
 18 19  1  0
 20 19  2  0
 20 21  1  0
 22 21  1  1
 22 24  1  0
 23 22  1  0
 23 14  1  0
 24 25  2  0
 24 28  1  0
 26 20  1  0
 27 17  1  0
 27 26  2  0
M  END
$$$$
