DTY.pdb
     RDKit          3D

 28 28  0  0  1  0  0  0  0  0999 V2000
   11.2276  -14.6879   17.7164 N   0  0  0  0  0  0  0  0  0  0  0  0
   11.6672  -14.7496   19.0978 C   0  0  1  0  0  0  0  0  0  0  0  0
   12.6888  -13.6647   19.3356 C   0  0  0  0  0  0  0  0  0  0  0  0
   13.9729  -14.1151   18.7344 C   0  0  0  0  0  0  0  0  0  0  0  0
   14.0914  -15.2738   18.2157 O   0  0  0  0  0  0  0  0  0  0  0  0
   10.4753  -14.5917   19.9683 C   0  0  0  0  0  0  0  0  0  0  0  0
    9.4614  -13.9232   19.5875 O   0  0  0  0  0  0  0  0  0  0  0  0
   15.1004  -13.3021   18.7077 O   0  0  0  0  0  0  0  0  0  0  0  0
    7.8391  -15.2393   19.9090 C   0  0  0  0  0  0  0  0  0  0  0  0
    8.1206  -15.8661   21.2533 C   0  0  1  0  0  0  0  0  0  0  0  0
    8.4654  -17.1791   21.0488 O   0  0  0  0  0  0  0  0  0  0  0  0
    9.1518  -15.0719   22.0352 C   0  0  2  0  0  0  0  0  0  0  0  0
   10.3841  -15.1663   21.2661 N   0  0  0  0  0  0  0  0  0  0  0  0
    9.3049  -15.6931   23.3792 C   0  0  0  0  0  0  0  0  0  0  0  0
   10.3395  -16.3440   23.6817 O   0  0  0  0  0  0  0  0  0  0  0  0
    6.9837   -9.9544   27.0275 O   0  0  0  0  0  0  0  0  0  0  0  0
    7.0982  -11.3494   26.9256 C   0  0  0  0  0  0  0  0  0  0  0  0
    6.0006  -12.0654   26.5030 C   0  0  0  0  0  0  0  0  0  0  0  0
    6.0977  -13.4335   26.3980 C   0  0  0  0  0  0  0  0  0  0  0  0
    7.2680  -14.1381   26.7025 C   0  0  0  0  0  0  0  0  0  0  0  0
    7.3162  -15.6098   26.5998 C   0  0  0  0  0  0  0  0  0  0  0  0
    8.4510  -16.0382   25.7383 C   0  0  2  0  0  0  0  0  0  0  0  0
    8.2945  -15.5754   24.3668 N   0  0  0  0  0  0  0  0  0  0  0  0
    8.5607  -17.5043   25.7151 C   0  0  0  0  0  0  0  0  0  0  0  0
    8.1277  -18.1307   24.7060 O   0  0  0  0  0  0  0  0  0  0  0  0
    8.3310  -13.3665   27.1199 C   0  0  0  0  0  0  0  0  0  0  0  0
    8.2662  -11.9892   27.2360 C   0  0  0  0  0  0  0  0  0  0  0  0
    9.1094  -18.2892   26.7170 O   0  0  0  0  0  0  0  0  0  0  0  0
  2  1  1  6
  2  3  1  0
  3  4  1  0
  4  8  1  0
  5  4  2  0
  6  2  1  0
  7  6  2  0
 10  9  1  6
 10 11  1  0
 10 12  1  0
 12 14  1  0
 12 13  1  6
 13  6  1  0
 14 15  2  0
 16 17  1  0
 17 18  2  0
 18 19  1  0
 20 19  2  0
 20 21  1  0
 22 21  1  1
 22 24  1  0
 23 22  1  0
 23 14  1  0
 24 25  2  0
 24 28  1  0
 26 20  1  0
 27 17  1  0
 27 26  2  0
M  END
$$$$
