DTY.pdb
     RDKit          3D

 28 28  0  0  1  0  0  0  0  0999 V2000
   10.0563  -16.9573   17.4463 N   0  0  0  0  0  0  0  0  0  0  0  0
   10.7714  -17.2838   18.6659 C   0  0  1  0  0  0  0  0  0  0  0  0
   12.1899  -16.7819   18.5513 C   0  0  0  0  0  0  0  0  0  0  0  0
   12.9192  -17.6976   17.6332 C   0  0  0  0  0  0  0  0  0  0  0  0
   12.4796  -18.8664   17.3759 O   0  0  0  0  0  0  0  0  0  0  0  0
   10.0508  -16.6598   19.8038 C   0  0  0  0  0  0  0  0  0  0  0  0
   10.0461  -15.3983   19.9725 O   0  0  0  0  0  0  0  0  0  0  0  0
   14.1081  -17.3286   17.0138 O   0  0  0  0  0  0  0  0  0  0  0  0
    6.4243  -17.6781   21.0359 C   0  0  0  0  0  0  0  0  0  0  0  0
    7.4278  -17.6519   22.1636 C   0  0  1  0  0  0  0  0  0  0  0  0
    7.7800  -18.9471   22.4522 O   0  0  0  0  0  0  0  0  0  0  0  0
    8.6055  -16.7490   21.8428 C   0  0  2  0  0  0  0  0  0  0  0  0
    9.3277  -17.4145   20.7684 N   0  0  0  0  0  0  0  0  0  0  0  0
    9.4484  -16.6226   23.0630 C   0  0  0  0  0  0  0  0  0  0  0  0
   10.5374  -17.2458   23.1697 O   0  0  0  0  0  0  0  0  0  0  0  0
    4.8651  -11.8968   26.7406 O   0  0  0  0  0  0  0  0  0  0  0  0
    6.1172  -12.4679   26.4660 C   0  0  0  0  0  0  0  0  0  0  0  0
    6.8693  -12.9311   27.5225 C   0  0  0  0  0  0  0  0  0  0  0  0
    8.0987  -13.4936   27.2690 C   0  0  0  0  0  0  0  0  0  0  0  0
    8.6260  -13.6187   25.9786 C   0  0  0  0  0  0  0  0  0  0  0  0
    9.9623  -14.2058   25.7584 C   0  0  0  0  0  0  0  0  0  0  0  0
    9.8479  -15.6348   25.3605 C   0  0  2  0  0  0  0  0  0  0  0  0
    9.0583  -15.7978   24.1482 N   0  0  0  0  0  0  0  0  0  0  0  0
    9.2126  -16.4217   26.4278 C   0  0  0  0  0  0  0  0  0  0  0  0
    8.0693  -16.9189   26.2184 O   0  0  0  0  0  0  0  0  0  0  0  0
    7.8270  -13.1369   24.9641 C   0  0  0  0  0  0  0  0  0  0  0  0
    6.5861  -12.5659   25.1852 C   0  0  0  0  0  0  0  0  0  0  0  0
    9.7595  -16.6817   27.6744 O   0  0  0  0  0  0  0  0  0  0  0  0
  2  1  1  6
  2  3  1  0
  3  4  1  0
  4  8  1  0
  5  4  2  0
  6  2  1  0
  7  6  2  0
 10  9  1  6
 10 11  1  0
 10 12  1  0
 12 14  1  0
 12 13  1  6
 13  6  1  0
 14 15  2  0
 16 17  1  0
 17 18  2  0
 18 19  1  0
 20 19  2  0
 20 21  1  0
 22 21  1  1
 22 24  1  0
 23 22  1  0
 23 14  1  0
 24 25  2  0
 24 28  1  0
 26 20  1  0
 27 17  1  0
 27 26  2  0
M  END
$$$$
