DTY.pdb
     RDKit          3D

 28 28  0  0  1  0  0  0  0  0999 V2000
   12.8052  -16.0317   19.7422 N   0  0  0  0  0  0  0  0  0  0  0  0
   12.4256  -14.6599   20.0234 C   0  0  1  0  0  0  0  0  0  0  0  0
   12.3615  -13.8934   18.7252 C   0  0  0  0  0  0  0  0  0  0  0  0
   13.6966  -13.9929   18.0765 C   0  0  0  0  0  0  0  0  0  0  0  0
   14.7668  -13.7350   18.7199 O   0  0  0  0  0  0  0  0  0  0  0  0
   11.1170  -14.6782   20.7238 C   0  0  0  0  0  0  0  0  0  0  0  0
   10.5263  -13.5993   21.0511 O   0  0  0  0  0  0  0  0  0  0  0  0
   13.8446  -14.3691   16.7463 O   0  0  0  0  0  0  0  0  0  0  0  0
    7.9061  -16.7579   19.8867 C   0  0  0  0  0  0  0  0  0  0  0  0
    8.3686  -17.0020   21.3029 C   0  0  1  0  0  0  0  0  0  0  0  0
    9.0146  -18.2129   21.3387 O   0  0  0  0  0  0  0  0  0  0  0  0
    9.1991  -15.8439   21.8270 C   0  0  2  0  0  0  0  0  0  0  0  0
   10.4432  -15.8812   21.0721 N   0  0  0  0  0  0  0  0  0  0  0  0
    9.4420  -16.0578   23.2798 C   0  0  0  0  0  0  0  0  0  0  0  0
   10.5948  -16.3147   23.7163 O   0  0  0  0  0  0  0  0  0  0  0  0
    6.8408  -10.1544   26.3477 O   0  0  0  0  0  0  0  0  0  0  0  0
    6.9425  -11.5540   26.3505 C   0  0  0  0  0  0  0  0  0  0  0  0
    7.8571  -12.1403   27.1966 C   0  0  0  0  0  0  0  0  0  0  0  0
    7.9682  -13.5114   27.2106 C   0  0  0  0  0  0  0  0  0  0  0  0
    7.1900  -14.3454   26.3998 C   0  0  0  0  0  0  0  0  0  0  0  0
    7.3637  -15.8109   26.4306 C   0  0  0  0  0  0  0  0  0  0  0  0
    8.5652  -16.2129   25.6506 C   0  0  2  0  0  0  0  0  0  0  0  0
    8.3875  -15.9804   24.2244 N   0  0  0  0  0  0  0  0  0  0  0  0
    8.8580  -17.6403   25.8470 C   0  0  0  0  0  0  0  0  0  0  0  0
    8.5447  -18.4566   24.9339 O   0  0  0  0  0  0  0  0  0  0  0  0
    6.2940  -13.6998   25.5751 C   0  0  0  0  0  0  0  0  0  0  0  0
    6.1575  -12.3233   25.5371 C   0  0  0  0  0  0  0  0  0  0  0  0
    9.4627  -18.1946   26.9641 O   0  0  0  0  0  0  0  0  0  0  0  0
  2  1  1  6
  2  3  1  0
  3  4  1  0
  4  8  1  0
  5  4  2  0
  6  2  1  0
  7  6  2  0
 10  9  1  6
 10 11  1  0
 10 12  1  0
 12 14  1  0
 12 13  1  6
 13  6  1  0
 14 15  2  0
 16 17  1  0
 17 18  2  0
 18 19  1  0
 20 19  2  0
 20 21  1  0
 22 21  1  1
 22 24  1  0
 23 22  1  0
 23 14  1  0
 24 25  2  0
 24 28  1  0
 26 20  1  0
 27 17  1  0
 27 26  2  0
M  END
$$$$
