DTY.pdb
     RDKit          3D

 28 28  0  0  1  0  0  0  0  0999 V2000
   11.4894  -14.5832   18.4837 N   0  0  0  0  0  0  0  0  0  0  0  0
   11.8156  -15.2444   19.7334 C   0  0  1  0  0  0  0  0  0  0  0  0
   13.2293  -14.8873   20.1220 C   0  0  0  0  0  0  0  0  0  0  0  0
   14.1463  -15.7476   19.3269 C   0  0  0  0  0  0  0  0  0  0  0  0
   13.7036  -16.5294   18.4222 O   0  0  0  0  0  0  0  0  0  0  0  0
   10.8311  -14.8095   20.7556 C   0  0  0  0  0  0  0  0  0  0  0  0
   10.8581  -13.6339   21.2426 O   0  0  0  0  0  0  0  0  0  0  0  0
   15.5221  -15.7432   19.5281 O   0  0  0  0  0  0  0  0  0  0  0  0
    7.2131  -14.5775   20.3081 C   0  0  0  0  0  0  0  0  0  0  0  0
    7.4597  -15.4590   21.5087 C   0  0  1  0  0  0  0  0  0  0  0  0
    7.3227  -16.7667   21.1140 O   0  0  0  0  0  0  0  0  0  0  0  0
    8.7933  -15.1490   22.1651 C   0  0  2  0  0  0  0  0  0  0  0  0
    9.8065  -15.6608   21.2537 N   0  0  0  0  0  0  0  0  0  0  0  0
    8.8457  -15.8473   23.4785 C   0  0  0  0  0  0  0  0  0  0  0  0
    9.7539  -16.6802   23.7374 O   0  0  0  0  0  0  0  0  0  0  0  0
    7.1568   -9.9627   26.8728 O   0  0  0  0  0  0  0  0  0  0  0  0
    7.1235  -11.3651   26.8341 C   0  0  0  0  0  0  0  0  0  0  0  0
    5.9248  -11.9821   26.5537 C   0  0  0  0  0  0  0  0  0  0  0  0
    5.8765  -13.3562   26.5121 C   0  0  0  0  0  0  0  0  0  0  0  0
    6.9963  -14.1635   26.7429 C   0  0  0  0  0  0  0  0  0  0  0  0
    6.8897  -15.6354   26.7136 C   0  0  0  0  0  0  0  0  0  0  0  0
    7.9132  -16.2170   25.8038 C   0  0  2  0  0  0  0  0  0  0  0  0
    7.8778  -15.6016   24.4849 N   0  0  0  0  0  0  0  0  0  0  0  0
    7.6996  -17.6623   25.6385 C   0  0  0  0  0  0  0  0  0  0  0  0
    7.9121  -18.4252   26.6239 O   0  0  0  0  0  0  0  0  0  0  0  0
    8.1656  -13.4879   27.0184 C   0  0  0  0  0  0  0  0  0  0  0  0
    8.2478  -12.1075   27.0676 C   0  0  0  0  0  0  0  0  0  0  0  0
    7.2739  -18.2884   24.4776 O   0  0  0  0  0  0  0  0  0  0  0  0
  2  1  1  6
  2  3  1  0
  3  4  1  0
  4  8  1  0
  5  4  2  0
  6  2  1  0
  7  6  2  0
 10  9  1  6
 10 11  1  0
 10 12  1  0
 12 14  1  0
 12 13  1  6
 13  6  1  0
 14 15  2  0
 16 17  1  0
 17 18  2  0
 18 19  1  0
 20 19  2  0
 20 21  1  0
 22 21  1  1
 22 24  1  0
 23 22  1  0
 23 14  1  0
 24 25  2  0
 24 28  1  0
 26 20  1  0
 27 17  1  0
 27 26  2  0
M  END
$$$$
