FGL.pdb
     RDKit          3D

 24 24  0  0  1  0  0  0  0  0999 V2000
   22.6684  -20.8233  -13.8653 N   0  0  0  0  0  0  0  0  0  0  0  0
   23.7124  -20.0386  -13.2885 C   0  0  1  0  0  0  0  0  0  0  0  0
   23.4133  -18.5444  -13.3639 C   0  0  0  0  0  0  0  0  0  0  0  0
   23.3464  -18.0647  -14.7669 C   0  0  0  0  0  0  0  0  0  0  0  0
   22.1909  -17.7718  -15.4425 C   0  0  0  0  0  0  0  0  0  0  0  0
   22.1892  -17.3258  -16.7591 C   0  0  0  0  0  0  0  0  0  0  0  0
   23.3857  -17.1715  -17.4102 C   0  0  0  0  0  0  0  0  0  0  0  0
   24.5555  -17.4614  -16.7458 C   0  0  0  0  0  0  0  0  0  0  0  0
   24.5420  -17.9045  -15.4354 C   0  0  0  0  0  0  0  0  0  0  0  0
   23.9161  -20.4135  -11.8875 C   0  0  0  0  0  0  0  0  0  0  0  0
   23.0316  -20.2312  -11.0129 O   0  0  0  0  0  0  0  0  0  0  0  0
   25.1452  -21.0159  -11.4238 N   0  0  0  0  0  0  0  0  0  0  0  0
   25.2639  -21.3942  -10.0439 C   0  0  0  0  0  0  0  0  0  0  0  0
   26.5205  -21.0251   -9.3925 C   0  0  0  0  0  0  0  0  0  0  0  0
   27.5771  -21.6703   -9.7330 O   0  0  0  0  0  0  0  0  0  0  0  0
   28.5033  -17.8755   -4.3860 C   0  0  0  0  0  0  0  0  0  0  0  0
   28.5289  -19.1611   -5.1970 C   0  0  2  0  0  0  0  0  0  0  0  0
   29.9336  -19.6302   -5.3504 C   0  0  0  0  0  0  0  0  0  0  0  0
   27.7717  -19.0346   -6.4646 C   0  0  0  0  0  0  0  0  0  0  0  0
   27.5485  -20.2856   -7.2425 C   0  0  2  0  0  0  0  0  0  0  0  0
   26.6978  -20.0195   -8.4143 N   0  0  0  0  0  0  0  0  0  0  0  0
   26.8247  -21.3061   -6.4525 C   0  0  0  0  0  0  0  0  0  0  0  0
   25.4516  -21.4858   -6.5247 O   0  0  0  0  0  0  0  0  0  0  0  0
   27.4602  -22.0545   -5.6752 O   0  0  0  0  0  0  0  0  0  0  0  0
  2  1  1  1
  3  2  1  0
  4  3  1  0
  5  4  2  0
  6  5  1  0
  7  8  1  0
  7  6  2  0
  8  9  2  0
  9  4  1  0
 10  2  1  0
 10 12  1  0
 11 10  2  0
 13 12  1  0
 13 14  1  0
 14 21  1  0
 15 14  2  0
 17 16  1  6
 17 19  1  0
 18 17  1  0
 20 19  1  1
 20 22  1  0
 21 20  1  0
 22 24  2  0
 22 23  1  0
M  END
$$$$
