FGL.pdb
     RDKit          3D

 24 24  0  0  1  0  0  0  0  0999 V2000
   23.1294  -21.0778  -14.6882 N   0  0  0  0  0  0  0  0  0  0  0  0
   24.2716  -20.3104  -15.0688 C   0  0  1  0  0  0  0  0  0  0  0  0
   23.8805  -18.9855  -15.7165 C   0  0  0  0  0  0  0  0  0  0  0  0
   23.1607  -19.1888  -16.9986 C   0  0  0  0  0  0  0  0  0  0  0  0
   23.7393  -19.6160  -18.1648 C   0  0  0  0  0  0  0  0  0  0  0  0
   23.0138  -19.7882  -19.3381 C   0  0  0  0  0  0  0  0  0  0  0  0
   21.6690  -19.5218  -19.3331 C   0  0  0  0  0  0  0  0  0  0  0  0
   21.0726  -19.0919  -18.1699 C   0  0  0  0  0  0  0  0  0  0  0  0
   21.8072  -18.9250  -17.0096 C   0  0  0  0  0  0  0  0  0  0  0  0
   25.1147  -20.0398  -13.9023 C   0  0  0  0  0  0  0  0  0  0  0  0
   24.7301  -19.3050  -12.9575 O   0  0  0  0  0  0  0  0  0  0  0  0
   26.4396  -20.6003  -13.7647 N   0  0  0  0  0  0  0  0  0  0  0  0
   27.1966  -20.3275  -12.5757 C   0  0  0  0  0  0  0  0  0  0  0  0
   26.6522  -20.8840  -11.3374 C   0  0  0  0  0  0  0  0  0  0  0  0
   26.0876  -22.0354  -11.4023 O   0  0  0  0  0  0  0  0  0  0  0  0
   29.0624  -21.0469   -7.7124 C   0  0  0  0  0  0  0  0  0  0  0  0
   28.0417  -19.9218   -7.6535 C   0  0  2  0  0  0  0  0  0  0  0  0
   28.3857  -18.9893   -6.5448 C   0  0  0  0  0  0  0  0  0  0  0  0
   26.6509  -20.4327   -7.6298 C   0  0  0  0  0  0  0  0  0  0  0  0
   26.1199  -20.9974   -8.9022 C   0  0  2  0  0  0  0  0  0  0  0  0
   26.6819  -20.2805  -10.0589 N   0  0  0  0  0  0  0  0  0  0  0  0
   24.6534  -20.8333   -9.0103 C   0  0  0  0  0  0  0  0  0  0  0  0
   24.0487  -20.0504   -9.9820 O   0  0  0  0  0  0  0  0  0  0  0  0
   23.9022  -21.4191   -8.1975 O   0  0  0  0  0  0  0  0  0  0  0  0
  2  1  1  1
  3  2  1  0
  4  3  1  0
  5  4  2  0
  6  5  1  0
  7  8  1  0
  7  6  2  0
  8  9  2  0
  9  4  1  0
 10  2  1  0
 10 12  1  0
 11 10  2  0
 13 12  1  0
 13 14  1  0
 14 21  1  0
 15 14  2  0
 17 16  1  1
 17 19  1  0
 18 17  1  0
 20 19  1  1
 20 22  1  0
 21 20  1  0
 22 24  2  0
 22 23  1  0
M  END
$$$$
