FGL.pdb
     RDKit          3D

 24 24  0  0  1  0  0  0  0  0999 V2000
   25.6041  -20.7846   -7.3465 N   0  0  0  0  0  0  0  0  0  0  0  0
   26.5777  -20.1814   -8.1990 C   0  0  1  0  0  0  0  0  0  0  0  0
   28.0022  -20.5122   -7.7641 C   0  0  0  0  0  0  0  0  0  0  0  0
   28.2990  -19.9945   -6.4051 C   0  0  0  0  0  0  0  0  0  0  0  0
   28.0514  -18.7155   -5.9807 C   0  0  0  0  0  0  0  0  0  0  0  0
   28.3518  -18.2854   -4.6932 C   0  0  0  0  0  0  0  0  0  0  0  0
   28.9168  -19.1703   -3.8118 C   0  0  0  0  0  0  0  0  0  0  0  0
   29.1718  -20.4588   -4.2224 C   0  0  0  0  0  0  0  0  0  0  0  0
   28.8676  -20.8728   -5.5068 C   0  0  0  0  0  0  0  0  0  0  0  0
   26.3869  -20.6238   -9.5820 C   0  0  0  0  0  0  0  0  0  0  0  0
   27.1450  -21.4685  -10.1226 O   0  0  0  0  0  0  0  0  0  0  0  0
   25.3164  -20.1175  -10.4104 N   0  0  0  0  0  0  0  0  0  0  0  0
   24.9318  -20.8491  -11.5842 C   0  0  0  0  0  0  0  0  0  0  0  0
   23.7787  -20.3185  -12.3111 C   0  0  0  0  0  0  0  0  0  0  0  0
   23.1880  -19.2908  -11.8176 O   0  0  0  0  0  0  0  0  0  0  0  0
   22.5182  -18.3712  -16.3329 C   0  0  0  0  0  0  0  0  0  0  0  0
   22.6929  -19.8784  -16.4282 C   0  0  2  0  0  0  0  0  0  0  0  0
   22.5693  -20.3095  -17.8480 C   0  0  0  0  0  0  0  0  0  0  0  0
   21.8150  -20.6015  -15.4783 C   0  0  0  0  0  0  0  0  0  0  0  0
   21.9736  -20.2746  -14.0333 C   0  0  2  0  0  0  0  0  0  0  0  0
   23.2378  -20.8240  -13.5159 N   0  0  0  0  0  0  0  0  0  0  0  0
   20.9094  -20.8874  -13.2078 C   0  0  0  0  0  0  0  0  0  0  0  0
   19.6748  -20.2913  -12.9999 O   0  0  0  0  0  0  0  0  0  0  0  0
   21.1096  -21.9960  -12.6610 O   0  0  0  0  0  0  0  0  0  0  0  0
  2  1  1  1
  3  2  1  0
  4  3  1  0
  5  4  2  0
  6  5  1  0
  7  8  1  0
  7  6  2  0
  8  9  2  0
  9  4  1  0
 10  2  1  0
 10 12  1  0
 11 10  2  0
 13 12  1  0
 13 14  1  0
 14 21  1  0
 15 14  2  0
 17 16  1  6
 17 19  1  0
 18 17  1  0
 20 19  1  6
 20 22  1  0
 21 20  1  0
 22 24  2  0
 22 23  1  0
M  END
$$$$
