FGL.pdb
     RDKit          3D

 24 24  0  0  1  0  0  0  0  0999 V2000
   35.7014  -36.7418   -4.3523 N   0  0  0  0  0  0  0  0  0  0  0  0
   34.4863  -35.9953   -4.2831 C   0  0  1  0  0  0  0  0  0  0  0  0
   34.2233  -35.2105   -5.5647 C   0  0  0  0  0  0  0  0  0  0  0  0
   32.8207  -34.7308   -5.6407 C   0  0  0  0  0  0  0  0  0  0  0  0
   31.8714  -35.2135   -6.5028 C   0  0  0  0  0  0  0  0  0  0  0  0
   30.5704  -34.7242   -6.5298 C   0  0  0  0  0  0  0  0  0  0  0  0
   30.2194  -33.7215   -5.6634 C   0  0  0  0  0  0  0  0  0  0  0  0
   31.1612  -33.2257   -4.7911 C   0  0  0  0  0  0  0  0  0  0  0  0
   32.4522  -33.7222   -4.7754 C   0  0  0  0  0  0  0  0  0  0  0  0
   33.3537  -36.8889   -4.0308 C   0  0  0  0  0  0  0  0  0  0  0  0
   33.4902  -38.1370   -3.9673 O   0  0  0  0  0  0  0  0  0  0  0  0
   32.0102  -36.3920   -3.8391 N   0  0  0  0  0  0  0  0  0  0  0  0
   30.9635  -37.3135   -3.4985 C   0  0  0  0  0  0  0  0  0  0  0  0
   30.0884  -36.9000   -2.4018 C   0  0  0  0  0  0  0  0  0  0  0  0
   29.2677  -35.9388   -2.6279 O   0  0  0  0  0  0  0  0  0  0  0  0
   26.4103  -38.5679   -1.1178 C   0  0  0  0  0  0  0  0  0  0  0  0
   27.6227  -39.2410   -0.4948 C   0  0  2  0  0  0  0  0  0  0  0  0
   27.2198  -40.5402    0.1108 C   0  0  0  0  0  0  0  0  0  0  0  0
   28.3588  -38.3310    0.4141 C   0  0  0  0  0  0  0  0  0  0  0  0
   28.9450  -37.1032   -0.1933 C   0  0  2  0  0  0  0  0  0  0  0  0
   30.0497  -37.4538   -1.1012 N   0  0  0  0  0  0  0  0  0  0  0  0
   29.5400  -36.2118    0.8270 C   0  0  0  0  0  0  0  0  0  0  0  0
   28.7815  -35.4789    1.7271 O   0  0  0  0  0  0  0  0  0  0  0  0
   30.7849  -36.0975    0.9005 O   0  0  0  0  0  0  0  0  0  0  0  0
  2  1  1  6
  3  2  1  0
  4  3  1  0
  5  4  2  0
  6  5  1  0
  7  8  1  0
  7  6  2  0
  8  9  2  0
  9  4  1  0
 10  2  1  0
 10 12  1  0
 11 10  2  0
 13 12  1  0
 13 14  1  0
 14 21  1  0
 15 14  2  0
 17 16  1  1
 17 19  1  0
 18 17  1  0
 20 19  1  1
 20 22  1  0
 21 20  1  0
 22 24  2  0
 22 23  1  0
M  END
$$$$
