FGL.pdb
     RDKit          3D

 24 24  0  0  1  0  0  0  0  0999 V2000
   25.2407  -20.4718  -15.9558 N   0  0  0  0  0  0  0  0  0  0  0  0
   25.3251  -20.1345  -14.5710 C   0  0  1  0  0  0  0  0  0  0  0  0
   24.0104  -20.3875  -13.8395 C   0  0  0  0  0  0  0  0  0  0  0  0
   22.8826  -19.6472  -14.4585 C   0  0  0  0  0  0  0  0  0  0  0  0
   22.7268  -18.2862  -14.4297 C   0  0  0  0  0  0  0  0  0  0  0  0
   21.6473  -17.6462  -15.0277 C   0  0  0  0  0  0  0  0  0  0  0  0
   20.7006  -18.4005  -15.6712 C   0  0  0  0  0  0  0  0  0  0  0  0
   20.8424  -19.7688  -15.7091 C   0  0  0  0  0  0  0  0  0  0  0  0
   21.9220  -20.3921  -15.1096 C   0  0  0  0  0  0  0  0  0  0  0  0
   26.3872  -20.9071  -13.9230 C   0  0  0  0  0  0  0  0  0  0  0  0
   27.1633  -21.6511  -14.5746 O   0  0  0  0  0  0  0  0  0  0  0  0
   26.6091  -20.8620  -12.4956 N   0  0  0  0  0  0  0  0  0  0  0  0
   27.7435  -21.5446  -11.9402 C   0  0  0  0  0  0  0  0  0  0  0  0
   28.0177  -21.2720  -10.5296 C   0  0  0  0  0  0  0  0  0  0  0  0
   28.9838  -21.9135   -9.9783 O   0  0  0  0  0  0  0  0  0  0  0  0
   29.2341  -20.4874   -6.7550 C   0  0  0  0  0  0  0  0  0  0  0  0
   28.2776  -19.3711   -7.1426 C   0  0  2  0  0  0  0  0  0  0  0  0
   28.3983  -18.2473   -6.1734 C   0  0  0  0  0  0  0  0  0  0  0  0
   26.8975  -19.8684   -7.3522 C   0  0  0  0  0  0  0  0  0  0  0  0
   26.6961  -20.8491   -8.4558 C   0  0  2  0  0  0  0  0  0  0  0  0
   27.3227  -20.3647   -9.6969 N   0  0  0  0  0  0  0  0  0  0  0  0
   25.2639  -21.0292   -8.7806 C   0  0  0  0  0  0  0  0  0  0  0  0
   24.7059  -20.6356   -9.9875 O   0  0  0  0  0  0  0  0  0  0  0  0
   24.4997  -21.5596   -7.9422 O   0  0  0  0  0  0  0  0  0  0  0  0
  2  1  1  6
  3  2  1  0
  4  3  1  0
  5  4  2  0
  6  5  1  0
  7  8  1  0
  7  6  2  0
  8  9  2  0
  9  4  1  0
 10  2  1  0
 10 12  1  0
 11 10  2  0
 13 12  1  0
 13 14  1  0
 14 21  1  0
 15 14  2  0
 17 16  1  1
 17 19  1  0
 18 17  1  0
 20 19  1  1
 20 22  1  0
 21 20  1  0
 22 24  2  0
 22 23  1  0
M  END
$$$$
