FGL.pdb
     RDKit          3D

 24 24  0  0  1  0  0  0  0  0999 V2000
   23.0586  -21.4009  -12.2296 N   0  0  0  0  0  0  0  0  0  0  0  0
   24.0558  -20.6594  -12.9326 C   0  0  1  0  0  0  0  0  0  0  0  0
   23.4520  -19.5234  -13.7527 C   0  0  0  0  0  0  0  0  0  0  0  0
   22.4992  -20.0254  -14.7741 C   0  0  0  0  0  0  0  0  0  0  0  0
   22.8453  -20.7637  -15.8752 C   0  0  0  0  0  0  0  0  0  0  0  0
   21.9077  -21.2072  -16.8008 C   0  0  0  0  0  0  0  0  0  0  0  0
   20.5863  -20.8968  -16.6091 C   0  0  0  0  0  0  0  0  0  0  0  0
   20.2220  -20.1559  -15.5082 C   0  0  0  0  0  0  0  0  0  0  0  0
   21.1661  -19.7213  -14.5952 C   0  0  0  0  0  0  0  0  0  0  0  0
   25.0322  -20.1025  -11.9937 C   0  0  0  0  0  0  0  0  0  0  0  0
   26.0897  -19.5456  -12.3834 O   0  0  0  0  0  0  0  0  0  0  0  0
   24.8406  -20.1583  -10.5623 N   0  0  0  0  0  0  0  0  0  0  0  0
   25.7961  -19.5203   -9.7015 C   0  0  0  0  0  0  0  0  0  0  0  0
   26.3198  -20.3472   -8.6146 C   0  0  0  0  0  0  0  0  0  0  0  0
   26.0512  -21.6026   -8.6419 O   0  0  0  0  0  0  0  0  0  0  0  0
   28.1617  -18.1496   -5.4862 C   0  0  0  0  0  0  0  0  0  0  0  0
   28.9654  -19.3610   -5.0416 C   0  0  2  0  0  0  0  0  0  0  0  0
   30.3058  -18.9256   -4.5613 C   0  0  0  0  0  0  0  0  0  0  0  0
   28.9879  -20.4236   -6.0742 C   0  0  0  0  0  0  0  0  0  0  0  0
   27.6695  -20.8908   -6.5875 C   0  0  2  0  0  0  0  0  0  0  0  0
   27.1011  -19.9053   -7.5219 N   0  0  0  0  0  0  0  0  0  0  0  0
   26.6717  -21.0287   -5.5036 C   0  0  0  0  0  0  0  0  0  0  0  0
   25.5061  -20.2796   -5.4478 O   0  0  0  0  0  0  0  0  0  0  0  0
   26.8668  -21.8539   -4.5822 O   0  0  0  0  0  0  0  0  0  0  0  0
  2  1  1  1
  3  2  1  0
  4  3  1  0
  5  4  2  0
  6  5  1  0
  7  8  1  0
  7  6  2  0
  8  9  2  0
  9  4  1  0
 10  2  1  0
 10 12  1  0
 11 10  2  0
 13 12  1  0
 13 14  1  0
 14 21  1  0
 15 14  2  0
 17 16  1  6
 17 19  1  0
 18 17  1  0
 20 19  1  1
 20 22  1  0
 21 20  1  0
 22 24  2  0
 22 23  1  0
M  END
$$$$
