FGL.pdb
     RDKit          3D

 24 24  0  0  1  0  0  0  0  0999 V2000
   17.4826   -4.1980  -20.1527 N   0  0  0  0  0  0  0  0  0  0  0  0
   18.5037   -3.2440  -19.8597 C   0  0  1  0  0  0  0  0  0  0  0  0
   18.0660   -2.2480  -18.7902 C   0  0  0  0  0  0  0  0  0  0  0  0
   16.9584   -1.3805  -19.2635 C   0  0  0  0  0  0  0  0  0  0  0  0
   15.6269   -1.6167  -19.0430 C   0  0  0  0  0  0  0  0  0  0  0  0
   14.6310   -0.7677  -19.5121 C   0  0  0  0  0  0  0  0  0  0  0  0
   14.9895    0.3488  -20.2222 C   0  0  0  0  0  0  0  0  0  0  0  0
   16.3227    0.6005  -20.4522 C   0  0  0  0  0  0  0  0  0  0  0  0
   17.3030   -0.2534  -19.9794 C   0  0  0  0  0  0  0  0  0  0  0  0
   19.7204   -3.9232  -19.4088 C   0  0  0  0  0  0  0  0  0  0  0  0
   20.7937   -3.3019  -19.2029 O   0  0  0  0  0  0  0  0  0  0  0  0
   19.7626   -5.3483  -19.1725 N   0  0  0  0  0  0  0  0  0  0  0  0
   20.9560   -5.9343  -18.6307 C   0  0  0  0  0  0  0  0  0  0  0  0
   20.7691   -6.7666  -17.4424 C   0  0  0  0  0  0  0  0  0  0  0  0
   19.5697   -6.9256  -17.0122 O   0  0  0  0  0  0  0  0  0  0  0  0
   23.4490  -11.2590  -14.1325 C   0  0  0  0  0  0  0  0  0  0  0  0
   22.2476  -10.3472  -14.3232 C   0  0  2  0  0  0  0  0  0  0  0  0
   21.0052  -11.1638  -14.4045 C   0  0  0  0  0  0  0  0  0  0  0  0
   22.4430   -9.3959  -15.4425 C   0  0  0  0  0  0  0  0  0  0  0  0
   21.4125   -8.3328  -15.6096 C   0  0  2  0  0  0  0  0  0  0  0  0
   21.7824   -7.4238  -16.7070 N   0  0  0  0  0  0  0  0  0  0  0  0
   21.3016   -7.4767  -14.4079 C   0  0  0  0  0  0  0  0  0  0  0  0
   20.4376   -7.7523  -13.3590 O   0  0  0  0  0  0  0  0  0  0  0  0
   22.0112   -6.4495  -14.3106 O   0  0  0  0  0  0  0  0  0  0  0  0
  2  1  1  1
  3  2  1  0
  4  3  1  0
  5  4  2  0
  6  5  1  0
  7  8  1  0
  7  6  2  0
  8  9  2  0
  9  4  1  0
 10  2  1  0
 10 12  1  0
 11 10  2  0
 13 12  1  0
 13 14  1  0
 14 21  1  0
 15 14  2  0
 17 16  1  6
 17 19  1  0
 18 17  1  0
 20 19  1  1
 20 22  1  0
 21 20  1  0
 22 24  2  0
 22 23  1  0
M  END
$$$$
