ERW.pdb
     RDKit          3D

 35 36  0  0  1  0  0  0  0  0999 V2000
   29.9056  -22.7143  -18.6447 N   0  0  0  0  0  0  0  0  0  0  0  0
   29.2376  -21.4630  -18.3879 C   0  0  1  0  0  0  0  0  0  0  0  0
   28.6320  -20.8908  -19.6462 C   0  0  0  0  0  0  0  0  0  0  0  0
   29.3429  -19.6258  -20.0744 C   0  0  0  0  0  0  0  0  0  0  0  0
   28.7810  -19.0440  -21.2939 C   0  0  0  0  0  0  0  0  0  0  0  0
   27.7446  -19.5227  -21.8497 O   0  0  0  0  0  0  0  0  0  0  0  0
   28.1029  -21.6301  -17.4171 C   0  0  0  0  0  0  0  0  0  0  0  0
   27.1654  -22.4684  -17.6323 O   0  0  0  0  0  0  0  0  0  0  0  0
   29.3572  -17.9364  -21.8997 O   0  0  0  0  0  0  0  0  0  0  0  0
   25.9834  -20.4424   -9.3670 N   0  0  0  0  0  0  0  0  0  0  0  0
   24.8778  -20.8802  -10.1332 C   0  0  0  0  0  0  0  0  0  0  0  0
   23.6506  -20.6254   -9.8102 N   0  0  0  0  0  0  0  0  0  0  0  0
   25.0488  -21.6504  -11.3267 N   0  0  0  0  0  0  0  0  0  0  0  0
   26.1258  -21.4475  -12.2102 C   0  0  0  0  0  0  0  0  0  0  0  0
   26.1328  -20.1658  -12.9976 C   0  0  0  0  0  0  0  0  0  0  0  0
   27.2957  -20.2811  -13.9589 C   0  0  0  0  0  0  0  0  0  0  0  0
   26.9592  -20.9621  -15.2544 C   0  0  2  0  0  0  0  0  0  0  0  0
   28.0286  -20.8677  -16.2256 N   0  0  0  0  0  0  0  0  0  0  0  0
   25.7337  -20.3121  -15.8131 C   0  0  0  0  0  0  0  0  0  0  0  0
   25.7368  -19.0748  -16.1341 O   0  0  0  0  0  0  0  0  0  0  0  0
   22.8855  -20.9652  -10.4286 N   0  0  0  0  0  0  0  0  0  0  0  0
   24.5134  -21.0006  -16.0169 C   0  0  2  0  0  0  0  0  0  0  0  0
   23.2905  -20.3090  -16.3892 C   0  0  0  0  0  0  0  0  0  0  0  0
   22.9359  -20.6525  -17.7864 C   0  0  0  0  0  0  0  0  0  0  0  0
   22.4203  -19.5683  -18.6231 C   0  0  0  0  0  0  0  0  0  0  0  0
   23.0142  -18.3997  -18.9894 N   0  0  0  0  0  0  0  0  0  0  0  0
   22.1373  -17.7427  -19.7778 C   0  0  0  0  0  0  0  0  0  0  0  0
   21.0098  -18.4592  -19.9182 C   0  0  0  0  0  0  0  0  0  0  0  0
   19.8076  -18.2701  -20.5976 C   0  0  0  0  0  0  0  0  0  0  0  0
   18.8040  -19.2099  -20.5506 C   0  0  0  0  0  0  0  0  0  0  0  0
   18.9529  -20.3777  -19.8275 C   0  0  0  0  0  0  0  0  0  0  0  0
   20.1418  -20.5814  -19.1470 C   0  0  0  0  0  0  0  0  0  0  0  0
   21.1476  -19.6248  -19.2017 C   0  0  0  0  0  0  0  0  0  0  0  0
   22.2137  -20.5460  -15.3932 O   0  0  0  0  0  0  0  0  0  0  0  0
   22.3688  -21.3910  -14.4659 O   0  0  0  0  0  0  0  0  0  0  0  0
  2  3  1  0
  2  1  1  6
  4  3  1  0
  5  4  1  0
  5  6  2  0
  7  2  1  0
  8  7  2  0
  9  5  1  0
 10 11  1  0
 11 12  2  0
 11 13  1  0
 13 14  1  0
 15 14  1  0
 16 15  1  0
 17 16  1  1
 17 18  1  0
 18  7  1  0
 19 21  1  0
 19 17  1  0
 20 19  2  0
 22 21  1  0
 22 23  1  6
 23 24  1  0
 24 25  2  0
 24 32  1  0
 25 26  1  0
 26 27  1  0
 27 28  2  0
 29 28  1  0
 30 29  2  0
 31 32  2  0
 31 30  1  0
 32 27  1  0
 33 22  1  0
 34 33  2  0
 35 33  1  0
M  END
$$$$
