ERW.pdb
     RDKit          3D

 35 36  0  0  1  0  0  0  0  0999 V2000
   25.5165  -21.3004  -17.0504 N   0  0  0  0  0  0  0  0  0  0  0  0
   26.3288  -21.5295  -15.8818 C   0  0  1  0  0  0  0  0  0  0  0  0
   27.7961  -21.3461  -16.1834 C   0  0  0  0  0  0  0  0  0  0  0  0
   28.2364  -22.2239  -17.3344 C   0  0  0  0  0  0  0  0  0  0  0  0
   29.6541  -22.0642  -17.6599 C   0  0  0  0  0  0  0  0  0  0  0  0
   30.5382  -22.8597  -17.2153 O   0  0  0  0  0  0  0  0  0  0  0  0
   26.0040  -20.5581  -14.7824 C   0  0  0  0  0  0  0  0  0  0  0  0
   25.7795  -19.3271  -15.0315 O   0  0  0  0  0  0  0  0  0  0  0  0
   30.0980  -21.0323  -18.4748 O   0  0  0  0  0  0  0  0  0  0  0  0
   19.4020  -19.3650  -12.7082 N   0  0  0  0  0  0  0  0  0  0  0  0
   20.1276  -19.5779  -13.9038 C   0  0  0  0  0  0  0  0  0  0  0  0
   19.7526  -19.1073  -15.0497 N   0  0  0  0  0  0  0  0  0  0  0  0
   21.3352  -20.3448  -13.9231 N   0  0  0  0  0  0  0  0  0  0  0  0
   21.6426  -21.2970  -12.9330 C   0  0  0  0  0  0  0  0  0  0  0  0
   23.0992  -21.5595  -12.6648 C   0  0  0  0  0  0  0  0  0  0  0  0
   23.7560  -20.1979  -12.5972 C   0  0  0  0  0  0  0  0  0  0  0  0
   25.2420  -20.2402  -12.3846 C   0  0  2  0  0  0  0  0  0  0  0  0
   25.9319  -20.9682  -13.4285 N   0  0  0  0  0  0  0  0  0  0  0  0
   25.5018  -20.9067  -11.0713 C   0  0  0  0  0  0  0  0  0  0  0  0
   25.2347  -22.1451  -10.9009 O   0  0  0  0  0  0  0  0  0  0  0  0
   20.3220  -19.3225  -15.8940 N   0  0  0  0  0  0  0  0  0  0  0  0
   26.0432  -20.2313   -9.9509 C   0  0  2  0  0  0  0  0  0  0  0  0
   26.3243  -20.9154   -8.6996 C   0  0  0  0  0  0  0  0  0  0  0  0
   27.2970  -20.1221   -7.9120 C   0  0  0  0  0  0  0  0  0  0  0  0
   27.6906  -20.6626   -6.6103 C   0  0  0  0  0  0  0  0  0  0  0  0
   27.6448  -21.9445   -6.1552 N   0  0  0  0  0  0  0  0  0  0  0  0
   28.1314  -21.9328   -4.8961 C   0  0  0  0  0  0  0  0  0  0  0  0
   28.4803  -20.6846   -4.5432 C   0  0  0  0  0  0  0  0  0  0  0  0
   29.0181  -20.1057   -3.3950 C   0  0  0  0  0  0  0  0  0  0  0  0
   29.2725  -18.7553   -3.3267 C   0  0  0  0  0  0  0  0  0  0  0  0
   29.0041  -17.9234   -4.3966 C   0  0  0  0  0  0  0  0  0  0  0  0
   28.4700  -18.4829   -5.5454 C   0  0  0  0  0  0  0  0  0  0  0  0
   28.2172  -19.8476   -5.6022 C   0  0  0  0  0  0  0  0  0  0  0  0
   25.0701  -21.2607   -7.9816 O   0  0  0  0  0  0  0  0  0  0  0  0
   24.0538  -20.5136   -8.0650 O   0  0  0  0  0  0  0  0  0  0  0  0
  2  3  1  0
  2  1  1  6
  4  3  1  0
  5  4  1  0
  5  6  2  0
  7  2  1  0
  8  7  2  0
  9  5  1  0
 10 11  1  0
 11 12  2  0
 11 13  1  0
 13 14  1  0
 15 14  1  0
 16 15  1  0
 17 16  1  6
 17 18  1  0
 18  7  1  0
 19 21  1  0
 19 17  1  0
 20 19  2  0
 22 21  1  0
 22 23  1  6
 23 24  1  0
 24 25  2  0
 24 32  1  0
 25 26  1  0
 26 27  1  0
 27 28  2  0
 29 28  1  0
 30 29  2  0
 31 32  2  0
 31 30  1  0
 32 27  1  0
 33 22  1  0
 34 33  2  0
 35 33  1  0
M  END
$$$$
