ERW.pdb
     RDKit          3D

 35 36  0  0  1  0  0  0  0  0999 V2000
   18.9245  -20.2310  -15.0281 N   0  0  0  0  0  0  0  0  0  0  0  0
   20.2346  -19.6351  -15.1089 C   0  0  1  0  0  0  0  0  0  0  0  0
   20.3723  -18.4708  -14.1585 C   0  0  0  0  0  0  0  0  0  0  0  0
   19.7316  -17.2210  -14.7211 C   0  0  0  0  0  0  0  0  0  0  0  0
   18.3288  -17.0772  -14.3303 C   0  0  0  0  0  0  0  0  0  0  0  0
   17.4067  -16.9153  -15.1879 O   0  0  0  0  0  0  0  0  0  0  0  0
   21.3117  -20.6122  -14.7310 C   0  0  0  0  0  0  0  0  0  0  0  0
   21.2315  -21.3058  -13.6632 O   0  0  0  0  0  0  0  0  0  0  0  0
   17.9410  -17.1136  -12.9983 O   0  0  0  0  0  0  0  0  0  0  0  0
   26.9677  -26.6718  -15.7896 N   0  0  0  0  0  0  0  0  0  0  0  0
   26.7740  -26.2177  -17.1153 C   0  0  0  0  0  0  0  0  0  0  0  0
   26.9637  -26.9681  -18.1527 N   0  0  0  0  0  0  0  0  0  0  0  0
   26.3577  -24.8782  -17.3971 N   0  0  0  0  0  0  0  0  0  0  0  0
   25.7656  -24.0497  -16.4253 C   0  0  0  0  0  0  0  0  0  0  0  0
   24.2724  -23.8792  -16.4893 C   0  0  0  0  0  0  0  0  0  0  0  0
   24.0324  -22.3867  -16.5586 C   0  0  0  0  0  0  0  0  0  0  0  0
   23.4856  -21.7910  -15.2931 C   0  0  2  0  0  0  0  0  0  0  0  0
   22.4562  -20.8044  -15.5432 N   0  0  0  0  0  0  0  0  0  0  0  0
   24.6169  -21.1414  -14.5620 C   0  0  0  0  0  0  0  0  0  0  0  0
   25.0849  -20.0157  -14.9464 O   0  0  0  0  0  0  0  0  0  0  0  0
   26.7858  -26.5739  -19.0994 N   0  0  0  0  0  0  0  0  0  0  0  0
   25.2376  -21.7132  -13.4251 C   0  0  2  0  0  0  0  0  0  0  0  0
   26.4341  -21.1415  -12.8302 C   0  0  0  0  0  0  0  0  0  0  0  0
   26.5164  -21.5426  -11.4061 C   0  0  0  0  0  0  0  0  0  0  0  0
   27.7707  -21.2544  -10.7097 C   0  0  0  0  0  0  0  0  0  0  0  0
   29.0494  -21.3017  -11.1736 N   0  0  0  0  0  0  0  0  0  0  0  0
   29.8524  -20.9344  -10.1525 C   0  0  0  0  0  0  0  0  0  0  0  0
   29.1206  -20.6593   -9.0603 C   0  0  0  0  0  0  0  0  0  0  0  0
   29.4160  -20.2488   -7.7614 C   0  0  0  0  0  0  0  0  0  0  0  0
   28.4221  -20.0447   -6.8323 C   0  0  0  0  0  0  0  0  0  0  0  0
   27.0928  -20.2389   -7.1547 C   0  0  0  0  0  0  0  0  0  0  0  0
   26.7820  -20.6464   -8.4414 C   0  0  0  0  0  0  0  0  0  0  0  0
   27.7944  -20.8495   -9.3706 C   0  0  0  0  0  0  0  0  0  0  0  0
   27.6400  -21.4547  -13.6400 O   0  0  0  0  0  0  0  0  0  0  0  0
   27.7953  -22.6026  -14.1462 O   0  0  0  0  0  0  0  0  0  0  0  0
  2  3  1  0
  2  1  1  1
  4  3  1  0
  5  4  1  0
  5  6  2  0
  7  2  1  0
  8  7  2  0
  9  5  1  0
 10 11  1  0
 11 12  2  0
 11 13  1  0
 13 14  1  0
 15 14  1  0
 16 15  1  0
 17 16  1  6
 17 18  1  0
 18  7  1  0
 19 21  1  0
 19 17  1  0
 20 19  2  0
 22 21  1  0
 22 23  1  1
 23 24  1  0
 24 25  2  0
 24 32  1  0
 25 26  1  0
 26 27  1  0
 27 28  2  0
 29 28  1  0
 30 29  2  0
 31 32  2  0
 31 30  1  0
 32 27  1  0
 33 22  1  0
 34 33  2  0
 35 33  1  0
M  END
$$$$
