ERW.pdb
     RDKit          3D

 35 36  0  0  1  0  0  0  0  0999 V2000
   22.3023  -18.5379  -14.7128 N   0  0  0  0  0  0  0  0  0  0  0  0
   21.5550  -19.4470  -13.8802 C   0  0  1  0  0  0  0  0  0  0  0  0
   20.5935  -20.2787  -14.6937 C   0  0  0  0  0  0  0  0  0  0  0  0
   19.6541  -19.4068  -15.4977 C   0  0  0  0  0  0  0  0  0  0  0  0
   20.3314  -18.6876  -16.5772 C   0  0  0  0  0  0  0  0  0  0  0  0
   20.2024  -17.4341  -16.7323 O   0  0  0  0  0  0  0  0  0  0  0  0
   22.4565  -20.4209  -13.1755 C   0  0  0  0  0  0  0  0  0  0  0  0
   21.9887  -21.2921  -12.3693 O   0  0  0  0  0  0  0  0  0  0  0  0
   21.1509  -19.3462  -17.4830 O   0  0  0  0  0  0  0  0  0  0  0  0
   23.9184  -25.3929  -15.9382 N   0  0  0  0  0  0  0  0  0  0  0  0
   25.2846  -25.6728  -15.7008 C   0  0  0  0  0  0  0  0  0  0  0  0
   25.7495  -26.8758  -15.5917 N   0  0  0  0  0  0  0  0  0  0  0  0
   26.2513  -24.6281  -15.5563 N   0  0  0  0  0  0  0  0  0  0  0  0
   25.9320  -23.2703  -15.7460 C   0  0  0  0  0  0  0  0  0  0  0  0
   24.8882  -22.6796  -14.8380 C   0  0  0  0  0  0  0  0  0  0  0  0
   25.6493  -22.0616  -13.6853 C   0  0  0  0  0  0  0  0  0  0  0  0
   24.7897  -21.3019  -12.7160 C   0  0  2  0  0  0  0  0  0  0  0  0
   23.8584  -20.4131  -13.3781 N   0  0  0  0  0  0  0  0  0  0  0  0
   25.6895  -20.4968  -11.8336 C   0  0  0  0  0  0  0  0  0  0  0  0
   26.3191  -19.4826  -12.2907 O   0  0  0  0  0  0  0  0  0  0  0  0
   26.7624  -27.0089  -15.3928 N   0  0  0  0  0  0  0  0  0  0  0  0
   25.9066  -20.7946  -10.4665 C   0  0  2  0  0  0  0  0  0  0  0  0
   26.9164  -20.1078   -9.6785 C   0  0  0  0  0  0  0  0  0  0  0  0
   26.3375  -19.7115   -8.3732 C   0  0  0  0  0  0  0  0  0  0  0  0
   27.2219  -19.0061   -7.4449 C   0  0  0  0  0  0  0  0  0  0  0  0
   27.5982  -17.6981   -7.4322 N   0  0  0  0  0  0  0  0  0  0  0  0
   28.4123  -17.5331   -6.3680 C   0  0  0  0  0  0  0  0  0  0  0  0
   28.5621  -18.6954   -5.7116 C   0  0  0  0  0  0  0  0  0  0  0  0
   29.2703  -19.0968   -4.5802 C   0  0  0  0  0  0  0  0  0  0  0  0
   29.2308  -20.3984   -4.1362 C   0  0  0  0  0  0  0  0  0  0  0  0
   28.4853  -21.3557   -4.7970 C   0  0  0  0  0  0  0  0  0  0  0  0
   27.7752  -20.9732   -5.9228 C   0  0  0  0  0  0  0  0  0  0  0  0
   27.8233  -19.6560   -6.3616 C   0  0  0  0  0  0  0  0  0  0  0  0
   28.1668  -20.9060   -9.5927 O   0  0  0  0  0  0  0  0  0  0  0  0
   29.2477  -20.3708   -9.2144 O   0  0  0  0  0  0  0  0  0  0  0  0
  2  3  1  0
  2  1  1  6
  4  3  1  0
  5  4  1  0
  5  6  2  0
  7  2  1  0
  8  7  2  0
  9  5  1  0
 10 11  1  0
 11 12  2  0
 11 13  1  0
 13 14  1  0
 15 14  1  0
 16 15  1  0
 17 16  1  6
 17 18  1  0
 18  7  1  0
 19 21  1  0
 19 17  1  0
 20 19  2  0
 22 21  1  0
 22 23  1  1
 23 24  1  0
 24 25  2  0
 24 32  1  0
 25 26  1  0
 26 27  1  0
 27 28  2  0
 29 28  1  0
 30 29  2  0
 31 32  2  0
 31 30  1  0
 32 27  1  0
 33 22  1  0
 34 33  2  0
 35 33  1  0
M  END
$$$$
