ERW.pdb
     RDKit          3D

 35 36  0  0  1  0  0  0  0  0999 V2000
   28.1094  -21.2804  -16.3553 N   0  0  0  0  0  0  0  0  0  0  0  0
   28.4288  -19.9841  -15.8116 C   0  0  1  0  0  0  0  0  0  0  0  0
   28.2414  -18.8927  -16.8370 C   0  0  0  0  0  0  0  0  0  0  0  0
   27.9809  -19.4671  -18.2123 C   0  0  0  0  0  0  0  0  0  0  0  0
   29.2116  -19.7523  -18.9507 C   0  0  0  0  0  0  0  0  0  0  0  0
   30.3568  -19.4704  -18.4802 O   0  0  0  0  0  0  0  0  0  0  0  0
   27.5330  -19.6314  -14.6580 C   0  0  0  0  0  0  0  0  0  0  0  0
   27.6055  -18.4925  -14.0874 O   0  0  0  0  0  0  0  0  0  0  0  0
   29.1825  -20.3484  -20.2035 O   0  0  0  0  0  0  0  0  0  0  0  0
   19.6126  -20.6851  -11.0272 N   0  0  0  0  0  0  0  0  0  0  0  0
   19.9467  -19.9512  -12.1895 C   0  0  0  0  0  0  0  0  0  0  0  0
   19.1976  -19.0114  -12.6699 N   0  0  0  0  0  0  0  0  0  0  0  0
   21.1476  -20.2111  -12.9226 N   0  0  0  0  0  0  0  0  0  0  0  0
   22.0508  -21.2277  -12.5591 C   0  0  0  0  0  0  0  0  0  0  0  0
   23.4079  -20.7961  -12.0746 C   0  0  0  0  0  0  0  0  0  0  0  0
   24.2763  -20.7085  -13.3108 C   0  0  0  0  0  0  0  0  0  0  0  0
   25.6911  -20.2830  -13.0412 C   0  0  2  0  0  0  0  0  0  0  0  0
   26.5725  -20.5453  -14.1592 N   0  0  0  0  0  0  0  0  0  0  0  0
   26.1805  -21.0375  -11.8463 C   0  0  0  0  0  0  0  0  0  0  0  0
   26.4110  -22.2930  -11.9136 O   0  0  0  0  0  0  0  0  0  0  0  0
   19.5221  -18.4868  -13.5082 N   0  0  0  0  0  0  0  0  0  0  0  0
   26.4131  -20.4329  -10.5873 C   0  0  2  0  0  0  0  0  0  0  0  0
   26.5577  -21.2151   -9.3709 C   0  0  0  0  0  0  0  0  0  0  0  0
   27.8409  -20.8721   -8.7141 C   0  0  0  0  0  0  0  0  0  0  0  0
   27.7718  -19.9887   -7.5495 C   0  0  0  0  0  0  0  0  0  0  0  0
   26.7828  -19.1351   -7.1675 N   0  0  0  0  0  0  0  0  0  0  0  0
   27.1851  -18.5567   -6.0160 C   0  0  0  0  0  0  0  0  0  0  0  0
   28.3962  -19.0172   -5.6619 C   0  0  0  0  0  0  0  0  0  0  0  0
   29.2649  -18.7721   -4.5998 C   0  0  0  0  0  0  0  0  0  0  0  0
   30.4780  -19.4142   -4.5051 C   0  0  0  0  0  0  0  0  0  0  0  0
   30.8787  -20.3275   -5.4611 C   0  0  0  0  0  0  0  0  0  0  0  0
   30.0268  -20.5830   -6.5228 C   0  0  0  0  0  0  0  0  0  0  0  0
   28.8047  -19.9281   -6.6076 C   0  0  0  0  0  0  0  0  0  0  0  0
   25.3571  -21.0895   -8.5045 O   0  0  0  0  0  0  0  0  0  0  0  0
   24.5455  -20.1335   -8.6634 O   0  0  0  0  0  0  0  0  0  0  0  0
  2  3  1  0
  2  1  1  6
  4  3  1  0
  5  4  1  0
  5  6  2  0
  7  2  1  0
  8  7  2  0
  9  5  1  0
 10 11  1  0
 11 12  2  0
 11 13  1  0
 13 14  1  0
 15 14  1  0
 16 15  1  0
 17 16  1  6
 17 18  1  0
 18  7  1  0
 19 21  1  0
 19 17  1  0
 20 19  2  0
 22 21  1  0
 22 23  1  6
 23 24  1  0
 24 25  2  0
 24 32  1  0
 25 26  1  0
 26 27  1  0
 27 28  2  0
 29 28  1  0
 30 29  2  0
 31 32  2  0
 31 30  1  0
 32 27  1  0
 33 22  1  0
 34 33  2  0
 35 33  1  0
M  END
$$$$
