ERW.pdb
     RDKit          3D

 35 36  0  0  1  0  0  0  0  0999 V2000
   27.2779  -26.5134  -16.4603 N   0  0  0  0  0  0  0  0  0  0  0  0
   27.5083  -25.2463  -17.1079 C   0  0  1  0  0  0  0  0  0  0  0  0
   26.5454  -25.0250  -18.2488 C   0  0  0  0  0  0  0  0  0  0  0  0
   25.1774  -25.5887  -17.9329 C   0  0  0  0  0  0  0  0  0  0  0  0
   24.1961  -24.5513  -17.6133 C   0  0  0  0  0  0  0  0  0  0  0  0
   23.3512  -24.6930  -16.6761 O   0  0  0  0  0  0  0  0  0  0  0  0
   27.3064  -24.0963  -16.1621 C   0  0  0  0  0  0  0  0  0  0  0  0
   27.1055  -24.2903  -14.9172 O   0  0  0  0  0  0  0  0  0  0  0  0
   24.1458  -23.3593  -18.3221 O   0  0  0  0  0  0  0  0  0  0  0  0
   28.9745  -17.6975  -19.2512 N   0  0  0  0  0  0  0  0  0  0  0  0
   27.6062  -17.4858  -18.9612 C   0  0  0  0  0  0  0  0  0  0  0  0
   26.7494  -17.0946  -19.8489 N   0  0  0  0  0  0  0  0  0  0  0  0
   27.0772  -17.6861  -17.6471 N   0  0  0  0  0  0  0  0  0  0  0  0
   27.8980  -17.9354  -16.5310 C   0  0  0  0  0  0  0  0  0  0  0  0
   27.4997  -19.0711  -15.6287 C   0  0  0  0  0  0  0  0  0  0  0  0
   27.5055  -20.3087  -16.4996 C   0  0  0  0  0  0  0  0  0  0  0  0
   27.3379  -21.5953  -15.7434 C   0  0  2  0  0  0  0  0  0  0  0  0
   27.3327  -22.7534  -16.6120 N   0  0  0  0  0  0  0  0  0  0  0  0
   26.0381  -21.5319  -15.0065 C   0  0  0  0  0  0  0  0  0  0  0  0
   24.9489  -21.8973  -15.5668 O   0  0  0  0  0  0  0  0  0  0  0  0
   25.7575  -16.9560  -19.5657 N   0  0  0  0  0  0  0  0  0  0  0  0
   25.9228  -21.0708  -13.6728 C   0  0  2  0  0  0  0  0  0  0  0  0
   24.6413  -20.9946  -12.9912 C   0  0  0  0  0  0  0  0  0  0  0  0
   24.7535  -20.0784  -11.8320 C   0  0  0  0  0  0  0  0  0  0  0  0
   23.5243  -19.8000  -11.0882 C   0  0  0  0  0  0  0  0  0  0  0  0
   22.4651  -19.0158  -11.4283 N   0  0  0  0  0  0  0  0  0  0  0  0
   21.5751  -19.0959  -10.4165 C   0  0  0  0  0  0  0  0  0  0  0  0
   22.0407  -19.9038   -9.4496 C   0  0  0  0  0  0  0  0  0  0  0  0
   21.5570  -20.3329   -8.2148 C   0  0  0  0  0  0  0  0  0  0  0  0
   22.2853  -21.1868   -7.4189 C   0  0  0  0  0  0  0  0  0  0  0  0
   23.5243  -21.6509   -7.8167 C   0  0  0  0  0  0  0  0  0  0  0  0
   24.0192  -21.2345   -9.0413 C   0  0  0  0  0  0  0  0  0  0  0  0
   23.2747  -20.3720   -9.8359 C   0  0  0  0  0  0  0  0  0  0  0  0
   23.5450  -20.6720  -13.9409 O   0  0  0  0  0  0  0  0  0  0  0  0
   23.6674  -19.7233  -14.7674 O   0  0  0  0  0  0  0  0  0  0  0  0
  2  3  1  0
  2  1  1  1
  4  3  1  0
  5  4  1  0
  5  6  2  0
  7  2  1  0
  8  7  2  0
  9  5  1  0
 10 11  1  0
 11 12  2  0
 11 13  1  0
 13 14  1  0
 15 14  1  0
 16 15  1  0
 17 16  1  6
 17 18  1  0
 18  7  1  0
 19 21  1  0
 19 17  1  0
 20 19  2  0
 22 21  1  0
 22 23  1  1
 23 24  1  0
 24 25  2  0
 24 32  1  0
 25 26  1  0
 26 27  1  0
 27 28  2  0
 29 28  1  0
 30 29  2  0
 31 32  2  0
 31 30  1  0
 32 27  1  0
 33 22  1  0
 34 33  2  0
 35 33  1  0
M  END
$$$$
