ERW.pdb
     RDKit          3D

 35 36  0  0  1  0  0  0  0  0999 V2000
   20.8775  -22.4924  -15.0991 N   0  0  0  0  0  0  0  0  0  0  0  0
   21.3785  -21.4579  -14.2290 C   0  0  1  0  0  0  0  0  0  0  0  0
   20.4467  -21.2129  -13.0673 C   0  0  0  0  0  0  0  0  0  0  0  0
   19.3117  -20.2911  -13.4558 C   0  0  0  0  0  0  0  0  0  0  0  0
   18.2433  -20.9805  -14.1802 C   0  0  0  0  0  0  0  0  0  0  0  0
   17.7538  -22.0776  -13.7694 O   0  0  0  0  0  0  0  0  0  0  0  0
   22.7041  -21.8328  -13.6290 C   0  0  0  0  0  0  0  0  0  0  0  0
   22.8613  -22.9358  -13.0073 O   0  0  0  0  0  0  0  0  0  0  0  0
   17.7131  -20.4625  -15.3535 O   0  0  0  0  0  0  0  0  0  0  0  0
   29.8267  -21.6693  -17.1894 N   0  0  0  0  0  0  0  0  0  0  0  0
   28.5616  -21.0380  -17.1427 C   0  0  0  0  0  0  0  0  0  0  0  0
   27.6978  -21.1174  -18.1034 N   0  0  0  0  0  0  0  0  0  0  0  0
   28.1546  -20.2538  -16.0175 N   0  0  0  0  0  0  0  0  0  0  0  0
   28.4921  -20.5966  -14.6946 C   0  0  0  0  0  0  0  0  0  0  0  0
   27.4967  -21.4221  -13.9264 C   0  0  0  0  0  0  0  0  0  0  0  0
   26.2483  -20.5726  -13.8274 C   0  0  0  0  0  0  0  0  0  0  0  0
   25.1106  -21.2312  -13.1014 C   0  0  2  0  0  0  0  0  0  0  0  0
   23.8311  -20.9806  -13.7305 N   0  0  0  0  0  0  0  0  0  0  0  0
   25.0815  -20.6952  -11.7056 C   0  0  0  0  0  0  0  0  0  0  0  0
   24.3598  -19.6832  -11.4073 O   0  0  0  0  0  0  0  0  0  0  0  0
   26.7920  -20.6133  -18.0100 N   0  0  0  0  0  0  0  0  0  0  0  0
   25.8343  -21.2521  -10.6436 C   0  0  2  0  0  0  0  0  0  0  0  0
   25.9332  -20.6050   -9.3460 C   0  0  0  0  0  0  0  0  0  0  0  0
   26.3019  -21.6097   -8.3211 C   0  0  0  0  0  0  0  0  0  0  0  0
   26.5568  -21.1115   -6.9689 C   0  0  0  0  0  0  0  0  0  0  0  0
   25.7065  -21.0023   -5.9117 N   0  0  0  0  0  0  0  0  0  0  0  0
   26.4210  -20.5003   -4.8822 C   0  0  0  0  0  0  0  0  0  0  0  0
   27.6930  -20.2882   -5.2578 C   0  0  0  0  0  0  0  0  0  0  0  0
   28.8322  -19.7956   -4.6234 C   0  0  0  0  0  0  0  0  0  0  0  0
   30.0318  -19.6892   -5.2887 C   0  0  0  0  0  0  0  0  0  0  0  0
   30.1503  -20.0685   -6.6119 C   0  0  0  0  0  0  0  0  0  0  0  0
   29.0278  -20.5606   -7.2569 C   0  0  0  0  0  0  0  0  0  0  0  0
   27.8221  -20.6629   -6.5746 C   0  0  0  0  0  0  0  0  0  0  0  0
   26.8210  -19.4149   -9.4045 O   0  0  0  0  0  0  0  0  0  0  0  0
   26.6077  -18.4151   -8.6609 O   0  0  0  0  0  0  0  0  0  0  0  0
  2  3  1  0
  2  1  1  6
  4  3  1  0
  5  4  1  0
  5  6  2  0
  7  2  1  0
  8  7  2  0
  9  5  1  0
 10 11  1  0
 11 12  2  0
 11 13  1  0
 13 14  1  0
 15 14  1  0
 16 15  1  0
 17 16  1  6
 17 18  1  0
 18  7  1  0
 19 21  1  0
 19 17  1  0
 20 19  2  0
 22 21  1  0
 22 23  1  6
 23 24  1  0
 24 25  2  0
 24 32  1  0
 25 26  1  0
 26 27  1  0
 27 28  2  0
 29 28  1  0
 30 29  2  0
 31 32  2  0
 31 30  1  0
 32 27  1  0
 33 22  1  0
 34 33  2  0
 35 33  1  0
M  END
$$$$
