ERW.pdb
     RDKit          3D

 35 36  0  0  1  0  0  0  0  0999 V2000
   29.2229  -20.9733  -18.3818 N   0  0  0  0  0  0  0  0  0  0  0  0
   28.5228  -21.6003  -17.2888 C   0  0  1  0  0  0  0  0  0  0  0  0
   29.4021  -22.5896  -16.5637 C   0  0  0  0  0  0  0  0  0  0  0  0
   29.6381  -23.8310  -17.3958 C   0  0  0  0  0  0  0  0  0  0  0  0
   28.4118  -24.5904  -17.6425 C   0  0  0  0  0  0  0  0  0  0  0  0
   27.8589  -24.6191  -18.7851 O   0  0  0  0  0  0  0  0  0  0  0  0
   28.0887  -20.5951  -16.2598 C   0  0  0  0  0  0  0  0  0  0  0  0
   28.3144  -19.3490  -16.4151 O   0  0  0  0  0  0  0  0  0  0  0  0
   27.7960  -25.3185  -16.6343 O   0  0  0  0  0  0  0  0  0  0  0  0
   22.2258  -21.6922  -16.6414 N   0  0  0  0  0  0  0  0  0  0  0  0
   21.6256  -20.6143  -15.9493 C   0  0  0  0  0  0  0  0  0  0  0  0
   20.4197  -20.6607  -15.4813 N   0  0  0  0  0  0  0  0  0  0  0  0
   22.3211  -19.3840  -15.7268 N   0  0  0  0  0  0  0  0  0  0  0  0
   23.6747  -19.2074  -16.0704 C   0  0  0  0  0  0  0  0  0  0  0  0
   24.6646  -20.1658  -15.4668 C   0  0  0  0  0  0  0  0  0  0  0  0
   25.6603  -19.3085  -14.7159 C   0  0  0  0  0  0  0  0  0  0  0  0
   26.8134  -20.0723  -14.1310 C   0  0  2  0  0  0  0  0  0  0  0  0
   27.4112  -20.9880  -15.0795 N   0  0  0  0  0  0  0  0  0  0  0  0
   26.3060  -20.8476  -12.9573 C   0  0  0  0  0  0  0  0  0  0  0  0
   25.6016  -21.9014  -13.1232 O   0  0  0  0  0  0  0  0  0  0  0  0
   20.0325  -19.8222  -15.0012 N   0  0  0  0  0  0  0  0  0  0  0  0
   26.5583  -20.4779  -11.6140 C   0  0  2  0  0  0  0  0  0  0  0  0
   26.0376  -21.2423  -10.4928 C   0  0  0  0  0  0  0  0  0  0  0  0
   27.0875  -21.3725   -9.4552 C   0  0  0  0  0  0  0  0  0  0  0  0
   26.9021  -20.5990   -8.2268 C   0  0  0  0  0  0  0  0  0  0  0  0
   25.7536  -20.1472   -7.6529 N   0  0  0  0  0  0  0  0  0  0  0  0
   26.1069  -19.4981   -6.5233 C   0  0  0  0  0  0  0  0  0  0  0  0
   27.4409  -19.5250   -6.3686 C   0  0  0  0  0  0  0  0  0  0  0  0
   28.3264  -19.0264   -5.4145 C   0  0  0  0  0  0  0  0  0  0  0  0
   29.6841  -19.2160   -5.5306 C   0  0  0  0  0  0  0  0  0  0  0  0
   30.2192  -19.9097   -6.5989 C   0  0  0  0  0  0  0  0  0  0  0  0
   29.3530  -20.4122   -7.5555 C   0  0  0  0  0  0  0  0  0  0  0  0
   27.9841  -20.2140   -7.4276 C   0  0  0  0  0  0  0  0  0  0  0  0
   24.7479  -20.6822  -10.0124 O   0  0  0  0  0  0  0  0  0  0  0  0
   24.4492  -19.4736  -10.2317 O   0  0  0  0  0  0  0  0  0  0  0  0
  2  3  1  0
  2  1  1  6
  4  3  1  0
  5  4  1  0
  5  6  2  0
  7  2  1  0
  8  7  2  0
  9  5  1  0
 10 11  1  0
 11 12  2  0
 11 13  1  0
 13 14  1  0
 15 14  1  0
 16 15  1  0
 17 16  1  6
 17 18  1  0
 18  7  1  0
 19 21  1  0
 19 17  1  0
 20 19  2  0
 22 21  1  0
 22 23  1  6
 23 24  1  0
 24 25  2  0
 24 32  1  0
 25 26  1  0
 26 27  1  0
 27 28  2  0
 29 28  1  0
 30 29  2  0
 31 32  2  0
 31 30  1  0
 32 27  1  0
 33 22  1  0
 34 33  2  0
 35 33  1  0
M  END
$$$$
