ERW.pdb
     RDKit          3D

 35 36  0  0  1  0  0  0  0  0999 V2000
   27.5678  -17.4917  -16.2002 N   0  0  0  0  0  0  0  0  0  0  0  0
   27.2050  -18.7843  -15.6751 C   0  0  1  0  0  0  0  0  0  0  0  0
   28.4243  -19.6215  -15.3749 C   0  0  0  0  0  0  0  0  0  0  0  0
   29.1660  -19.9892  -16.6412 C   0  0  0  0  0  0  0  0  0  0  0  0
   28.3309  -20.7177  -17.5969 C   0  0  0  0  0  0  0  0  0  0  0  0
   27.7801  -21.8226  -17.3006 O   0  0  0  0  0  0  0  0  0  0  0  0
   26.4517  -18.6645  -14.3805 C   0  0  0  0  0  0  0  0  0  0  0  0
   26.7725  -17.7926  -13.5060 O   0  0  0  0  0  0  0  0  0  0  0  0
   28.1005  -20.2301  -18.8756 O   0  0  0  0  0  0  0  0  0  0  0  0
   24.8803  -24.0986  -13.4810 N   0  0  0  0  0  0  0  0  0  0  0  0
   23.5479  -24.4769  -13.7686 C   0  0  0  0  0  0  0  0  0  0  0  0
   23.2193  -25.6709  -14.1452 N   0  0  0  0  0  0  0  0  0  0  0  0
   22.4648  -23.5477  -13.6676 N   0  0  0  0  0  0  0  0  0  0  0  0
   22.6071  -22.2823  -13.0674 C   0  0  0  0  0  0  0  0  0  0  0  0
   23.0589  -21.1525  -13.9517 C   0  0  0  0  0  0  0  0  0  0  0  0
   23.1732  -19.9443  -13.0476 C   0  0  0  0  0  0  0  0  0  0  0  0
   24.5771  -19.4447  -12.8612 C   0  0  2  0  0  0  0  0  0  0  0  0
   25.3565  -19.5107  -14.0793 N   0  0  0  0  0  0  0  0  0  0  0  0
   25.2329  -20.2894  -11.8158 C   0  0  0  0  0  0  0  0  0  0  0  0
   25.7254  -21.4316  -12.1105 O   0  0  0  0  0  0  0  0  0  0  0  0
   22.2250  -25.8699  -14.3796 N   0  0  0  0  0  0  0  0  0  0  0  0
   25.3482  -19.8977  -10.4601 C   0  0  1  0  0  0  0  0  0  0  0  0
   25.7147  -20.8379   -9.4141 C   0  0  0  0  0  0  0  0  0  0  0  0
   26.9336  -20.3556   -8.7230 C   0  0  0  0  0  0  0  0  0  0  0  0
   26.9113  -20.3652   -7.2598 C   0  0  0  0  0  0  0  0  0  0  0  0
   26.0084  -20.9283   -6.4112 N   0  0  0  0  0  0  0  0  0  0  0  0
   26.4361  -20.6742   -5.1563 C   0  0  0  0  0  0  0  0  0  0  0  0
   27.5782  -19.9679   -5.1876 C   0  0  0  0  0  0  0  0  0  0  0  0
   28.4327  -19.4444   -4.2188 C   0  0  0  0  0  0  0  0  0  0  0  0
   29.5624  -18.7403   -4.5666 C   0  0  0  0  0  0  0  0  0  0  0  0
   29.8911  -18.5275   -5.8915 C   0  0  0  0  0  0  0  0  0  0  0  0
   29.0528  -19.0416   -6.8667 C   0  0  0  0  0  0  0  0  0  0  0  0
   27.9148  -19.7505   -6.5031 C   0  0  0  0  0  0  0  0  0  0  0  0
   24.5619  -21.1269   -8.5223 O   0  0  0  0  0  0  0  0  0  0  0  0
   23.5596  -20.3570   -8.4955 O   0  0  0  0  0  0  0  0  0  0  0  0
  2  3  1  0
  2  1  1  1
  4  3  1  0
  5  4  1  0
  5  6  2  0
  7  2  1  0
  8  7  2  0
  9  5  1  0
 10 11  1  0
 11 12  2  0
 11 13  1  0
 13 14  1  0
 15 14  1  0
 16 15  1  0
 17 16  1  6
 17 18  1  0
 18  7  1  0
 19 21  1  0
 19 17  1  0
 20 19  2  0
 22 21  1  0
 22 23  1  1
 23 24  1  0
 24 25  2  0
 24 32  1  0
 25 26  1  0
 26 27  1  0
 27 28  2  0
 29 28  1  0
 30 29  2  0
 31 32  2  0
 31 30  1  0
 32 27  1  0
 33 22  1  0
 34 33  2  0
 35 33  1  0
M  END
$$$$
