VQS.pdb
     RDKit          3D

 23 22  0  0  1  0  0  0  0  0999 V2000
    7.1584  -12.7769   20.4041 C   0  0  0  0  0  0  0  0  0  0  0  0
    8.3860  -13.5830   20.1569 C   0  0  2  0  0  0  0  0  0  0  0  0
    8.9208  -13.3241   18.7515 C   0  0  0  0  0  0  0  0  0  0  0  0
    8.1406  -15.0699   20.2585 C   0  0  2  0  0  0  0  0  0  0  0  0
    7.1992  -15.5807   19.3277 N   0  0  0  0  0  0  0  0  0  0  0  0
    7.6673  -15.3536   21.6377 C   0  0  0  0  0  0  0  0  0  0  0  0
    6.4196  -15.3662   21.8217 O   0  0  0  0  0  0  0  0  0  0  0  0
    7.3162  -20.2193   24.2786 N   0  0  0  0  0  0  0  0  0  0  0  0
    7.0273  -19.4446   25.4349 C   0  0  0  0  0  0  0  0  0  0  0  0
    6.5096  -20.0018   26.4309 O   0  0  0  0  0  0  0  0  0  0  0  0
    7.3372  -17.9709   25.4690 C   0  0  0  0  0  0  0  0  0  0  0  0
    7.7723  -17.4913   24.1132 C   0  0  0  0  0  0  0  0  0  0  0  0
    8.0624  -16.0334   24.0473 C   0  0  2  0  0  0  0  0  0  0  0  0
    8.5117  -15.6053   22.7362 N   0  0  0  0  0  0  0  0  0  0  0  0
    9.0065  -15.5454   25.0678 C   0  0  0  0  0  0  0  0  0  0  0  0
   10.2460  -15.6769   24.9886 O   0  0  0  0  0  0  0  0  0  0  0  0
    8.3220  -12.3170   26.9409 O   0  0  0  0  0  0  0  0  0  0  0  0
    8.7056  -13.2011   27.9584 C   0  0  0  0  0  0  0  0  0  0  0  0
    9.3924  -14.3638   27.2776 C   0  0  2  0  0  0  0  0  0  0  0  0
    8.5222  -14.8778   26.2320 N   0  0  0  0  0  0  0  0  0  0  0  0
    9.8407  -15.3990   28.1997 C   0  0  0  0  0  0  0  0  0  0  0  0
    9.4534  -16.5805   28.0563 O   0  0  0  0  0  0  0  0  0  0  0  0
   10.6976  -15.1233   29.2531 O   0  0  0  0  0  0  0  0  0  0  0  0
  2  1  1  6
  2  4  1  0
  2  3  1  0
  4  6  1  0
  4  5  1  6
  6  7  2  0
  9 11  1  0
  9  8  1  0
 10  9  2  0
 13 12  1  6
 12 11  1  0
 13 15  1  0
 14  6  1  0
 14 13  1  0
 15 16  2  0
 18 17  1  0
 19 18  1  1
 19 21  1  0
 20 19  1  0
 20 15  1  0
 21 22  2  0
 21 23  1  0
M  END
$$$$
