VQS.pdb
     RDKit          3D

 23 22  0  0  1  0  0  0  0  0999 V2000
    6.7541  -12.7013   18.7003 C   0  0  0  0  0  0  0  0  0  0  0  0
    7.9574  -13.4145   19.2113 C   0  0  2  0  0  0  0  0  0  0  0  0
    8.8605  -12.4549   19.9805 C   0  0  0  0  0  0  0  0  0  0  0  0
    8.7994  -14.0083   18.1068 C   0  0  2  0  0  0  0  0  0  0  0  0
    8.1000  -14.8772   17.2297 N   0  0  0  0  0  0  0  0  0  0  0  0
    9.9159  -14.7526   18.7441 C   0  0  0  0  0  0  0  0  0  0  0  0
    9.7114  -15.9676   19.0137 O   0  0  0  0  0  0  0  0  0  0  0  0
   17.0476  -13.9319   20.1464 N   0  0  0  0  0  0  0  0  0  0  0  0
   16.0830  -14.4300   19.2288 C   0  0  0  0  0  0  0  0  0  0  0  0
   16.3032  -14.3362   17.9988 O   0  0  0  0  0  0  0  0  0  0  0  0
   14.8091  -15.0644   19.7227 C   0  0  0  0  0  0  0  0  0  0  0  0
   13.6119  -14.3506   19.1618 C   0  0  0  0  0  0  0  0  0  0  0  0
   12.3069  -14.9419   19.5637 C   0  0  2  0  0  0  0  0  0  0  0  0
   11.1694  -14.1949   19.0617 N   0  0  0  0  0  0  0  0  0  0  0  0
   12.1466  -15.1559   21.0126 C   0  0  0  0  0  0  0  0  0  0  0  0
   11.9662  -14.2346   21.8363 O   0  0  0  0  0  0  0  0  0  0  0  0
    9.8991  -17.5295   22.7282 O   0  0  0  0  0  0  0  0  0  0  0  0
   11.1637  -17.9410   23.1702 C   0  0  0  0  0  0  0  0  0  0  0  0
   12.0894  -16.7612   22.9743 C   0  0  2  0  0  0  0  0  0  0  0  0
   12.1936  -16.4759   21.5522 N   0  0  0  0  0  0  0  0  0  0  0  0
   13.3879  -16.9246   23.6148 C   0  0  0  0  0  0  0  0  0  0  0  0
   14.4344  -16.9120   22.9284 O   0  0  0  0  0  0  0  0  0  0  0  0
   13.5150  -17.0973   24.9837 O   0  0  0  0  0  0  0  0  0  0  0  0
  2  1  1  6
  2  4  1  0
  2  3  1  0
  4  6  1  0
  4  5  1  1
  6  7  2  0
  9 11  1  0
  9  8  1  0
 10  9  2  0
 13 12  1  1
 12 11  1  0
 13 15  1  0
 14  6  1  0
 14 13  1  0
 15 16  2  0
 18 17  1  0
 19 18  1  6
 19 21  1  0
 20 19  1  0
 20 15  1  0
 21 22  2  0
 21 23  1  0
M  END
$$$$
