VQS.pdb
     RDKit          3D

 23 22  0  0  1  0  0  0  0  0999 V2000
    4.8228  -22.3022   20.8243 C   0  0  0  0  0  0  0  0  0  0  0  0
    5.5366  -21.2397   21.5855 C   0  0  2  0  0  0  0  0  0  0  0  0
    7.0259  -21.5581   21.6784 C   0  0  0  0  0  0  0  0  0  0  0  0
    5.0360  -21.0985   23.0036 C   0  0  2  0  0  0  0  0  0  0  0  0
    3.6380  -20.8855   23.1206 N   0  0  0  0  0  0  0  0  0  0  0  0
    5.7576  -19.9571   23.6229 C   0  0  0  0  0  0  0  0  0  0  0  0
    5.3864  -18.7988   23.2895 O   0  0  0  0  0  0  0  0  0  0  0  0
    8.6503  -19.8148   29.1637 N   0  0  0  0  0  0  0  0  0  0  0  0
    8.9823  -18.5263   28.6635 C   0  0  0  0  0  0  0  0  0  0  0  0
    9.6103  -17.7283   29.3977 O   0  0  0  0  0  0  0  0  0  0  0  0
    8.5868  -18.1188   27.2683 C   0  0  0  0  0  0  0  0  0  0  0  0
    7.7546  -19.1895   26.6214 C   0  0  0  0  0  0  0  0  0  0  0  0
    7.5101  -18.9766   25.1692 C   0  0  2  0  0  0  0  0  0  0  0  0
    6.8144  -20.0855   24.5446 N   0  0  0  0  0  0  0  0  0  0  0  0
    8.7127  -18.6522   24.3821 C   0  0  0  0  0  0  0  0  0  0  0  0
    9.6090  -19.4779   24.1088 O   0  0  0  0  0  0  0  0  0  0  0  0
   10.9385  -15.3245   21.6663 O   0  0  0  0  0  0  0  0  0  0  0  0
    9.7755  -15.6585   22.3731 C   0  0  0  0  0  0  0  0  0  0  0  0
   10.0899  -16.9238   23.1395 C   0  0  2  0  0  0  0  0  0  0  0  0
    8.9078  -17.3301   23.8825 N   0  0  0  0  0  0  0  0  0  0  0  0
   11.2767  -16.8193   23.9783 C   0  0  0  0  0  0  0  0  0  0  0  0
   11.1620  -16.6467   25.2126 O   0  0  0  0  0  0  0  0  0  0  0  0
   12.5564  -16.9049   23.4541 O   0  0  0  0  0  0  0  0  0  0  0  0
  2  1  1  1
  2  4  1  0
  2  3  1  0
  4  6  1  0
  4  5  1  6
  6  7  2  0
  9 11  1  0
  9  8  1  0
 10  9  2  0
 13 12  1  1
 12 11  1  0
 13 15  1  0
 14  6  1  0
 14 13  1  0
 15 16  2  0
 18 17  1  0
 19 18  1  1
 19 21  1  0
 20 19  1  0
 20 15  1  0
 21 22  2  0
 21 23  1  0
M  END
$$$$
