VQS.pdb
     RDKit          3D

 23 22  0  0  1  0  0  0  0  0999 V2000
    7.3974  -13.2975   20.4187 C   0  0  0  0  0  0  0  0  0  0  0  0
    8.6469  -13.0378   19.6512 C   0  0  2  0  0  0  0  0  0  0  0  0
    8.4615  -11.8461   18.7164 C   0  0  0  0  0  0  0  0  0  0  0  0
    9.0561  -14.2060   18.7857 C   0  0  2  0  0  0  0  0  0  0  0  0
    8.0361  -14.6958   17.9294 N   0  0  0  0  0  0  0  0  0  0  0  0
    9.5029  -15.2984   19.6878 C   0  0  0  0  0  0  0  0  0  0  0  0
    8.6621  -16.2007   19.9513 O   0  0  0  0  0  0  0  0  0  0  0  0
   13.9376  -19.8210   20.5410 N   0  0  0  0  0  0  0  0  0  0  0  0
   12.9121  -19.1755   21.2841 C   0  0  0  0  0  0  0  0  0  0  0  0
   11.7944  -19.7311   21.3944 O   0  0  0  0  0  0  0  0  0  0  0  0
   13.1597  -17.8392   21.9338 C   0  0  0  0  0  0  0  0  0  0  0  0
   12.6827  -16.7244   21.0466 C   0  0  0  0  0  0  0  0  0  0  0  0
   11.2256  -16.4422   21.1535 C   0  0  2  0  0  0  0  0  0  0  0  0
   10.7870  -15.3880   20.2589 N   0  0  0  0  0  0  0  0  0  0  0  0
   10.7521  -16.1501   22.5178 C   0  0  0  0  0  0  0  0  0  0  0  0
   11.0728  -15.1291   23.1619 O   0  0  0  0  0  0  0  0  0  0  0  0
    7.5352  -18.1644   24.0759 O   0  0  0  0  0  0  0  0  0  0  0  0
    7.9076  -16.9080   24.5725 C   0  0  0  0  0  0  0  0  0  0  0  0
    9.4193  -16.8709   24.5506 C   0  0  2  0  0  0  0  0  0  0  0  0
    9.8749  -17.0580   23.1824 N   0  0  0  0  0  0  0  0  0  0  0  0
   10.0403  -17.8003   25.4853 C   0  0  0  0  0  0  0  0  0  0  0  0
   10.8384  -18.6707   25.0709 O   0  0  0  0  0  0  0  0  0  0  0  0
    9.7776  -17.7595   26.8452 O   0  0  0  0  0  0  0  0  0  0  0  0
  2  1  1  6
  2  4  1  0
  2  3  1  0
  4  6  1  0
  4  5  1  1
  6  7  2  0
  9 11  1  0
  9  8  1  0
 10  9  2  0
 13 12  1  1
 12 11  1  0
 13 15  1  0
 14  6  1  0
 14 13  1  0
 15 16  2  0
 18 17  1  0
 19 18  1  6
 19 21  1  0
 20 19  1  0
 20 15  1  0
 21 22  2  0
 21 23  1  0
M  END
$$$$
