VQS.pdb
     RDKit          3D

 23 22  0  0  1  0  0  0  0  0999 V2000
    7.8823  -12.2529   27.3804 C   0  0  0  0  0  0  0  0  0  0  0  0
    6.8043  -11.8737   26.4255 C   0  0  2  0  0  0  0  0  0  0  0  0
    5.8510  -10.8700   27.0673 C   0  0  0  0  0  0  0  0  0  0  0  0
    5.9638  -13.0518   25.9931 C   0  0  2  0  0  0  0  0  0  0  0  0
    5.4639  -13.8462   27.0573 N   0  0  0  0  0  0  0  0  0  0  0  0
    6.8003  -13.8977   25.1033 C   0  0  0  0  0  0  0  0  0  0  0  0
    7.2650  -14.9607   25.5979 O   0  0  0  0  0  0  0  0  0  0  0  0
    7.4255  -13.2300   18.7810 N   0  0  0  0  0  0  0  0  0  0  0  0
    8.2136  -14.3856   19.0338 C   0  0  0  0  0  0  0  0  0  0  0  0
    8.7445  -14.9867   18.0709 O   0  0  0  0  0  0  0  0  0  0  0  0
    8.4121  -14.8871   20.4404 C   0  0  0  0  0  0  0  0  0  0  0  0
    7.6568  -14.0314   21.4174 C   0  0  0  0  0  0  0  0  0  0  0  0
    7.7414  -14.4981   22.8278 C   0  0  2  0  0  0  0  0  0  0  0  0
    7.1025  -13.5913   23.7625 N   0  0  0  0  0  0  0  0  0  0  0  0
    9.1052  -14.7988   23.2975 C   0  0  0  0  0  0  0  0  0  0  0  0
   10.0221  -13.9530   23.3591 O   0  0  0  0  0  0  0  0  0  0  0  0
    9.7192  -18.4558   24.8578 O   0  0  0  0  0  0  0  0  0  0  0  0
   10.6644  -17.5067   25.2698 C   0  0  0  0  0  0  0  0  0  0  0  0
   10.7804  -16.5030   24.1445 C   0  0  2  0  0  0  0  0  0  0  0  0
    9.4447  -16.1198   23.7161 N   0  0  0  0  0  0  0  0  0  0  0  0
   11.6197  -16.9549   23.0426 C   0  0  0  0  0  0  0  0  0  0  0  0
   12.8242  -17.2311   23.2409 O   0  0  0  0  0  0  0  0  0  0  0  0
   11.1284  -17.0948   21.7546 O   0  0  0  0  0  0  0  0  0  0  0  0
  2  1  1  1
  2  4  1  0
  2  3  1  0
  4  6  1  0
  4  5  1  1
  6  7  2  0
  9 11  1  0
  9  8  1  0
 10  9  2  0
 13 12  1  6
 12 11  1  0
 13 15  1  0
 14  6  1  0
 14 13  1  0
 15 16  2  0
 18 17  1  0
 19 18  1  1
 19 21  1  0
 20 19  1  0
 20 15  1  0
 21 22  2  0
 21 23  1  0
M  END
$$$$
