KQW.pdb
     RDKit          3D

 33 34  0  0  1  0  0  0  0  0999 V2000
    8.4160  -16.4168   18.9866 N   0  0  0  0  0  0  0  0  0  0  0  0
    9.0107  -15.6181   19.9934 C   0  0  1  0  0  0  0  0  0  0  0  0
    8.3958  -14.2911   20.2794 C   0  0  0  0  0  0  0  0  0  0  0  0
    8.2520  -13.3383   19.1656 C   0  0  0  0  0  0  0  0  0  0  0  0
    7.2980  -13.6524   18.0758 C   0  0  0  0  0  0  0  0  0  0  0  0
    7.2822  -12.7139   16.9175 C   0  0  0  0  0  0  0  0  0  0  0  0
    7.7367  -13.3180   15.6993 N   0  0  0  0  0  0  0  0  0  0  0  0
    9.2779  -16.3657   21.2521 C   0  0  0  0  0  0  0  0  0  0  0  0
    8.3585  -17.1245   21.6542 O   0  0  0  0  0  0  0  0  0  0  0  0
   14.4976  -18.1176   21.2346 N   0  0  0  0  0  0  0  0  0  0  0  0
   13.4067  -18.9572   20.8909 C   0  0  0  0  0  0  0  0  0  0  0  0
   13.5587  -19.7452   19.9331 O   0  0  0  0  0  0  0  0  0  0  0  0
   12.1367  -18.8960   21.6430 C   0  0  0  0  0  0  0  0  0  0  0  0
   12.1037  -17.8768   22.7389 C   0  0  0  0  0  0  0  0  0  0  0  0
   10.7690  -17.2702   23.0012 C   0  0  2  0  0  0  0  0  0  0  0  0
   10.4518  -16.2771   21.9911 N   0  0  0  0  0  0  0  0  0  0  0  0
   10.6506  -16.6333   24.3380 C   0  0  0  0  0  0  0  0  0  0  0  0
   11.3772  -15.6477   24.6077 O   0  0  0  0  0  0  0  0  0  0  0  0
    9.7510  -17.0819   25.3413 N   0  0  0  0  0  0  0  0  0  0  0  0
    9.8821  -16.5922   26.6830 C   0  0  1  0  0  0  0  0  0  0  0  0
    8.5896  -16.2693   27.3570 C   0  0  0  0  0  0  0  0  0  0  0  0
    7.6942  -15.4062   26.5442 C   0  0  0  0  0  0  0  0  0  0  0  0
    6.7863  -15.8690   25.5957 C   0  0  0  0  0  0  0  0  0  0  0  0
    6.1363  -14.8155   25.0459 N   0  0  0  0  0  0  0  0  0  0  0  0
    6.5849  -13.6752   25.5996 C   0  0  0  0  0  0  0  0  0  0  0  0
    6.2723  -12.3311   25.4130 C   0  0  0  0  0  0  0  0  0  0  0  0
    6.9190  -11.3596   26.1484 C   0  0  0  0  0  0  0  0  0  0  0  0
    7.8822  -11.7491   27.0725 C   0  0  0  0  0  0  0  0  0  0  0  0
    8.2010  -13.0699   27.2673 C   0  0  0  0  0  0  0  0  0  0  0  0
    7.5524  -14.0395   26.5304 C   0  0  0  0  0  0  0  0  0  0  0  0
   10.5875  -17.6034   27.5537 C   0  0  0  0  0  0  0  0  0  0  0  0
   10.8140  -18.7225   27.0273 O   0  0  0  0  0  0  0  0  0  0  0  0
   10.9465  -17.2776   28.8491 O   0  0  0  0  0  0  0  0  0  0  0  0
  2  1  1  6
  2  3  1  0
  4  3  1  0
  4  5  1  0
  5  6  1  0
  6  7  1  0
  8  9  2  0
  8  2  1  0
 10 11  1  0
 11 13  1  0
 12 11  2  0
 13 14  1  0
 15 14  1  6
 15 16  1  0
 16  8  1  0
 17 15  1  0
 17 19  1  0
 18 17  2  0
 20 19  1  0
 20 31  1  0
 20 21  1  1
 22 21  1  0
 22 30  1  0
 23 24  1  0
 23 22  2  0
 24 25  1  0
 25 26  1  0
 25 30  2  0
 26 27  2  0
 27 28  1  0
 29 28  2  0
 30 29  1  0
 31 32  2  0
 31 33  1  0
M  END
$$$$
