KQW.pdb
     RDKit          3D

 33 34  0  0  1  0  0  0  0  0999 V2000
    8.0730  -16.7339   19.5083 N   0  0  0  0  0  0  0  0  0  0  0  0
    7.7505  -17.4916   20.6603 C   0  0  1  0  0  0  0  0  0  0  0  0
    7.2354  -18.8753   20.4585 C   0  0  0  0  0  0  0  0  0  0  0  0
    6.7104  -19.2336   19.1299 C   0  0  0  0  0  0  0  0  0  0  0  0
    6.2010  -20.6079   18.9102 C   0  0  0  0  0  0  0  0  0  0  0  0
    5.9433  -21.0012   17.4954 C   0  0  0  0  0  0  0  0  0  0  0  0
    5.0293  -20.1225   16.8262 N   0  0  0  0  0  0  0  0  0  0  0  0
    8.8182  -17.4645   21.6967 C   0  0  0  0  0  0  0  0  0  0  0  0
    8.6946  -18.2833   22.6439 O   0  0  0  0  0  0  0  0  0  0  0  0
   14.4523  -14.1531   21.9974 N   0  0  0  0  0  0  0  0  0  0  0  0
   14.5592  -15.3614   22.7336 C   0  0  0  0  0  0  0  0  0  0  0  0
   15.7058  -15.7853   22.9921 O   0  0  0  0  0  0  0  0  0  0  0  0
   13.3519  -16.0893   23.1752 C   0  0  0  0  0  0  0  0  0  0  0  0
   12.1963  -16.0242   22.2259 C   0  0  0  0  0  0  0  0  0  0  0  0
   10.9671  -16.7365   22.6728 C   0  0  2  0  0  0  0  0  0  0  0  0
    9.9144  -16.6102   21.6814 N   0  0  0  0  0  0  0  0  0  0  0  0
   10.4400  -16.2641   23.9788 C   0  0  0  0  0  0  0  0  0  0  0  0
   10.0998  -15.0632   24.0979 O   0  0  0  0  0  0  0  0  0  0  0  0
   10.2974  -17.1043   25.1149 N   0  0  0  0  0  0  0  0  0  0  0  0
    9.9393  -16.5324   26.3806 C   0  0  1  0  0  0  0  0  0  0  0  0
    8.4867  -16.6197   26.7146 C   0  0  0  0  0  0  0  0  0  0  0  0
    7.6593  -15.5826   26.0461 C   0  0  0  0  0  0  0  0  0  0  0  0
    6.8670  -15.7975   24.9216 C   0  0  0  0  0  0  0  0  0  0  0  0
    6.2514  -14.6405   24.5793 N   0  0  0  0  0  0  0  0  0  0  0  0
    6.6108  -13.6715   25.4395 C   0  0  0  0  0  0  0  0  0  0  0  0
    6.2854  -12.3224   25.5544 C   0  0  0  0  0  0  0  0  0  0  0  0
    6.8272  -11.5618   26.5697 C   0  0  0  0  0  0  0  0  0  0  0  0
    7.6985  -12.1673   27.4683 C   0  0  0  0  0  0  0  0  0  0  0  0
    8.0286  -13.4958   27.3677 C   0  0  0  0  0  0  0  0  0  0  0  0
    7.4851  -14.2542   26.3513 C   0  0  0  0  0  0  0  0  0  0  0  0
   10.6866  -17.2103   27.5032 C   0  0  0  0  0  0  0  0  0  0  0  0
   11.3832  -18.2060   27.1804 O   0  0  0  0  0  0  0  0  0  0  0  0
   10.5839  -16.7323   28.7971 O   0  0  0  0  0  0  0  0  0  0  0  0
  2  1  1  6
  2  3  1  0
  4  3  1  0
  4  5  1  0
  5  6  1  0
  6  7  1  0
  8  9  2  0
  8  2  1  0
 10 11  1  0
 11 13  1  0
 12 11  2  0
 13 14  1  0
 15 14  1  6
 15 16  1  0
 16  8  1  0
 17 15  1  0
 17 19  1  0
 18 17  2  0
 20 19  1  0
 20 31  1  0
 20 21  1  1
 22 21  1  0
 22 30  1  0
 23 24  1  0
 23 22  2  0
 24 25  1  0
 25 26  1  0
 25 30  2  0
 26 27  2  0
 27 28  1  0
 29 28  2  0
 30 29  1  0
 31 32  2  0
 31 33  1  0
M  END
$$$$
