KQW.pdb
     RDKit          3D

 33 34  0  0  1  0  0  0  0  0999 V2000
    6.4876  -19.7169   22.9989 N   0  0  0  0  0  0  0  0  0  0  0  0
    7.4888  -19.9952   22.0369 C   0  0  1  0  0  0  0  0  0  0  0  0
    7.1112  -20.8368   20.8665 C   0  0  0  0  0  0  0  0  0  0  0  0
    5.9970  -21.7868   21.0254 C   0  0  0  0  0  0  0  0  0  0  0  0
    5.5861  -22.6067   19.8612 C   0  0  0  0  0  0  0  0  0  0  0  0
    4.4347  -23.5297   20.0735 C   0  0  0  0  0  0  0  0  0  0  0  0
    4.1757  -24.3731   18.9435 N   0  0  0  0  0  0  0  0  0  0  0  0
    8.2383  -18.7843   21.6048 C   0  0  0  0  0  0  0  0  0  0  0  0
    9.1479  -18.9670   20.7551 O   0  0  0  0  0  0  0  0  0  0  0  0
    8.1279  -11.9317   19.6355 N   0  0  0  0  0  0  0  0  0  0  0  0
    8.0777  -13.3378   19.4518 C   0  0  0  0  0  0  0  0  0  0  0  0
    7.3674  -13.7779   18.5228 O   0  0  0  0  0  0  0  0  0  0  0  0
    8.8407  -14.2451   20.3332 C   0  0  0  0  0  0  0  0  0  0  0  0
    8.0510  -15.3855   20.8963 C   0  0  0  0  0  0  0  0  0  0  0  0
    8.8427  -16.3900   21.6592 C   0  0  2  0  0  0  0  0  0  0  0  0
    8.0002  -17.4973   22.0728 N   0  0  0  0  0  0  0  0  0  0  0  0
    9.5145  -15.8372   22.8632 C   0  0  0  0  0  0  0  0  0  0  0  0
   10.3079  -14.8757   22.7284 O   0  0  0  0  0  0  0  0  0  0  0  0
    9.3079  -16.3411   24.1749 N   0  0  0  0  0  0  0  0  0  0  0  0
   10.1820  -15.9353   25.2373 C   0  0  1  0  0  0  0  0  0  0  0  0
    9.4856  -15.4437   26.4631 C   0  0  0  0  0  0  0  0  0  0  0  0
    8.0798  -15.0278   26.2222 C   0  0  0  0  0  0  0  0  0  0  0  0
    7.0393  -15.8903   25.8880 C   0  0  0  0  0  0  0  0  0  0  0  0
    5.8963  -15.1784   25.7422 N   0  0  0  0  0  0  0  0  0  0  0  0
    6.1482  -13.8771   25.9688 C   0  0  0  0  0  0  0  0  0  0  0  0
    5.3575  -12.7309   25.9550 C   0  0  0  0  0  0  0  0  0  0  0  0
    5.9140  -11.5004   26.2361 C   0  0  0  0  0  0  0  0  0  0  0  0
    7.2710  -11.4307   26.5312 C   0  0  0  0  0  0  0  0  0  0  0  0
    8.0629  -12.5516   26.5486 C   0  0  0  0  0  0  0  0  0  0  0  0
    7.5036  -13.7811   26.2670 C   0  0  0  0  0  0  0  0  0  0  0  0
   11.0664  -17.0803   25.6676 C   0  0  0  0  0  0  0  0  0  0  0  0
   11.9105  -16.8197   26.5623 O   0  0  0  0  0  0  0  0  0  0  0  0
   10.9239  -18.3273   25.0864 O   0  0  0  0  0  0  0  0  0  0  0  0
  2  1  1  6
  2  3  1  0
  4  3  1  0
  4  5  1  0
  5  6  1  0
  6  7  1  0
  8  9  2  0
  8  2  1  0
 10 11  1  0
 11 13  1  0
 12 11  2  0
 13 14  1  0
 15 14  1  1
 15 16  1  0
 16  8  1  0
 17 15  1  0
 17 19  1  0
 18 17  2  0
 20 19  1  0
 20 31  1  0
 20 21  1  1
 22 21  1  0
 22 30  1  0
 23 24  1  0
 23 22  2  0
 24 25  1  0
 25 26  1  0
 25 30  2  0
 26 27  2  0
 27 28  1  0
 29 28  2  0
 30 29  1  0
 31 32  2  0
 31 33  1  0
M  END
$$$$
