KQW.pdb
     RDKit          3D

 33 34  0  0  1  0  0  0  0  0999 V2000
    6.8919  -19.8318   22.4099 N   0  0  0  0  0  0  0  0  0  0  0  0
    7.6659  -19.8305   21.2241 C   0  0  1  0  0  0  0  0  0  0  0  0
    6.9407  -19.8128   19.9224 C   0  0  0  0  0  0  0  0  0  0  0  0
    6.4986  -21.0988   19.3566 C   0  0  0  0  0  0  0  0  0  0  0  0
    6.8278  -21.4090   17.9453 C   0  0  0  0  0  0  0  0  0  0  0  0
    6.2363  -22.6578   17.3855 C   0  0  0  0  0  0  0  0  0  0  0  0
    6.4531  -22.7984   15.9753 N   0  0  0  0  0  0  0  0  0  0  0  0
    8.7599  -18.8216   21.2401 C   0  0  0  0  0  0  0  0  0  0  0  0
    9.3000  -18.5693   20.1323 O   0  0  0  0  0  0  0  0  0  0  0  0
    7.2365  -14.0608   20.0227 N   0  0  0  0  0  0  0  0  0  0  0  0
    7.4408  -13.8043   21.4032 C   0  0  0  0  0  0  0  0  0  0  0  0
    6.9147  -12.7801   21.8884 O   0  0  0  0  0  0  0  0  0  0  0  0
    8.2502  -14.7204   22.2327 C   0  0  0  0  0  0  0  0  0  0  0  0
    8.7347  -15.9471   21.5247 C   0  0  0  0  0  0  0  0  0  0  0  0
    9.6873  -16.7914   22.2978 C   0  0  2  0  0  0  0  0  0  0  0  0
    9.2093  -18.1597   22.3767 N   0  0  0  0  0  0  0  0  0  0  0  0
    9.9400  -16.3030   23.6777 C   0  0  0  0  0  0  0  0  0  0  0  0
   10.5059  -15.1954   23.8359 O   0  0  0  0  0  0  0  0  0  0  0  0
    9.5732  -17.0271   24.8432 N   0  0  0  0  0  0  0  0  0  0  0  0
   10.0371  -16.5878   26.1274 C   0  0  1  0  0  0  0  0  0  0  0  0
    8.9561  -16.1872   27.0762 C   0  0  0  0  0  0  0  0  0  0  0  0
    7.9053  -15.3390   26.4570 C   0  0  0  0  0  0  0  0  0  0  0  0
    6.7757  -15.8209   25.8011 C   0  0  0  0  0  0  0  0  0  0  0  0
    6.0334  -14.7768   25.3610 N   0  0  0  0  0  0  0  0  0  0  0  0
    6.6352  -13.6244   25.7044 C   0  0  0  0  0  0  0  0  0  0  0  0
    6.3182  -12.2824   25.5102 C   0  0  0  0  0  0  0  0  0  0  0  0
    7.1536  -11.2954   25.9909 C   0  0  0  0  0  0  0  0  0  0  0  0
    8.3097  -11.6674   26.6679 C   0  0  0  0  0  0  0  0  0  0  0  0
    8.6352  -12.9859   26.8668 C   0  0  0  0  0  0  0  0  0  0  0  0
    7.7978  -13.9710   26.3851 C   0  0  0  0  0  0  0  0  0  0  0  0
   10.8339  -17.6746   26.8074 C   0  0  0  0  0  0  0  0  0  0  0  0
   11.2828  -17.3978   27.9488 O   0  0  0  0  0  0  0  0  0  0  0  0
   11.0350  -18.8892   26.1772 O   0  0  0  0  0  0  0  0  0  0  0  0
  2  1  1  1
  2  3  1  0
  4  3  1  0
  4  5  1  0
  5  6  1  0
  6  7  1  0
  8  9  2  0
  8  2  1  0
 10 11  1  0
 11 13  1  0
 12 11  2  0
 13 14  1  0
 15 14  1  1
 15 16  1  0
 16  8  1  0
 17 15  1  0
 17 19  1  0
 18 17  2  0
 20 19  1  0
 20 31  1  0
 20 21  1  1
 22 21  1  0
 22 30  1  0
 23 24  1  0
 23 22  2  0
 24 25  1  0
 25 26  1  0
 25 30  2  0
 26 27  2  0
 27 28  1  0
 29 28  2  0
 30 29  1  0
 31 32  2  0
 31 33  1  0
M  END
$$$$
