KQW.pdb
     RDKit          3D

 33 34  0  0  1  0  0  0  0  0999 V2000
   10.3678  -14.2819   19.4137 N   0  0  0  0  0  0  0  0  0  0  0  0
    9.1447  -14.1959   20.1221 C   0  0  1  0  0  0  0  0  0  0  0  0
    7.8953  -14.0174   19.3297 C   0  0  0  0  0  0  0  0  0  0  0  0
    7.8876  -14.4817   17.9320 C   0  0  0  0  0  0  0  0  0  0  0  0
    7.7396  -13.4818   16.8482 C   0  0  0  0  0  0  0  0  0  0  0  0
    7.6425  -14.0177   15.4603 C   0  0  0  0  0  0  0  0  0  0  0  0
    7.5013  -12.9902   14.4705 N   0  0  0  0  0  0  0  0  0  0  0  0
    8.9822  -15.2673   21.1421 C   0  0  0  0  0  0  0  0  0  0  0  0
    7.8293  -15.4034   21.6270 O   0  0  0  0  0  0  0  0  0  0  0  0
   12.0823  -20.6912   21.6952 N   0  0  0  0  0  0  0  0  0  0  0  0
   12.7269  -19.4272   21.7062 C   0  0  0  0  0  0  0  0  0  0  0  0
   13.9536  -19.3980   21.4705 O   0  0  0  0  0  0  0  0  0  0  0  0
   11.9680  -18.1917   21.9888 C   0  0  0  0  0  0  0  0  0  0  0  0
   10.4984  -18.3898   22.1935 C   0  0  0  0  0  0  0  0  0  0  0  0
    9.7345  -17.1592   22.5404 C   0  0  2  0  0  0  0  0  0  0  0  0
   10.0019  -16.1041   21.5801 N   0  0  0  0  0  0  0  0  0  0  0  0
   10.0210  -16.6378   23.9015 C   0  0  0  0  0  0  0  0  0  0  0  0
   10.8598  -15.7155   24.0344 O   0  0  0  0  0  0  0  0  0  0  0  0
    9.3921  -17.1298   25.0761 N   0  0  0  0  0  0  0  0  0  0  0  0
    9.7960  -16.6323   26.3593 C   0  0  1  0  0  0  0  0  0  0  0  0
    8.6707  -16.2161   27.2480 C   0  0  0  0  0  0  0  0  0  0  0  0
    7.6841  -15.3272   26.5820 C   0  0  0  0  0  0  0  0  0  0  0  0
    6.6079  -15.7642   25.8145 C   0  0  0  0  0  0  0  0  0  0  0  0
    5.9160  -14.6918   25.3609 N   0  0  0  0  0  0  0  0  0  0  0  0
    6.4995  -13.5638   25.8031 C   0  0  0  0  0  0  0  0  0  0  0  0
    6.2142  -12.2104   25.6425 C   0  0  0  0  0  0  0  0  0  0  0  0
    7.0173  -11.2570   26.2333 C   0  0  0  0  0  0  0  0  0  0  0  0
    8.1090  -11.6742   26.9865 C   0  0  0  0  0  0  0  0  0  0  0  0
    8.4027  -13.0045   27.1536 C   0  0  0  0  0  0  0  0  0  0  0  0
    7.5977  -13.9560   26.5616 C   0  0  0  0  0  0  0  0  0  0  0  0
   10.5837  -17.6764   27.1127 C   0  0  0  0  0  0  0  0  0  0  0  0
   10.7534  -18.7730   26.5215 O   0  0  0  0  0  0  0  0  0  0  0  0
   11.0727  -17.4023   28.3772 O   0  0  0  0  0  0  0  0  0  0  0  0
  2  1  1  6
  2  3  1  0
  4  3  1  0
  4  5  1  0
  5  6  1  0
  6  7  1  0
  8  9  2  0
  8  2  1  0
 10 11  1  0
 11 13  1  0
 12 11  2  0
 13 14  1  0
 15 14  1  6
 15 16  1  0
 16  8  1  0
 17 15  1  0
 17 19  1  0
 18 17  2  0
 20 19  1  0
 20 31  1  0
 20 21  1  1
 22 21  1  0
 22 30  1  0
 23 24  1  0
 23 22  2  0
 24 25  1  0
 25 26  1  0
 25 30  2  0
 26 27  2  0
 27 28  1  0
 29 28  2  0
 30 29  1  0
 31 32  2  0
 31 33  1  0
M  END
$$$$
