KQW.pdb
     RDKit          3D

 33 34  0  0  1  0  0  0  0  0999 V2000
    8.5992  -18.5525   19.9412 N   0  0  0  0  0  0  0  0  0  0  0  0
    9.7902  -17.8859   19.5637 C   0  0  1  0  0  0  0  0  0  0  0  0
   10.1558  -17.8840   18.1190 C   0  0  0  0  0  0  0  0  0  0  0  0
    9.6920  -19.0053   17.2842 C   0  0  0  0  0  0  0  0  0  0  0  0
    8.9847  -18.7069   16.0165 C   0  0  0  0  0  0  0  0  0  0  0  0
    8.5839  -19.8803   15.1888 C   0  0  0  0  0  0  0  0  0  0  0  0
    8.0349  -19.5091   13.9175 N   0  0  0  0  0  0  0  0  0  0  0  0
    9.9076  -16.5216   20.1464 C   0  0  0  0  0  0  0  0  0  0  0  0
   10.9798  -15.9068   19.9115 O   0  0  0  0  0  0  0  0  0  0  0  0
    9.0958  -12.1757   18.9621 N   0  0  0  0  0  0  0  0  0  0  0  0
    8.2537  -13.2968   18.7443 C   0  0  0  0  0  0  0  0  0  0  0  0
    8.2810  -13.8341   17.6165 O   0  0  0  0  0  0  0  0  0  0  0  0
    7.3760  -13.8055   19.8181 C   0  0  0  0  0  0  0  0  0  0  0  0
    7.9500  -13.7099   21.1973 C   0  0  0  0  0  0  0  0  0  0  0  0
    9.1392  -14.5699   21.4507 C   0  0  2  0  0  0  0  0  0  0  0  0
    8.9291  -15.9028   20.9156 N   0  0  0  0  0  0  0  0  0  0  0  0
    9.4969  -14.6927   22.8872 C   0  0  0  0  0  0  0  0  0  0  0  0
    9.7942  -13.6579   23.5297 O   0  0  0  0  0  0  0  0  0  0  0  0
    9.5224  -15.9300   23.5840 N   0  0  0  0  0  0  0  0  0  0  0  0
    9.9442  -15.9647   24.9545 C   0  0  1  0  0  0  0  0  0  0  0  0
    8.8799  -16.3613   25.9236 C   0  0  0  0  0  0  0  0  0  0  0  0
    7.6365  -15.5572   25.8037 C   0  0  0  0  0  0  0  0  0  0  0  0
    6.4382  -16.0175   25.2645 C   0  0  0  0  0  0  0  0  0  0  0  0
    5.5159  -15.0266   25.3111 N   0  0  0  0  0  0  0  0  0  0  0  0
    6.0653  -13.9301   25.8623 C   0  0  0  0  0  0  0  0  0  0  0  0
    5.5825  -12.6551   26.1460 C   0  0  0  0  0  0  0  0  0  0  0  0
    6.4060  -11.7152   26.7303 C   0  0  0  0  0  0  0  0  0  0  0  0
    7.7182  -12.0664   27.0272 C   0  0  0  0  0  0  0  0  0  0  0  0
    8.2082  -13.3190   26.7533 C   0  0  0  0  0  0  0  0  0  0  0  0
    7.3822  -14.2571   26.1689 C   0  0  0  0  0  0  0  0  0  0  0  0
   11.0849  -16.9361   25.1374 C   0  0  0  0  0  0  0  0  0  0  0  0
   11.5656  -17.0109   26.2968 O   0  0  0  0  0  0  0  0  0  0  0  0
   11.5441  -17.6812   24.0664 O   0  0  0  0  0  0  0  0  0  0  0  0
  2  1  1  6
  2  3  1  0
  4  3  1  0
  4  5  1  0
  5  6  1  0
  6  7  1  0
  8  9  2  0
  8  2  1  0
 10 11  1  0
 11 13  1  0
 12 11  2  0
 13 14  1  0
 15 14  1  1
 15 16  1  0
 16  8  1  0
 17 15  1  0
 17 19  1  0
 18 17  2  0
 20 19  1  0
 20 31  1  0
 20 21  1  1
 22 21  1  0
 22 30  1  0
 23 24  1  0
 23 22  2  0
 24 25  1  0
 25 26  1  0
 25 30  2  0
 26 27  2  0
 27 28  1  0
 29 28  2  0
 30 29  1  0
 31 32  2  0
 31 33  1  0
M  END
$$$$
