KQW.pdb
     RDKit          3D

 33 34  0  0  1  0  0  0  0  0999 V2000
    8.6327  -15.9430   18.8512 N   0  0  0  0  0  0  0  0  0  0  0  0
    8.1106  -14.9665   19.7338 C   0  0  1  0  0  0  0  0  0  0  0  0
    7.1388  -13.9811   19.1815 C   0  0  0  0  0  0  0  0  0  0  0  0
    7.0190  -13.8701   17.7177 C   0  0  0  0  0  0  0  0  0  0  0  0
    8.0856  -13.1686   16.9650 C   0  0  0  0  0  0  0  0  0  0  0  0
    7.8529  -12.9813   15.5044 C   0  0  0  0  0  0  0  0  0  0  0  0
    8.8464  -12.1584   14.8788 N   0  0  0  0  0  0  0  0  0  0  0  0
    7.6201  -15.5394   21.0168 C   0  0  0  0  0  0  0  0  0  0  0  0
    7.0431  -14.7399   21.7983 O   0  0  0  0  0  0  0  0  0  0  0  0
    7.3517  -21.7347   23.4225 N   0  0  0  0  0  0  0  0  0  0  0  0
    6.6703  -20.7228   24.1472 C   0  0  0  0  0  0  0  0  0  0  0  0
    5.6133  -21.0393   24.7337 O   0  0  0  0  0  0  0  0  0  0  0  0
    7.1971  -19.3438   24.2013 C   0  0  0  0  0  0  0  0  0  0  0  0
    7.6001  -18.7725   22.8777 C   0  0  0  0  0  0  0  0  0  0  0  0
    7.3633  -17.3107   22.7189 C   0  0  2  0  0  0  0  0  0  0  0  0
    7.7587  -16.8701   21.3935 N   0  0  0  0  0  0  0  0  0  0  0  0
    8.0720  -16.4746   23.7215 C   0  0  0  0  0  0  0  0  0  0  0  0
    7.6082  -15.3455   24.0076 O   0  0  0  0  0  0  0  0  0  0  0  0
    9.2599  -16.8851   24.3830 N   0  0  0  0  0  0  0  0  0  0  0  0
    9.9189  -15.9839   25.2835 C   0  0  1  0  0  0  0  0  0  0  0  0
    9.0929  -15.5557   26.4512 C   0  0  0  0  0  0  0  0  0  0  0  0
    7.9483  -14.6834   26.0823 C   0  0  0  0  0  0  0  0  0  0  0  0
    6.6881  -15.1390   25.7045 C   0  0  0  0  0  0  0  0  0  0  0  0
    5.8892  -14.0781   25.4383 N   0  0  0  0  0  0  0  0  0  0  0  0
    6.5797  -12.9399   25.6277 C   0  0  0  0  0  0  0  0  0  0  0  0
    6.2577  -11.5910   25.5020 C   0  0  0  0  0  0  0  0  0  0  0  0
    7.2031  -10.6236   25.7729 C   0  0  0  0  0  0  0  0  0  0  0  0
    8.4743  -11.0223   26.1709 C   0  0  0  0  0  0  0  0  0  0  0  0
    8.8063  -12.3479   26.2992 C   0  0  0  0  0  0  0  0  0  0  0  0
    7.8587  -13.3134   26.0277 C   0  0  0  0  0  0  0  0  0  0  0  0
   11.1733  -16.6103   25.8426 C   0  0  0  0  0  0  0  0  0  0  0  0
   11.3743  -17.8126   25.5347 O   0  0  0  0  0  0  0  0  0  0  0  0
   12.0248  -15.8700   26.6425 O   0  0  0  0  0  0  0  0  0  0  0  0
  2  1  1  6
  2  3  1  0
  4  3  1  0
  4  5  1  0
  5  6  1  0
  6  7  1  0
  8  9  2  0
  8  2  1  0
 10 11  1  0
 11 13  1  0
 12 11  2  0
 13 14  1  0
 15 14  1  1
 15 16  1  0
 16  8  1  0
 17 15  1  0
 17 19  1  0
 18 17  2  0
 20 19  1  0
 20 31  1  0
 20 21  1  1
 22 21  1  0
 22 30  1  0
 23 24  1  0
 23 22  2  0
 24 25  1  0
 25 26  1  0
 25 30  2  0
 26 27  2  0
 27 28  1  0
 29 28  2  0
 30 29  1  0
 31 32  2  0
 31 33  1  0
M  END
$$$$
