KQW.pdb
     RDKit          3D

 33 34  0  0  1  0  0  0  0  0999 V2000
   10.9446  -19.0288   19.4364 N   0  0  0  0  0  0  0  0  0  0  0  0
   10.3214  -17.8646   18.9251 C   0  0  1  0  0  0  0  0  0  0  0  0
    9.7465  -17.9318   17.5519 C   0  0  0  0  0  0  0  0  0  0  0  0
    9.5297  -19.2604   16.9545 C   0  0  0  0  0  0  0  0  0  0  0  0
    9.1374  -19.3466   15.5279 C   0  0  0  0  0  0  0  0  0  0  0  0
    8.2860  -20.5085   15.1434 C   0  0  0  0  0  0  0  0  0  0  0  0
    7.9782  -20.5397   13.7435 N   0  0  0  0  0  0  0  0  0  0  0  0
    9.3580  -17.2496   19.8783 C   0  0  0  0  0  0  0  0  0  0  0  0
    8.9961  -16.0724   19.6213 O   0  0  0  0  0  0  0  0  0  0  0  0
    5.3709  -20.0985   23.8452 N   0  0  0  0  0  0  0  0  0  0  0  0
    6.6110  -19.7554   24.4432 C   0  0  0  0  0  0  0  0  0  0  0  0
    6.9153  -20.3199   25.5156 O   0  0  0  0  0  0  0  0  0  0  0  0
    7.5068  -18.7629   23.8148 C   0  0  0  0  0  0  0  0  0  0  0  0
    6.9977  -18.1789   22.5340 C   0  0  0  0  0  0  0  0  0  0  0  0
    7.9077  -17.2000   21.8770 C   0  0  2  0  0  0  0  0  0  0  0  0
    8.8485  -17.8814   21.0065 N   0  0  0  0  0  0  0  0  0  0  0  0
    8.6761  -16.3597   22.8310 C   0  0  0  0  0  0  0  0  0  0  0  0
    8.9081  -15.1634   22.5361 O   0  0  0  0  0  0  0  0  0  0  0  0
    9.1698  -16.8389   24.0735 N   0  0  0  0  0  0  0  0  0  0  0  0
    9.9443  -15.9707   24.9123 C   0  0  1  0  0  0  0  0  0  0  0  0
    9.3031  -15.6309   26.2172 C   0  0  0  0  0  0  0  0  0  0  0  0
    7.9898  -14.9509   26.0755 C   0  0  0  0  0  0  0  0  0  0  0  0
    6.7675  -15.6006   25.9271 C   0  0  0  0  0  0  0  0  0  0  0  0
    5.7796  -14.6795   25.8261 N   0  0  0  0  0  0  0  0  0  0  0  0
    6.3092  -13.4459   25.9029 C   0  0  0  0  0  0  0  0  0  0  0  0
    5.7656  -12.1646   25.8572 C   0  0  0  0  0  0  0  0  0  0  0  0
    6.5839  -11.0593   25.9651 C   0  0  0  0  0  0  0  0  0  0  0  0
    7.9523  -11.2515   26.1192 C   0  0  0  0  0  0  0  0  0  0  0  0
    8.5025  -12.5081   26.1658 C   0  0  0  0  0  0  0  0  0  0  0  0
    7.6817  -13.6119   26.0577 C   0  0  0  0  0  0  0  0  0  0  0  0
   11.2823  -16.5917   25.2322 C   0  0  0  0  0  0  0  0  0  0  0  0
   12.0733  -15.8824   25.9046 O   0  0  0  0  0  0  0  0  0  0  0  0
   11.5807  -17.8687   24.7927 O   0  0  0  0  0  0  0  0  0  0  0  0
  2  1  1  1
  2  3  1  0
  4  3  1  0
  4  5  1  0
  5  6  1  0
  6  7  1  0
  8  9  2  0
  8  2  1  0
 10 11  1  0
 11 13  1  0
 12 11  2  0
 13 14  1  0
 15 14  1  1
 15 16  1  0
 16  8  1  0
 17 15  1  0
 17 19  1  0
 18 17  2  0
 20 19  1  0
 20 31  1  0
 20 21  1  1
 22 21  1  0
 22 30  1  0
 23 24  1  0
 23 22  2  0
 24 25  1  0
 25 26  1  0
 25 30  2  0
 26 27  2  0
 27 28  1  0
 29 28  2  0
 30 29  1  0
 31 32  2  0
 31 33  1  0
M  END
$$$$
