KQW.pdb
     RDKit          3D

 33 34  0  0  1  0  0  0  0  0999 V2000
    9.8150  -17.9168   16.4946 N   0  0  0  0  0  0  0  0  0  0  0  0
   10.6555  -16.7771   16.5030 C   0  0  1  0  0  0  0  0  0  0  0  0
   10.0336  -15.4544   16.2126 C   0  0  0  0  0  0  0  0  0  0  0  0
    8.8456  -15.4221   15.3425 C   0  0  0  0  0  0  0  0  0  0  0  0
    8.3002  -14.1082   14.9272 C   0  0  0  0  0  0  0  0  0  0  0  0
    7.0795  -14.1375   14.0717 C   0  0  0  0  0  0  0  0  0  0  0  0
    6.6783  -12.8367   13.6217 N   0  0  0  0  0  0  0  0  0  0  0  0
   11.5306  -16.7040   17.7045 C   0  0  0  0  0  0  0  0  0  0  0  0
   11.1733  -17.3916   18.6956 O   0  0  0  0  0  0  0  0  0  0  0  0
   17.5267  -14.5842   18.1025 N   0  0  0  0  0  0  0  0  0  0  0  0
   16.4333  -13.6890   17.9741 C   0  0  0  0  0  0  0  0  0  0  0  0
   16.6827  -12.5105   17.6420 O   0  0  0  0  0  0  0  0  0  0  0  0
   15.0498  -14.1410   18.2269 C   0  0  0  0  0  0  0  0  0  0  0  0
   14.9227  -15.5731   18.6436 C   0  0  0  0  0  0  0  0  0  0  0  0
   13.5393  -16.0192   18.9682 C   0  0  2  0  0  0  0  0  0  0  0  0
   12.6885  -15.9402   17.7948 N   0  0  0  0  0  0  0  0  0  0  0  0
   12.9000  -15.2457   20.0635 C   0  0  0  0  0  0  0  0  0  0  0  0
   12.2303  -14.2255   19.7759 O   0  0  0  0  0  0  0  0  0  0  0  0
   13.0049  -15.5991   21.4351 N   0  0  0  0  0  0  0  0  0  0  0  0
   11.8363  -15.5733   22.2664 C   0  0  1  0  0  0  0  0  0  0  0  0
   10.6654  -16.3199   21.7177 C   0  0  0  0  0  0  0  0  0  0  0  0
    9.4323  -15.4980   21.6123 C   0  0  0  0  0  0  0  0  0  0  0  0
    8.2902  -15.6706   22.3895 C   0  0  0  0  0  0  0  0  0  0  0  0
    7.3609  -14.7528   22.0309 N   0  0  0  0  0  0  0  0  0  0  0  0
    7.8517  -13.9818   21.0445 C   0  0  0  0  0  0  0  0  0  0  0  0
    7.3370  -12.9107   20.3186 C   0  0  0  0  0  0  0  0  0  0  0  0
    8.0986  -12.3051   19.3408 C   0  0  0  0  0  0  0  0  0  0  0  0
    9.3811  -12.7841   19.0981 C   0  0  0  0  0  0  0  0  0  0  0  0
    9.9019  -13.8390   19.8053 C   0  0  0  0  0  0  0  0  0  0  0  0
    9.1379  -14.4428   20.7828 C   0  0  0  0  0  0  0  0  0  0  0  0
   12.1334  -16.1639   23.6233 C   0  0  0  0  0  0  0  0  0  0  0  0
   11.2389  -16.0210   24.4953 O   0  0  0  0  0  0  0  0  0  0  0  0
   13.3314  -16.8161   23.8522 O   0  0  0  0  0  0  0  0  0  0  0  0
  2  1  1  1
  2  3  1  0
  4  3  1  0
  4  5  1  0
  5  6  1  0
  6  7  1  0
  8  9  2  0
  8  2  1  0
 10 11  1  0
 11 13  1  0
 12 11  2  0
 13 14  1  0
 15 14  1  6
 15 16  1  0
 16  8  1  0
 17 15  1  0
 17 19  1  0
 18 17  2  0
 20 19  1  0
 20 31  1  0
 20 21  1  6
 22 21  1  0
 22 30  1  0
 23 24  1  0
 23 22  2  0
 24 25  1  0
 25 26  1  0
 25 30  2  0
 26 27  2  0
 27 28  1  0
 29 28  2  0
 30 29  1  0
 31 32  2  0
 31 33  1  0
M  END
$$$$
