KQW.pdb
     RDKit          3D

 33 34  0  0  1  0  0  0  0  0999 V2000
    9.7869  -14.6018   19.4334 N   0  0  0  0  0  0  0  0  0  0  0  0
    8.8254  -14.3328   20.4376 C   0  0  1  0  0  0  0  0  0  0  0  0
    7.4325  -14.0320   20.0015 C   0  0  0  0  0  0  0  0  0  0  0  0
    7.2455  -13.2306   18.7800 C   0  0  0  0  0  0  0  0  0  0  0  0
    7.3808  -13.8952   17.4623 C   0  0  0  0  0  0  0  0  0  0  0  0
    7.1087  -13.0519   16.2633 C   0  0  0  0  0  0  0  0  0  0  0  0
    7.4154  -13.7148   15.0296 N   0  0  0  0  0  0  0  0  0  0  0  0
    8.8361  -15.3313   21.5411 C   0  0  0  0  0  0  0  0  0  0  0  0
    7.8801  -15.2692   22.3566 O   0  0  0  0  0  0  0  0  0  0  0  0
   11.9479  -20.8793   21.8521 N   0  0  0  0  0  0  0  0  0  0  0  0
   11.1841  -20.8382   23.0471 C   0  0  0  0  0  0  0  0  0  0  0  0
   11.2403  -21.8282   23.8074 O   0  0  0  0  0  0  0  0  0  0  0  0
   10.3519  -19.6625   23.3749 C   0  0  0  0  0  0  0  0  0  0  0  0
   10.3987  -18.5582   22.3653 C   0  0  0  0  0  0  0  0  0  0  0  0
    9.6739  -17.3154   22.7502 C   0  0  2  0  0  0  0  0  0  0  0  0
    9.8143  -16.3023   21.7202 N   0  0  0  0  0  0  0  0  0  0  0  0
   10.1208  -16.7349   24.0424 C   0  0  0  0  0  0  0  0  0  0  0  0
   11.1432  -16.0095   24.0612 O   0  0  0  0  0  0  0  0  0  0  0  0
    9.4486  -16.9569   25.2738 N   0  0  0  0  0  0  0  0  0  0  0  0
   10.0127  -16.4515   26.4918 C   0  0  1  0  0  0  0  0  0  0  0  0
    9.0326  -15.7925   27.4054 C   0  0  0  0  0  0  0  0  0  0  0  0
    7.9118  -15.1255   26.6940 C   0  0  0  0  0  0  0  0  0  0  0  0
    6.8750  -15.7874   26.0419 C   0  0  0  0  0  0  0  0  0  0  0  0
    6.0296  -14.8760   25.5040 N   0  0  0  0  0  0  0  0  0  0  0  0
    6.4740  -13.6371   25.7793 C   0  0  0  0  0  0  0  0  0  0  0  0
    6.0049  -12.3612   25.4773 C   0  0  0  0  0  0  0  0  0  0  0  0
    6.6956  -11.2477   25.9087 C   0  0  0  0  0  0  0  0  0  0  0  0
    7.8611  -11.4263   26.6456 C   0  0  0  0  0  0  0  0  0  0  0  0
    8.3356  -12.6776   26.9510 C   0  0  0  0  0  0  0  0  0  0  0  0
    7.6427  -13.7895   26.5183 C   0  0  0  0  0  0  0  0  0  0  0  0
   10.6647  -17.5620   27.2792 C   0  0  0  0  0  0  0  0  0  0  0  0
   11.2127  -17.2245   28.3594 O   0  0  0  0  0  0  0  0  0  0  0  0
   10.6382  -18.8609   26.8049 O   0  0  0  0  0  0  0  0  0  0  0  0
  2  1  1  6
  2  3  1  0
  4  3  1  0
  4  5  1  0
  5  6  1  0
  6  7  1  0
  8  9  2  0
  8  2  1  0
 10 11  1  0
 11 13  1  0
 12 11  2  0
 13 14  1  0
 15 14  1  6
 15 16  1  0
 16  8  1  0
 17 15  1  0
 17 19  1  0
 18 17  2  0
 20 19  1  0
 20 31  1  0
 20 21  1  1
 22 21  1  0
 22 30  1  0
 23 24  1  0
 23 22  2  0
 24 25  1  0
 25 26  1  0
 25 30  2  0
 26 27  2  0
 27 28  1  0
 29 28  2  0
 30 29  1  0
 31 32  2  0
 31 33  1  0
M  END
$$$$
