CWV.pdb
     RDKit          3D

 28 29  0  0  1  0  0  0  0  0999 V2000
    6.3883  -14.8460   19.9238 N   0  0  0  0  0  0  0  0  0  0  0  0
    6.7203  -16.0218   20.6658 C   0  0  1  0  0  0  0  0  0  0  0  0
    7.2012  -17.0877   19.7045 C   0  0  0  0  0  0  0  0  0  0  0  0
    7.6814  -18.6040   20.5761 S   0  0  0  0  0  0  0  0  0  0  0  0
    7.7980  -15.8107   21.6666 C   0  0  0  0  0  0  0  0  0  0  0  0
    8.7517  -15.0188   21.4489 O   0  0  0  0  0  0  0  0  0  0  0  0
    7.8270  -16.4913   22.9415 N   0  0  0  0  0  0  0  0  0  0  0  0
    8.8611  -16.1968   23.9108 C   0  0  1  0  0  0  0  0  0  0  0  0
    8.2989  -16.1997   25.2922 C   0  0  0  0  0  0  0  0  0  0  0  0
    7.2182  -15.2456   25.5496 C   0  0  0  0  0  0  0  0  0  0  0  0
    5.8635  -15.3898   25.4740 C   0  0  0  0  0  0  0  0  0  0  0  0
    5.2905  -14.2310   25.8131 N   0  0  0  0  0  0  0  0  0  0  0  0
    6.2475  -13.3405   26.1064 C   0  0  0  0  0  0  0  0  0  0  0  0
    6.2108  -12.0124   26.5100 C   0  0  0  0  0  0  0  0  0  0  0  0
    7.3649  -11.2873   26.7582 C   0  0  0  0  0  0  0  0  0  0  0  0
    8.5919  -11.8938   26.6028 C   0  0  0  0  0  0  0  0  0  0  0  0
    8.6360  -13.2107   26.2027 C   0  0  0  0  0  0  0  0  0  0  0  0
    7.4704  -13.9320   25.9551 C   0  0  0  0  0  0  0  0  0  0  0  0
   10.0575  -17.0424   23.7894 C   0  0  0  0  0  0  0  0  0  0  0  0
    9.9673  -18.2792   23.5489 O   0  0  0  0  0  0  0  0  0  0  0  0
   14.7831  -17.6722   22.9310 C   0  0  0  0  0  0  0  0  0  0  0  0
   13.6618  -16.6744   23.1122 C   0  0  1  0  0  0  0  0  0  0  0  0
   13.3661  -16.0672   21.7643 C   0  0  0  0  0  0  0  0  0  0  0  0
   12.4957  -17.3847   23.7307 C   0  0  2  0  0  0  0  0  0  0  0  0
   11.3605  -16.5153   23.9338 N   0  0  0  0  0  0  0  0  0  0  0  0
   12.9871  -17.9226   25.0469 C   0  0  0  0  0  0  0  0  0  0  0  0
   13.8638  -19.0131   25.0697 O   0  0  0  0  0  0  0  0  0  0  0  0
   12.6474  -17.4393   26.1372 O   0  0  0  0  0  0  0  0  0  0  0  0
  2  3  1  0
  2  1  1  6
  3  4  1  0
  5  2  1  0
  6  5  2  0
  7  5  1  0
  8  7  1  0
  8  9  1  1
 10  9  1  0
 10 18  1  0
 11 12  1  0
 11 10  2  0
 12 13  1  0
 13 18  2  0
 13 14  1  0
 14 15  2  0
 15 16  1  0
 17 16  2  0
 18 17  1  0
 19 20  2  0
 19  8  1  0
 22 24  1  0
 22 21  1  6
 23 22  1  0
 24 25  1  1
 25 19  1  0
 26 24  1  0
 27 26  1  0
 28 26  2  0
M  END
$$$$
