CWV.pdb
     RDKit          3D

 28 29  0  0  1  0  0  0  0  0999 V2000
   10.9973  -15.9510   19.8361 N   0  0  0  0  0  0  0  0  0  0  0  0
   10.6246  -16.8958   20.8420 C   0  0  1  0  0  0  0  0  0  0  0  0
   11.8298  -17.7440   21.1874 C   0  0  0  0  0  0  0  0  0  0  0  0
   12.9863  -17.8579   19.7949 S   0  0  0  0  0  0  0  0  0  0  0  0
   10.1497  -16.2685   22.1024 C   0  0  0  0  0  0  0  0  0  0  0  0
   10.4368  -15.0782   22.3934 O   0  0  0  0  0  0  0  0  0  0  0  0
    9.3377  -16.9719   23.0696 N   0  0  0  0  0  0  0  0  0  0  0  0
    8.9038  -16.3150   24.2844 C   0  0  1  0  0  0  0  0  0  0  0  0
    7.5759  -16.8389   24.7164 C   0  0  0  0  0  0  0  0  0  0  0  0
    6.5789  -15.8344   25.0928 C   0  0  0  0  0  0  0  0  0  0  0  0
    5.2545  -15.9610   25.3954 C   0  0  0  0  0  0  0  0  0  0  0  0
    4.7647  -14.7518   25.6856 N   0  0  0  0  0  0  0  0  0  0  0  0
    5.7458  -13.8460   25.5767 C   0  0  0  0  0  0  0  0  0  0  0  0
    5.7869  -12.4705   25.7625 C   0  0  0  0  0  0  0  0  0  0  0  0
    6.9500  -11.7392   25.5852 C   0  0  0  0  0  0  0  0  0  0  0  0
    8.1072  -12.3875   25.2134 C   0  0  0  0  0  0  0  0  0  0  0  0
    8.0739  -13.7514   25.0274 C   0  0  0  0  0  0  0  0  0  0  0  0
    6.8997  -14.4788   25.2076 C   0  0  0  0  0  0  0  0  0  0  0  0
    9.8966  -16.3386   25.3684 C   0  0  0  0  0  0  0  0  0  0  0  0
   10.9883  -16.9626   25.2471 O   0  0  0  0  0  0  0  0  0  0  0  0
   11.5624  -14.8980   29.7420 C   0  0  0  0  0  0  0  0  0  0  0  0
   10.4133  -14.8050   28.7640 C   0  0  1  0  0  0  0  0  0  0  0  0
   10.2611  -13.3572   28.3715 C   0  0  0  0  0  0  0  0  0  0  0  0
   10.6995  -15.7223   27.6136 C   0  0  2  0  0  0  0  0  0  0  0  0
    9.6800  -15.6665   26.5923 N   0  0  0  0  0  0  0  0  0  0  0  0
   10.7834  -17.1066   28.1966 C   0  0  0  0  0  0  0  0  0  0  0  0
   11.9874  -17.5576   28.7491 O   0  0  0  0  0  0  0  0  0  0  0  0
    9.8194  -17.8865   28.2127 O   0  0  0  0  0  0  0  0  0  0  0  0
  2  3  1  0
  2  1  1  6
  3  4  1  0
  5  2  1  0
  6  5  2  0
  7  5  1  0
  8  7  1  0
  8  9  1  1
 10  9  1  0
 10 18  1  0
 11 12  1  0
 11 10  2  0
 12 13  1  0
 13 18  2  0
 13 14  1  0
 14 15  2  0
 15 16  1  0
 17 16  2  0
 18 17  1  0
 19 20  2  0
 19  8  1  0
 22 24  1  0
 22 21  1  1
 23 22  1  0
 24 25  1  6
 25 19  1  0
 26 24  1  0
 27 26  1  0
 28 26  2  0
M  END
$$$$
