CWV.pdb
     RDKit          3D

 28 29  0  0  1  0  0  0  0  0999 V2000
    9.6757  -15.5099   18.0667 N   0  0  0  0  0  0  0  0  0  0  0  0
    8.8000  -16.2099   18.9535 C   0  0  1  0  0  0  0  0  0  0  0  0
    9.0533  -17.6963   18.8194 C   0  0  0  0  0  0  0  0  0  0  0  0
    8.4474  -18.3356   17.2340 S   0  0  0  0  0  0  0  0  0  0  0  0
    8.9923  -15.8561   20.3837 C   0  0  0  0  0  0  0  0  0  0  0  0
   10.0790  -15.3791   20.8027 O   0  0  0  0  0  0  0  0  0  0  0  0
    7.9602  -16.0338   21.3800 N   0  0  0  0  0  0  0  0  0  0  0  0
    8.2199  -15.7329   22.7720 C   0  0  1  0  0  0  0  0  0  0  0  0
    6.9458  -15.4416   23.4905 C   0  0  0  0  0  0  0  0  0  0  0  0
    7.0682  -15.1217   24.9143 C   0  0  0  0  0  0  0  0  0  0  0  0
    7.1209  -15.9330   26.0101 C   0  0  0  0  0  0  0  0  0  0  0  0
    7.2433  -15.1707   27.1010 N   0  0  0  0  0  0  0  0  0  0  0  0
    7.2707  -13.8829   26.7326 C   0  0  0  0  0  0  0  0  0  0  0  0
    7.3820  -12.6977   27.4475 C   0  0  0  0  0  0  0  0  0  0  0  0
    7.3870  -11.4607   26.8238 C   0  0  0  0  0  0  0  0  0  0  0  0
    7.2792  -11.3937   25.4522 C   0  0  0  0  0  0  0  0  0  0  0  0
    7.1685  -12.5651   24.7367 C   0  0  0  0  0  0  0  0  0  0  0  0
    7.1640  -13.8046   25.3722 C   0  0  0  0  0  0  0  0  0  0  0  0
    9.0366  -16.7412   23.4630 C   0  0  0  0  0  0  0  0  0  0  0  0
    8.8379  -17.9772   23.2938 O   0  0  0  0  0  0  0  0  0  0  0  0
   13.0935  -18.3008   25.4761 C   0  0  0  0  0  0  0  0  0  0  0  0
   12.3517  -17.1643   24.8100 C   0  0  1  0  0  0  0  0  0  0  0  0
   12.8285  -17.0799   23.3822 C   0  0  0  0  0  0  0  0  0  0  0  0
   10.8809  -17.4177   24.9484 C   0  0  2  0  0  0  0  0  0  0  0  0
   10.0795  -16.3789   24.3448 N   0  0  0  0  0  0  0  0  0  0  0  0
   10.6100  -17.4979   26.4260 C   0  0  0  0  0  0  0  0  0  0  0  0
   11.0872  -18.5876   27.1632 O   0  0  0  0  0  0  0  0  0  0  0  0
    9.9709  -16.6294   27.0384 O   0  0  0  0  0  0  0  0  0  0  0  0
  2  3  1  0
  2  1  1  6
  3  4  1  0
  5  2  1  0
  6  5  2  0
  7  5  1  0
  8  7  1  0
  8  9  1  1
 10  9  1  0
 10 18  1  0
 11 12  1  0
 11 10  2  0
 12 13  1  0
 13 18  2  0
 13 14  1  0
 14 15  2  0
 15 16  1  0
 17 16  2  0
 18 17  1  0
 19 20  2  0
 19  8  1  0
 22 24  1  0
 22 21  1  6
 23 22  1  0
 24 25  1  1
 25 19  1  0
 26 24  1  0
 27 26  1  0
 28 26  2  0
M  END
$$$$
