CWV.pdb
     RDKit          3D

 28 29  0  0  1  0  0  0  0  0999 V2000
   10.6898  -16.0286   20.0310 N   0  0  0  0  0  0  0  0  0  0  0  0
   10.4078  -16.9733   21.0660 C   0  0  1  0  0  0  0  0  0  0  0  0
   11.5958  -17.8985   21.2213 C   0  0  0  0  0  0  0  0  0  0  0  0
   11.3569  -19.4489   20.3111 S   0  0  0  0  0  0  0  0  0  0  0  0
   10.1577  -16.3490   22.3909 C   0  0  0  0  0  0  0  0  0  0  0  0
   10.7574  -15.3018   22.7482 O   0  0  0  0  0  0  0  0  0  0  0  0
    9.2227  -16.8938   23.3493 N   0  0  0  0  0  0  0  0  0  0  0  0
    8.9888  -16.2261   24.6122 C   0  0  1  0  0  0  0  0  0  0  0  0
    7.6152  -16.5208   25.1129 C   0  0  0  0  0  0  0  0  0  0  0  0
    6.5845  -15.5337   24.7844 C   0  0  0  0  0  0  0  0  0  0  0  0
    5.4379  -15.6497   24.0539 C   0  0  0  0  0  0  0  0  0  0  0  0
    4.8166  -14.4665   24.0426 N   0  0  0  0  0  0  0  0  0  0  0  0
    5.5383  -13.5879   24.7510 C   0  0  0  0  0  0  0  0  0  0  0  0
    5.3580  -12.2454   25.0567 C   0  0  0  0  0  0  0  0  0  0  0  0
    6.2672  -11.5381   25.8263 C   0  0  0  0  0  0  0  0  0  0  0  0
    7.3880  -12.1776   26.3084 C   0  0  0  0  0  0  0  0  0  0  0  0
    7.5734  -13.5089   26.0093 C   0  0  0  0  0  0  0  0  0  0  0  0
    6.6540  -14.2122   25.2343 C   0  0  0  0  0  0  0  0  0  0  0  0
   10.0225  -16.4785   25.6265 C   0  0  0  0  0  0  0  0  0  0  0  0
   10.9637  -17.2949   25.4176 O   0  0  0  0  0  0  0  0  0  0  0  0
   12.0133  -15.7547   30.0441 C   0  0  0  0  0  0  0  0  0  0  0  0
   10.8400  -15.4259   29.1491 C   0  0  1  0  0  0  0  0  0  0  0  0
   10.8131  -13.9305   28.9590 C   0  0  0  0  0  0  0  0  0  0  0  0
   10.9892  -16.2006   27.8746 C   0  0  2  0  0  0  0  0  0  0  0  0
   10.0149  -15.8225   26.8780 N   0  0  0  0  0  0  0  0  0  0  0  0
   10.8247  -17.6489   28.2467 C   0  0  0  0  0  0  0  0  0  0  0  0
   11.9498  -18.4188   28.5625 O   0  0  0  0  0  0  0  0  0  0  0  0
    9.7189  -18.2087   28.2884 O   0  0  0  0  0  0  0  0  0  0  0  0
  2  3  1  0
  2  1  1  6
  3  4  1  0
  5  2  1  0
  6  5  2  0
  7  5  1  0
  8  7  1  0
  8  9  1  1
 10  9  1  0
 10 18  1  0
 11 12  1  0
 11 10  2  0
 12 13  1  0
 13 18  2  0
 13 14  1  0
 14 15  2  0
 15 16  1  0
 17 16  2  0
 18 17  1  0
 19 20  2  0
 19  8  1  0
 22 24  1  0
 22 21  1  1
 23 22  1  0
 24 25  1  6
 25 19  1  0
 26 24  1  0
 27 26  1  0
 28 26  2  0
M  END
$$$$
