CWV.pdb
     RDKit          3D

 28 29  0  0  1  0  0  0  0  0999 V2000
    6.8996  -15.5111   19.6263 N   0  0  0  0  0  0  0  0  0  0  0  0
    7.0047  -16.3808   20.7558 C   0  0  1  0  0  0  0  0  0  0  0  0
    7.3509  -17.7726   20.2714 C   0  0  0  0  0  0  0  0  0  0  0  0
    8.9005  -17.7845   19.3291 S   0  0  0  0  0  0  0  0  0  0  0  0
    8.0563  -15.9757   21.7242 C   0  0  0  0  0  0  0  0  0  0  0  0
    8.9883  -15.1966   21.3952 O   0  0  0  0  0  0  0  0  0  0  0  0
    8.0830  -16.4427   23.0920 N   0  0  0  0  0  0  0  0  0  0  0  0
    9.1327  -16.0198   23.9947 C   0  0  1  0  0  0  0  0  0  0  0  0
    8.6042  -15.8804   25.3824 C   0  0  0  0  0  0  0  0  0  0  0  0
    7.4330  -15.0157   25.5415 C   0  0  0  0  0  0  0  0  0  0  0  0
    6.1003  -15.2910   25.4429 C   0  0  0  0  0  0  0  0  0  0  0  0
    5.4133  -14.1696   25.6812 N   0  0  0  0  0  0  0  0  0  0  0  0
    6.2750  -13.1749   25.9317 C   0  0  0  0  0  0  0  0  0  0  0  0
    6.1043  -11.8307   26.2353 C   0  0  0  0  0  0  0  0  0  0  0  0
    7.1787  -10.9851   26.4580 C   0  0  0  0  0  0  0  0  0  0  0  0
    8.4604  -11.4837   26.3785 C   0  0  0  0  0  0  0  0  0  0  0  0
    8.6374  -12.8158   26.0779 C   0  0  0  0  0  0  0  0  0  0  0  0
    7.5511  -13.6588   25.8552 C   0  0  0  0  0  0  0  0  0  0  0  0
   10.3459  -16.8479   23.9362 C   0  0  0  0  0  0  0  0  0  0  0  0
   10.2823  -18.0957   23.7495 O   0  0  0  0  0  0  0  0  0  0  0  0
   15.0926  -17.4413   23.1980 C   0  0  0  0  0  0  0  0  0  0  0  0
   13.9196  -16.4877   23.2213 C   0  0  1  0  0  0  0  0  0  0  0  0
   13.5974  -16.1221   21.7945 C   0  0  0  0  0  0  0  0  0  0  0  0
   12.7902  -17.1495   23.9516 C   0  0  2  0  0  0  0  0  0  0  0  0
   11.6362  -16.2913   24.0838 N   0  0  0  0  0  0  0  0  0  0  0  0
   13.3298  -17.5161   25.3072 C   0  0  0  0  0  0  0  0  0  0  0  0
   14.2443  -18.5681   25.4313 O   0  0  0  0  0  0  0  0  0  0  0  0
   12.9982  -16.9215   26.3437 O   0  0  0  0  0  0  0  0  0  0  0  0
  2  3  1  0
  2  1  1  6
  3  4  1  0
  5  2  1  0
  6  5  2  0
  7  5  1  0
  8  7  1  0
  8  9  1  1
 10  9  1  0
 10 18  1  0
 11 12  1  0
 11 10  2  0
 12 13  1  0
 13 18  2  0
 13 14  1  0
 14 15  2  0
 15 16  1  0
 17 16  2  0
 18 17  1  0
 19 20  2  0
 19  8  1  0
 22 24  1  0
 22 21  1  6
 23 22  1  0
 24 25  1  1
 25 19  1  0
 26 24  1  0
 27 26  1  0
 28 26  2  0
M  END
$$$$
