CWV.pdb
     RDKit          3D

 28 29  0  0  1  0  0  0  0  0999 V2000
    6.9847  -14.7430   19.7105 N   0  0  0  0  0  0  0  0  0  0  0  0
    7.1593  -15.8544   20.5923 C   0  0  1  0  0  0  0  0  0  0  0  0
    7.5928  -17.0580   19.7831 C   0  0  0  0  0  0  0  0  0  0  0  0
    7.7588  -18.5353   20.8221 S   0  0  0  0  0  0  0  0  0  0  0  0
    8.1912  -15.6297   21.6376 C   0  0  0  0  0  0  0  0  0  0  0  0
    9.2341  -14.9665   21.4002 O   0  0  0  0  0  0  0  0  0  0  0  0
    8.0720  -16.1510   22.9805 N   0  0  0  0  0  0  0  0  0  0  0  0
    9.1403  -15.9674   23.9399 C   0  0  1  0  0  0  0  0  0  0  0  0
    8.6107  -16.0385   25.3323 C   0  0  0  0  0  0  0  0  0  0  0  0
    7.4459  -15.1994   25.6217 C   0  0  0  0  0  0  0  0  0  0  0  0
    6.1144  -15.4966   25.6408 C   0  0  0  0  0  0  0  0  0  0  0  0
    5.4349  -14.3940   25.9703 N   0  0  0  0  0  0  0  0  0  0  0  0
    6.3002  -13.3899   26.1647 C   0  0  0  0  0  0  0  0  0  0  0  0
    6.1371  -12.0567   26.5168 C   0  0  0  0  0  0  0  0  0  0  0  0
    7.2140  -11.1970   26.6598 C   0  0  0  0  0  0  0  0  0  0  0  0
    8.4904  -11.6701   26.4487 C   0  0  0  0  0  0  0  0  0  0  0  0
    8.6598  -12.9911   26.0992 C   0  0  0  0  0  0  0  0  0  0  0  0
    7.5710  -13.8484   25.9573 C   0  0  0  0  0  0  0  0  0  0  0  0
   10.2943  -16.8542   23.7319 C   0  0  0  0  0  0  0  0  0  0  0  0
   10.1428  -18.0669   23.4120 O   0  0  0  0  0  0  0  0  0  0  0  0
   14.9406  -17.6382   22.6520 C   0  0  0  0  0  0  0  0  0  0  0  0
   13.8867  -16.6011   22.9672 C   0  0  1  0  0  0  0  0  0  0  0  0
   13.5631  -15.8726   21.6875 C   0  0  0  0  0  0  0  0  0  0  0  0
   12.7126  -17.2972   23.5868 C   0  0  2  0  0  0  0  0  0  0  0  0
   11.6227  -16.3954   23.8775 N   0  0  0  0  0  0  0  0  0  0  0  0
   13.2241  -17.9280   24.8531 C   0  0  0  0  0  0  0  0  0  0  0  0
   14.0763  -19.0358   24.7841 O   0  0  0  0  0  0  0  0  0  0  0  0
   12.9223  -17.5082   25.9803 O   0  0  0  0  0  0  0  0  0  0  0  0
  2  3  1  0
  2  1  1  6
  3  4  1  0
  5  2  1  0
  6  5  2  0
  7  5  1  0
  8  7  1  0
  8  9  1  1
 10  9  1  0
 10 18  1  0
 11 12  1  0
 11 10  2  0
 12 13  1  0
 13 18  2  0
 13 14  1  0
 14 15  2  0
 15 16  1  0
 17 16  2  0
 18 17  1  0
 19 20  2  0
 19  8  1  0
 22 24  1  0
 22 21  1  6
 23 22  1  0
 24 25  1  1
 25 19  1  0
 26 24  1  0
 27 26  1  0
 28 26  2  0
M  END
$$$$
