CWV.pdb
     RDKit          3D

 28 29  0  0  1  0  0  0  0  0999 V2000
    6.6619  -14.4548   19.8813 N   0  0  0  0  0  0  0  0  0  0  0  0
    6.8315  -15.6346   20.6704 C   0  0  1  0  0  0  0  0  0  0  0  0
    7.2300  -16.7779   19.7620 C   0  0  0  0  0  0  0  0  0  0  0  0
    6.6444  -18.3716   20.3999 S   0  0  0  0  0  0  0  0  0  0  0  0
    7.8845  -15.5094   21.7112 C   0  0  0  0  0  0  0  0  0  0  0  0
    8.9165  -14.8143   21.5221 O   0  0  0  0  0  0  0  0  0  0  0  0
    7.7993  -16.1689   22.9946 N   0  0  0  0  0  0  0  0  0  0  0  0
    8.8491  -16.0061   23.9780 C   0  0  1  0  0  0  0  0  0  0  0  0
    8.2841  -16.0468   25.3576 C   0  0  0  0  0  0  0  0  0  0  0  0
    7.2225  -15.0805   25.6474 C   0  0  0  0  0  0  0  0  0  0  0  0
    5.8660  -15.2253   25.6716 C   0  0  0  0  0  0  0  0  0  0  0  0
    5.3165  -14.0518   25.9990 N   0  0  0  0  0  0  0  0  0  0  0  0
    6.2904  -13.1513   26.1869 C   0  0  0  0  0  0  0  0  0  0  0  0
    6.2801  -11.8069   26.5345 C   0  0  0  0  0  0  0  0  0  0  0  0
    7.4477  -11.0739   26.6709 C   0  0  0  0  0  0  0  0  0  0  0  0
    8.6618  -11.6889   26.4577 C   0  0  0  0  0  0  0  0  0  0  0  0
    8.6797  -13.0218   26.1128 C   0  0  0  0  0  0  0  0  0  0  0  0
    7.5006  -13.7510   25.9775 C   0  0  0  0  0  0  0  0  0  0  0  0
    9.9812  -16.9282   23.8072 C   0  0  0  0  0  0  0  0  0  0  0  0
    9.8073  -18.1774   23.7361 O   0  0  0  0  0  0  0  0  0  0  0  0
   14.6673  -17.8963   22.8457 C   0  0  0  0  0  0  0  0  0  0  0  0
   13.6334  -16.8056   23.0105 C   0  0  1  0  0  0  0  0  0  0  0  0
   13.4572  -16.1348   21.6718 C   0  0  0  0  0  0  0  0  0  0  0  0
   12.3803  -17.4238   23.5530 C   0  0  2  0  0  0  0  0  0  0  0  0
   11.3127  -16.4645   23.7133 N   0  0  0  0  0  0  0  0  0  0  0  0
   12.7532  -18.0211   24.8824 C   0  0  0  0  0  0  0  0  0  0  0  0
   13.5537  -19.1680   24.9303 O   0  0  0  0  0  0  0  0  0  0  0  0
   12.3791  -17.5396   25.9622 O   0  0  0  0  0  0  0  0  0  0  0  0
  2  3  1  0
  2  1  1  6
  3  4  1  0
  5  2  1  0
  6  5  2  0
  7  5  1  0
  8  7  1  0
  8  9  1  1
 10  9  1  0
 10 18  1  0
 11 12  1  0
 11 10  2  0
 12 13  1  0
 13 18  2  0
 13 14  1  0
 14 15  2  0
 15 16  1  0
 17 16  2  0
 18 17  1  0
 19 20  2  0
 19  8  1  0
 22 24  1  0
 22 21  1  6
 23 22  1  0
 24 25  1  1
 25 19  1  0
 26 24  1  0
 27 26  1  0
 28 26  2  0
M  END
$$$$
