CWV.pdb
     RDKit          3D

 28 29  0  0  1  0  0  0  0  0999 V2000
    7.4284  -15.5969   19.5634 N   0  0  0  0  0  0  0  0  0  0  0  0
    7.4914  -16.5022   20.6677 C   0  0  1  0  0  0  0  0  0  0  0  0
    7.9256  -17.8614   20.1623 C   0  0  0  0  0  0  0  0  0  0  0  0
    9.5441  -17.7840   19.3475 S   0  0  0  0  0  0  0  0  0  0  0  0
    8.4574  -16.0928   21.7199 C   0  0  0  0  0  0  0  0  0  0  0  0
    9.3519  -15.2367   21.4942 O   0  0  0  0  0  0  0  0  0  0  0  0
    8.4387  -16.6423   23.0568 N   0  0  0  0  0  0  0  0  0  0  0  0
    9.4074  -16.2136   24.0434 C   0  0  1  0  0  0  0  0  0  0  0  0
    8.8024  -16.2182   25.4065 C   0  0  0  0  0  0  0  0  0  0  0  0
    7.5746  -15.4367   25.5687 C   0  0  0  0  0  0  0  0  0  0  0  0
    6.2639  -15.8040   25.4754 C   0  0  0  0  0  0  0  0  0  0  0  0
    5.5015  -14.7327   25.7145 N   0  0  0  0  0  0  0  0  0  0  0  0
    6.2929  -13.6800   25.9603 C   0  0  0  0  0  0  0  0  0  0  0  0
    6.0302  -12.3504   26.2624 C   0  0  0  0  0  0  0  0  0  0  0  0
    7.0441  -11.4318   26.4798 C   0  0  0  0  0  0  0  0  0  0  0  0
    8.3570  -11.8403   26.3964 C   0  0  0  0  0  0  0  0  0  0  0  0
    8.6250  -13.1574   26.0972 C   0  0  0  0  0  0  0  0  0  0  0  0
    7.5992  -14.0742   25.8798 C   0  0  0  0  0  0  0  0  0  0  0  0
   10.6818  -16.9447   23.9920 C   0  0  0  0  0  0  0  0  0  0  0  0
   10.7165  -18.1945   23.8116 O   0  0  0  0  0  0  0  0  0  0  0  0
   15.5027  -17.1742   23.4632 C   0  0  0  0  0  0  0  0  0  0  0  0
   14.3132  -16.2516   23.6032 C   0  0  1  0  0  0  0  0  0  0  0  0
   14.1026  -15.5701   22.2749 C   0  0  0  0  0  0  0  0  0  0  0  0
   13.1407  -17.0629   24.0656 C   0  0  2  0  0  0  0  0  0  0  0  0
   11.9243  -16.2881   24.1396 N   0  0  0  0  0  0  0  0  0  0  0  0
   13.5106  -17.5908   25.4249 C   0  0  0  0  0  0  0  0  0  0  0  0
   14.4564  -18.6157   25.5400 O   0  0  0  0  0  0  0  0  0  0  0  0
   13.0089  -17.1555   26.4721 O   0  0  0  0  0  0  0  0  0  0  0  0
  2  3  1  0
  2  1  1  6
  3  4  1  0
  5  2  1  0
  6  5  2  0
  7  5  1  0
  8  7  1  0
  8  9  1  1
 10  9  1  0
 10 18  1  0
 11 12  1  0
 11 10  2  0
 12 13  1  0
 13 18  2  0
 13 14  1  0
 14 15  2  0
 15 16  1  0
 17 16  2  0
 18 17  1  0
 19 20  2  0
 19  8  1  0
 22 24  1  0
 22 21  1  6
 23 22  1  0
 24 25  1  1
 25 19  1  0
 26 24  1  0
 27 26  1  0
 28 26  2  0
M  END
$$$$
