CWV.pdb
     RDKit          3D

 28 29  0  0  1  0  0  0  0  0999 V2000
    7.9863  -14.4914   20.0423 N   0  0  0  0  0  0  0  0  0  0  0  0
    8.0679  -15.6752   20.8393 C   0  0  1  0  0  0  0  0  0  0  0  0
    8.9145  -16.6977   20.1119 C   0  0  0  0  0  0  0  0  0  0  0  0
    8.9544  -18.2807   20.9961 S   0  0  0  0  0  0  0  0  0  0  0  0
    8.6880  -15.4553   22.1715 C   0  0  0  0  0  0  0  0  0  0  0  0
    9.6092  -14.6139   22.3373 O   0  0  0  0  0  0  0  0  0  0  0  0
    8.2837  -16.1830   23.3532 N   0  0  0  0  0  0  0  0  0  0  0  0
    8.9015  -15.9109   24.6337 C   0  0  1  0  0  0  0  0  0  0  0  0
    7.8841  -15.9473   25.7235 C   0  0  0  0  0  0  0  0  0  0  0  0
    6.8220  -14.9420   25.6467 C   0  0  0  0  0  0  0  0  0  0  0  0
    5.4832  -15.0736   25.4184 C   0  0  0  0  0  0  0  0  0  0  0  0
    4.9228  -13.8607   25.4504 N   0  0  0  0  0  0  0  0  0  0  0  0
    5.8722  -12.9477   25.6947 C   0  0  0  0  0  0  0  0  0  0  0  0
    5.8422  -11.5659   25.8293 C   0  0  0  0  0  0  0  0  0  0  0  0
    6.9854  -10.8274   26.0876 C   0  0  0  0  0  0  0  0  0  0  0  0
    8.1945  -11.4747   26.2171 C   0  0  0  0  0  0  0  0  0  0  0  0
    8.2319  -12.8448   26.0848 C   0  0  0  0  0  0  0  0  0  0  0  0
    7.0773  -13.5794   25.8247 C   0  0  0  0  0  0  0  0  0  0  0  0
   10.0705  -16.7523   24.9283 C   0  0  0  0  0  0  0  0  0  0  0  0
   10.1741  -17.9214   24.4611 O   0  0  0  0  0  0  0  0  0  0  0  0
   13.9740  -15.6990   25.4587 C   0  0  0  0  0  0  0  0  0  0  0  0
   13.4148  -16.5215   26.5973 C   0  0  1  0  0  0  0  0  0  0  0  0
   13.1782  -15.5925   27.7610 C   0  0  0  0  0  0  0  0  0  0  0  0
   12.1796  -17.2182   26.1116 C   0  0  2  0  0  0  0  0  0  0  0  0
   11.1309  -16.2962   25.7432 N   0  0  0  0  0  0  0  0  0  0  0  0
   11.7286  -18.1015   27.2428 C   0  0  0  0  0  0  0  0  0  0  0  0
   12.5058  -19.2030   27.6184 O   0  0  0  0  0  0  0  0  0  0  0  0
   10.6799  -17.9000   27.8733 O   0  0  0  0  0  0  0  0  0  0  0  0
  2  3  1  0
  2  1  1  6
  3  4  1  0
  5  2  1  0
  6  5  2  0
  7  5  1  0
  8  7  1  0
  8  9  1  1
 10  9  1  0
 10 18  1  0
 11 12  1  0
 11 10  2  0
 12 13  1  0
 13 18  2  0
 13 14  1  0
 14 15  2  0
 15 16  1  0
 17 16  2  0
 18 17  1  0
 19 20  2  0
 19  8  1  0
 22 24  1  0
 22 21  1  6
 23 22  1  0
 24 25  1  1
 25 19  1  0
 26 24  1  0
 27 26  1  0
 28 26  2  0
M  END
$$$$
