CWV.pdb
     RDKit          3D

 28 29  0  0  1  0  0  0  0  0999 V2000
    8.7590  -17.3359   18.7022 N   0  0  0  0  0  0  0  0  0  0  0  0
    8.0338  -17.6683   19.8884 C   0  0  1  0  0  0  0  0  0  0  0  0
    8.0312  -19.1728   20.0552 C   0  0  0  0  0  0  0  0  0  0  0  0
    7.4253  -19.6610   21.6935 S   0  0  0  0  0  0  0  0  0  0  0  0
    8.6165  -17.0875   21.1257 C   0  0  0  0  0  0  0  0  0  0  0  0
    9.8504  -17.1530   21.3650 O   0  0  0  0  0  0  0  0  0  0  0  0
    7.8183  -16.4177   22.1276 N   0  0  0  0  0  0  0  0  0  0  0  0
    8.4401  -15.8415   23.3010 C   0  0  1  0  0  0  0  0  0  0  0  0
    7.6278  -14.7020   23.8169 C   0  0  0  0  0  0  0  0  0  0  0  0
    8.0688  -14.1196   25.0861 C   0  0  0  0  0  0  0  0  0  0  0  0
    9.2276  -14.2820   25.7879 C   0  0  0  0  0  0  0  0  0  0  0  0
    9.1681  -13.5303   26.8913 N   0  0  0  0  0  0  0  0  0  0  0  0
    7.9943  -12.8851   26.9171 C   0  0  0  0  0  0  0  0  0  0  0  0
    7.4257  -11.9932   27.8167 C   0  0  0  0  0  0  0  0  0  0  0  0
    6.1674  -11.4492   27.6169 C   0  0  0  0  0  0  0  0  0  0  0  0
    5.4500  -11.7975   26.4937 C   0  0  0  0  0  0  0  0  0  0  0  0
    6.0075  -12.6815   25.5972 C   0  0  0  0  0  0  0  0  0  0  0  0
    7.2734  -13.2238   25.8063 C   0  0  0  0  0  0  0  0  0  0  0  0
    8.7668  -16.8186   24.3497 C   0  0  0  0  0  0  0  0  0  0  0  0
    7.8972  -17.6175   24.7984 O   0  0  0  0  0  0  0  0  0  0  0  0
   11.6357  -19.1951   23.9339 C   0  0  0  0  0  0  0  0  0  0  0  0
   11.7298  -18.6524   25.3418 C   0  0  1  0  0  0  0  0  0  0  0  0
   12.8699  -17.6664   25.3780 C   0  0  0  0  0  0  0  0  0  0  0  0
   10.4013  -18.0629   25.7083 C   0  0  2  0  0  0  0  0  0  0  0  0
   10.0635  -16.9126   24.9032 N   0  0  0  0  0  0  0  0  0  0  0  0
   10.5035  -17.6769   27.1586 C   0  0  0  0  0  0  0  0  0  0  0  0
   10.6090  -18.6711   28.1379 O   0  0  0  0  0  0  0  0  0  0  0  0
   10.4984  -16.4970   27.5401 O   0  0  0  0  0  0  0  0  0  0  0  0
  2  3  1  0
  2  1  1  6
  3  4  1  0
  5  2  1  0
  6  5  2  0
  7  5  1  0
  8  7  1  0
  8  9  1  1
 10  9  1  0
 10 18  1  0
 11 12  1  0
 11 10  2  0
 12 13  1  0
 13 18  2  0
 13 14  1  0
 14 15  2  0
 15 16  1  0
 17 16  2  0
 18 17  1  0
 19 20  2  0
 19  8  1  0
 22 24  1  0
 22 21  1  6
 23 22  1  0
 24 25  1  6
 25 19  1  0
 26 24  1  0
 27 26  1  0
 28 26  2  0
M  END
$$$$
