AHM.pdb
     RDKit          3D

 24 24  0  0  1  0  0  0  0  0999 V2000
    7.2915  -12.5490   18.5464 C   0  0  0  0  0  0  0  0  0  0  0  0
    8.4297  -13.3222   19.1857 C   0  0  2  0  0  0  0  0  0  0  0  0
    9.0520  -14.2305   18.2564 N   0  0  0  0  0  0  0  0  0  0  0  0
    7.9629  -14.0725   20.3684 C   0  0  0  0  0  0  0  0  0  0  0  0
    7.3933  -13.4428   21.3080 O   0  0  0  0  0  0  0  0  0  0  0  0
    8.1493  -15.4522   20.4440 N   0  0  0  0  0  0  0  0  0  0  0  0
    7.7319  -16.1665   21.6806 C   0  0  1  0  0  0  0  0  0  0  0  0
    7.6578  -17.5913   21.3096 C   0  0  0  0  0  0  0  0  0  0  0  0
    8.6947  -18.1394   20.4427 C   0  0  0  0  0  0  0  0  0  0  0  0
    9.8598  -17.6810   19.9191 C   0  0  0  0  0  0  0  0  0  0  0  0
   10.4665  -18.6700   19.2013 N   0  0  0  0  0  0  0  0  0  0  0  0
    9.6724  -19.7367   19.2862 C   0  0  0  0  0  0  0  0  0  0  0  0
    8.6177  -19.4350   20.0204 N   0  0  0  0  0  0  0  0  0  0  0  0
    8.8854  -15.9375   22.6295 C   0  0  0  0  0  0  0  0  0  0  0  0
    9.8502  -15.2724   22.1982 O   0  0  0  0  0  0  0  0  0  0  0  0
    6.7548  -11.4034   27.7091 C   0  0  0  0  0  0  0  0  0  0  0  0
    6.5391  -12.4232   26.2228 S   0  0  0  0  0  0  0  0  0  0  0  0
    7.9599  -13.5723   26.1760 C   0  0  0  0  0  0  0  0  0  0  0  0
    7.8652  -14.5008   25.0014 C   0  0  0  0  0  0  0  0  0  0  0  0
    8.9890  -15.4735   25.0294 C   0  0  2  0  0  0  0  0  0  0  0  0
    8.8826  -16.4518   23.9549 N   0  0  0  0  0  0  0  0  0  0  0  0
    8.9527  -16.2560   26.2823 C   0  0  0  0  0  0  0  0  0  0  0  0
    8.1028  -17.2128   26.3552 O   0  0  0  0  0  0  0  0  0  0  0  0
    9.7663  -16.0410   27.3851 O   0  0  0  0  0  0  0  0  0  0  0  0
  2  1  1  6
  2  3  1  0
  2  4  1  0
  4  5  2  0
  6  4  1  0
  6  7  1  0
  7 14  1  0
  7  8  1  6
  9 10  2  0
  9  8  1  0
 11 10  1  0
 12 13  2  0
 12 11  1  0
 13  9  1  0
 14 15  2  0
 14 21  1  0
 17 18  1  0
 17 16  1  0
 19 18  1  0
 20 19  1  1
 21 20  1  0
 22 20  1  0
 22 24  1  0
 23 22  2  0
M  END
$$$$
