AHM.pdb
     RDKit          3D

 24 24  0  0  1  0  0  0  0  0999 V2000
   11.9526  -18.8830   21.0369 C   0  0  0  0  0  0  0  0  0  0  0  0
   11.4241  -17.8388   20.0713 C   0  0  2  0  0  0  0  0  0  0  0  0
   12.4410  -17.3896   19.1548 N   0  0  0  0  0  0  0  0  0  0  0  0
   10.8686  -16.6789   20.7961 C   0  0  0  0  0  0  0  0  0  0  0  0
   11.6613  -15.7967   21.2402 O   0  0  0  0  0  0  0  0  0  0  0  0
    9.4921  -16.5620   20.9858 N   0  0  0  0  0  0  0  0  0  0  0  0
    8.9595  -15.3407   21.6477 C   0  0  1  0  0  0  0  0  0  0  0  0
    7.7169  -15.0091   20.9271 C   0  0  0  0  0  0  0  0  0  0  0  0
    7.8191  -14.3400   19.6352 C   0  0  0  0  0  0  0  0  0  0  0  0
    8.2629  -13.1323   19.2038 C   0  0  0  0  0  0  0  0  0  0  0  0
    8.1679  -13.0619   17.8446 N   0  0  0  0  0  0  0  0  0  0  0  0
    7.6662  -14.2289   17.4423 C   0  0  0  0  0  0  0  0  0  0  0  0
    7.4551  -14.9964   18.4953 N   0  0  0  0  0  0  0  0  0  0  0  0
    8.6374  -15.8076   23.0482 C   0  0  0  0  0  0  0  0  0  0  0  0
    8.6457  -17.0398   23.2505 O   0  0  0  0  0  0  0  0  0  0  0  0
    5.3202  -11.1647   26.9279 C   0  0  0  0  0  0  0  0  0  0  0  0
    6.7487  -12.1763   27.4096 S   0  0  0  0  0  0  0  0  0  0  0  0
    6.8980  -13.4904   26.1478 C   0  0  0  0  0  0  0  0  0  0  0  0
    8.0339  -14.4176   26.4655 C   0  0  0  0  0  0  0  0  0  0  0  0
    8.1408  -15.4688   25.4197 C   0  0  2  0  0  0  0  0  0  0  0  0
    8.3368  -14.8941   24.0953 N   0  0  0  0  0  0  0  0  0  0  0  0
    6.8789  -16.2332   25.3368 C   0  0  0  0  0  0  0  0  0  0  0  0
    6.5797  -16.9864   26.3298 O   0  0  0  0  0  0  0  0  0  0  0  0
    5.9901  -16.1992   24.2722 O   0  0  0  0  0  0  0  0  0  0  0  0
  2  1  1  1
  2  3  1  0
  2  4  1  0
  4  5  2  0
  6  4  1  0
  6  7  1  0
  7 14  1  0
  7  8  1  6
  9 10  2  0
  9  8  1  0
 11 10  1  0
 12 13  2  0
 12 11  1  0
 13  9  1  0
 14 15  2  0
 14 21  1  0
 17 18  1  0
 17 16  1  0
 19 18  1  0
 20 19  1  1
 21 20  1  0
 22 20  1  0
 22 24  1  0
 23 22  2  0
M  END
$$$$
