AHM.pdb
     RDKit          3D

 24 24  0  0  1  0  0  0  0  0999 V2000
    7.3316  -13.0637   18.1476 C   0  0  0  0  0  0  0  0  0  0  0  0
    8.5309  -13.2430   19.0593 C   0  0  2  0  0  0  0  0  0  0  0  0
    9.7160  -13.6059   18.3247 N   0  0  0  0  0  0  0  0  0  0  0  0
    8.2631  -14.2613   20.0941 C   0  0  0  0  0  0  0  0  0  0  0  0
    7.2480  -14.1257   20.8391 O   0  0  0  0  0  0  0  0  0  0  0  0
    9.1179  -15.3526   20.2442 N   0  0  0  0  0  0  0  0  0  0  0  0
    8.7951  -16.3821   21.2686 C   0  0  1  0  0  0  0  0  0  0  0  0
    9.7155  -17.5036   21.0074 C   0  0  0  0  0  0  0  0  0  0  0  0
    9.6968  -18.6450   21.9152 C   0  0  0  0  0  0  0  0  0  0  0  0
    8.9857  -18.9925   23.0175 C   0  0  0  0  0  0  0  0  0  0  0  0
    9.3638  -20.2331   23.4412 N   0  0  0  0  0  0  0  0  0  0  0  0
   10.3073  -20.6470   22.5962 C   0  0  0  0  0  0  0  0  0  0  0  0
   10.5139  -19.7138   21.6857 N   0  0  0  0  0  0  0  0  0  0  0  0
    9.1547  -15.7099   22.5733 C   0  0  0  0  0  0  0  0  0  0  0  0
   10.1792  -14.9960   22.5792 O   0  0  0  0  0  0  0  0  0  0  0  0
    6.5582  -10.9192   27.7830 C   0  0  0  0  0  0  0  0  0  0  0  0
    6.0759  -12.1746   26.5636 S   0  0  0  0  0  0  0  0  0  0  0  0
    7.5885  -13.1254   26.1775 C   0  0  0  0  0  0  0  0  0  0  0  0
    7.3391  -14.1135   25.0764 C   0  0  0  0  0  0  0  0  0  0  0  0
    8.5732  -14.8971   24.8064 C   0  0  2  0  0  0  0  0  0  0  0  0
    8.3695  -15.8761   23.7467 N   0  0  0  0  0  0  0  0  0  0  0  0
    8.9496  -15.6800   26.0017 C   0  0  0  0  0  0  0  0  0  0  0  0
    9.2722  -15.0271   27.0565 O   0  0  0  0  0  0  0  0  0  0  0  0
    8.9792  -17.0651   26.0757 O   0  0  0  0  0  0  0  0  0  0  0  0
  2  1  1  6
  2  3  1  0
  2  4  1  0
  4  5  2  0
  6  4  1  0
  6  7  1  0
  7 14  1  0
  7  8  1  6
  9 10  2  0
  9  8  1  0
 11 10  1  0
 12 13  2  0
 12 11  1  0
 13  9  1  0
 14 15  2  0
 14 21  1  0
 17 18  1  0
 17 16  1  0
 19 18  1  0
 20 19  1  1
 21 20  1  0
 22 20  1  0
 22 24  1  0
 23 22  2  0
M  END
$$$$
