AHM.pdb
     RDKit          3D

 24 24  0  0  1  0  0  0  0  0999 V2000
    7.4032  -13.0480   18.2819 C   0  0  0  0  0  0  0  0  0  0  0  0
    8.5835  -13.2933   19.2030 C   0  0  2  0  0  0  0  0  0  0  0  0
    9.7486  -13.7342   18.4792 N   0  0  0  0  0  0  0  0  0  0  0  0
    8.2470  -14.2850   20.2437 C   0  0  0  0  0  0  0  0  0  0  0  0
    7.2042  -14.1117   20.9411 O   0  0  0  0  0  0  0  0  0  0  0  0
    9.0683  -15.3925   20.4509 N   0  0  0  0  0  0  0  0  0  0  0  0
    8.6405  -16.4314   21.4263 C   0  0  1  0  0  0  0  0  0  0  0  0
    9.4077  -17.6413   21.0789 C   0  0  0  0  0  0  0  0  0  0  0  0
    8.8183  -18.5950   20.1461 C   0  0  0  0  0  0  0  0  0  0  0  0
    7.6491  -18.6833   19.4629 C   0  0  0  0  0  0  0  0  0  0  0  0
    7.6562  -19.7961   18.6735 N   0  0  0  0  0  0  0  0  0  0  0  0
    8.8324  -20.3901   18.8725 C   0  0  0  0  0  0  0  0  0  0  0  0
    9.5314  -19.6870   19.7440 N   0  0  0  0  0  0  0  0  0  0  0  0
    9.1084  -15.8849   22.7551 C   0  0  0  0  0  0  0  0  0  0  0  0
   10.1930  -15.2662   22.7630 O   0  0  0  0  0  0  0  0  0  0  0  0
    6.8569  -10.9730   27.9486 C   0  0  0  0  0  0  0  0  0  0  0  0
    6.3407  -12.1042   26.6259 S   0  0  0  0  0  0  0  0  0  0  0  0
    7.7232  -13.2745   26.3804 C   0  0  0  0  0  0  0  0  0  0  0  0
    7.4331  -14.2250   25.2563 C   0  0  0  0  0  0  0  0  0  0  0  0
    8.6064  -15.1067   25.0196 C   0  0  2  0  0  0  0  0  0  0  0  0
    8.3559  -16.0619   23.9483 N   0  0  0  0  0  0  0  0  0  0  0  0
    8.8798  -15.9222   26.2211 C   0  0  0  0  0  0  0  0  0  0  0  0
    8.5842  -17.1683   26.1676 O   0  0  0  0  0  0  0  0  0  0  0  0
    9.4337  -15.4488   27.4017 O   0  0  0  0  0  0  0  0  0  0  0  0
  2  1  1  6
  2  3  1  0
  2  4  1  0
  4  5  2  0
  6  4  1  0
  6  7  1  0
  7 14  1  0
  7  8  1  6
  9 10  2  0
  9  8  1  0
 11 10  1  0
 12 13  2  0
 12 11  1  0
 13  9  1  0
 14 15  2  0
 14 21  1  0
 17 18  1  0
 17 16  1  0
 19 18  1  0
 20 19  1  1
 21 20  1  0
 22 20  1  0
 22 24  1  0
 23 22  2  0
M  END
$$$$
