AHM.pdb
     RDKit          3D

 24 24  0  0  1  0  0  0  0  0999 V2000
    8.6429  -12.1908   19.1462 C   0  0  0  0  0  0  0  0  0  0  0  0
    8.3784  -13.6234   18.7224 C   0  0  2  0  0  0  0  0  0  0  0  0
    7.1664  -13.7418   17.9524 N   0  0  0  0  0  0  0  0  0  0  0  0
    8.3056  -14.5185   19.8941 C   0  0  0  0  0  0  0  0  0  0  0  0
    7.1787  -14.7378   20.4288 O   0  0  0  0  0  0  0  0  0  0  0  0
    9.4626  -15.1099   20.3998 N   0  0  0  0  0  0  0  0  0  0  0  0
    9.3326  -16.1867   21.4182 C   0  0  1  0  0  0  0  0  0  0  0  0
   10.5322  -17.0289   21.2601 C   0  0  0  0  0  0  0  0  0  0  0  0
   10.7185  -18.1524   22.1712 C   0  0  0  0  0  0  0  0  0  0  0  0
   10.0355  -18.6665   23.2252 C   0  0  0  0  0  0  0  0  0  0  0  0
   10.6624  -19.7896   23.6805 N   0  0  0  0  0  0  0  0  0  0  0  0
   11.7306  -19.9646   22.9035 C   0  0  0  0  0  0  0  0  0  0  0  0
   11.7751  -18.9998   22.0036 N   0  0  0  0  0  0  0  0  0  0  0  0
    9.3917  -15.4422   22.7318 C   0  0  0  0  0  0  0  0  0  0  0  0
   10.2423  -14.5333   22.8299 O   0  0  0  0  0  0  0  0  0  0  0  0
    6.6435  -11.0359   28.0143 C   0  0  0  0  0  0  0  0  0  0  0  0
    6.1033  -12.3833   26.9242 S   0  0  0  0  0  0  0  0  0  0  0  0
    7.5894  -13.3875   26.5713 C   0  0  0  0  0  0  0  0  0  0  0  0
    7.4242  -14.1687   25.3012 C   0  0  0  0  0  0  0  0  0  0  0  0
    8.6628  -14.9384   25.0122 C   0  0  2  0  0  0  0  0  0  0  0  0
    8.5234  -15.7544   23.8133 N   0  0  0  0  0  0  0  0  0  0  0  0
    8.9374  -15.8897   26.1089 C   0  0  0  0  0  0  0  0  0  0  0  0
    9.0961  -15.4041   27.2845 O   0  0  0  0  0  0  0  0  0  0  0  0
    9.0343  -17.2666   25.9698 O   0  0  0  0  0  0  0  0  0  0  0  0
  2  1  1  1
  2  3  1  0
  2  4  1  0
  4  5  2  0
  6  4  1  0
  6  7  1  0
  7 14  1  0
  7  8  1  1
  9 10  2  0
  9  8  1  0
 11 10  1  0
 12 13  2  0
 12 11  1  0
 13  9  1  0
 14 15  2  0
 14 21  1  0
 17 18  1  0
 17 16  1  0
 19 18  1  0
 20 19  1  1
 21 20  1  0
 22 20  1  0
 22 24  1  0
 23 22  2  0
M  END
$$$$
