AHM.pdb
     RDKit          3D

 24 24  0  0  1  0  0  0  0  0999 V2000
    8.3729  -12.2775   19.9003 C   0  0  0  0  0  0  0  0  0  0  0  0
    8.2593  -13.6576   19.2802 C   0  0  2  0  0  0  0  0  0  0  0  0
    7.0703  -13.7907   18.4775 N   0  0  0  0  0  0  0  0  0  0  0  0
    8.2721  -14.7079   20.3175 C   0  0  0  0  0  0  0  0  0  0  0  0
    7.1704  -15.1139   20.7923 O   0  0  0  0  0  0  0  0  0  0  0  0
    9.4810  -15.2406   20.7636 N   0  0  0  0  0  0  0  0  0  0  0  0
    9.4547  -16.3532   21.7510 C   0  0  1  0  0  0  0  0  0  0  0  0
   10.6719  -17.1431   21.4907 C   0  0  0  0  0  0  0  0  0  0  0  0
   10.5958  -18.2451   20.5384 C   0  0  0  0  0  0  0  0  0  0  0  0
    9.6069  -18.8395   19.8239 C   0  0  0  0  0  0  0  0  0  0  0  0
   10.1318  -19.8172   19.0302 N   0  0  0  0  0  0  0  0  0  0  0  0
   11.4447  -19.8211   19.2578 C   0  0  0  0  0  0  0  0  0  0  0  0
   11.7330  -18.8926   20.1507 N   0  0  0  0  0  0  0  0  0  0  0  0
    9.5693  -15.6487   23.0829 C   0  0  0  0  0  0  0  0  0  0  0  0
   10.5040  -14.8310   23.2127 O   0  0  0  0  0  0  0  0  0  0  0  0
    5.7895  -11.5442   26.6252 C   0  0  0  0  0  0  0  0  0  0  0  0
    7.5704  -11.8038   26.8632 S   0  0  0  0  0  0  0  0  0  0  0  0
    7.8145  -13.6106   26.9943 C   0  0  0  0  0  0  0  0  0  0  0  0
    7.6519  -14.2758   25.6594 C   0  0  0  0  0  0  0  0  0  0  0  0
    8.8457  -15.1084   25.3566 C   0  0  2  0  0  0  0  0  0  0  0  0
    8.6597  -15.8983   24.1467 N   0  0  0  0  0  0  0  0  0  0  0  0
    9.0691  -16.0889   26.4392 C   0  0  0  0  0  0  0  0  0  0  0  0
    8.8700  -17.3251   26.1651 O   0  0  0  0  0  0  0  0  0  0  0  0
    9.4801  -15.7801   27.7277 O   0  0  0  0  0  0  0  0  0  0  0  0
  2  1  1  1
  2  3  1  0
  2  4  1  0
  4  5  2  0
  6  4  1  0
  6  7  1  0
  7 14  1  0
  7  8  1  6
  9 10  2  0
  9  8  1  0
 11 10  1  0
 12 13  2  0
 12 11  1  0
 13  9  1  0
 14 15  2  0
 14 21  1  0
 17 18  1  0
 17 16  1  0
 19 18  1  0
 20 19  1  1
 21 20  1  0
 22 20  1  0
 22 24  1  0
 23 22  2  0
M  END
$$$$
