AHM.pdb
     RDKit          3D

 24 24  0  0  1  0  0  0  0  0999 V2000
    8.3609  -12.1023   19.8686 C   0  0  0  0  0  0  0  0  0  0  0  0
    8.4552  -13.4875   19.2570 C   0  0  2  0  0  0  0  0  0  0  0  0
    7.5432  -13.6520   18.1539 N   0  0  0  0  0  0  0  0  0  0  0  0
    8.1976  -14.5323   20.2677 C   0  0  0  0  0  0  0  0  0  0  0  0
    7.0077  -14.9234   20.4553 O   0  0  0  0  0  0  0  0  0  0  0  0
    9.2515  -15.0760   21.0010 N   0  0  0  0  0  0  0  0  0  0  0  0
    8.9648  -16.1708   21.9668 C   0  0  1  0  0  0  0  0  0  0  0  0
    9.6813  -17.3517   21.4516 C   0  0  0  0  0  0  0  0  0  0  0  0
    8.9839  -18.2413   20.5300 C   0  0  0  0  0  0  0  0  0  0  0  0
    7.7672  -18.2507   19.9291 C   0  0  0  0  0  0  0  0  0  0  0  0
    7.6666  -19.3314   19.1024 N   0  0  0  0  0  0  0  0  0  0  0  0
    8.8242  -19.9847   19.1959 C   0  0  0  0  0  0  0  0  0  0  0  0
    9.6147  -19.3479   20.0398 N   0  0  0  0  0  0  0  0  0  0  0  0
    9.6085  -15.6922   23.2474 C   0  0  0  0  0  0  0  0  0  0  0  0
   10.8089  -15.3536   23.1859 O   0  0  0  0  0  0  0  0  0  0  0  0
    5.6629  -11.7857   26.2811 C   0  0  0  0  0  0  0  0  0  0  0  0
    7.4280  -12.0173   26.6368 S   0  0  0  0  0  0  0  0  0  0  0  0
    7.8782  -13.6562   25.9639 C   0  0  0  0  0  0  0  0  0  0  0  0
    9.3338  -13.9478   26.1809 C   0  0  0  0  0  0  0  0  0  0  0  0
    9.6649  -15.3009   25.6618 C   0  0  2  0  0  0  0  0  0  0  0  0
    8.8895  -15.6268   24.4721 N   0  0  0  0  0  0  0  0  0  0  0  0
    9.3084  -16.3296   26.6607 C   0  0  0  0  0  0  0  0  0  0  0  0
    9.8457  -16.2359   27.8207 O   0  0  0  0  0  0  0  0  0  0  0  0
    8.4367  -17.3872   26.4458 O   0  0  0  0  0  0  0  0  0  0  0  0
  2  1  1  1
  2  3  1  0
  2  4  1  0
  4  5  2  0
  6  4  1  0
  6  7  1  0
  7 14  1  0
  7  8  1  6
  9 10  2  0
  9  8  1  0
 11 10  1  0
 12 13  2  0
 12 11  1  0
 13  9  1  0
 14 15  2  0
 14 21  1  0
 17 18  1  0
 17 16  1  0
 19 18  1  0
 20 19  1  1
 21 20  1  0
 22 20  1  0
 22 24  1  0
 23 22  2  0
M  END
$$$$
