EVR.pdb
     RDKit          3D

 28 27  0  0  1  0  0  0  0  0999 V2000
   23.1201  -20.2010  -16.0427 N   0  0  0  0  0  0  0  0  0  0  0  0
   21.9625  -19.7528  -15.2541 C   0  0  1  0  0  0  0  0  0  0  0  0
   20.7106  -19.9661  -16.1083 C   0  0  0  0  0  0  0  0  0  0  0  0
   20.1895  -18.6530  -16.6173 C   0  0  0  0  0  0  0  0  0  0  0  0
   19.2185  -18.0541  -15.7053 C   0  0  0  0  0  0  0  0  0  0  0  0
   19.2370  -16.8666  -15.4021 O   0  0  0  0  0  0  0  0  0  0  0  0
   21.8195  -20.6421  -14.0658 C   0  0  0  0  0  0  0  0  0  0  0  0
   22.3381  -21.7862  -14.0552 O   0  0  0  0  0  0  0  0  0  0  0  0
   18.2175  -18.8717  -15.1522 O   0  0  0  0  0  0  0  0  0  0  0  0
   20.1620  -18.6961  -10.6654 C   0  0  0  0  0  0  0  0  0  0  0  0
   21.1485  -19.8338  -10.6233 C   0  0  1  0  0  0  0  0  0  0  0  0
   20.9026  -20.5241   -9.2695 C   0  0  0  0  0  0  0  0  0  0  0  0
   20.9823  -20.8678  -11.6648 C   0  0  2  0  0  0  0  0  0  0  0  0
   21.0997  -20.1888  -12.9644 N   0  0  0  0  0  0  0  0  0  0  0  0
   19.7344  -21.6184  -11.7224 C   0  0  0  0  0  0  0  0  0  0  0  0
   18.6351  -20.9853  -11.8748 O   0  0  0  0  0  0  0  0  0  0  0  0
   18.0588  -26.5696   -4.9349 N   0  0  0  0  0  0  0  0  0  0  0  0
   17.2034  -25.4954   -5.3189 C   0  0  0  0  0  0  0  0  0  0  0  0
   16.3850  -25.0118   -4.4308 N   0  0  0  0  0  0  0  0  0  0  0  0
   17.2113  -24.9368   -6.6244 N   0  0  0  0  0  0  0  0  0  0  0  0
   17.9025  -25.6608   -7.7160 C   0  0  0  0  0  0  0  0  0  0  0  0
   17.6224  -24.8973   -8.9727 C   0  0  0  0  0  0  0  0  0  0  0  0
   18.7718  -24.2440   -9.6285 C   0  0  0  0  0  0  0  0  0  0  0  0
   18.4458  -23.6426  -10.9607 C   0  0  2  0  0  0  0  0  0  0  0  0
   19.5653  -23.0175  -11.6286 N   0  0  0  0  0  0  0  0  0  0  0  0
   17.2668  -22.7632  -10.8654 C   0  0  0  0  0  0  0  0  0  0  0  0
   17.3637  -21.6794  -10.2484 O   0  0  0  0  0  0  0  0  0  0  0  0
   16.0745  -23.1129  -11.4376 O   0  0  0  0  0  0  0  0  0  0  0  0
  2  1  1  6
  2  3  1  0
  4  3  1  0
  4  5  1  0
  5  6  2  0
  7  2  1  0
  8  7  2  0
  9  5  1  0
 11 12  1  1
 11 10  1  0
 11 13  1  0
 13 14  1  6
 14  7  1  0
 15 13  1  0
 15 25  1  0
 16 15  2  0
 18 17  1  0
 19 18  2  0
 20 18  1  0
 21 20  1  0
 22 23  1  0
 22 21  1  0
 24 23  1  1
 24 26  1  0
 24 25  1  0
 26 28  1  0
 27 26  2  0
M  END
$$$$
