EVR.pdb
     RDKit          3D

 28 27  0  0  1  0  0  0  0  0999 V2000
   27.7135  -20.5411  -14.3305 N   0  0  0  0  0  0  0  0  0  0  0  0
   26.3548  -20.1402  -13.9354 C   0  0  1  0  0  0  0  0  0  0  0  0
   25.4331  -20.3883  -15.1317 C   0  0  0  0  0  0  0  0  0  0  0  0
   25.8831  -19.5866  -16.3192 C   0  0  0  0  0  0  0  0  0  0  0  0
   26.2912  -20.4358  -17.4352 C   0  0  0  0  0  0  0  0  0  0  0  0
   26.6098  -19.9859  -18.5299 O   0  0  0  0  0  0  0  0  0  0  0  0
   25.8862  -21.0449  -12.8466 C   0  0  0  0  0  0  0  0  0  0  0  0
   26.1176  -22.2787  -12.8944 O   0  0  0  0  0  0  0  0  0  0  0  0
   26.3231  -21.8288  -17.2478 O   0  0  0  0  0  0  0  0  0  0  0  0
   26.6455  -19.9843   -9.3839 C   0  0  0  0  0  0  0  0  0  0  0  0
   25.1942  -20.3877   -9.4077 C   0  0  1  0  0  0  0  0  0  0  0  0
   24.4148  -19.0643   -9.5131 C   0  0  0  0  0  0  0  0  0  0  0  0
   24.7769  -21.2200  -10.5542 C   0  0  2  0  0  0  0  0  0  0  0  0
   25.1847  -20.5046  -11.7731 N   0  0  0  0  0  0  0  0  0  0  0  0
   23.3623  -21.5238  -10.7289 C   0  0  0  0  0  0  0  0  0  0  0  0
   22.8182  -21.3165  -11.8661 O   0  0  0  0  0  0  0  0  0  0  0  0
   16.2817  -25.9986   -6.9762 N   0  0  0  0  0  0  0  0  0  0  0  0
   15.9867  -25.4077   -8.2398 C   0  0  0  0  0  0  0  0  0  0  0  0
   14.7987  -25.5833   -8.7399 N   0  0  0  0  0  0  0  0  0  0  0  0
   16.9335  -24.6396   -8.9680 N   0  0  0  0  0  0  0  0  0  0  0  0
   18.2526  -24.3522   -8.3588 C   0  0  0  0  0  0  0  0  0  0  0  0
   19.0107  -23.5364   -9.3590 C   0  0  0  0  0  0  0  0  0  0  0  0
   20.3902  -23.1526   -9.0011 C   0  0  0  0  0  0  0  0  0  0  0  0
   21.0757  -22.3223  -10.0419 C   0  0  2  0  0  0  0  0  0  0  0  0
   22.4669  -22.0414   -9.7669 N   0  0  0  0  0  0  0  0  0  0  0  0
   20.2923  -21.1118  -10.3476 C   0  0  0  0  0  0  0  0  0  0  0  0
   20.5702  -20.0424   -9.7615 O   0  0  0  0  0  0  0  0  0  0  0  0
   19.2709  -21.1403  -11.2571 O   0  0  0  0  0  0  0  0  0  0  0  0
  2  1  1  6
  2  3  1  0
  4  3  1  0
  4  5  1  0
  5  6  2  0
  7  2  1  0
  8  7  2  0
  9  5  1  0
 11 12  1  6
 11 10  1  0
 11 13  1  0
 13 14  1  6
 14  7  1  0
 15 13  1  0
 15 25  1  0
 16 15  2  0
 18 17  1  0
 19 18  2  0
 20 18  1  0
 21 20  1  0
 22 23  1  0
 22 21  1  0
 24 23  1  1
 24 26  1  0
 24 25  1  0
 26 28  1  0
 27 26  2  0
M  END
$$$$
