EVR.pdb
     RDKit          3D

 28 27  0  0  1  0  0  0  0  0999 V2000
   24.9167  -20.8732  -15.7458 N   0  0  0  0  0  0  0  0  0  0  0  0
   23.7787  -20.4568  -14.9124 C   0  0  1  0  0  0  0  0  0  0  0  0
   22.5012  -20.9557  -15.5916 C   0  0  0  0  0  0  0  0  0  0  0  0
   22.4596  -20.5139  -17.0263 C   0  0  0  0  0  0  0  0  0  0  0  0
   21.8389  -19.2009  -17.1812 C   0  0  0  0  0  0  0  0  0  0  0  0
   21.4813  -18.5189  -16.2276 O   0  0  0  0  0  0  0  0  0  0  0  0
   23.8625  -21.1614  -13.6010 C   0  0  0  0  0  0  0  0  0  0  0  0
   24.2260  -22.3623  -13.5406 O   0  0  0  0  0  0  0  0  0  0  0  0
   21.6446  -18.6943  -18.4781 O   0  0  0  0  0  0  0  0  0  0  0  0
   24.2159  -20.2130   -8.7524 C   0  0  0  0  0  0  0  0  0  0  0  0
   24.2653  -19.9866  -10.2410 C   0  0  1  0  0  0  0  0  0  0  0  0
   25.7599  -20.0504  -10.6041 C   0  0  0  0  0  0  0  0  0  0  0  0
   23.5824  -21.0015  -11.0687 C   0  0  2  0  0  0  0  0  0  0  0  0
   23.5299  -20.4707  -12.4395 N   0  0  0  0  0  0  0  0  0  0  0  0
   22.2140  -21.3785  -10.7382 C   0  0  0  0  0  0  0  0  0  0  0  0
   21.2468  -20.7266  -11.2595 O   0  0  0  0  0  0  0  0  0  0  0  0
   17.3186  -26.7012   -7.7831 N   0  0  0  0  0  0  0  0  0  0  0  0
   16.5893  -25.7597   -6.9988 C   0  0  0  0  0  0  0  0  0  0  0  0
   15.3187  -25.9664   -6.8119 N   0  0  0  0  0  0  0  0  0  0  0  0
   17.1932  -24.6134   -6.4175 N   0  0  0  0  0  0  0  0  0  0  0  0
   18.6579  -24.4290   -6.5375 C   0  0  0  0  0  0  0  0  0  0  0  0
   18.8866  -23.6863   -7.8168 C   0  0  0  0  0  0  0  0  0  0  0  0
   20.2786  -23.3117   -8.1329 C   0  0  0  0  0  0  0  0  0  0  0  0
   20.4258  -22.5677   -9.4242 C   0  0  2  0  0  0  0  0  0  0  0  0
   21.7897  -22.4163   -9.8790 N   0  0  0  0  0  0  0  0  0  0  0  0
   19.6867  -21.2932   -9.3832 C   0  0  0  0  0  0  0  0  0  0  0  0
   20.1344  -20.3516   -8.6923 O   0  0  0  0  0  0  0  0  0  0  0  0
   18.5243  -21.1259  -10.0847 O   0  0  0  0  0  0  0  0  0  0  0  0
  2  1  1  6
  2  3  1  0
  4  3  1  0
  4  5  1  0
  5  6  2  0
  7  2  1  0
  8  7  2  0
  9  5  1  0
 11 12  1  6
 11 10  1  0
 11 13  1  0
 13 14  1  6
 14  7  1  0
 15 13  1  0
 15 25  1  0
 16 15  2  0
 18 17  1  0
 19 18  2  0
 20 18  1  0
 21 20  1  0
 22 23  1  0
 22 21  1  0
 24 23  1  1
 24 26  1  0
 24 25  1  0
 26 28  1  0
 27 26  2  0
M  END
$$$$
