EVR.pdb
     RDKit          3D

 28 27  0  0  1  0  0  0  0  0999 V2000
   24.5039  -16.0611  -19.9949 N   0  0  0  0  0  0  0  0  0  0  0  0
   24.4199  -17.4310  -19.4667 C   0  0  1  0  0  0  0  0  0  0  0  0
   25.8407  -17.9986  -19.4254 C   0  0  0  0  0  0  0  0  0  0  0  0
   26.3810  -18.1690  -20.8161 C   0  0  0  0  0  0  0  0  0  0  0  0
   27.7599  -18.6505  -20.8168 C   0  0  0  0  0  0  0  0  0  0  0  0
   28.3468  -18.9853  -19.7942 O   0  0  0  0  0  0  0  0  0  0  0  0
   23.9479  -17.3712  -18.0535 C   0  0  0  0  0  0  0  0  0  0  0  0
   24.3357  -16.4551  -17.2864 O   0  0  0  0  0  0  0  0  0  0  0  0
   28.4447  -18.7369  -22.0416 O   0  0  0  0  0  0  0  0  0  0  0  0
   20.4601  -17.3993  -17.4015 C   0  0  0  0  0  0  0  0  0  0  0  0
   21.0048  -18.4188  -16.4353 C   0  0  1  0  0  0  0  0  0  0  0  0
   20.6428  -19.7829  -17.0499 C   0  0  0  0  0  0  0  0  0  0  0  0
   22.4700  -18.4105  -16.2502 C   0  0  2  0  0  0  0  0  0  0  0  0
   23.0704  -18.3475  -17.5916 N   0  0  0  0  0  0  0  0  0  0  0  0
   23.1046  -19.5419  -15.5860 C   0  0  0  0  0  0  0  0  0  0  0  0
   23.1114  -20.6797  -16.1672 O   0  0  0  0  0  0  0  0  0  0  0  0
   27.0611  -20.7372   -7.8341 N   0  0  0  0  0  0  0  0  0  0  0  0
   25.6960  -20.9439   -8.1905 C   0  0  0  0  0  0  0  0  0  0  0  0
   24.7957  -20.8612   -7.2552 N   0  0  0  0  0  0  0  0  0  0  0  0
   25.2847  -21.2341   -9.5183 N   0  0  0  0  0  0  0  0  0  0  0  0
   26.3074  -21.5795  -10.5325 C   0  0  0  0  0  0  0  0  0  0  0  0
   25.5787  -21.7365  -11.8305 C   0  0  0  0  0  0  0  0  0  0  0  0
   24.9418  -20.5285  -12.3902 C   0  0  0  0  0  0  0  0  0  0  0  0
   24.3296  -20.7387  -13.7406 C   0  0  2  0  0  0  0  0  0  0  0  0
   23.7444  -19.5538  -14.3268 N   0  0  0  0  0  0  0  0  0  0  0  0
   23.4093  -21.8899  -13.7265 C   0  0  0  0  0  0  0  0  0  0  0  0
   22.2040  -21.7027  -13.4493 O   0  0  0  0  0  0  0  0  0  0  0  0
   23.8512  -23.1532  -14.0095 O   0  0  0  0  0  0  0  0  0  0  0  0
  2  1  1  1
  2  3  1  0
  4  3  1  0
  4  5  1  0
  5  6  2  0
  7  2  1  0
  8  7  2  0
  9  5  1  0
 11 12  1  6
 11 10  1  0
 11 13  1  0
 13 14  1  6
 14  7  1  0
 15 13  1  0
 15 25  1  0
 16 15  2  0
 18 17  1  0
 19 18  2  0
 20 18  1  0
 21 20  1  0
 22 23  1  0
 22 21  1  0
 24 23  1  1
 24 26  1  0
 24 25  1  0
 26 28  1  0
 27 26  2  0
M  END
$$$$
