EVR.pdb
     RDKit          3D

 28 27  0  0  1  0  0  0  0  0999 V2000
   21.5415  -20.9368   -8.5657 N   0  0  0  0  0  0  0  0  0  0  0  0
   21.8485  -21.5228   -9.8792 C   0  0  1  0  0  0  0  0  0  0  0  0
   20.5640  -21.4919  -10.7109 C   0  0  0  0  0  0  0  0  0  0  0  0
   19.5511  -22.4496  -10.1525 C   0  0  0  0  0  0  0  0  0  0  0  0
   18.2738  -22.3740  -10.8567 C   0  0  0  0  0  0  0  0  0  0  0  0
   17.4502  -23.2816  -10.8374 O   0  0  0  0  0  0  0  0  0  0  0  0
   22.8264  -20.6417  -10.5798 C   0  0  0  0  0  0  0  0  0  0  0  0
   22.8553  -19.4069  -10.3509 O   0  0  0  0  0  0  0  0  0  0  0  0
   17.9725  -21.2107  -11.5864 O   0  0  0  0  0  0  0  0  0  0  0  0
   26.1268  -22.6090  -12.3847 C   0  0  0  0  0  0  0  0  0  0  0  0
   26.0327  -21.1684  -11.9541 C   0  0  1  0  0  0  0  0  0  0  0  0
   27.1174  -20.4384  -12.7666 C   0  0  0  0  0  0  0  0  0  0  0  0
   24.7531  -20.4918  -12.2478 C   0  0  2  0  0  0  0  0  0  0  0  0
   23.7094  -21.2054  -11.4958 N   0  0  0  0  0  0  0  0  0  0  0  0
   24.2815  -20.4394  -13.6257 C   0  0  0  0  0  0  0  0  0  0  0  0
   24.0975  -21.5323  -14.2614 O   0  0  0  0  0  0  0  0  0  0  0  0
   18.9376  -16.2327  -15.7392 N   0  0  0  0  0  0  0  0  0  0  0  0
   18.5134  -17.4869  -16.2684 C   0  0  0  0  0  0  0  0  0  0  0  0
   17.3660  -17.5417  -16.8790 N   0  0  0  0  0  0  0  0  0  0  0  0
   19.2905  -18.6701  -16.1557 N   0  0  0  0  0  0  0  0  0  0  0  0
   20.6393  -18.5937  -15.5487 C   0  0  0  0  0  0  0  0  0  0  0  0
   21.5622  -18.1218  -16.6287 C   0  0  0  0  0  0  0  0  0  0  0  0
   22.9991  -18.0550  -16.2985 C   0  0  0  0  0  0  0  0  0  0  0  0
   23.5585  -19.3406  -15.7723 C   0  0  2  0  0  0  0  0  0  0  0  0
   23.9855  -19.2904  -14.3920 N   0  0  0  0  0  0  0  0  0  0  0  0
   24.5934  -19.8722  -16.6772 C   0  0  0  0  0  0  0  0  0  0  0  0
   25.7701  -19.4637  -16.5635 O   0  0  0  0  0  0  0  0  0  0  0  0
   24.2879  -20.8001  -17.6348 O   0  0  0  0  0  0  0  0  0  0  0  0
  2  1  1  1
  2  3  1  0
  4  3  1  0
  4  5  1  0
  5  6  2  0
  7  2  1  0
  8  7  2  0
  9  5  1  0
 11 12  1  6
 11 10  1  0
 11 13  1  0
 13 14  1  1
 14  7  1  0
 15 13  1  0
 15 25  1  0
 16 15  2  0
 18 17  1  0
 19 18  2  0
 20 18  1  0
 21 20  1  0
 22 23  1  0
 22 21  1  0
 24 23  1  6
 24 26  1  0
 24 25  1  0
 26 28  1  0
 27 26  2  0
M  END
$$$$
