EVR.pdb
     RDKit          3D

 28 27  0  0  1  0  0  0  0  0999 V2000
   28.8556  -21.3540  -16.5743 N   0  0  0  0  0  0  0  0  0  0  0  0
   28.0423  -20.4651  -15.7309 C   0  0  1  0  0  0  0  0  0  0  0  0
   27.2307  -19.5602  -16.6608 C   0  0  0  0  0  0  0  0  0  0  0  0
   27.9130  -19.4240  -17.9916 C   0  0  0  0  0  0  0  0  0  0  0  0
   28.0096  -18.0317  -18.4219 C   0  0  0  0  0  0  0  0  0  0  0  0
   27.5852  -17.0982  -17.7503 O   0  0  0  0  0  0  0  0  0  0  0  0
   27.0552  -21.2909  -14.9778 C   0  0  0  0  0  0  0  0  0  0  0  0
   26.7391  -22.4380  -15.3806 O   0  0  0  0  0  0  0  0  0  0  0  0
   28.6171  -17.7469  -19.6573 O   0  0  0  0  0  0  0  0  0  0  0  0
   25.8486  -19.6234  -11.1976 C   0  0  0  0  0  0  0  0  0  0  0  0
   26.0322  -21.0845  -11.5156 C   0  0  1  0  0  0  0  0  0  0  0  0
   25.1113  -21.8253  -10.5292 C   0  0  0  0  0  0  0  0  0  0  0  0
   25.6268  -21.5030  -12.8727 C   0  0  2  0  0  0  0  0  0  0  0  0
   26.4838  -20.7729  -13.8194 N   0  0  0  0  0  0  0  0  0  0  0  0
   24.2579  -21.2575  -13.3085 C   0  0  0  0  0  0  0  0  0  0  0  0
   23.9187  -20.0755  -13.6550 O   0  0  0  0  0  0  0  0  0  0  0  0
   17.0874  -24.0463  -12.9294 N   0  0  0  0  0  0  0  0  0  0  0  0
   16.6384  -23.3910  -14.1135 C   0  0  0  0  0  0  0  0  0  0  0  0
   15.4274  -22.9162  -14.1335 N   0  0  0  0  0  0  0  0  0  0  0  0
   17.4571  -23.2375  -15.2635 N   0  0  0  0  0  0  0  0  0  0  0  0
   18.8316  -23.7892  -15.2509 C   0  0  0  0  0  0  0  0  0  0  0  0
   19.7341  -22.6650  -14.8477 C   0  0  0  0  0  0  0  0  0  0  0  0
   21.0276  -23.0314  -14.2389 C   0  0  0  0  0  0  0  0  0  0  0  0
   21.8782  -21.8545  -13.8731 C   0  0  2  0  0  0  0  0  0  0  0  0
   23.2036  -22.1925  -13.4052 N   0  0  0  0  0  0  0  0  0  0  0  0
   21.1576  -20.9494  -12.9599 C   0  0  0  0  0  0  0  0  0  0  0  0
   21.2197  -21.1519  -11.7272 O   0  0  0  0  0  0  0  0  0  0  0  0
   20.4251  -19.8975  -13.4376 O   0  0  0  0  0  0  0  0  0  0  0  0
  2  1  1  6
  2  3  1  0
  4  3  1  0
  4  5  1  0
  5  6  2  0
  7  2  1  0
  8  7  2  0
  9  5  1  0
 11 12  1  1
 11 10  1  0
 11 13  1  0
 13 14  1  6
 14  7  1  0
 15 13  1  0
 15 25  1  0
 16 15  2  0
 18 17  1  0
 19 18  2  0
 20 18  1  0
 21 20  1  0
 22 23  1  0
 22 21  1  0
 24 23  1  1
 24 26  1  0
 24 25  1  0
 26 28  1  0
 27 26  2  0
M  END
$$$$
