EVR.pdb
     RDKit          3D

 28 27  0  0  1  0  0  0  0  0999 V2000
   20.0299  -21.6277  -20.2228 N   0  0  0  0  0  0  0  0  0  0  0  0
   19.6262  -21.3867  -18.8293 C   0  0  1  0  0  0  0  0  0  0  0  0
   19.4432  -22.7501  -18.1585 C   0  0  0  0  0  0  0  0  0  0  0  0
   18.0447  -23.2564  -18.3658 C   0  0  0  0  0  0  0  0  0  0  0  0
   17.0576  -22.4633  -17.6379 C   0  0  0  0  0  0  0  0  0  0  0  0
   16.3424  -21.6305  -18.1830 O   0  0  0  0  0  0  0  0  0  0  0  0
   20.7483  -20.7121  -18.1156 C   0  0  0  0  0  0  0  0  0  0  0  0
   21.9417  -20.9534  -18.4246 O   0  0  0  0  0  0  0  0  0  0  0  0
   16.9181  -22.6635  -16.2533 O   0  0  0  0  0  0  0  0  0  0  0  0
   20.7769  -17.1712  -17.9201 C   0  0  0  0  0  0  0  0  0  0  0  0
   21.0742  -17.6007  -16.5071 C   0  0  1  0  0  0  0  0  0  0  0  0
   19.7601  -17.3756  -15.7376 C   0  0  0  0  0  0  0  0  0  0  0  0
   21.4335  -19.0222  -16.3292 C   0  0  2  0  0  0  0  0  0  0  0  0
   20.4568  -19.8096  -17.0972 N   0  0  0  0  0  0  0  0  0  0  0  0
   21.4303  -19.5891  -14.9867 C   0  0  0  0  0  0  0  0  0  0  0  0
   20.3127  -19.8506  -14.4254 O   0  0  0  0  0  0  0  0  0  0  0  0
   28.0514  -21.3843   -9.4519 N   0  0  0  0  0  0  0  0  0  0  0  0
   27.2935  -21.2741  -10.6546 C   0  0  0  0  0  0  0  0  0  0  0  0
   27.8264  -21.7050  -11.7603 N   0  0  0  0  0  0  0  0  0  0  0  0
   25.9881  -20.7164  -10.6911 N   0  0  0  0  0  0  0  0  0  0  0  0
   24.8734  -21.4432  -10.0407 C   0  0  0  0  0  0  0  0  0  0  0  0
   23.6178  -20.9746  -10.7075 C   0  0  0  0  0  0  0  0  0  0  0  0
   23.7435  -20.4644  -12.0866 C   0  0  0  0  0  0  0  0  0  0  0  0
   22.4408  -20.3793  -12.8205 C   0  0  2  0  0  0  0  0  0  0  0  0
   22.5473  -19.9048  -14.1819 N   0  0  0  0  0  0  0  0  0  0  0  0
   21.4396  -19.6418  -12.0293 C   0  0  0  0  0  0  0  0  0  0  0  0
   21.3337  -18.4049  -12.1818 O   0  0  0  0  0  0  0  0  0  0  0  0
   20.6295  -20.2860  -11.1349 O   0  0  0  0  0  0  0  0  0  0  0  0
  2  1  1  6
  2  3  1  0
  4  3  1  0
  4  5  1  0
  5  6  2  0
  7  2  1  0
  8  7  2  0
  9  5  1  0
 11 12  1  1
 11 10  1  0
 11 13  1  0
 13 14  1  6
 14  7  1  0
 15 13  1  0
 15 25  1  0
 16 15  2  0
 18 17  1  0
 19 18  2  0
 20 18  1  0
 21 20  1  0
 22 23  1  0
 22 21  1  0
 24 23  1  1
 24 26  1  0
 24 25  1  0
 26 28  1  0
 27 26  2  0
M  END
$$$$
