EVR.pdb
     RDKit          3D

 28 27  0  0  1  0  0  0  0  0999 V2000
   23.0615  -19.9418  -14.2222 N   0  0  0  0  0  0  0  0  0  0  0  0
   22.2375  -19.5727  -13.0613 C   0  0  1  0  0  0  0  0  0  0  0  0
   20.7816  -19.5096  -13.5291 C   0  0  0  0  0  0  0  0  0  0  0  0
   20.7131  -19.3709  -15.0228 C   0  0  0  0  0  0  0  0  0  0  0  0
   19.3869  -19.6881  -15.5459 C   0  0  0  0  0  0  0  0  0  0  0  0
   18.4791  -18.8662  -15.5964 O   0  0  0  0  0  0  0  0  0  0  0  0
   22.3102  -20.6699  -12.0542 C   0  0  0  0  0  0  0  0  0  0  0  0
   22.4784  -21.8613  -12.4152 O   0  0  0  0  0  0  0  0  0  0  0  0
   19.1392  -20.9903  -16.0144 O   0  0  0  0  0  0  0  0  0  0  0  0
   22.9397  -19.2522   -8.1354 C   0  0  0  0  0  0  0  0  0  0  0  0
   23.3902  -20.5841   -8.6764 C   0  0  1  0  0  0  0  0  0  0  0  0
   23.5532  -21.4826   -7.4371 C   0  0  0  0  0  0  0  0  0  0  0  0
   22.4389  -21.2678   -9.5758 C   0  0  2  0  0  0  0  0  0  0  0  0
   22.1870  -20.3577  -10.7037 N   0  0  0  0  0  0  0  0  0  0  0  0
   21.1249  -21.6374   -9.0652 C   0  0  0  0  0  0  0  0  0  0  0  0
   20.1987  -20.7578   -9.0386 O   0  0  0  0  0  0  0  0  0  0  0  0
   16.0209  -27.2655   -5.5142 N   0  0  0  0  0  0  0  0  0  0  0  0
   15.1427  -26.5150   -6.3499 C   0  0  0  0  0  0  0  0  0  0  0  0
   13.9258  -26.3100   -5.9382 N   0  0  0  0  0  0  0  0  0  0  0  0
   15.5431  -25.9860   -7.6054 N   0  0  0  0  0  0  0  0  0  0  0  0
   16.9839  -25.9458   -7.9463 C   0  0  0  0  0  0  0  0  0  0  0  0
   17.3040  -24.5175   -8.2595 C   0  0  0  0  0  0  0  0  0  0  0  0
   18.6461  -24.2373   -8.8058 C   0  0  0  0  0  0  0  0  0  0  0  0
   19.3849  -23.1615   -8.0713 C   0  0  2  0  0  0  0  0  0  0  0  0
   20.7149  -22.8959   -8.5719 N   0  0  0  0  0  0  0  0  0  0  0  0
   19.3531  -23.4013   -6.6174 C   0  0  0  0  0  0  0  0  0  0  0  0
   20.3555  -23.9009   -6.0605 O   0  0  0  0  0  0  0  0  0  0  0  0
   18.2496  -23.0883   -5.8721 O   0  0  0  0  0  0  0  0  0  0  0  0
  2  1  1  6
  2  3  1  0
  4  3  1  0
  4  5  1  0
  5  6  2  0
  7  2  1  0
  8  7  2  0
  9  5  1  0
 11 12  1  1
 11 10  1  0
 11 13  1  0
 13 14  1  6
 14  7  1  0
 15 13  1  0
 15 25  1  0
 16 15  2  0
 18 17  1  0
 19 18  2  0
 20 18  1  0
 21 20  1  0
 22 23  1  0
 22 21  1  0
 24 23  1  6
 24 26  1  0
 24 25  1  0
 26 28  1  0
 27 26  2  0
M  END
$$$$
