EVR.pdb
     RDKit          3D

 28 27  0  0  1  0  0  0  0  0999 V2000
   28.1941  -22.5895  -16.1608 N   0  0  0  0  0  0  0  0  0  0  0  0
   27.4720  -21.4393  -15.5965 C   0  0  1  0  0  0  0  0  0  0  0  0
   26.6909  -20.7796  -16.7354 C   0  0  0  0  0  0  0  0  0  0  0  0
   27.6308  -20.1741  -17.7380 C   0  0  0  0  0  0  0  0  0  0  0  0
   27.3851  -18.7476  -17.9328 C   0  0  0  0  0  0  0  0  0  0  0  0
   28.0686  -18.0515  -18.6749 O   0  0  0  0  0  0  0  0  0  0  0  0
   26.4586  -21.9403  -14.6242 C   0  0  0  0  0  0  0  0  0  0  0  0
   25.8943  -23.0488  -14.8005 O   0  0  0  0  0  0  0  0  0  0  0  0
   26.3184  -18.1454  -17.2429 O   0  0  0  0  0  0  0  0  0  0  0  0
   26.4639  -19.7218  -11.1783 C   0  0  0  0  0  0  0  0  0  0  0  0
   25.8459  -21.0956  -11.1666 C   0  0  1  0  0  0  0  0  0  0  0  0
   24.7221  -21.0177  -10.1174 C   0  0  0  0  0  0  0  0  0  0  0  0
   25.2183  -21.5292  -12.4313 C   0  0  2  0  0  0  0  0  0  0  0  0
   26.1420  -21.1614  -13.5153 N   0  0  0  0  0  0  0  0  0  0  0  0
   23.9258  -20.9701  -12.8067 C   0  0  0  0  0  0  0  0  0  0  0  0
   23.8724  -19.7745  -13.2540 O   0  0  0  0  0  0  0  0  0  0  0  0
   15.4424  -23.6353  -13.8743 N   0  0  0  0  0  0  0  0  0  0  0  0
   16.5248  -23.7721  -12.9563 C   0  0  0  0  0  0  0  0  0  0  0  0
   16.3866  -24.5957  -11.9589 N   0  0  0  0  0  0  0  0  0  0  0  0
   17.7398  -23.0490  -13.0887 N   0  0  0  0  0  0  0  0  0  0  0  0
   17.9355  -22.1748  -14.2682 C   0  0  0  0  0  0  0  0  0  0  0  0
   19.0863  -21.2754  -13.9407 C   0  0  0  0  0  0  0  0  0  0  0  0
   20.2825  -21.9076  -13.3512 C   0  0  0  0  0  0  0  0  0  0  0  0
   21.4344  -20.9683  -13.1682 C   0  0  2  0  0  0  0  0  0  0  0  0
   22.6629  -21.5991  -12.7408 N   0  0  0  0  0  0  0  0  0  0  0  0
   21.0494  -19.8237  -12.3231 C   0  0  0  0  0  0  0  0  0  0  0  0
   21.2504  -19.8823  -11.0900 O   0  0  0  0  0  0  0  0  0  0  0  0
   20.4779  -18.7047  -12.8640 O   0  0  0  0  0  0  0  0  0  0  0  0
  2  1  1  6
  2  3  1  0
  4  3  1  0
  4  5  1  0
  5  6  2  0
  7  2  1  0
  8  7  2  0
  9  5  1  0
 11 12  1  1
 11 10  1  0
 11 13  1  0
 13 14  1  6
 14  7  1  0
 15 13  1  0
 15 25  1  0
 16 15  2  0
 18 17  1  0
 19 18  2  0
 20 18  1  0
 21 20  1  0
 22 23  1  0
 22 21  1  0
 24 23  1  1
 24 26  1  0
 24 25  1  0
 26 28  1  0
 27 26  2  0
M  END
$$$$
