EVR.pdb
     RDKit          3D

 28 27  0  0  1  0  0  0  0  0999 V2000
   23.4752  -20.6830  -14.3821 N   0  0  0  0  0  0  0  0  0  0  0  0
   22.9670  -19.6348  -15.2798 C   0  0  1  0  0  0  0  0  0  0  0  0
   21.4384  -19.6696  -15.2125 C   0  0  0  0  0  0  0  0  0  0  0  0
   20.9006  -20.8127  -16.0245 C   0  0  0  0  0  0  0  0  0  0  0  0
   19.4404  -20.8377  -16.0422 C   0  0  0  0  0  0  0  0  0  0  0  0
   18.7688  -19.9898  -16.6187 O   0  0  0  0  0  0  0  0  0  0  0  0
   23.3830  -18.3055  -14.7476 C   0  0  0  0  0  0  0  0  0  0  0  0
   23.3284  -18.0623  -13.5163 O   0  0  0  0  0  0  0  0  0  0  0  0
   18.7744  -21.8789  -15.3723 O   0  0  0  0  0  0  0  0  0  0  0  0
   26.3728  -16.5099  -16.7657 C   0  0  0  0  0  0  0  0  0  0  0  0
   25.8594  -16.1299  -15.4013 C   0  0  1  0  0  0  0  0  0  0  0  0
   26.4337  -14.7264  -15.1366 C   0  0  0  0  0  0  0  0  0  0  0  0
   24.3921  -16.0205  -15.2740 C   0  0  2  0  0  0  0  0  0  0  0  0
   23.8324  -17.3321  -15.6348 N   0  0  0  0  0  0  0  0  0  0  0  0
   23.6821  -15.0484  -16.0955 C   0  0  0  0  0  0  0  0  0  0  0  0
   23.4795  -15.3081  -17.3299 O   0  0  0  0  0  0  0  0  0  0  0  0
   16.9293   -9.7796  -14.9650 N   0  0  0  0  0  0  0  0  0  0  0  0
   17.2458  -11.1583  -15.1440 C   0  0  0  0  0  0  0  0  0  0  0  0
   16.4175  -12.0463  -14.6774 N   0  0  0  0  0  0  0  0  0  0  0  0
   18.4221  -11.5960  -15.8082 N   0  0  0  0  0  0  0  0  0  0  0  0
   19.3706  -10.5888  -16.3371 C   0  0  0  0  0  0  0  0  0  0  0  0
   20.5283  -11.3532  -16.8992 C   0  0  0  0  0  0  0  0  0  0  0  0
   21.2427  -12.2582  -15.9778 C   0  0  0  0  0  0  0  0  0  0  0  0
   22.4475  -12.9093  -16.5836 C   0  0  2  0  0  0  0  0  0  0  0  0
   23.1618  -13.7979  -15.6947 N   0  0  0  0  0  0  0  0  0  0  0  0
   23.3204  -11.9078  -17.2219 C   0  0  0  0  0  0  0  0  0  0  0  0
   24.4376  -11.6626  -16.7157 O   0  0  0  0  0  0  0  0  0  0  0  0
   22.9289  -11.2454  -18.3530 O   0  0  0  0  0  0  0  0  0  0  0  0
  2  1  1  1
  2  3  1  0
  4  3  1  0
  4  5  1  0
  5  6  2  0
  7  2  1  0
  8  7  2  0
  9  5  1  0
 11 12  1  6
 11 10  1  0
 11 13  1  0
 13 14  1  6
 14  7  1  0
 15 13  1  0
 15 25  1  0
 16 15  2  0
 18 17  1  0
 19 18  2  0
 20 18  1  0
 21 20  1  0
 22 23  1  0
 22 21  1  0
 24 23  1  1
 24 26  1  0
 24 25  1  0
 26 28  1  0
 27 26  2  0
M  END
$$$$
