EVR.pdb
     RDKit          3D

 28 27  0  0  1  0  0  0  0  0999 V2000
   31.8208  -11.1671  -18.6881 N   0  0  0  0  0  0  0  0  0  0  0  0
   30.9126  -10.4014  -17.8211 C   0  0  1  0  0  0  0  0  0  0  0  0
   30.9947   -8.9337  -18.2470 C   0  0  0  0  0  0  0  0  0  0  0  0
   32.3852   -8.4033  -18.0463 C   0  0  0  0  0  0  0  0  0  0  0  0
   32.4755   -6.9727  -18.3259 C   0  0  0  0  0  0  0  0  0  0  0  0
   33.0019   -6.5261  -19.3387 O   0  0  0  0  0  0  0  0  0  0  0  0
   29.5128  -10.8407  -18.0873 C   0  0  0  0  0  0  0  0  0  0  0  0
   29.1913  -11.3148  -19.2053 O   0  0  0  0  0  0  0  0  0  0  0  0
   31.9341   -6.0672  -17.3966 O   0  0  0  0  0  0  0  0  0  0  0  0
   28.1128  -13.4644  -16.4869 C   0  0  0  0  0  0  0  0  0  0  0  0
   27.1012  -12.3776  -16.2315 C   0  0  1  0  0  0  0  0  0  0  0  0
   27.4123  -11.8698  -14.8120 C   0  0  0  0  0  0  0  0  0  0  0  0
   27.1754  -11.2065  -17.1284 C   0  0  2  0  0  0  0  0  0  0  0  0
   28.5616  -10.7170  -17.0790 N   0  0  0  0  0  0  0  0  0  0  0  0
   26.3369  -10.0479  -16.8484 C   0  0  0  0  0  0  0  0  0  0  0  0
   26.7378   -9.1815  -15.9994 O   0  0  0  0  0  0  0  0  0  0  0  0
   19.6858   -4.7914  -20.2606 N   0  0  0  0  0  0  0  0  0  0  0  0
   20.1343   -4.3776  -18.9718 C   0  0  0  0  0  0  0  0  0  0  0  0
   19.6965   -3.2469  -18.5007 N   0  0  0  0  0  0  0  0  0  0  0  0
   21.0338   -5.1479  -18.1882 N   0  0  0  0  0  0  0  0  0  0  0  0
   21.5932   -6.3988  -18.7503 C   0  0  0  0  0  0  0  0  0  0  0  0
   22.5816   -6.9073  -17.7477 C   0  0  0  0  0  0  0  0  0  0  0  0
   23.3179   -8.1371  -18.0990 C   0  0  0  0  0  0  0  0  0  0  0  0
   24.3214   -8.5556  -17.0692 C   0  0  2  0  0  0  0  0  0  0  0  0
   25.0809   -9.7362  -17.4144 N   0  0  0  0  0  0  0  0  0  0  0  0
   23.7011   -8.6385  -15.7348 C   0  0  0  0  0  0  0  0  0  0  0  0
   23.2898   -9.7454  -15.3221 O   0  0  0  0  0  0  0  0  0  0  0  0
   23.5683   -7.5292  -14.9455 O   0  0  0  0  0  0  0  0  0  0  0  0
  2  1  1  6
  2  3  1  0
  4  3  1  0
  4  5  1  0
  5  6  2  0
  7  2  1  0
  8  7  2  0
  9  5  1  0
 11 12  1  1
 11 10  1  0
 11 13  1  0
 13 14  1  1
 14  7  1  0
 15 13  1  0
 15 25  1  0
 16 15  2  0
 18 17  1  0
 19 18  2  0
 20 18  1  0
 21 20  1  0
 22 23  1  0
 22 21  1  0
 24 23  1  6
 24 26  1  0
 24 25  1  0
 26 28  1  0
 27 26  2  0
M  END
$$$$
