EVR.pdb
     RDKit          3D

 28 27  0  0  1  0  0  0  0  0999 V2000
   28.8461  -23.3965  -17.1764 N   0  0  0  0  0  0  0  0  0  0  0  0
   27.6056  -22.6811  -17.5115 C   0  0  1  0  0  0  0  0  0  0  0  0
   26.6114  -23.7096  -18.0557 C   0  0  0  0  0  0  0  0  0  0  0  0
   26.7118  -23.7999  -19.5513 C   0  0  0  0  0  0  0  0  0  0  0  0
   27.6406  -24.8425  -19.9797 C   0  0  0  0  0  0  0  0  0  0  0  0
   28.4882  -24.6614  -20.8463 O   0  0  0  0  0  0  0  0  0  0  0  0
   27.0099  -22.1415  -16.2555 C   0  0  0  0  0  0  0  0  0  0  0  0
   27.0909  -22.7849  -15.1796 O   0  0  0  0  0  0  0  0  0  0  0  0
   27.5629  -26.1079  -19.3719 O   0  0  0  0  0  0  0  0  0  0  0  0
   27.7617  -18.5585  -15.3631 C   0  0  0  0  0  0  0  0  0  0  0  0
   26.2731  -18.7733  -15.2765 C   0  0  1  0  0  0  0  0  0  0  0  0
   25.7198  -18.2735  -16.6232 C   0  0  0  0  0  0  0  0  0  0  0  0
   25.8334  -20.1756  -15.1297 C   0  0  2  0  0  0  0  0  0  0  0  0
   26.3584  -20.9123  -16.2896 N   0  0  0  0  0  0  0  0  0  0  0  0
   24.4062  -20.4679  -15.0888 C   0  0  0  0  0  0  0  0  0  0  0  0
   23.7916  -20.7174  -16.1807 O   0  0  0  0  0  0  0  0  0  0  0  0
   16.9951  -23.6866  -12.2915 N   0  0  0  0  0  0  0  0  0  0  0  0
   17.0611  -22.3708  -11.7462 C   0  0  0  0  0  0  0  0  0  0  0  0
   15.9484  -21.7206  -11.5693 N   0  0  0  0  0  0  0  0  0  0  0  0
   18.2866  -21.7477  -11.3908 N   0  0  0  0  0  0  0  0  0  0  0  0
   19.5608  -22.4528  -11.6610 C   0  0  0  0  0  0  0  0  0  0  0  0
   20.1709  -21.7811  -12.8514 C   0  0  0  0  0  0  0  0  0  0  0  0
   21.5935  -21.4017  -12.7492 C   0  0  0  0  0  0  0  0  0  0  0  0
   22.1593  -20.8319  -14.0132 C   0  0  2  0  0  0  0  0  0  0  0  0
   23.5687  -20.5158  -13.9524 N   0  0  0  0  0  0  0  0  0  0  0  0
   21.3367  -19.7088  -14.4973 C   0  0  0  0  0  0  0  0  0  0  0  0
   21.6936  -18.5377  -14.2410 O   0  0  0  0  0  0  0  0  0  0  0  0
   20.1945  -19.9267  -15.2178 O   0  0  0  0  0  0  0  0  0  0  0  0
  2  1  1  1
  2  3  1  0
  4  3  1  0
  4  5  1  0
  5  6  2  0
  7  2  1  0
  8  7  2  0
  9  5  1  0
 11 12  1  6
 11 10  1  0
 11 13  1  0
 13 14  1  6
 14  7  1  0
 15 13  1  0
 15 25  1  0
 16 15  2  0
 18 17  1  0
 19 18  2  0
 20 18  1  0
 21 20  1  0
 22 23  1  0
 22 21  1  0
 24 23  1  1
 24 26  1  0
 24 25  1  0
 26 28  1  0
 27 26  2  0
M  END
$$$$
