YTT.pdb
     RDKit          3D

 27 27  0  0  1  0  0  0  0  0999 V2000
    6.3528  -10.9788   27.0555 O   0  0  0  0  0  0  0  0  0  0  0  0
    6.5709  -12.1891   26.3875 C   0  0  0  0  0  0  0  0  0  0  0  0
    6.2649  -12.3009   25.0449 C   0  0  0  0  0  0  0  0  0  0  0  0
    6.4805  -13.4972   24.3843 C   0  0  0  0  0  0  0  0  0  0  0  0
    6.9996  -14.6120   25.0188 C   0  0  0  0  0  0  0  0  0  0  0  0
    7.2383  -15.8909   24.3448 C   0  0  0  0  0  0  0  0  0  0  0  0
    8.7215  -16.1131   24.2082 C   0  0  2  0  0  0  0  0  0  0  0  0
    9.1280  -15.7299   22.8879 N   0  0  0  0  0  0  0  0  0  0  0  0
    9.1068  -17.5280   24.4225 C   0  0  0  0  0  0  0  0  0  0  0  0
    9.0780  -18.2731   23.3969 O   0  0  0  0  0  0  0  0  0  0  0  0
    7.3012  -14.4745   26.3766 C   0  0  0  0  0  0  0  0  0  0  0  0
    7.0929  -13.2891   27.0517 C   0  0  0  0  0  0  0  0  0  0  0  0
   12.0383  -19.1599   24.5842 C   0  0  0  0  0  0  0  0  0  0  0  0
   11.3198  -19.6800   25.8362 C   0  0  1  0  0  0  0  0  0  0  0  0
   11.7748  -18.9035   26.8938 O   0  0  0  0  0  0  0  0  0  0  0  0
    9.8221  -19.5016   25.6997 C   0  0  2  0  0  0  0  0  0  0  0  0
    9.4881  -18.0723   25.6499 N   0  0  0  0  0  0  0  0  0  0  0  0
    9.1562  -20.0925   26.8948 C   0  0  0  0  0  0  0  0  0  0  0  0
    8.8240  -19.3510   27.8744 O   0  0  0  0  0  0  0  0  0  0  0  0
    5.7712  -21.7620   27.5357 C   0  0  0  0  0  0  0  0  0  0  0  0
    6.8872  -22.6911   27.8811 C   0  0  1  0  0  0  0  0  0  0  0  0
    7.1493  -23.5659   26.8293 O   0  0  0  0  0  0  0  0  0  0  0  0
    8.1799  -21.9823   28.2185 C   0  0  2  0  0  0  0  0  0  0  0  0
    8.8432  -21.4637   27.0501 N   0  0  0  0  0  0  0  0  0  0  0  0
    9.0784  -22.9354   28.8935 C   0  0  0  0  0  0  0  0  0  0  0  0
   10.2152  -23.1977   28.4395 O   0  0  0  0  0  0  0  0  0  0  0  0
    8.6684  -23.5587   30.0524 O   0  0  0  0  0  0  0  0  0  0  0  0
  2  1  1  0
  3  2  2  0
  4  3  1  0
  5  4  2  0
  5 11  1  0
  6  5  1  0
  7  6  1  0
  7  9  1  0
  7  8  1  6
  9 17  1  0
 10  9  2  0
 11 12  2  0
 12  2  1  0
 14 13  1  6
 14 15  1  0
 16 14  1  0
 16 17  1  1
 18 24  1  0
 18 16  1  0
 19 18  2  0
 21 20  1  6
 21 23  1  0
 22 21  1  0
 23 24  1  6
 23 25  1  0
 25 27  1  0
 26 25  2  0
M  END
$$$$
