YTT.pdb
     RDKit          3D

 27 27  0  0  1  0  0  0  0  0999 V2000
    5.0690  -10.4537   28.4750 O   0  0  0  0  0  0  0  0  0  0  0  0
    5.7850  -11.3865   27.7161 C   0  0  0  0  0  0  0  0  0  0  0  0
    5.3158  -11.7721   26.4752 C   0  0  0  0  0  0  0  0  0  0  0  0
    6.0234  -12.6941   25.7248 C   0  0  0  0  0  0  0  0  0  0  0  0
    7.2053  -13.2611   26.1681 C   0  0  0  0  0  0  0  0  0  0  0  0
    7.9753  -14.2393   25.3954 C   0  0  0  0  0  0  0  0  0  0  0  0
    7.0327  -15.2331   24.7693 C   0  0  2  0  0  0  0  0  0  0  0  0
    6.5419  -16.1128   25.7894 N   0  0  0  0  0  0  0  0  0  0  0  0
    7.6847  -16.0527   23.7208 C   0  0  0  0  0  0  0  0  0  0  0  0
    7.9149  -17.2622   24.0242 O   0  0  0  0  0  0  0  0  0  0  0  0
    7.6598  -12.8554   27.4260 C   0  0  0  0  0  0  0  0  0  0  0  0
    6.9672  -11.9369   28.1884 C   0  0  0  0  0  0  0  0  0  0  0  0
    7.0962  -15.4712   19.8177 C   0  0  0  0  0  0  0  0  0  0  0  0
    8.5123  -15.9943   20.0920 C   0  0  1  0  0  0  0  0  0  0  0  0
    9.3584  -14.8993   19.9755 O   0  0  0  0  0  0  0  0  0  0  0  0
    8.6093  -16.5473   21.4986 C   0  0  2  0  0  0  0  0  0  0  0  0
    8.0492  -15.5857   22.4570 N   0  0  0  0  0  0  0  0  0  0  0  0
   10.0459  -16.7556   21.8357 C   0  0  0  0  0  0  0  0  0  0  0  0
   10.7180  -15.8206   22.3780 O   0  0  0  0  0  0  0  0  0  0  0  0
   12.0092  -18.8914   24.3818 C   0  0  0  0  0  0  0  0  0  0  0  0
   12.3254  -19.2597   22.9702 C   0  0  1  0  0  0  0  0  0  0  0  0
   11.5244  -20.3152   22.5405 O   0  0  0  0  0  0  0  0  0  0  0  0
   12.1413  -18.1197   21.9935 C   0  0  2  0  0  0  0  0  0  0  0  0
   10.7664  -17.9503   21.5998 N   0  0  0  0  0  0  0  0  0  0  0  0
   12.9513  -18.3915   20.7929 C   0  0  0  0  0  0  0  0  0  0  0  0
   14.2024  -18.4060   20.8366 O   0  0  0  0  0  0  0  0  0  0  0  0
   12.3282  -18.6369   19.5884 O   0  0  0  0  0  0  0  0  0  0  0  0
  2  1  1  0
  3  2  2  0
  4  3  1  0
  5  4  2  0
  5 11  1  0
  6  5  1  0
  7  6  1  0
  7  9  1  0
  7  8  1  1
  9 17  1  0
 10  9  2  0
 11 12  2  0
 12  2  1  0
 14 13  1  1
 14 15  1  0
 16 14  1  0
 16 17  1  1
 18 24  1  0
 18 16  1  0
 19 18  2  0
 21 20  1  1
 21 23  1  0
 22 21  1  0
 23 24  1  6
 23 25  1  0
 25 27  1  0
 26 25  2  0
M  END
$$$$
