YTT.pdb
     RDKit          3D

 27 27  0  0  1  0  0  0  0  0999 V2000
    8.7678  -11.3742   20.4040 O   0  0  0  0  0  0  0  0  0  0  0  0
    8.2878  -12.5271   19.7723 C   0  0  0  0  0  0  0  0  0  0  0  0
    7.1188  -13.1183   20.2112 C   0  0  0  0  0  0  0  0  0  0  0  0
    6.6441  -14.2580   19.5869 C   0  0  0  0  0  0  0  0  0  0  0  0
    7.2994  -14.8470   18.5198 C   0  0  0  0  0  0  0  0  0  0  0  0
    6.8202  -16.0532   17.8398 C   0  0  0  0  0  0  0  0  0  0  0  0
    7.7392  -17.2031   18.1583 C   0  0  2  0  0  0  0  0  0  0  0  0
    7.2576  -18.3790   17.4945 N   0  0  0  0  0  0  0  0  0  0  0  0
    7.8143  -17.4855   19.6112 C   0  0  0  0  0  0  0  0  0  0  0  0
    6.7971  -18.0443   20.1218 O   0  0  0  0  0  0  0  0  0  0  0  0
    8.4794  -14.2309   18.0939 C   0  0  0  0  0  0  0  0  0  0  0  0
    8.9678  -13.0937   18.7046 C   0  0  0  0  0  0  0  0  0  0  0  0
    9.6758  -19.8623   21.3437 C   0  0  0  0  0  0  0  0  0  0  0  0
    9.9025  -18.5843   22.1620 C   0  0  1  0  0  0  0  0  0  0  0  0
   11.1405  -18.0902   21.7725 O   0  0  0  0  0  0  0  0  0  0  0  0
    8.8370  -17.5561   21.8444 C   0  0  2  0  0  0  0  0  0  0  0  0
    8.9061  -17.1816   20.4260 N   0  0  0  0  0  0  0  0  0  0  0  0
    9.0888  -16.3345   22.6598 C   0  0  0  0  0  0  0  0  0  0  0  0
    9.7921  -15.3842   22.1885 O   0  0  0  0  0  0  0  0  0  0  0  0
    7.0176  -13.4023   24.1637 C   0  0  0  0  0  0  0  0  0  0  0  0
    7.6808  -14.2198   25.2221 C   0  0  1  0  0  0  0  0  0  0  0  0
    6.8052  -15.1743   25.7345 O   0  0  0  0  0  0  0  0  0  0  0  0
    8.9159  -14.9461   24.7382 C   0  0  2  0  0  0  0  0  0  0  0  0
    8.5962  -16.1211   23.9691 N   0  0  0  0  0  0  0  0  0  0  0  0
    9.7174  -15.3454   25.9084 C   0  0  0  0  0  0  0  0  0  0  0  0
    9.9246  -16.5497   26.1800 O   0  0  0  0  0  0  0  0  0  0  0  0
   10.2564  -14.3792   26.7302 O   0  0  0  0  0  0  0  0  0  0  0  0
  2  1  1  0
  3  2  2  0
  4  3  1  0
  5  4  2  0
  5 11  1  0
  6  5  1  0
  7  6  1  0
  7  9  1  0
  7  8  1  6
  9 17  1  0
 10  9  2  0
 11 12  2  0
 12  2  1  0
 14 13  1  6
 14 15  1  0
 16 14  1  0
 16 17  1  6
 18 24  1  0
 18 16  1  0
 19 18  2  0
 21 20  1  6
 21 23  1  0
 22 21  1  0
 23 24  1  1
 23 25  1  0
 25 27  1  0
 26 25  2  0
M  END
$$$$
