YTT.pdb
     RDKit          3D

 27 27  0  0  1  0  0  0  0  0999 V2000
    4.9894  -10.4370   27.7856 O   0  0  0  0  0  0  0  0  0  0  0  0
    5.7704  -11.4208   27.1686 C   0  0  0  0  0  0  0  0  0  0  0  0
    6.6628  -12.1633   27.9175 C   0  0  0  0  0  0  0  0  0  0  0  0
    7.4350  -13.1360   27.3079 C   0  0  0  0  0  0  0  0  0  0  0  0
    7.3540  -13.4064   25.9531 C   0  0  0  0  0  0  0  0  0  0  0  0
    8.1589  -14.4298   25.2811 C   0  0  0  0  0  0  0  0  0  0  0  0
    7.2453  -15.4122   24.5967 C   0  0  2  0  0  0  0  0  0  0  0  0
    6.6441  -16.2549   25.5885 N   0  0  0  0  0  0  0  0  0  0  0  0
    7.9610  -16.2729   23.6253 C   0  0  0  0  0  0  0  0  0  0  0  0
    8.1737  -17.4676   23.9930 O   0  0  0  0  0  0  0  0  0  0  0  0
    6.4443  -12.6425   25.2167 C   0  0  0  0  0  0  0  0  0  0  0  0
    5.6660  -11.6682   25.8079 C   0  0  0  0  0  0  0  0  0  0  0  0
    9.7267  -17.3816   19.1453 C   0  0  0  0  0  0  0  0  0  0  0  0
    9.0530  -16.3544   20.0645 C   0  0  1  0  0  0  0  0  0  0  0  0
    7.7452  -16.2314   19.6141 O   0  0  0  0  0  0  0  0  0  0  0  0
    9.0391  -16.8524   21.4947 C   0  0  2  0  0  0  0  0  0  0  0  0
    8.4015  -15.8581   22.3675 N   0  0  0  0  0  0  0  0  0  0  0  0
   10.4448  -17.0389   21.9529 C   0  0  0  0  0  0  0  0  0  0  0  0
   11.1989  -16.0294   22.1318 O   0  0  0  0  0  0  0  0  0  0  0  0
   11.9321  -19.1027   25.1618 C   0  0  0  0  0  0  0  0  0  0  0  0
   12.4524  -19.5090   23.8230 C   0  0  1  0  0  0  0  0  0  0  0  0
   11.7537  -20.6091   23.3311 O   0  0  0  0  0  0  0  0  0  0  0  0
   12.3677  -18.4127   22.7846 C   0  0  2  0  0  0  0  0  0  0  0  0
   11.0480  -18.2905   22.2212 N   0  0  0  0  0  0  0  0  0  0  0  0
   13.3224  -18.7126   21.7029 C   0  0  0  0  0  0  0  0  0  0  0  0
   14.5496  -18.5040   21.8362 O   0  0  0  0  0  0  0  0  0  0  0  0
   12.8652  -19.2351   20.5124 O   0  0  0  0  0  0  0  0  0  0  0  0
  2  1  1  0
  3  2  2  0
  4  3  1  0
  5  4  2  0
  5 11  1  0
  6  5  1  0
  7  6  1  0
  7  9  1  0
  7  8  1  1
  9 17  1  0
 10  9  2  0
 11 12  2  0
 12  2  1  0
 14 13  1  6
 14 15  1  0
 16 14  1  0
 16 17  1  1
 18 24  1  0
 18 16  1  0
 19 18  2  0
 21 20  1  1
 21 23  1  0
 22 21  1  0
 23 24  1  6
 23 25  1  0
 25 27  1  0
 26 25  2  0
M  END
$$$$
