YTT.pdb
     RDKit          3D

 27 27  0  0  1  0  0  0  0  0999 V2000
   -1.3086  -19.6159   19.9902 O   0  0  0  0  0  0  0  0  0  0  0  0
   -0.1385  -19.2673   20.6742 C   0  0  0  0  0  0  0  0  0  0  0  0
    0.9752  -18.8532   19.9694 C   0  0  0  0  0  0  0  0  0  0  0  0
    2.1320  -18.5086   20.6453 C   0  0  0  0  0  0  0  0  0  0  0  0
    2.2286  -18.5602   22.0248 C   0  0  0  0  0  0  0  0  0  0  0  0
    3.4400  -18.2013   22.7668 C   0  0  0  0  0  0  0  0  0  0  0  0
    4.6180  -18.9356   22.1826 C   0  0  2  0  0  0  0  0  0  0  0  0
    4.3996  -20.3459   22.3195 N   0  0  0  0  0  0  0  0  0  0  0  0
    5.8927  -18.5936   22.8569 C   0  0  0  0  0  0  0  0  0  0  0  0
    6.1147  -19.1832   23.9573 O   0  0  0  0  0  0  0  0  0  0  0  0
    1.0893  -18.9820   22.7157 C   0  0  0  0  0  0  0  0  0  0  0  0
   -0.0732  -19.3296   22.0582 C   0  0  0  0  0  0  0  0  0  0  0  0
    9.3077  -19.0297   21.4550 C   0  0  0  0  0  0  0  0  0  0  0  0
    9.2654  -17.6445   22.1137 C   0  0  1  0  0  0  0  0  0  0  0  0
    9.0648  -16.7332   21.0852 O   0  0  0  0  0  0  0  0  0  0  0  0
    8.1081  -17.5558   23.0864 C   0  0  2  0  0  0  0  0  0  0  0  0
    6.8347  -17.6878   22.3667 N   0  0  0  0  0  0  0  0  0  0  0  0
    8.1334  -16.2185   23.7436 C   0  0  0  0  0  0  0  0  0  0  0  0
    7.7247  -15.1893   23.1163 O   0  0  0  0  0  0  0  0  0  0  0  0
    6.2978  -13.9744   25.6452 C   0  0  0  0  0  0  0  0  0  0  0  0
    7.5273  -14.2486   26.4460 C   0  0  1  0  0  0  0  0  0  0  0  0
    7.3032  -15.2692   27.3671 O   0  0  0  0  0  0  0  0  0  0  0  0
    8.7192  -14.6466   25.6045 C   0  0  2  0  0  0  0  0  0  0  0  0
    8.5892  -15.9738   25.0607 N   0  0  0  0  0  0  0  0  0  0  0  0
    9.9290  -14.5914   26.4439 C   0  0  0  0  0  0  0  0  0  0  0  0
   10.5623  -15.6274   26.7488 O   0  0  0  0  0  0  0  0  0  0  0  0
   10.3834  -13.3766   26.9100 O   0  0  0  0  0  0  0  0  0  0  0  0
  2  1  1  0
  3  2  2  0
  4  3  1  0
  5  4  2  0
  5 11  1  0
  6  5  1  0
  7  6  1  0
  7  9  1  0
  7  8  1  1
  9 17  1  0
 10  9  2  0
 11 12  2  0
 12  2  1  0
 14 13  1  6
 14 15  1  0
 16 14  1  0
 16 17  1  6
 18 24  1  0
 18 16  1  0
 19 18  2  0
 21 20  1  6
 21 23  1  0
 22 21  1  0
 23 24  1  1
 23 25  1  0
 25 27  1  0
 26 25  2  0
M  END
$$$$
