YTT.pdb
     RDKit          3D

 27 27  0  0  1  0  0  0  0  0999 V2000
    5.1018  -10.6037   28.6693 O   0  0  0  0  0  0  0  0  0  0  0  0
    5.8290  -11.4977   27.8752 C   0  0  0  0  0  0  0  0  0  0  0  0
    6.7615  -12.3352   28.4564 C   0  0  0  0  0  0  0  0  0  0  0  0
    7.4806  -13.2191   27.6717 C   0  0  0  0  0  0  0  0  0  0  0  0
    7.3061  -13.3059   26.3016 C   0  0  0  0  0  0  0  0  0  0  0  0
    8.0530  -14.2318   25.4462 C   0  0  0  0  0  0  0  0  0  0  0  0
    7.0906  -15.1735   24.7716 C   0  0  2  0  0  0  0  0  0  0  0  0
    6.6002  -16.1086   25.7414 N   0  0  0  0  0  0  0  0  0  0  0  0
    7.7199  -15.9346   23.6666 C   0  0  0  0  0  0  0  0  0  0  0  0
    7.8520  -17.1815   23.8555 O   0  0  0  0  0  0  0  0  0  0  0  0
    6.3575  -12.4489   25.7369 C   0  0  0  0  0  0  0  0  0  0  0  0
    5.6311  -11.5609   26.5040 C   0  0  0  0  0  0  0  0  0  0  0  0
    7.1448  -15.0795   19.8552 C   0  0  0  0  0  0  0  0  0  0  0  0
    8.5613  -15.6294   20.0681 C   0  0  1  0  0  0  0  0  0  0  0  0
    9.4133  -14.5342   20.0151 O   0  0  0  0  0  0  0  0  0  0  0  0
    8.6771  -16.2811   21.4302 C   0  0  2  0  0  0  0  0  0  0  0  0
    8.1624  -15.3764   22.4663 N   0  0  0  0  0  0  0  0  0  0  0  0
   10.1156  -16.5446   21.7168 C   0  0  0  0  0  0  0  0  0  0  0  0
   10.7334  -15.8476   22.5843 O   0  0  0  0  0  0  0  0  0  0  0  0
   13.7204  -19.8402   22.0850 C   0  0  0  0  0  0  0  0  0  0  0  0
   12.3154  -19.3655   21.9154 C   0  0  1  0  0  0  0  0  0  0  0  0
   11.5826  -19.5536   23.0850 O   0  0  0  0  0  0  0  0  0  0  0  0
   12.2133  -17.9033   21.5427 C   0  0  2  0  0  0  0  0  0  0  0  0
   10.8954  -17.5433   21.0870 N   0  0  0  0  0  0  0  0  0  0  0  0
   13.1829  -17.6210   20.4696 C   0  0  0  0  0  0  0  0  0  0  0  0
   14.3451  -17.2311   20.7232 O   0  0  0  0  0  0  0  0  0  0  0  0
   12.8128  -17.7867   19.1524 O   0  0  0  0  0  0  0  0  0  0  0  0
  2  1  1  0
  3  2  2  0
  4  3  1  0
  5  4  2  0
  5 11  1  0
  6  5  1  0
  7  6  1  0
  7  9  1  0
  7  8  1  1
  9 17  1  0
 10  9  2  0
 11 12  2  0
 12  2  1  0
 14 13  1  1
 14 15  1  0
 16 14  1  0
 16 17  1  1
 18 24  1  0
 18 16  1  0
 19 18  2  0
 21 20  1  1
 21 23  1  0
 22 21  1  0
 23 24  1  6
 23 25  1  0
 25 27  1  0
 26 25  2  0
M  END
$$$$
