AGT.pdb
     RDKit          3D

 17 16  0  0  1  0  0  0  0  0999 V2000
    7.8623  -13.2842   18.2370 C   0  0  0  0  0  0  0  0  0  0  0  0
    8.7669  -13.9335   19.2754 C   0  0  2  0  0  0  0  0  0  0  0  0
    9.0613  -15.2988   18.8881 N   0  0  0  0  0  0  0  0  0  0  0  0
    8.0531  -13.9319   20.5591 C   0  0  0  0  0  0  0  0  0  0  0  0
    7.7097  -12.8307   21.0874 O   0  0  0  0  0  0  0  0  0  0  0  0
    7.7084  -15.1082   21.2740 N   0  0  0  0  0  0  0  0  0  0  0  0
    6.9518  -15.0487   22.4862 C   0  0  0  0  0  0  0  0  0  0  0  0
    7.7663  -14.5316   23.6198 C   0  0  0  0  0  0  0  0  0  0  0  0
    8.9804  -14.3323   23.4157 O   0  0  0  0  0  0  0  0  0  0  0  0
    6.7498  -11.4799   25.9198 C   0  0  0  0  0  0  0  0  0  0  0  0
    7.0719  -12.6878   26.7793 C   0  0  1  0  0  0  0  0  0  0  0  0
    5.8326  -13.2670   27.0836 O   0  0  0  0  0  0  0  0  0  0  0  0
    7.9199  -13.6193   25.9567 C   0  0  2  0  0  0  0  0  0  0  0  0
    7.2141  -14.2647   24.8980 N   0  0  0  0  0  0  0  0  0  0  0  0
    8.5823  -14.5997   26.8721 C   0  0  0  0  0  0  0  0  0  0  0  0
    8.3540  -15.9349   26.6407 O   0  0  0  0  0  0  0  0  0  0  0  0
    9.3154  -14.2476   27.8127 O   0  0  0  0  0  0  0  0  0  0  0  0
  2  1  1  6
  2  3  1  0
  4  5  2  0
  4  2  1  0
  6  4  1  0
  7  8  1  0
  7  6  1  0
  8  9  2  0
 11 10  1  6
 11 13  1  0
 12 11  1  0
 13 15  1  0
 13 14  1  6
 14  8  1  0
 15 17  2  0
 15 16  1  0
M  END
$$$$
