AGT.pdb
     RDKit          3D

 17 16  0  0  1  0  0  0  0  0999 V2000
    5.3783  -18.6062   20.5347 C   0  0  0  0  0  0  0  0  0  0  0  0
    6.6955  -18.1775   21.1668 C   0  0  2  0  0  0  0  0  0  0  0  0
    7.4652  -19.3465   21.5435 N   0  0  0  0  0  0  0  0  0  0  0  0
    6.3841  -17.3891   22.3663 C   0  0  0  0  0  0  0  0  0  0  0  0
    5.7962  -16.2708   22.2499 O   0  0  0  0  0  0  0  0  0  0  0  0
    6.7023  -17.7991   23.6870 N   0  0  0  0  0  0  0  0  0  0  0  0
    6.2669  -17.0502   24.8250 C   0  0  0  0  0  0  0  0  0  0  0  0
    7.1598  -15.8905   25.0964 C   0  0  0  0  0  0  0  0  0  0  0  0
    8.2319  -15.8254   24.4624 O   0  0  0  0  0  0  0  0  0  0  0  0
    5.9851  -12.0671   25.6014 C   0  0  0  0  0  0  0  0  0  0  0  0
    6.8610  -12.5269   26.7517 C   0  0  1  0  0  0  0  0  0  0  0  0
    5.9725  -12.8706   27.7795 O   0  0  0  0  0  0  0  0  0  0  0  0
    7.6381  -13.7262   26.2813 C   0  0  2  0  0  0  0  0  0  0  0  0
    6.8343  -14.8788   26.0347 N   0  0  0  0  0  0  0  0  0  0  0  0
    8.7338  -14.0027   27.2617 C   0  0  0  0  0  0  0  0  0  0  0  0
    8.7579  -15.2446   27.8496 O   0  0  0  0  0  0  0  0  0  0  0  0
    9.6011  -13.1602   27.5515 O   0  0  0  0  0  0  0  0  0  0  0  0
  2  1  1  1
  2  3  1  0
  4  5  2  0
  4  2  1  0
  6  4  1  0
  7  8  1  0
  7  6  1  0
  8  9  2  0
 11 10  1  6
 11 13  1  0
 12 11  1  0
 13 15  1  0
 13 14  1  1
 14  8  1  0
 15 17  2  0
 15 16  1  0
M  END
$$$$
