AGT.pdb
     RDKit          3D

 17 16  0  0  1  0  0  0  0  0999 V2000
    7.9897  -19.5875   15.7471 C   0  0  0  0  0  0  0  0  0  0  0  0
    8.8892  -18.5717   16.4380 C   0  0  2  0  0  0  0  0  0  0  0  0
    9.9820  -19.2528   17.1033 N   0  0  0  0  0  0  0  0  0  0  0  0
    8.0796  -17.8566   17.4334 C   0  0  0  0  0  0  0  0  0  0  0  0
    7.1309  -17.1057   17.0518 O   0  0  0  0  0  0  0  0  0  0  0  0
    8.2872  -17.9468   18.8343 N   0  0  0  0  0  0  0  0  0  0  0  0
    7.5274  -17.1563   19.7525 C   0  0  0  0  0  0  0  0  0  0  0  0
    8.3995  -16.4830   20.7535 C   0  0  0  0  0  0  0  0  0  0  0  0
    9.6291  -16.6752   20.6713 O   0  0  0  0  0  0  0  0  0  0  0  0
    7.5210  -12.8447   22.5479 C   0  0  0  0  0  0  0  0  0  0  0  0
    7.9561  -13.9204   23.5253 C   0  0  1  0  0  0  0  0  0  0  0  0
    6.7691  -14.4276   24.0708 O   0  0  0  0  0  0  0  0  0  0  0  0
    8.6899  -14.9761   22.7440 C   0  0  2  0  0  0  0  0  0  0  0  0
    7.8845  -15.6470   21.7762 N   0  0  0  0  0  0  0  0  0  0  0  0
    9.3264  -15.9292   23.7055 C   0  0  0  0  0  0  0  0  0  0  0  0
   10.2628  -15.4209   24.5734 O   0  0  0  0  0  0  0  0  0  0  0  0
    9.0381  -17.1382   23.7394 O   0  0  0  0  0  0  0  0  0  0  0  0
  2  1  1  1
  2  3  1  0
  4  5  2  0
  4  2  1  0
  6  4  1  0
  7  8  1  0
  7  6  1  0
  8  9  2  0
 11 10  1  6
 11 13  1  0
 12 11  1  0
 13 15  1  0
 13 14  1  6
 14  8  1  0
 15 17  2  0
 15 16  1  0
M  END
$$$$
