AGT.pdb
     RDKit          3D

 17 16  0  0  1  0  0  0  0  0999 V2000
    7.8649  -12.9701   18.2367 C   0  0  0  0  0  0  0  0  0  0  0  0
    8.7367  -13.6554   19.2800 C   0  0  2  0  0  0  0  0  0  0  0  0
    9.0235  -15.0148   18.8671 N   0  0  0  0  0  0  0  0  0  0  0  0
    7.9926  -13.6751   20.5463 C   0  0  0  0  0  0  0  0  0  0  0  0
    7.7066  -12.5833   21.1259 O   0  0  0  0  0  0  0  0  0  0  0  0
    7.5565  -14.8627   21.1891 N   0  0  0  0  0  0  0  0  0  0  0  0
    6.7682  -14.8181   22.3816 C   0  0  0  0  0  0  0  0  0  0  0  0
    7.5900  -14.4714   23.5734 C   0  0  0  0  0  0  0  0  0  0  0  0
    8.8187  -14.3351   23.4085 O   0  0  0  0  0  0  0  0  0  0  0  0
    6.6552  -11.5978   26.1616 C   0  0  0  0  0  0  0  0  0  0  0  0
    6.9120  -12.9047   26.8880 C   0  0  1  0  0  0  0  0  0  0  0  0
    5.6453  -13.4639   27.1036 O   0  0  0  0  0  0  0  0  0  0  0  0
    7.7427  -13.7733   25.9830 C   0  0  2  0  0  0  0  0  0  0  0  0
    7.0289  -14.2951   24.8633 N   0  0  0  0  0  0  0  0  0  0  0  0
    8.3741  -14.8542   26.8021 C   0  0  0  0  0  0  0  0  0  0  0  0
    9.1712  -14.4678   27.8527 O   0  0  0  0  0  0  0  0  0  0  0  0
    8.2012  -16.0623   26.5637 O   0  0  0  0  0  0  0  0  0  0  0  0
  2  1  1  6
  2  3  1  0
  4  5  2  0
  4  2  1  0
  6  4  1  0
  7  8  1  0
  7  6  1  0
  8  9  2  0
 11 10  1  6
 11 13  1  0
 12 11  1  0
 13 15  1  0
 13 14  1  6
 14  8  1  0
 15 17  2  0
 15 16  1  0
M  END
$$$$
