AGT.pdb
     RDKit          3D

 17 16  0  0  1  0  0  0  0  0999 V2000
    6.1613  -18.8366   21.0769 C   0  0  0  0  0  0  0  0  0  0  0  0
    6.6678  -18.2520   22.3884 C   0  0  2  0  0  0  0  0  0  0  0  0
    5.5625  -18.0759   23.3092 N   0  0  0  0  0  0  0  0  0  0  0  0
    7.2737  -16.9464   22.0955 C   0  0  0  0  0  0  0  0  0  0  0  0
    8.3512  -16.8875   21.4282 O   0  0  0  0  0  0  0  0  0  0  0  0
    6.7253  -15.7074   22.5172 N   0  0  0  0  0  0  0  0  0  0  0  0
    7.3584  -14.4653   22.1985 C   0  0  0  0  0  0  0  0  0  0  0  0
    7.7651  -13.7233   23.4232 C   0  0  0  0  0  0  0  0  0  0  0  0
    8.3959  -12.6582   23.2711 O   0  0  0  0  0  0  0  0  0  0  0  0
    6.5753  -11.4482   26.3690 C   0  0  0  0  0  0  0  0  0  0  0  0
    6.6594  -12.9292   26.6873 C   0  0  1  0  0  0  0  0  0  0  0  0
    5.4498  -13.4744   26.2364 O   0  0  0  0  0  0  0  0  0  0  0  0
    7.8275  -13.4934   25.9252 C   0  0  2  0  0  0  0  0  0  0  0  0
    7.4630  -14.1821   24.7301 N   0  0  0  0  0  0  0  0  0  0  0  0
    8.6323  -14.3531   26.8478 C   0  0  0  0  0  0  0  0  0  0  0  0
    9.1090  -13.7725   27.9984 O   0  0  0  0  0  0  0  0  0  0  0  0
    8.8751  -15.5486   26.6073 O   0  0  0  0  0  0  0  0  0  0  0  0
  2  1  1  6
  2  3  1  0
  4  5  2  0
  4  2  1  0
  6  4  1  0
  7  8  1  0
  7  6  1  0
  8  9  2  0
 11 10  1  6
 11 13  1  0
 12 11  1  0
 13 15  1  0
 13 14  1  6
 14  8  1  0
 15 17  2  0
 15 16  1  0
M  END
$$$$
