AGT.pdb
     RDKit          3D

 17 16  0  0  1  0  0  0  0  0999 V2000
    9.5599  -17.6358   19.3150 C   0  0  0  0  0  0  0  0  0  0  0  0
    9.9579  -17.4218   20.7690 C   0  0  2  0  0  0  0  0  0  0  0  0
    9.6199  -18.5947   21.5505 N   0  0  0  0  0  0  0  0  0  0  0  0
    9.2094  -16.2639   21.2753 C   0  0  0  0  0  0  0  0  0  0  0  0
    9.4748  -15.1025   20.8390 O   0  0  0  0  0  0  0  0  0  0  0  0
    8.1789  -16.3515   22.2471 N   0  0  0  0  0  0  0  0  0  0  0  0
    7.3939  -15.2111   22.6056 C   0  0  0  0  0  0  0  0  0  0  0  0
    7.9443  -14.5167   23.8018 C   0  0  0  0  0  0  0  0  0  0  0  0
    9.1848  -14.4448   23.9087 O   0  0  0  0  0  0  0  0  0  0  0  0
    6.1978  -11.2315   25.7854 C   0  0  0  0  0  0  0  0  0  0  0  0
    6.5506  -12.4270   26.6503 C   0  0  1  0  0  0  0  0  0  0  0  0
    5.3627  -13.1607   26.7708 O   0  0  0  0  0  0  0  0  0  0  0  0
    7.6066  -13.2173   25.9265 C   0  0  2  0  0  0  0  0  0  0  0  0
    7.1172  -13.9468   24.8023 N   0  0  0  0  0  0  0  0  0  0  0  0
    8.3040  -14.1012   26.9115 C   0  0  0  0  0  0  0  0  0  0  0  0
    8.8999  -13.4969   27.9923 O   0  0  0  0  0  0  0  0  0  0  0  0
    8.3576  -15.3366   26.7816 O   0  0  0  0  0  0  0  0  0  0  0  0
  2  1  1  6
  2  3  1  0
  4  5  2  0
  4  2  1  0
  6  4  1  0
  7  8  1  0
  7  6  1  0
  8  9  2  0
 11 10  1  6
 11 13  1  0
 12 11  1  0
 13 15  1  0
 13 14  1  6
 14  8  1  0
 15 17  2  0
 15 16  1  0
M  END
$$$$
