IVD.pdb
     RDKit          3D

 24 23  0  0  1  0  0  0  0  0999 V2000
   18.6640  -17.0408  -18.7981 C   0  0  0  0  0  0  0  0  0  0  0  0
   20.0306  -17.2713  -18.2123 C   0  0  0  0  0  0  0  0  0  0  0  0
   20.4849  -16.1292  -17.3471 C   0  0  2  0  0  0  0  0  0  0  0  0
   20.3137  -14.8185  -18.0607 C   0  0  0  0  0  0  0  0  0  0  0  0
   21.8506  -16.3022  -16.7594 C   0  0  2  0  0  0  0  0  0  0  0  0
   21.8626  -17.5735  -16.0612 N   0  0  0  0  0  0  0  0  0  0  0  0
   22.2672  -15.1834  -15.8976 C   0  0  0  0  0  0  0  0  0  0  0  0
   21.7332  -15.0179  -14.7889 O   0  0  0  0  0  0  0  0  0  0  0  0
   25.4834  -11.6464  -14.5662 C   0  0  0  0  0  0  0  0  0  0  0  0
   25.1717  -12.8884  -15.3882 C   0  0  1  0  0  0  0  0  0  0  0  0
   26.0419  -14.0512  -15.0249 C   0  0  0  0  0  0  0  0  0  0  0  0
   23.7202  -13.1944  -15.4424 C   0  0  2  0  0  0  0  0  0  0  0  0
   23.2642  -14.2441  -16.2403 N   0  0  0  0  0  0  0  0  0  0  0  0
   23.0099  -11.9415  -15.8509 C   0  0  0  0  0  0  0  0  0  0  0  0
   23.1272  -11.4743  -17.0350 O   0  0  0  0  0  0  0  0  0  0  0  0
   22.1781  -11.2064  -14.9696 N   0  0  0  0  0  0  0  0  0  0  0  0
   21.4886   -9.9981  -15.4472 C   0  0  1  0  0  0  0  0  0  0  0  0
   20.0189  -10.0678  -15.0733 C   0  0  0  0  0  0  0  0  0  0  0  0
   19.3461   -8.8235  -15.4908 C   0  0  0  0  0  0  0  0  0  0  0  0
   19.4908   -8.4154  -16.6651 O   0  0  0  0  0  0  0  0  0  0  0  0
   22.1820   -8.8345  -14.8674 C   0  0  0  0  0  0  0  0  0  0  0  0
   23.0911   -9.0285  -13.8401 O   0  0  0  0  0  0  0  0  0  0  0  0
   18.5546   -8.0808  -14.6333 O   0  0  0  0  0  0  0  0  0  0  0  0
   22.0013   -7.6508  -15.2494 O   0  0  0  0  0  0  0  0  0  0  0  0
  2  1  1  0
  3  5  1  0
  3  2  1  0
  3  4  1  6
  5  7  1  0
  5  6  1  1
  7  8  2  0
 10 12  1  0
 10  9  1  1
 11 10  1  0
 12 14  1  0
 13  7  1  0
 12 13  1  6
 14 15  2  0
 16 17  1  0
 16 14  1  0
 17 21  1  0
 17 18  1  1
 19 23  1  0
 19 18  1  0
 20 19  2  0
 21 24  2  0
 21 22  1  0
M  END
$$$$
