IVD.pdb
     RDKit          3D

 24 23  0  0  1  0  0  0  0  0999 V2000
   28.8425  -11.9445  -16.3724 C   0  0  0  0  0  0  0  0  0  0  0  0
   27.4314  -12.4651  -16.3313 C   0  0  0  0  0  0  0  0  0  0  0  0
   26.4157  -11.3955  -16.6209 C   0  0  2  0  0  0  0  0  0  0  0  0
   26.6223  -10.2072  -15.7254 C   0  0  0  0  0  0  0  0  0  0  0  0
   24.9982  -11.8757  -16.6393 C   0  0  2  0  0  0  0  0  0  0  0  0
   24.9528  -13.0561  -17.4809 N   0  0  0  0  0  0  0  0  0  0  0  0
   24.0330  -10.8468  -17.0610 C   0  0  0  0  0  0  0  0  0  0  0  0
   24.1234  -10.3311  -18.1869 O   0  0  0  0  0  0  0  0  0  0  0  0
   20.5445  -10.7715  -18.1957 C   0  0  0  0  0  0  0  0  0  0  0  0
   20.6180   -9.9170  -16.9387 C   0  0  1  0  0  0  0  0  0  0  0  0
   19.8994  -10.5360  -15.7803 C   0  0  0  0  0  0  0  0  0  0  0  0
   21.9953   -9.4532  -16.6367 C   0  0  2  0  0  0  0  0  0  0  0  0
   22.9692  -10.3781  -16.2595 N   0  0  0  0  0  0  0  0  0  0  0  0
   21.8954   -8.4050  -15.5726 C   0  0  0  0  0  0  0  0  0  0  0  0
   22.1509   -8.6807  -14.3508 O   0  0  0  0  0  0  0  0  0  0  0  0
   21.5186   -7.0660  -15.8444 N   0  0  0  0  0  0  0  0  0  0  0  0
   21.4129   -6.0951  -14.7446 C   0  0  1  0  0  0  0  0  0  0  0  0
   22.5888   -5.1364  -14.7954 C   0  0  0  0  0  0  0  0  0  0  0  0
   22.4307   -4.1088  -13.7494 C   0  0  0  0  0  0  0  0  0  0  0  0
   22.4664   -4.4517  -12.5461 O   0  0  0  0  0  0  0  0  0  0  0  0
   20.1080   -5.4227  -14.8717 C   0  0  0  0  0  0  0  0  0  0  0  0
   19.5478   -4.8124  -13.7613 O   0  0  0  0  0  0  0  0  0  0  0  0
   22.2430   -2.7701  -14.0424 O   0  0  0  0  0  0  0  0  0  0  0  0
   19.4532   -5.3634  -15.9428 O   0  0  0  0  0  0  0  0  0  0  0  0
  2  1  1  0
  3  5  1  0
  3  2  1  0
  3  4  1  1
  5  7  1  0
  5  6  1  6
  7  8  2  0
 10 12  1  0
 10  9  1  6
 11 10  1  0
 12 14  1  0
 13  7  1  0
 12 13  1  1
 14 15  2  0
 16 17  1  0
 16 14  1  0
 17 21  1  0
 17 18  1  6
 19 23  1  0
 19 18  1  0
 20 19  2  0
 21 24  2  0
 21 22  1  0
M  END
$$$$
