IVD.pdb
     RDKit          3D

 24 23  0  0  1  0  0  0  0  0999 V2000
   25.2539  -15.2262  -17.9062 C   0  0  0  0  0  0  0  0  0  0  0  0
   25.1522  -14.0995  -16.9142 C   0  0  0  0  0  0  0  0  0  0  0  0
   24.4519  -12.8962  -17.4811 C   0  0  2  0  0  0  0  0  0  0  0  0
   25.0641  -12.4910  -18.7916 C   0  0  0  0  0  0  0  0  0  0  0  0
   24.3084  -11.7547  -16.5237 C   0  0  2  0  0  0  0  0  0  0  0  0
   24.3007  -12.3122  -15.1847 N   0  0  0  0  0  0  0  0  0  0  0  0
   23.1323  -10.9089  -16.7875 C   0  0  0  0  0  0  0  0  0  0  0  0
   23.0625  -10.2474  -17.8360 O   0  0  0  0  0  0  0  0  0  0  0  0
   18.4364   -9.5573  -16.0427 C   0  0  0  0  0  0  0  0  0  0  0  0
   19.5510  -10.5932  -16.0240 C   0  0  1  0  0  0  0  0  0  0  0  0
   19.3063  -11.7178  -16.9816 C   0  0  0  0  0  0  0  0  0  0  0  0
   20.9030   -9.9869  -16.1133 C   0  0  2  0  0  0  0  0  0  0  0  0
   22.0318  -10.7816  -15.9120 N   0  0  0  0  0  0  0  0  0  0  0  0
   20.9483   -8.8414  -15.1506 C   0  0  0  0  0  0  0  0  0  0  0  0
   21.6065   -8.9253  -14.0580 O   0  0  0  0  0  0  0  0  0  0  0  0
   20.2782   -7.6143  -15.3827 N   0  0  0  0  0  0  0  0  0  0  0  0
   20.6015   -6.4349  -14.5654 C   0  0  1  0  0  0  0  0  0  0  0  0
   22.0887   -6.1436  -14.6557 C   0  0  0  0  0  0  0  0  0  0  0  0
   22.3968   -4.9191  -13.8937 C   0  0  0  0  0  0  0  0  0  0  0  0
   21.9424   -4.7905  -12.7346 O   0  0  0  0  0  0  0  0  0  0  0  0
   19.7608   -5.3225  -15.0414 C   0  0  0  0  0  0  0  0  0  0  0  0
   19.3754   -4.3335  -14.1510 O   0  0  0  0  0  0  0  0  0  0  0  0
   23.1732   -3.8967  -14.4088 O   0  0  0  0  0  0  0  0  0  0  0  0
   19.3599   -5.2064  -16.2270 O   0  0  0  0  0  0  0  0  0  0  0  0
  2  1  1  0
  3  5  1  0
  3  2  1  0
  3  4  1  6
  5  7  1  0
  5  6  1  1
  7  8  2  0
 10 12  1  0
 10  9  1  6
 11 10  1  0
 12 14  1  0
 13  7  1  0
 12 13  1  1
 14 15  2  0
 16 17  1  0
 16 14  1  0
 17 21  1  0
 17 18  1  6
 19 23  1  0
 19 18  1  0
 20 19  2  0
 21 24  2  0
 21 22  1  0
M  END
$$$$
