IVD.pdb
     RDKit          3D

 24 23  0  0  1  0  0  0  0  0999 V2000
   19.7258  -20.9395  -18.0272 C   0  0  0  0  0  0  0  0  0  0  0  0
   21.1140  -20.8940  -17.4487 C   0  0  0  0  0  0  0  0  0  0  0  0
   21.4525  -19.5475  -16.8726 C   0  0  2  0  0  0  0  0  0  0  0  0
   21.1314  -18.4531  -17.8502 C   0  0  0  0  0  0  0  0  0  0  0  0
   22.8360  -19.4439  -16.3110 C   0  0  2  0  0  0  0  0  0  0  0  0
   22.9698  -20.4744  -15.2990 N   0  0  0  0  0  0  0  0  0  0  0  0
   23.1640  -18.1040  -15.7960 C   0  0  0  0  0  0  0  0  0  0  0  0
   22.6407  -17.6937  -14.7474 O   0  0  0  0  0  0  0  0  0  0  0  0
   25.9391  -14.0148  -15.5635 C   0  0  0  0  0  0  0  0  0  0  0  0
   25.7864  -15.4909  -15.9000 C   0  0  1  0  0  0  0  0  0  0  0  0
   26.6443  -16.3677  -15.0417 C   0  0  0  0  0  0  0  0  0  0  0  0
   24.3675  -15.9163  -15.9964 C   0  0  2  0  0  0  0  0  0  0  0  0
   24.0608  -17.2096  -16.4203 N   0  0  0  0  0  0  0  0  0  0  0  0
   23.6641  -14.9423  -16.8895 C   0  0  0  0  0  0  0  0  0  0  0  0
   23.8437  -14.9610  -18.1550 O   0  0  0  0  0  0  0  0  0  0  0  0
   22.7714  -13.9561  -16.4005 N   0  0  0  0  0  0  0  0  0  0  0  0
   22.0461  -13.0901  -17.3426 C   0  0  1  0  0  0  0  0  0  0  0  0
   20.8544  -12.4610  -16.6436 C   0  0  0  0  0  0  0  0  0  0  0  0
   19.7694  -13.4537  -16.5326 C   0  0  0  0  0  0  0  0  0  0  0  0
   19.7031  -14.3820  -17.3696 O   0  0  0  0  0  0  0  0  0  0  0  0
   23.0055  -12.0997  -17.8619 C   0  0  0  0  0  0  0  0  0  0  0  0
   23.9632  -11.5716  -17.0115 O   0  0  0  0  0  0  0  0  0  0  0  0
   18.8129  -13.4035  -15.5347 O   0  0  0  0  0  0  0  0  0  0  0  0
   23.0151  -11.6917  -19.0507 O   0  0  0  0  0  0  0  0  0  0  0  0
  2  1  1  0
  3  5  1  0
  3  2  1  0
  3  4  1  6
  5  7  1  0
  5  6  1  1
  7  8  2  0
 10 12  1  0
 10  9  1  1
 11 10  1  0
 12 14  1  0
 13  7  1  0
 12 13  1  6
 14 15  2  0
 16 17  1  0
 16 14  1  0
 17 21  1  0
 17 18  1  1
 19 23  1  0
 19 18  1  0
 20 19  2  0
 21 24  2  0
 21 22  1  0
M  END
$$$$
