IVD.pdb
     RDKit          3D

 24 23  0  0  1  0  0  0  0  0999 V2000
   17.2512  -13.4749  -13.5805 C   0  0  0  0  0  0  0  0  0  0  0  0
   16.6329  -13.1061  -12.2593 C   0  0  0  0  0  0  0  0  0  0  0  0
   16.1722  -11.6758  -12.2197 C   0  0  2  0  0  0  0  0  0  0  0  0
   17.3021  -10.7423  -12.5486 C   0  0  0  0  0  0  0  0  0  0  0  0
   15.4420  -11.2944  -10.9701 C   0  0  2  0  0  0  0  0  0  0  0  0
   14.3823  -12.2655  -10.7754 N   0  0  0  0  0  0  0  0  0  0  0  0
   14.9411   -9.9098  -10.9798 C   0  0  0  0  0  0  0  0  0  0  0  0
   14.0237   -9.5840  -11.7505 O   0  0  0  0  0  0  0  0  0  0  0  0
   13.2737   -7.5276   -8.2083 C   0  0  0  0  0  0  0  0  0  0  0  0
   14.5955   -7.0015   -8.7486 C   0  0  1  0  0  0  0  0  0  0  0  0
   15.6939   -7.0560   -7.7328 C   0  0  0  0  0  0  0  0  0  0  0  0
   14.9466   -7.5753  -10.0718 C   0  0  2  0  0  0  0  0  0  0  0  0
   15.4369   -8.8790  -10.1520 N   0  0  0  0  0  0  0  0  0  0  0  0
   15.9351   -6.6536  -10.7154 C   0  0  0  0  0  0  0  0  0  0  0  0
   17.1679   -6.6705  -10.3777 O   0  0  0  0  0  0  0  0  0  0  0  0
   15.5763   -5.7209  -11.7205 N   0  0  0  0  0  0  0  0  0  0  0  0
   16.6043   -4.8582  -12.3225 C   0  0  1  0  0  0  0  0  0  0  0  0
   16.7748   -5.2142  -13.7884 C   0  0  0  0  0  0  0  0  0  0  0  0
   17.7125   -4.2663  -14.4186 C   0  0  0  0  0  0  0  0  0  0  0  0
   18.1425   -3.2983  -13.7517 O   0  0  0  0  0  0  0  0  0  0  0  0
   16.1905   -3.4605  -12.1076 C   0  0  0  0  0  0  0  0  0  0  0  0
   14.8720   -3.1851  -11.7835 O   0  0  0  0  0  0  0  0  0  0  0  0
   18.1418   -4.4014  -15.7265 O   0  0  0  0  0  0  0  0  0  0  0  0
   16.9693   -2.4784  -12.2001 O   0  0  0  0  0  0  0  0  0  0  0  0
  2  1  1  0
  3  5  1  0
  3  2  1  0
  3  4  1  1
  5  7  1  0
  5  6  1  6
  7  8  2  0
 10 12  1  0
 10  9  1  1
 11 10  1  0
 12 14  1  0
 13  7  1  0
 12 13  1  1
 14 15  2  0
 16 17  1  0
 16 14  1  0
 17 21  1  0
 17 18  1  6
 19 23  1  0
 19 18  1  0
 20 19  2  0
 21 24  2  0
 21 22  1  0
M  END
$$$$
