IVD.pdb
     RDKit          3D

 24 23  0  0  1  0  0  0  0  0999 V2000
   13.8482   -9.8571  -17.2882 C   0  0  0  0  0  0  0  0  0  0  0  0
   14.9293  -10.8046  -16.8440 C   0  0  0  0  0  0  0  0  0  0  0  0
   16.0033  -10.1180  -16.0474 C   0  0  2  0  0  0  0  0  0  0  0  0
   16.5567   -8.9420  -16.8006 C   0  0  0  0  0  0  0  0  0  0  0  0
   17.0671  -11.0320  -15.5246 C   0  0  2  0  0  0  0  0  0  0  0  0
   16.4072  -12.0609  -14.7438 N   0  0  0  0  0  0  0  0  0  0  0  0
   18.1194  -10.3372  -14.7643 C   0  0  0  0  0  0  0  0  0  0  0  0
   17.8448   -9.7714  -13.6937 O   0  0  0  0  0  0  0  0  0  0  0  0
   22.3024  -10.6297  -15.9015 C   0  0  0  0  0  0  0  0  0  0  0  0
   21.8701  -10.2142  -14.5029 C   0  0  1  0  0  0  0  0  0  0  0  0
   22.9117   -9.4032  -13.7967 C   0  0  0  0  0  0  0  0  0  0  0  0
   20.5050   -9.6322  -14.4706 C   0  0  2  0  0  0  0  0  0  0  0  0
   19.4703  -10.2570  -15.1673 N   0  0  0  0  0  0  0  0  0  0  0  0
   20.6077   -8.2143  -14.9398 C   0  0  0  0  0  0  0  0  0  0  0  0
   20.5777   -7.9292  -16.1856 O   0  0  0  0  0  0  0  0  0  0  0  0
   20.7422   -7.1178  -14.0519 N   0  0  0  0  0  0  0  0  0  0  0  0
   20.8997   -5.7560  -14.5851 C   0  0  1  0  0  0  0  0  0  0  0  0
   19.5569   -5.0478  -14.5807 C   0  0  0  0  0  0  0  0  0  0  0  0
   19.7225   -3.6770  -15.0989 C   0  0  0  0  0  0  0  0  0  0  0  0
   20.5191   -3.4730  -16.0425 O   0  0  0  0  0  0  0  0  0  0  0  0
   21.9190   -5.0756  -13.7672 C   0  0  0  0  0  0  0  0  0  0  0  0
   22.2445   -5.5894  -12.5225 O   0  0  0  0  0  0  0  0  0  0  0  0
   19.0297   -2.5968  -14.5830 O   0  0  0  0  0  0  0  0  0  0  0  0
   22.5275   -4.0372  -14.1295 O   0  0  0  0  0  0  0  0  0  0  0  0
  2  1  1  0
  3  5  1  0
  3  2  1  0
  3  4  1  6
  5  7  1  0
  5  6  1  1
  7  8  2  0
 10 12  1  0
 10  9  1  6
 11 10  1  0
 12 14  1  0
 13  7  1  0
 12 13  1  6
 14 15  2  0
 16 17  1  0
 16 14  1  0
 17 21  1  0
 17 18  1  1
 19 23  1  0
 19 18  1  0
 20 19  2  0
 21 24  2  0
 21 22  1  0
M  END
$$$$
