DKH.pdb
     RDKit          3D

 28 28  0  0  1  0  0  0  0  0999 V2000
   17.0546  -14.1335  -15.7326 N   0  0  0  0  0  0  0  0  0  0  0  0
   17.1764  -12.8915  -16.4269 C   0  0  1  0  0  0  0  0  0  0  0  0
   16.0878  -11.9249  -16.0824 C   0  0  0  0  0  0  0  0  0  0  0  0
   14.7624  -12.4707  -16.4547 C   0  0  0  0  0  0  0  0  0  0  0  0
   14.6444  -13.0500  -17.5603 O   0  0  0  0  0  0  0  0  0  0  0  0
   18.4834  -12.2133  -16.1497 C   0  0  0  0  0  0  0  0  0  0  0  0
   18.8485  -12.1051  -14.9618 O   0  0  0  0  0  0  0  0  0  0  0  0
   13.6729  -12.3484  -15.6068 O   0  0  0  0  0  0  0  0  0  0  0  0
   19.3101  -11.6971  -17.1674 N   0  0  0  0  0  0  0  0  0  0  0  0
   20.6236  -11.1632  -16.8813 C   0  0  1  0  0  0  0  0  0  0  0  0
   21.6012  -11.4897  -18.0124 C   0  0  0  0  0  0  0  0  0  0  0  0
   21.8339  -12.9782  -17.9702 C   0  0  0  0  0  0  0  0  0  0  0  0
   22.7854  -13.4425  -19.0384 C   0  0  0  0  0  0  0  0  0  0  0  0
   22.9543  -14.9439  -18.8725 C   0  0  0  0  0  0  0  0  0  0  0  0
   23.8807  -15.3783  -19.9124 N   0  0  0  0  0  0  0  0  0  0  0  0
   20.5229   -9.7064  -16.7147 C   0  0  0  0  0  0  0  0  0  0  0  0
   19.7577   -9.0530  -17.4795 O   0  0  0  0  0  0  0  0  0  0  0  0
   21.2678   -8.9984  -15.7081 N   0  0  0  0  0  0  0  0  0  0  0  0
   21.0987   -7.5886  -15.6006 C   0  0  1  0  0  0  0  0  0  0  0  0
   21.6994   -7.0143  -14.3349 C   0  0  0  0  0  0  0  0  0  0  0  0
   21.5097   -5.5444  -14.2496 C   0  0  0  0  0  0  0  0  0  0  0  0
   22.3895   -4.5616  -14.6875 C   0  0  0  0  0  0  0  0  0  0  0  0
   21.8299   -3.3689  -14.4187 N   0  0  0  0  0  0  0  0  0  0  0  0
   20.6377   -3.5564  -13.8313 C   0  0  0  0  0  0  0  0  0  0  0  0
   20.4656   -4.8868  -13.7396 N   0  0  0  0  0  0  0  0  0  0  0  0
   21.7761   -6.9091  -16.7326 C   0  0  0  0  0  0  0  0  0  0  0  0
   22.8681   -7.3750  -17.1360 O   0  0  0  0  0  0  0  0  0  0  0  0
   21.2352   -5.7997  -17.3325 O   0  0  0  0  0  0  0  0  0  0  0  0
  2  1  1  1
  2  3  1  0
  3  4  1  0
  4  5  2  0
  4  8  1  0
  6  7  2  0
  6  2  1  0
  9  6  1  0
 10  9  1  0
 10 11  1  6
 11 12  1  0
 12 13  1  0
 13 14  1  0
 14 15  1  0
 16 17  2  0
 16 10  1  0
 18 16  1  0
 19 18  1  0
 19 20  1  1
 20 21  1  0
 21 25  1  0
 21 22  2  0
 22 23  1  0
 24 23  1  0
 25 24  2  0
 26 28  1  0
 26 19  1  0
 27 26  2  0
M  END
$$$$
