DKH.pdb
     RDKit          3D

 28 28  0  0  1  0  0  0  0  0999 V2000
   14.0974  -11.9753  -14.9051 N   0  0  0  0  0  0  0  0  0  0  0  0
   14.6453  -10.8499  -15.5925 C   0  0  1  0  0  0  0  0  0  0  0  0
   13.9986   -9.5591  -15.2006 C   0  0  0  0  0  0  0  0  0  0  0  0
   12.5551   -9.5723  -15.5310 C   0  0  0  0  0  0  0  0  0  0  0  0
   11.7491   -9.0818  -14.7054 O   0  0  0  0  0  0  0  0  0  0  0  0
   16.1178  -10.7041  -15.3569 C   0  0  0  0  0  0  0  0  0  0  0  0
   16.5306  -10.7394  -14.1803 O   0  0  0  0  0  0  0  0  0  0  0  0
   12.0974  -10.1123  -16.7226 O   0  0  0  0  0  0  0  0  0  0  0  0
   17.0476  -10.5302  -16.4014 N   0  0  0  0  0  0  0  0  0  0  0  0
   18.4684  -10.4380  -16.1459 C   0  0  1  0  0  0  0  0  0  0  0  0
   19.2583  -11.2627  -17.1646 C   0  0  0  0  0  0  0  0  0  0  0  0
   19.0466  -12.7119  -16.8091 C   0  0  0  0  0  0  0  0  0  0  0  0
   19.7291  -13.6460  -17.7703 C   0  0  0  0  0  0  0  0  0  0  0  0
   19.3001  -15.0589  -17.4100 C   0  0  0  0  0  0  0  0  0  0  0  0
   19.9981  -15.9546  -18.3258 N   0  0  0  0  0  0  0  0  0  0  0  0
   18.8783   -9.0286  -16.2205 C   0  0  0  0  0  0  0  0  0  0  0  0
   18.3054   -8.2662  -17.0501 O   0  0  0  0  0  0  0  0  0  0  0  0
   19.9118   -8.4871  -15.3791 N   0  0  0  0  0  0  0  0  0  0  0  0
   20.2921   -7.1263  -15.5567 C   0  0  1  0  0  0  0  0  0  0  0  0
   21.2196   -6.6234  -14.4708 C   0  0  0  0  0  0  0  0  0  0  0  0
   21.5747   -5.1949  -14.6637 C   0  0  0  0  0  0  0  0  0  0  0  0
   21.0795   -4.3349  -15.6368 C   0  0  0  0  0  0  0  0  0  0  0  0
   21.6630   -3.1375  -15.4531 N   0  0  0  0  0  0  0  0  0  0  0  0
   22.5030   -3.2048  -14.4084 C   0  0  0  0  0  0  0  0  0  0  0  0
   22.4318   -4.4652  -13.9455 N   0  0  0  0  0  0  0  0  0  0  0  0
   21.0218   -6.9672  -16.8389 C   0  0  0  0  0  0  0  0  0  0  0  0
   21.7796   -7.8952  -17.2090 O   0  0  0  0  0  0  0  0  0  0  0  0
   20.8820   -5.8411  -17.6105 O   0  0  0  0  0  0  0  0  0  0  0  0
  2  1  1  1
  2  3  1  0
  3  4  1  0
  4  5  2  0
  4  8  1  0
  6  7  2  0
  6  2  1  0
  9  6  1  0
 10  9  1  0
 10 11  1  6
 11 12  1  0
 12 13  1  0
 13 14  1  0
 14 15  1  0
 16 17  2  0
 16 10  1  0
 18 16  1  0
 19 18  1  0
 19 20  1  1
 20 21  1  0
 21 25  1  0
 21 22  2  0
 22 23  1  0
 24 23  1  0
 25 24  2  0
 26 28  1  0
 26 19  1  0
 27 26  2  0
M  END
$$$$
