DKH.pdb
     RDKit          3D

 28 28  0  0  1  0  0  0  0  0999 V2000
   26.5789  -23.8757  -18.4026 N   0  0  0  0  0  0  0  0  0  0  0  0
   26.9979  -24.6471  -17.2762 C   0  0  1  0  0  0  0  0  0  0  0  0
   25.9133  -24.8302  -16.2622 C   0  0  0  0  0  0  0  0  0  0  0  0
   25.5417  -23.5343  -15.6495 C   0  0  0  0  0  0  0  0  0  0  0  0
   26.4125  -22.6349  -15.5806 O   0  0  0  0  0  0  0  0  0  0  0  0
   27.4789  -26.0103  -17.6705 C   0  0  0  0  0  0  0  0  0  0  0  0
   26.8345  -26.6318  -18.5390 O   0  0  0  0  0  0  0  0  0  0  0  0
   24.2637  -23.3124  -15.1614 O   0  0  0  0  0  0  0  0  0  0  0  0
   28.6199  -26.6137  -17.1050 N   0  0  0  0  0  0  0  0  0  0  0  0
   29.0939  -27.9064  -17.5483 C   0  0  1  0  0  0  0  0  0  0  0  0
   30.5926  -28.0573  -17.2788 C   0  0  0  0  0  0  0  0  0  0  0  0
   31.2993  -27.0964  -18.2002 C   0  0  0  0  0  0  0  0  0  0  0  0
   32.7908  -27.1051  -18.0069 C   0  0  0  0  0  0  0  0  0  0  0  0
   33.3796  -26.1008  -18.9841 C   0  0  0  0  0  0  0  0  0  0  0  0
   34.7805  -25.9292  -18.6147 N   0  0  0  0  0  0  0  0  0  0  0  0
   28.3517  -28.9581  -16.8389 C   0  0  0  0  0  0  0  0  0  0  0  0
   28.0751  -28.7955  -15.6164 O   0  0  0  0  0  0  0  0  0  0  0  0
   27.9289  -30.1685  -17.4912 N   0  0  0  0  0  0  0  0  0  0  0  0
   27.1617  -31.1107  -16.7486 C   0  0  1  0  0  0  0  0  0  0  0  0
   25.8233  -30.5633  -16.2999 C   0  0  0  0  0  0  0  0  0  0  0  0
   25.0031  -31.5960  -15.6181 C   0  0  0  0  0  0  0  0  0  0  0  0
   25.3191  -32.2750  -14.4473 C   0  0  0  0  0  0  0  0  0  0  0  0
   24.3053  -33.1176  -14.1823 N   0  0  0  0  0  0  0  0  0  0  0  0
   23.3654  -32.9996  -15.1333 C   0  0  0  0  0  0  0  0  0  0  0  0
   23.8126  -32.0689  -15.9945 N   0  0  0  0  0  0  0  0  0  0  0  0
   26.8693  -32.2995  -17.5871 C   0  0  0  0  0  0  0  0  0  0  0  0
   26.8366  -32.1534  -18.8321 O   0  0  0  0  0  0  0  0  0  0  0  0
   26.6385  -33.5325  -17.0306 O   0  0  0  0  0  0  0  0  0  0  0  0
  2  1  1  6
  2  3  1  0
  3  4  1  0
  4  5  2  0
  4  8  1  0
  6  7  2  0
  6  2  1  0
  9  6  1  0
 10  9  1  0
 10 11  1  1
 11 12  1  0
 12 13  1  0
 13 14  1  0
 14 15  1  0
 16 17  2  0
 16 10  1  0
 18 16  1  0
 19 18  1  0
 19 20  1  6
 20 21  1  0
 21 25  1  0
 21 22  2  0
 22 23  1  0
 24 23  1  0
 25 24  2  0
 26 28  1  0
 26 19  1  0
 27 26  2  0
M  END
$$$$
