DKH.pdb
     RDKit          3D

 28 28  0  0  1  0  0  0  0  0999 V2000
   23.2154  -18.6683  -17.8596 N   0  0  0  0  0  0  0  0  0  0  0  0
   23.5287  -20.0250  -17.5422 C   0  0  1  0  0  0  0  0  0  0  0  0
   24.0201  -20.7990  -18.7244 C   0  0  0  0  0  0  0  0  0  0  0  0
   23.0529  -20.7212  -19.8430 C   0  0  0  0  0  0  0  0  0  0  0  0
   21.8510  -20.9947  -19.6133 O   0  0  0  0  0  0  0  0  0  0  0  0
   24.5718  -20.1299  -16.4717 C   0  0  0  0  0  0  0  0  0  0  0  0
   25.0028  -21.2638  -16.1810 O   0  0  0  0  0  0  0  0  0  0  0  0
   23.4581  -20.3554  -21.1170 O   0  0  0  0  0  0  0  0  0  0  0  0
   25.0815  -19.0096  -15.7857 N   0  0  0  0  0  0  0  0  0  0  0  0
   26.1192  -19.1384  -14.7861 C   0  0  1  0  0  0  0  0  0  0  0  0
   26.9692  -17.8678  -14.7185 C   0  0  0  0  0  0  0  0  0  0  0  0
   27.8929  -17.8984  -15.9090 C   0  0  0  0  0  0  0  0  0  0  0  0
   27.9259  -16.5876  -16.6458 C   0  0  0  0  0  0  0  0  0  0  0  0
   29.0158  -16.6885  -17.7004 C   0  0  0  0  0  0  0  0  0  0  0  0
   28.9853  -15.4402  -18.4547 N   0  0  0  0  0  0  0  0  0  0  0  0
   25.4967  -19.3917  -13.4790 C   0  0  0  0  0  0  0  0  0  0  0  0
   24.5489  -18.6482  -13.0966 O   0  0  0  0  0  0  0  0  0  0  0  0
   25.9314  -20.4598  -12.6190 N   0  0  0  0  0  0  0  0  0  0  0  0
   25.3567  -20.5661  -11.3206 C   0  0  1  0  0  0  0  0  0  0  0  0
   24.3763  -21.7134  -11.1984 C   0  0  0  0  0  0  0  0  0  0  0  0
   23.1056  -21.4344  -11.9135 C   0  0  0  0  0  0  0  0  0  0  0  0
   22.7817  -20.2845  -12.6238 C   0  0  0  0  0  0  0  0  0  0  0  0
   21.5387  -20.4464  -13.1104 N   0  0  0  0  0  0  0  0  0  0  0  0
   21.0655  -21.6461  -12.7386 C   0  0  0  0  0  0  0  0  0  0  0  0
   22.0361  -22.2276  -12.0121 N   0  0  0  0  0  0  0  0  0  0  0  0
   26.4192  -20.8130  -10.3146 C   0  0  0  0  0  0  0  0  0  0  0  0
   27.5925  -20.9864  -10.7219 O   0  0  0  0  0  0  0  0  0  0  0  0
   26.1418  -20.8536   -8.9713 O   0  0  0  0  0  0  0  0  0  0  0  0
  2  1  1  6
  2  3  1  0
  3  4  1  0
  4  5  2  0
  4  8  1  0
  6  7  2  0
  6  2  1  0
  9  6  1  0
 10  9  1  0
 10 11  1  1
 11 12  1  0
 12 13  1  0
 13 14  1  0
 14 15  1  0
 16 17  2  0
 16 10  1  0
 18 16  1  0
 19 18  1  0
 19 20  1  6
 20 21  1  0
 21 25  1  0
 21 22  2  0
 22 23  1  0
 24 23  1  0
 25 24  2  0
 26 28  1  0
 26 19  1  0
 27 26  2  0
M  END
$$$$
