DKH.pdb
     RDKit          3D

 28 28  0  0  1  0  0  0  0  0999 V2000
   19.9196  -26.0894  -12.3787 N   0  0  0  0  0  0  0  0  0  0  0  0
   19.3841  -25.0168  -13.1547 C   0  0  1  0  0  0  0  0  0  0  0  0
   18.2046  -24.3638  -12.5062 C   0  0  0  0  0  0  0  0  0  0  0  0
   17.0814  -25.3196  -12.3730 C   0  0  0  0  0  0  0  0  0  0  0  0
   16.9241  -26.1844  -13.2671 O   0  0  0  0  0  0  0  0  0  0  0  0
   20.3996  -23.9476  -13.4202 C   0  0  0  0  0  0  0  0  0  0  0  0
   20.8576  -23.3178  -12.4458 O   0  0  0  0  0  0  0  0  0  0  0  0
   16.2197  -25.2667  -11.2888 O   0  0  0  0  0  0  0  0  0  0  0  0
   20.8546  -23.6272  -14.7148 N   0  0  0  0  0  0  0  0  0  0  0  0
   21.8813  -22.6322  -14.9344 C   0  0  1  0  0  0  0  0  0  0  0  0
   22.7663  -23.0174  -16.1218 C   0  0  0  0  0  0  0  0  0  0  0  0
   23.7860  -23.9991  -15.6040 C   0  0  0  0  0  0  0  0  0  0  0  0
   24.8189  -24.3551  -16.6377 C   0  0  0  0  0  0  0  0  0  0  0  0
   25.7766  -25.3467  -15.9975 C   0  0  0  0  0  0  0  0  0  0  0  0
   26.7680  -25.6861  -17.0126 N   0  0  0  0  0  0  0  0  0  0  0  0
   21.2429  -21.3331  -15.1895 C   0  0  0  0  0  0  0  0  0  0  0  0
   20.2946  -21.2688  -16.0226 O   0  0  0  0  0  0  0  0  0  0  0  0
   21.6626  -20.1303  -14.5212 N   0  0  0  0  0  0  0  0  0  0  0  0
   21.0111  -18.9068  -14.8473 C   0  0  1  0  0  0  0  0  0  0  0  0
   20.7026  -18.0574  -13.6324 C   0  0  0  0  0  0  0  0  0  0  0  0
   19.6282  -18.6530  -12.7988 C   0  0  0  0  0  0  0  0  0  0  0  0
   18.9503  -19.8431  -13.0349 C   0  0  0  0  0  0  0  0  0  0  0  0
   18.0622  -20.0071  -12.0387 N   0  0  0  0  0  0  0  0  0  0  0  0
   18.1503  -18.9741  -11.1864 C   0  0  0  0  0  0  0  0  0  0  0  0
   19.1089  -18.1646  -11.6699 N   0  0  0  0  0  0  0  0  0  0  0  0
   21.8835  -18.0858  -15.7229 C   0  0  0  0  0  0  0  0  0  0  0  0
   23.0673  -18.4600  -15.8992 O   0  0  0  0  0  0  0  0  0  0  0  0
   21.4225  -16.9451  -16.3307 O   0  0  0  0  0  0  0  0  0  0  0  0
  2  1  1  1
  2  3  1  0
  3  4  1  0
  4  5  2  0
  4  8  1  0
  6  7  2  0
  6  2  1  0
  9  6  1  0
 10  9  1  0
 10 11  1  6
 11 12  1  0
 12 13  1  0
 13 14  1  0
 14 15  1  0
 16 17  2  0
 16 10  1  0
 18 16  1  0
 19 18  1  0
 19 20  1  1
 20 21  1  0
 21 25  1  0
 21 22  2  0
 22 23  1  0
 24 23  1  0
 25 24  2  0
 26 28  1  0
 26 19  1  0
 27 26  2  0
M  END
$$$$
