DKH.pdb
     RDKit          3D

 28 28  0  0  1  0  0  0  0  0999 V2000
   17.3360  -12.6364    3.9533 N   0  0  0  0  0  0  0  0  0  0  0  0
   17.1465  -12.5821    5.3677 C   0  0  1  0  0  0  0  0  0  0  0  0
   15.9660  -13.3786    5.8261 C   0  0  0  0  0  0  0  0  0  0  0  0
   14.7067  -12.8013    5.3028 C   0  0  0  0  0  0  0  0  0  0  0  0
   14.0989  -13.4176    4.3957 O   0  0  0  0  0  0  0  0  0  0  0  0
   18.3434  -13.0802    6.1191 C   0  0  0  0  0  0  0  0  0  0  0  0
   18.8894  -14.1300    5.7244 O   0  0  0  0  0  0  0  0  0  0  0  0
   14.2047  -11.6082    5.7984 O   0  0  0  0  0  0  0  0  0  0  0  0
   18.8728  -12.4168    7.2439 N   0  0  0  0  0  0  0  0  0  0  0  0
   20.0555  -12.8989    7.9230 C   0  0  1  0  0  0  0  0  0  0  0  0
   20.6917  -11.7878    8.7611 C   0  0  0  0  0  0  0  0  0  0  0  0
   21.6230  -11.0329    7.8477 C   0  0  0  0  0  0  0  0  0  0  0  0
   22.2890   -9.8730    8.5356 C   0  0  0  0  0  0  0  0  0  0  0  0
   23.1852   -9.1942    7.5128 C   0  0  0  0  0  0  0  0  0  0  0  0
   23.8671   -8.1084    8.2088 N   0  0  0  0  0  0  0  0  0  0  0  0
   19.6844  -14.0264    8.7897 C   0  0  0  0  0  0  0  0  0  0  0  0
   18.5123  -14.0787    9.2599 O   0  0  0  0  0  0  0  0  0  0  0  0
   20.6126  -15.0742    9.1210 N   0  0  0  0  0  0  0  0  0  0  0  0
   20.1790  -16.1215    9.9830 C   0  0  1  0  0  0  0  0  0  0  0  0
   19.0630  -16.9545    9.3888 C   0  0  0  0  0  0  0  0  0  0  0  0
   18.6462  -18.0513   10.2984 C   0  0  0  0  0  0  0  0  0  0  0  0
   17.9685  -17.9238   11.5052 C   0  0  0  0  0  0  0  0  0  0  0  0
   17.7912  -19.1607   12.0020 N   0  0  0  0  0  0  0  0  0  0  0  0
   18.3266  -20.0609   11.1626 C   0  0  0  0  0  0  0  0  0  0  0  0
   18.8401  -19.3621   10.1349 N   0  0  0  0  0  0  0  0  0  0  0  0
   21.3014  -17.0540   10.2519 C   0  0  0  0  0  0  0  0  0  0  0  0
   21.1133  -17.9889   11.0663 O   0  0  0  0  0  0  0  0  0  0  0  0
   22.5185  -16.9109    9.6345 O   0  0  0  0  0  0  0  0  0  0  0  0
  2  1  1  6
  2  3  1  0
  3  4  1  0
  4  5  2  0
  4  8  1  0
  6  7  2  0
  6  2  1  0
  9  6  1  0
 10  9  1  0
 10 11  1  1
 11 12  1  0
 12 13  1  0
 13 14  1  0
 14 15  1  0
 16 17  2  0
 16 10  1  0
 18 16  1  0
 19 18  1  0
 19 20  1  6
 20 21  1  0
 21 25  1  0
 21 22  2  0
 22 23  1  0
 24 23  1  0
 25 24  2  0
 26 28  1  0
 26 19  1  0
 27 26  2  0
M  END
$$$$
