DKH.pdb
     RDKit          3D

 28 28  0  0  1  0  0  0  0  0999 V2000
   32.5500  -25.6888  -19.9331 N   0  0  0  0  0  0  0  0  0  0  0  0
   33.5924  -26.5286  -19.4355 C   0  0  1  0  0  0  0  0  0  0  0  0
   34.0995  -26.0930  -18.0971 C   0  0  0  0  0  0  0  0  0  0  0  0
   35.1924  -25.1047  -18.2449 C   0  0  0  0  0  0  0  0  0  0  0  0
   35.5734  -24.8042  -19.4009 O   0  0  0  0  0  0  0  0  0  0  0  0
   33.1570  -27.9566  -19.3078 C   0  0  0  0  0  0  0  0  0  0  0  0
   31.9805  -28.2409  -19.6091 O   0  0  0  0  0  0  0  0  0  0  0  0
   35.7855  -24.5208  -17.1367 O   0  0  0  0  0  0  0  0  0  0  0  0
   34.0152  -28.9828  -18.8650 N   0  0  0  0  0  0  0  0  0  0  0  0
   33.6511  -30.3783  -18.9765 C   0  0  1  0  0  0  0  0  0  0  0  0
   34.8924  -31.2707  -18.9110 C   0  0  0  0  0  0  0  0  0  0  0  0
   35.6965  -30.9895  -20.1544 C   0  0  0  0  0  0  0  0  0  0  0  0
   36.9821  -31.7688  -20.1970 C   0  0  0  0  0  0  0  0  0  0  0  0
   37.6700  -31.4356  -21.5108 C   0  0  0  0  0  0  0  0  0  0  0  0
   38.9446  -32.1453  -21.5076 N   0  0  0  0  0  0  0  0  0  0  0  0
   32.7317  -30.7225  -17.8827 C   0  0  0  0  0  0  0  0  0  0  0  0
   33.0427  -30.4092  -16.6984 O   0  0  0  0  0  0  0  0  0  0  0  0
   31.4873  -31.4054  -18.1159 N   0  0  0  0  0  0  0  0  0  0  0  0
   30.6758  -31.7449  -16.9961 C   0  0  1  0  0  0  0  0  0  0  0  0
   29.1933  -31.6314  -17.2821 C   0  0  0  0  0  0  0  0  0  0  0  0
   28.3718  -32.0065  -16.1038 C   0  0  0  0  0  0  0  0  0  0  0  0
   27.0346  -31.6972  -15.8850 C   0  0  0  0  0  0  0  0  0  0  0  0
   26.6856  -32.2273  -14.6996 N   0  0  0  0  0  0  0  0  0  0  0  0
   27.7426  -32.8563  -14.1623 C   0  0  0  0  0  0  0  0  0  0  0  0
   28.7552  -32.7081  -15.0345 N   0  0  0  0  0  0  0  0  0  0  0  0
   30.9205  -33.1543  -16.6015 C   0  0  0  0  0  0  0  0  0  0  0  0
   30.3425  -33.5924  -15.5786 O   0  0  0  0  0  0  0  0  0  0  0  0
   31.7539  -33.9691  -17.3257 O   0  0  0  0  0  0  0  0  0  0  0  0
  2  1  1  1
  2  3  1  0
  3  4  1  0
  4  5  2  0
  4  8  1  0
  6  7  2  0
  6  2  1  0
  9  6  1  0
 10  9  1  0
 10 11  1  1
 11 12  1  0
 12 13  1  0
 13 14  1  0
 14 15  1  0
 16 17  2  0
 16 10  1  0
 18 16  1  0
 19 18  1  0
 19 20  1  6
 20 21  1  0
 21 25  1  0
 21 22  2  0
 22 23  1  0
 24 23  1  0
 25 24  2  0
 26 28  1  0
 26 19  1  0
 27 26  2  0
M  END
$$$$
