DKH.pdb
     RDKit          3D

 28 28  0  0  1  0  0  0  0  0999 V2000
   27.5248  -20.3188  -10.2595 N   0  0  0  0  0  0  0  0  0  0  0  0
   26.2227  -20.8656  -10.4707 C   0  0  1  0  0  0  0  0  0  0  0  0
   25.2390  -20.4424   -9.4260 C   0  0  0  0  0  0  0  0  0  0  0  0
   25.7232  -20.7984   -8.0726 C   0  0  0  0  0  0  0  0  0  0  0  0
   26.8726  -21.2861   -7.9588 O   0  0  0  0  0  0  0  0  0  0  0  0
   25.6559  -20.4808  -11.8033 C   0  0  0  0  0  0  0  0  0  0  0  0
   25.6122  -19.2688  -12.0949 O   0  0  0  0  0  0  0  0  0  0  0  0
   24.9309  -20.6005   -6.9527 O   0  0  0  0  0  0  0  0  0  0  0  0
   25.1744  -21.4241  -12.7328 N   0  0  0  0  0  0  0  0  0  0  0  0
   24.7551  -21.0355  -14.0615 C   0  0  1  0  0  0  0  0  0  0  0  0
   24.8571  -22.2155  -15.0304 C   0  0  0  0  0  0  0  0  0  0  0  0
   24.4975  -21.6893  -16.3962 C   0  0  0  0  0  0  0  0  0  0  0  0
   24.6842  -22.7184  -17.4770 C   0  0  0  0  0  0  0  0  0  0  0  0
   24.4347  -22.0275  -18.8077 C   0  0  0  0  0  0  0  0  0  0  0  0
   24.5650  -23.0494  -19.8407 N   0  0  0  0  0  0  0  0  0  0  0  0
   23.3670  -20.5558  -14.0049 C   0  0  0  0  0  0  0  0  0  0  0  0
   22.4962  -21.2648  -13.4247 O   0  0  0  0  0  0  0  0  0  0  0  0
   22.9659  -19.3039  -14.5890 N   0  0  0  0  0  0  0  0  0  0  0  0
   21.6365  -18.8438  -14.3686 C   0  0  1  0  0  0  0  0  0  0  0  0
   21.4537  -17.3780  -14.7012 C   0  0  0  0  0  0  0  0  0  0  0  0
   20.0581  -16.9277  -14.4701 C   0  0  0  0  0  0  0  0  0  0  0  0
   19.0114  -17.6822  -13.9535 C   0  0  0  0  0  0  0  0  0  0  0  0
   17.9248  -16.8914  -13.9119 N   0  0  0  0  0  0  0  0  0  0  0  0
   18.2401  -15.6732  -14.3790 C   0  0  0  0  0  0  0  0  0  0  0  0
   19.5420  -15.7202  -14.7117 N   0  0  0  0  0  0  0  0  0  0  0  0
   20.6912  -19.5916  -15.2340 C   0  0  0  0  0  0  0  0  0  0  0  0
   21.0063  -19.7785  -16.4333 O   0  0  0  0  0  0  0  0  0  0  0  0
   19.5004  -20.0724  -14.7503 O   0  0  0  0  0  0  0  0  0  0  0  0
  2  1  1  1
  2  3  1  0
  3  4  1  0
  4  5  2  0
  4  8  1  0
  6  7  2  0
  6  2  1  0
  9  6  1  0
 10  9  1  0
 10 11  1  6
 11 12  1  0
 12 13  1  0
 13 14  1  0
 14 15  1  0
 16 17  2  0
 16 10  1  0
 18 16  1  0
 19 18  1  0
 19 20  1  6
 20 21  1  0
 21 25  1  0
 21 22  2  0
 22 23  1  0
 24 23  1  0
 25 24  2  0
 26 28  1  0
 26 19  1  0
 27 26  2  0
M  END
$$$$
