DKH.pdb
     RDKit          3D

 28 28  0  0  1  0  0  0  0  0999 V2000
   24.8657  -18.8097  -19.3912 N   0  0  0  0  0  0  0  0  0  0  0  0
   24.5257  -18.6368  -18.0151 C   0  0  1  0  0  0  0  0  0  0  0  0
   25.0489  -17.3566  -17.4444 C   0  0  0  0  0  0  0  0  0  0  0  0
   26.5248  -17.2983  -17.5493 C   0  0  0  0  0  0  0  0  0  0  0  0
   27.1252  -18.2679  -18.0702 O   0  0  0  0  0  0  0  0  0  0  0  0
   23.0444  -18.6562  -17.7907 C   0  0  0  0  0  0  0  0  0  0  0  0
   22.3619  -17.7427  -18.2963 O   0  0  0  0  0  0  0  0  0  0  0  0
   27.2337  -16.2014  -17.0853 O   0  0  0  0  0  0  0  0  0  0  0  0
   22.3962  -19.6560  -17.0383 N   0  0  0  0  0  0  0  0  0  0  0  0
   20.9554  -19.7025  -16.9189 C   0  0  1  0  0  0  0  0  0  0  0  0
   20.4824  -21.1214  -16.5955 C   0  0  0  0  0  0  0  0  0  0  0  0
   20.5100  -21.8946  -17.8889 C   0  0  0  0  0  0  0  0  0  0  0  0
   21.2031  -23.2223  -17.7511 C   0  0  0  0  0  0  0  0  0  0  0  0
   21.1385  -23.9091  -19.1055 C   0  0  0  0  0  0  0  0  0  0  0  0
   21.7700  -25.2143  -18.9434 N   0  0  0  0  0  0  0  0  0  0  0  0
   20.5328  -18.7815  -15.8543 C   0  0  0  0  0  0  0  0  0  0  0  0
   21.3982  -18.0452  -15.3009 O   0  0  0  0  0  0  0  0  0  0  0  0
   19.1642  -18.6903  -15.4206 N   0  0  0  0  0  0  0  0  0  0  0  0
   18.6504  -17.4152  -15.0496 C   0  0  1  0  0  0  0  0  0  0  0  0
   18.7601  -16.3871  -16.1558 C   0  0  0  0  0  0  0  0  0  0  0  0
   18.1425  -15.0928  -15.7720 C   0  0  0  0  0  0  0  0  0  0  0  0
   17.6101  -14.7559  -14.5331 C   0  0  0  0  0  0  0  0  0  0  0  0
   17.1572  -13.4927  -14.6176 N   0  0  0  0  0  0  0  0  0  0  0  0
   17.3804  -13.0192  -15.8536 C   0  0  0  0  0  0  0  0  0  0  0  0
   17.9802  -14.0102  -16.5363 N   0  0  0  0  0  0  0  0  0  0  0  0
   17.2075  -17.5261  -14.7212 C   0  0  0  0  0  0  0  0  0  0  0  0
   16.7415  -16.7714  -13.8348 O   0  0  0  0  0  0  0  0  0  0  0  0
   16.3918  -18.4251  -15.3611 O   0  0  0  0  0  0  0  0  0  0  0  0
  2  1  1  6
  2  3  1  0
  3  4  1  0
  4  5  2  0
  4  8  1  0
  6  7  2  0
  6  2  1  0
  9  6  1  0
 10  9  1  0
 10 11  1  1
 11 12  1  0
 12 13  1  0
 13 14  1  0
 14 15  1  0
 16 17  2  0
 16 10  1  0
 18 16  1  0
 19 18  1  0
 19 20  1  6
 20 21  1  0
 21 25  1  0
 21 22  2  0
 22 23  1  0
 24 23  1  0
 25 24  2  0
 26 28  1  0
 26 19  1  0
 27 26  2  0
M  END
$$$$
