HVY.pdb
     RDKit          3D

 30 31  0  0  1  0  0  0  0  0999 V2000
   10.2950  -18.3451   18.0053 N   0  0  0  0  0  0  0  0  0  0  0  0
    9.2612  -18.2591   18.9948 C   0  0  1  0  0  0  0  0  0  0  0  0
    9.1135  -19.6135   19.6684 C   0  0  0  0  0  0  0  0  0  0  0  0
    8.5428  -20.6149   18.7279 C   0  0  0  0  0  0  0  0  0  0  0  0
    7.2141  -20.9615   18.5878 C   0  0  0  0  0  0  0  0  0  0  0  0
    7.1261  -21.9043   17.6369 N   0  0  0  0  0  0  0  0  0  0  0  0
    8.3829  -22.1533   17.1783 C   0  0  0  0  0  0  0  0  0  0  0  0
    9.2258  -21.3653   17.8493 N   0  0  0  0  0  0  0  0  0  0  0  0
    9.6755  -17.2487   20.0484 C   0  0  0  0  0  0  0  0  0  0  0  0
   10.7809  -17.3477   20.6022 O   0  0  0  0  0  0  0  0  0  0  0  0
    8.5165  -12.6892   21.8017 C   0  0  0  0  0  0  0  0  0  0  0  0
    8.1384  -13.8921   20.9700 C   0  0  2  0  0  0  0  0  0  0  0  0
    6.6559  -14.0454   21.0284 C   0  0  0  0  0  0  0  0  0  0  0  0
    8.9100  -15.1322   21.2892 C   0  0  2  0  0  0  0  0  0  0  0  0
    8.7868  -16.2162   20.3713 N   0  0  0  0  0  0  0  0  0  0  0  0
    8.8966  -15.5229   22.7086 C   0  0  0  0  0  0  0  0  0  0  0  0
    8.1333  -16.4465   23.0840 O   0  0  0  0  0  0  0  0  0  0  0  0
    5.9074  -10.5495   26.9317 O   0  0  0  0  0  0  0  0  0  0  0  0
    6.4362  -11.7890   26.5786 C   0  0  0  0  0  0  0  0  0  0  0  0
    5.6707  -12.8274   26.1073 C   0  0  0  0  0  0  0  0  0  0  0  0
    6.2404  -14.0271   25.7733 C   0  0  0  0  0  0  0  0  0  0  0  0
    7.6150  -14.2579   25.8927 C   0  0  0  0  0  0  0  0  0  0  0  0
    8.2230  -15.5602   25.5482 C   0  0  0  0  0  0  0  0  0  0  0  0
    9.6428  -15.3386   25.1103 C   0  0  2  0  0  0  0  0  0  0  0  0
    9.6966  -14.9227   23.7015 N   0  0  0  0  0  0  0  0  0  0  0  0
   10.5103  -16.4884   25.3595 C   0  0  0  0  0  0  0  0  0  0  0  0
   11.3280  -16.9329   24.2945 O   0  0  0  0  0  0  0  0  0  0  0  0
    8.3628  -13.2063   26.3662 C   0  0  0  0  0  0  0  0  0  0  0  0
    7.7923  -11.9829   26.7081 C   0  0  0  0  0  0  0  0  0  0  0  0
   10.6170  -17.1376   26.4190 O   0  0  0  0  0  0  0  0  0  0  0  0
  2  1  1  6
  2  3  1  0
  4  3  1  0
  4  5  2  0
  6  5  1  0
  7  6  1  0
  8  7  2  0
  8  4  1  0
  9  2  1  0
 10  9  2  0
 12 11  1  1
 12 13  1  0
 12 14  1  0
 14 15  1  6
 15  9  1  0
 16 17  2  0
 16 14  1  0
 18 19  1  0
 19 29  2  0
 20 21  2  0
 20 19  1  0
 21 22  1  0
 22 23  1  0
 22 28  2  0
 24 23  1  6
 24 25  1  0
 25 16  1  0
 26 24  1  0
 27 26  1  0
 29 28  1  0
 30 26  2  0
M  END
$$$$
