HVY.pdb
     RDKit          3D

 30 31  0  0  1  0  0  0  0  0999 V2000
    9.5896  -18.7046   18.8263 N   0  0  0  0  0  0  0  0  0  0  0  0
    8.6991  -18.3041   19.8760 C   0  0  1  0  0  0  0  0  0  0  0  0
    8.6951  -19.3780   20.9517 C   0  0  0  0  0  0  0  0  0  0  0  0
    8.0842  -20.6358   20.4440 C   0  0  0  0  0  0  0  0  0  0  0  0
    6.7396  -20.9420   20.3834 C   0  0  0  0  0  0  0  0  0  0  0  0
    6.6144  -22.1743   19.8673 N   0  0  0  0  0  0  0  0  0  0  0  0
    7.8635  -22.6450   19.6028 C   0  0  0  0  0  0  0  0  0  0  0  0
    8.7388  -21.7021   19.9580 N   0  0  0  0  0  0  0  0  0  0  0  0
    9.2171  -17.0180   20.4927 C   0  0  0  0  0  0  0  0  0  0  0  0
   10.4293  -16.8818   20.7170 O   0  0  0  0  0  0  0  0  0  0  0  0
    7.3830  -13.5315   19.4615 C   0  0  0  0  0  0  0  0  0  0  0  0
    7.5617  -13.6361   20.9578 C   0  0  2  0  0  0  0  0  0  0  0  0
    7.9008  -12.2798   21.4775 C   0  0  0  0  0  0  0  0  0  0  0  0
    8.4879  -14.7249   21.3956 C   0  0  2  0  0  0  0  0  0  0  0  0
    8.2999  -16.0045   20.7953 N   0  0  0  0  0  0  0  0  0  0  0  0
    8.7671  -14.7580   22.8408 C   0  0  0  0  0  0  0  0  0  0  0  0
    8.4651  -13.7648   23.5473 O   0  0  0  0  0  0  0  0  0  0  0  0
    6.1589  -10.8362   26.8603 O   0  0  0  0  0  0  0  0  0  0  0  0
    6.6253  -12.1120   26.5515 C   0  0  0  0  0  0  0  0  0  0  0  0
    7.7819  -12.6375   27.0736 C   0  0  0  0  0  0  0  0  0  0  0  0
    8.1966  -13.8987   26.7379 C   0  0  0  0  0  0  0  0  0  0  0  0
    7.4748  -14.7102   25.8561 C   0  0  0  0  0  0  0  0  0  0  0  0
    7.9356  -16.0638   25.4826 C   0  0  0  0  0  0  0  0  0  0  0  0
    9.3453  -15.9785   24.9704 C   0  0  2  0  0  0  0  0  0  0  0  0
    9.3626  -15.8482   23.5064 N   0  0  0  0  0  0  0  0  0  0  0  0
   10.1899  -17.0849   25.4165 C   0  0  0  0  0  0  0  0  0  0  0  0
   10.3904  -17.2338   26.8086 O   0  0  0  0  0  0  0  0  0  0  0  0
    6.3209  -14.1656   25.3450 C   0  0  0  0  0  0  0  0  0  0  0  0
    5.8914  -12.8843   25.6808 C   0  0  0  0  0  0  0  0  0  0  0  0
   10.7670  -17.9292   24.7026 O   0  0  0  0  0  0  0  0  0  0  0  0
  2  1  1  6
  2  3  1  0
  4  3  1  0
  4  5  2  0
  6  5  1  0
  7  6  1  0
  8  7  2  0
  8  4  1  0
  9  2  1  0
 10  9  2  0
 12 11  1  6
 12 13  1  0
 12 14  1  0
 14 15  1  1
 15  9  1  0
 16 17  2  0
 16 14  1  0
 18 19  1  0
 19 29  2  0
 20 21  2  0
 20 19  1  0
 21 22  1  0
 22 23  1  0
 22 28  2  0
 24 23  1  6
 24 25  1  0
 25 16  1  0
 26 24  1  0
 27 26  1  0
 29 28  1  0
 30 26  2  0
M  END
$$$$
