HVY.pdb
     RDKit          3D

 30 31  0  0  1  0  0  0  0  0999 V2000
    9.7245  -15.0840   20.8844 N   0  0  0  0  0  0  0  0  0  0  0  0
    8.4422  -14.8191   21.4680 C   0  0  1  0  0  0  0  0  0  0  0  0
    7.3605  -15.2405   20.4868 C   0  0  0  0  0  0  0  0  0  0  0  0
    7.5822  -14.6195   19.1533 C   0  0  0  0  0  0  0  0  0  0  0  0
    8.6590  -13.8490   18.7632 C   0  0  0  0  0  0  0  0  0  0  0  0
    8.4693  -13.4815   17.4866 N   0  0  0  0  0  0  0  0  0  0  0  0
    7.2872  -14.0120   17.0706 C   0  0  0  0  0  0  0  0  0  0  0  0
    6.7652  -14.6960   18.0910 N   0  0  0  0  0  0  0  0  0  0  0  0
    8.2942  -15.6568   22.7246 C   0  0  0  0  0  0  0  0  0  0  0  0
    7.2103  -15.6855   23.3270 O   0  0  0  0  0  0  0  0  0  0  0  0
    9.5081  -19.3933   23.0150 C   0  0  0  0  0  0  0  0  0  0  0  0
   10.1866  -18.5647   24.0803 C   0  0  2  0  0  0  0  0  0  0  0  0
   10.3321  -19.4112   25.2997 C   0  0  0  0  0  0  0  0  0  0  0  0
    9.5607  -17.2277   24.3162 C   0  0  2  0  0  0  0  0  0  0  0  0
    9.4004  -16.3864   23.1763 N   0  0  0  0  0  0  0  0  0  0  0  0
   10.0164  -16.5355   25.5331 C   0  0  0  0  0  0  0  0  0  0  0  0
   11.1069  -15.9134   25.5135 O   0  0  0  0  0  0  0  0  0  0  0  0
    6.7512  -11.4127   24.6522 O   0  0  0  0  0  0  0  0  0  0  0  0
    7.2141  -12.3080   25.6138 C   0  0  0  0  0  0  0  0  0  0  0  0
    6.4258  -13.2809   26.1780 C   0  0  0  0  0  0  0  0  0  0  0  0
    6.9302  -14.1373   27.1201 C   0  0  0  0  0  0  0  0  0  0  0  0
    8.2584  -14.0688   27.5540 C   0  0  0  0  0  0  0  0  0  0  0  0
    8.7935  -14.9835   28.5842 C   0  0  0  0  0  0  0  0  0  0  0  0
    9.8291  -15.8745   27.9594 C   0  0  2  0  0  0  0  0  0  0  0  0
    9.3022  -16.5188   26.7478 N   0  0  0  0  0  0  0  0  0  0  0  0
   10.3810  -16.8586   28.8887 C   0  0  0  0  0  0  0  0  0  0  0  0
   11.1170  -16.3724   29.9942 O   0  0  0  0  0  0  0  0  0  0  0  0
    9.0300  -13.0884   26.9774 C   0  0  0  0  0  0  0  0  0  0  0  0
    8.5258  -12.2134   26.0186 C   0  0  0  0  0  0  0  0  0  0  0  0
   10.2794  -18.0999   28.8215 O   0  0  0  0  0  0  0  0  0  0  0  0
  2  1  1  6
  2  3  1  0
  4  3  1  0
  4  5  2  0
  6  5  1  0
  7  6  1  0
  8  7  2  0
  8  4  1  0
  9  2  1  0
 10  9  2  0
 12 11  1  6
 12 13  1  0
 12 14  1  0
 14 15  1  6
 15  9  1  0
 16 17  2  0
 16 14  1  0
 18 19  1  0
 19 29  2  0
 20 21  2  0
 20 19  1  0
 21 22  1  0
 22 23  1  0
 22 28  2  0
 24 23  1  1
 24 25  1  0
 25 16  1  0
 26 24  1  0
 27 26  1  0
 29 28  1  0
 30 26  2  0
M  END
$$$$
