HVY.pdb
     RDKit          3D

 30 31  0  0  1  0  0  0  0  0999 V2000
    7.9387  -18.8212   15.8833 N   0  0  0  0  0  0  0  0  0  0  0  0
    8.5791  -17.8048   16.6656 C   0  0  1  0  0  0  0  0  0  0  0  0
    7.9739  -16.4571   16.3084 C   0  0  0  0  0  0  0  0  0  0  0  0
    8.5494  -15.9361   15.0394 C   0  0  0  0  0  0  0  0  0  0  0  0
    9.5743  -16.4924   14.3009 C   0  0  0  0  0  0  0  0  0  0  0  0
    9.7918  -15.7102   13.2325 N   0  0  0  0  0  0  0  0  0  0  0  0
    8.9159  -14.6704   13.2910 C   0  0  0  0  0  0  0  0  0  0  0  0
    8.1736  -14.8234   14.3896 N   0  0  0  0  0  0  0  0  0  0  0  0
    8.3054  -18.0727   18.1339 C   0  0  0  0  0  0  0  0  0  0  0  0
    7.1761  -18.4333   18.4988 O   0  0  0  0  0  0  0  0  0  0  0  0
   11.4461  -19.7227   20.5810 C   0  0  0  0  0  0  0  0  0  0  0  0
    9.9615  -19.5562   20.8051 C   0  0  2  0  0  0  0  0  0  0  0  0
    9.2652  -20.7012   20.1504 C   0  0  0  0  0  0  0  0  0  0  0  0
    9.4285  -18.2075   20.4417 C   0  0  2  0  0  0  0  0  0  0  0  0
    9.3501  -17.9043   19.0507 N   0  0  0  0  0  0  0  0  0  0  0  0
    9.9098  -17.1020   21.2865 C   0  0  0  0  0  0  0  0  0  0  0  0
   11.0029  -16.5493   21.0103 O   0  0  0  0  0  0  0  0  0  0  0  0
    7.2868  -12.7887   17.9557 O   0  0  0  0  0  0  0  0  0  0  0  0
    7.5903  -13.2012   19.2512 C   0  0  0  0  0  0  0  0  0  0  0  0
    6.7612  -13.9995   20.0007 C   0  0  0  0  0  0  0  0  0  0  0  0
    7.1070  -14.3776   21.2706 C   0  0  0  0  0  0  0  0  0  0  0  0
    8.3075  -13.9766   21.8665 C   0  0  0  0  0  0  0  0  0  0  0  0
    8.6682  -14.3722   23.2441 C   0  0  0  0  0  0  0  0  0  0  0  0
    9.7050  -15.4578   23.1875 C   0  0  2  0  0  0  0  0  0  0  0  0
    9.2180  -16.6060   22.4096 N   0  0  0  0  0  0  0  0  0  0  0  0
   10.1809  -15.8714   24.5062 C   0  0  0  0  0  0  0  0  0  0  0  0
   10.9264  -14.9321   25.2560 O   0  0  0  0  0  0  0  0  0  0  0  0
    9.1224  -13.1782   21.0999 C   0  0  0  0  0  0  0  0  0  0  0  0
    8.7793  -12.7889   19.8077 C   0  0  0  0  0  0  0  0  0  0  0  0
   10.0057  -16.9752   25.0596 O   0  0  0  0  0  0  0  0  0  0  0  0
  2  1  1  6
  2  3  1  0
  4  3  1  0
  4  5  2  0
  6  5  1  0
  7  6  1  0
  8  7  2  0
  8  4  1  0
  9  2  1  0
 10  9  2  0
 12 11  1  6
 12 13  1  0
 12 14  1  0
 14 15  1  6
 15  9  1  0
 16 17  2  0
 16 14  1  0
 18 19  1  0
 19 29  2  0
 20 21  2  0
 20 19  1  0
 21 22  1  0
 22 23  1  0
 22 28  2  0
 24 23  1  1
 24 25  1  0
 25 16  1  0
 26 24  1  0
 27 26  1  0
 29 28  1  0
 30 26  2  0
M  END
$$$$
