HVY.pdb
     RDKit          3D

 30 31  0  0  1  0  0  0  0  0999 V2000
   10.3993  -17.7242   17.4640 N   0  0  0  0  0  0  0  0  0  0  0  0
    9.3961  -17.8901   18.4747 C   0  0  1  0  0  0  0  0  0  0  0  0
    9.5641  -19.2597   19.1119 C   0  0  0  0  0  0  0  0  0  0  0  0
    9.1259  -20.3353   18.1823 C   0  0  0  0  0  0  0  0  0  0  0  0
    7.8623  -20.8811   18.0785 C   0  0  0  0  0  0  0  0  0  0  0  0
    7.8918  -21.8247   17.1249 N   0  0  0  0  0  0  0  0  0  0  0  0
    9.1577  -21.8776   16.6287 C   0  0  0  0  0  0  0  0  0  0  0  0
    9.8895  -20.9709   17.2798 N   0  0  0  0  0  0  0  0  0  0  0  0
    9.6056  -16.8390   19.5489 C   0  0  0  0  0  0  0  0  0  0  0  0
   10.7205  -16.7036   20.0754 O   0  0  0  0  0  0  0  0  0  0  0  0
    7.4353  -13.2782   19.3006 C   0  0  0  0  0  0  0  0  0  0  0  0
    7.3583  -13.9622   20.6452 C   0  0  2  0  0  0  0  0  0  0  0  0
    7.2642  -12.9065   21.6947 C   0  0  0  0  0  0  0  0  0  0  0  0
    8.4215  -14.9867   20.8800 C   0  0  2  0  0  0  0  0  0  0  0  0
    8.5197  -16.0377   19.9216 N   0  0  0  0  0  0  0  0  0  0  0  0
    8.5720  -15.4147   22.2807 C   0  0  0  0  0  0  0  0  0  0  0  0
    7.9006  -16.3892   22.7003 O   0  0  0  0  0  0  0  0  0  0  0  0
   10.9838  -16.1550   30.7240 O   0  0  0  0  0  0  0  0  0  0  0  0
   10.8142  -15.7095   29.4151 C   0  0  0  0  0  0  0  0  0  0  0  0
   11.2203  -16.4275   28.3170 C   0  0  0  0  0  0  0  0  0  0  0  0
   11.0294  -15.9444   27.0499 C   0  0  0  0  0  0  0  0  0  0  0  0
   10.4187  -14.7093   26.8077 C   0  0  0  0  0  0  0  0  0  0  0  0
   10.2311  -14.1837   25.4392 C   0  0  0  0  0  0  0  0  0  0  0  0
    9.4883  -15.2007   24.6202 C   0  0  2  0  0  0  0  0  0  0  0  0
    9.4347  -14.7967   23.2080 N   0  0  0  0  0  0  0  0  0  0  0  0
    8.1549  -15.4985   25.1398 C   0  0  0  0  0  0  0  0  0  0  0  0
    7.1257  -14.5666   24.8706 O   0  0  0  0  0  0  0  0  0  0  0  0
   10.0201  -14.0068   27.9198 C   0  0  0  0  0  0  0  0  0  0  0  0
   10.2099  -14.4902   29.2118 C   0  0  0  0  0  0  0  0  0  0  0  0
    7.8098  -16.4948   25.8060 O   0  0  0  0  0  0  0  0  0  0  0  0
  2  1  1  6
  2  3  1  0
  4  3  1  0
  4  5  2  0
  6  5  1  0
  7  6  1  0
  8  7  2  0
  8  4  1  0
  9  2  1  0
 10  9  2  0
 12 11  1  6
 12 13  1  0
 12 14  1  0
 14 15  1  6
 15  9  1  0
 16 17  2  0
 16 14  1  0
 18 19  1  0
 19 29  2  0
 20 21  2  0
 20 19  1  0
 21 22  1  0
 22 23  1  0
 22 28  2  0
 24 23  1  1
 24 25  1  0
 25 16  1  0
 26 24  1  0
 27 26  1  0
 29 28  1  0
 30 26  2  0
M  END
$$$$
