HVY.pdb
     RDKit          3D

 30 31  0  0  1  0  0  0  0  0999 V2000
    8.5676  -16.8380   19.6732 N   0  0  0  0  0  0  0  0  0  0  0  0
    8.8559  -15.9051   20.7229 C   0  0  1  0  0  0  0  0  0  0  0  0
    7.8130  -14.7997   20.6963 C   0  0  0  0  0  0  0  0  0  0  0  0
    7.9018  -14.0161   19.4349 C   0  0  0  0  0  0  0  0  0  0  0  0
    8.6171  -12.8541   19.2264 C   0  0  0  0  0  0  0  0  0  0  0  0
    8.4257  -12.4679   17.9556 N   0  0  0  0  0  0  0  0  0  0  0  0
    7.5997  -13.3732   17.3640 C   0  0  0  0  0  0  0  0  0  0  0  0
    7.2932  -14.3012   18.2731 N   0  0  0  0  0  0  0  0  0  0  0  0
    8.7524  -16.6219   22.0563 C   0  0  0  0  0  0  0  0  0  0  0  0
    7.7516  -17.3069   22.3165 O   0  0  0  0  0  0  0  0  0  0  0  0
   10.6739  -19.3861   22.7989 C   0  0  0  0  0  0  0  0  0  0  0  0
   11.1192  -18.4046   23.8574 C   0  0  2  0  0  0  0  0  0  0  0  0
   11.4970  -19.1794   25.0747 C   0  0  0  0  0  0  0  0  0  0  0  0
   10.1633  -17.2813   24.1008 C   0  0  2  0  0  0  0  0  0  0  0  0
    9.8049  -16.4901   22.9702 N   0  0  0  0  0  0  0  0  0  0  0  0
   10.4062  -16.5165   25.3352 C   0  0  0  0  0  0  0  0  0  0  0  0
   11.3134  -15.6486   25.3512 O   0  0  0  0  0  0  0  0  0  0  0  0
    6.3543  -11.7851   24.5676 O   0  0  0  0  0  0  0  0  0  0  0  0
    6.9654  -12.6358   25.4859 C   0  0  0  0  0  0  0  0  0  0  0  0
    8.2961  -12.5555   25.8166 C   0  0  0  0  0  0  0  0  0  0  0  0
    8.8485  -13.4165   26.7270 C   0  0  0  0  0  0  0  0  0  0  0  0
    8.0980  -14.4122   27.3614 C   0  0  0  0  0  0  0  0  0  0  0  0
    8.7025  -15.3509   28.3297 C   0  0  0  0  0  0  0  0  0  0  0  0
    9.9659  -15.9143   27.7441 C   0  0  2  0  0  0  0  0  0  0  0  0
    9.6784  -16.6905   26.5294 N   0  0  0  0  0  0  0  0  0  0  0  0
   10.7488  -16.6938   28.7012 C   0  0  0  0  0  0  0  0  0  0  0  0
   11.2594  -16.0165   29.8330 O   0  0  0  0  0  0  0  0  0  0  0  0
    6.7690  -14.4757   27.0164 C   0  0  0  0  0  0  0  0  0  0  0  0
    6.1986  -13.6043   26.0920 C   0  0  0  0  0  0  0  0  0  0  0  0
   11.0267  -17.9080   28.6375 O   0  0  0  0  0  0  0  0  0  0  0  0
  2  1  1  6
  2  3  1  0
  4  3  1  0
  4  5  2  0
  6  5  1  0
  7  6  1  0
  8  7  2  0
  8  4  1  0
  9  2  1  0
 10  9  2  0
 12 11  1  6
 12 13  1  0
 12 14  1  0
 14 15  1  6
 15  9  1  0
 16 17  2  0
 16 14  1  0
 18 19  1  0
 19 29  2  0
 20 21  2  0
 20 19  1  0
 21 22  1  0
 22 23  1  0
 22 28  2  0
 24 23  1  1
 24 25  1  0
 25 16  1  0
 26 24  1  0
 27 26  1  0
 29 28  1  0
 30 26  2  0
M  END
$$$$
