HVY.pdb
     RDKit          3D

 30 31  0  0  1  0  0  0  0  0999 V2000
    7.6546  -14.1870   19.0342 N   0  0  0  0  0  0  0  0  0  0  0  0
    7.4171  -14.9646   20.2149 C   0  0  1  0  0  0  0  0  0  0  0  0
    7.8885  -16.3882   19.9673 C   0  0  0  0  0  0  0  0  0  0  0  0
    7.0252  -17.0665   18.9635 C   0  0  0  0  0  0  0  0  0  0  0  0
    5.8891  -17.8104   19.2107 C   0  0  0  0  0  0  0  0  0  0  0  0
    5.4134  -18.2500   18.0355 N   0  0  0  0  0  0  0  0  0  0  0  0
    6.2364  -17.7908   17.0539 C   0  0  0  0  0  0  0  0  0  0  0  0
    7.2047  -17.0781   17.6333 N   0  0  0  0  0  0  0  0  0  0  0  0
    8.2355  -14.3861   21.3543 C   0  0  0  0  0  0  0  0  0  0  0  0
    9.4371  -14.1285   21.1866 O   0  0  0  0  0  0  0  0  0  0  0  0
    7.9904  -12.8919   26.1510 C   0  0  0  0  0  0  0  0  0  0  0  0
    7.2632  -13.3663   24.9149 C   0  0  2  0  0  0  0  0  0  0  0  0
    6.0920  -14.1794   25.3527 C   0  0  0  0  0  0  0  0  0  0  0  0
    8.1381  -14.0246   23.8969 C   0  0  2  0  0  0  0  0  0  0  0  0
    7.6031  -14.1543   22.5817 N   0  0  0  0  0  0  0  0  0  0  0  0
    8.8740  -15.2043   24.3812 C   0  0  0  0  0  0  0  0  0  0  0  0
    8.4471  -16.3516   24.1016 O   0  0  0  0  0  0  0  0  0  0  0  0
   10.0749  -14.7894   31.6257 O   0  0  0  0  0  0  0  0  0  0  0  0
   10.5386  -15.0401   30.3362 C   0  0  0  0  0  0  0  0  0  0  0  0
   10.5947  -14.0794   29.3563 C   0  0  0  0  0  0  0  0  0  0  0  0
   11.0600  -14.3779   28.1034 C   0  0  0  0  0  0  0  0  0  0  0  0
   11.4974  -15.6608   27.7573 C   0  0  0  0  0  0  0  0  0  0  0  0
   11.9817  -15.9828   26.3986 C   0  0  0  0  0  0  0  0  0  0  0  0
   10.8086  -16.3414   25.5314 C   0  0  2  0  0  0  0  0  0  0  0  0
   10.0506  -15.1399   25.1541 N   0  0  0  0  0  0  0  0  0  0  0  0
    9.9390  -17.3546   26.1262 C   0  0  0  0  0  0  0  0  0  0  0  0
   10.4624  -18.6604   26.2729 O   0  0  0  0  0  0  0  0  0  0  0  0
   11.4328  -16.6073   28.7519 C   0  0  0  0  0  0  0  0  0  0  0  0
   10.9614  -16.3129   30.0287 C   0  0  0  0  0  0  0  0  0  0  0  0
    8.7677  -17.2028   26.5267 O   0  0  0  0  0  0  0  0  0  0  0  0
  2  1  1  6
  2  3  1  0
  4  3  1  0
  4  5  2  0
  6  5  1  0
  7  6  1  0
  8  7  2  0
  8  4  1  0
  9  2  1  0
 10  9  2  0
 12 11  1  1
 12 13  1  0
 12 14  1  0
 14 15  1  6
 15  9  1  0
 16 17  2  0
 16 14  1  0
 18 19  1  0
 19 29  2  0
 20 21  2  0
 20 19  1  0
 21 22  1  0
 22 23  1  0
 22 28  2  0
 24 23  1  1
 24 25  1  0
 25 16  1  0
 26 24  1  0
 27 26  1  0
 29 28  1  0
 30 26  2  0
M  END
$$$$
