HVY.pdb
     RDKit          3D

 30 31  0  0  1  0  0  0  0  0999 V2000
   10.5623  -17.6524   17.2988 N   0  0  0  0  0  0  0  0  0  0  0  0
    9.3845  -17.5939   18.1140 C   0  0  1  0  0  0  0  0  0  0  0  0
    9.0118  -19.0049   18.5387 C   0  0  0  0  0  0  0  0  0  0  0  0
    8.4301  -19.7658   17.4005 C   0  0  0  0  0  0  0  0  0  0  0  0
    7.2080  -20.4067   17.3665 C   0  0  0  0  0  0  0  0  0  0  0  0
    7.0679  -20.9758   16.1594 N   0  0  0  0  0  0  0  0  0  0  0  0
    8.1865  -20.6997   15.4353 C   0  0  0  0  0  0  0  0  0  0  0  0
    8.9985  -19.9681   16.2015 N   0  0  0  0  0  0  0  0  0  0  0  0
    9.6936  -16.7894   19.3630 C   0  0  0  0  0  0  0  0  0  0  0  0
   10.8149  -16.8650   19.8879 O   0  0  0  0  0  0  0  0  0  0  0  0
    7.9827  -13.0001   22.1995 C   0  0  0  0  0  0  0  0  0  0  0  0
    7.8958  -13.8746   20.9708 C   0  0  2  0  0  0  0  0  0  0  0  0
    6.4541  -14.0540   20.6337 C   0  0  0  0  0  0  0  0  0  0  0  0
    8.6820  -15.1432   21.0576 C   0  0  2  0  0  0  0  0  0  0  0  0
    8.6911  -15.9707   19.8966 N   0  0  0  0  0  0  0  0  0  0  0  0
    8.5478  -15.8702   22.3308 C   0  0  0  0  0  0  0  0  0  0  0  0
    7.4016  -16.0941   22.7920 O   0  0  0  0  0  0  0  0  0  0  0  0
   10.0337  -14.2394   30.5895 O   0  0  0  0  0  0  0  0  0  0  0  0
   10.0063  -14.3989   29.2059 C   0  0  0  0  0  0  0  0  0  0  0  0
   10.6466  -15.4240   28.5535 C   0  0  0  0  0  0  0  0  0  0  0  0
   10.5880  -15.5362   27.1899 C   0  0  0  0  0  0  0  0  0  0  0  0
    9.8824  -14.6248   26.3971 C   0  0  0  0  0  0  0  0  0  0  0  0
    9.8369  -14.7395   24.9243 C   0  0  0  0  0  0  0  0  0  0  0  0
    9.7052  -16.1880   24.5486 C   0  0  2  0  0  0  0  0  0  0  0  0
    9.6369  -16.3453   23.0887 N   0  0  0  0  0  0  0  0  0  0  0  0
    8.5857  -16.8566   25.2091 C   0  0  0  0  0  0  0  0  0  0  0  0
    8.8802  -17.9786   26.0183 O   0  0  0  0  0  0  0  0  0  0  0  0
    9.2492  -13.6067   27.0693 C   0  0  0  0  0  0  0  0  0  0  0  0
    9.3032  -13.4848   28.4554 C   0  0  0  0  0  0  0  0  0  0  0  0
    7.3785  -16.5508   25.1425 O   0  0  0  0  0  0  0  0  0  0  0  0
  2  1  1  6
  2  3  1  0
  4  3  1  0
  4  5  2  0
  6  5  1  0
  7  6  1  0
  8  7  2  0
  8  4  1  0
  9  2  1  0
 10  9  2  0
 12 11  1  1
 12 13  1  0
 12 14  1  0
 14 15  1  6
 15  9  1  0
 16 17  2  0
 16 14  1  0
 18 19  1  0
 19 29  2  0
 20 21  2  0
 20 19  1  0
 21 22  1  0
 22 23  1  0
 22 28  2  0
 24 23  1  6
 24 25  1  0
 25 16  1  0
 26 24  1  0
 27 26  1  0
 29 28  1  0
 30 26  2  0
M  END
$$$$
