HVY.pdb
     RDKit          3D

 30 31  0  0  1  0  0  0  0  0999 V2000
    6.2411  -19.2147   20.0595 N   0  0  0  0  0  0  0  0  0  0  0  0
    5.7783  -17.9819   20.6262 C   0  0  1  0  0  0  0  0  0  0  0  0
    4.8702  -18.2943   21.8043 C   0  0  0  0  0  0  0  0  0  0  0  0
    3.6217  -18.9633   21.3497 C   0  0  0  0  0  0  0  0  0  0  0  0
    3.2956  -19.3267   20.0586 C   0  0  0  0  0  0  0  0  0  0  0  0
    2.0809  -19.8967   20.0790 N   0  0  0  0  0  0  0  0  0  0  0  0
    1.6410  -19.8960   21.3667 C   0  0  0  0  0  0  0  0  0  0  0  0
    2.5848  -19.3278   22.1202 N   0  0  0  0  0  0  0  0  0  0  0  0
    6.9731  -17.2021   21.1429 C   0  0  0  0  0  0  0  0  0  0  0  0
    7.9671  -17.8047   21.5758 O   0  0  0  0  0  0  0  0  0  0  0  0
    6.8975  -12.4862   21.5018 C   0  0  0  0  0  0  0  0  0  0  0  0
    7.8349  -13.5020   20.8925 C   0  0  2  0  0  0  0  0  0  0  0  0
    7.5575  -13.5651   19.4284 C   0  0  0  0  0  0  0  0  0  0  0  0
    7.8475  -14.8263   21.5859 C   0  0  2  0  0  0  0  0  0  0  0  0
    6.9215  -15.8033   21.1159 N   0  0  0  0  0  0  0  0  0  0  0  0
    7.9802  -14.7584   23.0507 C   0  0  0  0  0  0  0  0  0  0  0  0
    7.1051  -14.1548   23.7189 O   0  0  0  0  0  0  0  0  0  0  0  0
    6.4358  -20.9155   25.3399 O   0  0  0  0  0  0  0  0  0  0  0  0
    6.7418  -19.5614   25.4548 C   0  0  0  0  0  0  0  0  0  0  0  0
    6.0237  -18.5716   24.8295 C   0  0  0  0  0  0  0  0  0  0  0  0
    6.3662  -17.2538   24.9756 C   0  0  0  0  0  0  0  0  0  0  0  0
    7.4521  -16.8487   25.7590 C   0  0  0  0  0  0  0  0  0  0  0  0
    7.8291  -15.4266   25.8992 C   0  0  0  0  0  0  0  0  0  0  0  0
    9.1581  -15.2032   25.2355 C   0  0  2  0  0  0  0  0  0  0  0  0
    9.0422  -15.3345   23.7761 N   0  0  0  0  0  0  0  0  0  0  0  0
   10.2189  -16.0585   25.7644 C   0  0  0  0  0  0  0  0  0  0  0  0
   10.9269  -16.8661   24.8442 O   0  0  0  0  0  0  0  0  0  0  0  0
    8.1574  -17.8544   26.3758 C   0  0  0  0  0  0  0  0  0  0  0  0
    7.8164  -19.1970   26.2331 C   0  0  0  0  0  0  0  0  0  0  0  0
   10.5808  -16.1642   26.9533 O   0  0  0  0  0  0  0  0  0  0  0  0
  2  1  1  1
  2  3  1  0
  4  3  1  0
  4  5  2  0
  6  5  1  0
  7  6  1  0
  8  7  2  0
  8  4  1  0
  9  2  1  0
 10  9  2  0
 12 11  1  1
 12 13  1  0
 12 14  1  0
 14 15  1  1
 15  9  1  0
 16 17  2  0
 16 14  1  0
 18 19  1  0
 19 29  2  0
 20 21  2  0
 20 19  1  0
 21 22  1  0
 22 23  1  0
 22 28  2  0
 24 23  1  1
 24 25  1  0
 25 16  1  0
 26 24  1  0
 27 26  1  0
 29 28  1  0
 30 26  2  0
M  END
$$$$
