HVY.pdb
     RDKit          3D

 30 31  0  0  1  0  0  0  0  0999 V2000
    8.8533  -15.5547   18.4518 N   0  0  0  0  0  0  0  0  0  0  0  0
    8.2055  -14.4985   19.1728 C   0  0  1  0  0  0  0  0  0  0  0  0
    7.0387  -13.9841   18.3457 C   0  0  0  0  0  0  0  0  0  0  0  0
    7.4089  -13.8869   16.9081 C   0  0  0  0  0  0  0  0  0  0  0  0
    8.0779  -12.8498   16.2898 C   0  0  0  0  0  0  0  0  0  0  0  0
    8.2065  -13.1522   14.9888 N   0  0  0  0  0  0  0  0  0  0  0  0
    7.6272  -14.3662   14.7830 C   0  0  0  0  0  0  0  0  0  0  0  0
    7.1504  -14.7946   15.9537 N   0  0  0  0  0  0  0  0  0  0  0  0
    7.6551  -15.0586   20.4712 C   0  0  0  0  0  0  0  0  0  0  0  0
    7.1259  -14.3012   21.2987 O   0  0  0  0  0  0  0  0  0  0  0  0
    7.7102  -19.6409   21.1483 C   0  0  0  0  0  0  0  0  0  0  0  0
    6.7143  -18.5539   21.4775 C   0  0  2  0  0  0  0  0  0  0  0  0
    5.6948  -18.5179   20.3894 C   0  0  0  0  0  0  0  0  0  0  0  0
    7.3284  -17.2309   21.8053 C   0  0  2  0  0  0  0  0  0  0  0  0
    7.7596  -16.4353   20.7035 N   0  0  0  0  0  0  0  0  0  0  0  0
    8.2490  -17.2420   22.9542 C   0  0  0  0  0  0  0  0  0  0  0  0
    9.4596  -16.9615   22.7736 O   0  0  0  0  0  0  0  0  0  0  0  0
    9.8116  -12.2128   29.5806 O   0  0  0  0  0  0  0  0  0  0  0  0
    9.2975  -12.9511   28.5171 C   0  0  0  0  0  0  0  0  0  0  0  0
    7.9547  -13.0409   28.2425 C   0  0  0  0  0  0  0  0  0  0  0  0
    7.5006  -13.7804   27.1832 C   0  0  0  0  0  0  0  0  0  0  0  0
    8.3678  -14.4760   26.3340 C   0  0  0  0  0  0  0  0  0  0  0  0
    7.8719  -15.2876   25.2028 C   0  0  0  0  0  0  0  0  0  0  0  0
    8.2578  -16.7228   25.4219 C   0  0  2  0  0  0  0  0  0  0  0  0
    7.8631  -17.5515   24.2738 N   0  0  0  0  0  0  0  0  0  0  0  0
    7.7476  -17.2731   26.6762 C   0  0  0  0  0  0  0  0  0  0  0  0
    8.6924  -17.6180   27.6706 O   0  0  0  0  0  0  0  0  0  0  0  0
    9.7069  -14.3733   26.6261 C   0  0  0  0  0  0  0  0  0  0  0  0
   10.1779  -13.6235   27.7009 C   0  0  0  0  0  0  0  0  0  0  0  0
    6.5558  -17.4800   26.9801 O   0  0  0  0  0  0  0  0  0  0  0  0
  2  1  1  6
  2  3  1  0
  4  3  1  0
  4  5  2  0
  6  5  1  0
  7  6  1  0
  8  7  2  0
  8  4  1  0
  9  2  1  0
 10  9  2  0
 12 11  1  6
 12 13  1  0
 12 14  1  0
 14 15  1  6
 15  9  1  0
 16 17  2  0
 16 14  1  0
 18 19  1  0
 19 29  2  0
 20 21  2  0
 20 19  1  0
 21 22  1  0
 22 23  1  0
 22 28  2  0
 24 23  1  6
 24 25  1  0
 25 16  1  0
 26 24  1  0
 27 26  1  0
 29 28  1  0
 30 26  2  0
M  END
$$$$
