NKY.pdb
     RDKit          3D

 30 30  0  0  1  0  0  0  0  0999 V2000
   31.8358  -22.9216  -19.6286 N   0  0  0  0  0  0  0  0  0  0  0  0
   30.4402  -22.7961  -19.4817 C   0  0  0  0  0  0  0  0  0  0  0  0
   29.7070  -23.7959  -19.7662 O   0  0  0  0  0  0  0  0  0  0  0  0
   29.8320  -21.5280  -19.0016 C   0  0  0  0  0  0  0  0  0  0  0  0
   28.5279  -21.3047  -19.7416 C   0  0  2  0  0  0  0  0  0  0  0  0
   28.7555  -20.7562  -21.0426 N   0  0  0  0  0  0  0  0  0  0  0  0
   27.5333  -20.5608  -18.9388 C   0  0  0  0  0  0  0  0  0  0  0  0
   27.8281  -19.3966  -18.5681 O   0  0  0  0  0  0  0  0  0  0  0  0
   26.2491  -21.1119  -18.5653 N   0  0  0  0  0  0  0  0  0  0  0  0
   25.2937  -20.3198  -17.8405 C   0  0  1  0  0  0  0  0  0  0  0  0
   23.9248  -20.3026  -18.4326 C   0  0  0  0  0  0  0  0  0  0  0  0
   23.7199  -19.4832  -19.6379 C   0  0  0  0  0  0  0  0  0  0  0  0
   22.5711  -18.5376  -19.5816 C   0  0  0  0  0  0  0  0  0  0  0  0
   22.5943  -17.7967  -20.9436 C   0  0  0  0  0  0  0  0  0  0  0  0
   21.5323  -16.7978  -20.8284 N   0  0  0  0  0  0  0  0  0  0  0  0
   25.1184  -20.9698  -16.4790 C   0  0  0  0  0  0  0  0  0  0  0  0
   24.8488  -22.1595  -16.4487 O   0  0  0  0  0  0  0  0  0  0  0  0
   24.2336  -21.4714   -7.6375 O   0  0  0  0  0  0  0  0  0  0  0  0
   24.5651  -21.0600   -8.9455 C   0  0  0  0  0  0  0  0  0  0  0  0
   25.8166  -21.2600   -9.4692 C   0  0  0  0  0  0  0  0  0  0  0  0
   26.1357  -20.8621  -10.7325 C   0  0  0  0  0  0  0  0  0  0  0  0
   25.2004  -20.2281  -11.5616 C   0  0  0  0  0  0  0  0  0  0  0  0
   25.5559  -19.7917  -12.9144 C   0  0  0  0  0  0  0  0  0  0  0  0
   25.0251  -20.7208  -13.9722 C   0  0  2  0  0  0  0  0  0  0  0  0
   25.2657  -20.2168  -15.3029 N   0  0  0  0  0  0  0  0  0  0  0  0
   23.5752  -20.9710  -13.8301 C   0  0  0  0  0  0  0  0  0  0  0  0
   22.6683  -20.1092  -14.4423 O   0  0  0  0  0  0  0  0  0  0  0  0
   23.9394  -20.0285  -11.0310 C   0  0  0  0  0  0  0  0  0  0  0  0
   23.6202  -20.4358   -9.7433 C   0  0  0  0  0  0  0  0  0  0  0  0
   23.0749  -21.9218  -13.1864 O   0  0  0  0  0  0  0  0  0  0  0  0
  2  1  1  0
  2  3  2  0
  4  5  1  0
  4  2  1  0
  5  7  1  0
  5  6  1  6
  7  8  2  0
  9 10  1  0
  9  7  1  0
 11 12  1  0
 10 11  1  6
 12 13  1  0
 13 14  1  0
 14 15  1  0
 16 17  2  0
 16 10  1  0
 18 19  1  0
 19 20  2  0
 19 29  1  0
 20 21  1  0
 21 22  2  0
 22 23  1  0
 24 23  1  1
 24 26  1  0
 24 25  1  0
 25 16  1  0
 26 27  1  0
 28 22  1  0
 29 28  2  0
 30 26  2  0
M  END
$$$$
