NKY.pdb
     RDKit          3D

 30 30  0  0  1  0  0  0  0  0999 V2000
   26.6100  -22.8260  -15.6022 N   0  0  0  0  0  0  0  0  0  0  0  0
   27.8996  -23.1207  -16.0871 C   0  0  0  0  0  0  0  0  0  0  0  0
   28.8646  -22.3658  -15.7447 O   0  0  0  0  0  0  0  0  0  0  0  0
   28.1350  -24.2885  -16.9756 C   0  0  0  0  0  0  0  0  0  0  0  0
   29.3195  -23.9852  -17.8718 C   0  0  2  0  0  0  0  0  0  0  0  0
   29.0122  -22.9472  -18.8063 N   0  0  0  0  0  0  0  0  0  0  0  0
   29.8984  -25.1991  -18.4872 C   0  0  0  0  0  0  0  0  0  0  0  0
   29.1160  -25.9990  -19.0597 O   0  0  0  0  0  0  0  0  0  0  0  0
   31.3126  -25.5015  -18.4570 N   0  0  0  0  0  0  0  0  0  0  0  0
   31.8127  -26.7270  -19.0170 C   0  0  1  0  0  0  0  0  0  0  0  0
   33.2993  -26.8053  -19.1113 C   0  0  0  0  0  0  0  0  0  0  0  0
   33.8801  -28.0656  -19.6016 C   0  0  0  0  0  0  0  0  0  0  0  0
   35.3679  -28.1227  -19.6145 C   0  0  0  0  0  0  0  0  0  0  0  0
   35.7110  -29.5076  -20.2218 C   0  0  0  0  0  0  0  0  0  0  0  0
   37.1635  -29.6110  -20.0853 N   0  0  0  0  0  0  0  0  0  0  0  0
   31.4261  -27.8431  -18.0620 C   0  0  0  0  0  0  0  0  0  0  0  0
   31.7707  -27.7370  -16.8963 O   0  0  0  0  0  0  0  0  0  0  0  0
   27.0271  -34.5573  -14.4522 O   0  0  0  0  0  0  0  0  0  0  0  0
   27.4657  -33.4462  -15.2025 C   0  0  0  0  0  0  0  0  0  0  0  0
   27.8870  -32.2892  -14.5989 C   0  0  0  0  0  0  0  0  0  0  0  0
   28.3103  -31.2166  -15.3245 C   0  0  0  0  0  0  0  0  0  0  0  0
   28.3372  -31.2416  -16.7255 C   0  0  0  0  0  0  0  0  0  0  0  0
   28.7816  -30.0787  -17.4984 C   0  0  0  0  0  0  0  0  0  0  0  0
   30.2745  -30.0534  -17.6845 C   0  0  2  0  0  0  0  0  0  0  0  0
   30.6957  -28.9526  -18.5173 N   0  0  0  0  0  0  0  0  0  0  0  0
   30.7922  -31.3041  -18.2786 C   0  0  0  0  0  0  0  0  0  0  0  0
   31.0079  -31.3714  -19.6530 O   0  0  0  0  0  0  0  0  0  0  0  0
   27.9126  -32.4096  -17.3310 C   0  0  0  0  0  0  0  0  0  0  0  0
   27.4822  -33.4989  -16.5867 C   0  0  0  0  0  0  0  0  0  0  0  0
   31.0629  -32.3423  -17.6325 O   0  0  0  0  0  0  0  0  0  0  0  0
  2  1  1  0
  2  3  2  0
  4  5  1  0
  4  2  1  0
  5  7  1  0
  5  6  1  6
  7  8  2  0
  9 10  1  0
  9  7  1  0
 11 12  1  0
 10 11  1  1
 12 13  1  0
 13 14  1  0
 14 15  1  0
 16 17  2  0
 16 10  1  0
 18 19  1  0
 19 20  2  0
 19 29  1  0
 20 21  1  0
 21 22  2  0
 22 23  1  0
 24 23  1  6
 24 26  1  0
 24 25  1  0
 25 16  1  0
 26 27  1  0
 28 22  1  0
 29 28  2  0
 30 26  2  0
M  END
$$$$
