NKY.pdb
     RDKit          3D

 30 30  0  0  1  0  0  0  0  0999 V2000
   25.4974  -13.2902  -16.0231 N   0  0  0  0  0  0  0  0  0  0  0  0
   26.0746  -12.0666  -15.6297 C   0  0  0  0  0  0  0  0  0  0  0  0
   27.2356  -12.0818  -15.1100 O   0  0  0  0  0  0  0  0  0  0  0  0
   25.3503  -10.7827  -15.8186 C   0  0  0  0  0  0  0  0  0  0  0  0
   23.9980  -11.0753  -16.4382 C   0  0  2  0  0  0  0  0  0  0  0  0
   24.1356  -11.6272  -17.7503 N   0  0  0  0  0  0  0  0  0  0  0  0
   23.0714   -9.9251  -16.3615 C   0  0  0  0  0  0  0  0  0  0  0  0
   23.3205   -8.9202  -17.0740 O   0  0  0  0  0  0  0  0  0  0  0  0
   21.9032   -9.9083  -15.5086 N   0  0  0  0  0  0  0  0  0  0  0  0
   20.9656   -8.8208  -15.5703 C   0  0  1  0  0  0  0  0  0  0  0  0
   19.5764   -9.1748  -15.1583 C   0  0  0  0  0  0  0  0  0  0  0  0
   18.8690  -10.1837  -15.9630 C   0  0  0  0  0  0  0  0  0  0  0  0
   17.4495  -10.4250  -15.5839 C   0  0  0  0  0  0  0  0  0  0  0  0
   16.9305  -11.4634  -16.6119 C   0  0  0  0  0  0  0  0  0  0  0  0
   15.5212  -11.6416  -16.2638 N   0  0  0  0  0  0  0  0  0  0  0  0
   21.4182   -7.7850  -14.5558 C   0  0  0  0  0  0  0  0  0  0  0  0
   21.7191   -8.1772  -13.4403 O   0  0  0  0  0  0  0  0  0  0  0  0
   24.3315   -3.5795  -19.8225 O   0  0  0  0  0  0  0  0  0  0  0  0
   24.1310   -3.9749  -18.4833 C   0  0  0  0  0  0  0  0  0  0  0  0
   23.8187   -3.0686  -17.5027 C   0  0  0  0  0  0  0  0  0  0  0  0
   23.6254   -3.4516  -16.2095 C   0  0  0  0  0  0  0  0  0  0  0  0
   23.7356   -4.7921  -15.8158 C   0  0  0  0  0  0  0  0  0  0  0  0
   23.5390   -5.1935  -14.4204 C   0  0  0  0  0  0  0  0  0  0  0  0
   22.0869   -5.4006  -14.0849 C   0  0  2  0  0  0  0  0  0  0  0  0
   21.4852   -6.4260  -14.9029 N   0  0  0  0  0  0  0  0  0  0  0  0
   21.2893   -4.1651  -14.2353 C   0  0  0  0  0  0  0  0  0  0  0  0
   20.2615   -4.1236  -15.1742 O   0  0  0  0  0  0  0  0  0  0  0  0
   24.0499   -5.7034  -16.8068 C   0  0  0  0  0  0  0  0  0  0  0  0
   24.2460   -5.3074  -18.1224 C   0  0  0  0  0  0  0  0  0  0  0  0
   21.4629   -3.1183  -13.5699 O   0  0  0  0  0  0  0  0  0  0  0  0
  2  1  1  0
  2  3  2  0
  4  5  1  0
  4  2  1  0
  5  7  1  0
  5  6  1  6
  7  8  2  0
  9 10  1  0
  9  7  1  0
 11 12  1  0
 10 11  1  1
 12 13  1  0
 13 14  1  0
 14 15  1  0
 16 17  2  0
 16 10  1  0
 18 19  1  0
 19 20  2  0
 19 29  1  0
 20 21  1  0
 21 22  2  0
 22 23  1  0
 24 23  1  6
 24 26  1  0
 24 25  1  0
 25 16  1  0
 26 27  1  0
 28 22  1  0
 29 28  2  0
 30 26  2  0
M  END
$$$$
