NKY.pdb
     RDKit          3D

 30 30  0  0  1  0  0  0  0  0999 V2000
   21.7242  -12.6250  -20.0457 N   0  0  0  0  0  0  0  0  0  0  0  0
   22.0549  -13.4838  -18.9788 C   0  0  0  0  0  0  0  0  0  0  0  0
   22.9019  -13.0847  -18.1178 O   0  0  0  0  0  0  0  0  0  0  0  0
   21.4288  -14.8258  -18.8541 C   0  0  0  0  0  0  0  0  0  0  0  0
   22.4200  -15.7642  -18.1946 C   0  0  2  0  0  0  0  0  0  0  0  0
   23.6168  -15.8840  -18.9683 N   0  0  0  0  0  0  0  0  0  0  0  0
   21.8165  -17.0592  -17.8124 C   0  0  0  0  0  0  0  0  0  0  0  0
   20.6469  -17.0505  -17.3523 O   0  0  0  0  0  0  0  0  0  0  0  0
   22.5093  -18.3222  -17.9438 N   0  0  0  0  0  0  0  0  0  0  0  0
   21.8779  -19.5501  -17.5450 C   0  0  1  0  0  0  0  0  0  0  0  0
   21.9794  -20.6533  -18.5438 C   0  0  0  0  0  0  0  0  0  0  0  0
   21.0634  -20.6094  -19.6949 C   0  0  0  0  0  0  0  0  0  0  0  0
   21.1244  -21.7846  -20.6070 C   0  0  0  0  0  0  0  0  0  0  0  0
   20.0926  -21.4799  -21.7237 C   0  0  0  0  0  0  0  0  0  0  0  0
   20.1389  -22.6584  -22.5885 N   0  0  0  0  0  0  0  0  0  0  0  0
   22.6275  -20.0608  -16.3267 C   0  0  0  0  0  0  0  0  0  0  0  0
   23.8093  -20.3335  -16.4610 O   0  0  0  0  0  0  0  0  0  0  0  0
   25.8480  -21.5436   -8.4304 O   0  0  0  0  0  0  0  0  0  0  0  0
   25.2563  -21.0705   -9.6203 C   0  0  0  0  0  0  0  0  0  0  0  0
   24.0249  -20.4671   -9.6232 C   0  0  0  0  0  0  0  0  0  0  0  0
   23.4543  -20.0106  -10.7731 C   0  0  0  0  0  0  0  0  0  0  0  0
   24.0976  -20.1343  -12.0121 C   0  0  0  0  0  0  0  0  0  0  0  0
   23.4708  -19.6523  -13.2458 C   0  0  0  0  0  0  0  0  0  0  0  0
   22.5964  -20.6953  -13.8873 C   0  0  2  0  0  0  0  0  0  0  0  0
   21.9720  -20.2080  -15.0936 N   0  0  0  0  0  0  0  0  0  0  0  0
   21.5326  -21.1775  -12.9812 C   0  0  0  0  0  0  0  0  0  0  0  0
   21.7779  -22.2759  -12.1606 O   0  0  0  0  0  0  0  0  0  0  0  0
   25.3391  -20.7425  -12.0058 C   0  0  0  0  0  0  0  0  0  0  0  0
   25.9152  -21.2058  -10.8314 C   0  0  0  0  0  0  0  0  0  0  0  0
   20.3929  -20.6675  -12.8836 O   0  0  0  0  0  0  0  0  0  0  0  0
  2  1  1  0
  2  3  2  0
  4  5  1  0
  4  2  1  0
  5  7  1  0
  5  6  1  6
  7  8  2  0
  9 10  1  0
  9  7  1  0
 11 12  1  0
 10 11  1  6
 12 13  1  0
 13 14  1  0
 14 15  1  0
 16 17  2  0
 16 10  1  0
 18 19  1  0
 19 20  2  0
 19 29  1  0
 20 21  1  0
 21 22  2  0
 22 23  1  0
 24 23  1  1
 24 26  1  0
 24 25  1  0
 25 16  1  0
 26 27  1  0
 28 22  1  0
 29 28  2  0
 30 26  2  0
M  END
$$$$
