NKY.pdb
     RDKit          3D

 30 30  0  0  1  0  0  0  0  0999 V2000
   19.0319  -14.8986  -18.0165 N   0  0  0  0  0  0  0  0  0  0  0  0
   18.4430  -14.1044  -19.0203 C   0  0  0  0  0  0  0  0  0  0  0  0
   17.7317  -14.6750  -19.9073 O   0  0  0  0  0  0  0  0  0  0  0  0
   18.6409  -12.6317  -19.0458 C   0  0  0  0  0  0  0  0  0  0  0  0
   19.5162  -12.2395  -17.8718 C   0  0  2  0  0  0  0  0  0  0  0  0
   19.4485  -13.2116  -16.8251 N   0  0  0  0  0  0  0  0  0  0  0  0
   19.2822  -10.8504  -17.4212 C   0  0  0  0  0  0  0  0  0  0  0  0
   19.2427   -9.9473  -18.2944 O   0  0  0  0  0  0  0  0  0  0  0  0
   19.1000  -10.4915  -16.0319 N   0  0  0  0  0  0  0  0  0  0  0  0
   18.7609   -9.1452  -15.6605 C   0  0  1  0  0  0  0  0  0  0  0  0
   17.9412   -9.0312  -14.4196 C   0  0  0  0  0  0  0  0  0  0  0  0
   16.5567   -9.5271  -14.4761 C   0  0  0  0  0  0  0  0  0  0  0  0
   15.7981   -9.4555  -13.1969 C   0  0  0  0  0  0  0  0  0  0  0  0
   14.4065  -10.0578  -13.5213 C   0  0  0  0  0  0  0  0  0  0  0  0
   13.6865  -10.0069  -12.2494 N   0  0  0  0  0  0  0  0  0  0  0  0
   20.0618   -8.4332  -15.3319 C   0  0  0  0  0  0  0  0  0  0  0  0
   20.8508   -9.0040  -14.5968 O   0  0  0  0  0  0  0  0  0  0  0  0
   26.6630   -2.5568  -16.1509 O   0  0  0  0  0  0  0  0  0  0  0  0
   25.5420   -3.3908  -16.3451 C   0  0  0  0  0  0  0  0  0  0  0  0
   25.6639   -4.7537  -16.4348 C   0  0  0  0  0  0  0  0  0  0  0  0
   24.5805   -5.5583  -16.6225 C   0  0  0  0  0  0  0  0  0  0  0  0
   23.2858   -5.0334  -16.7332 C   0  0  0  0  0  0  0  0  0  0  0  0
   22.1277   -5.9051  -16.9482 C   0  0  0  0  0  0  0  0  0  0  0  0
   21.5655   -6.4364  -15.6576 C   0  0  2  0  0  0  0  0  0  0  0  0
   20.3355   -7.1627  -15.8635 N   0  0  0  0  0  0  0  0  0  0  0  0
   21.3087   -5.3676  -14.6694 C   0  0  0  0  0  0  0  0  0  0  0  0
   22.3098   -5.0134  -13.7681 O   0  0  0  0  0  0  0  0  0  0  0  0
   23.1662   -3.6592  -16.6418 C   0  0  0  0  0  0  0  0  0  0  0  0
   24.2733   -2.8446  -16.4507 C   0  0  0  0  0  0  0  0  0  0  0  0
   20.2344   -4.7317  -14.5688 O   0  0  0  0  0  0  0  0  0  0  0  0
  2  1  1  0
  2  3  2  0
  4  5  1  0
  4  2  1  0
  5  7  1  0
  5  6  1  1
  7  8  2  0
  9 10  1  0
  9  7  1  0
 11 12  1  0
 10 11  1  1
 12 13  1  0
 13 14  1  0
 14 15  1  0
 16 17  2  0
 16 10  1  0
 18 19  1  0
 19 20  2  0
 19 29  1  0
 20 21  1  0
 21 22  2  0
 22 23  1  0
 24 23  1  6
 24 26  1  0
 24 25  1  0
 25 16  1  0
 26 27  1  0
 28 22  1  0
 29 28  2  0
 30 26  2  0
M  END
$$$$
