NKY.pdb
     RDKit          3D

 30 30  0  0  1  0  0  0  0  0999 V2000
   26.4408  -16.5664  -19.6853 N   0  0  0  0  0  0  0  0  0  0  0  0
   25.2959  -17.3023  -20.0494 C   0  0  0  0  0  0  0  0  0  0  0  0
   24.4815  -16.7875  -20.8801 O   0  0  0  0  0  0  0  0  0  0  0  0
   25.0413  -18.6523  -19.4826 C   0  0  0  0  0  0  0  0  0  0  0  0
   26.2244  -19.0477  -18.6211 C   0  0  2  0  0  0  0  0  0  0  0  0
   27.2697  -19.6264  -19.4070 N   0  0  0  0  0  0  0  0  0  0  0  0
   25.8333  -19.8575  -17.4470 C   0  0  0  0  0  0  0  0  0  0  0  0
   25.1050  -20.8632  -17.6419 O   0  0  0  0  0  0  0  0  0  0  0  0
   26.2489  -19.5432  -16.0976 N   0  0  0  0  0  0  0  0  0  0  0  0
   25.8373  -20.3653  -14.9930 C   0  0  1  0  0  0  0  0  0  0  0  0
   26.5426  -20.0799  -13.7101 C   0  0  0  0  0  0  0  0  0  0  0  0
   26.0555  -20.7674  -12.5034 C   0  0  0  0  0  0  0  0  0  0  0  0
   26.6994  -20.3532  -11.2264 C   0  0  0  0  0  0  0  0  0  0  0  0
   25.9839  -21.1825  -10.1287 C   0  0  0  0  0  0  0  0  0  0  0  0
   26.5438  -20.6795   -8.8748 N   0  0  0  0  0  0  0  0  0  0  0  0
   24.3802  -20.0397  -14.7145 C   0  0  0  0  0  0  0  0  0  0  0  0
   24.0785  -18.8661  -14.5711 O   0  0  0  0  0  0  0  0  0  0  0  0
   15.7398  -21.3091  -13.1012 O   0  0  0  0  0  0  0  0  0  0  0  0
   17.0920  -21.4927  -13.4585 C   0  0  0  0  0  0  0  0  0  0  0  0
   17.5621  -21.1539  -14.7014 C   0  0  0  0  0  0  0  0  0  0  0  0
   18.8682  -21.3319  -15.0455 C   0  0  0  0  0  0  0  0  0  0  0  0
   19.7984  -21.8701  -14.1460 C   0  0  0  0  0  0  0  0  0  0  0  0
   21.1986  -22.0702  -14.5288 C   0  0  0  0  0  0  0  0  0  0  0  0
   22.0523  -20.8705  -14.2191 C   0  0  2  0  0  0  0  0  0  0  0  0
   23.4225  -21.0632  -14.6290 N   0  0  0  0  0  0  0  0  0  0  0  0
   22.0462  -20.5272  -12.7813 C   0  0  0  0  0  0  0  0  0  0  0  0
   21.1987  -19.5224  -12.3208 O   0  0  0  0  0  0  0  0  0  0  0  0
   19.3216  -22.2100  -12.8936 C   0  0  0  0  0  0  0  0  0  0  0  0
   17.9900  -22.0267  -12.5488 C   0  0  0  0  0  0  0  0  0  0  0  0
   22.7597  -21.0795  -11.9127 O   0  0  0  0  0  0  0  0  0  0  0  0
  2  1  1  0
  2  3  2  0
  4  5  1  0
  4  2  1  0
  5  7  1  0
  5  6  1  6
  7  8  2  0
  9 10  1  0
  9  7  1  0
 11 12  1  0
 10 11  1  1
 12 13  1  0
 13 14  1  0
 14 15  1  0
 16 17  2  0
 16 10  1  0
 18 19  1  0
 19 20  2  0
 19 29  1  0
 20 21  1  0
 21 22  2  0
 22 23  1  0
 24 23  1  1
 24 26  1  0
 24 25  1  0
 25 16  1  0
 26 27  1  0
 28 22  1  0
 29 28  2  0
 30 26  2  0
M  END
$$$$
