NKY.pdb
     RDKit          3D

 30 30  0  0  1  0  0  0  0  0999 V2000
   17.8775  -19.9594  -11.8684 N   0  0  0  0  0  0  0  0  0  0  0  0
   19.2134  -19.5118  -11.8820 C   0  0  0  0  0  0  0  0  0  0  0  0
   19.4396  -18.2698  -11.7254 O   0  0  0  0  0  0  0  0  0  0  0  0
   20.3382  -20.4647  -12.0705 C   0  0  0  0  0  0  0  0  0  0  0  0
   20.2000  -21.1148  -13.4329 C   0  0  2  0  0  0  0  0  0  0  0  0
   19.5350  -22.3776  -13.3415 N   0  0  0  0  0  0  0  0  0  0  0  0
   21.4758  -21.1575  -14.1798 C   0  0  0  0  0  0  0  0  0  0  0  0
   22.1330  -22.2287  -14.1614 O   0  0  0  0  0  0  0  0  0  0  0  0
   21.9940  -20.0292  -14.9219 N   0  0  0  0  0  0  0  0  0  0  0  0
   23.1547  -20.1713  -15.7573 C   0  0  1  0  0  0  0  0  0  0  0  0
   23.1532  -19.3089  -16.9742 C   0  0  0  0  0  0  0  0  0  0  0  0
   24.2985  -19.4305  -17.8905 C   0  0  0  0  0  0  0  0  0  0  0  0
   24.2468  -18.5624  -19.0990 C   0  0  0  0  0  0  0  0  0  0  0  0
   25.5215  -18.9212  -19.9057 C   0  0  0  0  0  0  0  0  0  0  0  0
   25.4544  -18.0614  -21.0869 N   0  0  0  0  0  0  0  0  0  0  0  0
   24.3475  -19.6949  -14.9467 C   0  0  0  0  0  0  0  0  0  0  0  0
   24.2888  -18.5809  -14.4522 O   0  0  0  0  0  0  0  0  0  0  0  0
   23.6680  -20.8293   -8.4330 O   0  0  0  0  0  0  0  0  0  0  0  0
   24.4987  -20.9048   -9.5706 C   0  0  0  0  0  0  0  0  0  0  0  0
   24.0016  -21.2304  -10.8065 C   0  0  0  0  0  0  0  0  0  0  0  0
   24.8049  -21.3031  -11.9045 C   0  0  0  0  0  0  0  0  0  0  0  0
   26.1808  -21.0482  -11.8267 C   0  0  0  0  0  0  0  0  0  0  0  0
   27.0396  -21.1414  -13.0102 C   0  0  0  0  0  0  0  0  0  0  0  0
   26.6680  -20.1360  -14.0661 C   0  0  2  0  0  0  0  0  0  0  0  0
   25.4724  -20.5184  -14.7781 N   0  0  0  0  0  0  0  0  0  0  0  0
   27.7465  -19.9293  -15.0556 C   0  0  0  0  0  0  0  0  0  0  0  0
   28.8759  -19.1983  -14.6950 O   0  0  0  0  0  0  0  0  0  0  0  0
   26.6787  -20.7195  -10.5795 C   0  0  0  0  0  0  0  0  0  0  0  0
   25.8558  -20.6472   -9.4645 C   0  0  0  0  0  0  0  0  0  0  0  0
   27.7329  -20.3689  -16.2283 O   0  0  0  0  0  0  0  0  0  0  0  0
  2  1  1  0
  2  3  2  0
  4  5  1  0
  4  2  1  0
  5  7  1  0
  5  6  1  1
  7  8  2  0
  9 10  1  0
  9  7  1  0
 11 12  1  0
 10 11  1  6
 12 13  1  0
 13 14  1  0
 14 15  1  0
 16 17  2  0
 16 10  1  0
 18 19  1  0
 19 20  2  0
 19 29  1  0
 20 21  1  0
 21 22  2  0
 22 23  1  0
 24 23  1  1
 24 26  1  0
 24 25  1  0
 25 16  1  0
 26 27  1  0
 28 22  1  0
 29 28  2  0
 30 26  2  0
M  END
$$$$
