NKY.pdb
     RDKit          3D

 30 30  0  0  1  0  0  0  0  0999 V2000
   23.2322  -20.3651  -13.5128 N   0  0  0  0  0  0  0  0  0  0  0  0
   23.9713  -21.5113  -13.8664 C   0  0  0  0  0  0  0  0  0  0  0  0
   24.4147  -22.2587  -12.9375 O   0  0  0  0  0  0  0  0  0  0  0  0
   24.2273  -21.8477  -15.2911 C   0  0  0  0  0  0  0  0  0  0  0  0
   25.7171  -22.0545  -15.4806 C   0  0  2  0  0  0  0  0  0  0  0  0
   26.4584  -20.9021  -15.0710 N   0  0  0  0  0  0  0  0  0  0  0  0
   26.0605  -22.5432  -16.8336 C   0  0  0  0  0  0  0  0  0  0  0  0
   25.6501  -21.8813  -17.8202 O   0  0  0  0  0  0  0  0  0  0  0  0
   26.8399  -23.7392  -17.0665 N   0  0  0  0  0  0  0  0  0  0  0  0
   27.3274  -24.0526  -18.3816 C   0  0  1  0  0  0  0  0  0  0  0  0
   28.6528  -24.7363  -18.4058 C   0  0  0  0  0  0  0  0  0  0  0  0
   29.8529  -23.8843  -18.4186 C   0  0  0  0  0  0  0  0  0  0  0  0
   30.2152  -23.2688  -17.1121 C   0  0  0  0  0  0  0  0  0  0  0  0
   31.5450  -22.5169  -17.3779 C   0  0  0  0  0  0  0  0  0  0  0  0
   31.9510  -22.0265  -16.0612 N   0  0  0  0  0  0  0  0  0  0  0  0
   26.3623  -25.0576  -18.9862 C   0  0  0  0  0  0  0  0  0  0  0  0
   25.9249  -25.9332  -18.2576 O   0  0  0  0  0  0  0  0  0  0  0  0
   20.8140  -28.6710  -24.9103 O   0  0  0  0  0  0  0  0  0  0  0  0
   21.7653  -27.8473  -24.2730 C   0  0  0  0  0  0  0  0  0  0  0  0
   21.3909  -26.7858  -23.4897 C   0  0  0  0  0  0  0  0  0  0  0  0
   22.3106  -25.9907  -22.8746 C   0  0  0  0  0  0  0  0  0  0  0  0
   23.6868  -26.2178  -23.0110 C   0  0  0  0  0  0  0  0  0  0  0  0
   24.6693  -25.3498  -22.3565 C   0  0  0  0  0  0  0  0  0  0  0  0
   25.0463  -25.8453  -20.9867 C   0  0  2  0  0  0  0  0  0  0  0  0
   25.9929  -24.9701  -20.3382 N   0  0  0  0  0  0  0  0  0  0  0  0
   25.6228  -27.2061  -21.0158 C   0  0  0  0  0  0  0  0  0  0  0  0
   26.9708  -27.3722  -21.3243 O   0  0  0  0  0  0  0  0  0  0  0  0
   24.0610  -27.2890  -23.8007 C   0  0  0  0  0  0  0  0  0  0  0  0
   23.1197  -28.0953  -24.4250 C   0  0  0  0  0  0  0  0  0  0  0  0
   24.9839  -28.2570  -20.7791 O   0  0  0  0  0  0  0  0  0  0  0  0
  2  1  1  0
  2  3  2  0
  4  5  1  0
  4  2  1  0
  5  7  1  0
  5  6  1  6
  7  8  2  0
  9 10  1  0
  9  7  1  0
 11 12  1  0
 10 11  1  1
 12 13  1  0
 13 14  1  0
 14 15  1  0
 16 17  2  0
 16 10  1  0
 18 19  1  0
 19 20  2  0
 19 29  1  0
 20 21  1  0
 21 22  2  0
 22 23  1  0
 24 23  1  6
 24 26  1  0
 24 25  1  0
 25 16  1  0
 26 27  1  0
 28 22  1  0
 29 28  2  0
 30 26  2  0
M  END
$$$$
