NKY.pdb
     RDKit          3D

 30 30  0  0  1  0  0  0  0  0999 V2000
   17.4448  -11.1872  -13.2257 N   0  0  0  0  0  0  0  0  0  0  0  0
   17.9084  -10.5020  -14.3661 C   0  0  0  0  0  0  0  0  0  0  0  0
   18.7501  -11.0823  -15.1231 O   0  0  0  0  0  0  0  0  0  0  0  0
   17.4258   -9.1332  -14.6856 C   0  0  0  0  0  0  0  0  0  0  0  0
   16.3539   -8.7507  -13.6842 C   0  0  2  0  0  0  0  0  0  0  0  0
   15.0879   -9.3146  -14.0368 N   0  0  0  0  0  0  0  0  0  0  0  0
   16.3131   -7.2970  -13.4154 C   0  0  0  0  0  0  0  0  0  0  0  0
   15.8504   -6.5457  -14.3104 O   0  0  0  0  0  0  0  0  0  0  0  0
   16.7797   -6.7097  -12.1785 N   0  0  0  0  0  0  0  0  0  0  0  0
   16.7170   -5.2889  -11.9716 C   0  0  1  0  0  0  0  0  0  0  0  0
   16.2235   -4.8788  -10.6251 C   0  0  0  0  0  0  0  0  0  0  0  0
   14.7778   -4.9894  -10.3725 C   0  0  0  0  0  0  0  0  0  0  0  0
   14.3040   -4.3942   -9.0925 C   0  0  0  0  0  0  0  0  0  0  0  0
   12.7568   -4.4681   -9.1641 C   0  0  0  0  0  0  0  0  0  0  0  0
   12.3097   -3.8965   -7.8943 N   0  0  0  0  0  0  0  0  0  0  0  0
   18.1416   -4.7663  -12.0374 C   0  0  0  0  0  0  0  0  0  0  0  0
   18.9222   -5.1370  -11.1759 O   0  0  0  0  0  0  0  0  0  0  0  0
   20.9130   -9.6209  -14.5870 O   0  0  0  0  0  0  0  0  0  0  0  0
   20.7998   -8.2149  -14.5751 C   0  0  0  0  0  0  0  0  0  0  0  0
   19.8125   -7.5648  -15.2701 C   0  0  0  0  0  0  0  0  0  0  0  0
   19.7042   -6.2067  -15.2580 C   0  0  0  0  0  0  0  0  0  0  0  0
   20.5967   -5.4048  -14.5338 C   0  0  0  0  0  0  0  0  0  0  0  0
   20.4808   -3.9441  -14.5369 C   0  0  0  0  0  0  0  0  0  0  0  0
   19.8834   -3.4159  -13.2609 C   0  0  2  0  0  0  0  0  0  0  0  0
   18.5347   -3.8886  -13.0606 N   0  0  0  0  0  0  0  0  0  0  0  0
   19.8650   -1.9386  -13.2135 C   0  0  0  0  0  0  0  0  0  0  0  0
   21.0681   -1.2408  -13.1402 O   0  0  0  0  0  0  0  0  0  0  0  0
   21.5905   -6.0632  -13.8337 C   0  0  0  0  0  0  0  0  0  0  0  0
   21.6960   -7.4468  -13.8499 C   0  0  0  0  0  0  0  0  0  0  0  0
   18.8278   -1.2368  -13.2344 O   0  0  0  0  0  0  0  0  0  0  0  0
  2  1  1  0
  2  3  2  0
  4  5  1  0
  4  2  1  0
  5  7  1  0
  5  6  1  6
  7  8  2  0
  9 10  1  0
  9  7  1  0
 11 12  1  0
 10 11  1  1
 12 13  1  0
 13 14  1  0
 14 15  1  0
 16 17  2  0
 16 10  1  0
 18 19  1  0
 19 20  2  0
 19 29  1  0
 20 21  1  0
 21 22  2  0
 22 23  1  0
 24 23  1  6
 24 26  1  0
 24 25  1  0
 25 16  1  0
 26 27  1  0
 28 22  1  0
 29 28  2  0
 30 26  2  0
M  END
$$$$
