NKY.pdb
     RDKit          3D

 30 30  0  0  1  0  0  0  0  0999 V2000
   21.8459  -14.5600  -17.0534 N   0  0  0  0  0  0  0  0  0  0  0  0
   21.6899  -14.8831  -15.6909 C   0  0  0  0  0  0  0  0  0  0  0  0
   21.3656  -13.9578  -14.8805 O   0  0  0  0  0  0  0  0  0  0  0  0
   21.8943  -16.2727  -15.2055 C   0  0  0  0  0  0  0  0  0  0  0  0
   22.2825  -17.1456  -16.3825 C   0  0  2  0  0  0  0  0  0  0  0  0
   21.1414  -17.4914  -17.1723 N   0  0  0  0  0  0  0  0  0  0  0  0
   23.1162  -18.3018  -15.9884 C   0  0  0  0  0  0  0  0  0  0  0  0
   22.5309  -19.3619  -15.6515 O   0  0  0  0  0  0  0  0  0  0  0  0
   24.5621  -18.2637  -15.9736 N   0  0  0  0  0  0  0  0  0  0  0  0
   25.3235  -19.4360  -15.6398 C   0  0  1  0  0  0  0  0  0  0  0  0
   26.6585  -19.5180  -16.2999 C   0  0  0  0  0  0  0  0  0  0  0  0
   26.9527  -20.7295  -17.0821 C   0  0  0  0  0  0  0  0  0  0  0  0
   28.2672  -20.7368  -17.7814 C   0  0  0  0  0  0  0  0  0  0  0  0
   28.0612  -21.6556  -19.0133 C   0  0  0  0  0  0  0  0  0  0  0  0
   29.3437  -21.6103  -19.7150 N   0  0  0  0  0  0  0  0  0  0  0  0
   25.6302  -19.3594  -14.1542 C   0  0  0  0  0  0  0  0  0  0  0  0
   25.7773  -18.2528  -13.6617 O   0  0  0  0  0  0  0  0  0  0  0  0
   27.0158  -19.5459   -5.7194 O   0  0  0  0  0  0  0  0  0  0  0  0
   26.5724  -19.6101   -7.0569 C   0  0  0  0  0  0  0  0  0  0  0  0
   26.9983  -18.7122   -8.0019 C   0  0  0  0  0  0  0  0  0  0  0  0
   26.5692  -18.7749   -9.2935 C   0  0  0  0  0  0  0  0  0  0  0  0
   25.6706  -19.7612   -9.7221 C   0  0  0  0  0  0  0  0  0  0  0  0
   25.2041  -19.8135  -11.1102 C   0  0  0  0  0  0  0  0  0  0  0  0
   26.1527  -20.5660  -12.0035 C   0  0  2  0  0  0  0  0  0  0  0  0
   25.7366  -20.5293  -13.3849 N   0  0  0  0  0  0  0  0  0  0  0  0
   26.3023  -21.9817  -11.6055 C   0  0  0  0  0  0  0  0  0  0  0  0
   27.4453  -22.3828  -10.9182 O   0  0  0  0  0  0  0  0  0  0  0  0
   25.2436  -20.6653   -8.7674 C   0  0  0  0  0  0  0  0  0  0  0  0
   25.6839  -20.5963   -7.4531 C   0  0  0  0  0  0  0  0  0  0  0  0
   25.4631  -22.8814  -11.8401 O   0  0  0  0  0  0  0  0  0  0  0  0
  2  1  1  0
  2  3  2  0
  4  5  1  0
  4  2  1  0
  5  7  1  0
  5  6  1  1
  7  8  2  0
  9 10  1  0
  9  7  1  0
 11 12  1  0
 10 11  1  6
 12 13  1  0
 13 14  1  0
 14 15  1  0
 16 17  2  0
 16 10  1  0
 18 19  1  0
 19 20  2  0
 19 29  1  0
 20 21  1  0
 21 22  2  0
 22 23  1  0
 24 23  1  1
 24 26  1  0
 24 25  1  0
 25 16  1  0
 26 27  1  0
 28 22  1  0
 29 28  2  0
 30 26  2  0
M  END
$$$$
