ANE.pdb
     RDKit          3D

 23 22  0  0  1  0  0  0  0  0999 V2000
    6.6254  -18.6141   18.6623 C   0  0  0  0  0  0  0  0  0  0  0  0
    7.4069  -18.7655   19.9728 C   0  0  2  0  0  0  0  0  0  0  0  0
    6.4476  -18.7721   21.0508 N   0  0  0  0  0  0  0  0  0  0  0  0
    8.2826  -17.6034   20.0953 C   0  0  0  0  0  0  0  0  0  0  0  0
    9.4038  -17.6101   19.5125 O   0  0  0  0  0  0  0  0  0  0  0  0
    6.6507  -13.0573   19.2733 N   0  0  0  0  0  0  0  0  0  0  0  0
    7.9411  -13.5864   19.5503 C   0  0  0  0  0  0  0  0  0  0  0  0
    8.7546  -13.6749   18.6029 O   0  0  0  0  0  0  0  0  0  0  0  0
    8.2637  -14.0014   20.9156 C   0  0  0  0  0  0  0  0  0  0  0  0
    8.9543  -15.3504   20.9697 C   0  0  2  0  0  0  0  0  0  0  0  0
    7.9833  -16.4184   20.8364 N   0  0  0  0  0  0  0  0  0  0  0  0
    9.6813  -15.5189   22.2717 C   0  0  0  0  0  0  0  0  0  0  0  0
    9.0719  -15.4596   23.3702 O   0  0  0  0  0  0  0  0  0  0  0  0
   11.0675  -15.7499   22.3294 N   0  0  0  0  0  0  0  0  0  0  0  0
   11.7844  -16.1155   23.5721 C   0  0  1  0  0  0  0  0  0  0  0  0
   11.1542  -17.2961   24.1831 C   0  0  0  0  0  0  0  0  0  0  0  0
   11.8121  -17.8386   25.3899 C   0  0  0  0  0  0  0  0  0  0  0  0
   11.2051  -18.9713   26.0735 C   0  0  0  0  0  0  0  0  0  0  0  0
   10.5739  -18.8941   27.1677 O   0  0  0  0  0  0  0  0  0  0  0  0
   13.2016  -16.1478   23.2380 C   0  0  0  0  0  0  0  0  0  0  0  0
   14.1695  -16.0559   24.0322 O   0  0  0  0  0  0  0  0  0  0  0  0
   11.3206  -20.2325   25.4821 O   0  0  0  0  0  0  0  0  0  0  0  0
   13.6030  -16.2980   21.8805 O   0  0  0  0  0  0  0  0  0  0  0  0
  2  1  1  6
  2  3  1  0
  4 11  1  0
  4  2  1  0
  5  4  2  0
  7  6  1  0
  7  8  2  0
 10  9  1  1
  9  7  1  0
 10 12  1  0
 10 11  1  0
 12 14  1  0
 13 12  2  0
 14 15  1  0
 15 20  1  0
 15 16  1  6
 16 17  1  0
 18 17  1  0
 18 22  1  0
 19 18  2  0
 20 23  1  0
 21 20  2  0
M  END
$$$$
