ANE.pdb
     RDKit          3D

 23 22  0  0  1  0  0  0  0  0999 V2000
    9.6071  -19.0240   20.0952 C   0  0  0  0  0  0  0  0  0  0  0  0
    9.5449  -18.2241   18.7885 C   0  0  2  0  0  0  0  0  0  0  0  0
   10.8988  -18.0589   18.3170 N   0  0  0  0  0  0  0  0  0  0  0  0
    8.9664  -16.9206   19.1021 C   0  0  0  0  0  0  0  0  0  0  0  0
    7.7196  -16.8254   19.2850 O   0  0  0  0  0  0  0  0  0  0  0  0
    7.1434  -12.4366   18.9201 N   0  0  0  0  0  0  0  0  0  0  0  0
    7.2301  -13.8558   18.9114 C   0  0  0  0  0  0  0  0  0  0  0  0
    6.8621  -14.4596   17.8784 O   0  0  0  0  0  0  0  0  0  0  0  0
    7.7402  -14.5464   20.0959 C   0  0  0  0  0  0  0  0  0  0  0  0
    9.2535  -14.6423   20.1114 C   0  0  2  0  0  0  0  0  0  0  0  0
    9.6997  -15.7000   19.2262 N   0  0  0  0  0  0  0  0  0  0  0  0
    9.7495  -14.9320   21.4978 C   0  0  0  0  0  0  0  0  0  0  0  0
    9.3109  -14.2989   22.4919 O   0  0  0  0  0  0  0  0  0  0  0  0
   10.7206  -15.9169   21.7537 N   0  0  0  0  0  0  0  0  0  0  0  0
   11.2620  -16.2003   23.1023 C   0  0  1  0  0  0  0  0  0  0  0  0
   10.5076  -17.3008   23.7220 C   0  0  0  0  0  0  0  0  0  0  0  0
   10.7320  -18.6478   23.1572 C   0  0  0  0  0  0  0  0  0  0  0  0
   10.1439  -19.7986   23.8269 C   0  0  0  0  0  0  0  0  0  0  0  0
    9.4593  -19.7374   24.8896 O   0  0  0  0  0  0  0  0  0  0  0  0
   12.7064  -16.3120   22.9532 C   0  0  0  0  0  0  0  0  0  0  0  0
   13.3516  -16.4159   21.8814 O   0  0  0  0  0  0  0  0  0  0  0  0
   10.3425  -21.0601   23.2583 O   0  0  0  0  0  0  0  0  0  0  0  0
   13.5371  -16.3090   24.1092 O   0  0  0  0  0  0  0  0  0  0  0  0
  2  1  1  1
  2  3  1  0
  4 11  1  0
  4  2  1  0
  5  4  2  0
  7  6  1  0
  7  8  2  0
 10  9  1  1
  9  7  1  0
 10 12  1  0
 10 11  1  0
 12 14  1  0
 13 12  2  0
 14 15  1  0
 15 20  1  0
 15 16  1  6
 16 17  1  0
 18 17  1  0
 18 22  1  0
 19 18  2  0
 20 23  1  0
 21 20  2  0
M  END
$$$$
