ANE.pdb
     RDKit          3D

 23 22  0  0  1  0  0  0  0  0999 V2000
    8.6317  -12.2492   20.0459 C   0  0  0  0  0  0  0  0  0  0  0  0
    8.0605  -13.6023   19.6055 C   0  0  2  0  0  0  0  0  0  0  0  0
    6.7641  -13.3557   19.0215 N   0  0  0  0  0  0  0  0  0  0  0  0
    7.9167  -14.4256   20.8028 C   0  0  0  0  0  0  0  0  0  0  0  0
    6.9142  -14.2557   21.5532 O   0  0  0  0  0  0  0  0  0  0  0  0
    5.9970  -18.7096   22.9110 N   0  0  0  0  0  0  0  0  0  0  0  0
    7.3015  -18.2017   23.1602 C   0  0  0  0  0  0  0  0  0  0  0  0
    7.7593  -18.3049   24.3208 O   0  0  0  0  0  0  0  0  0  0  0  0
    8.0487  -17.5860   22.0635 C   0  0  0  0  0  0  0  0  0  0  0  0
    8.5940  -16.2173   22.4224 C   0  0  2  0  0  0  0  0  0  0  0  0
    8.8321  -15.4401   21.2222 N   0  0  0  0  0  0  0  0  0  0  0  0
    9.8840  -16.3451   23.1784 C   0  0  0  0  0  0  0  0  0  0  0  0
   10.9823  -16.4626   22.5771 O   0  0  0  0  0  0  0  0  0  0  0  0
    9.9304  -16.3396   24.5842 N   0  0  0  0  0  0  0  0  0  0  0  0
   11.1815  -16.4893   25.3616 C   0  0  1  0  0  0  0  0  0  0  0  0
   10.9749  -16.0101   26.7370 C   0  0  0  0  0  0  0  0  0  0  0  0
    9.8879  -15.0282   26.9319 C   0  0  0  0  0  0  0  0  0  0  0  0
    9.6685  -14.4754   28.2604 C   0  0  0  0  0  0  0  0  0  0  0  0
    9.3037  -15.1507   29.2668 O   0  0  0  0  0  0  0  0  0  0  0  0
   11.6486  -17.8501   25.1358 C   0  0  0  0  0  0  0  0  0  0  0  0
   10.9968  -18.8029   24.6425 O   0  0  0  0  0  0  0  0  0  0  0  0
    9.8785  -13.1056   28.4434 O   0  0  0  0  0  0  0  0  0  0  0  0
   12.9804  -18.2066   25.4903 O   0  0  0  0  0  0  0  0  0  0  0  0
  2  1  1  1
  2  3  1  0
  4 11  1  0
  4  2  1  0
  5  4  2  0
  7  6  1  0
  7  8  2  0
 10  9  1  6
  9  7  1  0
 10 12  1  0
 10 11  1  0
 12 14  1  0
 13 12  2  0
 14 15  1  0
 15 20  1  0
 15 16  1  1
 16 17  1  0
 18 17  1  0
 18 22  1  0
 19 18  2  0
 20 23  1  0
 21 20  2  0
M  END
$$$$
