ANE.pdb
     RDKit          3D

 23 22  0  0  1  0  0  0  0  0999 V2000
    8.3466  -14.6433   13.7685 C   0  0  0  0  0  0  0  0  0  0  0  0
    8.5072  -15.7408   14.8271 C   0  0  2  0  0  0  0  0  0  0  0  0
    7.2302  -16.3982   14.9666 N   0  0  0  0  0  0  0  0  0  0  0  0
    8.8682  -15.0871   16.0819 C   0  0  0  0  0  0  0  0  0  0  0  0
   10.0365  -14.6272   16.2256 O   0  0  0  0  0  0  0  0  0  0  0  0
    7.8817  -11.7037   20.5861 N   0  0  0  0  0  0  0  0  0  0  0  0
    7.6085  -13.0918   20.4433 C   0  0  0  0  0  0  0  0  0  0  0  0
    7.6841  -13.8125   21.4642 O   0  0  0  0  0  0  0  0  0  0  0  0
    7.2538  -13.6170   19.1248 C   0  0  0  0  0  0  0  0  0  0  0  0
    8.4398  -14.2182   18.3957 C   0  0  2  0  0  0  0  0  0  0  0  0
    7.9976  -14.9113   17.2018 N   0  0  0  0  0  0  0  0  0  0  0  0
    9.1636  -15.1919   19.2788 C   0  0  0  0  0  0  0  0  0  0  0  0
    8.7480  -16.3695   19.4275 O   0  0  0  0  0  0  0  0  0  0  0  0
   10.3324  -14.8409   19.9781 N   0  0  0  0  0  0  0  0  0  0  0  0
   11.1372  -15.8055   20.7617 C   0  0  1  0  0  0  0  0  0  0  0  0
   12.4947  -15.8939   20.2019 C   0  0  0  0  0  0  0  0  0  0  0  0
   13.4000  -14.7641   20.4984 C   0  0  0  0  0  0  0  0  0  0  0  0
   14.7284  -14.7519   19.9035 C   0  0  0  0  0  0  0  0  0  0  0  0
   15.6539  -13.9536   20.2319 O   0  0  0  0  0  0  0  0  0  0  0  0
   10.9578  -15.4517   22.1630 C   0  0  0  0  0  0  0  0  0  0  0  0
   10.3263  -14.4684   22.6214 O   0  0  0  0  0  0  0  0  0  0  0  0
   15.0074  -15.6877   18.9032 O   0  0  0  0  0  0  0  0  0  0  0  0
   11.5356  -16.2681   23.1761 O   0  0  0  0  0  0  0  0  0  0  0  0
  2  1  1  6
  2  3  1  0
  4 11  1  0
  4  2  1  0
  5  4  2  0
  7  6  1  0
  7  8  2  0
 10  9  1  1
  9  7  1  0
 10 12  1  0
 10 11  1  0
 12 14  1  0
 13 12  2  0
 14 15  1  0
 15 20  1  0
 15 16  1  6
 16 17  1  0
 18 17  1  0
 18 22  1  0
 19 18  2  0
 20 23  1  0
 21 20  2  0
M  END
$$$$
