HPA.pdb
     RDKit          3D

 23 24  0  0  1  0  0  0  0  0999 V2000
   23.2529  -21.8232  -13.7018 N   0  0  0  0  0  0  0  0  0  0  0  0
   23.9539  -20.7870  -13.0333 C   0  0  1  0  0  0  0  0  0  0  0  0
   22.9196  -19.7703  -12.5849 C   0  0  0  0  0  0  0  0  0  0  0  0
   22.1609  -19.2219  -13.7316 C   0  0  0  0  0  0  0  0  0  0  0  0
   22.6205  -18.4841  -14.8073 C   0  0  0  0  0  0  0  0  0  0  0  0
   21.6032  -18.1812  -15.6290 N   0  0  0  0  0  0  0  0  0  0  0  0
   20.4971  -18.7174  -15.0903 C   0  0  0  0  0  0  0  0  0  0  0  0
   20.8393  -19.3403  -13.9520 N   0  0  0  0  0  0  0  0  0  0  0  0
   24.7957  -21.1815  -11.8891 C   0  0  0  0  0  0  0  0  0  0  0  0
   24.2181  -22.0831  -11.1417 O   0  0  0  0  0  0  0  0  0  0  0  0
   26.0677  -20.7096  -11.5563 N   0  0  0  0  0  0  0  0  0  0  0  0
   26.8366  -19.6664  -12.1201 C   0  0  0  0  0  0  0  0  0  0  0  0
   28.1345  -20.4183  -12.4099 C   0  0  0  0  0  0  0  0  0  0  0  0
   28.2491  -21.2544  -11.1724 C   0  0  0  0  0  0  0  0  0  0  0  0
   26.8965  -21.2380  -10.4966 C   0  0  1  0  0  0  0  0  0  0  0  0
   26.8671  -20.3759   -9.2854 C   0  0  0  0  0  0  0  0  0  0  0  0
   26.7418  -19.1393   -9.4301 O   0  0  0  0  0  0  0  0  0  0  0  0
   26.9844  -20.9526   -5.5316 C   0  0  0  0  0  0  0  0  0  0  0  0
   27.0376  -20.0768   -6.7903 C   0  0  2  0  0  0  0  0  0  0  0  0
   26.9743  -20.8835   -7.9680 N   0  0  0  0  0  0  0  0  0  0  0  0
   28.3302  -19.3553   -6.7451 C   0  0  0  0  0  0  0  0  0  0  0  0
   28.5452  -18.2746   -5.9105 O   0  0  0  0  0  0  0  0  0  0  0  0
   29.2571  -19.7371   -7.4866 O   0  0  0  0  0  0  0  0  0  0  0  0
  2  9  1  0
  2  1  1  1
  3  2  1  0
  4  3  1  0
  5  4  2  0
  6  5  1  0
  7  6  1  0
  7  8  2  0
  8  4  1  0
  9 10  2  0
 11  9  1  0
 11 15  1  0
 12 11  1  0
 12 13  1  0
 13 14  1  0
 15 14  1  0
 16 17  2  0
 15 16  1  1
 19 18  1  1
 19 20  1  0
 20 16  1  0
 21 22  1  0
 21 19  1  0
 23 21  2  0
M  END
$$$$
