HPA.pdb
     RDKit          3D

 23 24  0  0  1  0  0  0  0  0999 V2000
   24.2539  -22.2755  -13.0952 N   0  0  0  0  0  0  0  0  0  0  0  0
   24.5927  -21.2215  -12.2084 C   0  0  1  0  0  0  0  0  0  0  0  0
   23.3159  -20.8157  -11.4944 C   0  0  0  0  0  0  0  0  0  0  0  0
   22.2680  -20.3911  -12.4498 C   0  0  0  0  0  0  0  0  0  0  0  0
   22.3425  -19.4547  -13.4649 C   0  0  0  0  0  0  0  0  0  0  0  0
   21.1639  -19.3676  -14.1015 N   0  0  0  0  0  0  0  0  0  0  0  0
   20.3357  -20.2387  -13.5043 C   0  0  0  0  0  0  0  0  0  0  0  0
   21.0050  -20.8492  -12.5142 N   0  0  0  0  0  0  0  0  0  0  0  0
   25.6523  -21.4954  -11.2207 C   0  0  0  0  0  0  0  0  0  0  0  0
   25.5106  -22.6660  -10.6597 O   0  0  0  0  0  0  0  0  0  0  0  0
   26.7201  -20.6714  -10.8566 N   0  0  0  0  0  0  0  0  0  0  0  0
   27.0902  -19.3890  -11.3210 C   0  0  0  0  0  0  0  0  0  0  0  0
   28.5465  -19.6526  -11.7002 C   0  0  0  0  0  0  0  0  0  0  0  0
   28.9757  -20.5172  -10.5548 C   0  0  0  0  0  0  0  0  0  0  0  0
   27.7194  -20.9996   -9.8653 C   0  0  1  0  0  0  0  0  0  0  0  0
   27.4686  -20.3081   -8.5730 C   0  0  0  0  0  0  0  0  0  0  0  0
   26.8971  -19.1949   -8.5874 O   0  0  0  0  0  0  0  0  0  0  0  0
   28.2284  -21.0227   -4.9179 C   0  0  0  0  0  0  0  0  0  0  0  0
   27.5764  -20.2292   -6.0578 C   0  0  2  0  0  0  0  0  0  0  0  0
   27.8449  -20.8459   -7.3184 N   0  0  0  0  0  0  0  0  0  0  0  0
   28.1763  -18.8755   -6.0233 C   0  0  0  0  0  0  0  0  0  0  0  0
   29.1602  -18.4798   -6.9100 O   0  0  0  0  0  0  0  0  0  0  0  0
   27.7791  -18.0646   -5.1635 O   0  0  0  0  0  0  0  0  0  0  0  0
  2  9  1  0
  2  1  1  1
  3  2  1  0
  4  3  1  0
  5  4  2  0
  6  5  1  0
  7  6  1  0
  7  8  2  0
  8  4  1  0
  9 10  2  0
 11  9  1  0
 11 15  1  0
 12 11  1  0
 12 13  1  0
 13 14  1  0
 15 14  1  0
 16 17  2  0
 15 16  1  1
 19 18  1  1
 19 20  1  0
 20 16  1  0
 21 22  1  0
 21 19  1  0
 23 21  2  0
M  END
$$$$
