HPA.pdb
     RDKit          3D

 23 24  0  0  1  0  0  0  0  0999 V2000
   24.0654  -20.3750  -17.4871 N   0  0  0  0  0  0  0  0  0  0  0  0
   24.5185  -19.6408  -16.3611 C   0  0  1  0  0  0  0  0  0  0  0  0
   23.3113  -18.9224  -15.7857 C   0  0  0  0  0  0  0  0  0  0  0  0
   22.7007  -18.0046  -16.7737 C   0  0  0  0  0  0  0  0  0  0  0  0
   23.2371  -17.5054  -17.9466 C   0  0  0  0  0  0  0  0  0  0  0  0
   22.3512  -16.7012  -18.5551 N   0  0  0  0  0  0  0  0  0  0  0  0
   21.2532  -16.6805  -17.7837 C   0  0  0  0  0  0  0  0  0  0  0  0
   21.4701  -17.4648  -16.7165 N   0  0  0  0  0  0  0  0  0  0  0  0
   25.2002  -20.4024  -15.2986 C   0  0  0  0  0  0  0  0  0  0  0  0
   24.6836  -21.5906  -15.1367 O   0  0  0  0  0  0  0  0  0  0  0  0
   26.2749  -19.9943  -14.5047 N   0  0  0  0  0  0  0  0  0  0  0  0
   27.0082  -18.7863  -14.5025 C   0  0  0  0  0  0  0  0  0  0  0  0
   28.4279  -19.3357  -14.6307 C   0  0  0  0  0  0  0  0  0  0  0  0
   28.3490  -20.5160  -13.7120 C   0  0  0  0  0  0  0  0  0  0  0  0
   26.8829  -20.7886  -13.4615 C   0  0  1  0  0  0  0  0  0  0  0  0
   26.4397  -20.3618  -12.1078 C   0  0  0  0  0  0  0  0  0  0  0  0
   26.1758  -19.1539  -11.9144 O   0  0  0  0  0  0  0  0  0  0  0  0
   26.1608  -19.6790   -9.1650 C   0  0  0  0  0  0  0  0  0  0  0  0
   25.6031  -20.9557   -9.8076 C   0  0  2  0  0  0  0  0  0  0  0  0
   26.2995  -21.2555  -11.0186 N   0  0  0  0  0  0  0  0  0  0  0  0
   24.1764  -20.6885  -10.1021 C   0  0  0  0  0  0  0  0  0  0  0  0
   23.2498  -20.4396   -9.1070 O   0  0  0  0  0  0  0  0  0  0  0  0
   23.7986  -20.6881  -11.2903 O   0  0  0  0  0  0  0  0  0  0  0  0
  2  9  1  0
  2  1  1  6
  3  2  1  0
  4  3  1  0
  5  4  2  0
  6  5  1  0
  7  6  1  0
  7  8  2  0
  8  4  1  0
  9 10  2  0
 11  9  1  0
 11 15  1  0
 12 11  1  0
 12 13  1  0
 13 14  1  0
 15 14  1  0
 16 17  2  0
 15 16  1  1
 19 18  1  6
 19 20  1  0
 20 16  1  0
 21 22  1  0
 21 19  1  0
 23 21  2  0
M  END
$$$$
