HPA.pdb
     RDKit          3D

 23 24  0  0  1  0  0  0  0  0999 V2000
   24.0067  -19.0128  -18.9908 N   0  0  0  0  0  0  0  0  0  0  0  0
   24.0130  -18.4126  -17.7056 C   0  0  1  0  0  0  0  0  0  0  0  0
   22.5916  -18.4824  -17.1772 C   0  0  0  0  0  0  0  0  0  0  0  0
   21.8814  -17.1951  -17.3503 C   0  0  0  0  0  0  0  0  0  0  0  0
   21.8479  -16.3602  -18.4523 C   0  0  0  0  0  0  0  0  0  0  0  0
   21.0834  -15.2869  -18.1965 N   0  0  0  0  0  0  0  0  0  0  0  0
   20.6272  -15.4262  -16.9421 C   0  0  0  0  0  0  0  0  0  0  0  0
   21.1101  -16.5735  -16.4405 N   0  0  0  0  0  0  0  0  0  0  0  0
   24.9442  -18.9757  -16.7110 C   0  0  0  0  0  0  0  0  0  0  0  0
   25.2667  -20.2112  -16.9839 O   0  0  0  0  0  0  0  0  0  0  0  0
   25.4753  -18.3489  -15.5810 N   0  0  0  0  0  0  0  0  0  0  0  0
   25.2498  -17.0559  -15.0571 C   0  0  0  0  0  0  0  0  0  0  0  0
   26.6897  -16.5570  -14.9488 C   0  0  0  0  0  0  0  0  0  0  0  0
   27.3696  -17.7908  -14.4398 C   0  0  0  0  0  0  0  0  0  0  0  0
   26.4241  -18.9481  -14.6702 C   0  0  1  0  0  0  0  0  0  0  0  0
   25.7727  -19.4188  -13.4191 C   0  0  0  0  0  0  0  0  0  0  0  0
   24.7406  -18.8336  -13.0213 O   0  0  0  0  0  0  0  0  0  0  0  0
   26.3000  -22.3388  -11.0475 C   0  0  0  0  0  0  0  0  0  0  0  0
   25.5872  -21.0658  -11.5225 C   0  0  2  0  0  0  0  0  0  0  0  0
   26.2616  -20.5015  -12.6487 N   0  0  0  0  0  0  0  0  0  0  0  0
   25.6248  -20.1155  -10.3872 C   0  0  0  0  0  0  0  0  0  0  0  0
   24.7515  -20.2040   -9.3193 O   0  0  0  0  0  0  0  0  0  0  0  0
   26.4748  -19.2033  -10.3957 O   0  0  0  0  0  0  0  0  0  0  0  0
  2  9  1  0
  2  1  1  6
  3  2  1  0
  4  3  1  0
  5  4  2  0
  6  5  1  0
  7  6  1  0
  7  8  2  0
  8  4  1  0
  9 10  2  0
 11  9  1  0
 11 15  1  0
 12 11  1  0
 12 13  1  0
 13 14  1  0
 15 14  1  0
 16 17  2  0
 15 16  1  1
 19 18  1  1
 19 20  1  0
 20 16  1  0
 21 22  1  0
 21 19  1  0
 23 21  2  0
M  END
$$$$
