HPA.pdb
     RDKit          3D

 23 24  0  0  1  0  0  0  0  0999 V2000
   16.9319  -15.3788    5.6841 N   0  0  0  0  0  0  0  0  0  0  0  0
   17.4707  -14.3261    6.4675 C   0  0  1  0  0  0  0  0  0  0  0  0
   16.7003  -14.3083    7.7754 C   0  0  0  0  0  0  0  0  0  0  0  0
   15.2771  -13.9594    7.5656 C   0  0  0  0  0  0  0  0  0  0  0  0
   14.7195  -12.7380    7.2338 C   0  0  0  0  0  0  0  0  0  0  0  0
   13.3852  -12.8492    7.1381 N   0  0  0  0  0  0  0  0  0  0  0  0
   13.0829  -14.1292    7.4052 C   0  0  0  0  0  0  0  0  0  0  0  0
   14.2231  -14.7894    7.6608 N   0  0  0  0  0  0  0  0  0  0  0  0
   18.9186  -14.3719    6.7409 C   0  0  0  0  0  0  0  0  0  0  0  0
   19.4672  -15.4725    6.3020 O   0  0  0  0  0  0  0  0  0  0  0  0
   19.7017  -13.4095    7.3831 N   0  0  0  0  0  0  0  0  0  0  0  0
   19.3424  -12.1734    7.9662 C   0  0  0  0  0  0  0  0  0  0  0  0
   20.3221  -11.2456    7.2497 C   0  0  0  0  0  0  0  0  0  0  0  0
   21.5587  -12.0907    7.2619 C   0  0  0  0  0  0  0  0  0  0  0  0
   21.1296  -13.5039    7.5860 C   0  0  1  0  0  0  0  0  0  0  0  0
   21.4682  -13.9051    8.9773 C   0  0  0  0  0  0  0  0  0  0  0  0
   20.7266  -13.5241    9.9105 O   0  0  0  0  0  0  0  0  0  0  0  0
   22.9454  -17.0242    9.9504 C   0  0  0  0  0  0  0  0  0  0  0  0
   22.6598  -15.5915   10.4195 C   0  0  2  0  0  0  0  0  0  0  0  0
   22.5928  -14.7006    9.3044 N   0  0  0  0  0  0  0  0  0  0  0  0
   23.7850  -15.2069   11.3023 C   0  0  0  0  0  0  0  0  0  0  0  0
   23.9634  -15.7598   12.5566 O   0  0  0  0  0  0  0  0  0  0  0  0
   24.6000  -14.3537   10.8989 O   0  0  0  0  0  0  0  0  0  0  0  0
  2  9  1  0
  2  1  1  6
  3  2  1  0
  4  3  1  0
  5  4  2  0
  6  5  1  0
  7  6  1  0
  7  8  2  0
  8  4  1  0
  9 10  2  0
 11  9  1  0
 11 15  1  0
 12 11  1  0
 12 13  1  0
 13 14  1  0
 15 14  1  0
 16 17  2  0
 15 16  1  1
 19 18  1  6
 19 20  1  0
 20 16  1  0
 21 22  1  0
 21 19  1  0
 23 21  2  0
M  END
$$$$
