HPA.pdb
     RDKit          3D

 23 24  0  0  1  0  0  0  0  0999 V2000
   20.1669  -12.4443  -18.6621 N   0  0  0  0  0  0  0  0  0  0  0  0
   19.9063  -11.6853  -17.4924 C   0  0  1  0  0  0  0  0  0  0  0  0
   20.5974  -12.3940  -16.3415 C   0  0  0  0  0  0  0  0  0  0  0  0
   20.0604  -13.7586  -16.1398 C   0  0  0  0  0  0  0  0  0  0  0  0
   18.9525  -14.1606  -15.4161 C   0  0  0  0  0  0  0  0  0  0  0  0
   18.8120  -15.4936  -15.4873 N   0  0  0  0  0  0  0  0  0  0  0  0
   19.8186  -15.9491  -16.2492 C   0  0  0  0  0  0  0  0  0  0  0  0
   20.5637  -14.9025  -16.6371 N   0  0  0  0  0  0  0  0  0  0  0  0
   20.3035  -10.2658  -17.5161 C   0  0  0  0  0  0  0  0  0  0  0  0
   21.3798  -10.0684  -18.2286 O   0  0  0  0  0  0  0  0  0  0  0  0
   19.6749   -9.1880  -16.8878 N   0  0  0  0  0  0  0  0  0  0  0  0
   18.5524   -9.1527  -16.0299 C   0  0  0  0  0  0  0  0  0  0  0  0
   17.6948   -8.1171  -16.7551 C   0  0  0  0  0  0  0  0  0  0  0  0
   18.7425   -7.1232  -17.1523 C   0  0  0  0  0  0  0  0  0  0  0  0
   20.0834   -7.8067  -17.0063 C   0  0  1  0  0  0  0  0  0  0  0  0
   20.8388   -7.3459  -15.8112 C   0  0  0  0  0  0  0  0  0  0  0  0
   20.6231   -7.9030  -14.7116 O   0  0  0  0  0  0  0  0  0  0  0  0
   23.7374   -4.9635  -15.2385 C   0  0  0  0  0  0  0  0  0  0  0  0
   22.6668   -5.9589  -14.7726 C   0  0  2  0  0  0  0  0  0  0  0  0
   21.7956   -6.3030  -15.8516 N   0  0  0  0  0  0  0  0  0  0  0  0
   21.8985   -5.2792  -13.7044 C   0  0  0  0  0  0  0  0  0  0  0  0
   22.3854   -5.1383  -12.4184 O   0  0  0  0  0  0  0  0  0  0  0  0
   20.7722   -4.8180  -13.9757 O   0  0  0  0  0  0  0  0  0  0  0  0
  2  9  1  0
  2  1  1  6
  3  2  1  0
  4  3  1  0
  5  4  2  0
  6  5  1  0
  7  6  1  0
  7  8  2  0
  8  4  1  0
  9 10  2  0
 11  9  1  0
 11 15  1  0
 12 11  1  0
 12 13  1  0
 13 14  1  0
 15 14  1  0
 16 17  2  0
 15 16  1  1
 19 18  1  6
 19 20  1  0
 20 16  1  0
 21 22  1  0
 21 19  1  0
 23 21  2  0
M  END
$$$$
