YAG.pdb
     RDKit          3D

 22 22  0  0  1  0  0  0  0  0999 V2000
   28.4287  -19.3479   -4.6864 O   0  0  0  0  0  0  0  0  0  0  0  0
   27.9185  -19.6666   -5.9463 C   0  0  0  0  0  0  0  0  0  0  0  0
   26.7013  -20.2919   -6.1225 C   0  0  0  0  0  0  0  0  0  0  0  0
   26.2072  -20.6020   -7.3740 C   0  0  0  0  0  0  0  0  0  0  0  0
   26.9277  -20.2909   -8.5112 C   0  0  0  0  0  0  0  0  0  0  0  0
   26.4378  -20.6044   -9.8785 C   0  0  0  0  0  0  0  0  0  0  0  0
   25.4123  -19.6003  -10.3529 C   0  0  2  0  0  0  0  0  0  0  0  0
   24.1107  -19.9043   -9.8399 N   0  0  0  0  0  0  0  0  0  0  0  0
   25.4218  -19.6594  -11.8491 C   0  0  0  0  0  0  0  0  0  0  0  0
   24.4354  -20.1630  -12.4328 O   0  0  0  0  0  0  0  0  0  0  0  0
   28.1441  -19.6659   -8.3325 C   0  0  0  0  0  0  0  0  0  0  0  0
   28.6394  -19.3551   -7.0802 C   0  0  0  0  0  0  0  0  0  0  0  0
   27.6683  -18.1310  -14.5197 C   0  0  0  0  0  0  0  0  0  0  0  0
   26.4191  -18.7937  -13.9932 C   0  0  2  0  0  0  0  0  0  0  0  0
   26.5153  -19.1607  -12.6055 N   0  0  0  0  0  0  0  0  0  0  0  0
   25.9886  -19.9379  -14.8422 C   0  0  0  0  0  0  0  0  0  0  0  0
   26.5800  -21.0527  -14.7734 O   0  0  0  0  0  0  0  0  0  0  0  0
   24.9085  -19.8394  -15.7593 N   0  0  0  0  0  0  0  0  0  0  0  0
   24.4812  -20.9364  -16.5919 C   0  0  0  0  0  0  0  0  0  0  0  0
   25.1139  -20.9303  -17.9186 C   0  0  0  0  0  0  0  0  0  0  0  0
   26.3236  -21.2063  -18.0369 O   0  0  0  0  0  0  0  0  0  0  0  0
   24.3669  -20.6187  -19.0319 O   0  0  0  0  0  0  0  0  0  0  0  0
  2  1  1  0
  2 12  2  0
  3  2  1  0
  4  3  2  0
  4  5  1  0
  5 11  2  0
  6  7  1  0
  6  5  1  0
  7  8  1  1
  9  7  1  0
  9 10  2  0
 11 12  1  0
 14 13  1  6
 14 15  1  0
 14 16  1  0
 15  9  1  0
 16 18  1  0
 17 16  2  0
 18 19  1  0
 19 20  1  0
 20 21  2  0
 20 22  1  0
M  END
$$$$
