YAG.pdb
     RDKit          3D

 22 22  0  0  1  0  0  0  0  0999 V2000
   25.6485  -31.3929   -9.5221 O   0  0  0  0  0  0  0  0  0  0  0  0
   26.1158  -31.9109   -8.3128 C   0  0  0  0  0  0  0  0  0  0  0  0
   25.4664  -31.7070   -7.1126 C   0  0  0  0  0  0  0  0  0  0  0  0
   25.9386  -32.2246   -5.9228 C   0  0  0  0  0  0  0  0  0  0  0  0
   27.0971  -32.9770   -5.8940 C   0  0  0  0  0  0  0  0  0  0  0  0
   27.6441  -33.5546   -4.6389 C   0  0  0  0  0  0  0  0  0  0  0  0
   27.0837  -34.9308   -4.3617 C   0  0  2  0  0  0  0  0  0  0  0  0
   25.6967  -34.8669   -4.0125 N   0  0  0  0  0  0  0  0  0  0  0  0
   27.8906  -35.4979   -3.2350 C   0  0  0  0  0  0  0  0  0  0  0  0
   27.6087  -35.1513   -2.0655 O   0  0  0  0  0  0  0  0  0  0  0  0
   27.7444  -33.1794   -7.0948 C   0  0  0  0  0  0  0  0  0  0  0  0
   27.2726  -32.6617   -8.2863 C   0  0  0  0  0  0  0  0  0  0  0  0
   29.8126  -38.5612   -2.6396 C   0  0  0  0  0  0  0  0  0  0  0  0
   29.6741  -37.0755   -2.4155 C   0  0  2  0  0  0  0  0  0  0  0  0
   28.9545  -36.4092   -3.4680 N   0  0  0  0  0  0  0  0  0  0  0  0
   30.9833  -36.4238   -2.1384 C   0  0  0  0  0  0  0  0  0  0  0  0
   31.6552  -35.8996   -3.0717 O   0  0  0  0  0  0  0  0  0  0  0  0
   31.5377  -36.3575   -0.8324 N   0  0  0  0  0  0  0  0  0  0  0  0
   32.8317  -35.7846   -0.5555 C   0  0  0  0  0  0  0  0  0  0  0  0
   33.1193  -35.6846    0.8825 C   0  0  0  0  0  0  0  0  0  0  0  0
   32.2647  -36.0381    1.7182 O   0  0  0  0  0  0  0  0  0  0  0  0
   34.3359  -35.1992    1.3053 O   0  0  0  0  0  0  0  0  0  0  0  0
  2  1  1  0
  2 12  2  0
  3  2  1  0
  4  3  2  0
  4  5  1  0
  5 11  2  0
  6  7  1  0
  6  5  1  0
  7  8  1  1
  9  7  1  0
  9 10  2  0
 11 12  1  0
 14 13  1  6
 14 15  1  0
 14 16  1  0
 15  9  1  0
 16 18  1  0
 17 16  2  0
 18 19  1  0
 19 20  1  0
 20 21  2  0
 20 22  1  0
M  END
$$$$
