YAG.pdb
     RDKit          3D

 22 22  0  0  1  0  0  0  0  0999 V2000
   27.8281  -19.7657   -5.0949 O   0  0  0  0  0  0  0  0  0  0  0  0
   27.2849  -19.8765   -6.3762 C   0  0  0  0  0  0  0  0  0  0  0  0
   26.5095  -20.9483   -6.7683 C   0  0  0  0  0  0  0  0  0  0  0  0
   25.9777  -21.0467   -8.0387 C   0  0  0  0  0  0  0  0  0  0  0  0
   26.2083  -20.0579   -8.9759 C   0  0  0  0  0  0  0  0  0  0  0  0
   25.6577  -20.1194  -10.3546 C   0  0  0  0  0  0  0  0  0  0  0  0
   26.2131  -21.2917  -11.1307 C   0  0  2  0  0  0  0  0  0  0  0  0
   27.6409  -21.2287  -11.2170 N   0  0  0  0  0  0  0  0  0  0  0  0
   25.5943  -21.2297  -12.4928 C   0  0  0  0  0  0  0  0  0  0  0  0
   25.9295  -20.2978  -13.2587 O   0  0  0  0  0  0  0  0  0  0  0  0
   26.9836  -18.9876   -8.5817 C   0  0  0  0  0  0  0  0  0  0  0  0
   27.5164  -18.8883   -7.3102 C   0  0  0  0  0  0  0  0  0  0  0  0
   24.3734  -23.4513  -15.0221 C   0  0  0  0  0  0  0  0  0  0  0  0
   24.0595  -22.2019  -14.2365 C   0  0  2  0  0  0  0  0  0  0  0  0
   24.6475  -22.1964  -12.9236 N   0  0  0  0  0  0  0  0  0  0  0  0
   22.5993  -21.9167  -14.1927 C   0  0  0  0  0  0  0  0  0  0  0  0
   21.9086  -21.9151  -15.2511 O   0  0  0  0  0  0  0  0  0  0  0  0
   21.9161  -21.6361  -12.9795 N   0  0  0  0  0  0  0  0  0  0  0  0
   20.4960  -21.3945  -12.9144 C   0  0  0  0  0  0  0  0  0  0  0  0
   20.1259  -20.0333  -13.3276 C   0  0  0  0  0  0  0  0  0  0  0  0
   20.3783  -19.6390  -14.4828 O   0  0  0  0  0  0  0  0  0  0  0  0
   19.4991  -19.1936  -12.4351 O   0  0  0  0  0  0  0  0  0  0  0  0
  2  1  1  0
  2 12  2  0
  3  2  1  0
  4  3  2  0
  4  5  1  0
  5 11  2  0
  6  7  1  0
  6  5  1  0
  7  8  1  6
  9  7  1  0
  9 10  2  0
 11 12  1  0
 14 13  1  1
 14 15  1  0
 14 16  1  0
 15  9  1  0
 16 18  1  0
 17 16  2  0
 18 19  1  0
 19 20  1  0
 20 21  2  0
 20 22  1  0
M  END
$$$$
