YAG.pdb
     RDKit          3D

 22 22  0  0  1  0  0  0  0  0999 V2000
   25.5570  -39.8471  -14.3489 O   0  0  0  0  0  0  0  0  0  0  0  0
   25.7302  -38.8270  -13.4116 C   0  0  0  0  0  0  0  0  0  0  0  0
   24.6731  -38.2157  -12.7694 C   0  0  0  0  0  0  0  0  0  0  0  0
   24.8573  -37.2075  -11.8440 C   0  0  0  0  0  0  0  0  0  0  0  0
   26.1283  -36.7698  -11.5249 C   0  0  0  0  0  0  0  0  0  0  0  0
   26.3766  -35.6888  -10.5361 C   0  0  0  0  0  0  0  0  0  0  0  0
   26.0551  -34.3243  -11.1015 C   0  0  2  0  0  0  0  0  0  0  0  0
   27.0039  -33.9393  -12.1022 N   0  0  0  0  0  0  0  0  0  0  0  0
   26.0819  -33.3703   -9.9477 C   0  0  0  0  0  0  0  0  0  0  0  0
   27.1828  -32.8878   -9.5976 O   0  0  0  0  0  0  0  0  0  0  0  0
   27.1834  -37.3823  -12.1681 C   0  0  0  0  0  0  0  0  0  0  0  0
   27.0000  -38.3915  -13.0945 C   0  0  0  0  0  0  0  0  0  0  0  0
   23.5580  -31.3911   -7.9720 C   0  0  0  0  0  0  0  0  0  0  0  0
   24.8755  -32.1090   -8.1324 C   0  0  2  0  0  0  0  0  0  0  0  0
   24.8963  -33.0094   -9.2542 N   0  0  0  0  0  0  0  0  0  0  0  0
   25.3088  -32.7775   -6.8751 C   0  0  0  0  0  0  0  0  0  0  0  0
   24.7414  -33.8338   -6.4756 O   0  0  0  0  0  0  0  0  0  0  0  0
   26.3651  -32.2724   -6.0711 N   0  0  0  0  0  0  0  0  0  0  0  0
   26.7347  -32.8517   -4.8034 C   0  0  0  0  0  0  0  0  0  0  0  0
   27.3547  -34.1777   -4.9374 C   0  0  0  0  0  0  0  0  0  0  0  0
   27.4376  -34.7201   -6.0564 O   0  0  0  0  0  0  0  0  0  0  0  0
   27.8444  -34.8201   -3.8229 O   0  0  0  0  0  0  0  0  0  0  0  0
  2  1  1  0
  2 12  2  0
  3  2  1  0
  4  3  2  0
  4  5  1  0
  5 11  2  0
  6  7  1  0
  6  5  1  0
  7  8  1  6
  9  7  1  0
  9 10  2  0
 11 12  1  0
 14 13  1  1
 14 15  1  0
 14 16  1  0
 15  9  1  0
 16 18  1  0
 17 16  2  0
 18 19  1  0
 19 20  1  0
 20 21  2  0
 20 22  1  0
M  END
$$$$
