YAG.pdb
     RDKit          3D

 22 22  0  0  1  0  0  0  0  0999 V2000
   29.4106  -16.8569  -18.8312 O   0  0  0  0  0  0  0  0  0  0  0  0
   28.6260  -17.4788  -17.8582 C   0  0  0  0  0  0  0  0  0  0  0  0
   29.1133  -17.8235  -16.6143 C   0  0  0  0  0  0  0  0  0  0  0  0
   28.3272  -18.4385  -15.6601 C   0  0  0  0  0  0  0  0  0  0  0  0
   27.0036  -18.7342  -15.9238 C   0  0  0  0  0  0  0  0  0  0  0  0
   26.1187  -19.3948  -14.9295 C   0  0  0  0  0  0  0  0  0  0  0  0
   26.6217  -20.7701  -14.5547 C   0  0  2  0  0  0  0  0  0  0  0  0
   26.6497  -21.6411  -15.6908 N   0  0  0  0  0  0  0  0  0  0  0  0
   25.6879  -21.2920  -13.5070 C   0  0  0  0  0  0  0  0  0  0  0  0
   24.7569  -22.0504  -13.8614 O   0  0  0  0  0  0  0  0  0  0  0  0
   26.5187  -18.3887  -17.1678 C   0  0  0  0  0  0  0  0  0  0  0  0
   27.3048  -17.7732  -18.1236 C   0  0  0  0  0  0  0  0  0  0  0  0
   25.4158  -21.1133   -9.7200 C   0  0  0  0  0  0  0  0  0  0  0  0
   24.8846  -21.2971  -11.1204 C   0  0  2  0  0  0  0  0  0  0  0  0
   25.8387  -20.9458  -12.1381 N   0  0  0  0  0  0  0  0  0  0  0  0
   23.5792  -20.6108  -11.3216 C   0  0  0  0  0  0  0  0  0  0  0  0
   23.4872  -19.3542  -11.2225 O   0  0  0  0  0  0  0  0  0  0  0  0
   22.3878  -21.3196  -11.6305 N   0  0  0  0  0  0  0  0  0  0  0  0
   21.1214  -20.6682  -11.8569 C   0  0  0  0  0  0  0  0  0  0  0  0
   20.0746  -21.5924  -12.3157 C   0  0  0  0  0  0  0  0  0  0  0  0
   20.3511  -22.7847  -12.5512 O   0  0  0  0  0  0  0  0  0  0  0  0
   18.7864  -21.1380  -12.4851 O   0  0  0  0  0  0  0  0  0  0  0  0
  2  1  1  0
  2 12  2  0
  3  2  1  0
  4  3  2  0
  4  5  1  0
  5 11  2  0
  6  7  1  0
  6  5  1  0
  7  8  1  6
  9  7  1  0
  9 10  2  0
 11 12  1  0
 14 13  1  1
 14 15  1  0
 14 16  1  0
 15  9  1  0
 16 18  1  0
 17 16  2  0
 18 19  1  0
 19 20  1  0
 20 21  2  0
 20 22  1  0
M  END
$$$$
