YAG.pdb
     RDKit          3D

 22 22  0  0  1  0  0  0  0  0999 V2000
   20.2254  -15.1622  -17.4837 O   0  0  0  0  0  0  0  0  0  0  0  0
   20.2329  -16.1787  -16.5267 C   0  0  0  0  0  0  0  0  0  0  0  0
   20.3829  -15.9328  -15.1774 C   0  0  0  0  0  0  0  0  0  0  0  0
   20.3887  -16.9470  -14.2403 C   0  0  0  0  0  0  0  0  0  0  0  0
   20.2420  -18.2645  -14.6295 C   0  0  0  0  0  0  0  0  0  0  0  0
   20.2418  -19.3894  -13.6586 C   0  0  0  0  0  0  0  0  0  0  0  0
   21.6439  -19.7831  -13.2532 C   0  0  2  0  0  0  0  0  0  0  0  0
   22.3287  -20.4428  -14.3236 N   0  0  0  0  0  0  0  0  0  0  0  0
   21.5040  -20.6915  -12.0711 C   0  0  0  0  0  0  0  0  0  0  0  0
   21.3008  -21.9099  -12.2753 O   0  0  0  0  0  0  0  0  0  0  0  0
   20.0921  -18.5079  -15.9787 C   0  0  0  0  0  0  0  0  0  0  0  0
   20.0862  -17.4934  -16.9174 C   0  0  0  0  0  0  0  0  0  0  0  0
   21.9793  -20.3665   -8.3169 C   0  0  0  0  0  0  0  0  0  0  0  0
   21.4917  -21.0384   -9.5769 C   0  0  2  0  0  0  0  0  0  0  0  0
   21.5968  -20.2007  -10.7418 N   0  0  0  0  0  0  0  0  0  0  0  0
   20.1236  -21.6034   -9.4202 C   0  0  0  0  0  0  0  0  0  0  0  0
   19.1305  -21.0574   -9.9796 O   0  0  0  0  0  0  0  0  0  0  0  0
   19.8659  -22.7664   -8.6468 N   0  0  0  0  0  0  0  0  0  0  0  0
   18.5580  -23.3634   -8.5361 C   0  0  0  0  0  0  0  0  0  0  0  0
   18.5504  -24.5802   -7.7115 C   0  0  0  0  0  0  0  0  0  0  0  0
   19.6159  -25.0255   -7.2424 O   0  0  0  0  0  0  0  0  0  0  0  0
   17.3628  -25.2280   -7.4579 O   0  0  0  0  0  0  0  0  0  0  0  0
  2  1  1  0
  2 12  2  0
  3  2  1  0
  4  3  2  0
  4  5  1  0
  5 11  2  0
  6  7  1  0
  6  5  1  0
  7  8  1  6
  9  7  1  0
  9 10  2  0
 11 12  1  0
 14 13  1  1
 14 15  1  0
 14 16  1  0
 15  9  1  0
 16 18  1  0
 17 16  2  0
 18 19  1  0
 19 20  1  0
 20 21  2  0
 20 22  1  0
M  END
$$$$
