YAG.pdb
     RDKit          3D

 22 22  0  0  1  0  0  0  0  0999 V2000
   28.5270  -30.0304  -16.3186 O   0  0  0  0  0  0  0  0  0  0  0  0
   28.0894  -28.7410  -16.6269 C   0  0  0  0  0  0  0  0  0  0  0  0
   26.8901  -28.4913  -17.2616 C   0  0  0  0  0  0  0  0  0  0  0  0
   26.4682  -27.2112  -17.5612 C   0  0  0  0  0  0  0  0  0  0  0  0
   27.2464  -26.1187  -17.2296 C   0  0  0  0  0  0  0  0  0  0  0  0
   26.8349  -24.7231  -17.5312 C   0  0  0  0  0  0  0  0  0  0  0  0
   26.1674  -24.0645  -16.3456 C   0  0  2  0  0  0  0  0  0  0  0  0
   24.7925  -24.4504  -16.2423 N   0  0  0  0  0  0  0  0  0  0  0  0
   26.2911  -22.5872  -16.5562 C   0  0  0  0  0  0  0  0  0  0  0  0
   25.3134  -21.9685  -17.0344 O   0  0  0  0  0  0  0  0  0  0  0  0
   28.4447  -26.3708  -16.5952 C   0  0  0  0  0  0  0  0  0  0  0  0
   28.8679  -27.6518  -16.2949 C   0  0  0  0  0  0  0  0  0  0  0  0
   28.4833  -19.8373  -15.3050 C   0  0  0  0  0  0  0  0  0  0  0  0
   27.6360  -20.4652  -16.3843 C   0  0  2  0  0  0  0  0  0  0  0  0
   27.4818  -21.8869  -16.2272 N   0  0  0  0  0  0  0  0  0  0  0  0
   28.1060  -20.1046  -17.7497 C   0  0  0  0  0  0  0  0  0  0  0  0
   28.2605  -18.8951  -18.0821 O   0  0  0  0  0  0  0  0  0  0  0  0
   28.4008  -21.0842  -18.7351 N   0  0  0  0  0  0  0  0  0  0  0  0
   28.8557  -20.7522  -20.0625 C   0  0  0  0  0  0  0  0  0  0  0  0
   30.3194  -20.6596  -20.1612 C   0  0  0  0  0  0  0  0  0  0  0  0
   30.8644  -20.5167  -21.2730 O   0  0  0  0  0  0  0  0  0  0  0  0
   31.0882  -20.7311  -19.0217 O   0  0  0  0  0  0  0  0  0  0  0  0
  2  1  1  0
  2 12  2  0
  3  2  1  0
  4  3  2  0
  4  5  1  0
  5 11  2  0
  6  7  1  0
  6  5  1  0
  7  8  1  6
  9  7  1  0
  9 10  2  0
 11 12  1  0
 14 13  1  1
 14 15  1  0
 14 16  1  0
 15  9  1  0
 16 18  1  0
 17 16  2  0
 18 19  1  0
 19 20  1  0
 20 21  2  0
 20 22  1  0
M  END
$$$$
