PSH.pdb
     RDKit          3D

 24 25  0  0  1  0  0  0  0  0999 V2000
   22.0499  -11.7898  -17.0193 N   0  0  0  0  0  0  0  0  0  0  0  0
   22.7341  -13.0375  -17.3013 C   0  0  0  0  0  0  0  0  0  0  0  0
   24.0337  -12.9932  -16.5364 C   0  0  0  0  0  0  0  0  0  0  0  0
   24.2674  -11.4998  -16.4459 C   0  0  0  0  0  0  0  0  0  0  0  0
   22.8673  -10.9853  -16.1847 C   0  0  1  0  0  0  0  0  0  0  0  0
   22.7642   -9.5326  -16.3652 C   0  0  0  0  0  0  0  0  0  0  0  0
   23.4691   -8.7809  -15.6264 O   0  0  0  0  0  0  0  0  0  0  0  0
   19.8703   -7.9948  -18.5206 O   0  0  0  0  0  0  0  0  0  0  0  0
   20.9979   -7.1540  -18.6807 C   0  0  0  0  0  0  0  0  0  0  0  0
   21.8884   -7.4251  -17.4904 C   0  0  2  0  0  0  0  0  0  0  0  0
   21.9442   -8.8556  -17.2968 N   0  0  0  0  0  0  0  0  0  0  0  0
   21.2851   -6.7269  -16.3275 C   0  0  0  0  0  0  0  0  0  0  0  0
   20.1597   -7.1839  -15.9428 O   0  0  0  0  0  0  0  0  0  0  0  0
   21.8358   -5.6393  -15.6400 N   0  0  0  0  0  0  0  0  0  0  0  0
   21.1334   -4.9676  -14.5670 C   0  0  1  0  0  0  0  0  0  0  0  0
   21.6742   -5.3007  -13.2181 C   0  0  0  0  0  0  0  0  0  0  0  0
   21.3085   -6.6479  -12.7392 C   0  0  0  0  0  0  0  0  0  0  0  0
   20.5795   -7.5268  -13.5085 C   0  0  0  0  0  0  0  0  0  0  0  0
   20.3863   -8.6632  -12.8277 N   0  0  0  0  0  0  0  0  0  0  0  0
   20.9900   -8.4972  -11.6409 C   0  0  0  0  0  0  0  0  0  0  0  0
   21.5484   -7.2706  -11.5935 N   0  0  0  0  0  0  0  0  0  0  0  0
   21.2279   -3.4775  -14.7123 C   0  0  0  0  0  0  0  0  0  0  0  0
   21.9420   -2.9241  -15.5883 O   0  0  0  0  0  0  0  0  0  0  0  0
   20.4977   -2.6814  -13.8441 O   0  0  0  0  0  0  0  0  0  0  0  0
  1  5  1  0
  1  2  1  0
  2  3  1  0
  4  3  1  0
  5  6  1  6
  5  4  1  0
  6 11  1  0
  6  7  2  0
  9  8  1  0
 10  9  1  6
 10 12  1  0
 11 10  1  0
 12 13  2  0
 12 14  1  0
 14 15  1  0
 15 16  1  1
 15 22  1  0
 17 21  1  0
 17 16  1  0
 18 17  2  0
 19 18  1  0
 19 20  1  0
 20 21  2  0
 22 24  1  0
 23 22  2  0
M  END
$$$$
