PSH.pdb
     RDKit          3D

 24 25  0  0  1  0  0  0  0  0999 V2000
   18.8211  -11.5430  -17.3009 N   0  0  0  0  0  0  0  0  0  0  0  0
   18.1801  -12.8357  -17.4503 C   0  0  0  0  0  0  0  0  0  0  0  0
   17.1912  -12.9547  -16.3173 C   0  0  0  0  0  0  0  0  0  0  0  0
   17.8265  -12.0521  -15.2805 C   0  0  0  0  0  0  0  0  0  0  0  0
   18.3241  -10.9054  -16.1354 C   0  0  1  0  0  0  0  0  0  0  0  0
   19.2582  -10.0350  -15.4121 C   0  0  0  0  0  0  0  0  0  0  0  0
   18.8595   -9.4745  -14.3469 O   0  0  0  0  0  0  0  0  0  0  0  0
   23.2988  -10.3262  -14.8576 O   0  0  0  0  0  0  0  0  0  0  0  0
   22.8947   -9.1536  -15.5400 C   0  0  0  0  0  0  0  0  0  0  0  0
   21.4898   -8.8624  -15.0658 C   0  0  2  0  0  0  0  0  0  0  0  0
   20.5917   -9.7414  -15.7784 N   0  0  0  0  0  0  0  0  0  0  0  0
   21.2197   -7.4320  -15.3570 C   0  0  0  0  0  0  0  0  0  0  0  0
   20.9451   -7.1670  -16.5726 O   0  0  0  0  0  0  0  0  0  0  0  0
   21.2421   -6.3819  -14.4321 N   0  0  0  0  0  0  0  0  0  0  0  0
   20.9855   -5.0094  -14.8148 C   0  0  1  0  0  0  0  0  0  0  0  0
   20.1462   -4.2756  -13.8249 C   0  0  0  0  0  0  0  0  0  0  0  0
   19.8706   -2.8730  -14.1920 C   0  0  0  0  0  0  0  0  0  0  0  0
   18.9153   -2.5330  -15.1234 C   0  0  0  0  0  0  0  0  0  0  0  0
   18.8833   -1.2022  -15.2660 N   0  0  0  0  0  0  0  0  0  0  0  0
   19.8117   -0.7127  -14.4300 C   0  0  0  0  0  0  0  0  0  0  0  0
   20.4079   -1.7330  -13.7805 N   0  0  0  0  0  0  0  0  0  0  0  0
   22.2663   -4.2397  -14.9474 C   0  0  0  0  0  0  0  0  0  0  0  0
   22.3311   -3.1223  -15.5225 O   0  0  0  0  0  0  0  0  0  0  0  0
   23.4231   -4.7850  -14.4135 O   0  0  0  0  0  0  0  0  0  0  0  0
  1  5  1  0
  1  2  1  0
  2  3  1  0
  4  3  1  0
  5  6  1  1
  5  4  1  0
  6 11  1  0
  6  7  2  0
  9  8  1  0
 10  9  1  6
 10 12  1  0
 11 10  1  0
 12 13  2  0
 12 14  1  0
 14 15  1  0
 15 16  1  1
 15 22  1  0
 17 21  1  0
 17 16  1  0
 18 17  2  0
 19 18  1  0
 19 20  1  0
 20 21  2  0
 22 24  1  0
 23 22  2  0
M  END
$$$$
