PSH.pdb
     RDKit          3D

 24 25  0  0  1  0  0  0  0  0999 V2000
   19.9512  -11.2963  -18.5551 N   0  0  0  0  0  0  0  0  0  0  0  0
   19.7109  -12.5684  -19.2098 C   0  0  0  0  0  0  0  0  0  0  0  0
   19.0592  -13.4602  -18.1823 C   0  0  0  0  0  0  0  0  0  0  0  0
   19.5942  -12.8633  -16.8975 C   0  0  0  0  0  0  0  0  0  0  0  0
   19.5376  -11.3808  -17.2010 C   0  0  1  0  0  0  0  0  0  0  0  0
   20.2959  -10.5834  -16.2301 C   0  0  0  0  0  0  0  0  0  0  0  0
   19.9148  -10.5825  -15.0207 O   0  0  0  0  0  0  0  0  0  0  0  0
   23.7899   -8.8512  -17.2037 O   0  0  0  0  0  0  0  0  0  0  0  0
   23.6428   -9.1634  -15.8309 C   0  0  0  0  0  0  0  0  0  0  0  0
   22.1702   -9.0122  -15.5277 C   0  0  2  0  0  0  0  0  0  0  0  0
   21.4370   -9.7928  -16.4973 N   0  0  0  0  0  0  0  0  0  0  0  0
   21.8530   -7.5649  -15.6204 C   0  0  0  0  0  0  0  0  0  0  0  0
   21.7392   -7.1079  -16.8043 O   0  0  0  0  0  0  0  0  0  0  0  0
   21.6745   -6.6877  -14.5447 N   0  0  0  0  0  0  0  0  0  0  0  0
   21.3563   -5.2880  -14.7336 C   0  0  1  0  0  0  0  0  0  0  0  0
   19.9270   -4.9720  -14.4505 C   0  0  0  0  0  0  0  0  0  0  0  0
   18.9738   -5.6165  -15.3745 C   0  0  0  0  0  0  0  0  0  0  0  0
   18.8491   -5.2263  -16.6891 C   0  0  0  0  0  0  0  0  0  0  0  0
   17.9115   -5.9699  -17.2894 N   0  0  0  0  0  0  0  0  0  0  0  0
   17.4527   -6.8195  -16.3576 C   0  0  0  0  0  0  0  0  0  0  0  0
   18.1022   -6.5996  -15.1965 N   0  0  0  0  0  0  0  0  0  0  0  0
   22.1766   -4.4224  -13.8236 C   0  0  0  0  0  0  0  0  0  0  0  0
   22.8796   -4.8912  -12.8911 O   0  0  0  0  0  0  0  0  0  0  0  0
   22.1565   -3.0508  -14.0211 O   0  0  0  0  0  0  0  0  0  0  0  0
  1  5  1  0
  1  2  1  0
  2  3  1  0
  4  3  1  0
  5  6  1  1
  5  4  1  0
  6 11  1  0
  6  7  2  0
  9  8  1  0
 10  9  1  6
 10 12  1  0
 11 10  1  0
 12 13  2  0
 12 14  1  0
 14 15  1  0
 15 16  1  1
 15 22  1  0
 17 21  1  0
 17 16  1  0
 18 17  2  0
 19 18  1  0
 19 20  1  0
 20 21  2  0
 22 24  1  0
 23 22  2  0
M  END
$$$$
