PSH.pdb
     RDKit          3D

 24 25  0  0  1  0  0  0  0  0999 V2000
   23.1240  -12.4779  -19.1898 N   0  0  0  0  0  0  0  0  0  0  0  0
   22.9155  -13.7915  -19.7689 C   0  0  0  0  0  0  0  0  0  0  0  0
   21.4743  -14.1502  -19.5043 C   0  0  0  0  0  0  0  0  0  0  0  0
   21.1978  -13.3411  -18.2545 C   0  0  0  0  0  0  0  0  0  0  0  0
   21.9291  -12.0500  -18.5566 C   0  0  1  0  0  0  0  0  0  0  0  0
   22.0810  -11.2036  -17.3675 C   0  0  0  0  0  0  0  0  0  0  0  0
   21.0352  -10.8240  -16.7591 O   0  0  0  0  0  0  0  0  0  0  0  0
   25.6506   -9.6927  -16.3041 O   0  0  0  0  0  0  0  0  0  0  0  0
   24.8647  -10.0002  -15.1676 C   0  0  0  0  0  0  0  0  0  0  0  0
   23.4270   -9.9261  -15.6264 C   0  0  2  0  0  0  0  0  0  0  0  0
   23.2965  -10.7497  -16.8061 N   0  0  0  0  0  0  0  0  0  0  0  0
   23.1325   -8.4983  -15.9065 C   0  0  0  0  0  0  0  0  0  0  0  0
   23.5662   -8.0623  -17.0224 O   0  0  0  0  0  0  0  0  0  0  0  0
   22.4380   -7.6182  -15.0688 N   0  0  0  0  0  0  0  0  0  0  0  0
   22.2638   -6.2180  -15.3932 C   0  0  1  0  0  0  0  0  0  0  0  0
   20.8898   -5.8981  -15.8755 C   0  0  0  0  0  0  0  0  0  0  0  0
   20.5557   -6.4981  -17.1818 C   0  0  0  0  0  0  0  0  0  0  0  0
   20.9881   -5.9544  -18.3706 C   0  0  0  0  0  0  0  0  0  0  0  0
   20.5346   -6.6925  -19.3912 N   0  0  0  0  0  0  0  0  0  0  0  0
   19.8236   -7.6911  -18.8456 C   0  0  0  0  0  0  0  0  0  0  0  0
   19.8403   -7.5672  -17.5029 N   0  0  0  0  0  0  0  0  0  0  0  0
   22.5105   -5.3530  -14.1927 C   0  0  0  0  0  0  0  0  0  0  0  0
   22.6948   -5.8255  -13.0410 O   0  0  0  0  0  0  0  0  0  0  0  0
   22.5356   -3.9779  -14.3631 O   0  0  0  0  0  0  0  0  0  0  0  0
  1  5  1  0
  1  2  1  0
  2  3  1  0
  4  3  1  0
  5  6  1  1
  5  4  1  0
  6 11  1  0
  6  7  2  0
  9  8  1  0
 10  9  1  6
 10 12  1  0
 11 10  1  0
 12 13  2  0
 12 14  1  0
 14 15  1  0
 15 16  1  1
 15 22  1  0
 17 21  1  0
 17 16  1  0
 18 17  2  0
 19 18  1  0
 19 20  1  0
 20 21  2  0
 22 24  1  0
 23 22  2  0
M  END
$$$$
