PSH.pdb
     RDKit          3D

 24 25  0  0  1  0  0  0  0  0999 V2000
   18.5085  -11.8518  -17.7504 N   0  0  0  0  0  0  0  0  0  0  0  0
   18.2527  -13.1729  -18.2923 C   0  0  0  0  0  0  0  0  0  0  0  0
   18.8038  -14.1581  -17.2916 C   0  0  0  0  0  0  0  0  0  0  0  0
   19.8866  -13.3292  -16.6330 C   0  0  0  0  0  0  0  0  0  0  0  0
   19.2153  -11.9760  -16.5269 C   0  0  1  0  0  0  0  0  0  0  0  0
   20.1660  -10.9056  -16.2043 C   0  0  0  0  0  0  0  0  0  0  0  0
   20.8122  -10.9800  -15.1159 O   0  0  0  0  0  0  0  0  0  0  0  0
   20.2820   -7.4612  -18.2822 O   0  0  0  0  0  0  0  0  0  0  0  0
   21.5804   -7.8595  -17.8829 C   0  0  0  0  0  0  0  0  0  0  0  0
   21.3899   -8.7210  -16.6562 C   0  0  2  0  0  0  0  0  0  0  0  0
   20.4520   -9.7671  -16.9921 N   0  0  0  0  0  0  0  0  0  0  0  0
   20.8787   -7.8371  -15.5785 C   0  0  0  0  0  0  0  0  0  0  0  0
   19.6164   -7.6647  -15.5696 O   0  0  0  0  0  0  0  0  0  0  0  0
   21.6483   -7.1963  -14.6009 N   0  0  0  0  0  0  0  0  0  0  0  0
   21.0578   -6.3545  -13.5817 C   0  0  1  0  0  0  0  0  0  0  0  0
   21.1742   -6.9298  -12.2112 C   0  0  0  0  0  0  0  0  0  0  0  0
   20.6182   -6.0700  -11.1484 C   0  0  0  0  0  0  0  0  0  0  0  0
   19.5127   -5.2749  -11.3518 C   0  0  0  0  0  0  0  0  0  0  0  0
   19.2345   -4.6001  -10.2295 N   0  0  0  0  0  0  0  0  0  0  0  0
   20.1589   -4.9699   -9.3301 C   0  0  0  0  0  0  0  0  0  0  0  0
   20.9966   -5.8632   -9.8947 N   0  0  0  0  0  0  0  0  0  0  0  0
   21.7235   -5.0107  -13.5420 C   0  0  0  0  0  0  0  0  0  0  0  0
   22.9625   -4.8611  -13.7035 O   0  0  0  0  0  0  0  0  0  0  0  0
   20.9383   -3.8909  -13.3179 O   0  0  0  0  0  0  0  0  0  0  0  0
  1  5  1  0
  1  2  1  0
  2  3  1  0
  4  3  1  0
  5  6  1  6
  5  4  1  0
  6 11  1  0
  6  7  2  0
  9  8  1  0
 10  9  1  6
 10 12  1  0
 11 10  1  0
 12 13  2  0
 12 14  1  0
 14 15  1  0
 15 16  1  1
 15 22  1  0
 17 21  1  0
 17 16  1  0
 18 17  2  0
 19 18  1  0
 19 20  1  0
 20 21  2  0
 22 24  1  0
 23 22  2  0
M  END
$$$$
