PSH.pdb
     RDKit          3D

 24 25  0  0  1  0  0  0  0  0999 V2000
   27.7451  -21.0940  -15.0200 N   0  0  0  0  0  0  0  0  0  0  0  0
   28.7474  -21.7143  -15.8655 C   0  0  0  0  0  0  0  0  0  0  0  0
   28.6405  -21.0460  -17.2138 C   0  0  0  0  0  0  0  0  0  0  0  0
   27.1904  -20.6096  -17.2081 C   0  0  0  0  0  0  0  0  0  0  0  0
   27.0161  -20.1424  -15.7783 C   0  0  1  0  0  0  0  0  0  0  0  0
   25.6051  -19.9569  -15.4203 C   0  0  0  0  0  0  0  0  0  0  0  0
   24.9130  -19.1384  -16.0977 O   0  0  0  0  0  0  0  0  0  0  0  0
   23.7656  -21.6157  -12.1644 O   0  0  0  0  0  0  0  0  0  0  0  0
   23.3490  -22.1379  -13.4124 C   0  0  0  0  0  0  0  0  0  0  0  0
   23.5238  -21.0160  -14.4095 C   0  0  2  0  0  0  0  0  0  0  0  0
   24.9087  -20.6061  -14.3752 N   0  0  0  0  0  0  0  0  0  0  0  0
   22.6071  -19.9226  -13.9997 C   0  0  0  0  0  0  0  0  0  0  0  0
   23.0312  -19.1839  -13.0521 O   0  0  0  0  0  0  0  0  0  0  0  0
   21.3518  -19.6460  -14.5530 N   0  0  0  0  0  0  0  0  0  0  0  0
   20.5131  -18.5705  -14.0671 C   0  0  1  0  0  0  0  0  0  0  0  0
   20.2962  -17.4977  -15.0795 C   0  0  0  0  0  0  0  0  0  0  0  0
   19.4441  -16.3889  -14.6081 C   0  0  0  0  0  0  0  0  0  0  0  0
   18.9233  -16.3548  -13.3339 C   0  0  0  0  0  0  0  0  0  0  0  0
   18.1867  -15.2475  -13.1812 N   0  0  0  0  0  0  0  0  0  0  0  0
   18.2458  -14.5929  -14.3510 C   0  0  0  0  0  0  0  0  0  0  0  0
   19.0114  -15.2917  -15.2136 N   0  0  0  0  0  0  0  0  0  0  0  0
   19.1555  -19.0793  -13.6818 C   0  0  0  0  0  0  0  0  0  0  0  0
   18.5088  -18.6182  -12.7057 O   0  0  0  0  0  0  0  0  0  0  0  0
   18.5942  -20.0990  -14.4341 O   0  0  0  0  0  0  0  0  0  0  0  0
  1  5  1  0
  1  2  1  0
  2  3  1  0
  4  3  1  0
  5  6  1  1
  5  4  1  0
  6 11  1  0
  6  7  2  0
  9  8  1  0
 10  9  1  1
 10 12  1  0
 11 10  1  0
 12 13  2  0
 12 14  1  0
 14 15  1  0
 15 16  1  6
 15 22  1  0
 17 21  1  0
 17 16  1  0
 18 17  2  0
 19 18  1  0
 19 20  1  0
 20 21  2  0
 22 24  1  0
 23 22  2  0
M  END
$$$$
