PSH.pdb
     RDKit          3D

 24 25  0  0  1  0  0  0  0  0999 V2000
   27.7858  -19.4161  -15.6630 N   0  0  0  0  0  0  0  0  0  0  0  0
   29.1484  -19.0200  -15.9643 C   0  0  0  0  0  0  0  0  0  0  0  0
   29.9094  -20.2916  -16.2468 C   0  0  0  0  0  0  0  0  0  0  0  0
   29.1101  -21.2941  -15.4410 C   0  0  0  0  0  0  0  0  0  0  0  0
   27.6911  -20.8310  -15.6954 C   0  0  1  0  0  0  0  0  0  0  0  0
   26.7295  -21.4476  -14.7743 C   0  0  0  0  0  0  0  0  0  0  0  0
   26.3194  -22.6208  -15.0260 O   0  0  0  0  0  0  0  0  0  0  0  0
   23.9238  -20.5455  -11.0066 O   0  0  0  0  0  0  0  0  0  0  0  0
   25.2615  -20.7817  -11.4050 C   0  0  0  0  0  0  0  0  0  0  0  0
   25.1785  -21.4512  -12.7570 C   0  0  2  0  0  0  0  0  0  0  0  0
   26.1923  -20.8656  -13.6032 N   0  0  0  0  0  0  0  0  0  0  0  0
   23.8091  -21.2118  -13.2780 C   0  0  0  0  0  0  0  0  0  0  0  0
   23.5538  -20.0065  -13.6026 O   0  0  0  0  0  0  0  0  0  0  0  0
   22.8054  -22.1741  -13.4365 N   0  0  0  0  0  0  0  0  0  0  0  0
   21.4901  -21.8427  -13.9426 C   0  0  1  0  0  0  0  0  0  0  0  0
   20.7312  -23.0348  -14.4179 C   0  0  0  0  0  0  0  0  0  0  0  0
   19.4255  -22.7137  -15.0260 C   0  0  0  0  0  0  0  0  0  0  0  0
   19.2794  -21.7188  -15.9666 C   0  0  0  0  0  0  0  0  0  0  0  0
   17.9957  -21.6392  -16.3378 N   0  0  0  0  0  0  0  0  0  0  0  0
   17.3427  -22.5773  -15.6349 C   0  0  0  0  0  0  0  0  0  0  0  0
   18.2171  -23.2266  -14.8398 N   0  0  0  0  0  0  0  0  0  0  0  0
   20.6524  -21.1951  -12.8800 C   0  0  0  0  0  0  0  0  0  0  0  0
   20.9112  -21.2995  -11.6530 O   0  0  0  0  0  0  0  0  0  0  0  0
   19.5491  -20.4524  -13.2698 O   0  0  0  0  0  0  0  0  0  0  0  0
  1  5  1  0
  1  2  1  0
  2  3  1  0
  4  3  1  0
  5  6  1  1
  5  4  1  0
  6 11  1  0
  6  7  2  0
  9  8  1  0
 10  9  1  1
 10 12  1  0
 11 10  1  0
 12 13  2  0
 12 14  1  0
 14 15  1  0
 15 16  1  1
 15 22  1  0
 17 21  1  0
 17 16  1  0
 18 17  2  0
 19 18  1  0
 19 20  1  0
 20 21  2  0
 22 24  1  0
 23 22  2  0
M  END
$$$$
