PSH.pdb
     RDKit          3D

 24 25  0  0  1  0  0  0  0  0999 V2000
   30.8333  -24.2031  -17.7832 N   0  0  0  0  0  0  0  0  0  0  0  0
   32.0934  -24.8766  -17.5321 C   0  0  0  0  0  0  0  0  0  0  0  0
   32.0404  -25.3617  -16.1046 C   0  0  0  0  0  0  0  0  0  0  0  0
   31.0803  -24.3629  -15.4933 C   0  0  0  0  0  0  0  0  0  0  0  0
   30.0554  -24.2071  -16.5971 C   0  0  1  0  0  0  0  0  0  0  0  0
   29.1761  -23.0519  -16.3827 C   0  0  0  0  0  0  0  0  0  0  0  0
   28.4960  -23.0011  -15.3138 O   0  0  0  0  0  0  0  0  0  0  0  0
   29.0223  -20.0873  -19.0619 O   0  0  0  0  0  0  0  0  0  0  0  0
   28.8109  -19.6245  -17.7409 C   0  0  0  0  0  0  0  0  0  0  0  0
   28.1969  -20.7831  -16.9899 C   0  0  2  0  0  0  0  0  0  0  0  0
   28.9956  -21.9566  -17.2582 N   0  0  0  0  0  0  0  0  0  0  0  0
   26.8039  -20.9310  -17.4811 C   0  0  0  0  0  0  0  0  0  0  0  0
   26.6745  -21.6044  -18.5550 O   0  0  0  0  0  0  0  0  0  0  0  0
   25.6551  -20.4060  -16.8784 N   0  0  0  0  0  0  0  0  0  0  0  0
   24.3280  -20.6450  -17.4054 C   0  0  1  0  0  0  0  0  0  0  0  0
   23.5125  -21.5477  -16.5434 C   0  0  0  0  0  0  0  0  0  0  0  0
   23.2269  -21.0026  -15.2020 C   0  0  0  0  0  0  0  0  0  0  0  0
   24.0315  -21.2671  -14.1165 C   0  0  0  0  0  0  0  0  0  0  0  0
   23.5357  -20.6569  -13.0329 N   0  0  0  0  0  0  0  0  0  0  0  0
   22.4289  -20.0150  -13.4370 C   0  0  0  0  0  0  0  0  0  0  0  0
   22.2469  -20.2291  -14.7560 N   0  0  0  0  0  0  0  0  0  0  0  0
   23.5606  -19.3622  -17.5320 C   0  0  0  0  0  0  0  0  0  0  0  0
   23.9600  -18.2791  -17.0310 O   0  0  0  0  0  0  0  0  0  0  0  0
   22.3632  -19.3748  -18.2297 O   0  0  0  0  0  0  0  0  0  0  0  0
  1  5  1  0
  1  2  1  0
  2  3  1  0
  4  3  1  0
  5  6  1  1
  5  4  1  0
  6 11  1  0
  6  7  2  0
  9  8  1  0
 10  9  1  6
 10 12  1  0
 11 10  1  0
 12 13  2  0
 12 14  1  0
 14 15  1  0
 15 16  1  1
 15 22  1  0
 17 21  1  0
 17 16  1  0
 18 17  2  0
 19 18  1  0
 19 20  1  0
 20 21  2  0
 22 24  1  0
 23 22  2  0
M  END
$$$$
