PSH.pdb
     RDKit          3D

 24 25  0  0  1  0  0  0  0  0999 V2000
   17.9790  -14.4937  -16.3687 N   0  0  0  0  0  0  0  0  0  0  0  0
   17.9396  -15.9016  -16.7158 C   0  0  0  0  0  0  0  0  0  0  0  0
   19.3712  -16.3770  -16.7319 C   0  0  0  0  0  0  0  0  0  0  0  0
   20.1016  -15.0900  -17.0538 C   0  0  0  0  0  0  0  0  0  0  0  0
   19.3295  -14.0838  -16.2265 C   0  0  1  0  0  0  0  0  0  0  0  0
   19.6399  -12.6991  -16.6003 C   0  0  0  0  0  0  0  0  0  0  0  0
   20.6324  -12.4870  -17.3603 O   0  0  0  0  0  0  0  0  0  0  0  0
   17.7113   -9.5882  -14.9578 O   0  0  0  0  0  0  0  0  0  0  0  0
   17.9763   -9.3573  -16.3290 C   0  0  0  0  0  0  0  0  0  0  0  0
   19.1882  -10.1957  -16.6631 C   0  0  2  0  0  0  0  0  0  0  0  0
   18.9375  -11.5401  -16.1977 N   0  0  0  0  0  0  0  0  0  0  0  0
   20.3495   -9.5746  -15.9779 C   0  0  0  0  0  0  0  0  0  0  0  0
   20.3712   -9.7124  -14.7115 O   0  0  0  0  0  0  0  0  0  0  0  0
   21.3914   -8.8704  -16.5920 N   0  0  0  0  0  0  0  0  0  0  0  0
   22.4976   -8.3158  -15.8404 C   0  0  1  0  0  0  0  0  0  0  0  0
   23.7741   -8.2970  -16.6105 C   0  0  0  0  0  0  0  0  0  0  0  0
   24.7203   -9.3648  -16.2330 C   0  0  0  0  0  0  0  0  0  0  0  0
   24.3495  -10.6899  -16.1850 C   0  0  0  0  0  0  0  0  0  0  0  0
   25.3964  -11.4340  -15.8075 N   0  0  0  0  0  0  0  0  0  0  0  0
   26.4153  -10.5811  -15.6206 C   0  0  0  0  0  0  0  0  0  0  0  0
   25.9979   -9.3255  -15.8809 N   0  0  0  0  0  0  0  0  0  0  0  0
   22.2172   -6.8982  -15.4378 C   0  0  0  0  0  0  0  0  0  0  0  0
   22.8955   -6.2918  -14.5684 O   0  0  0  0  0  0  0  0  0  0  0  0
   21.1672   -6.2327  -16.0506 O   0  0  0  0  0  0  0  0  0  0  0  0
  1  5  1  0
  1  2  1  0
  2  3  1  0
  4  3  1  0
  5  6  1  6
  5  4  1  0
  6 11  1  0
  6  7  2  0
  9  8  1  0
 10  9  1  1
 10 12  1  0
 11 10  1  0
 12 13  2  0
 12 14  1  0
 14 15  1  0
 15 16  1  6
 15 22  1  0
 17 21  1  0
 17 16  1  0
 18 17  2  0
 19 18  1  0
 19 20  1  0
 20 21  2  0
 22 24  1  0
 23 22  2  0
M  END
$$$$
