SYW.pdb
     RDKit          3D

 33 35  0  0  1  0  0  0  0  0999 V2000
   31.7297  -23.9577  -19.5517 O   0  0  0  0  0  0  0  0  0  0  0  0
   32.2918  -24.8989  -20.3984 C   0  0  0  0  0  0  0  0  0  0  0  0
   32.3341  -26.2284  -19.6814 C   0  0  2  0  0  0  0  0  0  0  0  0
   32.8935  -27.1730  -20.6633 N   0  0  0  0  0  0  0  0  0  0  0  0
   30.9555  -26.6577  -19.3959 C   0  0  0  0  0  0  0  0  0  0  0  0
   30.2119  -26.9645  -20.3603 O   0  0  0  0  0  0  0  0  0  0  0  0
   23.3154  -29.0778  -15.6636 O   0  0  0  0  0  0  0  0  0  0  0  0
   24.6641  -28.7560  -15.9027 C   0  0  0  0  0  0  0  0  0  0  0  0
   25.2465  -27.6334  -15.3635 C   0  0  0  0  0  0  0  0  0  0  0  0
   26.5674  -27.3340  -15.6084 C   0  0  0  0  0  0  0  0  0  0  0  0
   27.3586  -28.1469  -16.4033 C   0  0  0  0  0  0  0  0  0  0  0  0
   28.7519  -27.7402  -16.6030 C   0  0  0  0  0  0  0  0  0  0  0  0
   29.0238  -27.0665  -17.9294 C   0  0  2  0  0  0  0  0  0  0  0  0
   30.3913  -26.7564  -18.1011 N   0  0  0  0  0  0  0  0  0  0  0  0
   28.1688  -25.9173  -18.1986 C   0  0  0  0  0  0  0  0  0  0  0  0
   28.3857  -24.7490  -17.7599 O   0  0  0  0  0  0  0  0  0  0  0  0
   26.7945  -29.2734  -16.9510 C   0  0  0  0  0  0  0  0  0  0  0  0
   25.4771  -29.5473  -16.6907 C   0  0  0  0  0  0  0  0  0  0  0  0
   27.0035  -26.0530  -18.9984 N   0  0  0  0  0  0  0  0  0  0  0  0
   26.0381  -24.9609  -19.1514 C   0  0  1  0  0  0  0  0  0  0  0  0
   26.0446  -24.6407  -20.6184 C   0  0  0  0  0  0  0  0  0  0  0  0
   25.1817  -23.5364  -21.0534 C   0  0  0  0  0  0  0  0  0  0  0  0
   25.3517  -22.1799  -20.7612 C   0  0  0  0  0  0  0  0  0  0  0  0
   24.3714  -21.4470  -21.2868 N   0  0  0  0  0  0  0  0  0  0  0  0
   23.5348  -22.2734  -21.9331 C   0  0  0  0  0  0  0  0  0  0  0  0
   22.3858  -22.0351  -22.6509 C   0  0  0  0  0  0  0  0  0  0  0  0
   21.6876  -23.0559  -23.2542 C   0  0  0  0  0  0  0  0  0  0  0  0
   22.1570  -24.3474  -23.1321 C   0  0  0  0  0  0  0  0  0  0  0  0
   23.3003  -24.5620  -22.4138 C   0  0  0  0  0  0  0  0  0  0  0  0
   24.0176  -23.5596  -21.7999 C   0  0  0  0  0  0  0  0  0  0  0  0
   24.7410  -25.2666  -18.5990 C   0  0  0  0  0  0  0  0  0  0  0  0
   24.0018  -24.3056  -17.9293 O   0  0  0  0  0  0  0  0  0  0  0  0
   24.2138  -26.4118  -18.6880 O   0  0  0  0  0  0  0  0  0  0  0  0
  2  1  1  0
  3  4  1  6
  3  2  1  0
  5  3  1  0
  6  5  2  0
  8  7  1  0
  8 18  2  0
  9  8  1  0
 10  9  2  0
 10 11  1  0
 11 17  2  0
 12 11  1  0
 13 12  1  1
 13 14  1  0
 14  5  1  0
 15 19  1  0
 15 13  1  0
 16 15  2  0
 17 18  1  0
 20 21  1  6
 20 31  1  0
 20 19  1  0
 22 23  2  0
 22 21  1  0
 24 23  1  0
 25 30  2  0
 25 24  1  0
 26 25  1  0
 27 28  1  0
 27 26  2  0
 28 29  2  0
 29 30  1  0
 30 22  1  0
 31 32  1  0
 33 31  2  0
M  END
$$$$
