SYW.pdb
     RDKit          3D

 33 35  0  0  1  0  0  0  0  0999 V2000
   30.0351  -37.3362   -2.8381 O   0  0  0  0  0  0  0  0  0  0  0  0
   30.5085  -36.3357   -3.6708 C   0  0  0  0  0  0  0  0  0  0  0  0
   29.4980  -36.1050   -4.7704 C   0  0  2  0  0  0  0  0  0  0  0  0
   30.2778  -35.5654   -5.8973 N   0  0  0  0  0  0  0  0  0  0  0  0
   28.5617  -35.0535   -4.3415 C   0  0  0  0  0  0  0  0  0  0  0  0
   28.9509  -33.8596   -4.3635 O   0  0  0  0  0  0  0  0  0  0  0  0
   26.0367  -32.1711   -9.7232 O   0  0  0  0  0  0  0  0  0  0  0  0
   25.8190  -32.6822   -8.4305 C   0  0  0  0  0  0  0  0  0  0  0  0
   25.4234  -31.8747   -7.3905 C   0  0  0  0  0  0  0  0  0  0  0  0
   25.2154  -32.3920   -6.1321 C   0  0  0  0  0  0  0  0  0  0  0  0
   25.3950  -33.7391   -5.8644 C   0  0  0  0  0  0  0  0  0  0  0  0
   25.1484  -34.1900   -4.4924 C   0  0  0  0  0  0  0  0  0  0  0  0
   26.3743  -34.2019   -3.6069 C   0  0  2  0  0  0  0  0  0  0  0  0
   27.2358  -35.2822   -3.9009 N   0  0  0  0  0  0  0  0  0  0  0  0
   26.0794  -34.1151   -2.1823 C   0  0  0  0  0  0  0  0  0  0  0  0
   25.8204  -35.1126   -1.4458 O   0  0  0  0  0  0  0  0  0  0  0  0
   25.7901  -34.5621   -6.8910 C   0  0  0  0  0  0  0  0  0  0  0  0
   25.9901  -34.0204   -8.1339 C   0  0  0  0  0  0  0  0  0  0  0  0
   26.0673  -32.8591   -1.5201 N   0  0  0  0  0  0  0  0  0  0  0  0
   25.6182  -32.7200   -0.1319 C   0  0  1  0  0  0  0  0  0  0  0  0
   26.5064  -31.6632    0.4586 C   0  0  0  0  0  0  0  0  0  0  0  0
   26.2402  -31.2846    1.8511 C   0  0  0  0  0  0  0  0  0  0  0  0
   25.1303  -30.5798    2.3264 C   0  0  0  0  0  0  0  0  0  0  0  0
   25.2147  -30.3766    3.6402 N   0  0  0  0  0  0  0  0  0  0  0  0
   26.3586  -30.9282    4.0739 C   0  0  0  0  0  0  0  0  0  0  0  0
   26.9149  -31.0145    5.3290 C   0  0  0  0  0  0  0  0  0  0  0  0
   28.1131  -31.6561    5.5441 C   0  0  0  0  0  0  0  0  0  0  0  0
   28.7669  -32.2244    4.4703 C   0  0  0  0  0  0  0  0  0  0  0  0
   28.1967  -32.1263    3.2316 C   0  0  0  0  0  0  0  0  0  0  0  0
   27.0000  -31.4900    2.9884 C   0  0  0  0  0  0  0  0  0  0  0  0
   24.2033  -32.4639   -0.0148 C   0  0  0  0  0  0  0  0  0  0  0  0
   23.5676  -31.5554   -0.8449 O   0  0  0  0  0  0  0  0  0  0  0  0
   23.4737  -33.0404    0.8411 O   0  0  0  0  0  0  0  0  0  0  0  0
  2  1  1  0
  3  4  1  6
  3  2  1  0
  5  3  1  0
  6  5  2  0
  8  7  1  0
  8 18  2  0
  9  8  1  0
 10  9  2  0
 10 11  1  0
 11 17  2  0
 12 11  1  0
 13 12  1  6
 13 14  1  0
 14  5  1  0
 15 19  1  0
 15 13  1  0
 16 15  2  0
 17 18  1  0
 20 21  1  6
 20 31  1  0
 20 19  1  0
 22 23  2  0
 22 21  1  0
 24 23  1  0
 25 30  2  0
 25 24  1  0
 26 25  1  0
 27 28  1  0
 27 26  2  0
 28 29  2  0
 29 30  1  0
 30 22  1  0
 31 32  1  0
 33 31  2  0
M  END
$$$$
