SYW.pdb
     RDKit          3D

 33 35  0  0  1  0  0  0  0  0999 V2000
   28.4727  -25.6697  -15.7903 O   0  0  0  0  0  0  0  0  0  0  0  0
   29.7053  -25.3335  -16.3254 C   0  0  0  0  0  0  0  0  0  0  0  0
   29.5214  -24.1613  -17.2612 C   0  0  2  0  0  0  0  0  0  0  0  0
   30.8597  -23.9073  -17.8211 N   0  0  0  0  0  0  0  0  0  0  0  0
   29.1447  -22.9780  -16.4712 C   0  0  0  0  0  0  0  0  0  0  0  0
   30.0572  -22.2906  -15.9497 O   0  0  0  0  0  0  0  0  0  0  0  0
   25.6971  -15.2663  -14.2525 O   0  0  0  0  0  0  0  0  0  0  0  0
   26.0237  -16.5081  -14.8276 C   0  0  0  0  0  0  0  0  0  0  0  0
   25.0617  -17.4468  -15.1167 C   0  0  0  0  0  0  0  0  0  0  0  0
   25.3996  -18.6568  -15.6791 C   0  0  0  0  0  0  0  0  0  0  0  0
   26.7148  -18.9757  -15.9747 C   0  0  0  0  0  0  0  0  0  0  0  0
   26.9698  -20.2894  -16.5711 C   0  0  0  0  0  0  0  0  0  0  0  0
   27.5540  -21.3075  -15.6176 C   0  0  2  0  0  0  0  0  0  0  0  0
   27.8155  -22.5436  -16.2495 N   0  0  0  0  0  0  0  0  0  0  0  0
   26.7897  -21.4775  -14.3882 C   0  0  0  0  0  0  0  0  0  0  0  0
   25.7258  -22.1591  -14.2986 O   0  0  0  0  0  0  0  0  0  0  0  0
   27.6904  -18.0503  -15.6930 C   0  0  0  0  0  0  0  0  0  0  0  0
   27.3258  -16.8537  -15.1332 C   0  0  0  0  0  0  0  0  0  0  0  0
   27.2151  -20.8647  -13.1801 N   0  0  0  0  0  0  0  0  0  0  0  0
   26.4024  -20.9095  -11.9612 C   0  0  1  0  0  0  0  0  0  0  0  0
   27.3822  -20.7422  -10.8359 C   0  0  0  0  0  0  0  0  0  0  0  0
   26.8165  -20.5551   -9.4949 C   0  0  0  0  0  0  0  0  0  0  0  0
   25.4603  -20.5431   -9.1558 C   0  0  0  0  0  0  0  0  0  0  0  0
   25.2908  -20.3193   -7.8537 N   0  0  0  0  0  0  0  0  0  0  0  0
   26.5026  -20.1788   -7.2945 C   0  0  0  0  0  0  0  0  0  0  0  0
   26.8899  -19.9508   -5.9944 C   0  0  0  0  0  0  0  0  0  0  0  0
   28.2171  -19.8589   -5.6429 C   0  0  0  0  0  0  0  0  0  0  0  0
   29.1775  -19.9998   -6.6235 C   0  0  0  0  0  0  0  0  0  0  0  0
   28.7706  -20.2252   -7.9091 C   0  0  0  0  0  0  0  0  0  0  0  0
   27.4502  -20.3208   -8.2881 C   0  0  0  0  0  0  0  0  0  0  0  0
   25.3134  -19.9633  -11.9685 C   0  0  0  0  0  0  0  0  0  0  0  0
   24.0676  -20.2994  -11.4651 O   0  0  0  0  0  0  0  0  0  0  0  0
   25.4291  -18.7930  -12.4314 O   0  0  0  0  0  0  0  0  0  0  0  0
  2  1  1  0
  3  4  1  1
  3  2  1  0
  5  3  1  0
  6  5  2  0
  8  7  1  0
  8 18  2  0
  9  8  1  0
 10  9  2  0
 10 11  1  0
 11 17  2  0
 12 11  1  0
 13 12  1  6
 13 14  1  0
 14  5  1  0
 15 19  1  0
 15 13  1  0
 16 15  2  0
 17 18  1  0
 20 21  1  1
 20 31  1  0
 20 19  1  0
 22 23  2  0
 22 21  1  0
 24 23  1  0
 25 30  2  0
 25 24  1  0
 26 25  1  0
 27 28  1  0
 27 26  2  0
 28 29  2  0
 29 30  1  0
 30 22  1  0
 31 32  1  0
 33 31  2  0
M  END
$$$$
