SYW.pdb
     RDKit          3D

 33 35  0  0  1  0  0  0  0  0999 V2000
   28.9486  -18.8066  -15.8128 O   0  0  0  0  0  0  0  0  0  0  0  0
   29.2034  -18.7537  -17.1733 C   0  0  0  0  0  0  0  0  0  0  0  0
   28.0999  -17.9656  -17.8403 C   0  0  2  0  0  0  0  0  0  0  0  0
   28.6238  -16.5934  -17.9485 N   0  0  0  0  0  0  0  0  0  0  0  0
   26.9370  -17.9213  -16.9393 C   0  0  0  0  0  0  0  0  0  0  0  0
   26.7371  -16.8777  -16.2700 O   0  0  0  0  0  0  0  0  0  0  0  0
   21.9258  -14.9035  -19.9502 O   0  0  0  0  0  0  0  0  0  0  0  0
   22.3366  -15.9315  -19.0818 C   0  0  0  0  0  0  0  0  0  0  0  0
   22.9617  -17.0644  -19.5465 C   0  0  0  0  0  0  0  0  0  0  0  0
   23.3566  -18.0602  -18.6823 C   0  0  0  0  0  0  0  0  0  0  0  0
   23.1413  -17.9617  -17.3174 C   0  0  0  0  0  0  0  0  0  0  0  0
   23.5985  -19.0759  -16.4831 C   0  0  0  0  0  0  0  0  0  0  0  0
   24.9493  -18.8619  -15.8376 C   0  0  2  0  0  0  0  0  0  0  0  0
   26.0091  -18.9764  -16.7646 N   0  0  0  0  0  0  0  0  0  0  0  0
   25.1763  -19.6764  -14.6505 C   0  0  0  0  0  0  0  0  0  0  0  0
   26.1771  -20.4356  -14.4875 O   0  0  0  0  0  0  0  0  0  0  0  0
   22.5180  -16.8369  -16.8340 C   0  0  0  0  0  0  0  0  0  0  0  0
   22.1355  -15.8611  -17.7169 C   0  0  0  0  0  0  0  0  0  0  0  0
   24.2519  -19.6599  -13.5729 N   0  0  0  0  0  0  0  0  0  0  0  0
   24.5011  -20.3917  -12.3277 C   0  0  1  0  0  0  0  0  0  0  0  0
   25.6751  -19.6981  -11.6990 C   0  0  0  0  0  0  0  0  0  0  0  0
   26.1258  -20.2151  -10.4017 C   0  0  0  0  0  0  0  0  0  0  0  0
   26.1039  -21.5484   -9.9818 C   0  0  0  0  0  0  0  0  0  0  0  0
   26.5579  -21.6688   -8.7353 N   0  0  0  0  0  0  0  0  0  0  0  0
   26.8906  -20.4461   -8.2938 C   0  0  0  0  0  0  0  0  0  0  0  0
   27.4160  -20.0165   -7.0973 C   0  0  0  0  0  0  0  0  0  0  0  0
   27.6995  -18.6895   -6.8690 C   0  0  0  0  0  0  0  0  0  0  0  0
   27.4481  -17.7728   -7.8691 C   0  0  0  0  0  0  0  0  0  0  0  0
   26.9252  -18.2211   -9.0501 C   0  0  0  0  0  0  0  0  0  0  0  0
   26.6318  -19.5422   -9.3044 C   0  0  0  0  0  0  0  0  0  0  0  0
   23.3334  -20.4988  -11.4874 C   0  0  0  0  0  0  0  0  0  0  0  0
   23.0752  -21.6498  -10.7613 O   0  0  0  0  0  0  0  0  0  0  0  0
   22.4889  -19.5659  -11.3700 O   0  0  0  0  0  0  0  0  0  0  0  0
  2  1  1  0
  3  4  1  1
  3  2  1  0
  5  3  1  0
  6  5  2  0
  8  7  1  0
  8 18  2  0
  9  8  1  0
 10  9  2  0
 10 11  1  0
 11 17  2  0
 12 11  1  0
 13 12  1  6
 13 14  1  0
 14  5  1  0
 15 19  1  0
 15 13  1  0
 16 15  2  0
 17 18  1  0
 20 21  1  1
 20 31  1  0
 20 19  1  0
 22 23  2  0
 22 21  1  0
 24 23  1  0
 25 30  2  0
 25 24  1  0
 26 25  1  0
 27 28  1  0
 27 26  2  0
 28 29  2  0
 29 30  1  0
 30 22  1  0
 31 32  1  0
 33 31  2  0
M  END
$$$$
