SYW.pdb
     RDKit          3D

 33 35  0  0  1  0  0  0  0  0999 V2000
   29.4084  -22.6555  -15.4739 O   0  0  0  0  0  0  0  0  0  0  0  0
   28.6408  -22.9983  -16.5748 C   0  0  0  0  0  0  0  0  0  0  0  0
   27.8754  -21.7768  -17.0284 C   0  0  2  0  0  0  0  0  0  0  0  0
   28.7926  -21.0683  -17.9371 N   0  0  0  0  0  0  0  0  0  0  0  0
   27.6461  -20.9022  -15.8670 C   0  0  0  0  0  0  0  0  0  0  0  0
   27.7957  -19.6636  -16.0112 O   0  0  0  0  0  0  0  0  0  0  0  0
   19.9564  -19.5708  -12.4174 O   0  0  0  0  0  0  0  0  0  0  0  0
   21.1724  -19.9400  -13.0213 C   0  0  0  0  0  0  0  0  0  0  0  0
   21.7025  -21.1994  -12.8691 C   0  0  0  0  0  0  0  0  0  0  0  0
   22.8936  -21.5432  -13.4671 C   0  0  0  0  0  0  0  0  0  0  0  0
   23.6021  -20.6394  -14.2418 C   0  0  0  0  0  0  0  0  0  0  0  0
   24.8594  -21.1031  -14.8340 C   0  0  0  0  0  0  0  0  0  0  0  0
   26.0800  -20.8753  -13.9707 C   0  0  2  0  0  0  0  0  0  0  0  0
   27.2623  -21.3510  -14.5802 N   0  0  0  0  0  0  0  0  0  0  0  0
   25.9404  -21.3619  -12.6039 C   0  0  0  0  0  0  0  0  0  0  0  0
   25.9468  -22.5861  -12.2788 O   0  0  0  0  0  0  0  0  0  0  0  0
   23.0883  -19.3759  -14.4055 C   0  0  0  0  0  0  0  0  0  0  0  0
   21.9005  -19.0606  -13.7988 C   0  0  0  0  0  0  0  0  0  0  0  0
   25.7848  -20.4534  -11.5239 N   0  0  0  0  0  0  0  0  0  0  0  0
   25.6353  -20.9137  -10.1404 C   0  0  1  0  0  0  0  0  0  0  0  0
   26.8456  -20.3877   -9.4242 C   0  0  0  0  0  0  0  0  0  0  0  0
   26.8527  -20.5196   -7.9627 C   0  0  0  0  0  0  0  0  0  0  0  0
   26.0452  -21.3663   -7.1975 C   0  0  0  0  0  0  0  0  0  0  0  0
   26.2863  -21.2161   -5.8960 N   0  0  0  0  0  0  0  0  0  0  0  0
   27.2423  -20.2851   -5.7548 C   0  0  0  0  0  0  0  0  0  0  0  0
   27.8615  -19.7708   -4.6392 C   0  0  0  0  0  0  0  0  0  0  0  0
   28.8477  -18.8162   -4.7374 C   0  0  0  0  0  0  0  0  0  0  0  0
   29.2196  -18.3685   -5.9883 C   0  0  0  0  0  0  0  0  0  0  0  0
   28.5909  -18.8924   -7.0835 C   0  0  0  0  0  0  0  0  0  0  0  0
   27.6013  -19.8473   -7.0137 C   0  0  0  0  0  0  0  0  0  0  0  0
   24.3701  -20.5466   -9.5524 C   0  0  0  0  0  0  0  0  0  0  0  0
   23.7576  -21.3526   -8.6070 O   0  0  0  0  0  0  0  0  0  0  0  0
   23.7543  -19.4877   -9.8636 O   0  0  0  0  0  0  0  0  0  0  0  0
  2  1  1  0
  3  4  1  6
  3  2  1  0
  5  3  1  0
  6  5  2  0
  8  7  1  0
  8 18  2  0
  9  8  1  0
 10  9  2  0
 10 11  1  0
 11 17  2  0
 12 11  1  0
 13 12  1  6
 13 14  1  0
 14  5  1  0
 15 19  1  0
 15 13  1  0
 16 15  2  0
 17 18  1  0
 20 21  1  1
 20 31  1  0
 20 19  1  0
 22 23  2  0
 22 21  1  0
 24 23  1  0
 25 30  2  0
 25 24  1  0
 26 25  1  0
 27 28  1  0
 27 26  2  0
 28 29  2  0
 29 30  1  0
 30 22  1  0
 31 32  1  0
 33 31  2  0
M  END
$$$$
