SYW.pdb
     RDKit          3D

 33 35  0  0  1  0  0  0  0  0999 V2000
   24.9116  -16.3516  -14.5215 O   0  0  0  0  0  0  0  0  0  0  0  0
   26.2079  -16.5583  -14.0792 C   0  0  0  0  0  0  0  0  0  0  0  0
   26.6646  -17.9217  -14.5442 C   0  0  2  0  0  0  0  0  0  0  0  0
   26.0883  -18.0776  -15.8906 N   0  0  0  0  0  0  0  0  0  0  0  0
   26.0520  -18.9465  -13.6836 C   0  0  0  0  0  0  0  0  0  0  0  0
   24.8138  -19.1384  -13.7689 O   0  0  0  0  0  0  0  0  0  0  0  0
   27.1061  -22.5890  -18.0593 O   0  0  0  0  0  0  0  0  0  0  0  0
   26.9118  -22.4669  -16.6712 C   0  0  0  0  0  0  0  0  0  0  0  0
   25.7208  -22.8073  -16.0748 C   0  0  0  0  0  0  0  0  0  0  0  0
   25.5483  -22.6811  -14.7150 C   0  0  0  0  0  0  0  0  0  0  0  0
   26.5620  -22.2090  -13.8975 C   0  0  0  0  0  0  0  0  0  0  0  0
   26.2779  -22.1114  -12.4635 C   0  0  0  0  0  0  0  0  0  0  0  0
   26.0803  -20.6996  -11.9587 C   0  0  2  0  0  0  0  0  0  0  0  0
   26.7572  -19.7479  -12.7535 N   0  0  0  0  0  0  0  0  0  0  0  0
   26.3724  -20.5290  -10.5410 C   0  0  0  0  0  0  0  0  0  0  0  0
   27.3147  -19.8138  -10.0883 O   0  0  0  0  0  0  0  0  0  0  0  0
   27.7596  -21.8637  -14.4752 C   0  0  0  0  0  0  0  0  0  0  0  0
   27.9038  -21.9994  -15.8313 C   0  0  0  0  0  0  0  0  0  0  0  0
   25.5847  -21.1804   -9.5556 N   0  0  0  0  0  0  0  0  0  0  0  0
   25.8871  -21.0705   -8.1256 C   0  0  1  0  0  0  0  0  0  0  0  0
   25.9058  -19.5954   -7.8459 C   0  0  0  0  0  0  0  0  0  0  0  0
   27.0796  -19.0768   -7.1343 C   0  0  0  0  0  0  0  0  0  0  0  0
   28.0780  -18.2523   -7.6615 C   0  0  0  0  0  0  0  0  0  0  0  0
   29.0165  -17.9904   -6.7533 N   0  0  0  0  0  0  0  0  0  0  0  0
   28.6810  -18.6177   -5.6155 C   0  0  0  0  0  0  0  0  0  0  0  0
   29.2894  -18.6651   -4.3827 C   0  0  0  0  0  0  0  0  0  0  0  0
   28.7438  -19.3723   -3.3360 C   0  0  0  0  0  0  0  0  0  0  0  0
   27.5575  -20.0481   -3.5349 C   0  0  0  0  0  0  0  0  0  0  0  0
   26.9702  -19.9883   -4.7680 C   0  0  0  0  0  0  0  0  0  0  0  0
   27.4946  -19.2891   -5.8321 C   0  0  0  0  0  0  0  0  0  0  0  0
   24.9924  -21.8384   -7.2943 C   0  0  0  0  0  0  0  0  0  0  0  0
   25.3985  -22.3267   -6.0634 O   0  0  0  0  0  0  0  0  0  0  0  0
   23.8066  -22.1101   -7.6368 O   0  0  0  0  0  0  0  0  0  0  0  0
  2  1  1  0
  3  4  1  6
  3  2  1  0
  5  3  1  0
  6  5  2  0
  8  7  1  0
  8 18  2  0
  9  8  1  0
 10  9  2  0
 10 11  1  0
 11 17  2  0
 12 11  1  0
 13 12  1  6
 13 14  1  0
 14  5  1  0
 15 19  1  0
 15 13  1  0
 16 15  2  0
 17 18  1  0
 20 21  1  1
 20 31  1  0
 20 19  1  0
 22 23  2  0
 22 21  1  0
 24 23  1  0
 25 30  2  0
 25 24  1  0
 26 25  1  0
 27 28  1  0
 27 26  2  0
 28 29  2  0
 29 30  1  0
 30 22  1  0
 31 32  1  0
 33 31  2  0
M  END
$$$$
