SYW.pdb
     RDKit          3D

 33 35  0  0  1  0  0  0  0  0999 V2000
   10.0986  -25.5357   -5.3706 O   0  0  0  0  0  0  0  0  0  0  0  0
   11.1734  -26.2823   -4.9168 C   0  0  0  0  0  0  0  0  0  0  0  0
   12.1057  -25.3707   -4.1529 C   0  0  2  0  0  0  0  0  0  0  0  0
   12.7259  -24.5144   -5.1782 N   0  0  0  0  0  0  0  0  0  0  0  0
   13.1768  -26.1824   -3.5527 C   0  0  0  0  0  0  0  0  0  0  0  0
   12.8593  -27.2202   -2.9207 O   0  0  0  0  0  0  0  0  0  0  0  0
   20.7039  -30.1933   -1.4514 O   0  0  0  0  0  0  0  0  0  0  0  0
   19.7491  -29.3276   -2.0159 C   0  0  0  0  0  0  0  0  0  0  0  0
   18.6975  -29.8003   -2.7649 C   0  0  0  0  0  0  0  0  0  0  0  0
   17.7728  -28.9386   -3.3099 C   0  0  0  0  0  0  0  0  0  0  0  0
   17.8638  -27.5686   -3.1266 C   0  0  0  0  0  0  0  0  0  0  0  0
   16.8298  -26.7376   -3.7485 C   0  0  0  0  0  0  0  0  0  0  0  0
   15.5150  -26.7104   -3.0018 C   0  0  2  0  0  0  0  0  0  0  0  0
   14.5585  -25.8844   -3.6332 N   0  0  0  0  0  0  0  0  0  0  0  0
   15.6437  -26.4048   -1.5826 C   0  0  0  0  0  0  0  0  0  0  0  0
   15.7559  -25.2338   -1.1128 O   0  0  0  0  0  0  0  0  0  0  0  0
   18.9078  -27.0773   -2.3809 C   0  0  0  0  0  0  0  0  0  0  0  0
   19.8140  -27.9578   -1.8502 C   0  0  0  0  0  0  0  0  0  0  0  0
   15.6493  -27.4443   -0.6153 N   0  0  0  0  0  0  0  0  0  0  0  0
   15.7359  -27.1649    0.8209 C   0  0  1  0  0  0  0  0  0  0  0  0
   14.3120  -27.1375    1.2967 C   0  0  0  0  0  0  0  0  0  0  0  0
   14.1047  -26.9549    2.7379 C   0  0  0  0  0  0  0  0  0  0  0  0
   14.5324  -25.8719    3.5117 C   0  0  0  0  0  0  0  0  0  0  0  0
   14.2053  -26.0355    4.7926 N   0  0  0  0  0  0  0  0  0  0  0  0
   13.5621  -27.2072    4.9113 C   0  0  0  0  0  0  0  0  0  0  0  0
   13.0060  -27.8401    5.9987 C   0  0  0  0  0  0  0  0  0  0  0  0
   12.3677  -29.0531    5.8786 C   0  0  0  0  0  0  0  0  0  0  0  0
   12.2871  -29.6434    4.6341 C   0  0  0  0  0  0  0  0  0  0  0  0
   12.8470  -28.9976    3.5671 C   0  0  0  0  0  0  0  0  0  0  0  0
   13.4916  -27.7843    3.6594 C   0  0  0  0  0  0  0  0  0  0  0  0
   16.5983  -28.0804    1.5274 C   0  0  0  0  0  0  0  0  0  0  0  0
   17.2812  -27.6882    2.6669 O   0  0  0  0  0  0  0  0  0  0  0  0
   16.7821  -29.2730    1.1517 O   0  0  0  0  0  0  0  0  0  0  0  0
  2  1  1  0
  3  4  1  6
  3  2  1  0
  5  3  1  0
  6  5  2  0
  8  7  1  0
  8 18  2  0
  9  8  1  0
 10  9  2  0
 10 11  1  0
 11 17  2  0
 12 11  1  0
 13 12  1  6
 13 14  1  0
 14  5  1  0
 15 19  1  0
 15 13  1  0
 16 15  2  0
 17 18  1  0
 20 21  1  1
 20 31  1  0
 20 19  1  0
 22 23  2  0
 22 21  1  0
 24 23  1  0
 25 30  2  0
 25 24  1  0
 26 25  1  0
 27 28  1  0
 27 26  2  0
 28 29  2  0
 29 30  1  0
 30 22  1  0
 31 32  1  0
 33 31  2  0
M  END
$$$$
