SYW.pdb
     RDKit          3D

 33 35  0  0  1  0  0  0  0  0999 V2000
   25.8328   -9.1304  -19.9899 O   0  0  0  0  0  0  0  0  0  0  0  0
   24.5264   -8.8422  -19.6307 C   0  0  0  0  0  0  0  0  0  0  0  0
   23.8884  -10.0980  -19.0836 C   0  0  2  0  0  0  0  0  0  0  0  0
   23.4026  -10.8257  -20.2683 N   0  0  0  0  0  0  0  0  0  0  0  0
   22.7100   -9.7227  -18.2856 C   0  0  0  0  0  0  0  0  0  0  0  0
   21.5917   -9.6740  -18.8551 O   0  0  0  0  0  0  0  0  0  0  0  0
   16.3858   -9.2354  -12.3039 O   0  0  0  0  0  0  0  0  0  0  0  0
   17.5621   -9.4728  -13.0385 C   0  0  0  0  0  0  0  0  0  0  0  0
   18.8046   -9.4167  -12.4526 C   0  0  0  0  0  0  0  0  0  0  0  0
   19.9448   -9.6516  -13.1868 C   0  0  0  0  0  0  0  0  0  0  0  0
   19.8868   -9.9523  -14.5378 C   0  0  0  0  0  0  0  0  0  0  0  0
   21.1573  -10.1849  -15.2293 C   0  0  0  0  0  0  0  0  0  0  0  0
   21.5434   -9.1015  -16.2113 C   0  0  2  0  0  0  0  0  0  0  0  0
   22.7349   -9.4088  -16.9052 N   0  0  0  0  0  0  0  0  0  0  0  0
   21.5806   -7.7631  -15.6354 C   0  0  0  0  0  0  0  0  0  0  0  0
   22.4660   -7.3605  -14.8239 O   0  0  0  0  0  0  0  0  0  0  0  0
   18.6541  -10.0129  -15.1410 C   0  0  0  0  0  0  0  0  0  0  0  0
   17.5353   -9.7747  -14.3862 C   0  0  0  0  0  0  0  0  0  0  0  0
   20.5881   -6.8037  -15.9677 N   0  0  0  0  0  0  0  0  0  0  0  0
   20.5366   -5.4881  -15.3236 C   0  0  1  0  0  0  0  0  0  0  0  0
   21.4260   -4.6128  -16.1586 C   0  0  0  0  0  0  0  0  0  0  0  0
   21.5365   -3.2080  -15.7493 C   0  0  0  0  0  0  0  0  0  0  0  0
   22.1063   -2.7258  -14.5672 C   0  0  0  0  0  0  0  0  0  0  0  0
   22.0158   -1.3988  -14.4947 N   0  0  0  0  0  0  0  0  0  0  0  0
   21.3967   -0.9629  -15.6025 C   0  0  0  0  0  0  0  0  0  0  0  0
   21.0682    0.3028  -16.0296 C   0  0  0  0  0  0  0  0  0  0  0  0
   20.4381    0.5166  -17.2341 C   0  0  0  0  0  0  0  0  0  0  0  0
   20.1313   -0.5695  -18.0277 C   0  0  0  0  0  0  0  0  0  0  0  0
   20.4660   -1.8186  -17.5838 C   0  0  0  0  0  0  0  0  0  0  0  0
   21.0958   -2.0606  -16.3834 C   0  0  0  0  0  0  0  0  0  0  0  0
   19.1927   -4.9962  -15.1415 C   0  0  0  0  0  0  0  0  0  0  0  0
   18.8769   -4.1413  -14.0985 O   0  0  0  0  0  0  0  0  0  0  0  0
   18.2393   -5.3150  -15.9075 O   0  0  0  0  0  0  0  0  0  0  0  0
  2  1  1  0
  3  4  1  6
  3  2  1  0
  5  3  1  0
  6  5  2  0
  8  7  1  0
  8 18  2  0
  9  8  1  0
 10  9  2  0
 10 11  1  0
 11 17  2  0
 12 11  1  0
 13 12  1  1
 13 14  1  0
 14  5  1  0
 15 19  1  0
 15 13  1  0
 16 15  2  0
 17 18  1  0
 20 21  1  6
 20 31  1  0
 20 19  1  0
 22 23  2  0
 22 21  1  0
 24 23  1  0
 25 30  2  0
 25 24  1  0
 26 25  1  0
 27 28  1  0
 27 26  2  0
 28 29  2  0
 29 30  1  0
 30 22  1  0
 31 32  1  0
 33 31  2  0
M  END
$$$$
