SYW.pdb
     RDKit          3D

 33 35  0  0  1  0  0  0  0  0999 V2000
   28.3489  -18.4965  -19.0442 O   0  0  0  0  0  0  0  0  0  0  0  0
   27.8441  -18.0082  -17.8503 C   0  0  0  0  0  0  0  0  0  0  0  0
   26.3588  -17.7813  -18.0116 C   0  0  2  0  0  0  0  0  0  0  0  0
   26.2085  -16.3220  -18.1426 N   0  0  0  0  0  0  0  0  0  0  0  0
   25.6797  -18.1823  -16.7689 C   0  0  0  0  0  0  0  0  0  0  0  0
   25.7595  -17.4239  -15.7711 O   0  0  0  0  0  0  0  0  0  0  0  0
   20.2318  -21.4597  -10.7042 O   0  0  0  0  0  0  0  0  0  0  0  0
   20.9099  -21.1835  -11.9057 C   0  0  0  0  0  0  0  0  0  0  0  0
   20.8036  -19.9644  -12.5324 C   0  0  0  0  0  0  0  0  0  0  0  0
   21.4741  -19.7117  -13.7076 C   0  0  0  0  0  0  0  0  0  0  0  0
   22.2782  -20.6699  -14.3027 C   0  0  0  0  0  0  0  0  0  0  0  0
   22.9483  -20.3023  -15.5527 C   0  0  0  0  0  0  0  0  0  0  0  0
   24.3118  -19.6739  -15.3712 C   0  0  2  0  0  0  0  0  0  0  0  0
   24.9299  -19.3721  -16.6051 N   0  0  0  0  0  0  0  0  0  0  0  0
   25.1983  -20.4220  -14.4888 C   0  0  0  0  0  0  0  0  0  0  0  0
   25.8522  -21.4489  -14.8387 O   0  0  0  0  0  0  0  0  0  0  0  0
   22.3970  -21.8943  -13.6912 C   0  0  0  0  0  0  0  0  0  0  0  0
   21.7183  -22.1187  -12.5219 C   0  0  0  0  0  0  0  0  0  0  0  0
   25.3826  -20.0225  -13.1388 N   0  0  0  0  0  0  0  0  0  0  0  0
   26.1981  -20.8039  -12.2046 C   0  0  1  0  0  0  0  0  0  0  0  0
   26.9128  -19.7831  -11.3668 C   0  0  0  0  0  0  0  0  0  0  0  0
   27.8333  -20.2987  -10.3470 C   0  0  0  0  0  0  0  0  0  0  0  0
   28.9002  -21.1780  -10.5541 C   0  0  0  0  0  0  0  0  0  0  0  0
   29.5154  -21.4679   -9.4087 N   0  0  0  0  0  0  0  0  0  0  0  0
   28.8923  -20.8048   -8.4224 C   0  0  0  0  0  0  0  0  0  0  0  0
   29.1304  -20.7418   -7.0691 C   0  0  0  0  0  0  0  0  0  0  0  0
   28.3572  -19.9659   -6.2362 C   0  0  0  0  0  0  0  0  0  0  0  0
   27.3195  -19.2361   -6.7784 C   0  0  0  0  0  0  0  0  0  0  0  0
   27.1000  -19.3138   -8.1256 C   0  0  0  0  0  0  0  0  0  0  0  0
   27.8575  -20.0821   -8.9812 C   0  0  0  0  0  0  0  0  0  0  0  0
   25.4362  -21.7782  -11.4620 C   0  0  0  0  0  0  0  0  0  0  0  0
   25.9005  -23.0716  -11.2889 O   0  0  0  0  0  0  0  0  0  0  0  0
   24.3165  -21.5143  -10.9385 O   0  0  0  0  0  0  0  0  0  0  0  0
  2  1  1  0
  3  4  1  1
  3  2  1  0
  5  3  1  0
  6  5  2  0
  8  7  1  0
  8 18  2  0
  9  8  1  0
 10  9  2  0
 10 11  1  0
 11 17  2  0
 12 11  1  0
 13 12  1  6
 13 14  1  0
 14  5  1  0
 15 19  1  0
 15 13  1  0
 16 15  2  0
 17 18  1  0
 20 21  1  1
 20 31  1  0
 20 19  1  0
 22 23  2  0
 22 21  1  0
 24 23  1  0
 25 30  2  0
 25 24  1  0
 26 25  1  0
 27 28  1  0
 27 26  2  0
 28 29  2  0
 29 30  1  0
 30 22  1  0
 31 32  1  0
 33 31  2  0
M  END
$$$$
