SYW.pdb
     RDKit          3D

 33 35  0  0  1  0  0  0  0  0999 V2000
   28.7226  -26.5768  -16.2947 O   0  0  0  0  0  0  0  0  0  0  0  0
   28.3435  -25.7758  -17.3593 C   0  0  0  0  0  0  0  0  0  0  0  0
   29.3478  -24.6556  -17.5016 C   0  0  2  0  0  0  0  0  0  0  0  0
   30.6103  -25.2077  -16.9816 N   0  0  0  0  0  0  0  0  0  0  0  0
   28.9542  -23.5496  -16.6139 C   0  0  0  0  0  0  0  0  0  0  0  0
   29.7735  -23.1567  -15.7470 O   0  0  0  0  0  0  0  0  0  0  0  0
   26.5194  -15.3974  -14.7054 O   0  0  0  0  0  0  0  0  0  0  0  0
   26.6241  -16.6849  -15.2631 C   0  0  0  0  0  0  0  0  0  0  0  0
   27.7767  -17.1161  -15.8761 C   0  0  0  0  0  0  0  0  0  0  0  0
   27.8612  -18.3791  -16.4165 C   0  0  0  0  0  0  0  0  0  0  0  0
   26.7946  -19.2615  -16.3649 C   0  0  0  0  0  0  0  0  0  0  0  0
   26.9855  -20.5822  -16.9698 C   0  0  0  0  0  0  0  0  0  0  0  0
   27.5331  -21.6299  -16.0267 C   0  0  2  0  0  0  0  0  0  0  0  0
   27.7072  -22.8807  -16.6600 N   0  0  0  0  0  0  0  0  0  0  0  0
   26.7907  -21.7523  -14.7785 C   0  0  0  0  0  0  0  0  0  0  0  0
   25.6995  -22.3840  -14.6570 O   0  0  0  0  0  0  0  0  0  0  0  0
   25.6343  -18.8487  -15.7562 C   0  0  0  0  0  0  0  0  0  0  0  0
   25.5777  -17.5860  -15.2266 C   0  0  0  0  0  0  0  0  0  0  0  0
   27.2712  -21.1469  -13.5875 N   0  0  0  0  0  0  0  0  0  0  0  0
   26.5388  -21.2408  -12.3213 C   0  0  1  0  0  0  0  0  0  0  0  0
   27.5364  -20.8557  -11.2673 C   0  0  0  0  0  0  0  0  0  0  0  0
   27.0114  -20.6376   -9.9145 C   0  0  0  0  0  0  0  0  0  0  0  0
   25.6662  -20.6245   -9.5338 C   0  0  0  0  0  0  0  0  0  0  0  0
   25.5358  -20.3687   -8.2330 N   0  0  0  0  0  0  0  0  0  0  0  0
   26.7634  -20.2072   -7.7157 C   0  0  0  0  0  0  0  0  0  0  0  0
   27.1894  -19.9441   -6.4344 C   0  0  0  0  0  0  0  0  0  0  0  0
   28.5262  -19.8359   -6.1269 C   0  0  0  0  0  0  0  0  0  0  0  0
   29.4566  -19.9964   -7.1329 C   0  0  0  0  0  0  0  0  0  0  0  0
   29.0115  -20.2566   -8.3992 C   0  0  0  0  0  0  0  0  0  0  0  0
   27.6807  -20.3693   -8.7343 C   0  0  0  0  0  0  0  0  0  0  0  0
   25.3160  -20.4756  -12.3134 C   0  0  0  0  0  0  0  0  0  0  0  0
   24.1528  -20.9875  -11.7625 O   0  0  0  0  0  0  0  0  0  0  0  0
   25.2343  -19.3140  -12.8048 O   0  0  0  0  0  0  0  0  0  0  0  0
  2  1  1  0
  3  4  1  1
  3  2  1  0
  5  3  1  0
  6  5  2  0
  8  7  1  0
  8 18  2  0
  9  8  1  0
 10  9  2  0
 10 11  1  0
 11 17  2  0
 12 11  1  0
 13 12  1  6
 13 14  1  0
 14  5  1  0
 15 19  1  0
 15 13  1  0
 16 15  2  0
 17 18  1  0
 20 21  1  1
 20 31  1  0
 20 19  1  0
 22 23  2  0
 22 21  1  0
 24 23  1  0
 25 30  2  0
 25 24  1  0
 26 25  1  0
 27 28  1  0
 27 26  2  0
 28 29  2  0
 29 30  1  0
 30 22  1  0
 31 32  1  0
 33 31  2  0
M  END
$$$$
