KII.pdb
     RDKit          3D

 26 25  0  0  1  0  0  0  0  0999 V2000
   26.6700  -23.9476  -16.7097 N   0  0  0  0  0  0  0  0  0  0  0  0
   26.4057  -22.5500  -16.2975 C   0  0  1  0  0  0  0  0  0  0  0  0
   25.4564  -21.9524  -17.2845 C   0  0  0  0  0  0  0  0  0  0  0  0
   25.1018  -22.9249  -18.3553 C   0  0  0  0  0  0  0  0  0  0  0  0
   23.5959  -22.9475  -18.5862 C   0  0  0  0  0  0  0  0  0  0  0  0
   23.2626  -23.8514  -19.7372 C   0  0  0  0  0  0  0  0  0  0  0  0
   23.7226  -23.2587  -20.9734 N   0  0  0  0  0  0  0  0  0  0  0  0
   25.8510  -22.6121  -14.9396 C   0  0  0  0  0  0  0  0  0  0  0  0
   25.1392  -23.5708  -14.5250 O   0  0  0  0  0  0  0  0  0  0  0  0
   28.9315  -20.6883  -11.2451 C   0  0  0  0  0  0  0  0  0  0  0  0
   27.8433  -21.5142  -11.8967 C   0  0  0  0  0  0  0  0  0  0  0  0
   26.5053  -20.7697  -11.8548 C   0  0  2  0  0  0  0  0  0  0  0  0
   26.1610  -20.6425  -10.3964 C   0  0  0  0  0  0  0  0  0  0  0  0
   25.5347  -21.6177  -12.6510 C   0  0  2  0  0  0  0  0  0  0  0  0
   26.0981  -21.5854  -14.0181 N   0  0  0  0  0  0  0  0  0  0  0  0
   24.1780  -21.0770  -12.6843 C   0  0  0  0  0  0  0  0  0  0  0  0
   23.4732  -20.9558  -11.6474 O   0  0  0  0  0  0  0  0  0  0  0  0
   23.3819  -17.8943  -16.7465 C   0  0  0  0  0  0  0  0  0  0  0  0
   23.0262  -18.1896  -15.3262 C   0  0  0  0  0  0  0  0  0  0  0  0
   22.0383  -19.2978  -15.1530 C   0  0  2  0  0  0  0  0  0  0  0  0
   20.6473  -18.6947  -15.2797 C   0  0  0  0  0  0  0  0  0  0  0  0
   22.2006  -20.0589  -13.8745 C   0  0  2  0  0  0  0  0  0  0  0  0
   23.5490  -20.6455  -13.8900 N   0  0  0  0  0  0  0  0  0  0  0  0
   21.1755  -21.1080  -13.6921 C   0  0  0  0  0  0  0  0  0  0  0  0
   21.2177  -22.1977  -14.2912 O   0  0  0  0  0  0  0  0  0  0  0  0
   20.1022  -20.8986  -12.8182 O   0  0  0  0  0  0  0  0  0  0  0  0
  2  1  1  6
  3  2  1  0
  4  3  1  0
  5  4  1  0
  6  5  1  0
  7  6  1  0
  8  2  1  0
  8  9  2  0
 10 11  1  0
 11 12  1  0
 12 13  1  1
 14 15  1  6
 14 12  1  0
 15  8  1  0
 16 14  1  0
 17 16  2  0
 19 18  1  0
 19 20  1  0
 20 21  1  1
 22 20  1  0
 22 23  1  6
 23 16  1  0
 24 26  1  0
 24 22  1  0
 25 24  2  0
M  END
$$$$
