KII.pdb
     RDKit          3D

 26 25  0  0  1  0  0  0  0  0999 V2000
   18.5787  -27.0777  -15.8092 N   0  0  0  0  0  0  0  0  0  0  0  0
   18.4126  -27.7586  -14.5046 C   0  0  1  0  0  0  0  0  0  0  0  0
   19.7707  -28.1324  -14.0062 C   0  0  0  0  0  0  0  0  0  0  0  0
   20.4036  -29.1638  -14.8745 C   0  0  0  0  0  0  0  0  0  0  0  0
   21.7641  -28.6901  -15.3706 C   0  0  0  0  0  0  0  0  0  0  0  0
   22.4370  -29.7794  -16.1538 C   0  0  0  0  0  0  0  0  0  0  0  0
   23.7079  -29.3069  -16.6561 N   0  0  0  0  0  0  0  0  0  0  0  0
   17.7235  -26.8092  -13.6219 C   0  0  0  0  0  0  0  0  0  0  0  0
   18.0033  -25.5774  -13.5757 O   0  0  0  0  0  0  0  0  0  0  0  0
   12.9393  -26.2497  -14.4044 C   0  0  0  0  0  0  0  0  0  0  0  0
   14.3072  -25.9514  -13.8293 C   0  0  0  0  0  0  0  0  0  0  0  0
   14.4610  -26.5928  -12.4469 C   0  0  2  0  0  0  0  0  0  0  0  0
   13.3920  -25.9690  -11.5926 C   0  0  0  0  0  0  0  0  0  0  0  0
   15.8746  -26.2804  -12.0006 C   0  0  2  0  0  0  0  0  0  0  0  0
   16.6942  -27.2389  -12.7732 N   0  0  0  0  0  0  0  0  0  0  0  0
   16.1001  -26.5052  -10.5749 C   0  0  0  0  0  0  0  0  0  0  0  0
   15.9967  -27.6436  -10.0456 O   0  0  0  0  0  0  0  0  0  0  0  0
   19.9531  -23.6617   -8.2095 C   0  0  0  0  0  0  0  0  0  0  0  0
   18.9492  -24.6825   -8.6354 C   0  0  0  0  0  0  0  0  0  0  0  0
   17.7204  -24.7342   -7.7859 C   0  0  2  0  0  0  0  0  0  0  0  0
   18.1638  -25.0058   -6.3561 C   0  0  0  0  0  0  0  0  0  0  0  0
   16.7041  -25.7292   -8.2519 C   0  0  2  0  0  0  0  0  0  0  0  0
   16.4542  -25.4562   -9.6751 N   0  0  0  0  0  0  0  0  0  0  0  0
   15.4450  -25.6744   -7.4796 C   0  0  0  0  0  0  0  0  0  0  0  0
   14.5559  -24.8340   -7.7059 O   0  0  0  0  0  0  0  0  0  0  0  0
   15.2130  -26.5900   -6.4464 O   0  0  0  0  0  0  0  0  0  0  0  0
  2  1  1  6
  3  2  1  0
  4  3  1  0
  5  4  1  0
  6  5  1  0
  7  6  1  0
  8  2  1  0
  8  9  2  0
 10 11  1  0
 11 12  1  0
 12 13  1  1
 14 15  1  6
 14 12  1  0
 15  8  1  0
 16 14  1  0
 17 16  2  0
 19 18  1  0
 19 20  1  0
 20 21  1  1
 22 20  1  0
 22 23  1  6
 23 16  1  0
 24 26  1  0
 24 22  1  0
 25 24  2  0
M  END
$$$$
