KII.pdb
     RDKit          3D

 26 25  0  0  1  0  0  0  0  0999 V2000
   28.3616  -20.9535  -14.3461 N   0  0  0  0  0  0  0  0  0  0  0  0
   27.4150  -19.9804  -13.7544 C   0  0  1  0  0  0  0  0  0  0  0  0
   26.6007  -19.3996  -14.8644 C   0  0  0  0  0  0  0  0  0  0  0  0
   27.4309  -18.5459  -15.7588 C   0  0  0  0  0  0  0  0  0  0  0  0
   28.0686  -17.4049  -14.9759 C   0  0  0  0  0  0  0  0  0  0  0  0
   28.4648  -16.2966  -15.9073 C   0  0  0  0  0  0  0  0  0  0  0  0
   29.4801  -16.7669  -16.8231 N   0  0  0  0  0  0  0  0  0  0  0  0
   26.6042  -20.7236  -12.7819 C   0  0  0  0  0  0  0  0  0  0  0  0
   26.1128  -21.8642  -13.0172 O   0  0  0  0  0  0  0  0  0  0  0  0
   27.5866  -20.0991   -7.6141 C   0  0  0  0  0  0  0  0  0  0  0  0
   27.1084  -20.7003   -8.9183 C   0  0  0  0  0  0  0  0  0  0  0  0
   25.6996  -20.2024   -9.2554 C   0  0  2  0  0  0  0  0  0  0  0  0
   24.8258  -20.6712   -8.1248 C   0  0  0  0  0  0  0  0  0  0  0  0
   25.3564  -20.8106  -10.5998 C   0  0  2  0  0  0  0  0  0  0  0  0
   26.3375  -20.1879  -11.5146 N   0  0  0  0  0  0  0  0  0  0  0  0
   24.0079  -20.4879  -11.0597 C   0  0  0  0  0  0  0  0  0  0  0  0
   23.6526  -19.3121  -11.3393 O   0  0  0  0  0  0  0  0  0  0  0  0
   20.1061  -21.8454  -15.1661 C   0  0  0  0  0  0  0  0  0  0  0  0
   20.2161  -21.3756  -13.7524 C   0  0  0  0  0  0  0  0  0  0  0  0
   21.5559  -21.5987  -13.1285 C   0  0  2  0  0  0  0  0  0  0  0  0
   21.8712  -23.0829  -13.2403 C   0  0  0  0  0  0  0  0  0  0  0  0
   21.6540  -21.1138  -11.7160 C   0  0  2  0  0  0  0  0  0  0  0  0
   22.9929  -21.4763  -11.2275 N   0  0  0  0  0  0  0  0  0  0  0  0
   20.6066  -21.6760  -10.8376 C   0  0  0  0  0  0  0  0  0  0  0  0
   20.8481  -22.5376   -9.9732 O   0  0  0  0  0  0  0  0  0  0  0  0
   19.2807  -21.2431  -10.9577 O   0  0  0  0  0  0  0  0  0  0  0  0
  2  1  1  6
  3  2  1  0
  4  3  1  0
  5  4  1  0
  6  5  1  0
  7  6  1  0
  8  2  1  0
  8  9  2  0
 10 11  1  0
 11 12  1  0
 12 13  1  1
 14 15  1  6
 14 12  1  0
 15  8  1  0
 16 14  1  0
 17 16  2  0
 19 18  1  0
 19 20  1  0
 20 21  1  1
 22 20  1  0
 22 23  1  1
 23 16  1  0
 24 26  1  0
 24 22  1  0
 25 24  2  0
M  END
$$$$
