KII.pdb
     RDKit          3D

 26 25  0  0  1  0  0  0  0  0999 V2000
   32.6301  -24.7559  -15.3471 N   0  0  0  0  0  0  0  0  0  0  0  0
   32.1233  -24.1326  -16.5912 C   0  0  1  0  0  0  0  0  0  0  0  0
   32.5210  -25.0056  -17.7366 C   0  0  0  0  0  0  0  0  0  0  0  0
   33.6900  -25.8603  -17.3885 C   0  0  0  0  0  0  0  0  0  0  0  0
   34.0689  -26.7588  -18.5593 C   0  0  0  0  0  0  0  0  0  0  0  0
   35.2471  -27.6142  -18.1946 C   0  0  0  0  0  0  0  0  0  0  0  0
   35.6076  -28.4536  -19.3154 N   0  0  0  0  0  0  0  0  0  0  0  0
   30.6672  -24.0202  -16.4397 C   0  0  0  0  0  0  0  0  0  0  0  0
   29.9852  -24.7916  -15.7066 O   0  0  0  0  0  0  0  0  0  0  0  0
   28.8599  -19.0294  -16.4894 C   0  0  0  0  0  0  0  0  0  0  0  0
   28.9745  -20.5047  -16.1711 C   0  0  0  0  0  0  0  0  0  0  0  0
   28.3174  -21.3447  -17.2706 C   0  0  2  0  0  0  0  0  0  0  0  0
   26.8800  -20.9043  -17.3087 C   0  0  0  0  0  0  0  0  0  0  0  0
   28.5143  -22.7898  -16.8608 C   0  0  2  0  0  0  0  0  0  0  0  0
   29.9525  -23.0221  -17.1159 N   0  0  0  0  0  0  0  0  0  0  0  0
   27.7331  -23.7340  -17.6560 C   0  0  0  0  0  0  0  0  0  0  0  0
   27.8491  -23.8217  -18.9073 O   0  0  0  0  0  0  0  0  0  0  0  0
   25.4709  -29.3098  -17.6183 C   0  0  0  0  0  0  0  0  0  0  0  0
   25.1830  -27.8872  -17.9713 C   0  0  0  0  0  0  0  0  0  0  0  0
   26.1872  -26.9066  -17.4576 C   0  0  2  0  0  0  0  0  0  0  0  0
   26.1905  -27.0077  -15.9396 C   0  0  0  0  0  0  0  0  0  0  0  0
   25.9542  -25.5027  -17.9214 C   0  0  2  0  0  0  0  0  0  0  0  0
   26.7821  -24.6270  -17.0786 N   0  0  0  0  0  0  0  0  0  0  0  0
   24.5333  -25.1007  -17.8564 C   0  0  0  0  0  0  0  0  0  0  0  0
   23.6780  -25.5310  -18.6509 O   0  0  0  0  0  0  0  0  0  0  0  0
   24.1006  -24.2021  -16.8741 O   0  0  0  0  0  0  0  0  0  0  0  0
  2  1  1  1
  3  2  1  0
  4  3  1  0
  5  4  1  0
  6  5  1  0
  7  6  1  0
  8  2  1  0
  8  9  2  0
 10 11  1  0
 11 12  1  0
 12 13  1  1
 14 15  1  6
 14 12  1  0
 15  8  1  0
 16 14  1  0
 17 16  2  0
 19 18  1  0
 19 20  1  0
 20 21  1  1
 22 20  1  0
 22 23  1  1
 23 16  1  0
 24 26  1  0
 24 22  1  0
 25 24  2  0
M  END
$$$$
