KII.pdb
     RDKit          3D

 26 25  0  0  1  0  0  0  0  0999 V2000
   27.3613  -21.3587  -13.4797 N   0  0  0  0  0  0  0  0  0  0  0  0
   27.0848  -20.1818  -12.6244 C   0  0  1  0  0  0  0  0  0  0  0  0
   26.0215  -19.3705  -13.2906 C   0  0  0  0  0  0  0  0  0  0  0  0
   26.3217  -19.1610  -14.7343 C   0  0  0  0  0  0  0  0  0  0  0  0
   27.4628  -18.1667  -14.9092 C   0  0  0  0  0  0  0  0  0  0  0  0
   27.6998  -17.9027  -16.3676 C   0  0  0  0  0  0  0  0  0  0  0  0
   28.7625  -16.9346  -16.5229 N   0  0  0  0  0  0  0  0  0  0  0  0
   26.6678  -20.7035  -11.3169 C   0  0  0  0  0  0  0  0  0  0  0  0
   25.8929  -21.6928  -11.1807 O   0  0  0  0  0  0  0  0  0  0  0  0
   28.1877  -19.7600   -5.4212 C   0  0  0  0  0  0  0  0  0  0  0  0
   27.3098  -20.4229   -6.4609 C   0  0  0  0  0  0  0  0  0  0  0  0
   27.5608  -19.8142   -7.8438 C   0  0  2  0  0  0  0  0  0  0  0  0
   27.1947  -18.3611   -7.7165 C   0  0  0  0  0  0  0  0  0  0  0  0
   26.6861  -20.5938   -8.8042 C   0  0  2  0  0  0  0  0  0  0  0  0
   27.1278  -20.1139  -10.1316 N   0  0  0  0  0  0  0  0  0  0  0  0
   25.2598  -20.3178   -8.6507 C   0  0  0  0  0  0  0  0  0  0  0  0
   24.7645  -19.1800   -8.8672 O   0  0  0  0  0  0  0  0  0  0  0  0
   20.3283  -20.7323  -11.0214 C   0  0  0  0  0  0  0  0  0  0  0  0
   20.8764  -20.7549   -9.6321 C   0  0  0  0  0  0  0  0  0  0  0  0
   22.3503  -20.9900   -9.5519 C   0  0  2  0  0  0  0  0  0  0  0  0
   22.6474  -22.2878  -10.2883 C   0  0  0  0  0  0  0  0  0  0  0  0
   22.8850  -21.0084   -8.1541 C   0  0  2  0  0  0  0  0  0  0  0  0
   24.3209  -21.3126   -8.2456 N   0  0  0  0  0  0  0  0  0  0  0  0
   22.1972  -21.9861   -7.2848 C   0  0  0  0  0  0  0  0  0  0  0  0
   20.9684  -21.9629   -7.0913 O   0  0  0  0  0  0  0  0  0  0  0  0
   22.9285  -22.9901   -6.6392 O   0  0  0  0  0  0  0  0  0  0  0  0
  2  1  1  6
  3  2  1  0
  4  3  1  0
  5  4  1  0
  6  5  1  0
  7  6  1  0
  8  2  1  0
  8  9  2  0
 10 11  1  0
 11 12  1  0
 12 13  1  1
 14 15  1  6
 14 12  1  0
 15  8  1  0
 16 14  1  0
 17 16  2  0
 19 18  1  0
 19 20  1  0
 20 21  1  1
 22 20  1  0
 22 23  1  6
 23 16  1  0
 24 26  1  0
 24 22  1  0
 25 24  2  0
M  END
$$$$
