KII.pdb
     RDKit          3D

 26 25  0  0  1  0  0  0  0  0999 V2000
   21.1340  -14.0884  -19.2656 N   0  0  0  0  0  0  0  0  0  0  0  0
   22.0255  -12.9074  -19.2062 C   0  0  1  0  0  0  0  0  0  0  0  0
   22.1402  -12.3493  -20.5875 C   0  0  0  0  0  0  0  0  0  0  0  0
   22.8460  -13.2928  -21.4983 C   0  0  0  0  0  0  0  0  0  0  0  0
   24.2705  -13.5419  -21.0184 C   0  0  0  0  0  0  0  0  0  0  0  0
   24.9719  -14.4877  -21.9491 C   0  0  0  0  0  0  0  0  0  0  0  0
   26.3281  -14.7035  -21.4962 N   0  0  0  0  0  0  0  0  0  0  0  0
   21.4112  -11.9666  -18.2611 C   0  0  0  0  0  0  0  0  0  0  0  0
   20.1623  -11.7980  -18.1643 O   0  0  0  0  0  0  0  0  0  0  0  0
   22.2977   -9.9897  -12.7042 C   0  0  0  0  0  0  0  0  0  0  0  0
   21.7262   -9.6703  -14.0689 C   0  0  0  0  0  0  0  0  0  0  0  0
   22.3215  -10.5986  -15.1319 C   0  0  2  0  0  0  0  0  0  0  0  0
   23.7958  -10.3021  -15.1452 C   0  0  0  0  0  0  0  0  0  0  0  0
   21.6075  -10.2596  -16.4243 C   0  0  2  0  0  0  0  0  0  0  0  0
   22.2050  -11.1983  -17.3986 N   0  0  0  0  0  0  0  0  0  0  0  0
   21.8415   -8.8913  -16.8793 C   0  0  0  0  0  0  0  0  0  0  0  0
   22.9009   -8.5465  -17.4672 O   0  0  0  0  0  0  0  0  0  0  0  0
   19.5083   -4.8077  -20.2795 C   0  0  0  0  0  0  0  0  0  0  0  0
   20.3223   -4.9668  -19.0372 C   0  0  0  0  0  0  0  0  0  0  0  0
   20.2723   -6.3340  -18.4354 C   0  0  2  0  0  0  0  0  0  0  0  0
   18.8143   -6.6491  -18.1358 C   0  0  0  0  0  0  0  0  0  0  0  0
   21.1365   -6.4939  -17.2239 C   0  0  2  0  0  0  0  0  0  0  0  0
   20.8910   -7.8436  -16.6940 N   0  0  0  0  0  0  0  0  0  0  0  0
   20.8770   -5.4705  -16.1895 C   0  0  0  0  0  0  0  0  0  0  0  0
   21.1928   -4.2758  -16.3345 O   0  0  0  0  0  0  0  0  0  0  0  0
   20.2530   -5.8268  -14.9881 O   0  0  0  0  0  0  0  0  0  0  0  0
  2  1  1  6
  3  2  1  0
  4  3  1  0
  5  4  1  0
  6  5  1  0
  7  6  1  0
  8  2  1  0
  8  9  2  0
 10 11  1  0
 11 12  1  0
 12 13  1  6
 14 15  1  6
 14 12  1  0
 15  8  1  0
 16 14  1  0
 17 16  2  0
 19 18  1  0
 19 20  1  0
 20 21  1  1
 22 20  1  0
 22 23  1  1
 23 16  1  0
 24 26  1  0
 24 22  1  0
 25 24  2  0
M  END
$$$$
