KII.pdb
     RDKit          3D

 26 25  0  0  1  0  0  0  0  0999 V2000
   20.3616  -18.8957  -15.1128 N   0  0  0  0  0  0  0  0  0  0  0  0
   21.8034  -18.5742  -15.0076 C   0  0  1  0  0  0  0  0  0  0  0  0
   21.9269  -17.1205  -14.6854 C   0  0  0  0  0  0  0  0  0  0  0  0
   21.4412  -16.2714  -15.8085 C   0  0  0  0  0  0  0  0  0  0  0  0
   22.4933  -16.1758  -16.9064 C   0  0  0  0  0  0  0  0  0  0  0  0
   22.0314  -15.2400  -17.9852 C   0  0  0  0  0  0  0  0  0  0  0  0
   21.2024  -15.9544  -18.9303 N   0  0  0  0  0  0  0  0  0  0  0  0
   22.3491  -19.4393  -13.9544 C   0  0  0  0  0  0  0  0  0  0  0  0
   21.9349  -19.4229  -12.7603 O   0  0  0  0  0  0  0  0  0  0  0  0
   22.8421  -23.0748  -15.7625 C   0  0  0  0  0  0  0  0  0  0  0  0
   23.2612  -23.2795  -14.3226 C   0  0  0  0  0  0  0  0  0  0  0  0
   24.4756  -22.4086  -13.9869 C   0  0  2  0  0  0  0  0  0  0  0  0
   25.4087  -23.2996  -13.2142 C   0  0  0  0  0  0  0  0  0  0  0  0
   23.9372  -21.2355  -13.1939 C   0  0  2  0  0  0  0  0  0  0  0  0
   23.3773  -20.3490  -14.2369 N   0  0  0  0  0  0  0  0  0  0  0  0
   24.9665  -20.5078  -12.4556 C   0  0  0  0  0  0  0  0  0  0  0  0
   25.6437  -19.5815  -12.9755 O   0  0  0  0  0  0  0  0  0  0  0  0
   26.9536  -19.1323   -6.8002 C   0  0  0  0  0  0  0  0  0  0  0  0
   27.2511  -19.3210   -8.2518 C   0  0  0  0  0  0  0  0  0  0  0  0
   26.1248  -19.9024   -9.0440 C   0  0  2  0  0  0  0  0  0  0  0  0
   25.6239  -21.1285   -8.2953 C   0  0  0  0  0  0  0  0  0  0  0  0
   26.4843  -20.2239  -10.4608 C   0  0  2  0  0  0  0  0  0  0  0  0
   25.2827  -20.7888  -11.0931 N   0  0  0  0  0  0  0  0  0  0  0  0
   27.6226  -21.1603  -10.5703 C   0  0  0  0  0  0  0  0  0  0  0  0
   27.4702  -22.3874  -10.7082 O   0  0  0  0  0  0  0  0  0  0  0  0
   28.9364  -20.6796  -10.5205 O   0  0  0  0  0  0  0  0  0  0  0  0
  2  1  1  1
  3  2  1  0
  4  3  1  0
  5  4  1  0
  6  5  1  0
  7  6  1  0
  8  2  1  0
  8  9  2  0
 10 11  1  0
 11 12  1  0
 12 13  1  1
 14 15  1  6
 14 12  1  0
 15  8  1  0
 16 14  1  0
 17 16  2  0
 19 18  1  0
 19 20  1  0
 20 21  1  1
 22 20  1  0
 22 23  1  1
 23 16  1  0
 24 26  1  0
 24 22  1  0
 25 24  2  0
M  END
$$$$
