KII.pdb
     RDKit          3D

 26 25  0  0  1  0  0  0  0  0999 V2000
   17.3579  -13.8651  -18.5869 N   0  0  0  0  0  0  0  0  0  0  0  0
   17.0930  -13.2269  -17.2772 C   0  0  1  0  0  0  0  0  0  0  0  0
   17.6110  -14.1362  -16.2107 C   0  0  0  0  0  0  0  0  0  0  0  0
   16.7603  -15.3507  -16.0713 C   0  0  0  0  0  0  0  0  0  0  0  0
   17.6081  -16.6145  -16.1453 C   0  0  0  0  0  0  0  0  0  0  0  0
   16.7301  -17.8305  -16.0867 C   0  0  0  0  0  0  0  0  0  0  0  0
   17.5325  -19.0215  -16.2556 N   0  0  0  0  0  0  0  0  0  0  0  0
   17.7764  -11.9276  -17.2990 C   0  0  0  0  0  0  0  0  0  0  0  0
   18.8151  -11.7024  -17.9832 O   0  0  0  0  0  0  0  0  0  0  0  0
   14.7096   -7.7432  -17.5465 C   0  0  0  0  0  0  0  0  0  0  0  0
   15.9659   -8.5756  -17.6868 C   0  0  0  0  0  0  0  0  0  0  0  0
   16.7645   -8.5685  -16.3799 C   0  0  2  0  0  0  0  0  0  0  0  0
   17.1692   -7.1364  -16.1632 C   0  0  0  0  0  0  0  0  0  0  0  0
   17.9258   -9.5163  -16.5992 C   0  0  2  0  0  0  0  0  0  0  0  0
   17.2899  -10.8505  -16.5457 N   0  0  0  0  0  0  0  0  0  0  0  0
   18.9491   -9.4367  -15.5597 C   0  0  0  0  0  0  0  0  0  0  0  0
   18.6771   -9.5412  -14.3342 O   0  0  0  0  0  0  0  0  0  0  0  0
   23.3516  -12.1868  -15.5132 C   0  0  0  0  0  0  0  0  0  0  0  0
   22.1723  -11.3155  -15.2284 C   0  0  0  0  0  0  0  0  0  0  0  0
   22.4975   -9.8648  -15.0738 C   0  0  2  0  0  0  0  0  0  0  0  0
   23.5638   -9.7473  -13.9949 C   0  0  0  0  0  0  0  0  0  0  0  0
   21.3081   -9.0063  -14.7766 C   0  0  2  0  0  0  0  0  0  0  0  0
   20.3311   -9.2358  -15.8515 N   0  0  0  0  0  0  0  0  0  0  0  0
   21.6431   -7.5705  -14.6717 C   0  0  0  0  0  0  0  0  0  0  0  0
   21.9923   -7.0402  -13.6017 O   0  0  0  0  0  0  0  0  0  0  0  0
   21.5748   -6.7477  -15.8021 O   0  0  0  0  0  0  0  0  0  0  0  0
  2  1  1  6
  3  2  1  0
  4  3  1  0
  5  4  1  0
  6  5  1  0
  7  6  1  0
  8  2  1  0
  8  9  2  0
 10 11  1  0
 11 12  1  0
 12 13  1  6
 14 15  1  1
 14 12  1  0
 15  8  1  0
 16 14  1  0
 17 16  2  0
 19 18  1  0
 19 20  1  0
 20 21  1  1
 22 20  1  0
 22 23  1  6
 23 16  1  0
 24 26  1  0
 24 22  1  0
 25 24  2  0
M  END
$$$$
