KII.pdb
     RDKit          3D

 26 25  0  0  1  0  0  0  0  0999 V2000
   28.2724  -21.5294  -15.6616 N   0  0  0  0  0  0  0  0  0  0  0  0
   27.8116  -20.4019  -14.8194 C   0  0  1  0  0  0  0  0  0  0  0  0
   27.4550  -19.2685  -15.7253 C   0  0  0  0  0  0  0  0  0  0  0  0
   28.0992  -19.4158  -17.0600 C   0  0  0  0  0  0  0  0  0  0  0  0
   27.7035  -18.2672  -17.9796 C   0  0  0  0  0  0  0  0  0  0  0  0
   28.4655  -18.3517  -19.2699 C   0  0  0  0  0  0  0  0  0  0  0  0
   28.1441  -17.2144  -20.1030 N   0  0  0  0  0  0  0  0  0  0  0  0
   26.6646  -20.8971  -14.0482 C   0  0  0  0  0  0  0  0  0  0  0  0
   25.8913  -21.8066  -14.4633 O   0  0  0  0  0  0  0  0  0  0  0  0
   27.3233  -20.7234   -8.8346 C   0  0  0  0  0  0  0  0  0  0  0  0
   26.8150  -21.1861  -10.1831 C   0  0  0  0  0  0  0  0  0  0  0  0
   25.5582  -20.4060  -10.5807 C   0  0  2  0  0  0  0  0  0  0  0  0
   24.5197  -20.7657   -9.5541 C   0  0  0  0  0  0  0  0  0  0  0  0
   25.2216  -20.8530  -11.9885 C   0  0  2  0  0  0  0  0  0  0  0  0
   26.3734  -20.3718  -12.7819 N   0  0  0  0  0  0  0  0  0  0  0  0
   23.9988  -20.2522  -12.5154 C   0  0  0  0  0  0  0  0  0  0  0  0
   23.7857  -19.0112  -12.4796 O   0  0  0  0  0  0  0  0  0  0  0  0
   20.2296  -20.3526  -17.1236 C   0  0  0  0  0  0  0  0  0  0  0  0
   20.3348  -20.1376  -15.6491 C   0  0  0  0  0  0  0  0  0  0  0  0
   21.5940  -20.6595  -15.0359 C   0  0  2  0  0  0  0  0  0  0  0  0
   21.6700  -22.1477  -15.3429 C   0  0  0  0  0  0  0  0  0  0  0  0
   21.7106  -20.3872  -13.5688 C   0  0  2  0  0  0  0  0  0  0  0  0
   22.9551  -21.0222  -13.1098 N   0  0  0  0  0  0  0  0  0  0  0  0
   20.5534  -20.8839  -12.7948 C   0  0  0  0  0  0  0  0  0  0  0  0
   19.4722  -20.2709  -12.7381 O   0  0  0  0  0  0  0  0  0  0  0  0
   20.6451  -22.0880  -12.0868 O   0  0  0  0  0  0  0  0  0  0  0  0
  2  1  1  6
  3  2  1  0
  4  3  1  0
  5  4  1  0
  6  5  1  0
  7  6  1  0
  8  2  1  0
  8  9  2  0
 10 11  1  0
 11 12  1  0
 12 13  1  1
 14 15  1  6
 14 12  1  0
 15  8  1  0
 16 14  1  0
 17 16  2  0
 19 18  1  0
 19 20  1  0
 20 21  1  1
 22 20  1  0
 22 23  1  1
 23 16  1  0
 24 26  1  0
 24 22  1  0
 25 24  2  0
M  END
$$$$
