KII.pdb
     RDKit          3D

 26 25  0  0  1  0  0  0  0  0999 V2000
   20.3487  -19.4932  -12.3669 N   0  0  0  0  0  0  0  0  0  0  0  0
   21.0295  -20.2943  -13.4099 C   0  0  1  0  0  0  0  0  0  0  0  0
   20.3965  -19.9695  -14.7238 C   0  0  0  0  0  0  0  0  0  0  0  0
   20.0473  -21.2046  -15.4793 C   0  0  0  0  0  0  0  0  0  0  0  0
   19.6011  -22.3096  -14.5298 C   0  0  0  0  0  0  0  0  0  0  0  0
   19.2312  -23.5401  -15.3057 C   0  0  0  0  0  0  0  0  0  0  0  0
   18.8083  -24.5823  -14.3970 N   0  0  0  0  0  0  0  0  0  0  0  0
   22.4506  -19.9293  -13.3567 C   0  0  0  0  0  0  0  0  0  0  0  0
   22.8895  -18.7989  -13.7135 O   0  0  0  0  0  0  0  0  0  0  0  0
   24.8267  -21.0860   -8.9781 C   0  0  0  0  0  0  0  0  0  0  0  0
   24.5261  -20.4293  -10.3082 C   0  0  0  0  0  0  0  0  0  0  0  0
   25.2279  -21.1754  -11.4471 C   0  0  2  0  0  0  0  0  0  0  0  0
   26.6967  -21.0983  -11.1338 C   0  0  0  0  0  0  0  0  0  0  0  0
   24.8254  -20.4601  -12.7204 C   0  0  2  0  0  0  0  0  0  0  0  0
   23.4067  -20.8418  -12.8903 N   0  0  0  0  0  0  0  0  0  0  0  0
   25.5769  -20.8928  -13.8960 C   0  0  0  0  0  0  0  0  0  0  0  0
   25.4420  -22.0393  -14.4000 O   0  0  0  0  0  0  0  0  0  0  0  0
   28.8273  -18.3701  -18.5393 C   0  0  0  0  0  0  0  0  0  0  0  0
   28.3842  -19.5817  -17.7866 C   0  0  0  0  0  0  0  0  0  0  0  0
   27.6245  -19.2883  -16.5332 C   0  0  2  0  0  0  0  0  0  0  0  0
   28.4750  -18.3482  -15.6921 C   0  0  0  0  0  0  0  0  0  0  0  0
   27.2237  -20.5107  -15.7683 C   0  0  2  0  0  0  0  0  0  0  0  0
   26.5182  -20.0527  -14.5620 N   0  0  0  0  0  0  0  0  0  0  0  0
   28.3714  -21.3700  -15.4088 C   0  0  0  0  0  0  0  0  0  0  0  0
   28.9683  -22.0745  -16.2427 O   0  0  0  0  0  0  0  0  0  0  0  0
   28.8294  -21.4154  -14.0868 O   0  0  0  0  0  0  0  0  0  0  0  0
  2  1  1  1
  3  2  1  0
  4  3  1  0
  5  4  1  0
  6  5  1  0
  7  6  1  0
  8  2  1  0
  8  9  2  0
 10 11  1  0
 11 12  1  0
 12 13  1  1
 14 15  1  6
 14 12  1  0
 15  8  1  0
 16 14  1  0
 17 16  2  0
 19 18  1  0
 19 20  1  0
 20 21  1  1
 22 20  1  0
 22 23  1  1
 23 16  1  0
 24 26  1  0
 24 22  1  0
 25 24  2  0
M  END
$$$$
