HLG.pdb
     RDKit          3D

 23 23  0  0  1  0  0  0  0  0999 V2000
   32.4695  -22.9851   10.4006 N   0  0  0  0  0  0  0  0  0  0  0  0
   33.5798  -22.3769    9.6996 C   0  0  1  0  0  0  0  0  0  0  0  0
   34.7885  -22.4422   10.5840 C   0  0  0  0  0  0  0  0  0  0  0  0
   34.5665  -21.5043   11.7167 C   0  0  0  0  0  0  0  0  0  0  0  0
   34.3594  -20.1431   11.6483 C   0  0  0  0  0  0  0  0  0  0  0  0
   34.1976  -19.6426   12.8981 N   0  0  0  0  0  0  0  0  0  0  0  0
   34.3018  -20.6798   13.7482 C   0  0  0  0  0  0  0  0  0  0  0  0
   34.5254  -21.8074   13.0305 N   0  0  0  0  0  0  0  0  0  0  0  0
   33.8040  -23.0151    8.3740 C   0  0  0  0  0  0  0  0  0  0  0  0
   33.7102  -24.2589    8.2148 O   0  0  0  0  0  0  0  0  0  0  0  0
   32.4137  -20.2603    4.4619 C   0  0  0  0  0  0  0  0  0  0  0  0
   32.9800  -21.6121    4.1928 C   0  0  2  0  0  0  0  0  0  0  0  0
   32.0202  -22.6342    4.8264 C   0  0  0  0  0  0  0  0  0  0  0  0
   34.3178  -21.8968    4.7619 C   0  0  0  0  0  0  0  0  0  0  0  0
   34.4040  -22.7929    5.9371 C   0  0  2  0  0  0  0  0  0  0  0  0
   34.1371  -22.2438    7.2169 N   0  0  0  0  0  0  0  0  0  0  0  0
   35.6852  -23.5246    5.9229 C   0  0  0  0  0  0  0  0  0  0  0  0
   36.6851  -23.2073    6.6009 O   0  0  0  0  0  0  0  0  0  0  0  0
   35.8042  -24.6689    5.0869 N   0  0  0  0  0  0  0  0  0  0  0  0
   37.0591  -25.3863    4.9711 C   0  0  0  0  0  0  0  0  0  0  0  0
   37.2332  -26.3549    6.0675 C   0  0  0  0  0  0  0  0  0  0  0  0
   38.2011  -26.0930    7.0264 O   0  0  0  0  0  0  0  0  0  0  0  0
   36.5027  -27.3750    6.0917 O   0  0  0  0  0  0  0  0  0  0  0  0
  2  3  1  0
  2  9  1  0
  2  1  1  1
  4  5  2  0
  4  3  1  0
  6  5  1  0
  7  8  2  0
  7  6  1  0
  8  4  1  0
  9 10  2  0
 12 11  1  1
 12 13  1  0
 14 12  1  0
 15 14  1  6
 15 17  1  0
 16 15  1  0
 16  9  1  0
 17 18  2  0
 19 17  1  0
 19 20  1  0
 21 20  1  0
 21 22  1  0
 23 21  2  0
M  END
$$$$
