HLG.pdb
     RDKit          3D

 23 23  0  0  1  0  0  0  0  0999 V2000
   21.5660  -21.2168  -13.5991 N   0  0  0  0  0  0  0  0  0  0  0  0
   22.0572  -20.1003  -14.3777 C   0  0  1  0  0  0  0  0  0  0  0  0
   20.9698  -19.0722  -14.4657 C   0  0  0  0  0  0  0  0  0  0  0  0
   19.8267  -19.6893  -15.1899 C   0  0  0  0  0  0  0  0  0  0  0  0
   18.5613  -19.9358  -14.7018 C   0  0  0  0  0  0  0  0  0  0  0  0
   17.8029  -20.5098  -15.6684 N   0  0  0  0  0  0  0  0  0  0  0  0
   18.5838  -20.6243  -16.7575 C   0  0  0  0  0  0  0  0  0  0  0  0
   19.8101  -20.1265  -16.4659 N   0  0  0  0  0  0  0  0  0  0  0  0
   23.3195  -19.5528  -13.8108 C   0  0  0  0  0  0  0  0  0  0  0  0
   23.3356  -18.4922  -13.1356 O   0  0  0  0  0  0  0  0  0  0  0  0
   25.0808  -22.1863  -11.5222 C   0  0  0  0  0  0  0  0  0  0  0  0
   26.1969  -21.2004  -11.4705 C   0  0  2  0  0  0  0  0  0  0  0  0
   25.6831  -19.9828  -10.6826 C   0  0  0  0  0  0  0  0  0  0  0  0
   26.6800  -20.6759  -12.7689 C   0  0  0  0  0  0  0  0  0  0  0  0
   25.8147  -19.7299  -13.5091 C   0  0  2  0  0  0  0  0  0  0  0  0
   24.5757  -20.2073  -14.0069 N   0  0  0  0  0  0  0  0  0  0  0  0
   26.5921  -19.0517  -14.5640 C   0  0  0  0  0  0  0  0  0  0  0  0
   27.6311  -18.3899  -14.3579 O   0  0  0  0  0  0  0  0  0  0  0  0
   26.1404  -19.1492  -15.9090 N   0  0  0  0  0  0  0  0  0  0  0  0
   26.8803  -18.5363  -16.9951 C   0  0  0  0  0  0  0  0  0  0  0  0
   27.9645  -19.4111  -17.4744 C   0  0  0  0  0  0  0  0  0  0  0  0
   27.7183  -20.2169  -18.5766 O   0  0  0  0  0  0  0  0  0  0  0  0
   29.0642  -19.3937  -16.8699 O   0  0  0  0  0  0  0  0  0  0  0  0
  2  3  1  0
  2  9  1  0
  2  1  1  1
  4  5  2  0
  4  3  1  0
  6  5  1  0
  7  8  2  0
  7  6  1  0
  8  4  1  0
  9 10  2  0
 12 11  1  6
 12 13  1  0
 14 12  1  0
 15 14  1  6
 15 17  1  0
 16 15  1  0
 16  9  1  0
 17 18  2  0
 19 17  1  0
 19 20  1  0
 21 20  1  0
 21 22  1  0
 23 21  2  0
M  END
$$$$
