HLG.pdb
     RDKit          3D

 23 23  0  0  1  0  0  0  0  0999 V2000
   18.9116  -11.7983  -17.4089 N   0  0  0  0  0  0  0  0  0  0  0  0
   18.3552  -11.4560  -16.1177 C   0  0  1  0  0  0  0  0  0  0  0  0
   17.9409  -12.7230  -15.4318 C   0  0  0  0  0  0  0  0  0  0  0  0
   16.7671  -13.2669  -16.1654 C   0  0  0  0  0  0  0  0  0  0  0  0
   15.9370  -12.5921  -17.0348 C   0  0  0  0  0  0  0  0  0  0  0  0
   14.9814  -13.4342  -17.4999 N   0  0  0  0  0  0  0  0  0  0  0  0
   15.2069  -14.6308  -16.9284 C   0  0  0  0  0  0  0  0  0  0  0  0
   16.2896  -14.5276  -16.1198 N   0  0  0  0  0  0  0  0  0  0  0  0
   19.3099  -10.6513  -15.3079 C   0  0  0  0  0  0  0  0  0  0  0  0
   19.0732  -10.3541  -14.1093 O   0  0  0  0  0  0  0  0  0  0  0  0
   23.0556  -11.6345  -13.3764 C   0  0  0  0  0  0  0  0  0  0  0  0
   23.2599  -11.2945  -14.8127 C   0  0  2  0  0  0  0  0  0  0  0  0
   24.7578  -11.4833  -15.1091 C   0  0  0  0  0  0  0  0  0  0  0  0
   22.9317   -9.9085  -15.2200 C   0  0  0  0  0  0  0  0  0  0  0  0
   21.5236   -9.4628  -15.1203 C   0  0  2  0  0  0  0  0  0  0  0  0
   20.5432  -10.1771  -15.8547 N   0  0  0  0  0  0  0  0  0  0  0  0
   21.4326   -8.0119  -15.3726 C   0  0  0  0  0  0  0  0  0  0  0  0
   22.1605   -7.1553  -14.8282 O   0  0  0  0  0  0  0  0  0  0  0  0
   20.4562   -7.5432  -16.2942 N   0  0  0  0  0  0  0  0  0  0  0  0
   20.2917   -6.1266  -16.5572 C   0  0  0  0  0  0  0  0  0  0  0  0
   19.1383   -5.5700  -15.8288 C   0  0  0  0  0  0  0  0  0  0  0  0
   18.8679   -4.2161  -15.9652 O   0  0  0  0  0  0  0  0  0  0  0  0
   18.4480   -6.3386  -15.1163 O   0  0  0  0  0  0  0  0  0  0  0  0
  2  3  1  0
  2  9  1  0
  2  1  1  6
  4  5  2  0
  4  3  1  0
  6  5  1  0
  7  8  2  0
  7  6  1  0
  8  4  1  0
  9 10  2  0
 12 11  1  1
 12 13  1  0
 14 12  1  0
 15 14  1  6
 15 17  1  0
 16 15  1  0
 16  9  1  0
 17 18  2  0
 19 17  1  0
 19 20  1  0
 21 20  1  0
 21 22  1  0
 23 21  2  0
M  END
$$$$
