HLG.pdb
     RDKit          3D

 23 23  0  0  1  0  0  0  0  0999 V2000
   25.4854  -20.2373  -17.7381 N   0  0  0  0  0  0  0  0  0  0  0  0
   24.8408  -19.5060  -16.6687 C   0  0  1  0  0  0  0  0  0  0  0  0
   23.5826  -18.8943  -17.2074 C   0  0  0  0  0  0  0  0  0  0  0  0
   23.9751  -17.7513  -18.0742 C   0  0  0  0  0  0  0  0  0  0  0  0
   24.3011  -17.7893  -19.4131 C   0  0  0  0  0  0  0  0  0  0  0  0
   24.6023  -16.5398  -19.8452 N   0  0  0  0  0  0  0  0  0  0  0  0
   24.4674  -15.7201  -18.7873 C   0  0  0  0  0  0  0  0  0  0  0  0
   24.0872  -16.4561  -17.7147 N   0  0  0  0  0  0  0  0  0  0  0  0
   24.5953  -20.3737  -15.4848 C   0  0  0  0  0  0  0  0  0  0  0  0
   24.3455  -21.6001  -15.6044 O   0  0  0  0  0  0  0  0  0  0  0  0
   25.3386  -20.3554   -9.2453 C   0  0  0  0  0  0  0  0  0  0  0  0
   24.9801  -21.0265  -10.5265 C   0  0  2  0  0  0  0  0  0  0  0  0
   25.8625  -22.2821  -10.6367 C   0  0  0  0  0  0  0  0  0  0  0  0
   25.2096  -20.2523  -11.7684 C   0  0  0  0  0  0  0  0  0  0  0  0
   24.4536  -20.6338  -12.9827 C   0  0  2  0  0  0  0  0  0  0  0  0
   24.6318  -19.8535  -14.1532 N   0  0  0  0  0  0  0  0  0  0  0  0
   23.0234  -20.7969  -12.6584 C   0  0  0  0  0  0  0  0  0  0  0  0
   22.5876  -21.5261  -11.7427 O   0  0  0  0  0  0  0  0  0  0  0  0
   22.0665  -20.0829  -13.4310 N   0  0  0  0  0  0  0  0  0  0  0  0
   20.6670  -20.0543  -13.0522 C   0  0  0  0  0  0  0  0  0  0  0  0
   19.8831  -21.0554  -13.7965 C   0  0  0  0  0  0  0  0  0  0  0  0
   18.5153  -21.1159  -13.5725 O   0  0  0  0  0  0  0  0  0  0  0  0
   20.4802  -21.8114  -14.6008 O   0  0  0  0  0  0  0  0  0  0  0  0
  2  3  1  0
  2  9  1  0
  2  1  1  6
  4  5  2  0
  4  3  1  0
  6  5  1  0
  7  8  2  0
  7  6  1  0
  8  4  1  0
  9 10  2  0
 12 11  1  1
 12 13  1  0
 14 12  1  0
 15 14  1  1
 15 17  1  0
 16 15  1  0
 16  9  1  0
 17 18  2  0
 19 17  1  0
 19 20  1  0
 21 20  1  0
 21 22  1  0
 23 21  2  0
M  END
$$$$
