HLG.pdb
     RDKit          3D

 23 23  0  0  1  0  0  0  0  0999 V2000
   24.9662  -20.0939  -18.0759 N   0  0  0  0  0  0  0  0  0  0  0  0
   24.6230  -19.2759  -16.9326 C   0  0  1  0  0  0  0  0  0  0  0  0
   23.5081  -18.3554  -17.3290 C   0  0  0  0  0  0  0  0  0  0  0  0
   24.0693  -17.3513  -18.2717 C   0  0  0  0  0  0  0  0  0  0  0  0
   25.0591  -16.4260  -18.0176 C   0  0  0  0  0  0  0  0  0  0  0  0
   25.2925  -15.6896  -19.1320 N   0  0  0  0  0  0  0  0  0  0  0  0
   24.4567  -16.1467  -20.0815 C   0  0  0  0  0  0  0  0  0  0  0  0
   23.7160  -17.1539  -19.5584 N   0  0  0  0  0  0  0  0  0  0  0  0
   24.2844  -20.1093  -15.7471 C   0  0  0  0  0  0  0  0  0  0  0  0
   23.6680  -21.1994  -15.8596 O   0  0  0  0  0  0  0  0  0  0  0  0
   23.7909  -21.3015  -10.3015 C   0  0  0  0  0  0  0  0  0  0  0  0
   25.1127  -21.3209  -10.9891 C   0  0  2  0  0  0  0  0  0  0  0  0
   26.1697  -20.9372   -9.9389 C   0  0  0  0  0  0  0  0  0  0  0  0
   25.2893  -20.3744  -12.1149 C   0  0  0  0  0  0  0  0  0  0  0  0
   24.3442  -20.4522  -13.2517 C   0  0  2  0  0  0  0  0  0  0  0  0
   24.6443  -19.7099  -14.4220 N   0  0  0  0  0  0  0  0  0  0  0  0
   22.9692  -20.1884  -12.7860 C   0  0  0  0  0  0  0  0  0  0  0  0
   22.6061  -19.1338  -12.2240 O   0  0  0  0  0  0  0  0  0  0  0  0
   21.9814  -21.1924  -12.9834 N   0  0  0  0  0  0  0  0  0  0  0  0
   20.6288  -21.0213  -12.4894 C   0  0  0  0  0  0  0  0  0  0  0  0
   19.7827  -22.1837  -12.8113 C   0  0  0  0  0  0  0  0  0  0  0  0
   18.4988  -22.2255  -12.2874 O   0  0  0  0  0  0  0  0  0  0  0  0
   20.2540  -23.0873  -13.5438 O   0  0  0  0  0  0  0  0  0  0  0  0
  2  3  1  0
  2  9  1  0
  2  1  1  6
  4  5  2  0
  4  3  1  0
  6  5  1  0
  7  8  2  0
  7  6  1  0
  8  4  1  0
  9 10  2  0
 12 11  1  1
 12 13  1  0
 14 12  1  0
 15 14  1  1
 15 17  1  0
 16 15  1  0
 16  9  1  0
 17 18  2  0
 19 17  1  0
 19 20  1  0
 21 20  1  0
 21 22  1  0
 23 21  2  0
M  END
$$$$
