HLG.pdb
     RDKit          3D

 23 23  0  0  1  0  0  0  0  0999 V2000
   17.8831  -13.1942  -15.6916 N   0  0  0  0  0  0  0  0  0  0  0  0
   18.4972  -12.3477  -16.6918 C   0  0  1  0  0  0  0  0  0  0  0  0
   17.5317  -12.1820  -17.8266 C   0  0  0  0  0  0  0  0  0  0  0  0
   17.3927  -13.5039  -18.4938 C   0  0  0  0  0  0  0  0  0  0  0  0
   18.2172  -14.0469  -19.4559 C   0  0  0  0  0  0  0  0  0  0  0  0
   17.7563  -15.2708  -19.8142 N   0  0  0  0  0  0  0  0  0  0  0  0
   16.6499  -15.4980  -19.0839 C   0  0  0  0  0  0  0  0  0  0  0  0
   16.4309  -14.4261  -18.2840 N   0  0  0  0  0  0  0  0  0  0  0  0
   18.9316  -11.0468  -16.1138 C   0  0  0  0  0  0  0  0  0  0  0  0
   18.2118  -10.4106  -15.3025 O   0  0  0  0  0  0  0  0  0  0  0  0
   21.7507   -9.6629  -12.9019 C   0  0  0  0  0  0  0  0  0  0  0  0
   22.3767  -10.0752  -14.1897 C   0  0  2  0  0  0  0  0  0  0  0  0
   23.9006   -9.9933  -13.9935 C   0  0  0  0  0  0  0  0  0  0  0  0
   22.0693   -9.2407  -15.3744 C   0  0  0  0  0  0  0  0  0  0  0  0
   20.6852   -9.2504  -15.8993 C   0  0  2  0  0  0  0  0  0  0  0  0
   20.1894  -10.4577  -16.4538 N   0  0  0  0  0  0  0  0  0  0  0  0
   20.4844   -8.1144  -16.8193 C   0  0  0  0  0  0  0  0  0  0  0  0
   21.0097   -8.0214  -17.9486 O   0  0  0  0  0  0  0  0  0  0  0  0
   19.6396   -7.0476  -16.4061 N   0  0  0  0  0  0  0  0  0  0  0  0
   19.4672   -5.8656  -17.2284 C   0  0  0  0  0  0  0  0  0  0  0  0
   20.1750   -4.7037  -16.6631 C   0  0  0  0  0  0  0  0  0  0  0  0
   20.0967   -3.4952  -17.3400 O   0  0  0  0  0  0  0  0  0  0  0  0
   20.8186   -4.8512  -15.5959 O   0  0  0  0  0  0  0  0  0  0  0  0
  2  3  1  0
  2  9  1  0
  2  1  1  1
  4  5  2  0
  4  3  1  0
  6  5  1  0
  7  8  2  0
  7  6  1  0
  8  4  1  0
  9 10  2  0
 12 11  1  1
 12 13  1  0
 14 12  1  0
 15 14  1  6
 15 17  1  0
 16 15  1  0
 16  9  1  0
 17 18  2  0
 19 17  1  0
 19 20  1  0
 21 20  1  0
 21 22  1  0
 23 21  2  0
M  END
$$$$
