HEG.pdb
     RDKit          3D

 24 24  0  0  1  0  0  0  0  0999 V2000
   10.9783  -19.0793   16.0846 N   0  0  0  0  0  0  0  0  0  0  0  0
   10.6460  -18.0507   17.0535 C   0  0  1  0  0  0  0  0  0  0  0  0
    9.2041  -17.7076   16.9231 C   0  0  0  0  0  0  0  0  0  0  0  0
    8.9115  -17.1200   15.5930 C   0  0  0  0  0  0  0  0  0  0  0  0
    9.4429  -15.9648   15.0727 C   0  0  0  0  0  0  0  0  0  0  0  0
    8.9073  -15.8138   13.8589 N   0  0  0  0  0  0  0  0  0  0  0  0
    8.0641  -16.8221   13.5948 C   0  0  0  0  0  0  0  0  0  0  0  0
    8.0749  -17.6346   14.6889 N   0  0  0  0  0  0  0  0  0  0  0  0
   11.0278  -18.4277   18.4217 C   0  0  0  0  0  0  0  0  0  0  0  0
   10.7667  -19.5954   18.8183 O   0  0  0  0  0  0  0  0  0  0  0  0
   11.6788  -17.5012   19.2754 N   0  0  0  0  0  0  0  0  0  0  0  0
   12.0712  -17.7931   20.6325 C   0  0  1  0  0  0  0  0  0  0  0  0
   13.5306  -17.9335   20.8927 C   0  0  0  0  0  0  0  0  0  0  0  0
   14.2093  -19.1300   20.3087 C   0  0  0  0  0  0  0  0  0  0  0  0
   15.6369  -19.1476   20.5742 C   0  0  0  0  0  0  0  0  0  0  0  0
   16.1584  -18.1905   21.2309 O   0  0  0  0  0  0  0  0  0  0  0  0
   11.4635  -16.8320   21.5564 C   0  0  0  0  0  0  0  0  0  0  0  0
   11.6554  -15.5811   21.4098 O   0  0  0  0  0  0  0  0  0  0  0  0
   16.4259  -20.1821   20.1238 O   0  0  0  0  0  0  0  0  0  0  0  0
   10.6386  -17.1978   22.6542 N   0  0  0  0  0  0  0  0  0  0  0  0
    9.9647  -16.2053   23.4801 C   0  0  0  0  0  0  0  0  0  0  0  0
   10.6027  -16.0964   24.8066 C   0  0  0  0  0  0  0  0  0  0  0  0
   11.5221  -16.8959   25.0967 O   0  0  0  0  0  0  0  0  0  0  0  0
   10.1586  -15.1161   25.6740 O   0  0  0  0  0  0  0  0  0  0  0  0
  2  1  1  6
  2  9  1  0
  3  4  1  0
  3  2  1  0
  4  5  2  0
  5  6  1  0
  7  6  1  0
  8  4  1  0
  8  7  2  0
  9 11  1  0
  9 10  2  0
 11 12  1  0
 12 17  1  0
 13 14  1  0
 12 13  1  6
 14 15  1  0
 15 16  2  0
 15 19  1  0
 17 18  2  0
 17 20  1  0
 20 21  1  0
 21 22  1  0
 22 24  1  0
 23 22  2  0
M  END
$$$$
