HEG.pdb
     RDKit          3D

 24 24  0  0  1  0  0  0  0  0999 V2000
    8.7450  -17.4847   20.2550 N   0  0  0  0  0  0  0  0  0  0  0  0
    9.4486  -16.5951   21.1610 C   0  0  1  0  0  0  0  0  0  0  0  0
    8.4881  -15.5990   21.7078 C   0  0  0  0  0  0  0  0  0  0  0  0
    8.2175  -14.5209   20.7257 C   0  0  0  0  0  0  0  0  0  0  0  0
    8.7354  -14.4189   19.4573 C   0  0  0  0  0  0  0  0  0  0  0  0
    8.2288  -13.3021   18.9291 N   0  0  0  0  0  0  0  0  0  0  0  0
    7.4167  -12.6993   19.8091 C   0  0  0  0  0  0  0  0  0  0  0  0
    7.4173  -13.4722   20.9316 N   0  0  0  0  0  0  0  0  0  0  0  0
   10.1792  -17.3258   22.2061 C   0  0  0  0  0  0  0  0  0  0  0  0
    9.8532  -18.5200   22.4441 O   0  0  0  0  0  0  0  0  0  0  0  0
   11.2298  -16.7039   22.9277 N   0  0  0  0  0  0  0  0  0  0  0  0
   12.0480  -17.3805   23.9043 C   0  0  1  0  0  0  0  0  0  0  0  0
   13.4596  -16.9232   24.0283 C   0  0  0  0  0  0  0  0  0  0  0  0
   14.2496  -16.8180   22.7641 C   0  0  0  0  0  0  0  0  0  0  0  0
   15.5558  -16.2178   22.9699 C   0  0  0  0  0  0  0  0  0  0  0  0
   15.8723  -15.8013   24.1299 O   0  0  0  0  0  0  0  0  0  0  0  0
   11.3821  -17.3878   25.2094 C   0  0  0  0  0  0  0  0  0  0  0  0
   11.0156  -16.2974   25.7567 O   0  0  0  0  0  0  0  0  0  0  0  0
   16.4481  -16.0947   21.9286 O   0  0  0  0  0  0  0  0  0  0  0  0
   11.0981  -18.5671   25.9497 N   0  0  0  0  0  0  0  0  0  0  0  0
   10.3890  -18.5304   27.2213 C   0  0  0  0  0  0  0  0  0  0  0  0
   11.3302  -18.5980   28.3564 C   0  0  0  0  0  0  0  0  0  0  0  0
   12.5556  -18.6877   28.1140 O   0  0  0  0  0  0  0  0  0  0  0  0
   10.8195  -18.5595   29.6403 O   0  0  0  0  0  0  0  0  0  0  0  0
  2  1  1  1
  2  9  1  0
  3  4  1  0
  3  2  1  0
  4  5  2  0
  5  6  1  0
  7  6  1  0
  8  4  1  0
  8  7  2  0
  9 11  1  0
  9 10  2  0
 11 12  1  0
 12 17  1  0
 13 14  1  0
 12 13  1  1
 14 15  1  0
 15 16  2  0
 15 19  1  0
 17 18  2  0
 17 20  1  0
 20 21  1  0
 21 22  1  0
 22 24  1  0
 23 22  2  0
M  END
$$$$
