HEG.pdb
     RDKit          3D

 24 24  0  0  1  0  0  0  0  0999 V2000
    7.7514  -16.9479   20.8924 N   0  0  0  0  0  0  0  0  0  0  0  0
    8.8732  -16.2727   21.5195 C   0  0  1  0  0  0  0  0  0  0  0  0
    8.5121  -14.8491   21.7579 C   0  0  0  0  0  0  0  0  0  0  0  0
    8.1908  -14.1577   20.4856 C   0  0  0  0  0  0  0  0  0  0  0  0
    8.1894  -14.7130   19.2290 C   0  0  0  0  0  0  0  0  0  0  0  0
    7.8444  -13.7385   18.3839 N   0  0  0  0  0  0  0  0  0  0  0  0
    7.6295  -12.5973   19.0539 C   0  0  0  0  0  0  0  0  0  0  0  0
    7.8496  -12.8722   20.3705 N   0  0  0  0  0  0  0  0  0  0  0  0
    9.3327  -16.9624   22.7332 C   0  0  0  0  0  0  0  0  0  0  0  0
    8.5134  -17.6878   23.3588 O   0  0  0  0  0  0  0  0  0  0  0  0
   10.6681  -16.8189   23.1884 N   0  0  0  0  0  0  0  0  0  0  0  0
   11.1981  -17.4822   24.3547 C   0  0  1  0  0  0  0  0  0  0  0  0
   12.4550  -18.2591   24.1706 C   0  0  0  0  0  0  0  0  0  0  0  0
   13.0021  -18.9548   25.3748 C   0  0  0  0  0  0  0  0  0  0  0  0
   14.2208  -19.6909   25.0891 C   0  0  0  0  0  0  0  0  0  0  0  0
   14.8151  -19.5019   23.9800 O   0  0  0  0  0  0  0  0  0  0  0  0
   11.3243  -16.5353   25.4656 C   0  0  0  0  0  0  0  0  0  0  0  0
   11.6731  -15.3287   25.2530 O   0  0  0  0  0  0  0  0  0  0  0  0
   14.7346  -20.5863   26.0001 O   0  0  0  0  0  0  0  0  0  0  0  0
   11.0780  -16.8683   26.8250 N   0  0  0  0  0  0  0  0  0  0  0  0
   11.1207  -15.8712   27.8858 C   0  0  0  0  0  0  0  0  0  0  0  0
   10.8993  -16.4912   29.2068 C   0  0  0  0  0  0  0  0  0  0  0  0
   10.6992  -17.7262   29.2631 O   0  0  0  0  0  0  0  0  0  0  0  0
   10.9222  -15.6824   30.3276 O   0  0  0  0  0  0  0  0  0  0  0  0
  2  1  1  1
  2  9  1  0
  3  4  1  0
  3  2  1  0
  4  5  2  0
  5  6  1  0
  7  6  1  0
  8  4  1  0
  8  7  2  0
  9 11  1  0
  9 10  2  0
 11 12  1  0
 12 17  1  0
 13 14  1  0
 12 13  1  6
 14 15  1  0
 15 16  2  0
 15 19  1  0
 17 18  2  0
 17 20  1  0
 20 21  1  0
 21 22  1  0
 22 24  1  0
 23 22  2  0
M  END
$$$$
