HEG.pdb
     RDKit          3D

 24 24  0  0  1  0  0  0  0  0999 V2000
    9.8662  -16.3108   17.0020 N   0  0  0  0  0  0  0  0  0  0  0  0
   10.4476  -15.4847   18.0446 C   0  0  1  0  0  0  0  0  0  0  0  0
    9.4807  -15.3697   19.1696 C   0  0  0  0  0  0  0  0  0  0  0  0
    8.8417  -14.0313   19.1918 C   0  0  0  0  0  0  0  0  0  0  0  0
    9.0965  -12.9873   18.3359 C   0  0  0  0  0  0  0  0  0  0  0  0
    8.3033  -11.9827   18.7159 N   0  0  0  0  0  0  0  0  0  0  0  0
    7.5626  -12.3497   19.7714 C   0  0  0  0  0  0  0  0  0  0  0  0
    7.9085  -13.6358   20.0608 N   0  0  0  0  0  0  0  0  0  0  0  0
   11.7698  -15.9673   18.4675 C   0  0  0  0  0  0  0  0  0  0  0  0
   12.0407  -17.1889   18.3148 O   0  0  0  0  0  0  0  0  0  0  0  0
   12.7211  -15.0791   19.0306 N   0  0  0  0  0  0  0  0  0  0  0  0
   14.0747  -15.4516   19.3620 C   0  0  1  0  0  0  0  0  0  0  0  0
   15.1632  -14.7033   18.6744 C   0  0  0  0  0  0  0  0  0  0  0  0
   15.2186  -14.8077   17.1847 C   0  0  0  0  0  0  0  0  0  0  0  0
   16.3301  -14.0679   16.6138 C   0  0  0  0  0  0  0  0  0  0  0  0
   16.8504  -13.1166   17.2796 O   0  0  0  0  0  0  0  0  0  0  0  0
   14.2654  -15.4385   20.8146 C   0  0  0  0  0  0  0  0  0  0  0  0
   14.1706  -14.3510   21.4715 O   0  0  0  0  0  0  0  0  0  0  0  0
   16.8216  -14.3830   15.3669 O   0  0  0  0  0  0  0  0  0  0  0  0
   14.5613  -16.5938   21.5875 N   0  0  0  0  0  0  0  0  0  0  0  0
   14.6936  -16.5419   23.0370 C   0  0  0  0  0  0  0  0  0  0  0  0
   16.0783  -16.2191   23.4328 C   0  0  0  0  0  0  0  0  0  0  0  0
   16.9362  -16.0583   22.5346 O   0  0  0  0  0  0  0  0  0  0  0  0
   16.3709  -16.1076   24.7792 O   0  0  0  0  0  0  0  0  0  0  0  0
  2  1  1  6
  2  9  1  0
  3  4  1  0
  3  2  1  0
  4  5  2  0
  5  6  1  0
  7  6  1  0
  8  4  1  0
  8  7  2  0
  9 11  1  0
  9 10  2  0
 11 12  1  0
 12 17  1  0
 13 14  1  0
 12 13  1  6
 14 15  1  0
 15 16  2  0
 15 19  1  0
 17 18  2  0
 17 20  1  0
 20 21  1  0
 21 22  1  0
 22 24  1  0
 23 22  2  0
M  END
$$$$
