HEG.pdb
     RDKit          3D

 24 24  0  0  1  0  0  0  0  0999 V2000
    7.2445  -15.1855   19.5491 N   0  0  0  0  0  0  0  0  0  0  0  0
    8.6198  -14.8650   19.2129 C   0  0  1  0  0  0  0  0  0  0  0  0
    8.6424  -13.6288   18.3851 C   0  0  0  0  0  0  0  0  0  0  0  0
    8.1031  -13.8836   17.0271 C   0  0  0  0  0  0  0  0  0  0  0  0
    7.6789  -15.0909   16.5271 C   0  0  0  0  0  0  0  0  0  0  0  0
    7.2754  -14.8625   15.2749 N   0  0  0  0  0  0  0  0  0  0  0  0
    7.4275  -13.5665   14.9673 C   0  0  0  0  0  0  0  0  0  0  0  0
    7.9470  -12.9628   16.0731 N   0  0  0  0  0  0  0  0  0  0  0  0
    9.4800  -14.7791   20.4014 C   0  0  0  0  0  0  0  0  0  0  0  0
    9.0242  -14.2177   21.4338 O   0  0  0  0  0  0  0  0  0  0  0  0
   10.7914  -15.3189   20.3892 N   0  0  0  0  0  0  0  0  0  0  0  0
   11.6342  -15.4161   21.5558 C   0  0  1  0  0  0  0  0  0  0  0  0
   11.0664  -16.1255   22.7355 C   0  0  0  0  0  0  0  0  0  0  0  0
   11.9382  -16.2312   23.9448 C   0  0  0  0  0  0  0  0  0  0  0  0
   11.3028  -16.9578   25.0297 C   0  0  0  0  0  0  0  0  0  0  0  0
   11.3711  -18.2282   25.0503 O   0  0  0  0  0  0  0  0  0  0  0  0
   12.9437  -15.9645   21.1939 C   0  0  0  0  0  0  0  0  0  0  0  0
   13.1690  -17.2155   21.2788 O   0  0  0  0  0  0  0  0  0  0  0  0
   10.6306  -16.2895   26.0283 O   0  0  0  0  0  0  0  0  0  0  0  0
   14.0347  -15.1784   20.7340 N   0  0  0  0  0  0  0  0  0  0  0  0
   15.3572  -15.2616   21.3384 C   0  0  0  0  0  0  0  0  0  0  0  0
   16.2601  -14.2339   20.7841 C   0  0  0  0  0  0  0  0  0  0  0  0
   15.8199  -13.4634   19.9003 O   0  0  0  0  0  0  0  0  0  0  0  0
   17.5546  -14.1648   21.2638 O   0  0  0  0  0  0  0  0  0  0  0  0
  2  1  1  1
  2  9  1  0
  3  4  1  0
  3  2  1  0
  4  5  2  0
  5  6  1  0
  7  6  1  0
  8  4  1  0
  8  7  2  0
  9 11  1  0
  9 10  2  0
 11 12  1  0
 12 17  1  0
 13 14  1  0
 12 13  1  1
 14 15  1  0
 15 16  2  0
 15 19  1  0
 17 18  2  0
 17 20  1  0
 20 21  1  0
 21 22  1  0
 22 24  1  0
 23 22  2  0
M  END
$$$$
