WYG.pdb
     RDKit          3D

 31 33  0  0  1  0  0  0  0  0999 V2000
   28.0344  -27.9471  -17.8482 N   0  0  0  0  0  0  0  0  0  0  0  0
   26.7286  -28.1047  -17.2630 C   0  0  1  0  0  0  0  0  0  0  0  0
   25.7150  -27.3272  -18.0189 C   0  0  0  0  0  0  0  0  0  0  0  0
   25.7338  -25.9109  -17.5795 C   0  0  0  0  0  0  0  0  0  0  0  0
   26.4737  -24.8701  -18.1456 C   0  0  0  0  0  0  0  0  0  0  0  0
   26.2167  -23.7134  -17.5153 N   0  0  0  0  0  0  0  0  0  0  0  0
   25.3216  -23.9582  -16.5393 C   0  0  0  0  0  0  0  0  0  0  0  0
   24.7292  -23.1433  -15.6018 C   0  0  0  0  0  0  0  0  0  0  0  0
   23.8420  -23.6800  -14.7034 C   0  0  0  0  0  0  0  0  0  0  0  0
   23.5381  -25.0218  -14.7286 C   0  0  0  0  0  0  0  0  0  0  0  0
   24.1253  -25.8537  -15.6655 C   0  0  0  0  0  0  0  0  0  0  0  0
   25.0085  -25.3191  -16.5616 C   0  0  0  0  0  0  0  0  0  0  0  0
   26.4065  -29.5758  -17.2366 C   0  0  0  0  0  0  0  0  0  0  0  0
   26.5051  -30.2700  -18.2803 O   0  0  0  0  0  0  0  0  0  0  0  0
   31.2339  -32.7266  -18.6673 O   0  0  0  0  0  0  0  0  0  0  0  0
   30.0816  -32.6861  -17.8714 C   0  0  0  0  0  0  0  0  0  0  0  0
   30.0500  -31.7586  -16.8404 C   0  0  0  0  0  0  0  0  0  0  0  0
   28.9279  -31.6674  -16.0092 C   0  0  0  0  0  0  0  0  0  0  0  0
   27.8687  -32.5008  -16.2262 C   0  0  0  0  0  0  0  0  0  0  0  0
   26.6711  -32.4322  -15.3705 C   0  0  0  0  0  0  0  0  0  0  0  0
   25.6049  -31.6431  -16.0409 C   0  0  2  0  0  0  0  0  0  0  0  0
   25.9826  -30.2481  -16.0601 N   0  0  0  0  0  0  0  0  0  0  0  0
   24.2592  -31.7810  -15.5261 C   0  0  0  0  0  0  0  0  0  0  0  0
   23.9324  -31.0136  -14.5503 O   0  0  0  0  0  0  0  0  0  0  0  0
   27.9082  -33.4108  -17.2432 C   0  0  0  0  0  0  0  0  0  0  0  0
   29.0131  -33.5171  -18.0796 C   0  0  0  0  0  0  0  0  0  0  0  0
   23.2729  -32.6649  -15.9804 N   0  0  0  0  0  0  0  0  0  0  0  0
   21.9513  -32.6900  -15.4121 C   0  0  0  0  0  0  0  0  0  0  0  0
   21.8257  -33.6706  -14.3109 C   0  0  0  0  0  0  0  0  0  0  0  0
   20.6850  -33.8893  -13.5718 O   0  0  0  0  0  0  0  0  0  0  0  0
   22.8503  -34.3512  -14.0398 O   0  0  0  0  0  0  0  0  0  0  0  0
  2  1  1  6
  2  3  1  0
  4  3  1  0
  4  5  2  0
  6  5  1  0
  7  6  1  0
  8  7  2  0
  9  8  1  0
 10  9  2  0
 10 11  1  0
 11 12  2  0
 12  7  1  0
 12  4  1  0
 13  2  1  0
 13 14  2  0
 16 26  2  0
 16 15  1  0
 17 16  1  0
 18 19  1  0
 18 17  2  0
 19 25  2  0
 20 19  1  0
 21 20  1  1
 21 22  1  0
 22 13  1  0
 23 21  1  0
 24 23  2  0
 25 26  1  0
 27 23  1  0
 28 27  1  0
 29 28  1  0
 30 29  1  0
 31 29  2  0
M  END
$$$$
