WYG.pdb
     RDKit          3D

 31 33  0  0  1  0  0  0  0  0999 V2000
   21.8806  -19.4130  -14.8879 N   0  0  0  0  0  0  0  0  0  0  0  0
   23.2665  -19.6050  -15.2267 C   0  0  1  0  0  0  0  0  0  0  0  0
   23.7224  -18.5699  -16.1880 C   0  0  0  0  0  0  0  0  0  0  0  0
   23.2447  -18.9018  -17.5521 C   0  0  0  0  0  0  0  0  0  0  0  0
   22.3978  -18.1307  -18.3517 C   0  0  0  0  0  0  0  0  0  0  0  0
   22.2068  -18.7220  -19.5413 N   0  0  0  0  0  0  0  0  0  0  0  0
   22.9070  -19.8723  -19.5544 C   0  0  0  0  0  0  0  0  0  0  0  0
   23.0557  -20.8539  -20.5074 C   0  0  0  0  0  0  0  0  0  0  0  0
   23.8405  -21.9461  -20.2365 C   0  0  0  0  0  0  0  0  0  0  0  0
   24.4798  -22.0715  -19.0244 C   0  0  0  0  0  0  0  0  0  0  0  0
   24.3403  -21.0925  -18.0564 C   0  0  0  0  0  0  0  0  0  0  0  0
   23.5593  -20.0035  -18.3265 C   0  0  0  0  0  0  0  0  0  0  0  0
   24.0643  -19.5790  -13.9494 C   0  0  0  0  0  0  0  0  0  0  0  0
   23.9794  -18.6015  -13.1632 O   0  0  0  0  0  0  0  0  0  0  0  0
   20.2324  -20.3407   -9.6164 O   0  0  0  0  0  0  0  0  0  0  0  0
   21.5139  -20.6523  -10.0895 C   0  0  0  0  0  0  0  0  0  0  0  0
   22.5918  -20.0511   -9.4563 C   0  0  0  0  0  0  0  0  0  0  0  0
   23.8978  -20.3205   -9.8808 C   0  0  0  0  0  0  0  0  0  0  0  0
   24.0955  -21.1800  -10.9227 C   0  0  0  0  0  0  0  0  0  0  0  0
   25.4570  -21.4866  -11.3958 C   0  0  0  0  0  0  0  0  0  0  0  0
   25.8593  -20.5294  -12.4593 C   0  0  2  0  0  0  0  0  0  0  0  0
   24.9379  -20.6314  -13.5681 N   0  0  0  0  0  0  0  0  0  0  0  0
   27.2211  -20.6138  -12.9423 C   0  0  0  0  0  0  0  0  0  0  0  0
   28.1438  -20.2210  -12.1408 O   0  0  0  0  0  0  0  0  0  0  0  0
   23.0289  -21.7673  -11.5402 C   0  0  0  0  0  0  0  0  0  0  0  0
   21.7244  -21.5129  -11.1338 C   0  0  0  0  0  0  0  0  0  0  0  0
   27.6406  -21.0798  -14.1943 N   0  0  0  0  0  0  0  0  0  0  0  0
   29.0204  -21.0378  -14.6002 C   0  0  0  0  0  0  0  0  0  0  0  0
   29.3295  -19.8583  -15.4388 C   0  0  0  0  0  0  0  0  0  0  0  0
   30.5472  -19.6031  -16.0281 O   0  0  0  0  0  0  0  0  0  0  0  0
   28.3961  -19.0319  -15.6188 O   0  0  0  0  0  0  0  0  0  0  0  0
  2  1  1  1
  2  3  1  0
  4  3  1  0
  4  5  2  0
  6  5  1  0
  7  6  1  0
  8  7  2  0
  9  8  1  0
 10  9  2  0
 10 11  1  0
 11 12  2  0
 12  7  1  0
 12  4  1  0
 13  2  1  0
 13 14  2  0
 16 26  2  0
 16 15  1  0
 17 16  1  0
 18 19  1  0
 18 17  2  0
 19 25  2  0
 20 19  1  0
 21 20  1  1
 21 22  1  0
 22 13  1  0
 23 21  1  0
 24 23  2  0
 25 26  1  0
 27 23  1  0
 28 27  1  0
 29 28  1  0
 30 29  1  0
 31 29  2  0
M  END
$$$$
