WYG.pdb
     RDKit          3D

 31 33  0  0  1  0  0  0  0  0999 V2000
   27.4091  -21.4135  -14.3035 N   0  0  0  0  0  0  0  0  0  0  0  0
   26.8564  -20.3447  -13.5134 C   0  0  1  0  0  0  0  0  0  0  0  0
   25.4804  -20.0148  -13.9619 C   0  0  0  0  0  0  0  0  0  0  0  0
   25.5312  -19.2772  -15.2474 C   0  0  0  0  0  0  0  0  0  0  0  0
   24.8853  -19.6244  -16.4363 C   0  0  0  0  0  0  0  0  0  0  0  0
   25.1247  -18.7076  -17.3867 N   0  0  0  0  0  0  0  0  0  0  0  0
   25.9176  -17.7552  -16.8596 C   0  0  0  0  0  0  0  0  0  0  0  0
   26.4638  -16.6086  -17.3896 C   0  0  0  0  0  0  0  0  0  0  0  0
   27.2608  -15.8140  -16.6050 C   0  0  0  0  0  0  0  0  0  0  0  0
   27.5204  -16.1498  -15.2961 C   0  0  0  0  0  0  0  0  0  0  0  0
   26.9780  -17.2993  -14.7489 C   0  0  0  0  0  0  0  0  0  0  0  0
   26.1827  -18.0906  -15.5301 C   0  0  0  0  0  0  0  0  0  0  0  0
   26.8921  -20.7694  -12.0687 C   0  0  0  0  0  0  0  0  0  0  0  0
   26.7910  -21.9833  -11.7572 O   0  0  0  0  0  0  0  0  0  0  0  0
   28.3396  -20.7197   -3.4423 O   0  0  0  0  0  0  0  0  0  0  0  0
   28.1649  -20.3158   -4.7724 C   0  0  0  0  0  0  0  0  0  0  0  0
   29.1664  -20.6412   -5.6752 C   0  0  0  0  0  0  0  0  0  0  0  0
   29.0525  -20.2667   -7.0188 C   0  0  0  0  0  0  0  0  0  0  0  0
   27.9461  -19.5792   -7.4271 C   0  0  0  0  0  0  0  0  0  0  0  0
   27.7931  -19.1691   -8.8342 C   0  0  0  0  0  0  0  0  0  0  0  0
   27.1376  -20.2498   -9.6161 C   0  0  2  0  0  0  0  0  0  0  0  0
   27.0382  -19.8458  -11.0003 N   0  0  0  0  0  0  0  0  0  0  0  0
   25.8504  -20.7163   -9.1464 C   0  0  0  0  0  0  0  0  0  0  0  0
   25.8288  -21.2965   -8.0015 O   0  0  0  0  0  0  0  0  0  0  0  0
   26.9651  -19.2630   -6.5318 C   0  0  0  0  0  0  0  0  0  0  0  0
   27.0594  -19.6257   -5.1934 C   0  0  0  0  0  0  0  0  0  0  0  0
   24.6227  -20.6017   -9.8097 N   0  0  0  0  0  0  0  0  0  0  0  0
   23.3913  -21.0527   -9.2176 C   0  0  0  0  0  0  0  0  0  0  0  0
   22.2136  -20.7592  -10.0642 C   0  0  0  0  0  0  0  0  0  0  0  0
   20.9032  -20.9685   -9.6979 O   0  0  0  0  0  0  0  0  0  0  0  0
   22.4433  -20.2808  -11.2065 O   0  0  0  0  0  0  0  0  0  0  0  0
  2  1  1  6
  2  3  1  0
  4  3  1  0
  4  5  2  0
  6  5  1  0
  7  6  1  0
  8  7  2  0
  9  8  1  0
 10  9  2  0
 10 11  1  0
 11 12  2  0
 12  7  1  0
 12  4  1  0
 13  2  1  0
 13 14  2  0
 16 26  2  0
 16 15  1  0
 17 16  1  0
 18 19  1  0
 18 17  2  0
 19 25  2  0
 20 19  1  0
 21 20  1  1
 21 22  1  0
 22 13  1  0
 23 21  1  0
 24 23  2  0
 25 26  1  0
 27 23  1  0
 28 27  1  0
 29 28  1  0
 30 29  1  0
 31 29  2  0
M  END
$$$$
