WYG.pdb
     RDKit          3D

 31 33  0  0  1  0  0  0  0  0999 V2000
   25.9835  -22.0170  -13.6077 N   0  0  0  0  0  0  0  0  0  0  0  0
   25.1271  -20.9622  -14.0833 C   0  0  1  0  0  0  0  0  0  0  0  0
   25.2307  -20.8236  -15.5575 C   0  0  0  0  0  0  0  0  0  0  0  0
   26.5188  -20.1817  -15.9153 C   0  0  0  0  0  0  0  0  0  0  0  0
   27.6691  -20.8205  -16.3840 C   0  0  0  0  0  0  0  0  0  0  0  0
   28.6336  -19.9235  -16.6415 N   0  0  0  0  0  0  0  0  0  0  0  0
   28.1535  -18.6984  -16.3544 C   0  0  0  0  0  0  0  0  0  0  0  0
   28.7156  -17.4443  -16.4262 C   0  0  0  0  0  0  0  0  0  0  0  0
   27.9784  -16.3503  -16.0500 C   0  0  0  0  0  0  0  0  0  0  0  0
   26.6850  -16.4920  -15.6020 C   0  0  0  0  0  0  0  0  0  0  0  0
   26.1059  -17.7464  -15.5246 C   0  0  0  0  0  0  0  0  0  0  0  0
   26.8399  -18.8366  -15.9005 C   0  0  0  0  0  0  0  0  0  0  0  0
   23.7204  -21.2730  -13.6435 C   0  0  0  0  0  0  0  0  0  0  0  0
   23.3999  -22.4411  -13.3068 O   0  0  0  0  0  0  0  0  0  0  0  0
   23.0092  -21.7819   -7.0928 O   0  0  0  0  0  0  0  0  0  0  0  0
   22.5728  -21.2222   -8.3008 C   0  0  0  0  0  0  0  0  0  0  0  0
   21.3134  -21.5858   -8.7546 C   0  0  0  0  0  0  0  0  0  0  0  0
   20.8187  -21.0619   -9.9543 C   0  0  0  0  0  0  0  0  0  0  0  0
   21.5899  -20.1913  -10.6691 C   0  0  0  0  0  0  0  0  0  0  0  0
   21.1007  -19.6203  -11.9364 C   0  0  0  0  0  0  0  0  0  0  0  0
   21.3781  -20.5518  -13.0608 C   0  0  2  0  0  0  0  0  0  0  0  0
   22.6989  -20.2885  -13.5854 N   0  0  0  0  0  0  0  0  0  0  0  0
   20.4171  -20.5850  -14.1426 C   0  0  0  0  0  0  0  0  0  0  0  0
   19.2201  -20.9381  -13.8415 O   0  0  0  0  0  0  0  0  0  0  0  0
   22.8283  -19.8390  -10.2150 C   0  0  0  0  0  0  0  0  0  0  0  0
   23.3375  -20.3480   -9.0264 C   0  0  0  0  0  0  0  0  0  0  0  0
   20.6545  -20.2721  -15.4865 N   0  0  0  0  0  0  0  0  0  0  0  0
   19.6550  -20.4675  -16.5029 C   0  0  0  0  0  0  0  0  0  0  0  0
   18.8131  -19.2680  -16.7090 C   0  0  0  0  0  0  0  0  0  0  0  0
   17.8272  -19.1470  -17.6622 O   0  0  0  0  0  0  0  0  0  0  0  0
   19.0264  -18.2892  -15.9455 O   0  0  0  0  0  0  0  0  0  0  0  0
  2  1  1  6
  2  3  1  0
  4  3  1  0
  4  5  2  0
  6  5  1  0
  7  6  1  0
  8  7  2  0
  9  8  1  0
 10  9  2  0
 10 11  1  0
 11 12  2  0
 12  7  1  0
 12  4  1  0
 13  2  1  0
 13 14  2  0
 16 26  2  0
 16 15  1  0
 17 16  1  0
 18 19  1  0
 18 17  2  0
 19 25  2  0
 20 19  1  0
 21 20  1  1
 21 22  1  0
 22 13  1  0
 23 21  1  0
 24 23  2  0
 25 26  1  0
 27 23  1  0
 28 27  1  0
 29 28  1  0
 30 29  1  0
 31 29  2  0
M  END
$$$$
