WYG.pdb
     RDKit          3D

 31 33  0  0  1  0  0  0  0  0999 V2000
   24.2004  -19.9920  -19.2655 N   0  0  0  0  0  0  0  0  0  0  0  0
   23.4022  -18.8969  -18.7799 C   0  0  1  0  0  0  0  0  0  0  0  0
   22.4846  -18.4040  -19.8376 C   0  0  0  0  0  0  0  0  0  0  0  0
   23.2684  -17.8753  -20.9801 C   0  0  0  0  0  0  0  0  0  0  0  0
   23.4748  -18.5000  -22.2123 C   0  0  0  0  0  0  0  0  0  0  0  0
   24.2028  -17.7149  -23.0216 N   0  0  0  0  0  0  0  0  0  0  0  0
   24.4884  -16.5789  -22.3571 C   0  0  0  0  0  0  0  0  0  0  0  0
   25.2022  -15.4561  -22.7087 C   0  0  0  0  0  0  0  0  0  0  0  0
   25.3428  -14.4336  -21.8048 C   0  0  0  0  0  0  0  0  0  0  0  0
   24.7793  -14.5176  -20.5523 C   0  0  0  0  0  0  0  0  0  0  0  0
   24.0584  -15.6400  -20.1843 C   0  0  0  0  0  0  0  0  0  0  0  0
   23.9171  -16.6585  -21.0852 C   0  0  0  0  0  0  0  0  0  0  0  0
   22.6549  -19.3720  -17.5615 C   0  0  0  0  0  0  0  0  0  0  0  0
   22.3713  -20.5887  -17.4204 O   0  0  0  0  0  0  0  0  0  0  0  0
   19.4742  -20.0221   -9.4811 O   0  0  0  0  0  0  0  0  0  0  0  0
   20.0976  -19.5438  -10.6411 C   0  0  0  0  0  0  0  0  0  0  0  0
   21.0740  -20.3432  -11.2170 C   0  0  0  0  0  0  0  0  0  0  0  0
   21.7345  -19.9229  -12.3770 C   0  0  0  0  0  0  0  0  0  0  0  0
   21.4057  -18.7197  -12.9318 C   0  0  0  0  0  0  0  0  0  0  0  0
   22.0808  -18.2459  -14.1529 C   0  0  0  0  0  0  0  0  0  0  0  0
   21.5351  -18.9446  -15.3458 C   0  0  2  0  0  0  0  0  0  0  0  0
   22.2370  -18.4946  -16.5265 N   0  0  0  0  0  0  0  0  0  0  0  0
   20.1064  -18.8630  -15.5622 C   0  0  0  0  0  0  0  0  0  0  0  0
   19.6386  -17.7182  -15.9065 O   0  0  0  0  0  0  0  0  0  0  0  0
   20.4435  -17.9393  -12.3583 C   0  0  0  0  0  0  0  0  0  0  0  0
   19.7761  -18.3386  -11.2065 C   0  0  0  0  0  0  0  0  0  0  0  0
   19.1772  -19.9028  -15.4358 N   0  0  0  0  0  0  0  0  0  0  0  0
   17.7682  -19.6523  -15.2870 C   0  0  0  0  0  0  0  0  0  0  0  0
   17.1606  -19.0841  -16.5109 C   0  0  0  0  0  0  0  0  0  0  0  0
   17.3519  -19.5651  -17.7865 O   0  0  0  0  0  0  0  0  0  0  0  0
   16.4122  -18.0825  -16.3584 O   0  0  0  0  0  0  0  0  0  0  0  0
  2  1  1  6
  2  3  1  0
  4  3  1  0
  4  5  2  0
  6  5  1  0
  7  6  1  0
  8  7  2  0
  9  8  1  0
 10  9  2  0
 10 11  1  0
 11 12  2  0
 12  7  1  0
 12  4  1  0
 13  2  1  0
 13 14  2  0
 16 26  2  0
 16 15  1  0
 17 16  1  0
 18 19  1  0
 18 17  2  0
 19 25  2  0
 20 19  1  0
 21 20  1  1
 21 22  1  0
 22 13  1  0
 23 21  1  0
 24 23  2  0
 25 26  1  0
 27 23  1  0
 28 27  1  0
 29 28  1  0
 30 29  1  0
 31 29  2  0
M  END
$$$$
