WYG.pdb
     RDKit          3D

 31 33  0  0  1  0  0  0  0  0999 V2000
   28.2363  -20.7197  -14.5400 N   0  0  0  0  0  0  0  0  0  0  0  0
   26.9425  -20.2110  -14.1663 C   0  0  1  0  0  0  0  0  0  0  0  0
   25.9449  -20.4727  -15.2339 C   0  0  0  0  0  0  0  0  0  0  0  0
   26.2119  -19.5969  -16.4005 C   0  0  0  0  0  0  0  0  0  0  0  0
   27.1815  -19.7915  -17.3871 C   0  0  0  0  0  0  0  0  0  0  0  0
   27.1139  -18.8205  -18.3110 N   0  0  0  0  0  0  0  0  0  0  0  0
   26.1206  -17.9801  -17.9634 C   0  0  0  0  0  0  0  0  0  0  0  0
   25.6355  -16.8308  -18.5445 C   0  0  0  0  0  0  0  0  0  0  0  0
   24.5979  -16.1585  -17.9499 C   0  0  0  0  0  0  0  0  0  0  0  0
   24.0372  -16.6193  -16.7808 C   0  0  0  0  0  0  0  0  0  0  0  0
   24.5139  -17.7737  -16.1849 C   0  0  0  0  0  0  0  0  0  0  0  0
   25.5471  -18.4445  -16.7777 C   0  0  0  0  0  0  0  0  0  0  0  0
   26.5518  -20.8512  -12.8602 C   0  0  0  0  0  0  0  0  0  0  0  0
   26.8204  -22.0588  -12.6353 O   0  0  0  0  0  0  0  0  0  0  0  0
   30.7664  -20.6460   -7.1913 O   0  0  0  0  0  0  0  0  0  0  0  0
   29.5134  -20.4644   -7.7910 C   0  0  0  0  0  0  0  0  0  0  0  0
   28.6203  -19.6120   -7.1584 C   0  0  0  0  0  0  0  0  0  0  0  0
   27.3522  -19.3878   -7.7062 C   0  0  0  0  0  0  0  0  0  0  0  0
   27.0075  -20.0172   -8.8675 C   0  0  0  0  0  0  0  0  0  0  0  0
   25.6808  -19.8041   -9.4724 C   0  0  0  0  0  0  0  0  0  0  0  0
   25.4655  -20.7609  -10.5891 C   0  0  2  0  0  0  0  0  0  0  0  0
   25.8736  -20.1455  -11.8316 N   0  0  0  0  0  0  0  0  0  0  0  0
   24.1388  -21.3219  -10.7308 C   0  0  0  0  0  0  0  0  0  0  0  0
   23.6113  -21.8311   -9.6770 O   0  0  0  0  0  0  0  0  0  0  0  0
   27.8926  -20.8545   -9.4835 C   0  0  0  0  0  0  0  0  0  0  0  0
   29.1565  -21.0904   -8.9557 C   0  0  0  0  0  0  0  0  0  0  0  0
   23.3671  -21.3685  -11.8982 N   0  0  0  0  0  0  0  0  0  0  0  0
   22.0687  -21.9876  -11.9295 C   0  0  0  0  0  0  0  0  0  0  0  0
   20.9756  -21.0277  -11.6578 C   0  0  0  0  0  0  0  0  0  0  0  0
   19.6318  -21.3208  -11.7158 O   0  0  0  0  0  0  0  0  0  0  0  0
   21.3163  -19.8546  -11.3505 O   0  0  0  0  0  0  0  0  0  0  0  0
  2  1  1  6
  2  3  1  0
  4  3  1  0
  4  5  2  0
  6  5  1  0
  7  6  1  0
  8  7  2  0
  9  8  1  0
 10  9  2  0
 10 11  1  0
 11 12  2  0
 12  7  1  0
 12  4  1  0
 13  2  1  0
 13 14  2  0
 16 26  2  0
 16 15  1  0
 17 16  1  0
 18 19  1  0
 18 17  2  0
 19 25  2  0
 20 19  1  0
 21 20  1  1
 21 22  1  0
 22 13  1  0
 23 21  1  0
 24 23  2  0
 25 26  1  0
 27 23  1  0
 28 27  1  0
 29 28  1  0
 30 29  1  0
 31 29  2  0
M  END
$$$$
