WYG.pdb
     RDKit          3D

 31 33  0  0  1  0  0  0  0  0999 V2000
   28.3167  -20.8477  -14.0439 N   0  0  0  0  0  0  0  0  0  0  0  0
   27.0603  -20.1488  -13.9707 C   0  0  1  0  0  0  0  0  0  0  0  0
   26.4547  -20.0108  -15.3189 C   0  0  0  0  0  0  0  0  0  0  0  0
   27.1388  -18.9319  -16.0720 C   0  0  0  0  0  0  0  0  0  0  0  0
   27.9755  -19.0870  -17.1798 C   0  0  0  0  0  0  0  0  0  0  0  0
   28.3883  -17.8914  -17.6285 N   0  0  0  0  0  0  0  0  0  0  0  0
   27.8464  -16.9400  -16.8444 C   0  0  0  0  0  0  0  0  0  0  0  0
   27.9446  -15.5673  -16.8533 C   0  0  0  0  0  0  0  0  0  0  0  0
   27.2763  -14.8355  -15.9047 C   0  0  0  0  0  0  0  0  0  0  0  0
   26.5102  -15.4570  -14.9454 C   0  0  0  0  0  0  0  0  0  0  0  0
   26.4015  -16.8363  -14.9238 C   0  0  0  0  0  0  0  0  0  0  0  0
   27.0663  -17.5659  -15.8696 C   0  0  0  0  0  0  0  0  0  0  0  0
   26.1640  -20.9037  -13.0244 C   0  0  0  0  0  0  0  0  0  0  0  0
   26.0961  -22.1582  -13.0729 O   0  0  0  0  0  0  0  0  0  0  0  0
   29.3646  -20.7089   -7.3095 O   0  0  0  0  0  0  0  0  0  0  0  0
   28.1162  -20.5721   -7.9307 C   0  0  0  0  0  0  0  0  0  0  0  0
   27.6586  -21.6415   -8.6864 C   0  0  0  0  0  0  0  0  0  0  0  0
   26.4194  -21.5683   -9.3325 C   0  0  0  0  0  0  0  0  0  0  0  0
   25.6700  -20.4340   -9.2092 C   0  0  0  0  0  0  0  0  0  0  0  0
   24.3605  -20.3225   -9.8757 C   0  0  0  0  0  0  0  0  0  0  0  0
   24.4104  -20.9612  -11.2168 C   0  0  2  0  0  0  0  0  0  0  0  0
   25.3626  -20.2580  -12.0463 N   0  0  0  0  0  0  0  0  0  0  0  0
   23.1565  -21.1086  -11.9245 C   0  0  0  0  0  0  0  0  0  0  0  0
   22.7156  -20.0723  -12.5408 O   0  0  0  0  0  0  0  0  0  0  0  0
   26.1280  -19.3862   -8.4634 C   0  0  0  0  0  0  0  0  0  0  0  0
   27.3557  -19.4391   -7.8141 C   0  0  0  0  0  0  0  0  0  0  0  0
   22.3709  -22.2645  -12.0090 N   0  0  0  0  0  0  0  0  0  0  0  0
   21.1989  -22.3306  -12.8411 C   0  0  0  0  0  0  0  0  0  0  0  0
   19.9452  -22.1870  -12.0681 C   0  0  0  0  0  0  0  0  0  0  0  0
   18.6786  -22.1827  -12.6074 O   0  0  0  0  0  0  0  0  0  0  0  0
   20.0614  -22.0597  -10.8204 O   0  0  0  0  0  0  0  0  0  0  0  0
  2  1  1  6
  2  3  1  0
  4  3  1  0
  4  5  2  0
  6  5  1  0
  7  6  1  0
  8  7  2  0
  9  8  1  0
 10  9  2  0
 10 11  1  0
 11 12  2  0
 12  7  1  0
 12  4  1  0
 13  2  1  0
 13 14  2  0
 16 26  2  0
 16 15  1  0
 17 16  1  0
 18 19  1  0
 18 17  2  0
 19 25  2  0
 20 19  1  0
 21 20  1  1
 21 22  1  0
 22 13  1  0
 23 21  1  0
 24 23  2  0
 25 26  1  0
 27 23  1  0
 28 27  1  0
 29 28  1  0
 30 29  1  0
 31 29  2  0
M  END
$$$$
