WYG.pdb
     RDKit          3D

 31 33  0  0  1  0  0  0  0  0999 V2000
   26.1629  -19.4373  -10.0762 N   0  0  0  0  0  0  0  0  0  0  0  0
   27.1897  -20.4397   -9.9620 C   0  0  1  0  0  0  0  0  0  0  0  0
   27.0509  -21.1939   -8.6910 C   0  0  0  0  0  0  0  0  0  0  0  0
   27.2343  -20.2791   -7.5382 C   0  0  0  0  0  0  0  0  0  0  0  0
   26.3057  -19.3595   -7.0451 C   0  0  0  0  0  0  0  0  0  0  0  0
   26.7964  -18.7272   -5.9678 N   0  0  0  0  0  0  0  0  0  0  0  0
   28.0336  -19.2033   -5.7303 C   0  0  0  0  0  0  0  0  0  0  0  0
   28.9723  -18.9015   -4.7702 C   0  0  0  0  0  0  0  0  0  0  0  0
   30.1800  -19.5524   -4.7773 C   0  0  0  0  0  0  0  0  0  0  0  0
   30.4634  -20.5021   -5.7319 C   0  0  0  0  0  0  0  0  0  0  0  0
   29.5295  -20.8166   -6.7034 C   0  0  0  0  0  0  0  0  0  0  0  0
   28.3256  -20.1691   -6.6959 C   0  0  0  0  0  0  0  0  0  0  0  0
   27.0945  -21.3405  -11.1655 C   0  0  0  0  0  0  0  0  0  0  0  0
   27.8635  -22.3278  -11.2865 O   0  0  0  0  0  0  0  0  0  0  0  0
   20.5646  -19.0291  -12.8316 O   0  0  0  0  0  0  0  0  0  0  0  0
   21.6313  -19.9275  -12.9658 C   0  0  0  0  0  0  0  0  0  0  0  0
   22.0762  -20.2029  -14.2504 C   0  0  0  0  0  0  0  0  0  0  0  0
   23.1381  -21.0917  -14.4526 C   0  0  0  0  0  0  0  0  0  0  0  0
   23.7279  -21.6816  -13.3720 C   0  0  0  0  0  0  0  0  0  0  0  0
   24.8484  -22.6223  -13.5479 C   0  0  0  0  0  0  0  0  0  0  0  0
   26.1449  -21.9052  -13.4293 C   0  0  2  0  0  0  0  0  0  0  0  0
   26.1538  -21.1319  -12.2082 N   0  0  0  0  0  0  0  0  0  0  0  0
   26.5414  -21.0702  -14.5430 C   0  0  0  0  0  0  0  0  0  0  0  0
   26.5277  -21.6134  -15.7061 O   0  0  0  0  0  0  0  0  0  0  0  0
   23.2836  -21.4048  -12.1111 C   0  0  0  0  0  0  0  0  0  0  0  0
   22.2306  -20.5253  -11.8892 C   0  0  0  0  0  0  0  0  0  0  0  0
   26.9393  -19.7289  -14.4869 N   0  0  0  0  0  0  0  0  0  0  0  0
   26.6147  -18.7931  -15.5305 C   0  0  0  0  0  0  0  0  0  0  0  0
   27.5711  -18.8467  -16.6584 C   0  0  0  0  0  0  0  0  0  0  0  0
   28.3098  -19.9513  -17.0183 O   0  0  0  0  0  0  0  0  0  0  0  0
   27.7098  -17.7922  -17.3332 O   0  0  0  0  0  0  0  0  0  0  0  0
  2  1  1  6
  2  3  1  0
  4  3  1  0
  4  5  2  0
  6  5  1  0
  7  6  1  0
  8  7  2  0
  9  8  1  0
 10  9  2  0
 10 11  1  0
 11 12  2  0
 12  7  1  0
 12  4  1  0
 13  2  1  0
 13 14  2  0
 16 26  2  0
 16 15  1  0
 17 16  1  0
 18 19  1  0
 18 17  2  0
 19 25  2  0
 20 19  1  0
 21 20  1  6
 21 22  1  0
 22 13  1  0
 23 21  1  0
 24 23  2  0
 25 26  1  0
 27 23  1  0
 28 27  1  0
 29 28  1  0
 30 29  1  0
 31 29  2  0
M  END
$$$$
