WYG.pdb
     RDKit          3D

 31 33  0  0  1  0  0  0  0  0999 V2000
   29.7140  -19.5360  -18.7329 N   0  0  0  0  0  0  0  0  0  0  0  0
   28.5136  -19.3238  -17.9672 C   0  0  1  0  0  0  0  0  0  0  0  0
   27.6785  -18.2606  -18.5802 C   0  0  0  0  0  0  0  0  0  0  0  0
   28.2422  -16.9271  -18.2585 C   0  0  0  0  0  0  0  0  0  0  0  0
   28.9586  -16.0927  -19.1197 C   0  0  0  0  0  0  0  0  0  0  0  0
   29.2818  -14.9457  -18.5023 N   0  0  0  0  0  0  0  0  0  0  0  0
   28.7978  -14.9952  -17.2465 C   0  0  0  0  0  0  0  0  0  0  0  0
   28.8504  -14.1041  -16.1991 C   0  0  0  0  0  0  0  0  0  0  0  0
   28.2657  -14.4322  -15.0022 C   0  0  0  0  0  0  0  0  0  0  0  0
   27.6282  -15.6405  -14.8369 C   0  0  0  0  0  0  0  0  0  0  0  0
   27.5668  -16.5466  -15.8809 C   0  0  0  0  0  0  0  0  0  0  0  0
   28.1483  -16.2195  -17.0741 C   0  0  0  0  0  0  0  0  0  0  0  0
   27.7805  -20.6367  -17.8803 C   0  0  0  0  0  0  0  0  0  0  0  0
   27.8298  -21.4597  -18.8295 O   0  0  0  0  0  0  0  0  0  0  0  0
   23.9883  -27.9101  -15.0539 O   0  0  0  0  0  0  0  0  0  0  0  0
   24.7066  -26.7142  -15.1828 C   0  0  0  0  0  0  0  0  0  0  0  0
   24.2019  -25.5938  -14.5391 C   0  0  0  0  0  0  0  0  0  0  0  0
   24.8721  -24.3685  -14.6284 C   0  0  0  0  0  0  0  0  0  0  0  0
   26.0252  -24.2915  -15.3550 C   0  0  0  0  0  0  0  0  0  0  0  0
   26.7569  -23.0176  -15.4702 C   0  0  0  0  0  0  0  0  0  0  0  0
   26.2911  -22.2635  -16.6633 C   0  0  2  0  0  0  0  0  0  0  0  0
   27.0095  -21.0122  -16.7488 N   0  0  0  0  0  0  0  0  0  0  0  0
   24.8686  -22.0226  -16.7777 C   0  0  0  0  0  0  0  0  0  0  0  0
   24.4149  -20.9626  -16.2131 O   0  0  0  0  0  0  0  0  0  0  0  0
   26.5149  -25.3991  -15.9852 C   0  0  0  0  0  0  0  0  0  0  0  0
   25.8643  -26.6248  -15.9089 C   0  0  0  0  0  0  0  0  0  0  0  0
   23.9317  -22.8247  -17.4406 N   0  0  0  0  0  0  0  0  0  0  0  0
   22.5265  -22.5151  -17.4395 C   0  0  0  0  0  0  0  0  0  0  0  0
   21.7722  -23.3051  -16.4410 C   0  0  0  0  0  0  0  0  0  0  0  0
   20.8307  -22.7955  -15.5756 O   0  0  0  0  0  0  0  0  0  0  0  0
   22.0214  -24.5387  -16.3904 O   0  0  0  0  0  0  0  0  0  0  0  0
  2  1  1  6
  2  3  1  0
  4  3  1  0
  4  5  2  0
  6  5  1  0
  7  6  1  0
  8  7  2  0
  9  8  1  0
 10  9  2  0
 10 11  1  0
 11 12  2  0
 12  7  1  0
 12  4  1  0
 13  2  1  0
 13 14  2  0
 16 26  2  0
 16 15  1  0
 17 16  1  0
 18 19  1  0
 18 17  2  0
 19 25  2  0
 20 19  1  0
 21 20  1  1
 21 22  1  0
 22 13  1  0
 23 21  1  0
 24 23  2  0
 25 26  1  0
 27 23  1  0
 28 27  1  0
 29 28  1  0
 30 29  1  0
 31 29  2  0
M  END
$$$$
