WYG.pdb
     RDKit          3D

 31 33  0  0  1  0  0  0  0  0999 V2000
   22.6580  -18.1032  -16.4909 N   0  0  0  0  0  0  0  0  0  0  0  0
   22.4865  -19.1270  -15.4935 C   0  0  1  0  0  0  0  0  0  0  0  0
   21.9731  -20.3782  -16.1055 C   0  0  0  0  0  0  0  0  0  0  0  0
   20.4935  -20.4157  -16.0130 C   0  0  0  0  0  0  0  0  0  0  0  0
   19.5873  -20.3210  -17.0718 C   0  0  0  0  0  0  0  0  0  0  0  0
   18.3271  -20.4306  -16.6235 N   0  0  0  0  0  0  0  0  0  0  0  0
   18.3707  -20.5957  -15.2877 C   0  0  0  0  0  0  0  0  0  0  0  0
   17.3828  -20.7476  -14.3416 C   0  0  0  0  0  0  0  0  0  0  0  0
   17.7271  -20.8884  -13.0211 C   0  0  0  0  0  0  0  0  0  0  0  0
   19.0469  -20.8792  -12.6319 C   0  0  0  0  0  0  0  0  0  0  0  0
   20.0514  -20.7278  -13.5715 C   0  0  0  0  0  0  0  0  0  0  0  0
   19.7087  -20.5887  -14.8876 C   0  0  0  0  0  0  0  0  0  0  0  0
   23.8125  -19.3361  -14.8105 C   0  0  0  0  0  0  0  0  0  0  0  0
   24.8829  -18.9974  -15.3765 O   0  0  0  0  0  0  0  0  0  0  0  0
   30.5131  -21.5164   -9.8259 O   0  0  0  0  0  0  0  0  0  0  0  0
   29.3659  -20.9827  -10.4275 C   0  0  0  0  0  0  0  0  0  0  0  0
   28.1568  -21.1685   -9.7734 C   0  0  0  0  0  0  0  0  0  0  0  0
   26.9740  -20.6600  -10.3217 C   0  0  0  0  0  0  0  0  0  0  0  0
   27.0263  -19.9811  -11.5049 C   0  0  0  0  0  0  0  0  0  0  0  0
   25.8004  -19.4320  -12.1109 C   0  0  0  0  0  0  0  0  0  0  0  0
   25.1690  -20.4427  -12.9991 C   0  0  2  0  0  0  0  0  0  0  0  0
   23.9282  -19.9142  -13.5188 N   0  0  0  0  0  0  0  0  0  0  0  0
   24.9480  -21.7616  -12.4453 C   0  0  0  0  0  0  0  0  0  0  0  0
   23.8817  -21.9247  -11.7493 O   0  0  0  0  0  0  0  0  0  0  0  0
   28.2205  -19.8028  -12.1419 C   0  0  0  0  0  0  0  0  0  0  0  0
   29.4062  -20.2999  -11.6140 C   0  0  0  0  0  0  0  0  0  0  0  0
   25.7756  -22.8818  -12.5885 N   0  0  0  0  0  0  0  0  0  0  0  0
   26.1300  -23.4078  -13.8800 C   0  0  0  0  0  0  0  0  0  0  0  0
   25.0498  -24.2254  -14.4756 C   0  0  0  0  0  0  0  0  0  0  0  0
   24.9088  -25.5859  -14.3196 O   0  0  0  0  0  0  0  0  0  0  0  0
   24.2002  -23.6154  -15.1775 O   0  0  0  0  0  0  0  0  0  0  0  0
  2  1  1  6
  2  3  1  0
  4  3  1  0
  4  5  2  0
  6  5  1  0
  7  6  1  0
  8  7  2  0
  9  8  1  0
 10  9  2  0
 10 11  1  0
 11 12  2  0
 12  7  1  0
 12  4  1  0
 13  2  1  0
 13 14  2  0
 16 26  2  0
 16 15  1  0
 17 16  1  0
 18 19  1  0
 18 17  2  0
 19 25  2  0
 20 19  1  0
 21 20  1  1
 21 22  1  0
 22 13  1  0
 23 21  1  0
 24 23  2  0
 25 26  1  0
 27 23  1  0
 28 27  1  0
 29 28  1  0
 30 29  1  0
 31 29  2  0
M  END
$$$$
