CTG.pdb
     RDKit          3D

 18 17  0  0  1  0  0  0  0  0999 V2000
   28.0756  -21.4062  -10.9572 N   0  0  0  0  0  0  0  0  0  0  0  0
   26.6650  -21.3797  -10.7467 C   0  0  1  0  0  0  0  0  0  0  0  0
   26.2680  -20.6525   -9.4799 C   0  0  0  0  0  0  0  0  0  0  0  0
   24.5081  -20.7240   -9.1650 S   0  0  0  0  0  0  0  0  0  0  0  0
   25.9566  -20.8359  -11.9344 C   0  0  0  0  0  0  0  0  0  0  0  0
   26.2119  -19.6910  -12.3905 O   0  0  0  0  0  0  0  0  0  0  0  0
   23.8251  -21.4404  -16.1960 C   0  0  0  0  0  0  0  0  0  0  0  0
   24.5137  -21.8693  -14.9475 C   0  0  1  0  0  0  0  0  0  0  0  0
   25.8916  -21.9076  -15.1538 O   0  0  0  0  0  0  0  0  0  0  0  0
   24.2068  -21.0050  -13.7529 C   0  0  2  0  0  0  0  0  0  0  0  0
   24.9509  -21.5765  -12.6232 N   0  0  0  0  0  0  0  0  0  0  0  0
   22.7691  -20.9066  -13.4548 C   0  0  0  0  0  0  0  0  0  0  0  0
   22.2007  -21.8336  -12.8225 O   0  0  0  0  0  0  0  0  0  0  0  0
   21.9454  -19.8060  -13.8402 N   0  0  0  0  0  0  0  0  0  0  0  0
   20.5642  -19.6804  -13.4928 C   0  0  0  0  0  0  0  0  0  0  0  0
   19.6827  -20.5569  -14.3052 C   0  0  0  0  0  0  0  0  0  0  0  0
   18.3238  -20.6748  -14.0586 O   0  0  0  0  0  0  0  0  0  0  0  0
   20.1562  -21.2282  -15.2573 O   0  0  0  0  0  0  0  0  0  0  0  0
  2  1  1  6
  2  3  1  0
  3  4  1  0
  5  6  2  0
  5  2  1  0
  8  7  1  6
  8  9  1  0
  8 10  1  0
 10 11  1  1
 11  5  1  0
 12 10  1  0
 12 14  1  0
 13 12  2  0
 15 14  1  0
 15 16  1  0
 16 17  1  0
 18 16  2  0
M  END
$$$$
