CTG.pdb
     RDKit          3D

 18 17  0  0  1  0  0  0  0  0999 V2000
   18.6973  -12.1923  -16.8220 N   0  0  0  0  0  0  0  0  0  0  0  0
   18.5662  -10.9422  -16.1476 C   0  0  1  0  0  0  0  0  0  0  0  0
   17.9542  -11.0731  -14.7694 C   0  0  0  0  0  0  0  0  0  0  0  0
   16.2997  -11.7532  -14.8100 S   0  0  0  0  0  0  0  0  0  0  0  0
   19.8637  -10.2191  -16.1034 C   0  0  0  0  0  0  0  0  0  0  0  0
   20.9080  -10.7018  -16.6137 O   0  0  0  0  0  0  0  0  0  0  0  0
   21.2443   -8.9065  -18.0432 C   0  0  0  0  0  0  0  0  0  0  0  0
   21.2552   -7.7422  -17.1152 C   0  0  1  0  0  0  0  0  0  0  0  0
   20.1941   -6.8884  -17.4112 O   0  0  0  0  0  0  0  0  0  0  0  0
   21.2054   -8.1217  -15.6585 C   0  0  2  0  0  0  0  0  0  0  0  0
   20.0002   -8.9421  -15.4829 N   0  0  0  0  0  0  0  0  0  0  0  0
   21.2039   -6.9633  -14.7511 C   0  0  0  0  0  0  0  0  0  0  0  0
   20.1198   -6.3832  -14.4855 O   0  0  0  0  0  0  0  0  0  0  0  0
   22.3746   -6.4314  -14.1304 N   0  0  0  0  0  0  0  0  0  0  0  0
   22.3763   -5.2852  -13.2758 C   0  0  0  0  0  0  0  0  0  0  0  0
   22.1383   -4.0169  -14.0107 C   0  0  0  0  0  0  0  0  0  0  0  0
   22.0231   -2.7960  -13.3645 O   0  0  0  0  0  0  0  0  0  0  0  0
   22.0331   -4.0181  -15.2638 O   0  0  0  0  0  0  0  0  0  0  0  0
  2  1  1  1
  2  3  1  0
  3  4  1  0
  5  6  2  0
  5  2  1  0
  8  7  1  6
  8  9  1  0
  8 10  1  0
 10 11  1  6
 11  5  1  0
 12 10  1  0
 12 14  1  0
 13 12  2  0
 15 14  1  0
 15 16  1  0
 16 17  1  0
 18 16  2  0
M  END
$$$$
