CTG.pdb
     RDKit          3D

 18 17  0  0  1  0  0  0  0  0999 V2000
   17.8196  -12.3338  -16.0490 N   0  0  0  0  0  0  0  0  0  0  0  0
   17.7279  -10.9192  -16.2072 C   0  0  1  0  0  0  0  0  0  0  0  0
   16.3439  -10.3786  -15.9180 C   0  0  0  0  0  0  0  0  0  0  0  0
   15.1179  -10.9586  -17.0852 S   0  0  0  0  0  0  0  0  0  0  0  0
   18.7660  -10.2222  -15.4044 C   0  0  0  0  0  0  0  0  0  0  0  0
   18.8956  -10.4268  -14.1694 O   0  0  0  0  0  0  0  0  0  0  0  0
   22.3122  -10.4826  -15.7003 C   0  0  0  0  0  0  0  0  0  0  0  0
   22.0321   -9.0228  -15.7855 C   0  0  1  0  0  0  0  0  0  0  0  0
   22.0909   -8.6042  -17.1136 O   0  0  0  0  0  0  0  0  0  0  0  0
   20.7100   -8.6186  -15.1878 C   0  0  2  0  0  0  0  0  0  0  0  0
   19.6718   -9.2852  -15.9842 N   0  0  0  0  0  0  0  0  0  0  0  0
   20.5054   -7.1619  -15.1494 C   0  0  0  0  0  0  0  0  0  0  0  0
   19.6637   -6.6320  -15.9195 O   0  0  0  0  0  0  0  0  0  0  0  0
   21.2108   -6.2774  -14.2784 N   0  0  0  0  0  0  0  0  0  0  0  0
   21.0417   -4.8577  -14.2719 C   0  0  0  0  0  0  0  0  0  0  0  0
   21.8847   -4.1807  -13.2539 C   0  0  0  0  0  0  0  0  0  0  0  0
   21.9812   -2.8004  -13.1703 O   0  0  0  0  0  0  0  0  0  0  0  0
   22.5461   -4.8561  -12.4246 O   0  0  0  0  0  0  0  0  0  0  0  0
  2  1  1  1
  2  3  1  0
  3  4  1  0
  5  6  2  0
  5  2  1  0
  8  7  1  6
  8  9  1  0
  8 10  1  0
 10 11  1  6
 11  5  1  0
 12 10  1  0
 12 14  1  0
 13 12  2  0
 15 14  1  0
 15 16  1  0
 16 17  1  0
 18 16  2  0
M  END
$$$$
