CTG.pdb
     RDKit          3D

 18 17  0  0  1  0  0  0  0  0999 V2000
   25.7025  -11.8257  -17.8428 N   0  0  0  0  0  0  0  0  0  0  0  0
   25.9315  -10.8990  -16.7828 C   0  0  1  0  0  0  0  0  0  0  0  0
   27.4009  -10.6376  -16.5307 C   0  0  0  0  0  0  0  0  0  0  0  0
   28.1873  -11.9513  -15.6048 S   0  0  0  0  0  0  0  0  0  0  0  0
   25.1814   -9.6356  -17.0050 C   0  0  0  0  0  0  0  0  0  0  0  0
   25.4631   -8.8566  -17.9525 O   0  0  0  0  0  0  0  0  0  0  0  0
   22.0256   -9.2894  -18.1724 C   0  0  0  0  0  0  0  0  0  0  0  0
   21.9713   -8.4875  -16.9190 C   0  0  1  0  0  0  0  0  0  0  0  0
   21.3389   -9.2179  -15.9144 O   0  0  0  0  0  0  0  0  0  0  0  0
   23.3189   -8.0231  -16.4322 C   0  0  2  0  0  0  0  0  0  0  0  0
   24.1038   -9.2342  -16.1611 N   0  0  0  0  0  0  0  0  0  0  0  0
   23.2458   -7.1535  -15.2474 C   0  0  0  0  0  0  0  0  0  0  0  0
   23.7771   -7.5257  -14.1697 O   0  0  0  0  0  0  0  0  0  0  0  0
   22.5984   -5.8811  -15.2273 N   0  0  0  0  0  0  0  0  0  0  0  0
   22.5867   -5.0074  -14.0956 C   0  0  0  0  0  0  0  0  0  0  0  0
   21.8496   -3.7435  -14.3497 C   0  0  0  0  0  0  0  0  0  0  0  0
   21.6697   -2.7802  -13.3694 O   0  0  0  0  0  0  0  0  0  0  0  0
   21.3597   -3.5101  -15.4842 O   0  0  0  0  0  0  0  0  0  0  0  0
  2  1  1  6
  2  3  1  0
  3  4  1  0
  5  6  2  0
  5  2  1  0
  8  7  1  6
  8  9  1  0
  8 10  1  0
 10 11  1  1
 11  5  1  0
 12 10  1  0
 12 14  1  0
 13 12  2  0
 15 14  1  0
 15 16  1  0
 16 17  1  0
 18 16  2  0
M  END
$$$$
