CTG.pdb
     RDKit          3D

 18 17  0  0  1  0  0  0  0  0999 V2000
   25.7319  -22.1015   -9.9534 N   0  0  0  0  0  0  0  0  0  0  0  0
   25.7731  -20.7122  -10.2738 C   0  0  1  0  0  0  0  0  0  0  0  0
   26.8400  -19.9586   -9.5090 C   0  0  0  0  0  0  0  0  0  0  0  0
   26.3941  -19.6746   -7.7995 S   0  0  0  0  0  0  0  0  0  0  0  0
   25.9012  -20.5044  -11.7396 C   0  0  0  0  0  0  0  0  0  0  0  0
   26.9823  -20.7202  -12.3467 O   0  0  0  0  0  0  0  0  0  0  0  0
   24.1544  -22.3890  -13.9818 C   0  0  0  0  0  0  0  0  0  0  0  0
   25.1521  -21.3998  -14.4744 C   0  0  1  0  0  0  0  0  0  0  0  0
   25.1992  -21.4254  -15.8672 O   0  0  0  0  0  0  0  0  0  0  0  0
   24.8992  -19.9913  -14.0046 C   0  0  2  0  0  0  0  0  0  0  0  0
   24.8113  -20.0503  -12.5399 N   0  0  0  0  0  0  0  0  0  0  0  0
   23.6933  -19.3857  -14.5914 C   0  0  0  0  0  0  0  0  0  0  0  0
   22.5769  -19.5640  -14.0398 O   0  0  0  0  0  0  0  0  0  0  0  0
   23.6937  -18.5870  -15.7749 N   0  0  0  0  0  0  0  0  0  0  0  0
   22.5707  -17.8263  -16.2270 C   0  0  0  0  0  0  0  0  0  0  0  0
   21.5173  -18.6672  -16.8505 C   0  0  0  0  0  0  0  0  0  0  0  0
   20.2508  -18.1801  -17.1335 O   0  0  0  0  0  0  0  0  0  0  0  0
   21.7523  -19.8673  -17.1438 O   0  0  0  0  0  0  0  0  0  0  0  0
  2  1  1  6
  2  3  1  0
  3  4  1  0
  5  6  2  0
  5  2  1  0
  8  7  1  6
  8  9  1  0
  8 10  1  0
 10 11  1  1
 11  5  1  0
 12 10  1  0
 12 14  1  0
 13 12  2  0
 15 14  1  0
 15 16  1  0
 16 17  1  0
 18 16  2  0
M  END
$$$$
