CTG.pdb
     RDKit          3D

 18 17  0  0  1  0  0  0  0  0999 V2000
   18.5141  -10.4862  -15.8443 N   0  0  0  0  0  0  0  0  0  0  0  0
   19.7813  -11.1410  -15.8536 C   0  0  1  0  0  0  0  0  0  0  0  0
   19.9044  -12.1791  -16.9483 C   0  0  0  0  0  0  0  0  0  0  0  0
   18.8459  -13.5963  -16.6786 S   0  0  0  0  0  0  0  0  0  0  0  0
   20.8926  -10.1559  -15.9066 C   0  0  0  0  0  0  0  0  0  0  0  0
   22.0973  -10.5129  -15.8355 O   0  0  0  0  0  0  0  0  0  0  0  0
   22.1451   -8.1715  -18.4928 C   0  0  0  0  0  0  0  0  0  0  0  0
   21.8055   -7.1906  -17.4254 C   0  0  1  0  0  0  0  0  0  0  0  0
   20.5849   -6.5813  -17.7107 O   0  0  0  0  0  0  0  0  0  0  0  0
   21.7611   -7.7843  -16.0419 C   0  0  2  0  0  0  0  0  0  0  0  0
   20.6593   -8.7552  -16.0404 N   0  0  0  0  0  0  0  0  0  0  0  0
   21.5944   -6.7805  -14.9789 C   0  0  0  0  0  0  0  0  0  0  0  0
   20.4374   -6.4417  -14.6200 O   0  0  0  0  0  0  0  0  0  0  0  0
   22.6786   -6.1427  -14.3033 N   0  0  0  0  0  0  0  0  0  0  0  0
   22.5148   -5.1697  -13.2687 C   0  0  0  0  0  0  0  0  0  0  0  0
   22.1220   -3.8351  -13.7884 C   0  0  0  0  0  0  0  0  0  0  0  0
   21.9547   -2.7367  -12.9596 O   0  0  0  0  0  0  0  0  0  0  0  0
   21.9271   -3.6639  -15.0189 O   0  0  0  0  0  0  0  0  0  0  0  0
  2  1  1  6
  2  3  1  0
  3  4  1  0
  5  6  2  0
  5  2  1  0
  8  7  1  6
  8  9  1  0
  8 10  1  0
 10 11  1  6
 11  5  1  0
 12 10  1  0
 12 14  1  0
 13 12  2  0
 15 14  1  0
 15 16  1  0
 16 17  1  0
 18 16  2  0
M  END
$$$$
