CTG.pdb
     RDKit          3D

 18 17  0  0  1  0  0  0  0  0999 V2000
   24.7830  -20.9329   -8.2777 N   0  0  0  0  0  0  0  0  0  0  0  0
   25.9190  -20.1430   -8.6244 C   0  0  1  0  0  0  0  0  0  0  0  0
   27.1461  -20.4764   -7.8033 C   0  0  0  0  0  0  0  0  0  0  0  0
   27.2183  -19.5624   -6.2667 S   0  0  0  0  0  0  0  0  0  0  0  0
   26.1990  -20.2187  -10.0818 C   0  0  0  0  0  0  0  0  0  0  0  0
   27.3250  -20.5684  -10.5221 O   0  0  0  0  0  0  0  0  0  0  0  0
   27.0679  -21.8447  -11.8423 C   0  0  0  0  0  0  0  0  0  0  0  0
   25.9615  -21.4161  -12.7418 C   0  0  1  0  0  0  0  0  0  0  0  0
   24.8861  -22.2950  -12.6246 O   0  0  0  0  0  0  0  0  0  0  0  0
   25.4890  -20.0066  -12.5001 C   0  0  2  0  0  0  0  0  0  0  0  0
   25.2125  -19.9009  -11.0617 N   0  0  0  0  0  0  0  0  0  0  0  0
   24.3117  -19.6378  -13.3022 C   0  0  0  0  0  0  0  0  0  0  0  0
   23.1602  -19.7714  -12.8137 O   0  0  0  0  0  0  0  0  0  0  0  0
   24.3788  -19.1245  -14.6328 N   0  0  0  0  0  0  0  0  0  0  0  0
   23.2505  -18.6254  -15.3554 C   0  0  0  0  0  0  0  0  0  0  0  0
   22.4058  -19.7060  -15.9249 C   0  0  0  0  0  0  0  0  0  0  0  0
   21.3317  -19.4445  -16.7611 O   0  0  0  0  0  0  0  0  0  0  0  0
   22.6484  -20.9106  -15.6575 O   0  0  0  0  0  0  0  0  0  0  0  0
  2  1  1  6
  2  3  1  0
  3  4  1  0
  5  6  2  0
  5  2  1  0
  8  7  1  1
  8  9  1  0
  8 10  1  0
 10 11  1  1
 11  5  1  0
 12 10  1  0
 12 14  1  0
 13 12  2  0
 15 14  1  0
 15 16  1  0
 16 17  1  0
 18 16  2  0
M  END
$$$$
