FLD.pdb
     RDKit          3D

 28 28  0  0  1  0  0  0  0  0999 V2000
    6.0163  -17.5773   25.2672 N   0  0  0  0  0  0  0  0  0  0  0  0
    6.7017  -16.3160   25.0217 C   0  0  1  0  0  0  0  0  0  0  0  0
    7.5882  -15.9073   26.1599 C   0  0  0  0  0  0  0  0  0  0  0  0
    7.4988  -14.4502   26.4478 C   0  0  0  0  0  0  0  0  0  0  0  0
    6.2407  -13.8988   26.5667 C   0  0  0  0  0  0  0  0  0  0  0  0
    6.0164  -12.5586   26.8332 C   0  0  0  0  0  0  0  0  0  0  0  0
    7.1439  -11.7751   26.9790 C   0  0  0  0  0  0  0  0  0  0  0  0
    8.4056  -12.2997   26.8654 C   0  0  0  0  0  0  0  0  0  0  0  0
    8.6049  -13.6552   26.5961 C   0  0  0  0  0  0  0  0  0  0  0  0
    7.5298  -16.4739   23.8073 C   0  0  0  0  0  0  0  0  0  0  0  0
    7.7968  -17.6339   23.4194 O   0  0  0  0  0  0  0  0  0  0  0  0
    6.3640  -14.1748   20.3517 C   0  0  0  0  0  0  0  0  0  0  0  0
    7.5308  -13.4332   21.0286 C   0  0  2  0  0  0  0  0  0  0  0  0
    7.6519  -12.1045   20.3696 C   0  0  0  0  0  0  0  0  0  0  0  0
    8.7091  -14.3295   20.9488 C   0  0  0  0  0  0  0  0  0  0  0  0
    8.6005  -15.5598   21.7872 C   0  0  2  0  0  0  0  0  0  0  0  0
    8.0217  -15.3742   23.0855 N   0  0  0  0  0  0  0  0  0  0  0  0
    9.9105  -16.2468   21.9225 C   0  0  0  0  0  0  0  0  0  0  0  0
   10.4840  -16.7201   20.9237 O   0  0  0  0  0  0  0  0  0  0  0  0
   10.5154  -16.3671   23.1906 N   0  0  0  0  0  0  0  0  0  0  0  0
   11.9622  -16.4857   23.2699 C   0  0  1  0  0  0  0  0  0  0  0  0
   12.6078  -15.2556   22.6598 C   0  0  0  0  0  0  0  0  0  0  0  0
   14.0759  -15.3069   22.6446 C   0  0  0  0  0  0  0  0  0  0  0  0
   14.7668  -15.5955   23.6540 O   0  0  0  0  0  0  0  0  0  0  0  0
   12.3330  -16.6379   24.6939 C   0  0  0  0  0  0  0  0  0  0  0  0
   11.3881  -16.6586   25.7152 O   0  0  0  0  0  0  0  0  0  0  0  0
   14.7998  -15.0301   21.4755 O   0  0  0  0  0  0  0  0  0  0  0  0
   13.5558  -16.7523   24.9839 O   0  0  0  0  0  0  0  0  0  0  0  0
  2 10  1  0
  2  1  1  1
  2  3  1  0
  3  4  1  0
  4  5  2  0
  4  9  1  0
  5  6  1  0
  6  7  2  0
  8  7  1  0
  9  8  2  0
 10 17  1  0
 11 10  2  0
 13 12  1  6
 13 14  1  0
 15 13  1  0
 16 15  1  1
 17 16  1  0
 18 19  2  0
 18 16  1  0
 20 18  1  0
 21 22  1  1
 21 20  1  0
 23 22  1  0
 24 23  2  0
 25 21  1  0
 26 25  1  0
 27 23  1  0
 28 25  2  0
M  END
$$$$
