FLD.pdb
     RDKit          3D

 28 28  0  0  1  0  0  0  0  0999 V2000
    5.9613  -17.4350   25.3352 N   0  0  0  0  0  0  0  0  0  0  0  0
    6.6711  -16.2113   24.9896 C   0  0  1  0  0  0  0  0  0  0  0  0
    7.6042  -15.7573   26.0721 C   0  0  0  0  0  0  0  0  0  0  0  0
    7.3734  -14.3383   26.4556 C   0  0  0  0  0  0  0  0  0  0  0  0
    8.4554  -13.6161   26.9123 C   0  0  0  0  0  0  0  0  0  0  0  0
    8.3788  -12.2891   27.3007 C   0  0  0  0  0  0  0  0  0  0  0  0
    7.1319  -11.7037   27.2071 C   0  0  0  0  0  0  0  0  0  0  0  0
    6.0407  -12.4006   26.7561 C   0  0  0  0  0  0  0  0  0  0  0  0
    6.1444  -13.7385   26.3702 C   0  0  0  0  0  0  0  0  0  0  0  0
    7.4552  -16.4679   23.7629 C   0  0  0  0  0  0  0  0  0  0  0  0
    7.6592  -17.6570   23.4286 O   0  0  0  0  0  0  0  0  0  0  0  0
    6.4012  -14.4802   20.1485 C   0  0  0  0  0  0  0  0  0  0  0  0
    7.5670  -13.7003   20.7826 C   0  0  2  0  0  0  0  0  0  0  0  0
    7.6970  -12.4176   20.0394 C   0  0  0  0  0  0  0  0  0  0  0  0
    8.7423  -14.6040   20.7682 C   0  0  0  0  0  0  0  0  0  0  0  0
    8.6651  -15.7246   21.7513 C   0  0  2  0  0  0  0  0  0  0  0  0
    7.9738  -15.4297   22.9720 N   0  0  0  0  0  0  0  0  0  0  0  0
   10.0102  -16.2718   22.0636 C   0  0  0  0  0  0  0  0  0  0  0  0
   10.6718  -16.8639   21.1905 O   0  0  0  0  0  0  0  0  0  0  0  0
   10.5484  -16.1225   23.3583 N   0  0  0  0  0  0  0  0  0  0  0  0
   11.8399  -16.7206   23.6551 C   0  0  1  0  0  0  0  0  0  0  0  0
   12.9191  -15.6556   23.5977 C   0  0  0  0  0  0  0  0  0  0  0  0
   14.0304  -15.9909   22.6973 C   0  0  0  0  0  0  0  0  0  0  0  0
   13.9416  -16.8456   21.7802 O   0  0  0  0  0  0  0  0  0  0  0  0
   11.7628  -17.3370   24.9978 C   0  0  0  0  0  0  0  0  0  0  0  0
   12.6148  -18.3604   25.4015 O   0  0  0  0  0  0  0  0  0  0  0  0
   15.2774  -15.3599   22.8170 O   0  0  0  0  0  0  0  0  0  0  0  0
   10.8872  -16.9119   25.8008 O   0  0  0  0  0  0  0  0  0  0  0  0
  2 10  1  0
  2  1  1  1
  2  3  1  0
  3  4  1  0
  4  5  2  0
  4  9  1  0
  5  6  1  0
  6  7  2  0
  8  7  1  0
  9  8  2  0
 10 17  1  0
 11 10  2  0
 13 12  1  6
 13 14  1  0
 15 13  1  0
 16 15  1  6
 17 16  1  0
 18 19  2  0
 18 16  1  0
 20 18  1  0
 21 22  1  1
 21 20  1  0
 23 22  1  0
 24 23  2  0
 25 21  1  0
 26 25  1  0
 27 23  1  0
 28 25  2  0
M  END
$$$$
