FLD.pdb
     RDKit          3D

 28 28  0  0  1  0  0  0  0  0999 V2000
    6.2060  -17.6469   25.4964 N   0  0  0  0  0  0  0  0  0  0  0  0
    6.7385  -16.3480   25.1088 C   0  0  1  0  0  0  0  0  0  0  0  0
    7.6452  -15.7600   26.1482 C   0  0  0  0  0  0  0  0  0  0  0  0
    7.3033  -14.3454   26.4581 C   0  0  0  0  0  0  0  0  0  0  0  0
    8.2712  -13.5724   27.0637 C   0  0  0  0  0  0  0  0  0  0  0  0
    8.0841  -12.2434   27.4049 C   0  0  0  0  0  0  0  0  0  0  0  0
    6.8468  -11.7108   27.1020 C   0  0  0  0  0  0  0  0  0  0  0  0
    5.8680  -12.4587   26.5000 C   0  0  0  0  0  0  0  0  0  0  0  0
    6.0818  -13.7975   26.1659 C   0  0  0  0  0  0  0  0  0  0  0  0
    7.5024  -16.5222   23.8552 C   0  0  0  0  0  0  0  0  0  0  0  0
    7.7418  -17.6873   23.4648 O   0  0  0  0  0  0  0  0  0  0  0  0
    6.4320  -14.0194   20.3668 C   0  0  0  0  0  0  0  0  0  0  0  0
    7.6478  -13.4232   21.0989 C   0  0  2  0  0  0  0  0  0  0  0  0
    7.8961  -12.0755   20.5188 C   0  0  0  0  0  0  0  0  0  0  0  0
    8.7442  -14.4145   20.9816 C   0  0  0  0  0  0  0  0  0  0  0  0
    8.5506  -15.6423   21.8082 C   0  0  2  0  0  0  0  0  0  0  0  0
    7.9640  -15.4323   23.0993 N   0  0  0  0  0  0  0  0  0  0  0  0
    9.8156  -16.4063   21.9572 C   0  0  0  0  0  0  0  0  0  0  0  0
   10.2631  -17.0817   21.0117 O   0  0  0  0  0  0  0  0  0  0  0  0
   10.5208  -16.3704   23.1778 N   0  0  0  0  0  0  0  0  0  0  0  0
   11.8975  -16.8370   23.2072 C   0  0  1  0  0  0  0  0  0  0  0  0
   12.8224  -15.7220   22.7558 C   0  0  0  0  0  0  0  0  0  0  0  0
   14.2463  -16.0788   22.8118 C   0  0  0  0  0  0  0  0  0  0  0  0
   15.1730  -15.2528   22.6157 O   0  0  0  0  0  0  0  0  0  0  0  0
   12.2071  -17.2671   24.5884 C   0  0  0  0  0  0  0  0  0  0  0  0
   11.2809  -17.1835   25.6236 O   0  0  0  0  0  0  0  0  0  0  0  0
   14.6554  -17.3906   23.0938 O   0  0  0  0  0  0  0  0  0  0  0  0
   13.3580  -17.7258   24.8274 O   0  0  0  0  0  0  0  0  0  0  0  0
  2 10  1  0
  2  1  1  1
  2  3  1  0
  3  4  1  0
  4  5  2  0
  4  9  1  0
  5  6  1  0
  6  7  2  0
  8  7  1  0
  9  8  2  0
 10 17  1  0
 11 10  2  0
 13 12  1  6
 13 14  1  0
 15 13  1  0
 16 15  1  1
 17 16  1  0
 18 19  2  0
 18 16  1  0
 20 18  1  0
 21 22  1  1
 21 20  1  0
 23 22  1  0
 24 23  2  0
 25 21  1  0
 26 25  1  0
 27 23  1  0
 28 25  2  0
M  END
$$$$
