FLD.pdb
     RDKit          3D

 28 28  0  0  1  0  0  0  0  0999 V2000
    6.9919  -16.8476   25.9098 N   0  0  0  0  0  0  0  0  0  0  0  0
    7.2799  -15.7213   25.0328 C   0  0  1  0  0  0  0  0  0  0  0  0
    8.5745  -15.0426   25.3674 C   0  0  0  0  0  0  0  0  0  0  0  0
    8.4572  -14.1653   26.5634 C   0  0  0  0  0  0  0  0  0  0  0  0
    7.5256  -13.1497   26.5216 C   0  0  0  0  0  0  0  0  0  0  0  0
    7.3145  -12.2637   27.5647 C   0  0  0  0  0  0  0  0  0  0  0  0
    8.1029  -12.4486   28.6829 C   0  0  0  0  0  0  0  0  0  0  0  0
    9.0362  -13.4510   28.7488 C   0  0  0  0  0  0  0  0  0  0  0  0
    9.2298  -14.3317   27.6828 C   0  0  0  0  0  0  0  0  0  0  0  0
    7.3536  -16.2282   23.6461 C   0  0  0  0  0  0  0  0  0  0  0  0
    7.1389  -17.4456   23.4485 O   0  0  0  0  0  0  0  0  0  0  0  0
    7.7915  -13.1112   21.6817 C   0  0  0  0  0  0  0  0  0  0  0  0
    8.0167  -13.6403   20.2538 C   0  0  2  0  0  0  0  0  0  0  0  0
    7.6105  -12.5610   19.3132 C   0  0  0  0  0  0  0  0  0  0  0  0
    7.2834  -14.9251   20.1547 C   0  0  0  0  0  0  0  0  0  0  0  0
    7.6302  -15.9117   21.2199 C   0  0  2  0  0  0  0  0  0  0  0  0
    7.6559  -15.3949   22.5568 N   0  0  0  0  0  0  0  0  0  0  0  0
    8.9139  -16.6005   20.9304 C   0  0  0  0  0  0  0  0  0  0  0  0
    9.0977  -17.1644   19.8355 O   0  0  0  0  0  0  0  0  0  0  0  0
    9.9377  -16.6194   21.8999 N   0  0  0  0  0  0  0  0  0  0  0  0
   11.2191  -17.2143   21.5564 C   0  0  1  0  0  0  0  0  0  0  0  0
   12.0180  -16.2452   20.7050 C   0  0  0  0  0  0  0  0  0  0  0  0
   13.3901  -16.6936   20.4323 C   0  0  0  0  0  0  0  0  0  0  0  0
   13.8658  -17.7688   20.8762 O   0  0  0  0  0  0  0  0  0  0  0  0
   11.9279  -17.5361   22.8144 C   0  0  0  0  0  0  0  0  0  0  0  0
   11.7179  -16.8282   23.9938 O   0  0  0  0  0  0  0  0  0  0  0  0
   14.2610  -15.9272   19.6438 O   0  0  0  0  0  0  0  0  0  0  0  0
   12.7531  -18.4907   22.8077 O   0  0  0  0  0  0  0  0  0  0  0  0
  2 10  1  0
  2  1  1  1
  2  3  1  0
  3  4  1  0
  4  5  2  0
  4  9  1  0
  5  6  1  0
  6  7  2  0
  8  7  1  0
  9  8  2  0
 10 17  1  0
 11 10  2  0
 13 12  1  1
 13 14  1  0
 15 13  1  0
 16 15  1  6
 17 16  1  0
 18 19  2  0
 18 16  1  0
 20 18  1  0
 21 22  1  6
 21 20  1  0
 23 22  1  0
 24 23  2  0
 25 21  1  0
 26 25  1  0
 27 23  1  0
 28 25  2  0
M  END
$$$$
