FLD.pdb
     RDKit          3D

 28 28  0  0  1  0  0  0  0  0999 V2000
    9.1736  -17.2190   26.2305 N   0  0  0  0  0  0  0  0  0  0  0  0
    7.7610  -17.0618   25.9131 C   0  0  1  0  0  0  0  0  0  0  0  0
    7.1119  -15.9563   26.6908 C   0  0  0  0  0  0  0  0  0  0  0  0
    8.1040  -14.9792   27.2150 C   0  0  0  0  0  0  0  0  0  0  0  0
    9.1107  -15.4627   28.0236 C   0  0  0  0  0  0  0  0  0  0  0  0
   10.0969  -14.6629   28.5762 C   0  0  0  0  0  0  0  0  0  0  0  0
   10.0247  -13.3182   28.2717 C   0  0  0  0  0  0  0  0  0  0  0  0
    9.0336  -12.8130   27.4701 C   0  0  0  0  0  0  0  0  0  0  0  0
    8.0503  -13.6411   26.9249 C   0  0  0  0  0  0  0  0  0  0  0  0
    7.6470  -16.7587   24.4707 C   0  0  0  0  0  0  0  0  0  0  0  0
    6.7866  -17.3754   23.8023 O   0  0  0  0  0  0  0  0  0  0  0  0
    6.3593  -13.9922   21.3705 C   0  0  0  0  0  0  0  0  0  0  0  0
    7.6000  -13.4807   22.1244 C   0  0  2  0  0  0  0  0  0  0  0  0
    7.7928  -12.0552   21.7430 C   0  0  0  0  0  0  0  0  0  0  0  0
    8.7071  -14.4141   21.8060 C   0  0  0  0  0  0  0  0  0  0  0  0
    8.5537  -15.7729   22.4045 C   0  0  2  0  0  0  0  0  0  0  0  0
    8.4669  -15.8122   23.8349 N   0  0  0  0  0  0  0  0  0  0  0  0
    9.6242  -16.6958   21.9477 C   0  0  0  0  0  0  0  0  0  0  0  0
    9.6920  -17.0465   20.7549 O   0  0  0  0  0  0  0  0  0  0  0  0
   10.5752  -17.1823   22.8681 N   0  0  0  0  0  0  0  0  0  0  0  0
   11.8284  -17.7204   22.3644 C   0  0  1  0  0  0  0  0  0  0  0  0
   12.5753  -16.6419   21.6020 C   0  0  0  0  0  0  0  0  0  0  0  0
   13.9238  -17.0447   21.1808 C   0  0  0  0  0  0  0  0  0  0  0  0
   14.4139  -18.1760   21.4250 O   0  0  0  0  0  0  0  0  0  0  0  0
   12.6158  -18.2073   23.5183 C   0  0  0  0  0  0  0  0  0  0  0  0
   12.1556  -18.1200   24.8286 O   0  0  0  0  0  0  0  0  0  0  0  0
   14.7538  -16.1674   20.4674 O   0  0  0  0  0  0  0  0  0  0  0  0
   13.7473  -18.7195   23.2959 O   0  0  0  0  0  0  0  0  0  0  0  0
  2 10  1  0
  2  1  1  1
  2  3  1  0
  3  4  1  0
  4  5  2  0
  4  9  1  0
  5  6  1  0
  6  7  2  0
  8  7  1  0
  9  8  2  0
 10 17  1  0
 11 10  2  0
 13 12  1  6
 13 14  1  0
 15 13  1  0
 16 15  1  1
 17 16  1  0
 18 19  2  0
 18 16  1  0
 20 18  1  0
 21 22  1  1
 21 20  1  0
 23 22  1  0
 24 23  2  0
 25 21  1  0
 26 25  1  0
 27 23  1  0
 28 25  2  0
M  END
$$$$
