FLD.pdb
     RDKit          3D

 28 28  0  0  1  0  0  0  0  0999 V2000
    8.5436  -17.7702   17.8128 N   0  0  0  0  0  0  0  0  0  0  0  0
    8.5874  -16.5612   18.6233 C   0  0  1  0  0  0  0  0  0  0  0  0
    7.6030  -15.5244   18.1711 C   0  0  0  0  0  0  0  0  0  0  0  0
    7.6983  -14.2720   18.9688 C   0  0  0  0  0  0  0  0  0  0  0  0
    8.6191  -13.3276   18.5672 C   0  0  0  0  0  0  0  0  0  0  0  0
    8.8089  -12.1207   19.2190 C   0  0  0  0  0  0  0  0  0  0  0  0
    8.0102  -11.8987   20.3231 C   0  0  0  0  0  0  0  0  0  0  0  0
    7.0874  -12.8221   20.7424 C   0  0  0  0  0  0  0  0  0  0  0  0
    6.9153  -14.0321   20.0673 C   0  0  0  0  0  0  0  0  0  0  0  0
    8.2767  -16.9346   20.0195 C   0  0  0  0  0  0  0  0  0  0  0  0
    8.5064  -16.0973   20.9215 O   0  0  0  0  0  0  0  0  0  0  0  0
    4.7002  -17.5390   21.9665 C   0  0  0  0  0  0  0  0  0  0  0  0
    5.1317  -18.8682   21.3210 C   0  0  2  0  0  0  0  0  0  0  0  0
    3.9505  -19.7731   21.3403 C   0  0  0  0  0  0  0  0  0  0  0  0
    6.3372  -19.3258   22.0529 C   0  0  0  0  0  0  0  0  0  0  0  0
    7.5754  -18.5546   21.7362 C   0  0  2  0  0  0  0  0  0  0  0  0
    7.7398  -18.1868   20.3604 N   0  0  0  0  0  0  0  0  0  0  0  0
    8.7944  -19.2587   22.2098 C   0  0  0  0  0  0  0  0  0  0  0  0
    8.7186  -20.1321   23.0940 O   0  0  0  0  0  0  0  0  0  0  0  0
   10.0519  -18.9398   21.6570 N   0  0  0  0  0  0  0  0  0  0  0  0
   11.2326  -19.6258   22.1560 C   0  0  1  0  0  0  0  0  0  0  0  0
   12.1559  -19.9572   20.9984 C   0  0  0  0  0  0  0  0  0  0  0  0
   13.4251  -20.5691   21.4137 C   0  0  0  0  0  0  0  0  0  0  0  0
   14.5493  -20.1421   21.0484 O   0  0  0  0  0  0  0  0  0  0  0  0
   11.8969  -18.7411   23.1381 C   0  0  0  0  0  0  0  0  0  0  0  0
   11.4101  -17.4767   23.4556 O   0  0  0  0  0  0  0  0  0  0  0  0
   13.4491  -21.6880   22.2594 O   0  0  0  0  0  0  0  0  0  0  0  0
   12.9450  -19.1575   23.7041 O   0  0  0  0  0  0  0  0  0  0  0  0
  2 10  1  0
  2  1  1  6
  2  3  1  0
  3  4  1  0
  4  5  2  0
  4  9  1  0
  5  6  1  0
  6  7  2  0
  8  7  1  0
  9  8  2  0
 10 17  1  0
 11 10  2  0
 13 12  1  1
 13 14  1  0
 15 13  1  0
 16 15  1  6
 17 16  1  0
 18 19  2  0
 18 16  1  0
 20 18  1  0
 21 22  1  6
 21 20  1  0
 23 22  1  0
 24 23  2  0
 25 21  1  0
 26 25  1  0
 27 23  1  0
 28 25  2  0
M  END
$$$$
