FLD.pdb
     RDKit          3D

 28 28  0  0  1  0  0  0  0  0999 V2000
    6.5516  -16.7280   25.7747 N   0  0  0  0  0  0  0  0  0  0  0  0
    6.9467  -15.5903   24.9560 C   0  0  1  0  0  0  0  0  0  0  0  0
    7.9159  -14.6833   25.6534 C   0  0  0  0  0  0  0  0  0  0  0  0
    7.2288  -13.6245   26.4412 C   0  0  0  0  0  0  0  0  0  0  0  0
    6.0911  -13.0634   25.9009 C   0  0  0  0  0  0  0  0  0  0  0  0
    5.3569  -12.0711   26.5286 C   0  0  0  0  0  0  0  0  0  0  0  0
    5.8297  -11.6562   27.7577 C   0  0  0  0  0  0  0  0  0  0  0  0
    6.9585  -12.1985   28.3160 C   0  0  0  0  0  0  0  0  0  0  0  0
    7.6814  -13.1984   27.6623 C   0  0  0  0  0  0  0  0  0  0  0  0
    7.5823  -16.1100   23.7266 C   0  0  0  0  0  0  0  0  0  0  0  0
    7.7441  -17.3469   23.6212 O   0  0  0  0  0  0  0  0  0  0  0  0
    7.7377  -13.0175   21.6987 C   0  0  0  0  0  0  0  0  0  0  0  0
    8.5193  -13.5050   20.4655 C   0  0  2  0  0  0  0  0  0  0  0  0
    8.2474  -12.5447   19.3616 C   0  0  0  0  0  0  0  0  0  0  0  0
    8.1215  -14.9151   20.2387 C   0  0  0  0  0  0  0  0  0  0  0  0
    8.3560  -15.8131   21.4079 C   0  0  2  0  0  0  0  0  0  0  0  0
    8.0070  -15.2671   22.6866 N   0  0  0  0  0  0  0  0  0  0  0  0
    9.7562  -16.3073   21.4458 C   0  0  0  0  0  0  0  0  0  0  0  0
   10.2129  -16.9898   20.5099 O   0  0  0  0  0  0  0  0  0  0  0  0
   10.5809  -16.0040   22.5487 N   0  0  0  0  0  0  0  0  0  0  0  0
   11.9320  -16.5397   22.5835 C   0  0  1  0  0  0  0  0  0  0  0  0
   12.9300  -15.4174   22.3668 C   0  0  0  0  0  0  0  0  0  0  0  0
   13.8264  -15.6386   21.2241 C   0  0  0  0  0  0  0  0  0  0  0  0
   13.7662  -16.6543   20.4864 O   0  0  0  0  0  0  0  0  0  0  0  0
   12.1332  -17.1931   23.8953 C   0  0  0  0  0  0  0  0  0  0  0  0
   13.2552  -17.9643   24.1830 O   0  0  0  0  0  0  0  0  0  0  0  0
   14.8190  -14.7060   20.8891 O   0  0  0  0  0  0  0  0  0  0  0  0
   11.2477  -17.0399   24.7811 O   0  0  0  0  0  0  0  0  0  0  0  0
  2 10  1  0
  2  1  1  1
  2  3  1  0
  3  4  1  0
  4  5  2  0
  4  9  1  0
  5  6  1  0
  6  7  2  0
  8  7  1  0
  9  8  2  0
 10 17  1  0
 11 10  2  0
 13 12  1  1
 13 14  1  0
 15 13  1  0
 16 15  1  6
 17 16  1  0
 18 19  2  0
 18 16  1  0
 20 18  1  0
 21 22  1  1
 21 20  1  0
 23 22  1  0
 24 23  2  0
 25 21  1  0
 26 25  1  0
 27 23  1  0
 28 25  2  0
M  END
$$$$
