FLD.pdb
     RDKit          3D

 28 28  0  0  1  0  0  0  0  0999 V2000
    9.2771  -16.2905   25.1580 N   0  0  0  0  0  0  0  0  0  0  0  0
    7.8217  -16.3246   25.1209 C   0  0  1  0  0  0  0  0  0  0  0  0
    7.1964  -15.1670   25.8402 C   0  0  0  0  0  0  0  0  0  0  0  0
    8.1541  -14.4892   26.7551 C   0  0  0  0  0  0  0  0  0  0  0  0
    9.3133  -15.1620   27.0787 C   0  0  0  0  0  0  0  0  0  0  0  0
   10.2870  -14.6460   27.9173 C   0  0  0  0  0  0  0  0  0  0  0  0
   10.0373  -13.3889   28.4306 C   0  0  0  0  0  0  0  0  0  0  0  0
    8.8924  -12.6996   28.1239 C   0  0  0  0  0  0  0  0  0  0  0  0
    7.9255  -13.2423   27.2753 C   0  0  0  0  0  0  0  0  0  0  0  0
    7.3990  -16.2887   23.7047 C   0  0  0  0  0  0  0  0  0  0  0  0
    6.2559  -16.7105   23.4172 O   0  0  0  0  0  0  0  0  0  0  0  0
    7.3001  -13.1602   22.2686 C   0  0  0  0  0  0  0  0  0  0  0  0
    8.1395  -13.5612   21.0422 C   0  0  2  0  0  0  0  0  0  0  0  0
    8.1609  -12.3934   20.1200 C   0  0  0  0  0  0  0  0  0  0  0  0
    7.5534  -14.8177   20.5170 C   0  0  0  0  0  0  0  0  0  0  0  0
    7.9035  -16.0342   21.3082 C   0  0  2  0  0  0  0  0  0  0  0  0
    8.2327  -15.8033   22.6841 N   0  0  0  0  0  0  0  0  0  0  0  0
    8.9915  -16.8122   20.6624 C   0  0  0  0  0  0  0  0  0  0  0  0
    8.9591  -17.0539   19.4413 O   0  0  0  0  0  0  0  0  0  0  0  0
   10.0737  -17.2840   21.4335 N   0  0  0  0  0  0  0  0  0  0  0  0
   11.1417  -18.0153   20.7713 C   0  0  1  0  0  0  0  0  0  0  0  0
   11.8001  -17.1255   19.7334 C   0  0  0  0  0  0  0  0  0  0  0  0
   12.9698  -17.7378   19.0894 C   0  0  0  0  0  0  0  0  0  0  0  0
   13.4264  -18.8628   19.4141 O   0  0  0  0  0  0  0  0  0  0  0  0
   12.1105  -18.4471   21.8025 C   0  0  0  0  0  0  0  0  0  0  0  0
   11.9273  -18.1869   23.1572 O   0  0  0  0  0  0  0  0  0  0  0  0
   13.6541  -17.0834   18.0544 O   0  0  0  0  0  0  0  0  0  0  0  0
   13.1397  -19.0747   21.4297 O   0  0  0  0  0  0  0  0  0  0  0  0
  2 10  1  0
  2  1  1  6
  2  3  1  0
  3  4  1  0
  4  5  2  0
  4  9  1  0
  5  6  1  0
  6  7  2  0
  8  7  1  0
  9  8  2  0
 10 17  1  0
 11 10  2  0
 13 12  1  1
 13 14  1  0
 15 13  1  0
 16 15  1  6
 17 16  1  0
 18 19  2  0
 18 16  1  0
 20 18  1  0
 21 22  1  6
 21 20  1  0
 23 22  1  0
 24 23  2  0
 25 21  1  0
 26 25  1  0
 27 23  1  0
 28 25  2  0
M  END
$$$$
