LAT.pdb
     RDKit          3D

 21 20  0  0  1  0  0  0  0  0999 V2000
   17.4303  -15.0723  -19.4462 C   0  0  0  0  0  0  0  0  0  0  0  0
   17.5082  -13.5653  -19.3972 C   0  0  2  0  0  0  0  0  0  0  0  0
   18.6271  -13.1132  -20.3118 C   0  0  0  0  0  0  0  0  0  0  0  0
   17.7253  -13.0753  -17.9654 C   0  0  0  0  0  0  0  0  0  0  0  0
   19.1023  -13.5279  -17.5561 C   0  0  2  0  0  0  0  0  0  0  0  0
   19.0298  -14.8225  -16.9575 N   0  0  0  0  0  0  0  0  0  0  0  0
   19.8237  -12.5662  -16.7173 C   0  0  0  0  0  0  0  0  0  0  0  0
   19.3921  -12.3604  -15.5504 O   0  0  0  0  0  0  0  0  0  0  0  0
   23.0452  -10.6707  -16.5874 C   0  0  0  0  0  0  0  0  0  0  0  0
   21.5900  -10.8317  -16.2930 C   0  0  2  0  0  0  0  0  0  0  0  0
   20.9717  -11.8486  -17.1188 N   0  0  0  0  0  0  0  0  0  0  0  0
   20.8340   -9.5566  -16.3311 C   0  0  0  0  0  0  0  0  0  0  0  0
   20.5359   -9.0891  -17.4604 O   0  0  0  0  0  0  0  0  0  0  0  0
   17.4726   -8.6558  -15.1268 C   0  0  0  0  0  0  0  0  0  0  0  0
   18.4114   -7.7182  -14.4134 C   0  0  1  0  0  0  0  0  0  0  0  0
   18.6989   -8.1655  -13.1150 O   0  0  0  0  0  0  0  0  0  0  0  0
   19.7346   -7.5924  -15.1806 C   0  0  2  0  0  0  0  0  0  0  0  0
   20.4363   -8.8493  -15.1842 N   0  0  0  0  0  0  0  0  0  0  0  0
   20.5413   -6.4911  -14.6209 C   0  0  0  0  0  0  0  0  0  0  0  0
   20.1136   -5.1731  -14.7969 O   0  0  0  0  0  0  0  0  0  0  0  0
   21.5938   -6.7498  -13.9983 O   0  0  0  0  0  0  0  0  0  0  0  0
  2  1  1  1
  3  2  1  0
  4  2  1  0
  4  5  1  0
  5  6  1  1
  7 11  1  0
  7  5  1  0
  8  7  2  0
 10  9  1  6
 10 11  1  0
 10 12  1  0
 12 18  1  0
 13 12  2  0
 15 14  1  6
 15 16  1  0
 17 15  1  0
 17 19  1  0
 17 18  1  1
 19 20  1  0
 21 19  2  0
M  END
$$$$
