LAT.pdb
     RDKit          3D

 21 20  0  0  1  0  0  0  0  0999 V2000
   18.3590  -13.1881  -19.1127 C   0  0  0  0  0  0  0  0  0  0  0  0
   17.0082  -13.0572  -18.4512 C   0  0  2  0  0  0  0  0  0  0  0  0
   15.9457  -13.0411  -19.5300 C   0  0  0  0  0  0  0  0  0  0  0  0
   16.9431  -11.7990  -17.5851 C   0  0  0  0  0  0  0  0  0  0  0  0
   18.0363  -11.9236  -16.5564 C   0  0  2  0  0  0  0  0  0  0  0  0
   17.7237  -12.9741  -15.6408 N   0  0  0  0  0  0  0  0  0  0  0  0
   18.3613  -10.6680  -15.8735 C   0  0  0  0  0  0  0  0  0  0  0  0
   17.4056   -9.9456  -15.4796 O   0  0  0  0  0  0  0  0  0  0  0  0
   21.3425   -8.9385  -14.3664 C   0  0  0  0  0  0  0  0  0  0  0  0
   19.9429   -8.9856  -14.8851 C   0  0  2  0  0  0  0  0  0  0  0  0
   19.6707  -10.2030  -15.6215 N   0  0  0  0  0  0  0  0  0  0  0  0
   19.5559   -7.7785  -15.6545 C   0  0  0  0  0  0  0  0  0  0  0  0
   19.8501   -7.7474  -16.8772 O   0  0  0  0  0  0  0  0  0  0  0  0
   16.1609   -6.3135  -16.3190 C   0  0  0  0  0  0  0  0  0  0  0  0
   16.9690   -5.2526  -15.6184 C   0  0  1  0  0  0  0  0  0  0  0  0
   16.7051   -5.2293  -14.2405 O   0  0  0  0  0  0  0  0  0  0  0  0
   18.4708   -5.5009  -15.8142 C   0  0  2  0  0  0  0  0  0  0  0  0
   18.8845   -6.6779  -15.0961 N   0  0  0  0  0  0  0  0  0  0  0  0
   19.2366   -4.3001  -15.4294 C   0  0  0  0  0  0  0  0  0  0  0  0
   19.1990   -3.1727  -16.2532 O   0  0  0  0  0  0  0  0  0  0  0  0
   19.9075   -4.3059  -14.3748 O   0  0  0  0  0  0  0  0  0  0  0  0
  2  1  1  6
  3  2  1  0
  4  2  1  0
  4  5  1  0
  5  6  1  1
  7 11  1  0
  7  5  1  0
  8  7  2  0
 10  9  1  6
 10 11  1  0
 10 12  1  0
 12 18  1  0
 13 12  2  0
 15 14  1  6
 15 16  1  0
 17 15  1  0
 17 19  1  0
 17 18  1  1
 19 20  1  0
 21 19  2  0
M  END
$$$$
