LAT.pdb
     RDKit          3D

 21 20  0  0  1  0  0  0  0  0999 V2000
   14.3826  -11.2327  -16.6504 C   0  0  0  0  0  0  0  0  0  0  0  0
   14.6422  -12.3248  -15.6407 C   0  0  2  0  0  0  0  0  0  0  0  0
   13.3357  -13.0357  -15.3571 C   0  0  0  0  0  0  0  0  0  0  0  0
   15.2553  -11.7529  -14.3622 C   0  0  0  0  0  0  0  0  0  0  0  0
   16.5672  -11.1249  -14.7536 C   0  0  2  0  0  0  0  0  0  0  0  0
   17.5571  -12.1389  -14.9307 N   0  0  0  0  0  0  0  0  0  0  0  0
   17.0149  -10.0614  -13.8496 C   0  0  0  0  0  0  0  0  0  0  0  0
   17.6365  -10.3973  -12.8050 O   0  0  0  0  0  0  0  0  0  0  0  0
   18.0771   -6.6086  -13.8447 C   0  0  0  0  0  0  0  0  0  0  0  0
   17.2836   -7.6647  -13.1481 C   0  0  2  0  0  0  0  0  0  0  0  0
   16.8020   -8.6814  -14.0606 N   0  0  0  0  0  0  0  0  0  0  0  0
   16.1932   -7.1236  -12.3012 C   0  0  0  0  0  0  0  0  0  0  0  0
   15.0509   -7.0195  -12.8178 O   0  0  0  0  0  0  0  0  0  0  0  0
   15.4660   -7.9381   -8.3303 C   0  0  0  0  0  0  0  0  0  0  0  0
   15.6549   -6.4759   -8.6402 C   0  0  1  0  0  0  0  0  0  0  0  0
   16.9719   -6.0617   -8.3897 O   0  0  0  0  0  0  0  0  0  0  0  0
   15.3353   -6.1909  -10.1139 C   0  0  2  0  0  0  0  0  0  0  0  0
   16.3660   -6.7247  -10.9652 N   0  0  0  0  0  0  0  0  0  0  0  0
   15.1223   -4.7449  -10.3151 C   0  0  0  0  0  0  0  0  0  0  0  0
   13.9773   -4.1432   -9.7878 O   0  0  0  0  0  0  0  0  0  0  0  0
   15.9658   -4.0782  -10.9524 O   0  0  0  0  0  0  0  0  0  0  0  0
  2  1  1  6
  3  2  1  0
  4  2  1  0
  4  5  1  0
  5  6  1  1
  7 11  1  0
  7  5  1  0
  8  7  2  0
 10  9  1  6
 10 11  1  0
 10 12  1  0
 12 18  1  0
 13 12  2  0
 15 14  1  6
 15 16  1  0
 17 15  1  0
 17 19  1  0
 17 18  1  6
 19 20  1  0
 21 19  2  0
M  END
$$$$
