LAT.pdb
     RDKit          3D

 21 20  0  0  1  0  0  0  0  0999 V2000
   24.0176  -14.9915  -14.8956 C   0  0  0  0  0  0  0  0  0  0  0  0
   25.0384  -14.5462  -15.9149 C   0  0  2  0  0  0  0  0  0  0  0  0
   26.4166  -14.6758  -15.3013 C   0  0  0  0  0  0  0  0  0  0  0  0
   24.7641  -13.1138  -16.3737 C   0  0  0  0  0  0  0  0  0  0  0  0
   23.3883  -13.1107  -16.9868 C   0  0  2  0  0  0  0  0  0  0  0  0
   23.3479  -14.0132  -18.0929 N   0  0  0  0  0  0  0  0  0  0  0  0
   22.8928  -11.7766  -17.3382 C   0  0  0  0  0  0  0  0  0  0  0  0
   23.5403  -11.1125  -18.1926 O   0  0  0  0  0  0  0  0  0  0  0  0
   19.9574   -9.8092  -17.7538 C   0  0  0  0  0  0  0  0  0  0  0  0
   21.3153   -9.8330  -17.1327 C   0  0  2  0  0  0  0  0  0  0  0  0
   21.7389  -11.1751  -16.7897 N   0  0  0  0  0  0  0  0  0  0  0  0
   21.4590   -8.9008  -15.9886 C   0  0  0  0  0  0  0  0  0  0  0  0
   21.3106   -9.3711  -14.8312 O   0  0  0  0  0  0  0  0  0  0  0  0
   22.7017   -4.3385  -14.3725 C   0  0  0  0  0  0  0  0  0  0  0  0
   22.4868   -5.2811  -15.5279 C   0  0  1  0  0  0  0  0  0  0  0  0
   23.6959   -5.6020  -16.1633 O   0  0  0  0  0  0  0  0  0  0  0  0
   21.8377   -6.5858  -15.0463 C   0  0  2  0  0  0  0  0  0  0  0  0
   21.7495   -7.5331  -16.1266 N   0  0  0  0  0  0  0  0  0  0  0  0
   20.5280   -6.3017  -14.4293 C   0  0  0  0  0  0  0  0  0  0  0  0
   20.4135   -6.3051  -13.0372 O   0  0  0  0  0  0  0  0  0  0  0  0
   19.5403   -6.0623  -15.1569 O   0  0  0  0  0  0  0  0  0  0  0  0
  2  1  1  1
  3  2  1  0
  4  2  1  0
  4  5  1  0
  5  6  1  6
  7 11  1  0
  7  5  1  0
  8  7  2  0
 10  9  1  1
 10 11  1  0
 10 12  1  0
 12 18  1  0
 13 12  2  0
 15 14  1  1
 15 16  1  0
 17 15  1  0
 17 19  1  0
 17 18  1  6
 19 20  1  0
 21 19  2  0
M  END
$$$$
