LAT.pdb
     RDKit          3D

 21 20  0  0  1  0  0  0  0  0999 V2000
   22.9097  -18.8949  -19.7940 C   0  0  0  0  0  0  0  0  0  0  0  0
   21.8666  -17.8320  -20.0423 C   0  0  2  0  0  0  0  0  0  0  0  0
   21.3085  -18.0246  -21.4366 C   0  0  0  0  0  0  0  0  0  0  0  0
   22.4585  -16.4334  -19.8664 C   0  0  0  0  0  0  0  0  0  0  0  0
   22.9571  -16.3487  -18.4476 C   0  0  2  0  0  0  0  0  0  0  0  0
   21.8527  -16.3764  -17.5426 N   0  0  0  0  0  0  0  0  0  0  0  0
   23.8555  -15.2182  -18.1955 C   0  0  0  0  0  0  0  0  0  0  0  0
   23.4979  -14.0785  -18.5997 O   0  0  0  0  0  0  0  0  0  0  0  0
   27.0079  -14.4042  -16.3045 C   0  0  0  0  0  0  0  0  0  0  0  0
   25.9861  -14.1758  -17.3693 C   0  0  2  0  0  0  0  0  0  0  0  0
   25.0980  -15.3088  -17.5305 N   0  0  0  0  0  0  0  0  0  0  0  0
   26.5665  -13.7428  -18.6633 C   0  0  0  0  0  0  0  0  0  0  0  0
   26.9219  -14.6387  -19.4718 O   0  0  0  0  0  0  0  0  0  0  0  0
   27.1343  -10.1042  -21.9952 C   0  0  0  0  0  0  0  0  0  0  0  0
   26.6623  -10.5581  -20.6385 C   0  0  1  0  0  0  0  0  0  0  0  0
   25.2631  -10.6455  -20.5819 O   0  0  0  0  0  0  0  0  0  0  0  0
   27.2425  -11.9378  -20.2991 C   0  0  2  0  0  0  0  0  0  0  0  0
   26.7392  -12.3979  -19.0313 N   0  0  0  0  0  0  0  0  0  0  0  0
   28.7165  -11.8919  -20.3442 C   0  0  0  0  0  0  0  0  0  0  0  0
   29.3806  -12.3711  -21.4758 O   0  0  0  0  0  0  0  0  0  0  0  0
   29.3509  -11.4266  -19.3730 O   0  0  0  0  0  0  0  0  0  0  0  0
  2  1  1  6
  3  2  1  0
  4  2  1  0
  4  5  1  0
  5  6  1  1
  7 11  1  0
  7  5  1  0
  8  7  2  0
 10  9  1  1
 10 11  1  0
 10 12  1  0
 12 18  1  0
 13 12  2  0
 15 14  1  6
 15 16  1  0
 17 15  1  0
 17 19  1  0
 17 18  1  1
 19 20  1  0
 21 19  2  0
M  END
$$$$
