LAT.pdb
     RDKit          3D

 21 20  0  0  1  0  0  0  0  0999 V2000
   24.1614  -15.4625  -14.7447 C   0  0  0  0  0  0  0  0  0  0  0  0
   24.9412  -14.8940  -15.9058 C   0  0  2  0  0  0  0  0  0  0  0  0
   26.3964  -14.7898  -15.5008 C   0  0  0  0  0  0  0  0  0  0  0  0
   24.3807  -13.5358  -16.3282 C   0  0  0  0  0  0  0  0  0  0  0  0
   22.9578  -13.7699  -16.7631 C   0  0  2  0  0  0  0  0  0  0  0  0
   22.9326  -14.6487  -17.8885 N   0  0  0  0  0  0  0  0  0  0  0  0
   22.1941  -12.5411  -16.9989 C   0  0  0  0  0  0  0  0  0  0  0  0
   22.4569  -11.8725  -18.0353 O   0  0  0  0  0  0  0  0  0  0  0  0
   19.0042  -10.9376  -16.1005 C   0  0  0  0  0  0  0  0  0  0  0  0
   20.4582  -10.8205  -16.4205 C   0  0  2  0  0  0  0  0  0  0  0  0
   21.1808  -12.0463  -16.1490 N   0  0  0  0  0  0  0  0  0  0  0  0
   21.1098   -9.6463  -15.7917 C   0  0  0  0  0  0  0  0  0  0  0  0
   21.6471   -9.8111  -14.6662 O   0  0  0  0  0  0  0  0  0  0  0  0
   23.7742   -7.4223  -17.4593 C   0  0  0  0  0  0  0  0  0  0  0  0
   22.6626   -6.5349  -16.9627 C   0  0  1  0  0  0  0  0  0  0  0  0
   21.7717   -6.1987  -17.9932 O   0  0  0  0  0  0  0  0  0  0  0  0
   21.8681   -7.2356  -15.8522 C   0  0  2  0  0  0  0  0  0  0  0  0
   21.1589   -8.3715  -16.3802 N   0  0  0  0  0  0  0  0  0  0  0  0
   20.9776   -6.2698  -15.1807 C   0  0  0  0  0  0  0  0  0  0  0  0
   19.5989   -6.3523  -15.3894 O   0  0  0  0  0  0  0  0  0  0  0  0
   21.4656   -5.3927  -14.4358 O   0  0  0  0  0  0  0  0  0  0  0  0
  2  1  1  1
  3  2  1  0
  4  2  1  0
  4  5  1  0
  5  6  1  6
  7 11  1  0
  7  5  1  0
  8  7  2  0
 10  9  1  1
 10 11  1  0
 10 12  1  0
 12 18  1  0
 13 12  2  0
 15 14  1  6
 15 16  1  0
 17 15  1  0
 17 19  1  0
 17 18  1  6
 19 20  1  0
 21 19  2  0
M  END
$$$$
