LAT.pdb
     RDKit          3D

 21 20  0  0  1  0  0  0  0  0999 V2000
   12.4253  -12.0718  -15.8358 C   0  0  0  0  0  0  0  0  0  0  0  0
   13.2746  -13.2294  -15.3686 C   0  0  2  0  0  0  0  0  0  0  0  0
   12.5300  -13.9570  -14.2690 C   0  0  0  0  0  0  0  0  0  0  0  0
   14.6434  -12.7451  -14.8898 C   0  0  0  0  0  0  0  0  0  0  0  0
   15.2386  -11.9435  -16.0175 C   0  0  2  0  0  0  0  0  0  0  0  0
   15.7460  -12.8221  -17.0225 N   0  0  0  0  0  0  0  0  0  0  0  0
   16.2322  -10.9544  -15.5893 C   0  0  0  0  0  0  0  0  0  0  0  0
   15.9143  -10.1620  -14.6612 O   0  0  0  0  0  0  0  0  0  0  0  0
   19.8747  -10.1643  -15.9996 C   0  0  0  0  0  0  0  0  0  0  0  0
   18.4558   -9.7936  -15.7178 C   0  0  2  0  0  0  0  0  0  0  0  0
   17.5255  -10.8206  -16.1401 N   0  0  0  0  0  0  0  0  0  0  0  0
   18.0776   -8.4589  -16.2416 C   0  0  0  0  0  0  0  0  0  0  0  0
   17.7342   -8.3826  -17.4495 O   0  0  0  0  0  0  0  0  0  0  0  0
   15.3939   -6.0290  -14.9454 C   0  0  0  0  0  0  0  0  0  0  0  0
   16.7254   -5.3244  -14.9345 C   0  0  1  0  0  0  0  0  0  0  0  0
   17.3173   -5.3601  -13.6629 O   0  0  0  0  0  0  0  0  0  0  0  0
   17.6910   -5.9801  -15.9309 C   0  0  2  0  0  0  0  0  0  0  0  0
   18.0822   -7.2859  -15.4684 N   0  0  0  0  0  0  0  0  0  0  0  0
   18.8445   -5.0934  -16.1760 C   0  0  0  0  0  0  0  0  0  0  0  0
   18.6540   -3.9046  -16.8844 O   0  0  0  0  0  0  0  0  0  0  0  0
   19.9741   -5.4153  -15.7486 O   0  0  0  0  0  0  0  0  0  0  0  0
  2  1  1  1
  3  2  1  0
  4  2  1  0
  4  5  1  0
  5  6  1  6
  7 11  1  0
  7  5  1  0
  8  7  2  0
 10  9  1  6
 10 11  1  0
 10 12  1  0
 12 18  1  0
 13 12  2  0
 15 14  1  1
 15 16  1  0
 17 15  1  0
 17 19  1  0
 17 18  1  1
 19 20  1  0
 21 19  2  0
M  END
$$$$
