LAT.pdb
     RDKit          3D

 21 20  0  0  1  0  0  0  0  0999 V2000
   15.9974  -13.4298  -17.9057 C   0  0  0  0  0  0  0  0  0  0  0  0
   17.0725  -14.0101  -17.0187 C   0  0  2  0  0  0  0  0  0  0  0  0
   16.5628  -15.3116  -16.4365 C   0  0  0  0  0  0  0  0  0  0  0  0
   17.4661  -13.0232  -15.9194 C   0  0  0  0  0  0  0  0  0  0  0  0
   17.9781  -11.7863  -16.6098 C   0  0  2  0  0  0  0  0  0  0  0  0
   19.2225  -12.0684  -17.2511 N   0  0  0  0  0  0  0  0  0  0  0  0
   18.0526  -10.6054  -15.7446 C   0  0  0  0  0  0  0  0  0  0  0  0
   17.0139  -10.2699  -15.1129 O   0  0  0  0  0  0  0  0  0  0  0  0
   20.5532   -8.3750  -14.1169 C   0  0  0  0  0  0  0  0  0  0  0  0
   19.2167   -8.6215  -14.7358 C   0  0  2  0  0  0  0  0  0  0  0  0
   19.2055   -9.8103  -15.5634 N   0  0  0  0  0  0  0  0  0  0  0  0
   18.6713   -7.4449  -15.4547 C   0  0  0  0  0  0  0  0  0  0  0  0
   18.8853   -7.3671  -16.6920 O   0  0  0  0  0  0  0  0  0  0  0  0
   15.6199   -3.5179  -15.4525 C   0  0  0  0  0  0  0  0  0  0  0  0
   16.2656   -4.6431  -14.6865 C   0  0  1  0  0  0  0  0  0  0  0  0
   15.3499   -5.6689  -14.4075 O   0  0  0  0  0  0  0  0  0  0  0  0
   17.4284   -5.2439  -15.4878 C   0  0  2  0  0  0  0  0  0  0  0  0
   17.9353   -6.4218  -14.8339 N   0  0  0  0  0  0  0  0  0  0  0  0
   18.4701   -4.2231  -15.7106 C   0  0  0  0  0  0  0  0  0  0  0  0
   18.5340   -3.5700  -16.9438 O   0  0  0  0  0  0  0  0  0  0  0  0
   19.2799   -3.9559  -14.7968 O   0  0  0  0  0  0  0  0  0  0  0  0
  2  1  1  1
  3  2  1  0
  4  2  1  0
  4  5  1  0
  5  6  1  1
  7 11  1  0
  7  5  1  0
  8  7  2  0
 10  9  1  6
 10 11  1  0
 10 12  1  0
 12 18  1  0
 13 12  2  0
 15 14  1  6
 15 16  1  0
 17 15  1  0
 17 19  1  0
 17 18  1  1
 19 20  1  0
 21 19  2  0
M  END
$$$$
