LAT.pdb
     RDKit          3D

 21 20  0  0  1  0  0  0  0  0999 V2000
   19.4722  -14.0815  -15.6891 C   0  0  0  0  0  0  0  0  0  0  0  0
   18.3143  -14.0101  -16.6554 C   0  0  2  0  0  0  0  0  0  0  0  0
   18.6490  -14.8530  -17.8678 C   0  0  0  0  0  0  0  0  0  0  0  0
   18.0173  -12.5623  -17.0469 C   0  0  0  0  0  0  0  0  0  0  0  0
   17.6356  -11.8403  -15.7814 C   0  0  2  0  0  0  0  0  0  0  0  0
   16.3618  -12.2987  -15.3264 N   0  0  0  0  0  0  0  0  0  0  0  0
   17.6976  -10.3794  -15.8839 C   0  0  0  0  0  0  0  0  0  0  0  0
   16.8256   -9.7993  -16.5864 O   0  0  0  0  0  0  0  0  0  0  0  0
   17.3183   -7.5393  -15.0461 C   0  0  0  0  0  0  0  0  0  0  0  0
   18.6597   -8.1220  -15.3481 C   0  0  2  0  0  0  0  0  0  0  0  0
   18.6650   -9.5674  -15.2522 N   0  0  0  0  0  0  0  0  0  0  0  0
   19.7598   -7.5140  -14.5612 C   0  0  0  0  0  0  0  0  0  0  0  0
   19.8833   -7.8693  -13.3608 O   0  0  0  0  0  0  0  0  0  0  0  0
   23.4174   -7.3428  -15.9584 C   0  0  0  0  0  0  0  0  0  0  0  0
   23.0088   -5.9880  -15.4416 C   0  0  1  0  0  0  0  0  0  0  0  0
   22.5790   -5.1481  -16.4801 O   0  0  0  0  0  0  0  0  0  0  0  0
   21.8644   -6.1200  -14.4277 C   0  0  2  0  0  0  0  0  0  0  0  0
   20.6630   -6.5711  -15.0799 N   0  0  0  0  0  0  0  0  0  0  0  0
   21.6774   -4.8463  -13.7069 C   0  0  0  0  0  0  0  0  0  0  0  0
   22.6211   -4.4557  -12.7540 O   0  0  0  0  0  0  0  0  0  0  0  0
   20.6807   -4.1346  -13.9568 O   0  0  0  0  0  0  0  0  0  0  0  0
  2  1  1  1
  3  2  1  0
  4  2  1  0
  4  5  1  0
  5  6  1  6
  7 11  1  0
  7  5  1  0
  8  7  2  0
 10  9  1  1
 10 11  1  0
 10 12  1  0
 12 18  1  0
 13 12  2  0
 15 14  1  6
 15 16  1  0
 17 15  1  0
 17 19  1  0
 17 18  1  6
 19 20  1  0
 21 19  2  0
M  END
$$$$
