LAT.pdb
     RDKit          3D

 21 20  0  0  1  0  0  0  0  0999 V2000
   29.1346  -18.6438   -5.1887 C   0  0  0  0  0  0  0  0  0  0  0  0
   28.2704  -19.8240   -4.8151 C   0  0  2  0  0  0  0  0  0  0  0  0
   28.9941  -20.6329   -3.7593 C   0  0  0  0  0  0  0  0  0  0  0  0
   27.9448  -20.6739   -6.0435 C   0  0  0  0  0  0  0  0  0  0  0  0
   27.2789  -19.7604   -7.0388 C   0  0  2  0  0  0  0  0  0  0  0  0
   26.1525  -19.1232   -6.4349 N   0  0  0  0  0  0  0  0  0  0  0  0
   26.9379  -20.4068   -8.3095 C   0  0  0  0  0  0  0  0  0  0  0  0
   27.8254  -21.1016   -8.8752 O   0  0  0  0  0  0  0  0  0  0  0  0
   23.9484  -21.1610  -10.4463 C   0  0  0  0  0  0  0  0  0  0  0  0
   25.4082  -20.9311  -10.2315 C   0  0  2  0  0  0  0  0  0  0  0  0
   25.6841  -20.3103   -8.9521 N   0  0  0  0  0  0  0  0  0  0  0  0
   26.0638  -20.2074  -11.3474 C   0  0  0  0  0  0  0  0  0  0  0  0
   26.0461  -18.9499  -11.3170 O   0  0  0  0  0  0  0  0  0  0  0  0
   29.6276  -20.4748  -12.5825 C   0  0  0  0  0  0  0  0  0  0  0  0
   28.7391  -20.7499  -13.7676 C   0  0  1  0  0  0  0  0  0  0  0  0
   28.6170  -22.1261  -14.0120 O   0  0  0  0  0  0  0  0  0  0  0  0
   27.3342  -20.1786  -13.5328 C   0  0  2  0  0  0  0  0  0  0  0  0
   26.6977  -20.8451  -12.4269 N   0  0  0  0  0  0  0  0  0  0  0  0
   26.5428  -20.2547  -14.7756 C   0  0  0  0  0  0  0  0  0  0  0  0
   26.9371  -19.5011  -15.8837 O   0  0  0  0  0  0  0  0  0  0  0  0
   25.5329  -20.9897  -14.8220 O   0  0  0  0  0  0  0  0  0  0  0  0
  2  1  1  6
  3  2  1  0
  4  2  1  0
  4  5  1  0
  5  6  1  1
  7 11  1  0
  7  5  1  0
  8  7  2  0
 10  9  1  6
 10 11  1  0
 10 12  1  0
 12 18  1  0
 13 12  2  0
 15 14  1  1
 15 16  1  0
 17 15  1  0
 17 19  1  0
 17 18  1  1
 19 20  1  0
 21 19  2  0
M  END
$$$$
