MMC.pdb
     RDKit          3D

 23 22  0  0  1  0  0  0  0  0999 V2000
    8.9474  -11.8461   19.5082 C   0  0  0  0  0  0  0  0  0  0  0  0
    7.7040  -12.8608   18.6709 S   0  0  0  0  0  0  0  0  0  0  0  0
    7.7756  -14.5219   19.4409 C   0  0  0  0  0  0  0  0  0  0  0  0
    8.6023  -14.3951   20.6767 C   0  0  0  0  0  0  0  0  0  0  0  0
    8.6905  -15.6810   21.4710 C   0  0  2  0  0  0  0  0  0  0  0  0
    7.4242  -16.3390   21.4026 N   0  0  0  0  0  0  0  0  0  0  0  0
    9.1057  -15.3271   22.8382 C   0  0  0  0  0  0  0  0  0  0  0  0
   10.3029  -14.9697   23.0066 O   0  0  0  0  0  0  0  0  0  0  0  0
    5.3942  -11.9037   26.2490 C   0  0  0  0  0  0  0  0  0  0  0  0
    6.7903  -11.8778   27.4212 S   0  0  0  0  0  0  0  0  0  0  0  0
    7.9109  -13.2789   27.0898 C   0  0  0  0  0  0  0  0  0  0  0  0
    7.6168  -13.7626   25.6935 C   0  0  0  0  0  0  0  0  0  0  0  0
    8.5793  -14.8333   25.2373 C   0  0  2  0  0  0  0  0  0  0  0  0
    8.2267  -15.3721   23.9511 N   0  0  0  0  0  0  0  0  0  0  0  0
    8.6813  -15.9472   26.2040 C   0  0  0  0  0  0  0  0  0  0  0  0
    8.9153  -15.7084   27.4147 O   0  0  0  0  0  0  0  0  0  0  0  0
    8.5262  -17.3101   25.8378 N   0  0  0  0  0  0  0  0  0  0  0  0
    8.6488  -18.4186   26.7496 C   0  0  1  0  0  0  0  0  0  0  0  0
    7.4452  -19.3530   26.5731 C   0  0  0  0  0  0  0  0  0  0  0  0
    6.6293  -19.0292   24.9784 S   0  0  0  0  0  0  0  0  0  0  0  0
    9.8672  -19.2020   26.5589 C   0  0  0  0  0  0  0  0  0  0  0  0
   10.2143  -20.1661   27.4780 O   0  0  0  0  0  0  0  0  0  0  0  0
   10.5945  -19.0022   25.5676 O   0  0  0  0  0  0  0  0  0  0  0  0
  2  1  1  0
  2  3  1  0
  4  3  1  0
  4  5  1  0
  5  7  1  0
  5  6  1  1
  7  8  2  0
  7 14  1  0
  9 10  1  0
 11 12  1  0
 11 10  1  0
 13 15  1  0
 13 12  1  1
 14 13  1  0
 15 16  2  0
 17 18  1  0
 17 15  1  0
 18 19  1  6
 19 20  1  0
 21 22  1  0
 21 18  1  0
 23 21  2  0
M  END
$$$$
