MMC.pdb
     RDKit          3D

 23 22  0  0  1  0  0  0  0  0999 V2000
    5.7079  -21.4507   25.8791 C   0  0  0  0  0  0  0  0  0  0  0  0
    5.6555  -21.8728   24.1196 S   0  0  0  0  0  0  0  0  0  0  0  0
    4.9866  -20.4071   23.2470 C   0  0  0  0  0  0  0  0  0  0  0  0
    5.7409  -19.2200   23.7458 C   0  0  0  0  0  0  0  0  0  0  0  0
    6.0774  -18.2248   22.6556 C   0  0  2  0  0  0  0  0  0  0  0  0
    6.5846  -18.9449   21.5308 N   0  0  0  0  0  0  0  0  0  0  0  0
    7.0296  -17.2556   23.2220 C   0  0  0  0  0  0  0  0  0  0  0  0
    8.2443  -17.3862   22.9107 O   0  0  0  0  0  0  0  0  0  0  0  0
    5.3670  -12.1681   27.0875 C   0  0  0  0  0  0  0  0  0  0  0  0
    6.8942  -11.5746   26.2878 S   0  0  0  0  0  0  0  0  0  0  0  0
    7.8694  -12.9895   25.6748 C   0  0  0  0  0  0  0  0  0  0  0  0
    6.8931  -13.9986   25.1281 C   0  0  0  0  0  0  0  0  0  0  0  0
    7.5758  -15.2413   24.6081 C   0  0  2  0  0  0  0  0  0  0  0  0
    6.6395  -16.2012   24.0876 N   0  0  0  0  0  0  0  0  0  0  0  0
    8.4047  -15.9014   25.6391 C   0  0  0  0  0  0  0  0  0  0  0  0
    7.8842  -16.2722   26.7203 O   0  0  0  0  0  0  0  0  0  0  0  0
    9.7932  -16.1498   25.4776 N   0  0  0  0  0  0  0  0  0  0  0  0
   10.5399  -17.1252   26.2299 C   0  0  1  0  0  0  0  0  0  0  0  0
    9.7754  -18.4550   26.2311 C   0  0  0  0  0  0  0  0  0  0  0  0
    8.8837  -18.6635   27.8044 S   0  0  0  0  0  0  0  0  0  0  0  0
   11.8808  -17.3698   25.7035 C   0  0  0  0  0  0  0  0  0  0  0  0
   12.2471  -16.8419   24.4862 O   0  0  0  0  0  0  0  0  0  0  0  0
   12.6954  -18.0543   26.3512 O   0  0  0  0  0  0  0  0  0  0  0  0
  2  1  1  0
  2  3  1  0
  4  3  1  0
  4  5  1  0
  5  7  1  0
  5  6  1  6
  7  8  2  0
  7 14  1  0
  9 10  1  0
 11 12  1  0
 11 10  1  0
 13 15  1  0
 13 12  1  1
 14 13  1  0
 15 16  2  0
 17 18  1  0
 17 15  1  0
 18 19  1  6
 19 20  1  0
 21 22  1  0
 21 18  1  0
 23 21  2  0
M  END
$$$$
