MMC.pdb
     RDKit          3D

 23 22  0  0  1  0  0  0  0  0999 V2000
    6.4371  -21.2125   24.3939 C   0  0  0  0  0  0  0  0  0  0  0  0
    4.9690  -21.3852   23.3491 S   0  0  0  0  0  0  0  0  0  0  0  0
    4.9427  -19.9309   22.2348 C   0  0  0  0  0  0  0  0  0  0  0  0
    6.0593  -19.0361   22.6583 C   0  0  0  0  0  0  0  0  0  0  0  0
    6.0993  -17.7288   21.8956 C   0  0  2  0  0  0  0  0  0  0  0  0
    6.3856  -18.0164   20.5258 N   0  0  0  0  0  0  0  0  0  0  0  0
    7.1012  -16.8690   22.5465 C   0  0  0  0  0  0  0  0  0  0  0  0
    8.2941  -16.9662   22.1503 O   0  0  0  0  0  0  0  0  0  0  0  0
    5.7045  -12.4420   27.2058 C   0  0  0  0  0  0  0  0  0  0  0  0
    7.3661  -11.9069   26.6798 S   0  0  0  0  0  0  0  0  0  0  0  0
    8.2273  -13.2779   25.8388 C   0  0  0  0  0  0  0  0  0  0  0  0
    7.1903  -14.0399   25.0550 C   0  0  0  0  0  0  0  0  0  0  0  0
    7.7834  -15.1904   24.2767 C   0  0  2  0  0  0  0  0  0  0  0  0
    6.7812  -15.9535   23.5822 N   0  0  0  0  0  0  0  0  0  0  0  0
    8.5646  -16.1067   25.1343 C   0  0  0  0  0  0  0  0  0  0  0  0
    7.9734  -16.9399   25.8649 O   0  0  0  0  0  0  0  0  0  0  0  0
    9.9835  -16.1035   25.1842 N   0  0  0  0  0  0  0  0  0  0  0  0
   10.7752  -17.0450   25.9338 C   0  0  1  0  0  0  0  0  0  0  0  0
   12.2030  -17.0626   25.3736 C   0  0  0  0  0  0  0  0  0  0  0  0
   12.1678  -17.3580   23.5777 S   0  0  0  0  0  0  0  0  0  0  0  0
   10.8483  -16.7431   27.3615 C   0  0  0  0  0  0  0  0  0  0  0  0
   11.5752  -17.5584   28.1992 O   0  0  0  0  0  0  0  0  0  0  0  0
   10.2558  -15.7505   27.8254 O   0  0  0  0  0  0  0  0  0  0  0  0
  2  1  1  0
  2  3  1  0
  4  3  1  0
  4  5  1  0
  5  7  1  0
  5  6  1  6
  7  8  2  0
  7 14  1  0
  9 10  1  0
 11 12  1  0
 11 10  1  0
 13 15  1  0
 13 12  1  1
 14 13  1  0
 15 16  2  0
 17 18  1  0
 17 15  1  0
 18 19  1  6
 19 20  1  0
 21 22  1  0
 21 18  1  0
 23 21  2  0
M  END
$$$$
