MMC.pdb
     RDKit          3D

 23 22  0  0  1  0  0  0  0  0999 V2000
    8.3559  -21.1324   22.8168 C   0  0  0  0  0  0  0  0  0  0  0  0
    7.1566  -21.0425   21.4639 S   0  0  0  0  0  0  0  0  0  0  0  0
    7.3191  -19.3728   20.7272 C   0  0  0  0  0  0  0  0  0  0  0  0
    7.8690  -18.4790   21.7882 C   0  0  0  0  0  0  0  0  0  0  0  0
    7.9782  -17.0328   21.3536 C   0  0  2  0  0  0  0  0  0  0  0  0
    8.7135  -16.9858   20.1296 N   0  0  0  0  0  0  0  0  0  0  0  0
    8.6070  -16.2874   22.4562 C   0  0  0  0  0  0  0  0  0  0  0  0
    9.8647  -16.2001   22.4543 O   0  0  0  0  0  0  0  0  0  0  0  0
    5.3211  -12.4754   26.7713 C   0  0  0  0  0  0  0  0  0  0  0  0
    6.9713  -11.7132   26.6301 S   0  0  0  0  0  0  0  0  0  0  0  0
    8.1977  -12.9663   26.1258 C   0  0  0  0  0  0  0  0  0  0  0  0
    7.5447  -13.8309   25.0786 C   0  0  0  0  0  0  0  0  0  0  0  0
    8.4846  -14.8731   24.5206 C   0  0  2  0  0  0  0  0  0  0  0  0
    7.8656  -15.6757   23.5000 N   0  0  0  0  0  0  0  0  0  0  0  0
    9.0168  -15.7699   25.5685 C   0  0  0  0  0  0  0  0  0  0  0  0
    8.2607  -16.6053   26.1234 O   0  0  0  0  0  0  0  0  0  0  0  0
   10.3696  -15.7448   25.9988 N   0  0  0  0  0  0  0  0  0  0  0  0
   10.9263  -16.6289   26.9905 C   0  0  1  0  0  0  0  0  0  0  0  0
   12.4215  -16.8249   26.7096 C   0  0  0  0  0  0  0  0  0  0  0  0
   12.6996  -17.0472   24.9244 S   0  0  0  0  0  0  0  0  0  0  0  0
   10.7791  -16.1403   28.3596 C   0  0  0  0  0  0  0  0  0  0  0  0
   11.2498  -16.8931   29.4115 O   0  0  0  0  0  0  0  0  0  0  0  0
   10.2291  -15.0447   28.5805 O   0  0  0  0  0  0  0  0  0  0  0  0
  2  1  1  0
  2  3  1  0
  4  3  1  0
  4  5  1  0
  5  7  1  0
  5  6  1  6
  7  8  2  0
  7 14  1  0
  9 10  1  0
 11 12  1  0
 11 10  1  0
 13 15  1  0
 13 12  1  1
 14 13  1  0
 15 16  2  0
 17 18  1  0
 17 15  1  0
 18 19  1  6
 19 20  1  0
 21 22  1  0
 21 18  1  0
 23 21  2  0
M  END
$$$$
