MMC.pdb
     RDKit          3D

 23 22  0  0  1  0  0  0  0  0999 V2000
    7.8284  -11.6976   19.8092 C   0  0  0  0  0  0  0  0  0  0  0  0
    7.8022  -12.8917   18.4490 S   0  0  0  0  0  0  0  0  0  0  0  0
    7.6979  -14.5546   19.2112 C   0  0  0  0  0  0  0  0  0  0  0  0
    8.6602  -14.5735   20.3515 C   0  0  0  0  0  0  0  0  0  0  0  0
    8.6362  -15.8705   21.1321 C   0  0  2  0  0  0  0  0  0  0  0  0
    7.3312  -16.4403   21.0166 N   0  0  0  0  0  0  0  0  0  0  0  0
    9.0310  -15.5598   22.5158 C   0  0  0  0  0  0  0  0  0  0  0  0
   10.2221  -15.1957   22.7112 O   0  0  0  0  0  0  0  0  0  0  0  0
    5.3490  -12.2230   26.6611 C   0  0  0  0  0  0  0  0  0  0  0  0
    7.1485  -11.9581   26.5369 S   0  0  0  0  0  0  0  0  0  0  0  0
    7.8516  -13.0372   25.2446 C   0  0  0  0  0  0  0  0  0  0  0  0
    7.6567  -14.4603   25.6995 C   0  0  0  0  0  0  0  0  0  0  0  0
    8.5595  -15.4288   24.9728 C   0  0  2  0  0  0  0  0  0  0  0  0
    8.1393  -15.6529   23.6155 N   0  0  0  0  0  0  0  0  0  0  0  0
    8.6533  -16.7345   25.6598 C   0  0  0  0  0  0  0  0  0  0  0  0
    7.7121  -17.5611   25.5682 O   0  0  0  0  0  0  0  0  0  0  0  0
    9.7746  -17.1234   26.4390 N   0  0  0  0  0  0  0  0  0  0  0  0
   10.2307  -18.4814   26.5905 C   0  0  1  0  0  0  0  0  0  0  0  0
   10.5737  -19.0557   25.2101 C   0  0  0  0  0  0  0  0  0  0  0  0
   11.2665  -20.7301   25.3826 S   0  0  0  0  0  0  0  0  0  0  0  0
   11.4086  -18.6118   27.4449 C   0  0  0  0  0  0  0  0  0  0  0  0
   12.3993  -17.6572   27.3987 O   0  0  0  0  0  0  0  0  0  0  0  0
   11.5216  -19.5834   28.2162 O   0  0  0  0  0  0  0  0  0  0  0  0
  2  1  1  0
  2  3  1  0
  4  3  1  0
  4  5  1  0
  5  7  1  0
  5  6  1  1
  7  8  2  0
  7 14  1  0
  9 10  1  0
 11 12  1  0
 11 10  1  0
 13 15  1  0
 13 12  1  1
 14 13  1  0
 15 16  2  0
 17 18  1  0
 17 15  1  0
 18 19  1  6
 19 20  1  0
 21 22  1  0
 21 18  1  0
 23 21  2  0
M  END
$$$$
