MMC.pdb
     RDKit          3D

 23 22  0  0  1  0  0  0  0  0999 V2000
    5.7827  -19.9568   22.3675 C   0  0  0  0  0  0  0  0  0  0  0  0
    6.7446  -20.3406   20.8828 S   0  0  0  0  0  0  0  0  0  0  0  0
    7.6023  -18.7958   20.3981 C   0  0  0  0  0  0  0  0  0  0  0  0
    6.8931  -17.6714   21.0761 C   0  0  0  0  0  0  0  0  0  0  0  0
    7.4962  -16.3159   20.7739 C   0  0  2  0  0  0  0  0  0  0  0  0
    8.3043  -16.4349   19.6018 N   0  0  0  0  0  0  0  0  0  0  0  0
    8.2397  -15.8876   21.9700 C   0  0  0  0  0  0  0  0  0  0  0  0
    9.4827  -16.0981   21.9866 O   0  0  0  0  0  0  0  0  0  0  0  0
    5.9223  -11.7794   26.2104 C   0  0  0  0  0  0  0  0  0  0  0  0
    7.3460  -12.2671   27.2396 S   0  0  0  0  0  0  0  0  0  0  0  0
    8.3027  -13.5763   26.4033 C   0  0  0  0  0  0  0  0  0  0  0  0
    7.6151  -13.8612   25.0933 C   0  0  0  0  0  0  0  0  0  0  0  0
    8.3541  -14.8833   24.2624 C   0  0  2  0  0  0  0  0  0  0  0  0
    7.6224  -15.2594   23.0824 N   0  0  0  0  0  0  0  0  0  0  0  0
    8.6748  -16.1061   25.0288 C   0  0  0  0  0  0  0  0  0  0  0  0
    7.7556  -16.8875   25.3779 O   0  0  0  0  0  0  0  0  0  0  0  0
    9.9966  -16.4625   25.4051 N   0  0  0  0  0  0  0  0  0  0  0  0
   10.3377  -17.6292   26.1783 C   0  0  1  0  0  0  0  0  0  0  0  0
   11.6221  -18.2503   25.6148 C   0  0  0  0  0  0  0  0  0  0  0  0
   11.7375  -20.0006   26.1015 S   0  0  0  0  0  0  0  0  0  0  0  0
   10.5492  -17.3506   27.5968 C   0  0  0  0  0  0  0  0  0  0  0  0
   10.6419  -18.3903   28.4942 O   0  0  0  0  0  0  0  0  0  0  0  0
   10.6463  -16.1758   27.9993 O   0  0  0  0  0  0  0  0  0  0  0  0
  2  1  1  0
  2  3  1  0
  4  3  1  0
  4  5  1  0
  5  7  1  0
  5  6  1  6
  7  8  2  0
  7 14  1  0
  9 10  1  0
 11 12  1  0
 11 10  1  0
 13 15  1  0
 13 12  1  1
 14 13  1  0
 15 16  2  0
 17 18  1  0
 17 15  1  0
 18 19  1  6
 19 20  1  0
 21 22  1  0
 21 18  1  0
 23 21  2  0
M  END
$$$$
