MMC.pdb
     RDKit          3D

 23 22  0  0  1  0  0  0  0  0999 V2000
   10.2176  -20.9357   21.3645 C   0  0  0  0  0  0  0  0  0  0  0  0
    8.4260  -20.8135   21.1366 S   0  0  0  0  0  0  0  0  0  0  0  0
    8.0741  -19.0811   20.6549 C   0  0  0  0  0  0  0  0  0  0  0  0
    8.8264  -18.2039   21.5991 C   0  0  0  0  0  0  0  0  0  0  0  0
    8.5882  -16.7277   21.3617 C   0  0  2  0  0  0  0  0  0  0  0  0
    9.3091  -16.3389   20.1911 N   0  0  0  0  0  0  0  0  0  0  0  0
    9.0002  -16.0129   22.5808 C   0  0  0  0  0  0  0  0  0  0  0  0
   10.1928  -15.6085   22.6410 O   0  0  0  0  0  0  0  0  0  0  0  0
    6.3550  -11.2164   25.7003 C   0  0  0  0  0  0  0  0  0  0  0  0
    6.5170  -12.3460   27.1222 S   0  0  0  0  0  0  0  0  0  0  0  0
    7.7722  -13.6216   26.7674 C   0  0  0  0  0  0  0  0  0  0  0  0
    7.3865  -14.2745   25.4654 C   0  0  0  0  0  0  0  0  0  0  0  0
    8.5297  -15.0384   24.8403 C   0  0  2  0  0  0  0  0  0  0  0  0
    8.1231  -15.7670   23.6687 N   0  0  0  0  0  0  0  0  0  0  0  0
    9.1608  -15.9818   25.7876 C   0  0  0  0  0  0  0  0  0  0  0  0
    8.5557  -17.0282   26.1285 O   0  0  0  0  0  0  0  0  0  0  0  0
   10.4466  -15.7721   26.3519 N   0  0  0  0  0  0  0  0  0  0  0  0
   11.0857  -16.6690   27.2806 C   0  0  1  0  0  0  0  0  0  0  0  0
   12.6050  -16.4698   27.2104 C   0  0  0  0  0  0  0  0  0  0  0  0
   13.1543  -16.4456   25.4751 S   0  0  0  0  0  0  0  0  0  0  0  0
   10.6632  -16.4765   28.6659 C   0  0  0  0  0  0  0  0  0  0  0  0
   11.1637  -17.2917   29.6557 O   0  0  0  0  0  0  0  0  0  0  0  0
    9.8516  -15.5775   28.9566 O   0  0  0  0  0  0  0  0  0  0  0  0
  2  1  1  0
  2  3  1  0
  4  3  1  0
  4  5  1  0
  5  7  1  0
  5  6  1  6
  7  8  2  0
  7 14  1  0
  9 10  1  0
 11 12  1  0
 11 10  1  0
 13 15  1  0
 13 12  1  1
 14 13  1  0
 15 16  2  0
 17 18  1  0
 17 15  1  0
 18 19  1  1
 19 20  1  0
 21 22  1  0
 21 18  1  0
 23 21  2  0
M  END
$$$$
