VKK.pdb
     RDKit          3D

 26 25  0  0  1  0  0  0  0  0999 V2000
   25.1793  -16.3453  -21.0418 C   0  0  0  0  0  0  0  0  0  0  0  0
   25.0538  -17.5569  -20.1590 C   0  0  1  0  0  0  0  0  0  0  0  0
   26.2791  -17.8535  -19.3628 C   0  0  0  0  0  0  0  0  0  0  0  0
   23.8512  -17.3837  -19.2719 C   0  0  2  0  0  0  0  0  0  0  0  0
   23.9672  -16.2647  -18.3845 N   0  0  0  0  0  0  0  0  0  0  0  0
   23.6265  -18.6146  -18.4589 C   0  0  0  0  0  0  0  0  0  0  0  0
   23.4309  -19.6842  -19.1070 O   0  0  0  0  0  0  0  0  0  0  0  0
   23.6416  -18.5336  -17.0711 N   0  0  0  0  0  0  0  0  0  0  0  0
   23.3151  -19.7571  -16.2623 C   0  0  1  0  0  0  0  0  0  0  0  0
   24.4431  -20.0113  -15.3560 C   0  0  0  0  0  0  0  0  0  0  0  0
   24.8895  -21.2937  -14.8835 C   0  0  0  0  0  0  0  0  0  0  0  0
   24.4684  -22.5942  -15.4194 C   0  0  0  0  0  0  0  0  0  0  0  0
   25.3179  -23.6299  -14.5923 C   0  0  0  0  0  0  0  0  0  0  0  0
   25.0735  -24.9474  -15.0865 N   0  0  0  0  0  0  0  0  0  0  0  0
   22.0949  -19.3181  -15.4993 C   0  0  0  0  0  0  0  0  0  0  0  0
   22.0769  -18.2163  -14.9447 O   0  0  0  0  0  0  0  0  0  0  0  0
   20.9493  -20.1326  -15.3916 N   0  0  0  0  0  0  0  0  0  0  0  0
   19.7341  -19.5184  -14.7281 C   0  0  1  0  0  0  0  0  0  0  0  0
   19.2612  -18.4658  -15.6512 C   0  0  0  0  0  0  0  0  0  0  0  0
   17.9275  -17.9057  -15.5093 C   0  0  0  0  0  0  0  0  0  0  0  0
   17.3875  -16.8213  -16.3448 C   0  0  0  0  0  0  0  0  0  0  0  0
   15.9662  -16.4305  -15.8115 C   0  0  0  0  0  0  0  0  0  0  0  0
   15.5128  -15.3049  -16.5685 N   0  0  0  0  0  0  0  0  0  0  0  0
   18.8130  -20.6804  -14.6726 C   0  0  0  0  0  0  0  0  0  0  0  0
   18.0583  -20.8684  -13.7170 O   0  0  0  0  0  0  0  0  0  0  0  0
   18.8167  -21.5843  -15.7582 O   0  0  0  0  0  0  0  0  0  0  0  0
  2  4  1  0
  2  1  1  1
  3  2  1  0
  4  6  1  0
  4  5  1  1
  6  7  2  0
  8  9  1  0
  8  6  1  0
 10 11  1  0
  9 10  1  1
 12 11  1  0
 13 12  1  0
 14 13  1  0
 15 16  2  0
 15  9  1  0
 17 15  1  0
 18 17  1  0
 18 24  1  0
 18 19  1  6
 20 19  1  0
 21 20  1  0
 22 21  1  0
 23 22  1  0
 24 26  1  0
 25 24  2  0
M  END
$$$$
