VKK.pdb
     RDKit          3D

 26 25  0  0  1  0  0  0  0  0999 V2000
   16.8347  -12.0470  -17.7963 C   0  0  0  0  0  0  0  0  0  0  0  0
   17.7993  -11.1680  -17.0479 C   0  0  1  0  0  0  0  0  0  0  0  0
   17.1931  -10.4606  -15.8836 C   0  0  0  0  0  0  0  0  0  0  0  0
   18.9828  -11.9977  -16.6308 C   0  0  2  0  0  0  0  0  0  0  0  0
   18.6239  -13.1012  -15.7901 N   0  0  0  0  0  0  0  0  0  0  0  0
   19.9781  -11.1529  -15.9082 C   0  0  0  0  0  0  0  0  0  0  0  0
   19.8099  -11.0366  -14.6590 O   0  0  0  0  0  0  0  0  0  0  0  0
   21.0117  -10.5511  -16.6168 N   0  0  0  0  0  0  0  0  0  0  0  0
   22.0728   -9.7974  -15.8660 C   0  0  1  0  0  0  0  0  0  0  0  0
   23.3417   -9.9698  -16.5863 C   0  0  0  0  0  0  0  0  0  0  0  0
   24.4307  -10.8292  -16.2085 C   0  0  0  0  0  0  0  0  0  0  0  0
   24.9845  -11.9148  -17.0274 C   0  0  0  0  0  0  0  0  0  0  0  0
   25.9782  -12.6476  -16.0506 C   0  0  0  0  0  0  0  0  0  0  0  0
   26.5875  -13.7467  -16.7292 N   0  0  0  0  0  0  0  0  0  0  0  0
   21.5834   -8.3779  -15.9620 C   0  0  0  0  0  0  0  0  0  0  0  0
   20.8833   -8.0295  -16.9162 O   0  0  0  0  0  0  0  0  0  0  0  0
   21.8998   -7.4119  -14.9852 N   0  0  0  0  0  0  0  0  0  0  0  0
   21.4188   -5.9986  -15.2408 C   0  0  1  0  0  0  0  0  0  0  0  0
   19.9430   -6.0731  -15.2566 C   0  0  0  0  0  0  0  0  0  0  0  0
   19.1433   -4.8601  -15.2169 C   0  0  0  0  0  0  0  0  0  0  0  0
   17.6719   -4.8338  -15.2061 C   0  0  0  0  0  0  0  0  0  0  0  0
   17.1919   -3.3416  -15.2030 C   0  0  0  0  0  0  0  0  0  0  0  0
   16.5348   -3.0943  -16.4490 N   0  0  0  0  0  0  0  0  0  0  0  0
   21.9387   -5.2922  -14.0440 C   0  0  0  0  0  0  0  0  0  0  0  0
   22.3004   -5.8995  -13.0348 O   0  0  0  0  0  0  0  0  0  0  0  0
   22.0139   -3.8821  -14.0847 O   0  0  0  0  0  0  0  0  0  0  0  0
  2  4  1  0
  2  1  1  1
  3  2  1  0
  4  6  1  0
  4  5  1  1
  6  7  2  0
  8  9  1  0
  8  6  1  0
 10 11  1  0
  9 10  1  6
 12 11  1  0
 13 12  1  0
 14 13  1  0
 15 16  2  0
 15  9  1  0
 17 15  1  0
 18 17  1  0
 18 24  1  0
 18 19  1  1
 20 19  1  0
 21 20  1  0
 22 21  1  0
 23 22  1  0
 24 26  1  0
 25 24  2  0
M  END
$$$$
