VKK.pdb
     RDKit          3D

 26 25  0  0  1  0  0  0  0  0999 V2000
   27.7813  -16.2866  -16.1892 C   0  0  0  0  0  0  0  0  0  0  0  0
   26.8364  -17.3041  -15.6106 C   0  0  1  0  0  0  0  0  0  0  0  0
   25.6245  -17.5458  -16.4449 C   0  0  0  0  0  0  0  0  0  0  0  0
   27.5951  -18.5791  -15.3619 C   0  0  2  0  0  0  0  0  0  0  0  0
   28.0774  -19.1870  -16.5664 N   0  0  0  0  0  0  0  0  0  0  0  0
   26.7324  -19.5629  -14.6446 C   0  0  0  0  0  0  0  0  0  0  0  0
   26.2656  -20.5099  -15.3428 O   0  0  0  0  0  0  0  0  0  0  0  0
   26.4883  -19.4001  -13.2857 N   0  0  0  0  0  0  0  0  0  0  0  0
   25.5937  -20.3794  -12.5797 C   0  0  1  0  0  0  0  0  0  0  0  0
   25.8013  -20.2171  -11.1343 C   0  0  0  0  0  0  0  0  0  0  0  0
   25.0689  -20.8730  -10.0853 C   0  0  0  0  0  0  0  0  0  0  0  0
   25.3220  -20.7248   -8.6466 C   0  0  0  0  0  0  0  0  0  0  0  0
   24.2822  -21.7033   -7.9833 C   0  0  0  0  0  0  0  0  0  0  0  0
   24.4411  -21.6747   -6.5643 N   0  0  0  0  0  0  0  0  0  0  0  0
   24.2235  -19.9095  -12.9867 C   0  0  0  0  0  0  0  0  0  0  0  0
   23.9772  -18.7021  -13.0455 O   0  0  0  0  0  0  0  0  0  0  0  0
   23.1904  -20.8127  -13.3095 N   0  0  0  0  0  0  0  0  0  0  0  0
   21.8441  -20.2139  -13.6602 C   0  0  1  0  0  0  0  0  0  0  0  0
   21.6341  -20.5085  -15.0929 C   0  0  0  0  0  0  0  0  0  0  0  0
   20.3814  -20.1584  -15.7416 C   0  0  0  0  0  0  0  0  0  0  0  0
   20.0790  -20.4132  -17.1591 C   0  0  0  0  0  0  0  0  0  0  0  0
   18.6430  -19.8706  -17.4763 C   0  0  0  0  0  0  0  0  0  0  0  0
   18.3388  -20.2135  -18.8311 N   0  0  0  0  0  0  0  0  0  0  0  0
   20.9390  -20.9953  -12.7814 C   0  0  0  0  0  0  0  0  0  0  0  0
   21.1664  -22.1713  -12.4929 O   0  0  0  0  0  0  0  0  0  0  0  0
   19.7897  -20.3521  -12.2706 O   0  0  0  0  0  0  0  0  0  0  0  0
  2  4  1  0
  2  1  1  6
  3  2  1  0
  4  6  1  0
  4  5  1  6
  6  7  2  0
  8  9  1  0
  8  6  1  0
 10 11  1  0
  9 10  1  1
 12 11  1  0
 13 12  1  0
 14 13  1  0
 15 16  2  0
 15  9  1  0
 17 15  1  0
 18 17  1  0
 18 24  1  0
 18 19  1  6
 20 19  1  0
 21 20  1  0
 22 21  1  0
 23 22  1  0
 24 26  1  0
 25 24  2  0
M  END
$$$$
