VKK.pdb
     RDKit          3D

 26 25  0  0  1  0  0  0  0  0999 V2000
   25.9929  -14.6431  -20.5899 C   0  0  0  0  0  0  0  0  0  0  0  0
   25.8295  -16.0319  -20.0352 C   0  0  1  0  0  0  0  0  0  0  0  0
   27.1125  -16.6763  -19.6329 C   0  0  0  0  0  0  0  0  0  0  0  0
   24.8573  -15.9810  -18.8883 C   0  0  2  0  0  0  0  0  0  0  0  0
   25.2790  -15.1045  -17.8361 N   0  0  0  0  0  0  0  0  0  0  0  0
   24.6566  -17.3457  -18.3193 C   0  0  0  0  0  0  0  0  0  0  0  0
   24.2267  -18.2270  -19.1197 O   0  0  0  0  0  0  0  0  0  0  0  0
   24.9417  -17.5799  -16.9789 N   0  0  0  0  0  0  0  0  0  0  0  0
   24.6813  -18.9426  -16.4019 C   0  0  1  0  0  0  0  0  0  0  0  0
   25.7077  -19.2034  -15.3836 C   0  0  0  0  0  0  0  0  0  0  0  0
   26.8377  -20.0829  -15.5128 C   0  0  0  0  0  0  0  0  0  0  0  0
   26.8539  -21.3472  -16.2592 C   0  0  0  0  0  0  0  0  0  0  0  0
   28.2902  -21.9271  -15.9773 C   0  0  0  0  0  0  0  0  0  0  0  0
   28.4341  -23.1834  -16.6413 N   0  0  0  0  0  0  0  0  0  0  0  0
   23.3256  -18.7683  -15.7729 C   0  0  0  0  0  0  0  0  0  0  0  0
   23.2022  -18.0894  -14.7503 O   0  0  0  0  0  0  0  0  0  0  0  0
   22.1687  -19.3621  -16.3172 N   0  0  0  0  0  0  0  0  0  0  0  0
   20.8582  -19.0761  -15.6137 C   0  0  1  0  0  0  0  0  0  0  0  0
   20.0045  -18.4009  -16.6132 C   0  0  0  0  0  0  0  0  0  0  0  0
   19.1033  -17.3334  -16.2120 C   0  0  0  0  0  0  0  0  0  0  0  0
   18.1795  -16.6385  -17.1227 C   0  0  0  0  0  0  0  0  0  0  0  0
   17.4205  -15.5250  -16.3219 C   0  0  0  0  0  0  0  0  0  0  0  0
   16.4328  -14.9627  -17.1901 N   0  0  0  0  0  0  0  0  0  0  0  0
   20.3890  -20.4486  -15.3009 C   0  0  0  0  0  0  0  0  0  0  0  0
   20.6855  -21.4149  -16.0055 O   0  0  0  0  0  0  0  0  0  0  0  0
   19.5810  -20.6304  -14.1565 O   0  0  0  0  0  0  0  0  0  0  0  0
  2  4  1  0
  2  1  1  1
  3  2  1  0
  4  6  1  0
  4  5  1  1
  6  7  2  0
  8  9  1  0
  8  6  1  0
 10 11  1  0
  9 10  1  1
 12 11  1  0
 13 12  1  0
 14 13  1  0
 15 16  2  0
 15  9  1  0
 17 15  1  0
 18 17  1  0
 18 24  1  0
 18 19  1  6
 20 19  1  0
 21 20  1  0
 22 21  1  0
 23 22  1  0
 24 26  1  0
 25 24  2  0
M  END
$$$$
