VKK.pdb
     RDKit          3D

 26 25  0  0  1  0  0  0  0  0999 V2000
   26.4577   -9.3242  -16.0160 C   0  0  0  0  0  0  0  0  0  0  0  0
   27.0479  -10.5852  -16.5857 C   0  0  1  0  0  0  0  0  0  0  0  0
   28.4969  -10.7642  -16.2829 C   0  0  0  0  0  0  0  0  0  0  0  0
   26.2373  -11.7570  -16.1031 C   0  0  2  0  0  0  0  0  0  0  0  0
   26.7358  -13.0145  -16.5756 N   0  0  0  0  0  0  0  0  0  0  0  0
   24.8160  -11.6159  -16.5349 C   0  0  0  0  0  0  0  0  0  0  0  0
   24.5627  -11.9309  -17.7344 O   0  0  0  0  0  0  0  0  0  0  0  0
   23.8649  -11.1594  -15.6295 N   0  0  0  0  0  0  0  0  0  0  0  0
   22.4433  -10.9877  -16.0846 C   0  0  1  0  0  0  0  0  0  0  0  0
   21.6028  -11.8882  -15.2838 C   0  0  0  0  0  0  0  0  0  0  0  0
   20.1870  -12.0921  -15.4284 C   0  0  0  0  0  0  0  0  0  0  0  0
   19.4943  -12.4075  -16.6841 C   0  0  0  0  0  0  0  0  0  0  0  0
   17.9707  -12.3597  -16.2903 C   0  0  0  0  0  0  0  0  0  0  0  0
   17.1764  -12.7245  -17.4199 N   0  0  0  0  0  0  0  0  0  0  0  0
   22.1719   -9.5474  -15.7445 C   0  0  0  0  0  0  0  0  0  0  0  0
   22.5826   -9.0763  -14.6809 O   0  0  0  0  0  0  0  0  0  0  0  0
   21.4526   -8.6990  -16.6107 N   0  0  0  0  0  0  0  0  0  0  0  0
   21.3626   -7.2389  -16.2180 C   0  0  1  0  0  0  0  0  0  0  0  0
   21.0108   -6.5111  -17.4550 C   0  0  0  0  0  0  0  0  0  0  0  0
   20.6529   -5.1032  -17.4053 C   0  0  0  0  0  0  0  0  0  0  0  0
   20.2549   -4.3043  -18.5753 C   0  0  0  0  0  0  0  0  0  0  0  0
   20.0228   -2.8220  -18.1216 C   0  0  0  0  0  0  0  0  0  0  0  0
   19.5158   -2.0980  -19.2461 N   0  0  0  0  0  0  0  0  0  0  0  0
   20.2472   -7.2678  -15.2398 C   0  0  0  0  0  0  0  0  0  0  0  0
   19.3060   -8.0555  -15.3480 O   0  0  0  0  0  0  0  0  0  0  0  0
   20.2863   -6.3581  -14.1597 O   0  0  0  0  0  0  0  0  0  0  0  0
  2  4  1  0
  2  1  1  1
  3  2  1  0
  4  6  1  0
  4  5  1  6
  6  7  2  0
  8  9  1  0
  8  6  1  0
 10 11  1  0
  9 10  1  1
 12 11  1  0
 13 12  1  0
 14 13  1  0
 15 16  2  0
 15  9  1  0
 17 15  1  0
 18 17  1  0
 18 24  1  0
 18 19  1  6
 20 19  1  0
 21 20  1  0
 22 21  1  0
 23 22  1  0
 24 26  1  0
 25 24  2  0
M  END
$$$$
