VKK.pdb
     RDKit          3D

 26 25  0  0  1  0  0  0  0  0999 V2000
   28.2007  -16.9263  -17.1007 C   0  0  0  0  0  0  0  0  0  0  0  0
   27.1726  -17.7841  -16.4152 C   0  0  1  0  0  0  0  0  0  0  0  0
   25.9877  -18.1007  -17.2633 C   0  0  0  0  0  0  0  0  0  0  0  0
   27.8433  -19.0362  -15.9194 C   0  0  2  0  0  0  0  0  0  0  0  0
   28.3752  -19.8424  -16.9778 N   0  0  0  0  0  0  0  0  0  0  0  0
   26.8817  -19.8604  -15.1304 C   0  0  0  0  0  0  0  0  0  0  0  0
   26.2742  -20.7712  -15.7657 O   0  0  0  0  0  0  0  0  0  0  0  0
   26.7024  -19.5992  -13.7767 N   0  0  0  0  0  0  0  0  0  0  0  0
   25.7776  -20.4736  -12.9781 C   0  0  1  0  0  0  0  0  0  0  0  0
   26.0036  -20.1859  -11.5553 C   0  0  0  0  0  0  0  0  0  0  0  0
   25.2787  -20.7401  -10.4441 C   0  0  0  0  0  0  0  0  0  0  0  0
   25.5258  -20.4386   -9.0286 C   0  0  0  0  0  0  0  0  0  0  0  0
   24.4996  -21.3588   -8.2677 C   0  0  0  0  0  0  0  0  0  0  0  0
   24.6289  -21.1523   -6.8605 N   0  0  0  0  0  0  0  0  0  0  0  0
   24.4227  -19.9915  -13.4203 C   0  0  0  0  0  0  0  0  0  0  0  0
   24.2178  -18.7853  -13.5778 O   0  0  0  0  0  0  0  0  0  0  0  0
   23.3577  -20.8819  -13.6663 N   0  0  0  0  0  0  0  0  0  0  0  0
   22.0186  -20.2658  -14.0148 C   0  0  1  0  0  0  0  0  0  0  0  0
   21.6940  -20.7513  -15.3722 C   0  0  0  0  0  0  0  0  0  0  0  0
   20.3912  -20.4838  -15.9587 C   0  0  0  0  0  0  0  0  0  0  0  0
   19.9519  -20.9825  -17.2718 C   0  0  0  0  0  0  0  0  0  0  0  0
   18.5705  -20.3312  -17.6248 C   0  0  0  0  0  0  0  0  0  0  0  0
   18.1967  -20.7858  -18.9284 N   0  0  0  0  0  0  0  0  0  0  0  0
   21.1436  -20.8610  -12.9747 C   0  0  0  0  0  0  0  0  0  0  0  0
   21.4169  -21.9306  -12.4274 O   0  0  0  0  0  0  0  0  0  0  0  0
   19.9687  -20.1638  -12.6155 O   0  0  0  0  0  0  0  0  0  0  0  0
  2  4  1  0
  2  1  1  6
  3  2  1  0
  4  6  1  0
  4  5  1  6
  6  7  2  0
  8  9  1  0
  8  6  1  0
 10 11  1  0
  9 10  1  1
 12 11  1  0
 13 12  1  0
 14 13  1  0
 15 16  2  0
 15  9  1  0
 17 15  1  0
 18 17  1  0
 18 24  1  0
 18 19  1  6
 20 19  1  0
 21 20  1  0
 22 21  1  0
 23 22  1  0
 24 26  1  0
 25 24  2  0
M  END
$$$$
