VKK.pdb
     RDKit          3D

 26 25  0  0  1  0  0  0  0  0999 V2000
   23.0486  -15.3740  -21.0313 C   0  0  0  0  0  0  0  0  0  0  0  0
   22.8418  -16.7098  -20.3710 C   0  0  1  0  0  0  0  0  0  0  0  0
   21.6574  -17.4585  -20.8808 C   0  0  0  0  0  0  0  0  0  0  0  0
   24.1036  -17.5168  -20.5115 C   0  0  2  0  0  0  0  0  0  0  0  0
   24.4165  -17.8332  -21.8736 N   0  0  0  0  0  0  0  0  0  0  0  0
   23.9922  -18.7896  -19.7408 C   0  0  0  0  0  0  0  0  0  0  0  0
   23.4159  -19.7506  -20.3295 O   0  0  0  0  0  0  0  0  0  0  0  0
   24.5098  -18.8602  -18.4524 N   0  0  0  0  0  0  0  0  0  0  0  0
   24.3568  -20.1340  -17.6703 C   0  0  1  0  0  0  0  0  0  0  0  0
   25.6564  -20.4460  -17.0603 C   0  0  0  0  0  0  0  0  0  0  0  0
   26.1239  -21.7450  -16.6588 C   0  0  0  0  0  0  0  0  0  0  0  0
   25.4563  -23.0198  -16.9508 C   0  0  0  0  0  0  0  0  0  0  0  0
   26.4293  -24.0972  -16.3416 C   0  0  0  0  0  0  0  0  0  0  0  0
   25.8717  -25.3991  -16.5256 N   0  0  0  0  0  0  0  0  0  0  0  0
   23.3464  -19.7464  -16.6250 C   0  0  0  0  0  0  0  0  0  0  0  0
   23.5127  -18.7241  -15.9547 O   0  0  0  0  0  0  0  0  0  0  0  0
   22.1948  -20.5208  -16.3771 N   0  0  0  0  0  0  0  0  0  0  0  0
   21.2100  -19.9759  -15.3635 C   0  0  1  0  0  0  0  0  0  0  0  0
   19.9431  -20.6968  -15.6063 C   0  0  0  0  0  0  0  0  0  0  0  0
   18.8036  -20.5018  -14.7254 C   0  0  0  0  0  0  0  0  0  0  0  0
   17.4736  -21.0931  -14.9425 C   0  0  0  0  0  0  0  0  0  0  0  0
   16.5240  -20.6458  -13.7783 C   0  0  0  0  0  0  0  0  0  0  0  0
   15.2579  -21.2787  -13.9832 N   0  0  0  0  0  0  0  0  0  0  0  0
   21.8540  -20.3740  -14.0873 C   0  0  0  0  0  0  0  0  0  0  0  0
   22.5324  -21.3980  -13.9916 O   0  0  0  0  0  0  0  0  0  0  0  0
   21.6722  -19.5393  -12.9622 O   0  0  0  0  0  0  0  0  0  0  0  0
  2  4  1  0
  2  1  1  6
  3  2  1  0
  4  6  1  0
  4  5  1  6
  6  7  2  0
  8  9  1  0
  8  6  1  0
 10 11  1  0
  9 10  1  1
 12 11  1  0
 13 12  1  0
 14 13  1  0
 15 16  2  0
 15  9  1  0
 17 15  1  0
 18 17  1  0
 18 24  1  0
 18 19  1  6
 20 19  1  0
 21 20  1  0
 22 21  1  0
 23 22  1  0
 24 26  1  0
 25 24  2  0
M  END
$$$$
