VKK.pdb
     RDKit          3D

 26 25  0  0  1  0  0  0  0  0999 V2000
   28.0700  -12.7534  -15.2706 C   0  0  0  0  0  0  0  0  0  0  0  0
   26.8431  -12.0831  -15.8260 C   0  0  1  0  0  0  0  0  0  0  0  0
   27.0658  -11.4048  -17.1350 C   0  0  0  0  0  0  0  0  0  0  0  0
   25.7377  -13.0997  -15.9153 C   0  0  2  0  0  0  0  0  0  0  0  0
   26.0651  -14.2091  -16.7610 N   0  0  0  0  0  0  0  0  0  0  0  0
   24.4893  -12.4628  -16.4276 C   0  0  0  0  0  0  0  0  0  0  0  0
   24.3143  -12.5049  -17.6805 O   0  0  0  0  0  0  0  0  0  0  0  0
   23.6035  -11.8710  -15.5343 N   0  0  0  0  0  0  0  0  0  0  0  0
   22.3695  -11.1971  -16.0644 C   0  0  1  0  0  0  0  0  0  0  0  0
   21.2028  -11.8624  -15.4687 C   0  0  0  0  0  0  0  0  0  0  0  0
   19.8305  -11.4495  -15.5842 C   0  0  0  0  0  0  0  0  0  0  0  0
   18.6830  -12.1171  -14.9569 C   0  0  0  0  0  0  0  0  0  0  0  0
   17.4524  -11.2463  -15.4106 C   0  0  0  0  0  0  0  0  0  0  0  0
   16.2438  -11.8632  -14.9653 N   0  0  0  0  0  0  0  0  0  0  0  0
   22.5214   -9.7956  -15.5388 C   0  0  0  0  0  0  0  0  0  0  0  0
   23.0453   -9.6022  -14.4387 O   0  0  0  0  0  0  0  0  0  0  0  0
   22.0799   -8.6731  -16.2686 N   0  0  0  0  0  0  0  0  0  0  0  0
   22.2547   -7.3194  -15.6122 C   0  0  1  0  0  0  0  0  0  0  0  0
   22.1380   -6.3269  -16.7007 C   0  0  0  0  0  0  0  0  0  0  0  0
   22.0828   -4.9060  -16.3999 C   0  0  0  0  0  0  0  0  0  0  0  0
   21.9006   -3.8488  -17.4074 C   0  0  0  0  0  0  0  0  0  0  0  0
   21.8873   -2.4576  -16.6853 C   0  0  0  0  0  0  0  0  0  0  0  0
   21.8912   -1.4444  -17.6948 N   0  0  0  0  0  0  0  0  0  0  0  0
   21.0927   -7.2896  -14.6899 C   0  0  0  0  0  0  0  0  0  0  0  0
   20.0331   -7.8583  -14.9584 O   0  0  0  0  0  0  0  0  0  0  0  0
   21.2272   -6.5842  -13.4734 O   0  0  0  0  0  0  0  0  0  0  0  0
  2  4  1  0
  2  1  1  6
  3  2  1  0
  4  6  1  0
  4  5  1  6
  6  7  2  0
  8  9  1  0
  8  6  1  0
 10 11  1  0
  9 10  1  1
 12 11  1  0
 13 12  1  0
 14 13  1  0
 15 16  2  0
 15  9  1  0
 17 15  1  0
 18 17  1  0
 18 24  1  0
 18 19  1  6
 20 19  1  0
 21 20  1  0
 22 21  1  0
 23 22  1  0
 24 26  1  0
 25 24  2  0
M  END
$$$$
