NEP.pdb
     RDKit          3D

 25 25  0  0  1  0  0  0  0  0999 V2000
    9.4067  -14.2909   17.6317 N   0  0  0  0  0  0  0  0  0  0  0  0
    8.2244  -13.6072   17.9727 C   0  0  0  0  0  0  0  0  0  0  0  0
    7.5914  -12.9801   17.0795 O   0  0  0  0  0  0  0  0  0  0  0  0
    7.6753  -13.5859   19.3522 C   0  0  0  0  0  0  0  0  0  0  0  0
    8.5761  -14.3140   20.3200 C   0  0  2  0  0  0  0  0  0  0  0  0
    8.8311  -15.6606   19.8851 N   0  0  0  0  0  0  0  0  0  0  0  0
    8.0817  -14.2710   21.7005 C   0  0  0  0  0  0  0  0  0  0  0  0
    7.8958  -13.1399   22.2364 O   0  0  0  0  0  0  0  0  0  0  0  0
    7.7997  -15.4095   22.4708 N   0  0  0  0  0  0  0  0  0  0  0  0
    7.2755  -15.2869   23.8331 C   0  0  1  0  0  0  0  0  0  0  0  0
    6.9100  -16.7083   24.2193 C   0  0  0  0  0  0  0  0  0  0  0  0
    6.0438  -17.2500   23.1006 C   0  0  0  0  0  0  0  0  0  0  0  0
    5.9869  -18.7508   23.1571 C   0  0  0  0  0  0  0  0  0  0  0  0
    5.6016  -19.3261   24.2072 O   0  0  0  0  0  0  0  0  0  0  0  0
    8.3160  -14.7213   24.7609 C   0  0  0  0  0  0  0  0  0  0  0  0
    9.3921  -15.3576   24.7733 O   0  0  0  0  0  0  0  0  0  0  0  0
    6.3661  -19.4521   22.0357 O   0  0  0  0  0  0  0  0  0  0  0  0
    8.1210  -13.5948   25.5421 N   0  0  0  0  0  0  0  0  0  0  0  0
    7.4313  -12.3903   25.0264 C   0  0  0  0  0  0  0  0  0  0  0  0
    6.6137  -11.9500   26.2128 C   0  0  0  0  0  0  0  0  0  0  0  0
    7.1450  -12.6997   27.4047 C   0  0  0  0  0  0  0  0  0  0  0  0
    8.5076  -13.2179   26.8453 C   0  0  1  0  0  0  0  0  0  0  0  0
    9.0733  -14.1820   27.7604 C   0  0  0  0  0  0  0  0  0  0  0  0
    8.6037  -15.3763   27.7188 O   0  0  0  0  0  0  0  0  0  0  0  0
   10.0632  -13.9698   28.6745 O   0  0  0  0  0  0  0  0  0  0  0  0
  1  2  1  0
  2  3  2  0
  4  5  1  0
  4  2  1  0
  5  6  1  6
  7  5  1  0
  8  7  2  0
  9  7  1  0
 10 11  1  1
 10  9  1  0
 11 12  1  0
 12 13  1  0
 13 17  1  0
 14 13  2  0
 15 10  1  0
 16 15  2  0
 18 15  1  0
 18 22  1  0
 19 20  1  0
 19 18  1  0
 20 21  1  0
 21 22  1  0
 22 23  1  1
 23 25  1  0
 24 23  2  0
M  END
$$$$
