NEP.pdb
     RDKit          3D

 25 25  0  0  1  0  0  0  0  0999 V2000
    7.9015  -12.7677   17.5648 N   0  0  0  0  0  0  0  0  0  0  0  0
    8.5377  -13.2539   18.7225 C   0  0  0  0  0  0  0  0  0  0  0  0
    9.7633  -13.5501   18.6783 O   0  0  0  0  0  0  0  0  0  0  0  0
    7.8288  -13.4390   20.0140 C   0  0  0  0  0  0  0  0  0  0  0  0
    7.7990  -14.8901   20.4285 C   0  0  2  0  0  0  0  0  0  0  0  0
    7.0688  -15.6893   19.4821 N   0  0  0  0  0  0  0  0  0  0  0  0
    7.3079  -15.0812   21.7975 C   0  0  0  0  0  0  0  0  0  0  0  0
    6.1185  -14.7392   22.0617 O   0  0  0  0  0  0  0  0  0  0  0  0
    8.0755  -15.6220   22.8403 N   0  0  0  0  0  0  0  0  0  0  0  0
    7.5503  -15.6900   24.2060 C   0  0  1  0  0  0  0  0  0  0  0  0
    7.5767  -17.1701   24.5404 C   0  0  0  0  0  0  0  0  0  0  0  0
    6.6036  -17.8434   23.5943 C   0  0  0  0  0  0  0  0  0  0  0  0
    6.1376  -19.1545   24.1622 C   0  0  0  0  0  0  0  0  0  0  0  0
    6.5445  -19.5306   25.2914 O   0  0  0  0  0  0  0  0  0  0  0  0
    8.4132  -14.9024   25.1539 C   0  0  0  0  0  0  0  0  0  0  0  0
    9.6042  -15.2799   25.1971 O   0  0  0  0  0  0  0  0  0  0  0  0
    5.2663  -19.9084   23.4101 O   0  0  0  0  0  0  0  0  0  0  0  0
    7.9500  -13.8470   25.9214 N   0  0  0  0  0  0  0  0  0  0  0  0
    6.8881  -12.9332   25.4420 C   0  0  0  0  0  0  0  0  0  0  0  0
    6.0748  -12.6969   26.6881 C   0  0  0  0  0  0  0  0  0  0  0  0
    6.9033  -13.1897   27.8437 C   0  0  0  0  0  0  0  0  0  0  0  0
    8.3087  -13.3042   27.1729 C   0  0  1  0  0  0  0  0  0  0  0  0
    9.2125  -14.0052   28.0552 C   0  0  0  0  0  0  0  0  0  0  0  0
   10.0870  -13.3019   28.6791 O   0  0  0  0  0  0  0  0  0  0  0  0
    9.2447  -15.3452   28.3084 O   0  0  0  0  0  0  0  0  0  0  0  0
  1  2  1  0
  2  3  2  0
  4  5  1  0
  4  2  1  0
  5  6  1  6
  7  5  1  0
  8  7  2  0
  9  7  1  0
 10 11  1  1
 10  9  1  0
 11 12  1  0
 12 13  1  0
 13 17  1  0
 14 13  2  0
 15 10  1  0
 16 15  2  0
 18 15  1  0
 18 22  1  0
 19 20  1  0
 19 18  1  0
 20 21  1  0
 21 22  1  0
 22 23  1  1
 23 25  1  0
 24 23  2  0
M  END
$$$$
