NEP.pdb
     RDKit          3D

 25 25  0  0  1  0  0  0  0  0999 V2000
    9.6188  -13.9894   17.8804 N   0  0  0  0  0  0  0  0  0  0  0  0
    8.3265  -13.4811   18.1110 C   0  0  0  0  0  0  0  0  0  0  0  0
    7.7115  -12.9026   17.1736 O   0  0  0  0  0  0  0  0  0  0  0  0
    7.6390  -13.5928   19.4224 C   0  0  0  0  0  0  0  0  0  0  0  0
    8.5381  -14.2014   20.4710 C   0  0  2  0  0  0  0  0  0  0  0  0
    9.0935  -15.4497   20.0229 N   0  0  0  0  0  0  0  0  0  0  0  0
    7.8821  -14.3335   21.7764 C   0  0  0  0  0  0  0  0  0  0  0  0
    7.2534  -13.3361   22.2358 O   0  0  0  0  0  0  0  0  0  0  0  0
    7.9061  -15.5012   22.5542 N   0  0  0  0  0  0  0  0  0  0  0  0
    7.3052  -15.5297   23.8898 C   0  0  1  0  0  0  0  0  0  0  0  0
    7.1097  -17.0070   24.1772 C   0  0  0  0  0  0  0  0  0  0  0  0
    6.2050  -17.5425   23.0864 C   0  0  0  0  0  0  0  0  0  0  0  0
    5.9920  -19.0205   23.2562 C   0  0  0  0  0  0  0  0  0  0  0  0
    6.9804  -19.7974   23.2975 O   0  0  0  0  0  0  0  0  0  0  0  0
    8.2172  -14.8940   24.9036 C   0  0  0  0  0  0  0  0  0  0  0  0
    9.3385  -15.4388   24.9974 O   0  0  0  0  0  0  0  0  0  0  0  0
    4.6982  -19.4765   23.3621 O   0  0  0  0  0  0  0  0  0  0  0  0
    7.8664  -13.7999   25.6763 N   0  0  0  0  0  0  0  0  0  0  0  0
    6.9782  -12.7302   25.1671 C   0  0  0  0  0  0  0  0  0  0  0  0
    6.1347  -12.4057   26.3726 C   0  0  0  0  0  0  0  0  0  0  0  0
    6.8130  -13.0401   27.5568 C   0  0  0  0  0  0  0  0  0  0  0  0
    8.2246  -13.3435   26.9620 C   0  0  1  0  0  0  0  0  0  0  0  0
    8.9633  -14.1887   27.8712 C   0  0  0  0  0  0  0  0  0  0  0  0
    9.7370  -13.6075   28.7152 O   0  0  0  0  0  0  0  0  0  0  0  0
    8.9332  -15.5506   27.9406 O   0  0  0  0  0  0  0  0  0  0  0  0
  1  2  1  0
  2  3  2  0
  4  5  1  0
  4  2  1  0
  5  6  1  6
  7  5  1  0
  8  7  2  0
  9  7  1  0
 10 11  1  1
 10  9  1  0
 11 12  1  0
 12 13  1  0
 13 17  1  0
 14 13  2  0
 15 10  1  0
 16 15  2  0
 18 15  1  0
 18 22  1  0
 19 20  1  0
 19 18  1  0
 20 21  1  0
 21 22  1  0
 22 23  1  1
 23 25  1  0
 24 23  2  0
M  END
$$$$
