NEP.pdb
     RDKit          3D

 25 25  0  0  1  0  0  0  0  0999 V2000
    8.7198  -12.5436   17.3891 N   0  0  0  0  0  0  0  0  0  0  0  0
    7.9960  -13.5804   18.0078 C   0  0  0  0  0  0  0  0  0  0  0  0
    7.7695  -14.6447   17.3694 O   0  0  0  0  0  0  0  0  0  0  0  0
    7.4771  -13.4838   19.3956 C   0  0  0  0  0  0  0  0  0  0  0  0
    8.4690  -14.0217   20.3983 C   0  0  2  0  0  0  0  0  0  0  0  0
    9.0544  -15.2543   19.9451 N   0  0  0  0  0  0  0  0  0  0  0  0
    7.9039  -14.1493   21.7460 C   0  0  0  0  0  0  0  0  0  0  0  0
    7.4306  -13.1141   22.2988 O   0  0  0  0  0  0  0  0  0  0  0  0
    7.8535  -15.3520   22.4672 N   0  0  0  0  0  0  0  0  0  0  0  0
    7.2616  -15.4037   23.8060 C   0  0  1  0  0  0  0  0  0  0  0  0
    6.9667  -16.8763   24.0246 C   0  0  0  0  0  0  0  0  0  0  0  0
    6.0808  -17.3138   22.8761 C   0  0  0  0  0  0  0  0  0  0  0  0
    6.7879  -18.3276   22.0212 C   0  0  0  0  0  0  0  0  0  0  0  0
    7.1573  -18.0213   20.8585 O   0  0  0  0  0  0  0  0  0  0  0  0
    8.2225  -14.8819   24.8394 C   0  0  0  0  0  0  0  0  0  0  0  0
    9.2598  -15.5679   24.9678 O   0  0  0  0  0  0  0  0  0  0  0  0
    7.0087  -19.5770   22.5536 O   0  0  0  0  0  0  0  0  0  0  0  0
    7.9985  -13.7428   25.5941 N   0  0  0  0  0  0  0  0  0  0  0  0
    7.3298  -12.5469   25.0327 C   0  0  0  0  0  0  0  0  0  0  0  0
    6.4678  -12.0871   26.1797 C   0  0  0  0  0  0  0  0  0  0  0  0
    6.9527  -12.8171   27.4031 C   0  0  0  0  0  0  0  0  0  0  0  0
    8.3354  -13.3445   26.9046 C   0  0  1  0  0  0  0  0  0  0  0  0
    8.8652  -14.2934   27.8563 C   0  0  0  0  0  0  0  0  0  0  0  0
    8.4639  -15.5091   27.7583 O   0  0  0  0  0  0  0  0  0  0  0  0
    9.7558  -14.0462   28.8595 O   0  0  0  0  0  0  0  0  0  0  0  0
  1  2  1  0
  2  3  2  0
  4  5  1  0
  4  2  1  0
  5  6  1  6
  7  5  1  0
  8  7  2  0
  9  7  1  0
 10 11  1  1
 10  9  1  0
 11 12  1  0
 12 13  1  0
 13 17  1  0
 14 13  2  0
 15 10  1  0
 16 15  2  0
 18 15  1  0
 18 22  1  0
 19 20  1  0
 19 18  1  0
 20 21  1  0
 21 22  1  0
 22 23  1  1
 23 25  1  0
 24 23  2  0
M  END
$$$$
