NEP.pdb
     RDKit          3D

 25 25  0  0  1  0  0  0  0  0999 V2000
    9.6083  -17.8717   18.6979 N   0  0  0  0  0  0  0  0  0  0  0  0
    8.2710  -18.3032   18.7821 C   0  0  0  0  0  0  0  0  0  0  0  0
    7.8863  -19.2719   18.0712 O   0  0  0  0  0  0  0  0  0  0  0  0
    7.2739  -17.6664   19.6793 C   0  0  0  0  0  0  0  0  0  0  0  0
    7.8322  -16.4303   20.3417 C   0  0  2  0  0  0  0  0  0  0  0  0
    9.2557  -16.5295   20.5187 N   0  0  0  0  0  0  0  0  0  0  0  0
    7.1483  -16.0987   21.5965 C   0  0  0  0  0  0  0  0  0  0  0  0
    5.8871  -16.1936   21.6359 O   0  0  0  0  0  0  0  0  0  0  0  0
    7.8054  -15.6803   22.7636 N   0  0  0  0  0  0  0  0  0  0  0  0
    7.0497  -15.3116   23.9631 C   0  0  1  0  0  0  0  0  0  0  0  0
    6.4314  -16.6173   24.4279 C   0  0  0  0  0  0  0  0  0  0  0  0
    7.5753  -17.4938   24.8955 C   0  0  0  0  0  0  0  0  0  0  0  0
    7.0507  -18.7316   25.5672 C   0  0  0  0  0  0  0  0  0  0  0  0
    5.8106  -18.9262   25.6465 O   0  0  0  0  0  0  0  0  0  0  0  0
    7.9579  -14.7347   25.0147 C   0  0  0  0  0  0  0  0  0  0  0  0
    8.9394  -15.4560   25.2963 O   0  0  0  0  0  0  0  0  0  0  0  0
    7.9653  -19.6225   26.0801 O   0  0  0  0  0  0  0  0  0  0  0  0
    7.7450  -13.5128   25.6303 N   0  0  0  0  0  0  0  0  0  0  0  0
    7.0131  -12.4128   24.9619 C   0  0  0  0  0  0  0  0  0  0  0  0
    6.2042  -11.8270   26.0900 C   0  0  0  0  0  0  0  0  0  0  0  0
    6.7767  -12.3838   27.3656 C   0  0  0  0  0  0  0  0  0  0  0  0
    8.1434  -12.9427   26.8575 C   0  0  1  0  0  0  0  0  0  0  0  0
    8.7516  -13.7505   27.8892 C   0  0  0  0  0  0  0  0  0  0  0  0
    8.3796  -14.9768   27.9700 O   0  0  0  0  0  0  0  0  0  0  0  0
    9.6894  -13.3584   28.7988 O   0  0  0  0  0  0  0  0  0  0  0  0
  1  2  1  0
  2  3  2  0
  4  5  1  0
  4  2  1  0
  5  6  1  1
  7  5  1  0
  8  7  2  0
  9  7  1  0
 10 11  1  1
 10  9  1  0
 11 12  1  0
 12 13  1  0
 13 17  1  0
 14 13  2  0
 15 10  1  0
 16 15  2  0
 18 15  1  0
 18 22  1  0
 19 20  1  0
 19 18  1  0
 20 21  1  0
 21 22  1  0
 22 23  1  1
 23 25  1  0
 24 23  2  0
M  END
$$$$
