NEP.pdb
     RDKit          3D

 25 25  0  0  1  0  0  0  0  0999 V2000
    8.1699  -13.3507   16.7866 N   0  0  0  0  0  0  0  0  0  0  0  0
    8.9663  -13.2646   17.9442 C   0  0  0  0  0  0  0  0  0  0  0  0
   10.2223  -13.2279   17.8311 O   0  0  0  0  0  0  0  0  0  0  0  0
    8.3945  -13.2139   19.3136 C   0  0  0  0  0  0  0  0  0  0  0  0
    9.1475  -14.1131   20.2637 C   0  0  2  0  0  0  0  0  0  0  0  0
    9.2980  -15.4367   19.7225 N   0  0  0  0  0  0  0  0  0  0  0  0
    8.5628  -14.1371   21.6089 C   0  0  0  0  0  0  0  0  0  0  0  0
    8.1869  -13.0420   22.1195 O   0  0  0  0  0  0  0  0  0  0  0  0
    8.3919  -15.3025   22.3716 N   0  0  0  0  0  0  0  0  0  0  0  0
    7.7486  -15.2550   23.6867 C   0  0  1  0  0  0  0  0  0  0  0  0
    6.8913  -16.5067   23.7258 C   0  0  0  0  0  0  0  0  0  0  0  0
    6.0001  -16.4574   22.5017 C   0  0  0  0  0  0  0  0  0  0  0  0
    6.2069  -17.6777   21.6493 C   0  0  0  0  0  0  0  0  0  0  0  0
    6.7925  -18.6844   22.1243 O   0  0  0  0  0  0  0  0  0  0  0  0
    8.7740  -15.2631   24.7876 C   0  0  0  0  0  0  0  0  0  0  0  0
    9.5503  -16.2426   24.7581 O   0  0  0  0  0  0  0  0  0  0  0  0
    5.7384  -17.6465   20.3559 O   0  0  0  0  0  0  0  0  0  0  0  0
    8.8686  -14.2813   25.7595 N   0  0  0  0  0  0  0  0  0  0  0  0
    8.4755  -12.8775   25.4996 C   0  0  0  0  0  0  0  0  0  0  0  0
    7.8103  -12.4810   26.7921 C   0  0  0  0  0  0  0  0  0  0  0  0
    8.1716  -13.5347   27.8040 C   0  0  0  0  0  0  0  0  0  0  0  0
    9.3601  -14.2443   27.0811 C   0  0  1  0  0  0  0  0  0  0  0  0
    9.6982  -15.4612   27.7823 C   0  0  0  0  0  0  0  0  0  0  0  0
    9.0051  -16.5072   27.5100 O   0  0  0  0  0  0  0  0  0  0  0  0
   10.6826  -15.6322   28.7109 O   0  0  0  0  0  0  0  0  0  0  0  0
  1  2  1  0
  2  3  2  0
  4  5  1  0
  4  2  1  0
  5  6  1  6
  7  5  1  0
  8  7  2  0
  9  7  1  0
 10 11  1  1
 10  9  1  0
 11 12  1  0
 12 13  1  0
 13 17  1  0
 14 13  2  0
 15 10  1  0
 16 15  2  0
 18 15  1  0
 18 22  1  0
 19 20  1  0
 19 18  1  0
 20 21  1  0
 21 22  1  0
 22 23  1  1
 23 25  1  0
 24 23  2  0
M  END
$$$$
