NEP.pdb
     RDKit          3D

 25 25  0  0  1  0  0  0  0  0999 V2000
    9.2586  -14.6354   17.8754 N   0  0  0  0  0  0  0  0  0  0  0  0
    8.8697  -13.4927   18.5997 C   0  0  0  0  0  0  0  0  0  0  0  0
    9.1224  -12.3478   18.1338 O   0  0  0  0  0  0  0  0  0  0  0  0
    8.1659  -13.5671   19.9050 C   0  0  0  0  0  0  0  0  0  0  0  0
    7.9243  -14.9966   20.3252 C   0  0  2  0  0  0  0  0  0  0  0  0
    7.1219  -15.6971   19.3593 N   0  0  0  0  0  0  0  0  0  0  0  0
    7.3683  -15.1060   21.6784 C   0  0  0  0  0  0  0  0  0  0  0  0
    6.1298  -14.9003   21.8368 O   0  0  0  0  0  0  0  0  0  0  0  0
    8.1247  -15.4260   22.8161 N   0  0  0  0  0  0  0  0  0  0  0  0
    7.4868  -15.5854   24.1250 C   0  0  1  0  0  0  0  0  0  0  0  0
    7.3691  -17.0883   24.2998 C   0  0  0  0  0  0  0  0  0  0  0  0
    6.6925  -17.3154   25.6362 C   0  0  0  0  0  0  0  0  0  0  0  0
    6.7612  -18.7662   26.0224 C   0  0  0  0  0  0  0  0  0  0  0  0
    7.5281  -19.1344   26.9489 O   0  0  0  0  0  0  0  0  0  0  0  0
    8.3295  -14.9754   25.2119 C   0  0  0  0  0  0  0  0  0  0  0  0
    9.3408  -15.6456   25.5137 O   0  0  0  0  0  0  0  0  0  0  0  0
    5.9667  -19.6539   25.3339 O   0  0  0  0  0  0  0  0  0  0  0  0
    8.0306  -13.7767   25.8373 N   0  0  0  0  0  0  0  0  0  0  0  0
    7.2434  -12.7160   25.1683 C   0  0  0  0  0  0  0  0  0  0  0  0
    6.3804  -12.1954   26.2882 C   0  0  0  0  0  0  0  0  0  0  0  0
    6.9644  -12.7313   27.5675 C   0  0  0  0  0  0  0  0  0  0  0  0
    8.3717  -13.1983   27.0777 C   0  0  1  0  0  0  0  0  0  0  0  0
    9.0111  -13.9795   28.1110 C   0  0  0  0  0  0  0  0  0  0  0  0
    9.7402  -13.3475   28.9581 O   0  0  0  0  0  0  0  0  0  0  0  0
    8.9281  -15.3284   28.2961 O   0  0  0  0  0  0  0  0  0  0  0  0
  1  2  1  0
  2  3  2  0
  4  5  1  0
  4  2  1  0
  5  6  1  6
  7  5  1  0
  8  7  2  0
  9  7  1  0
 10 11  1  1
 10  9  1  0
 11 12  1  0
 12 13  1  0
 13 17  1  0
 14 13  2  0
 15 10  1  0
 16 15  2  0
 18 15  1  0
 18 22  1  0
 19 20  1  0
 19 18  1  0
 20 21  1  0
 21 22  1  0
 22 23  1  1
 23 25  1  0
 24 23  2  0
M  END
$$$$
