NEP.pdb
     RDKit          3D

 25 25  0  0  1  0  0  0  0  0999 V2000
    7.6102  -13.8379   16.9107 N   0  0  0  0  0  0  0  0  0  0  0  0
    8.2065  -13.4404   18.1223 C   0  0  0  0  0  0  0  0  0  0  0  0
    9.3626  -12.9355   18.1079 O   0  0  0  0  0  0  0  0  0  0  0  0
    7.5335  -13.5874   19.4377 C   0  0  0  0  0  0  0  0  0  0  0  0
    8.4156  -14.2957   20.4370 C   0  0  2  0  0  0  0  0  0  0  0  0
    8.9573  -15.5094   19.8884 N   0  0  0  0  0  0  0  0  0  0  0  0
    7.7472  -14.5286   21.7219 C   0  0  0  0  0  0  0  0  0  0  0  0
    6.8859  -13.6874   22.1115 O   0  0  0  0  0  0  0  0  0  0  0  0
    8.0019  -15.6303   22.5528 N   0  0  0  0  0  0  0  0  0  0  0  0
    7.4317  -15.7063   23.8999 C   0  0  1  0  0  0  0  0  0  0  0  0
    7.3091  -17.1951   24.1674 C   0  0  0  0  0  0  0  0  0  0  0  0
    6.6636  -17.3366   25.5307 C   0  0  0  0  0  0  0  0  0  0  0  0
    6.8563  -18.7285   26.0637 C   0  0  0  0  0  0  0  0  0  0  0  0
    6.3429  -19.0570   27.1639 O   0  0  0  0  0  0  0  0  0  0  0  0
    8.3357  -15.0454   24.9046 C   0  0  0  0  0  0  0  0  0  0  0  0
    9.3685  -15.6973   25.1719 O   0  0  0  0  0  0  0  0  0  0  0  0
    7.6019  -19.6079   25.3126 O   0  0  0  0  0  0  0  0  0  0  0  0
    8.0676  -13.8218   25.4946 N   0  0  0  0  0  0  0  0  0  0  0  0
    7.2728  -12.7765   24.8103 C   0  0  0  0  0  0  0  0  0  0  0  0
    6.4478  -12.2062   25.9346 C   0  0  0  0  0  0  0  0  0  0  0  0
    7.0626  -12.7028   27.2153 C   0  0  0  0  0  0  0  0  0  0  0  0
    8.4502  -13.2033   26.7032 C   0  0  1  0  0  0  0  0  0  0  0  0
    9.1106  -13.9544   27.7455 C   0  0  0  0  0  0  0  0  0  0  0  0
   10.0217  -13.3490   28.4178 O   0  0  0  0  0  0  0  0  0  0  0  0
    8.8748  -15.2488   28.1057 O   0  0  0  0  0  0  0  0  0  0  0  0
  1  2  1  0
  2  3  2  0
  4  5  1  0
  4  2  1  0
  5  6  1  6
  7  5  1  0
  8  7  2  0
  9  7  1  0
 10 11  1  1
 10  9  1  0
 11 12  1  0
 12 13  1  0
 13 17  1  0
 14 13  2  0
 15 10  1  0
 16 15  2  0
 18 15  1  0
 18 22  1  0
 19 20  1  0
 19 18  1  0
 20 21  1  0
 21 22  1  0
 22 23  1  1
 23 25  1  0
 24 23  2  0
M  END
$$$$
