ICC.pdb
     RDKit          3D

 21 20  0  0  1  0  0  0  0  0999 V2000
   13.9453  -14.8657  -10.5636 C   0  0  0  0  0  0  0  0  0  0  0  0
   13.7266  -13.4961   -9.9051 C   0  0  0  0  0  0  0  0  0  0  0  0
   14.1326  -12.4651  -10.9074 C   0  0  2  0  0  0  0  0  0  0  0  0
   15.5924  -12.5985  -11.3095 C   0  0  0  0  0  0  0  0  0  0  0  0
   13.7746  -11.0596  -10.5285 C   0  0  2  0  0  0  0  0  0  0  0  0
   12.3455  -11.0528  -10.2160 N   0  0  0  0  0  0  0  0  0  0  0  0
   14.1068  -10.0564  -11.5430 C   0  0  0  0  0  0  0  0  0  0  0  0
   13.2207   -9.7415  -12.3781 O   0  0  0  0  0  0  0  0  0  0  0  0
   15.3612   -9.4037  -11.6613 N   0  0  0  0  0  0  0  0  0  0  0  0
   15.6688   -8.3846  -12.6193 C   0  0  1  0  0  0  0  0  0  0  0  0
   14.7100   -7.2297  -12.6081 C   0  0  0  0  0  0  0  0  0  0  0  0
   15.3211   -5.9632  -13.7341 S   0  0  0  0  0  0  0  0  0  0  0  0
   17.0877   -7.9462  -12.4497 C   0  0  0  0  0  0  0  0  0  0  0  0
   17.5113   -7.5555  -11.3099 O   0  0  0  0  0  0  0  0  0  0  0  0
   18.0215   -7.9362  -13.5061 N   0  0  0  0  0  0  0  0  0  0  0  0
   19.3932   -7.4454  -13.3434 C   0  0  1  0  0  0  0  0  0  0  0  0
   20.3137   -8.6688  -13.4575 C   0  0  0  0  0  0  0  0  0  0  0  0
   22.0482   -8.1674  -13.4551 S   0  0  0  0  0  0  0  0  0  0  0  0
   19.7344   -6.4373  -14.3551 C   0  0  0  0  0  0  0  0  0  0  0  0
   20.5752   -5.3757  -14.0841 O   0  0  0  0  0  0  0  0  0  0  0  0
   19.2522   -6.5333  -15.5067 O   0  0  0  0  0  0  0  0  0  0  0  0
  1  2  1  0
  3  4  1  1
  3  2  1  0
  3  5  1  0
  5  6  1  6
  7  8  2  0
  7  5  1  0
  9  7  1  0
 10  9  1  0
 10 13  1  0
 10 11  1  1
 12 11  1  0
 13 14  2  0
 15 13  1  0
 15 16  1  0
 16 17  1  6
 17 18  1  0
 19 20  1  0
 19 16  1  0
 21 19  2  0
M  END
$$$$
