ICC.pdb
     RDKit          3D

 21 20  0  0  1  0  0  0  0  0999 V2000
   25.7699  -22.5710  -16.4468 C   0  0  0  0  0  0  0  0  0  0  0  0
   26.0844  -21.0957  -16.1614 C   0  0  0  0  0  0  0  0  0  0  0  0
   25.0512  -20.6125  -15.1964 C   0  0  2  0  0  0  0  0  0  0  0  0
   25.1364  -21.3278  -13.8578 C   0  0  0  0  0  0  0  0  0  0  0  0
   23.6552  -20.5947  -15.7423 C   0  0  2  0  0  0  0  0  0  0  0  0
   23.6881  -19.8027  -16.9718 N   0  0  0  0  0  0  0  0  0  0  0  0
   22.6462  -20.0918  -14.8069 C   0  0  0  0  0  0  0  0  0  0  0  0
   22.6505  -18.8643  -14.5334 O   0  0  0  0  0  0  0  0  0  0  0  0
   21.6532  -20.8862  -14.1774 N   0  0  0  0  0  0  0  0  0  0  0  0
   20.6247  -20.3841  -13.3164 C   0  0  1  0  0  0  0  0  0  0  0  0
   19.8697  -19.2185  -13.8862 C   0  0  0  0  0  0  0  0  0  0  0  0
   18.7976  -18.5451  -12.6046 S   0  0  0  0  0  0  0  0  0  0  0  0
   19.7200  -21.5017  -12.9081 C   0  0  0  0  0  0  0  0  0  0  0  0
   19.1428  -22.2212  -13.7914 O   0  0  0  0  0  0  0  0  0  0  0  0
   19.4539  -21.8233  -11.5613 N   0  0  0  0  0  0  0  0  0  0  0  0
   18.6329  -22.9733  -11.1710 C   0  0  1  0  0  0  0  0  0  0  0  0
   18.8725  -23.1949   -9.6709 C   0  0  0  0  0  0  0  0  0  0  0  0
   18.0983  -24.7298   -9.1188 S   0  0  0  0  0  0  0  0  0  0  0  0
   17.2087  -22.7437  -11.4455 C   0  0  0  0  0  0  0  0  0  0  0  0
   16.3466  -23.7707  -11.7764 O   0  0  0  0  0  0  0  0  0  0  0  0
   16.7490  -21.5808  -11.3803 O   0  0  0  0  0  0  0  0  0  0  0  0
  1  2  1  0
  3  4  1  1
  3  2  1  0
  3  5  1  0
  5  6  1  6
  7  8  2  0
  7  5  1  0
  9  7  1  0
 10  9  1  0
 10 13  1  0
 10 11  1  6
 12 11  1  0
 13 14  2  0
 15 13  1  0
 15 16  1  0
 16 17  1  1
 17 18  1  0
 19 20  1  0
 19 16  1  0
 21 19  2  0
M  END
$$$$
