ICC.pdb
     RDKit          3D

 21 20  0  0  1  0  0  0  0  0999 V2000
   13.0460  -13.4359  -15.3112 C   0  0  0  0  0  0  0  0  0  0  0  0
   14.4296  -13.0434  -15.8485 C   0  0  0  0  0  0  0  0  0  0  0  0
   15.0906  -12.2278  -14.7853 C   0  0  2  0  0  0  0  0  0  0  0  0
   14.2181  -11.0725  -14.3222 C   0  0  0  0  0  0  0  0  0  0  0  0
   16.4840  -11.7879  -15.1199 C   0  0  2  0  0  0  0  0  0  0  0  0
   17.2616  -12.9984  -15.3842 N   0  0  0  0  0  0  0  0  0  0  0  0
   17.1182  -10.9558  -14.0946 C   0  0  0  0  0  0  0  0  0  0  0  0
   17.5105  -11.5132  -13.0377 O   0  0  0  0  0  0  0  0  0  0  0  0
   17.3282   -9.5563  -14.1982 N   0  0  0  0  0  0  0  0  0  0  0  0
   17.9111   -8.7363  -13.1790 C   0  0  1  0  0  0  0  0  0  0  0  0
   18.9391   -7.7691  -13.6901 C   0  0  0  0  0  0  0  0  0  0  0  0
   19.4965   -6.7431  -12.3182 S   0  0  0  0  0  0  0  0  0  0  0  0
   16.8309   -8.0577  -12.4000 C   0  0  0  0  0  0  0  0  0  0  0  0
   15.9197   -7.3948  -13.0013 O   0  0  0  0  0  0  0  0  0  0  0  0
   16.7512   -8.1047  -10.9930 N   0  0  0  0  0  0  0  0  0  0  0  0
   15.8192   -7.2726  -10.2263 C   0  0  1  0  0  0  0  0  0  0  0  0
   14.9067   -8.2344   -9.4522 C   0  0  0  0  0  0  0  0  0  0  0  0
   13.7863   -7.3220   -8.3696 S   0  0  0  0  0  0  0  0  0  0  0  0
   16.5247   -6.3681   -9.3094 C   0  0  0  0  0  0  0  0  0  0  0  0
   16.0077   -5.1417   -8.9403 O   0  0  0  0  0  0  0  0  0  0  0  0
   17.6339   -6.7102   -8.8398 O   0  0  0  0  0  0  0  0  0  0  0  0
  1  2  1  0
  3  4  1  6
  3  2  1  0
  3  5  1  0
  5  6  1  1
  7  8  2  0
  7  5  1  0
  9  7  1  0
 10  9  1  0
 10 13  1  0
 10 11  1  6
 12 11  1  0
 13 14  2  0
 15 13  1  0
 15 16  1  0
 16 17  1  1
 17 18  1  0
 19 20  1  0
 19 16  1  0
 21 19  2  0
M  END
$$$$
