RAD.pdb
     RDKit          3D

 25 24  0  0  1  0  0  0  0  0999 V2000
    7.3356  -14.9679   14.0295 N   0  0  0  0  0  0  0  0  0  0  0  0
    7.3416  -14.6316   15.4190 C   0  0  0  0  0  0  0  0  0  0  0  0
    7.7438  -13.4615   15.8120 N   0  0  0  0  0  0  0  0  0  0  0  0
    6.9129  -15.5509   16.4124 N   0  0  0  0  0  0  0  0  0  0  0  0
    6.9462  -15.1666   17.8072 C   0  0  0  0  0  0  0  0  0  0  0  0
    7.9362  -16.0590   18.5325 C   0  0  0  0  0  0  0  0  0  0  0  0
    8.7320  -15.2450   19.5338 C   0  0  0  0  0  0  0  0  0  0  0  0
    7.8959  -14.1024   20.0744 C   0  0  2  0  0  0  0  0  0  0  0  0
    8.1068  -12.9743   19.1945 N   0  0  0  0  0  0  0  0  0  0  0  0
    8.3940  -13.8488   21.4453 C   0  0  0  0  0  0  0  0  0  0  0  0
    9.5276  -13.3059   21.5558 O   0  0  0  0  0  0  0  0  0  0  0  0
    8.1599  -12.7907   15.1260 C   0  0  0  0  0  0  0  0  0  0  0  0
    6.9929  -13.7338   24.8724 C   0  0  2  0  0  0  0  0  0  0  0  0
    8.2157  -13.8720   23.9562 N   0  0  0  0  0  0  0  0  0  0  0  0
    7.7011  -14.1661   22.6360 C   0  0  0  0  0  0  0  0  0  0  0  0
    9.1078  -14.9655   24.4450 O   0  0  0  0  0  0  0  0  0  0  0  0
    9.6257  -14.9339   25.5900 N   0  0  0  0  0  0  0  0  0  0  0  0
    9.4173  -16.0987   23.6415 C   0  0  2  0  0  0  0  0  0  0  0  0
   10.2338  -17.1825   24.1845 C   0  0  0  0  0  0  0  0  0  0  0  0
   11.6351  -16.6286   24.2758 C   0  0  0  0  0  0  0  0  0  0  0  0
   12.5358  -17.5784   24.9444 O   0  0  0  0  0  0  0  0  0  0  0  0
   12.1441  -18.6983   25.3482 C   0  0  0  0  0  0  0  0  0  0  0  0
    9.6777  -17.6100   25.4702 O   0  0  0  0  0  0  0  0  0  0  0  0
    9.5548  -16.8112   26.4306 O   0  0  0  0  0  0  0  0  0  0  0  0
   13.8740  -17.2216   25.1369 O   0  0  0  0  0  0  0  0  0  0  0  0
  2  3  2  0
  2  1  1  0
  4  2  1  0
  5  4  1  0
  6  5  1  0
  7  8  1  0
  7  6  1  0
  8 10  1  0
  8  9  1  6
 10 14  1  0
 11 10  2  0
 13 14  1  0
 13 15  1  0
 13 12  1  6
 15 16  2  0
 17 15  1  0
 17 18  1  0
 18 22  1  0
 18 19  1  6
 20 24  1  0
 20 19  1  0
 21 20  2  0
 22 23  2  0
 22 25  1  0
M  END
$$$$
