RAD.pdb
     RDKit          3D

 25 24  0  0  1  0  0  0  0  0999 V2000
    9.8409  -15.0110   15.0157 N   0  0  0  0  0  0  0  0  0  0  0  0
    8.5936  -14.8655   15.6989 C   0  0  0  0  0  0  0  0  0  0  0  0
    7.8596  -13.8109   15.5133 N   0  0  0  0  0  0  0  0  0  0  0  0
    8.1127  -15.8557   16.5957 N   0  0  0  0  0  0  0  0  0  0  0  0
    7.4402  -15.4548   17.8128 C   0  0  0  0  0  0  0  0  0  0  0  0
    8.1897  -14.2819   18.4172 C   0  0  0  0  0  0  0  0  0  0  0  0
    8.7083  -14.6508   19.7931 C   0  0  0  0  0  0  0  0  0  0  0  0
    9.5252  -13.5149   20.3756 C   0  0  2  0  0  0  0  0  0  0  0  0
   10.8534  -13.6212   19.8135 N   0  0  0  0  0  0  0  0  0  0  0  0
    9.5156  -13.7189   21.8419 C   0  0  0  0  0  0  0  0  0  0  0  0
   10.5612  -14.1935   22.3650 O   0  0  0  0  0  0  0  0  0  0  0  0
    7.0042  -13.6566   16.0949 C   0  0  0  0  0  0  0  0  0  0  0  0
    7.1090  -13.1737   24.6688 C   0  0  1  0  0  0  0  0  0  0  0  0
    8.4866  -13.5881   24.1356 N   0  0  0  0  0  0  0  0  0  0  0  0
    8.4306  -13.4243   22.6988 C   0  0  0  0  0  0  0  0  0  0  0  0
    8.7809  -15.0043   24.5074 O   0  0  0  0  0  0  0  0  0  0  0  0
    8.8423  -15.3735   25.7074 N   0  0  0  0  0  0  0  0  0  0  0  0
    9.0067  -16.0082   23.5241 C   0  0  1  0  0  0  0  0  0  0  0  0
    9.2991  -17.3813   23.9307 C   0  0  0  0  0  0  0  0  0  0  0  0
    8.9093  -18.2444   22.7551 C   0  0  0  0  0  0  0  0  0  0  0  0
    9.3046  -19.6433   22.9731 O   0  0  0  0  0  0  0  0  0  0  0  0
    9.8284  -20.0296   24.0440 C   0  0  0  0  0  0  0  0  0  0  0  0
   10.7116  -17.4854   24.3032 O   0  0  0  0  0  0  0  0  0  0  0  0
   11.1199  -18.3760   25.0879 O   0  0  0  0  0  0  0  0  0  0  0  0
    9.0897  -20.5744   21.9523 O   0  0  0  0  0  0  0  0  0  0  0  0
  2  3  2  0
  2  1  1  0
  4  2  1  0
  5  4  1  0
  6  5  1  0
  7  8  1  0
  7  6  1  0
  8 10  1  0
  8  9  1  6
 10 14  1  0
 11 10  2  0
 13 14  1  0
 13 15  1  0
 13 12  1  1
 15 16  2  0
 17 15  1  0
 17 18  1  0
 18 22  1  0
 18 19  1  1
 20 24  1  0
 20 19  1  0
 21 20  2  0
 22 23  2  0
 22 25  1  0
M  END
$$$$
