RAD.pdb
     RDKit          3D

 25 24  0  0  1  0  0  0  0  0999 V2000
    8.9930  -17.4419   15.1268 N   0  0  0  0  0  0  0  0  0  0  0  0
    8.0326  -16.6251   14.4529 C   0  0  0  0  0  0  0  0  0  0  0  0
    8.0337  -16.5390   13.1575 N   0  0  0  0  0  0  0  0  0  0  0  0
    7.0509  -15.8851   15.1633 N   0  0  0  0  0  0  0  0  0  0  0  0
    7.4604  -14.8155   16.0479 C   0  0  0  0  0  0  0  0  0  0  0  0
    8.1617  -15.4216   17.2494 C   0  0  0  0  0  0  0  0  0  0  0  0
    8.8056  -14.3292   18.0802 C   0  0  0  0  0  0  0  0  0  0  0  0
    7.7890  -13.7009   19.0122 C   0  0  2  0  0  0  0  0  0  0  0  0
    7.6302  -12.3254   18.5951 N   0  0  0  0  0  0  0  0  0  0  0  0
    8.3614  -13.8149   20.3728 C   0  0  0  0  0  0  0  0  0  0  0  0
    9.5059  -13.3179   20.5605 O   0  0  0  0  0  0  0  0  0  0  0  0
    7.3258  -15.9437   12.6695 C   0  0  0  0  0  0  0  0  0  0  0  0
    7.2425  -15.0310   23.7322 C   0  0  1  0  0  0  0  0  0  0  0  0
    8.3479  -14.5662   22.7754 N   0  0  0  0  0  0  0  0  0  0  0  0
    7.7281  -14.4348   21.4742 C   0  0  0  0  0  0  0  0  0  0  0  0
    9.4602  -15.5624   22.7465 O   0  0  0  0  0  0  0  0  0  0  0  0
    9.4241  -16.5719   21.9984 N   0  0  0  0  0  0  0  0  0  0  0  0
   10.6173  -15.4208   23.5630 C   0  0  1  0  0  0  0  0  0  0  0  0
   11.6354  -16.4693   23.5814 C   0  0  0  0  0  0  0  0  0  0  0  0
   12.9594  -15.7513   23.4788 C   0  0  0  0  0  0  0  0  0  0  0  0
   14.0815  -16.6929   23.6006 O   0  0  0  0  0  0  0  0  0  0  0  0
   13.9071  -17.9306   23.6919 C   0  0  0  0  0  0  0  0  0  0  0  0
   11.4846  -17.2690   24.7991 O   0  0  0  0  0  0  0  0  0  0  0  0
   10.9181  -16.8094   25.8205 O   0  0  0  0  0  0  0  0  0  0  0  0
   15.3869  -16.1921   23.6154 O   0  0  0  0  0  0  0  0  0  0  0  0
  2  3  2  0
  2  1  1  0
  4  2  1  0
  5  4  1  0
  6  5  1  0
  7  8  1  0
  7  6  1  0
  8 10  1  0
  8  9  1  6
 10 14  1  0
 11 10  2  0
 13 14  1  0
 13 15  1  0
 13 12  1  1
 15 16  2  0
 17 15  1  0
 17 18  1  0
 18 22  1  0
 18 19  1  1
 20 24  1  0
 20 19  1  0
 21 20  2  0
 22 23  2  0
 22 25  1  0
M  END
$$$$
