RAD.pdb
     RDKit          3D

 25 24  0  0  1  0  0  0  0  0999 V2000
   10.8955  -18.3329   14.0777 N   0  0  0  0  0  0  0  0  0  0  0  0
   11.9379  -18.5863   15.0226 C   0  0  0  0  0  0  0  0  0  0  0  0
   13.1683  -18.7126   14.6283 N   0  0  0  0  0  0  0  0  0  0  0  0
   11.6737  -18.7076   16.4123 N   0  0  0  0  0  0  0  0  0  0  0  0
   10.3223  -18.5410   16.9025 C   0  0  0  0  0  0  0  0  0  0  0  0
    9.8423  -17.1486   16.5373 C   0  0  0  0  0  0  0  0  0  0  0  0
    8.4567  -16.9116   17.1050 C   0  0  0  0  0  0  0  0  0  0  0  0
    7.9371  -15.5503   16.6884 C   0  0  2  0  0  0  0  0  0  0  0  0
    8.5070  -15.2619   15.3910 N   0  0  0  0  0  0  0  0  0  0  0  0
    8.3983  -14.6042   17.7296 C   0  0  0  0  0  0  0  0  0  0  0  0
    9.6201  -14.2896   17.7225 O   0  0  0  0  0  0  0  0  0  0  0  0
   13.9184  -18.9553   15.3155 C   0  0  0  0  0  0  0  0  0  0  0  0
    6.8183  -12.4935   20.3878 C   0  0  1  0  0  0  0  0  0  0  0  0
    8.0610  -13.0560   19.6857 N   0  0  0  0  0  0  0  0  0  0  0  0
    7.5795  -14.0277   18.7274 C   0  0  0  0  0  0  0  0  0  0  0  0
    8.9772  -13.6872   20.6821 O   0  0  0  0  0  0  0  0  0  0  0  0
    9.4996  -13.0233   21.6129 N   0  0  0  0  0  0  0  0  0  0  0  0
    9.3060  -15.0709   20.6298 C   0  0  1  0  0  0  0  0  0  0  0  0
   10.0710  -15.6850   21.7133 C   0  0  0  0  0  0  0  0  0  0  0  0
    9.4797  -17.0616   21.8980 C   0  0  0  0  0  0  0  0  0  0  0  0
   10.1872  -17.8031   22.9516 O   0  0  0  0  0  0  0  0  0  0  0  0
   10.6081  -17.2458   23.9921 C   0  0  0  0  0  0  0  0  0  0  0  0
   11.4923  -15.6900   21.3599 O   0  0  0  0  0  0  0  0  0  0  0  0
   11.8819  -15.4031   20.2017 O   0  0  0  0  0  0  0  0  0  0  0  0
   10.3983  -19.1757   22.7883 O   0  0  0  0  0  0  0  0  0  0  0  0
  2  3  2  0
  2  1  1  0
  4  2  1  0
  5  4  1  0
  6  5  1  0
  7  8  1  0
  7  6  1  0
  8 10  1  0
  8  9  1  6
 10 14  1  0
 11 10  2  0
 13 14  1  0
 13 15  1  0
 13 12  1  6
 15 16  2  0
 17 15  1  0
 17 18  1  0
 18 22  1  0
 18 19  1  6
 20 24  1  0
 20 19  1  0
 21 20  2  0
 22 23  2  0
 22 25  1  0
M  END
$$$$
