RAD.pdb
     RDKit          3D

 25 24  0  0  1  0  0  0  0  0999 V2000
    8.2780  -11.7770   20.3151 N   0  0  0  0  0  0  0  0  0  0  0  0
    8.0108  -12.6642   19.2263 C   0  0  0  0  0  0  0  0  0  0  0  0
    8.5737  -12.4783   18.0714 N   0  0  0  0  0  0  0  0  0  0  0  0
    7.1312  -13.7704   19.3622 N   0  0  0  0  0  0  0  0  0  0  0  0
    6.4908  -14.0252   20.6348 C   0  0  0  0  0  0  0  0  0  0  0  0
    6.4077  -15.5258   20.8438 C   0  0  0  0  0  0  0  0  0  0  0  0
    7.7819  -16.0830   21.1592 C   0  0  0  0  0  0  0  0  0  0  0  0
    7.7155  -17.5848   21.3513 C   0  0  2  0  0  0  0  0  0  0  0  0
    6.8879  -17.8237   22.5129 N   0  0  0  0  0  0  0  0  0  0  0  0
    9.1129  -18.0298   21.5536 C   0  0  0  0  0  0  0  0  0  0  0  0
    9.5681  -17.9847   22.7295 O   0  0  0  0  0  0  0  0  0  0  0  0
    8.3212  -13.0870   17.2593 C   0  0  0  0  0  0  0  0  0  0  0  0
   11.8486  -19.5055   19.4563 C   0  0  1  0  0  0  0  0  0  0  0  0
   11.3327  -18.9331   20.7829 N   0  0  0  0  0  0  0  0  0  0  0  0
    9.9741  -18.4999   20.5358 C   0  0  0  0  0  0  0  0  0  0  0  0
   12.1918  -17.7939   21.2240 O   0  0  0  0  0  0  0  0  0  0  0  0
   11.9423  -16.6088   20.8872 N   0  0  0  0  0  0  0  0  0  0  0  0
   13.3357  -17.9902   22.0477 C   0  0  1  0  0  0  0  0  0  0  0  0
   14.0441  -16.8403   22.6063 C   0  0  0  0  0  0  0  0  0  0  0  0
   14.7752  -17.3637   23.8189 C   0  0  0  0  0  0  0  0  0  0  0  0
   13.8435  -17.6238   24.9256 O   0  0  0  0  0  0  0  0  0  0  0  0
   12.6163  -17.3868   24.8345 C   0  0  0  0  0  0  0  0  0  0  0  0
   14.9219  -16.2686   21.5827 O   0  0  0  0  0  0  0  0  0  0  0  0
   15.1455  -16.8657   20.5015 O   0  0  0  0  0  0  0  0  0  0  0  0
   14.3421  -18.1529   26.1201 O   0  0  0  0  0  0  0  0  0  0  0  0
  2  3  2  0
  2  1  1  0
  4  2  1  0
  5  4  1  0
  6  5  1  0
  7  8  1  0
  7  6  1  0
  8 10  1  0
  8  9  1  1
 10 14  1  0
 11 10  2  0
 13 14  1  0
 13 15  1  0
 13 12  1  1
 15 16  2  0
 17 15  1  0
 17 18  1  0
 18 22  1  0
 18 19  1  1
 20 24  1  0
 20 19  1  0
 21 20  2  0
 22 23  2  0
 22 25  1  0
M  END
$$$$
