RAD.pdb
     RDKit          3D

 25 24  0  0  1  0  0  0  0  0999 V2000
    9.7244  -14.0623   17.8322 N   0  0  0  0  0  0  0  0  0  0  0  0
    8.5540  -13.2448   17.9068 C   0  0  0  0  0  0  0  0  0  0  0  0
    7.9591  -12.8453   16.8244 N   0  0  0  0  0  0  0  0  0  0  0  0
    8.0014  -12.8426   19.1513 N   0  0  0  0  0  0  0  0  0  0  0  0
    6.9229  -13.6086   19.7380 C   0  0  0  0  0  0  0  0  0  0  0  0
    7.4991  -14.8800   20.3332 C   0  0  0  0  0  0  0  0  0  0  0  0
    8.6374  -14.5425   21.2758 C   0  0  0  0  0  0  0  0  0  0  0  0
    9.2041  -15.8029   21.8980 C   0  0  2  0  0  0  0  0  0  0  0  0
    8.4540  -16.9135   21.3548 N   0  0  0  0  0  0  0  0  0  0  0  0
    9.0139  -15.6548   23.3587 C   0  0  0  0  0  0  0  0  0  0  0  0
    9.6239  -14.7075   23.9266 O   0  0  0  0  0  0  0  0  0  0  0  0
    7.0153  -12.3979   16.8776 C   0  0  0  0  0  0  0  0  0  0  0  0
    6.7011  -16.9531   25.9566 C   0  0  2  0  0  0  0  0  0  0  0  0
    8.0379  -16.2965   25.5887 N   0  0  0  0  0  0  0  0  0  0  0  0
    8.2049  -16.4887   24.1641 C   0  0  0  0  0  0  0  0  0  0  0  0
    9.1534  -16.9292   26.3542 O   0  0  0  0  0  0  0  0  0  0  0  0
    9.3687  -16.6499   27.5607 N   0  0  0  0  0  0  0  0  0  0  0  0
   10.0291  -17.8800   25.7586 C   0  0  1  0  0  0  0  0  0  0  0  0
   11.0990  -18.4875   26.5476 C   0  0  0  0  0  0  0  0  0  0  0  0
   10.6225  -19.8829   26.8712 C   0  0  0  0  0  0  0  0  0  0  0  0
   10.6736  -20.1360   28.3182 O   0  0  0  0  0  0  0  0  0  0  0  0
   11.0917  -19.2788   29.1312 C   0  0  0  0  0  0  0  0  0  0  0  0
   12.3472  -18.4471   25.7825 O   0  0  0  0  0  0  0  0  0  0  0  0
   12.3788  -18.0303   24.5990 O   0  0  0  0  0  0  0  0  0  0  0  0
   10.2418  -21.3738   28.8046 O   0  0  0  0  0  0  0  0  0  0  0  0
  2  3  2  0
  2  1  1  0
  4  2  1  0
  5  4  1  0
  6  5  1  0
  7  8  1  0
  7  6  1  0
  8 10  1  0
  8  9  1  6
 10 14  1  0
 11 10  2  0
 13 14  1  0
 13 15  1  0
 13 12  1  6
 15 16  2  0
 17 15  1  0
 17 18  1  0
 18 22  1  0
 18 19  1  6
 20 24  1  0
 20 19  1  0
 21 20  2  0
 22 23  2  0
 22 25  1  0
M  END
$$$$
