RAD.pdb
     RDKit          3D

 25 24  0  0  1  0  0  0  0  0999 V2000
    8.0038  -14.6587   14.6994 N   0  0  0  0  0  0  0  0  0  0  0  0
    8.3540  -13.8452   15.8216 C   0  0  0  0  0  0  0  0  0  0  0  0
    8.2752  -12.5515   15.7479 N   0  0  0  0  0  0  0  0  0  0  0  0
    8.7957  -14.4115   17.0464 N   0  0  0  0  0  0  0  0  0  0  0  0
    8.1181  -15.5710   17.5858 C   0  0  0  0  0  0  0  0  0  0  0  0
    7.1436  -15.1099   18.6536 C   0  0  0  0  0  0  0  0  0  0  0  0
    7.9005  -14.5204   19.8274 C   0  0  0  0  0  0  0  0  0  0  0  0
    8.4500  -15.6210   20.7126 C   0  0  2  0  0  0  0  0  0  0  0  0
    7.4651  -16.6796   20.7273 N   0  0  0  0  0  0  0  0  0  0  0  0
    8.6411  -15.0102   22.0476 C   0  0  0  0  0  0  0  0  0  0  0  0
    9.4965  -14.0875   22.1426 O   0  0  0  0  0  0  0  0  0  0  0  0
    8.5281  -11.9614   16.5735 C   0  0  0  0  0  0  0  0  0  0  0  0
    6.9023  -14.8117   25.2906 C   0  0  2  0  0  0  0  0  0  0  0  0
    8.2312  -14.8217   24.5242 N   0  0  0  0  0  0  0  0  0  0  0  0
    7.9423  -15.3784   23.2200 C   0  0  0  0  0  0  0  0  0  0  0  0
    9.2423  -15.6455   25.2520 O   0  0  0  0  0  0  0  0  0  0  0  0
    9.4554  -15.4958   26.4818 N   0  0  0  0  0  0  0  0  0  0  0  0
   10.0157  -16.6416   24.5924 C   0  0  1  0  0  0  0  0  0  0  0  0
   10.9317  -17.4855   25.3572 C   0  0  0  0  0  0  0  0  0  0  0  0
   10.1004  -18.6460   25.8480 C   0  0  0  0  0  0  0  0  0  0  0  0
   10.4134  -18.9648   27.2484 O   0  0  0  0  0  0  0  0  0  0  0  0
   11.2213  -18.2847   27.9230 C   0  0  0  0  0  0  0  0  0  0  0  0
   12.0556  -17.8773   24.5037 O   0  0  0  0  0  0  0  0  0  0  0  0
   11.8802  -18.5275   23.4444 O   0  0  0  0  0  0  0  0  0  0  0  0
    9.7896  -20.0630   27.8484 O   0  0  0  0  0  0  0  0  0  0  0  0
  2  3  2  0
  2  1  1  0
  4  2  1  0
  5  4  1  0
  6  5  1  0
  7  8  1  0
  7  6  1  0
  8 10  1  0
  8  9  1  1
 10 14  1  0
 11 10  2  0
 13 14  1  0
 13 15  1  0
 13 12  1  6
 15 16  2  0
 17 15  1  0
 17 18  1  0
 18 22  1  0
 18 19  1  6
 20 24  1  0
 20 19  1  0
 21 20  2  0
 22 23  2  0
 22 25  1  0
M  END
$$$$
