RAD.pdb
     RDKit          3D

 25 24  0  0  1  0  0  0  0  0999 V2000
    8.8530  -15.8068   15.8878 N   0  0  0  0  0  0  0  0  0  0  0  0
    8.3382  -14.5356   15.4842 C   0  0  0  0  0  0  0  0  0  0  0  0
    7.4816  -14.4499   14.5125 N   0  0  0  0  0  0  0  0  0  0  0  0
    8.7370  -13.3312   16.1216 N   0  0  0  0  0  0  0  0  0  0  0  0
    8.7942  -13.2695   17.5663 C   0  0  0  0  0  0  0  0  0  0  0  0
    7.4050  -13.5309   18.1182 C   0  0  0  0  0  0  0  0  0  0  0  0
    7.4263  -13.4608   19.6324 C   0  0  0  0  0  0  0  0  0  0  0  0
    8.3349  -14.5321   20.2015 C   0  0  2  0  0  0  0  0  0  0  0  0
    7.7533  -15.8079   19.8477 N   0  0  0  0  0  0  0  0  0  0  0  0
    8.3574  -14.3092   21.6649 C   0  0  0  0  0  0  0  0  0  0  0  0
    8.9107  -13.2535   22.0790 O   0  0  0  0  0  0  0  0  0  0  0  0
    7.1147  -13.5166   14.2158 C   0  0  0  0  0  0  0  0  0  0  0  0
    6.8378  -15.7217   24.7422 C   0  0  2  0  0  0  0  0  0  0  0  0
    8.0194  -15.0260   24.0542 N   0  0  0  0  0  0  0  0  0  0  0  0
    7.8091  -15.1834   22.6311 C   0  0  0  0  0  0  0  0  0  0  0  0
    9.3075  -15.6487   24.4827 O   0  0  0  0  0  0  0  0  0  0  0  0
    9.5809  -15.8337   25.6957 N   0  0  0  0  0  0  0  0  0  0  0  0
   10.2909  -16.0646   23.5418 C   0  0  1  0  0  0  0  0  0  0  0  0
   11.4759  -16.7924   23.9917 C   0  0  0  0  0  0  0  0  0  0  0  0
   10.9627  -18.0965   24.5527 C   0  0  0  0  0  0  0  0  0  0  0  0
   11.6014  -18.4053   25.8400 O   0  0  0  0  0  0  0  0  0  0  0  0
   12.4313  -17.6338   26.3752 C   0  0  0  0  0  0  0  0  0  0  0  0
   12.4020  -16.9510   22.8682 O   0  0  0  0  0  0  0  0  0  0  0  0
   11.9915  -17.2087   21.7103 O   0  0  0  0  0  0  0  0  0  0  0  0
   11.2729  -19.5992   26.4895 O   0  0  0  0  0  0  0  0  0  0  0  0
  2  3  2  0
  2  1  1  0
  4  2  1  0
  5  4  1  0
  6  5  1  0
  7  8  1  0
  7  6  1  0
  8 10  1  0
  8  9  1  1
 10 14  1  0
 11 10  2  0
 13 14  1  0
 13 15  1  0
 13 12  1  6
 15 16  2  0
 17 15  1  0
 17 18  1  0
 18 22  1  0
 18 19  1  1
 20 24  1  0
 20 19  1  0
 21 20  2  0
 22 23  2  0
 22 25  1  0
M  END
$$$$
