RAD.pdb
     RDKit          3D

 25 24  0  0  1  0  0  0  0  0999 V2000
    8.5956  -14.1822   17.1531 N   0  0  0  0  0  0  0  0  0  0  0  0
    9.0218  -13.1960   18.0963 C   0  0  0  0  0  0  0  0  0  0  0  0
   10.2700  -12.8459   18.1650 N   0  0  0  0  0  0  0  0  0  0  0  0
    8.1093  -12.5671   18.9838 N   0  0  0  0  0  0  0  0  0  0  0  0
    8.0227  -13.0131   20.3578 C   0  0  0  0  0  0  0  0  0  0  0  0
    6.9913  -14.1229   20.4432 C   0  0  0  0  0  0  0  0  0  0  0  0
    6.8564  -14.5969   21.8769 C   0  0  0  0  0  0  0  0  0  0  0  0
    7.9833  -15.5462   22.2313 C   0  0  2  0  0  0  0  0  0  0  0  0
    7.7584  -16.7634   21.4836 N   0  0  0  0  0  0  0  0  0  0  0  0
    7.8906  -15.7576   23.6937 C   0  0  0  0  0  0  0  0  0  0  0  0
    8.0446  -14.7471   24.4334 O   0  0  0  0  0  0  0  0  0  0  0  0
   10.5755  -12.1208   18.8540 C   0  0  0  0  0  0  0  0  0  0  0  0
    6.7890  -18.3061   26.1268 C   0  0  2  0  0  0  0  0  0  0  0  0
    7.7929  -17.2096   25.7477 N   0  0  0  0  0  0  0  0  0  0  0  0
    7.6434  -16.9987   24.3238 C   0  0  0  0  0  0  0  0  0  0  0  0
    9.1821  -17.6397   26.0879 O   0  0  0  0  0  0  0  0  0  0  0  0
    9.5330  -17.8634   27.2740 N   0  0  0  0  0  0  0  0  0  0  0  0
   10.1794  -17.8186   25.0885 C   0  0  1  0  0  0  0  0  0  0  0  0
   11.5415  -18.1881   25.4686 C   0  0  0  0  0  0  0  0  0  0  0  0
   11.7640  -19.5658   24.8929 C   0  0  0  0  0  0  0  0  0  0  0  0
   13.1463  -20.0136   25.1143 O   0  0  0  0  0  0  0  0  0  0  0  0
   13.9704  -19.3353   25.7709 C   0  0  0  0  0  0  0  0  0  0  0  0
   12.4748  -17.1762   24.9687 O   0  0  0  0  0  0  0  0  0  0  0  0
   13.6975  -17.2145   25.2501 O   0  0  0  0  0  0  0  0  0  0  0  0
   13.5563  -21.2367   24.5747 O   0  0  0  0  0  0  0  0  0  0  0  0
  2  3  2  0
  2  1  1  0
  4  2  1  0
  5  4  1  0
  6  5  1  0
  7  8  1  0
  7  6  1  0
  8 10  1  0
  8  9  1  6
 10 14  1  0
 11 10  2  0
 13 14  1  0
 13 15  1  0
 13 12  1  1
 15 16  2  0
 17 15  1  0
 17 18  1  0
 18 22  1  0
 18 19  1  1
 20 24  1  0
 20 19  1  0
 21 20  2  0
 22 23  2  0
 22 25  1  0
M  END
$$$$
