SRP.pdb
     RDKit          3D

 25 25  0  0  1  0  0  0  0  0999 V2000
   10.1314  -12.7139   20.1078 O   0  0  0  0  0  0  0  0  0  0  0  0
    8.8361  -12.6617   19.5931 C   0  0  0  0  0  0  0  0  0  0  0  0
    8.1586  -14.0324   19.6630 C   0  0  2  0  0  0  0  0  0  0  0  0
    7.1365  -14.0457   18.6443 N   0  0  0  0  0  0  0  0  0  0  0  0
    7.5963  -14.1628   21.0257 C   0  0  0  0  0  0  0  0  0  0  0  0
    6.5911  -13.4862   21.3498 O   0  0  0  0  0  0  0  0  0  0  0  0
    8.9952  -18.7274   27.0961 N   0  0  0  0  0  0  0  0  0  0  0  0
    7.6595  -19.1503   27.2877 C   0  0  0  0  0  0  0  0  0  0  0  0
    7.2651  -19.6243   28.4256 N   0  0  0  0  0  0  0  0  0  0  0  0
    6.6807  -19.0789   26.2473 N   0  0  0  0  0  0  0  0  0  0  0  0
    7.0117  -18.6627   24.9073 C   0  0  0  0  0  0  0  0  0  0  0  0
    7.1102  -17.1344   24.9001 C   0  0  0  0  0  0  0  0  0  0  0  0
    7.3984  -16.7054   23.5085 C   0  0  0  0  0  0  0  0  0  0  0  0
    7.5364  -15.2030   23.3155 C   0  0  2  0  0  0  0  0  0  0  0  0
    8.1479  -15.0382   22.0178 N   0  0  0  0  0  0  0  0  0  0  0  0
    8.1741  -14.5041   24.4226 C   0  0  0  0  0  0  0  0  0  0  0  0
    9.4414  -14.7128   24.6095 O   0  0  0  0  0  0  0  0  0  0  0  0
    6.2737  -19.9416   28.5394 N   0  0  0  0  0  0  0  0  0  0  0  0
    7.6007  -13.6075   25.3483 C   0  0  0  0  0  0  0  0  0  0  0  0
    6.2620  -13.1082   25.3166 C   0  0  0  0  0  0  0  0  0  0  0  0
    6.0335  -12.5087   26.6780 C   0  0  0  0  0  0  0  0  0  0  0  0
    7.3955  -11.9505   27.0174 C   0  0  2  0  0  0  0  0  0  0  0  0
    8.3004  -13.0383   26.4787 C   0  0  0  0  0  0  0  0  0  0  0  0
    8.5120  -14.0138   27.5628 O   0  0  0  0  0  0  0  0  0  0  0  0
    9.3372  -13.7231   28.6231 O   0  0  0  0  0  0  0  0  0  0  0  0
  1  2  1  0
  3  4  1  6
  3  2  1  0
  5  3  1  0
  6  5  2  0
  7  8  1  0
  8  9  2  0
  8 10  1  0
 10 11  1  0
 11 12  1  0
 14 13  1  1
 13 12  1  0
 14 15  1  0
 15  5  1  0
 16 18  1  0
 16 14  1  0
 17 16  2  0
 18 19  1  0
 20 19  1  0
 21 20  1  0
 22 18  1  0
 22 21  1  0
 22 23  1  1
 24 23  1  0
 25 23  2  0
M  END
$$$$
