SRP.pdb
     RDKit          3D

 25 25  0  0  1  0  0  0  0  0999 V2000
   11.8210  -14.3776   20.0283 O   0  0  0  0  0  0  0  0  0  0  0  0
   10.8192  -15.3177   19.7874 C   0  0  0  0  0  0  0  0  0  0  0  0
    9.4296  -14.7037   19.9732 C   0  0  2  0  0  0  0  0  0  0  0  0
    9.4142  -13.4701   19.2244 N   0  0  0  0  0  0  0  0  0  0  0  0
    9.2502  -14.4824   21.4255 C   0  0  0  0  0  0  0  0  0  0  0  0
    9.7143  -13.4455   21.9573 O   0  0  0  0  0  0  0  0  0  0  0  0
    6.4265  -10.9490   26.6204 N   0  0  0  0  0  0  0  0  0  0  0  0
    5.6576  -12.0654   27.0231 C   0  0  0  0  0  0  0  0  0  0  0  0
    4.5728  -11.9161   27.7130 N   0  0  0  0  0  0  0  0  0  0  0  0
    6.0309  -13.4065   26.6947 N   0  0  0  0  0  0  0  0  0  0  0  0
    6.2434  -13.8343   25.3344 C   0  0  0  0  0  0  0  0  0  0  0  0
    6.4663  -15.3494   25.3470 C   0  0  0  0  0  0  0  0  0  0  0  0
    7.0075  -15.7389   24.0209 C   0  0  0  0  0  0  0  0  0  0  0  0
    8.3693  -15.1503   23.6853 C   0  0  2  0  0  0  0  0  0  0  0  0
    8.5608  -15.4066   22.2772 N   0  0  0  0  0  0  0  0  0  0  0  0
    9.4474  -15.5699   24.5698 C   0  0  0  0  0  0  0  0  0  0  0  0
   10.0763  -16.6640   24.2668 O   0  0  0  0  0  0  0  0  0  0  0  0
    4.0025  -12.7557   27.9703 N   0  0  0  0  0  0  0  0  0  0  0  0
    9.9228  -14.9438   25.7410 C   0  0  0  0  0  0  0  0  0  0  0  0
    9.5395  -13.6527   26.2190 C   0  0  0  0  0  0  0  0  0  0  0  0
   10.0186  -13.6031   27.6448 C   0  0  0  0  0  0  0  0  0  0  0  0
   11.2968  -14.4057   27.5839 C   0  0  2  0  0  0  0  0  0  0  0  0
   10.8980  -15.5203   26.6399 C   0  0  0  0  0  0  0  0  0  0  0  0
   10.3389  -16.6119   27.4568 O   0  0  0  0  0  0  0  0  0  0  0  0
   11.1416  -17.3501   28.2936 O   0  0  0  0  0  0  0  0  0  0  0  0
  1  2  1  0
  3  4  1  6
  3  2  1  0
  5  3  1  0
  6  5  2  0
  7  8  1  0
  8  9  2  0
  8 10  1  0
 10 11  1  0
 11 12  1  0
 14 13  1  1
 13 12  1  0
 14 15  1  0
 15  5  1  0
 16 18  1  0
 16 14  1  0
 17 16  2  0
 18 19  1  0
 20 19  1  0
 21 20  1  0
 22 18  1  0
 22 21  1  0
 22 23  1  1
 24 23  1  0
 25 23  2  0
M  END
$$$$
