SRP.pdb
     RDKit          3D

 25 25  0  0  1  0  0  0  0  0999 V2000
   10.0667  -12.9523   20.3205 O   0  0  0  0  0  0  0  0  0  0  0  0
    8.8813  -12.7174   19.6241 C   0  0  0  0  0  0  0  0  0  0  0  0
    7.9485  -13.9287   19.6976 C   0  0  2  0  0  0  0  0  0  0  0  0
    6.8033  -13.6248   18.8737 N   0  0  0  0  0  0  0  0  0  0  0  0
    7.5862  -14.1041   21.1217 C   0  0  0  0  0  0  0  0  0  0  0  0
    6.7330  -13.3468   21.6429 O   0  0  0  0  0  0  0  0  0  0  0  0
    5.7466  -20.1995   26.5113 N   0  0  0  0  0  0  0  0  0  0  0  0
    6.9701  -19.7613   27.0685 C   0  0  0  0  0  0  0  0  0  0  0  0
    7.1728  -19.7947   28.3463 N   0  0  0  0  0  0  0  0  0  0  0  0
    8.0401  -19.2622   26.2610 N   0  0  0  0  0  0  0  0  0  0  0  0
    7.8491  -18.8743   24.8857 C   0  0  0  0  0  0  0  0  0  0  0  0
    7.5638  -17.3700   24.8564 C   0  0  0  0  0  0  0  0  0  0  0  0
    7.8420  -16.8826   23.4821 C   0  0  0  0  0  0  0  0  0  0  0  0
    7.6720  -15.3839   23.2858 C   0  0  2  0  0  0  0  0  0  0  0  0
    8.1685  -15.1130   21.9572 N   0  0  0  0  0  0  0  0  0  0  0  0
    8.2191  -14.5647   24.3584 C   0  0  0  0  0  0  0  0  0  0  0  0
    9.5109  -14.5185   24.4746 O   0  0  0  0  0  0  0  0  0  0  0  0
    8.0852  -19.4591   28.7354 N   0  0  0  0  0  0  0  0  0  0  0  0
    7.5317  -13.7911   25.3169 C   0  0  0  0  0  0  0  0  0  0  0  0
    6.1191  -13.5814   25.3720 C   0  0  0  0  0  0  0  0  0  0  0  0
    5.8582  -13.0194   26.7435 C   0  0  0  0  0  0  0  0  0  0  0  0
    7.0928  -12.1849   26.9906 C   0  0  2  0  0  0  0  0  0  0  0  0
    8.1682  -13.0700   26.3969 C   0  0  0  0  0  0  0  0  0  0  0  0
    8.6472  -13.9617   27.4678 O   0  0  0  0  0  0  0  0  0  0  0  0
    9.4992  -13.5001   28.4428 O   0  0  0  0  0  0  0  0  0  0  0  0
  1  2  1  0
  3  4  1  6
  3  2  1  0
  5  3  1  0
  6  5  2  0
  7  8  1  0
  8  9  2  0
  8 10  1  0
 10 11  1  0
 11 12  1  0
 14 13  1  1
 13 12  1  0
 14 15  1  0
 15  5  1  0
 16 18  1  0
 16 14  1  0
 17 16  2  0
 18 19  1  0
 20 19  1  0
 21 20  1  0
 22 18  1  0
 22 21  1  0
 22 23  1  1
 24 23  1  0
 25 23  2  0
M  END
$$$$
