SRP.pdb
     RDKit          3D

 25 25  0  0  1  0  0  0  0  0999 V2000
   10.6241  -12.8730   20.3739 O   0  0  0  0  0  0  0  0  0  0  0  0
   10.1682  -14.0918   19.8719 C   0  0  0  0  0  0  0  0  0  0  0  0
    8.6484  -14.0805   19.6910 C   0  0  2  0  0  0  0  0  0  0  0  0
    8.3207  -12.8657   18.9841 N   0  0  0  0  0  0  0  0  0  0  0  0
    8.0557  -14.1198   21.0465 C   0  0  0  0  0  0  0  0  0  0  0  0
    7.6734  -13.0549   21.5879 O   0  0  0  0  0  0  0  0  0  0  0  0
    7.5938  -21.2577   26.9215 N   0  0  0  0  0  0  0  0  0  0  0  0
    7.9461  -19.9769   26.4368 C   0  0  0  0  0  0  0  0  0  0  0  0
    9.1698  -19.6935   26.1248 N   0  0  0  0  0  0  0  0  0  0  0  0
    6.9815  -18.9347   26.2659 N   0  0  0  0  0  0  0  0  0  0  0  0
    6.4407  -18.5918   24.9742 C   0  0  0  0  0  0  0  0  0  0  0  0
    6.5549  -17.0741   24.8040 C   0  0  0  0  0  0  0  0  0  0  0  0
    7.0567  -16.8084   23.4325 C   0  0  0  0  0  0  0  0  0  0  0  0
    7.3147  -15.3432   23.1160 C   0  0  2  0  0  0  0  0  0  0  0  0
    7.8905  -15.3331   21.7918 N   0  0  0  0  0  0  0  0  0  0  0  0
    8.0492  -14.6196   24.1444 C   0  0  0  0  0  0  0  0  0  0  0  0
    9.3334  -14.7990   24.1986 O   0  0  0  0  0  0  0  0  0  0  0  0
    9.4032  -18.7426   25.7536 N   0  0  0  0  0  0  0  0  0  0  0  0
    7.5561  -13.7260   25.1181 C   0  0  0  0  0  0  0  0  0  0  0  0
    6.1958  -13.3156   25.2706 C   0  0  0  0  0  0  0  0  0  0  0  0
    6.1273  -12.6791   26.6327 C   0  0  0  0  0  0  0  0  0  0  0  0
    7.4821  -12.0216   26.7501 C   0  0  2  0  0  0  0  0  0  0  0  0
    8.3721  -13.0692   26.1153 C   0  0  0  0  0  0  0  0  0  0  0  0
    8.8067  -13.9859   27.1842 O   0  0  0  0  0  0  0  0  0  0  0  0
    9.7847  -13.6165   28.0767 O   0  0  0  0  0  0  0  0  0  0  0  0
  1  2  1  0
  3  4  1  1
  3  2  1  0
  5  3  1  0
  6  5  2  0
  7  8  1  0
  8  9  2  0
  8 10  1  0
 10 11  1  0
 11 12  1  0
 14 13  1  1
 13 12  1  0
 14 15  1  0
 15  5  1  0
 16 18  1  0
 16 14  1  0
 17 16  2  0
 18 19  1  0
 20 19  1  0
 21 20  1  0
 22 18  1  0
 22 21  1  0
 22 23  1  1
 24 23  1  0
 25 23  2  0
M  END
$$$$
