SRP.pdb
     RDKit          3D

 25 25  0  0  1  0  0  0  0  0999 V2000
   10.5925  -17.0482   16.9959 O   0  0  0  0  0  0  0  0  0  0  0  0
    9.7309  -16.5214   16.0338 C   0  0  0  0  0  0  0  0  0  0  0  0
    8.3134  -17.0745   16.2000 C   0  0  2  0  0  0  0  0  0  0  0  0
    7.5133  -16.4969   15.1468 N   0  0  0  0  0  0  0  0  0  0  0  0
    7.8504  -16.6679   17.5455 C   0  0  0  0  0  0  0  0  0  0  0  0
    7.4561  -15.4928   17.7374 O   0  0  0  0  0  0  0  0  0  0  0  0
    7.3591  -19.6896   26.1212 N   0  0  0  0  0  0  0  0  0  0  0  0
    6.5134  -20.2555   25.1393 C   0  0  0  0  0  0  0  0  0  0  0  0
    6.2154  -21.5148   25.1590 N   0  0  0  0  0  0  0  0  0  0  0  0
    5.9464  -19.4774   24.0815 N   0  0  0  0  0  0  0  0  0  0  0  0
    6.3418  -19.6465   22.7055 C   0  0  0  0  0  0  0  0  0  0  0  0
    6.6245  -18.2585   22.1232 C   0  0  0  0  0  0  0  0  0  0  0  0
    7.0181  -18.4345   20.7028 C   0  0  0  0  0  0  0  0  0  0  0  0
    7.3456  -17.1464   19.9631 C   0  0  2  0  0  0  0  0  0  0  0  0
    7.8267  -17.5612   18.6664 N   0  0  0  0  0  0  0  0  0  0  0  0
    8.1947  -16.2212   20.7006 C   0  0  0  0  0  0  0  0  0  0  0  0
    9.4425  -16.5455   20.8494 O   0  0  0  0  0  0  0  0  0  0  0  0
    5.6557  -21.9273   24.3761 N   0  0  0  0  0  0  0  0  0  0  0  0
    7.8507  -14.9885   21.2937 C   0  0  0  0  0  0  0  0  0  0  0  0
    6.5752  -14.3480   21.2222 C   0  0  0  0  0  0  0  0  0  0  0  0
    6.6066  -13.2887   22.2909 C   0  0  0  0  0  0  0  0  0  0  0  0
    8.0502  -12.8451   22.2632 C   0  0  2  0  0  0  0  0  0  0  0  0
    8.7593  -14.1679   22.0634 C   0  0  0  0  0  0  0  0  0  0  0  0
    9.0343  -14.7276   23.3987 O   0  0  0  0  0  0  0  0  0  0  0  0
   10.0431  -14.2206   24.1827 O   0  0  0  0  0  0  0  0  0  0  0  0
  1  2  1  0
  3  4  1  6
  3  2  1  0
  5  3  1  0
  6  5  2  0
  7  8  1  0
  8  9  2  0
  8 10  1  0
 10 11  1  0
 11 12  1  0
 14 13  1  1
 13 12  1  0
 14 15  1  0
 15  5  1  0
 16 18  1  0
 16 14  1  0
 17 16  2  0
 18 19  1  0
 20 19  1  0
 21 20  1  0
 22 18  1  0
 22 21  1  0
 22 23  1  1
 24 23  1  0
 25 23  2  0
M  END
$$$$
