SRP.pdb
     RDKit          3D

 25 25  0  0  1  0  0  0  0  0999 V2000
   10.3263  -12.7223   20.7217 O   0  0  0  0  0  0  0  0  0  0  0  0
    9.3280  -12.5563   19.7618 C   0  0  0  0  0  0  0  0  0  0  0  0
    8.4793  -13.8224   19.6234 C   0  0  2  0  0  0  0  0  0  0  0  0
    7.5274  -13.5741   18.5674 N   0  0  0  0  0  0  0  0  0  0  0  0
    7.8233  -14.0432   20.9315 C   0  0  0  0  0  0  0  0  0  0  0  0
    6.8746  -13.3018   21.2830 O   0  0  0  0  0  0  0  0  0  0  0  0
    8.8138  -18.6243   27.0298 N   0  0  0  0  0  0  0  0  0  0  0  0
    7.5048  -19.1539   27.1049 C   0  0  0  0  0  0  0  0  0  0  0  0
    7.0463  -19.6487   28.2094 N   0  0  0  0  0  0  0  0  0  0  0  0
    6.6241  -19.1722   25.9781 N   0  0  0  0  0  0  0  0  0  0  0  0
    7.0440  -18.7444   24.6670 C   0  0  0  0  0  0  0  0  0  0  0  0
    7.1120  -17.2144   24.6706 C   0  0  0  0  0  0  0  0  0  0  0  0
    7.4711  -16.7735   23.2994 C   0  0  0  0  0  0  0  0  0  0  0  0
    7.5697  -15.2670   23.1148 C   0  0  2  0  0  0  0  0  0  0  0  0
    8.2201  -15.0792   21.8393 N   0  0  0  0  0  0  0  0  0  0  0  0
    8.1473  -14.5527   24.2448 C   0  0  0  0  0  0  0  0  0  0  0  0
    9.4292  -14.6524   24.4217 O   0  0  0  0  0  0  0  0  0  0  0  0
    6.1040  -20.1054   28.2211 N   0  0  0  0  0  0  0  0  0  0  0  0
    7.5000  -13.7447   25.2028 C   0  0  0  0  0  0  0  0  0  0  0  0
    6.1055  -13.4343   25.2367 C   0  0  0  0  0  0  0  0  0  0  0  0
    5.8607  -12.8737   26.6118 C   0  0  0  0  0  0  0  0  0  0  0  0
    7.1474  -12.1340   26.8925 C   0  0  2  0  0  0  0  0  0  0  0  0
    8.1670  -13.0862   26.3042 C   0  0  0  0  0  0  0  0  0  0  0  0
    8.5609  -14.0249   27.3698 O   0  0  0  0  0  0  0  0  0  0  0  0
    9.4020  -13.6303   28.3829 O   0  0  0  0  0  0  0  0  0  0  0  0
  1  2  1  0
  3  4  1  6
  3  2  1  0
  5  3  1  0
  6  5  2  0
  7  8  1  0
  8  9  2  0
  8 10  1  0
 10 11  1  0
 11 12  1  0
 14 13  1  1
 13 12  1  0
 14 15  1  0
 15  5  1  0
 16 18  1  0
 16 14  1  0
 17 16  2  0
 18 19  1  0
 20 19  1  0
 21 20  1  0
 22 18  1  0
 22 21  1  0
 22 23  1  1
 24 23  1  0
 25 23  2  0
M  END
$$$$
