SRP.pdb
     RDKit          3D

 25 25  0  0  1  0  0  0  0  0999 V2000
   11.9562  -18.8863   23.5374 O   0  0  0  0  0  0  0  0  0  0  0  0
   13.0365  -18.3892   22.8085 C   0  0  0  0  0  0  0  0  0  0  0  0
   12.5846  -17.3179   21.8130 C   0  0  2  0  0  0  0  0  0  0  0  0
   13.7797  -16.7679   21.2199 N   0  0  0  0  0  0  0  0  0  0  0  0
   11.8245  -16.3097   22.5850 C   0  0  0  0  0  0  0  0  0  0  0  0
   12.4393  -15.4820   23.2993 O   0  0  0  0  0  0  0  0  0  0  0  0
    7.5000  -14.3414   17.2317 N   0  0  0  0  0  0  0  0  0  0  0  0
    7.4773  -13.9263   18.5833 C   0  0  0  0  0  0  0  0  0  0  0  0
    8.0457  -12.8241   18.9536 N   0  0  0  0  0  0  0  0  0  0  0  0
    6.8327  -14.6919   19.6051 N   0  0  0  0  0  0  0  0  0  0  0  0
    6.8481  -14.2925   20.9903 C   0  0  0  0  0  0  0  0  0  0  0  0
    8.2958  -14.3650   21.4848 C   0  0  0  0  0  0  0  0  0  0  0  0
    8.3047  -15.1449   22.7479 C   0  0  0  0  0  0  0  0  0  0  0  0
    9.6708  -15.2961   23.3992 C   0  0  2  0  0  0  0  0  0  0  0  0
   10.3937  -16.2241   22.5618 N   0  0  0  0  0  0  0  0  0  0  0  0
    9.6348  -15.6043   24.8221 C   0  0  0  0  0  0  0  0  0  0  0  0
    9.8119  -16.8423   25.1693 O   0  0  0  0  0  0  0  0  0  0  0  0
    8.1160  -12.5941   19.9728 N   0  0  0  0  0  0  0  0  0  0  0  0
    9.4305  -14.7300   25.9100 C   0  0  0  0  0  0  0  0  0  0  0  0
    9.0919  -13.3444   25.8230 C   0  0  0  0  0  0  0  0  0  0  0  0
    8.6300  -12.9649   27.2042 C   0  0  0  0  0  0  0  0  0  0  0  0
    9.5139  -13.8160   28.0852 C   0  0  1  0  0  0  0  0  0  0  0  0
    9.5507  -15.1102   27.3002 C   0  0  0  0  0  0  0  0  0  0  0  0
    8.4215  -15.9379   27.7601 O   0  0  0  0  0  0  0  0  0  0  0  0
    8.4970  -16.6441   28.9370 O   0  0  0  0  0  0  0  0  0  0  0  0
  1  2  1  0
  3  4  1  1
  3  2  1  0
  5  3  1  0
  6  5  2  0
  7  8  1  0
  8  9  2  0
  8 10  1  0
 10 11  1  0
 11 12  1  0
 14 13  1  6
 13 12  1  0
 14 15  1  0
 15  5  1  0
 16 18  1  0
 16 14  1  0
 17 16  2  0
 18 19  1  0
 20 19  1  0
 21 20  1  0
 22 18  1  0
 22 21  1  0
 22 23  1  1
 24 23  1  0
 25 23  2  0
M  END
$$$$
