SRP.pdb
     RDKit          3D

 25 25  0  0  1  0  0  0  0  0999 V2000
   13.1617  -19.0233   23.4897 O   0  0  0  0  0  0  0  0  0  0  0  0
   12.2663  -18.8878   22.4288 C   0  0  0  0  0  0  0  0  0  0  0  0
   12.3494  -17.4897   21.8114 C   0  0  2  0  0  0  0  0  0  0  0  0
   13.7388  -17.2514   21.5020 N   0  0  0  0  0  0  0  0  0  0  0  0
   11.8281  -16.5435   22.8229 C   0  0  0  0  0  0  0  0  0  0  0  0
   12.6294  -15.8693   23.5133 O   0  0  0  0  0  0  0  0  0  0  0  0
    8.3171  -15.1670   19.1712 N   0  0  0  0  0  0  0  0  0  0  0  0
    7.6508  -13.9567   19.4725 C   0  0  0  0  0  0  0  0  0  0  0  0
    7.6531  -12.9668   18.6388 N   0  0  0  0  0  0  0  0  0  0  0  0
    6.9449  -13.7606   20.7010 N   0  0  0  0  0  0  0  0  0  0  0  0
    7.0859  -14.6578   21.8206 C   0  0  0  0  0  0  0  0  0  0  0  0
    8.2988  -14.2035   22.6378 C   0  0  0  0  0  0  0  0  0  0  0  0
    8.4949  -15.1797   23.7388 C   0  0  0  0  0  0  0  0  0  0  0  0
    9.9463  -15.4622   24.0952 C   0  0  2  0  0  0  0  0  0  0  0  0
   10.4282  -16.3500   23.0633 N   0  0  0  0  0  0  0  0  0  0  0  0
   10.1618  -15.8934   25.4694 C   0  0  0  0  0  0  0  0  0  0  0  0
   10.3368  -17.1627   25.6762 O   0  0  0  0  0  0  0  0  0  0  0  0
    7.1334  -12.0890   18.8750 N   0  0  0  0  0  0  0  0  0  0  0  0
   10.2101  -15.1119   26.6427 C   0  0  0  0  0  0  0  0  0  0  0  0
    9.9082  -13.7183   26.7377 C   0  0  0  0  0  0  0  0  0  0  0  0
    9.7465  -13.4504   28.2099 C   0  0  0  0  0  0  0  0  0  0  0  0
   10.7601  -14.3886   28.8217 C   0  0  1  0  0  0  0  0  0  0  0  0
   10.5943  -15.6114   27.9444 C   0  0  0  0  0  0  0  0  0  0  0  0
    9.5533  -16.4561   28.5562 O   0  0  0  0  0  0  0  0  0  0  0  0
    9.8238  -17.2140   29.6706 O   0  0  0  0  0  0  0  0  0  0  0  0
  1  2  1  0
  3  4  1  1
  3  2  1  0
  5  3  1  0
  6  5  2  0
  7  8  1  0
  8  9  2  0
  8 10  1  0
 10 11  1  0
 11 12  1  0
 14 13  1  6
 13 12  1  0
 14 15  1  0
 15  5  1  0
 16 18  1  0
 16 14  1  0
 17 16  2  0
 18 19  1  0
 20 19  1  0
 21 20  1  0
 22 18  1  0
 22 21  1  0
 22 23  1  1
 24 23  1  0
 25 23  2  0
M  END
$$$$
