SRP.pdb
     RDKit          3D

 25 25  0  0  1  0  0  0  0  0999 V2000
   10.4125  -12.8550   20.4075 O   0  0  0  0  0  0  0  0  0  0  0  0
    9.8764  -14.0253   19.8703 C   0  0  0  0  0  0  0  0  0  0  0  0
    8.3584  -13.9138   19.7091 C   0  0  2  0  0  0  0  0  0  0  0  0
    8.0961  -12.6337   19.0966 N   0  0  0  0  0  0  0  0  0  0  0  0
    7.7751  -14.0186   21.0652 C   0  0  0  0  0  0  0  0  0  0  0  0
    7.3165  -12.9938   21.6244 O   0  0  0  0  0  0  0  0  0  0  0  0
    8.7289  -20.5045   26.7546 N   0  0  0  0  0  0  0  0  0  0  0  0
    7.4718  -19.9360   27.0644 C   0  0  0  0  0  0  0  0  0  0  0  0
    6.6708  -20.5040   27.9076 N   0  0  0  0  0  0  0  0  0  0  0  0
    7.0198  -18.7158   26.4707 N   0  0  0  0  0  0  0  0  0  0  0  0
    6.8259  -18.5782   25.0487 C   0  0  0  0  0  0  0  0  0  0  0  0
    6.4525  -17.1206   24.7635 C   0  0  0  0  0  0  0  0  0  0  0  0
    6.9113  -16.7957   23.3897 C   0  0  0  0  0  0  0  0  0  0  0  0
    7.1712  -15.3194   23.1321 C   0  0  2  0  0  0  0  0  0  0  0  0
    7.7032  -15.2525   21.7913 N   0  0  0  0  0  0  0  0  0  0  0  0
    7.9452  -14.6488   24.1675 C   0  0  0  0  0  0  0  0  0  0  0  0
    9.2203  -14.8871   24.2080 O   0  0  0  0  0  0  0  0  0  0  0  0
    5.7928  -20.0137   28.1994 N   0  0  0  0  0  0  0  0  0  0  0  0
    7.5002  -13.7521   25.1612 C   0  0  0  0  0  0  0  0  0  0  0  0
    6.1697  -13.2511   25.3069 C   0  0  0  0  0  0  0  0  0  0  0  0
    6.1238  -12.6523   26.6868 C   0  0  0  0  0  0  0  0  0  0  0  0
    7.5194  -12.0960   26.8438 C   0  0  2  0  0  0  0  0  0  0  0  0
    8.3438  -13.1846   26.1897 C   0  0  0  0  0  0  0  0  0  0  0  0
    8.6954  -14.1611   27.2358 O   0  0  0  0  0  0  0  0  0  0  0  0
    9.6333  -13.8614   28.1950 O   0  0  0  0  0  0  0  0  0  0  0  0
  1  2  1  0
  3  4  1  1
  3  2  1  0
  5  3  1  0
  6  5  2  0
  7  8  1  0
  8  9  2  0
  8 10  1  0
 10 11  1  0
 11 12  1  0
 14 13  1  1
 13 12  1  0
 14 15  1  0
 15  5  1  0
 16 18  1  0
 16 14  1  0
 17 16  2  0
 18 19  1  0
 20 19  1  0
 21 20  1  0
 22 18  1  0
 22 21  1  0
 22 23  1  1
 24 23  1  0
 25 23  2  0
M  END
$$$$
