TEE.pdb
     RDKit          3D

 26 25  0  0  1  0  0  0  0  0999 V2000
   10.1281  -13.2009   17.4900 C   0  0  0  0  0  0  0  0  0  0  0  0
   10.0338  -14.0189   18.7586 C   0  0  1  0  0  0  0  0  0  0  0  0
   10.8747  -13.4957   19.7181 O   0  0  0  0  0  0  0  0  0  0  0  0
    8.5845  -14.0173   19.2217 C   0  0  2  0  0  0  0  0  0  0  0  0
    8.1809  -12.6325   19.4967 N   0  0  0  0  0  0  0  0  0  0  0  0
    8.4827  -14.8038   20.4667 C   0  0  0  0  0  0  0  0  0  0  0  0
    8.2179  -14.1819   21.5282 O   0  0  0  0  0  0  0  0  0  0  0  0
    8.6681  -16.2091   20.5139 N   0  0  0  0  0  0  0  0  0  0  0  0
    8.6037  -16.8929   21.8170 C   0  0  1  0  0  0  0  0  0  0  0  0
    8.4352  -18.3722   21.5912 C   0  0  0  0  0  0  0  0  0  0  0  0
    8.4237  -19.1033   22.8966 C   0  0  0  0  0  0  0  0  0  0  0  0
    8.3744  -20.5874   22.6841 C   0  0  0  0  0  0  0  0  0  0  0  0
    8.3083  -21.3743   23.6394 O   0  0  0  0  0  0  0  0  0  0  0  0
    9.7790  -16.5122   22.6333 C   0  0  0  0  0  0  0  0  0  0  0  0
   10.9236  -16.5121   22.1820 O   0  0  0  0  0  0  0  0  0  0  0  0
    8.4051  -21.0462   21.3882 O   0  0  0  0  0  0  0  0  0  0  0  0
    9.6007  -16.1259   24.0028 N   0  0  0  0  0  0  0  0  0  0  0  0
   10.6698  -15.9567   24.9470 C   0  0  1  0  0  0  0  0  0  0  0  0
   10.2675  -15.5779   26.3227 C   0  0  0  0  0  0  0  0  0  0  0  0
   11.3328  -15.3817   27.3301 C   0  0  0  0  0  0  0  0  0  0  0  0
   10.8471  -14.8718   28.6270 C   0  0  0  0  0  0  0  0  0  0  0  0
    9.6479  -14.6907   28.8862 O   0  0  0  0  0  0  0  0  0  0  0  0
   11.5631  -17.1286   24.9251 C   0  0  0  0  0  0  0  0  0  0  0  0
   11.0791  -18.2798   24.9701 O   0  0  0  0  0  0  0  0  0  0  0  0
   11.7683  -14.5643   29.6473 O   0  0  0  0  0  0  0  0  0  0  0  0
   12.9332  -16.9931   24.8557 O   0  0  0  0  0  0  0  0  0  0  0  0
  2  1  1  6
  2  4  1  0
  2  3  1  0
  4  5  1  1
  6  4  1  0
  7  6  2  0
  8  6  1  0
  9  8  1  0
  9 10  1  6
 11 10  1  0
 12 11  1  0
 12 13  2  0
 14 15  2  0
 14  9  1  0
 16 12  1  0
 17 14  1  0
 18 17  1  0
 18 19  1  1
 20 21  1  0
 20 19  1  0
 21 22  2  0
 23 18  1  0
 24 23  2  0
 25 21  1  0
 26 23  1  0
M  END
$$$$
