TEE.pdb
     RDKit          3D

 26 25  0  0  1  0  0  0  0  0999 V2000
    9.0373  -12.5672   19.8608 C   0  0  0  0  0  0  0  0  0  0  0  0
    8.0024  -13.1521   18.9258 C   0  0  1  0  0  0  0  0  0  0  0  0
    7.7870  -12.2940   17.8682 O   0  0  0  0  0  0  0  0  0  0  0  0
    8.4983  -14.5109   18.4538 C   0  0  2  0  0  0  0  0  0  0  0  0
    7.4995  -15.0848   17.5431 N   0  0  0  0  0  0  0  0  0  0  0  0
    8.6451  -15.3963   19.6257 C   0  0  0  0  0  0  0  0  0  0  0  0
    7.5961  -15.8816   20.1237 O   0  0  0  0  0  0  0  0  0  0  0  0
    9.9000  -15.7170   20.2034 N   0  0  0  0  0  0  0  0  0  0  0  0
    9.9445  -16.6660   21.3291 C   0  0  1  0  0  0  0  0  0  0  0  0
   10.6211  -17.9342   20.8800 C   0  0  0  0  0  0  0  0  0  0  0  0
   11.8732  -17.6202   20.1234 C   0  0  0  0  0  0  0  0  0  0  0  0
   12.5337  -18.8728   19.6284 C   0  0  0  0  0  0  0  0  0  0  0  0
   13.4307  -19.4293   20.2778 O   0  0  0  0  0  0  0  0  0  0  0  0
   10.5590  -16.0090   22.5053 C   0  0  0  0  0  0  0  0  0  0  0  0
   11.6225  -15.3943   22.4367 O   0  0  0  0  0  0  0  0  0  0  0  0
   12.1078  -19.3841   18.4251 O   0  0  0  0  0  0  0  0  0  0  0  0
    9.9086  -16.0787   23.7814 N   0  0  0  0  0  0  0  0  0  0  0  0
   10.4146  -15.4839   24.9870 C   0  0  1  0  0  0  0  0  0  0  0  0
    9.4404  -14.6990   25.7824 C   0  0  0  0  0  0  0  0  0  0  0  0
    8.5972  -13.7121   25.0728 C   0  0  0  0  0  0  0  0  0  0  0  0
    7.7326  -12.9113   25.9610 C   0  0  0  0  0  0  0  0  0  0  0  0
    7.7136  -13.0375   27.1946 O   0  0  0  0  0  0  0  0  0  0  0  0
   11.1207  -16.4914   25.7982 C   0  0  0  0  0  0  0  0  0  0  0  0
   11.0448  -17.7004   25.4915 O   0  0  0  0  0  0  0  0  0  0  0  0
    6.8705  -11.9426   25.4109 O   0  0  0  0  0  0  0  0  0  0  0  0
   11.8718  -16.1376   26.8986 O   0  0  0  0  0  0  0  0  0  0  0  0
  2  1  1  1
  2  4  1  0
  2  3  1  0
  4  5  1  6
  6  4  1  0
  7  6  2  0
  8  6  1  0
  9  8  1  0
  9 10  1  6
 11 10  1  0
 12 11  1  0
 12 13  2  0
 14 15  2  0
 14  9  1  0
 16 12  1  0
 17 14  1  0
 18 17  1  0
 18 19  1  1
 20 21  1  0
 20 19  1  0
 21 22  2  0
 23 18  1  0
 24 23  2  0
 25 21  1  0
 26 23  1  0
M  END
$$$$
