TEE.pdb
     RDKit          3D

 26 25  0  0  1  0  0  0  0  0999 V2000
    9.5920  -11.9925   19.6708 C   0  0  0  0  0  0  0  0  0  0  0  0
    8.4810  -12.8255   19.0716 C   0  0  1  0  0  0  0  0  0  0  0  0
    7.5678  -12.0067   18.4416 O   0  0  0  0  0  0  0  0  0  0  0  0
    9.1003  -13.8236   18.1045 C   0  0  2  0  0  0  0  0  0  0  0  0
    8.0300  -14.6531   17.5365 N   0  0  0  0  0  0  0  0  0  0  0  0
   10.0353  -14.6894   18.8494 C   0  0  0  0  0  0  0  0  0  0  0  0
    9.5797  -15.7585   19.3325 O   0  0  0  0  0  0  0  0  0  0  0  0
   11.4041  -14.3703   19.0395 N   0  0  0  0  0  0  0  0  0  0  0  0
   12.2770  -15.3482   19.7114 C   0  0  1  0  0  0  0  0  0  0  0  0
   13.1603  -16.0088   18.6861 C   0  0  0  0  0  0  0  0  0  0  0  0
   13.8698  -14.9789   17.8646 C   0  0  0  0  0  0  0  0  0  0  0  0
   14.7343  -15.6222   16.8210 C   0  0  0  0  0  0  0  0  0  0  0  0
   15.9707  -15.5987   16.9031 O   0  0  0  0  0  0  0  0  0  0  0  0
   12.9941  -14.6869   20.8254 C   0  0  0  0  0  0  0  0  0  0  0  0
   14.0835  -14.1356   20.6737 O   0  0  0  0  0  0  0  0  0  0  0  0
   14.1053  -16.2411   15.7665 O   0  0  0  0  0  0  0  0  0  0  0  0
   12.4169  -14.6764   22.1381 N   0  0  0  0  0  0  0  0  0  0  0  0
   12.8753  -15.4814   23.2359 C   0  0  1  0  0  0  0  0  0  0  0  0
   11.9659  -16.5697   23.6675 C   0  0  0  0  0  0  0  0  0  0  0  0
   12.4376  -17.4935   24.7222 C   0  0  0  0  0  0  0  0  0  0  0  0
   11.4806  -18.5672   25.0528 C   0  0  0  0  0  0  0  0  0  0  0  0
   10.4781  -18.3966   25.7627 O   0  0  0  0  0  0  0  0  0  0  0  0
   14.2455  -15.9612   22.9823 C   0  0  0  0  0  0  0  0  0  0  0  0
   14.4816  -16.6642   21.9766 O   0  0  0  0  0  0  0  0  0  0  0  0
   11.6870  -19.8673   24.5515 O   0  0  0  0  0  0  0  0  0  0  0  0
   15.2881  -15.6549   23.8305 O   0  0  0  0  0  0  0  0  0  0  0  0
  2  1  1  6
  2  4  1  0
  2  3  1  0
  4  5  1  1
  6  4  1  0
  7  6  2  0
  8  6  1  0
  9  8  1  0
  9 10  1  6
 11 10  1  0
 12 11  1  0
 12 13  2  0
 14 15  2  0
 14  9  1  0
 16 12  1  0
 17 14  1  0
 18 17  1  0
 18 19  1  6
 20 21  1  0
 20 19  1  0
 21 22  2  0
 23 18  1  0
 24 23  2  0
 25 21  1  0
 26 23  1  0
M  END
$$$$
