TEE.pdb
     RDKit          3D

 26 25  0  0  1  0  0  0  0  0999 V2000
   14.8026  -15.2907   20.0728 C   0  0  0  0  0  0  0  0  0  0  0  0
   13.8519  -14.2345   19.5551 C   0  0  1  0  0  0  0  0  0  0  0  0
   14.4241  -13.5685   18.4919 O   0  0  0  0  0  0  0  0  0  0  0  0
   12.5516  -14.9162   19.1558 C   0  0  2  0  0  0  0  0  0  0  0  0
   11.5983  -13.8891   18.7173 N   0  0  0  0  0  0  0  0  0  0  0  0
   11.9992  -15.6129   20.3342 C   0  0  0  0  0  0  0  0  0  0  0  0
   11.1740  -14.9853   21.0476 O   0  0  0  0  0  0  0  0  0  0  0  0
   12.3550  -16.9392   20.6887 N   0  0  0  0  0  0  0  0  0  0  0  0
   11.6793  -17.5767   21.8318 C   0  0  1  0  0  0  0  0  0  0  0  0
   11.5657  -19.0565   21.5764 C   0  0  0  0  0  0  0  0  0  0  0  0
   10.9780  -19.7496   22.7651 C   0  0  0  0  0  0  0  0  0  0  0  0
   10.8242  -21.2200   22.5116 C   0  0  0  0  0  0  0  0  0  0  0  0
    9.9204  -21.6588   21.7860 O   0  0  0  0  0  0  0  0  0  0  0  0
   12.3752  -17.2076   23.0857 C   0  0  0  0  0  0  0  0  0  0  0  0
   13.5964  -17.0707   23.1467 O   0  0  0  0  0  0  0  0  0  0  0  0
   11.7241  -22.0673   23.1143 O   0  0  0  0  0  0  0  0  0  0  0  0
   11.6185  -16.9970   24.2854 N   0  0  0  0  0  0  0  0  0  0  0  0
   12.1874  -16.6393   25.5549 C   0  0  1  0  0  0  0  0  0  0  0  0
   11.2281  -16.1974   26.5952 C   0  0  0  0  0  0  0  0  0  0  0  0
   11.7701  -15.7522   27.8977 C   0  0  0  0  0  0  0  0  0  0  0  0
   10.7550  -15.1947   28.8123 C   0  0  0  0  0  0  0  0  0  0  0  0
    9.5544  -15.0884   28.5203 O   0  0  0  0  0  0  0  0  0  0  0  0
   13.0838  -17.7065   26.0338 C   0  0  0  0  0  0  0  0  0  0  0  0
   12.7076  -18.8975   25.9961 O   0  0  0  0  0  0  0  0  0  0  0  0
   11.1363  -14.7499   30.0933 O   0  0  0  0  0  0  0  0  0  0  0  0
   14.3403  -17.4287   26.5282 O   0  0  0  0  0  0  0  0  0  0  0  0
  2  1  1  6
  2  4  1  0
  2  3  1  0
  4  5  1  1
  6  4  1  0
  7  6  2  0
  8  6  1  0
  9  8  1  0
  9 10  1  6
 11 10  1  0
 12 11  1  0
 12 13  2  0
 14 15  2  0
 14  9  1  0
 16 12  1  0
 17 14  1  0
 18 17  1  0
 18 19  1  1
 20 21  1  0
 20 19  1  0
 21 22  2  0
 23 18  1  0
 24 23  2  0
 25 21  1  0
 26 23  1  0
M  END
$$$$
