TEE.pdb
     RDKit          3D

 26 25  0  0  1  0  0  0  0  0999 V2000
   13.7428  -17.1073   22.3698 C   0  0  0  0  0  0  0  0  0  0  0  0
   12.7264  -16.7050   21.3246 C   0  0  1  0  0  0  0  0  0  0  0  0
   13.3454  -16.5533   20.1018 O   0  0  0  0  0  0  0  0  0  0  0  0
   11.6426  -17.7718   21.2762 C   0  0  2  0  0  0  0  0  0  0  0  0
   10.6841  -17.4198   20.2211 N   0  0  0  0  0  0  0  0  0  0  0  0
   10.9409  -17.7952   22.5747 C   0  0  0  0  0  0  0  0  0  0  0  0
   10.0841  -16.8988   22.7897 O   0  0  0  0  0  0  0  0  0  0  0  0
   11.1891  -18.7714   23.5731 N   0  0  0  0  0  0  0  0  0  0  0  0
   10.4026  -18.7332   24.8180 C   0  0  1  0  0  0  0  0  0  0  0  0
   10.1112  -20.1424   25.2620 C   0  0  0  0  0  0  0  0  0  0  0  0
   10.3660  -21.1063   24.1464 C   0  0  0  0  0  0  0  0  0  0  0  0
   10.0992  -22.5173   24.5801 C   0  0  0  0  0  0  0  0  0  0  0  0
    9.5310  -23.3259   23.8323 O   0  0  0  0  0  0  0  0  0  0  0  0
   11.0995  -17.8914   25.8172 C   0  0  0  0  0  0  0  0  0  0  0  0
   12.3179  -17.9355   25.9821 O   0  0  0  0  0  0  0  0  0  0  0  0
   10.5085  -22.8839   25.8407 O   0  0  0  0  0  0  0  0  0  0  0  0
   10.3471  -16.9842   26.6340 N   0  0  0  0  0  0  0  0  0  0  0  0
   10.9060  -16.1776   27.6828 C   0  0  1  0  0  0  0  0  0  0  0  0
   10.2113  -14.8972   27.9579 C   0  0  0  0  0  0  0  0  0  0  0  0
    9.7572  -14.0900   26.8044 C   0  0  0  0  0  0  0  0  0  0  0  0
    8.9839  -12.8899   27.1778 C   0  0  0  0  0  0  0  0  0  0  0  0
    8.6569  -12.6208   28.3435 O   0  0  0  0  0  0  0  0  0  0  0  0
   11.1015  -16.9841   28.9006 C   0  0  0  0  0  0  0  0  0  0  0  0
   10.5904  -18.1215   28.9813 O   0  0  0  0  0  0  0  0  0  0  0  0
    8.5793  -11.9801   26.1813 O   0  0  0  0  0  0  0  0  0  0  0  0
   11.8398  -16.5173   29.9671 O   0  0  0  0  0  0  0  0  0  0  0  0
  2  1  1  1
  2  4  1  0
  2  3  1  0
  4  5  1  6
  6  4  1  0
  7  6  2  0
  8  6  1  0
  9  8  1  0
  9 10  1  1
 11 10  1  0
 12 11  1  0
 12 13  2  0
 14 15  2  0
 14  9  1  0
 16 12  1  0
 17 14  1  0
 18 17  1  0
 18 19  1  1
 20 21  1  0
 20 19  1  0
 21 22  2  0
 23 18  1  0
 24 23  2  0
 25 21  1  0
 26 23  1  0
M  END
$$$$
