TEE.pdb
     RDKit          3D

 26 25  0  0  1  0  0  0  0  0999 V2000
    9.4666  -12.5297   20.0583 C   0  0  0  0  0  0  0  0  0  0  0  0
    8.3457  -13.0712   19.1994 C   0  0  1  0  0  0  0  0  0  0  0  0
    7.8043  -12.0561   18.4393 O   0  0  0  0  0  0  0  0  0  0  0  0
    8.9065  -14.1860   18.3289 C   0  0  2  0  0  0  0  0  0  0  0  0
    7.8106  -14.7611   17.5388 N   0  0  0  0  0  0  0  0  0  0  0  0
    9.4698  -15.2336   19.2031 C   0  0  0  0  0  0  0  0  0  0  0  0
    8.6611  -15.9941   19.7960 O   0  0  0  0  0  0  0  0  0  0  0  0
   10.8628  -15.4147   19.3984 N   0  0  0  0  0  0  0  0  0  0  0  0
   11.3227  -16.4875   20.2969 C   0  0  1  0  0  0  0  0  0  0  0  0
   12.2058  -17.4331   19.5263 C   0  0  0  0  0  0  0  0  0  0  0  0
   12.8375  -16.7313   18.3655 C   0  0  0  0  0  0  0  0  0  0  0  0
   13.6844  -17.6725   17.5611 C   0  0  0  0  0  0  0  0  0  0  0  0
   14.3313  -17.2800   16.5795 O   0  0  0  0  0  0  0  0  0  0  0  0
   11.9426  -15.8908   21.5021 C   0  0  0  0  0  0  0  0  0  0  0  0
   12.6723  -14.9018   21.4476 O   0  0  0  0  0  0  0  0  0  0  0  0
   13.7183  -18.9904   17.9519 O   0  0  0  0  0  0  0  0  0  0  0  0
   11.6975  -16.4703   22.7908 N   0  0  0  0  0  0  0  0  0  0  0  0
   12.2615  -15.9887   24.0209 C   0  0  1  0  0  0  0  0  0  0  0  0
   11.7132  -16.5829   25.2634 C   0  0  0  0  0  0  0  0  0  0  0  0
   12.2979  -16.1591   26.5545 C   0  0  0  0  0  0  0  0  0  0  0  0
   11.7524  -16.8736   27.7248 C   0  0  0  0  0  0  0  0  0  0  0  0
   10.9126  -17.7824   27.6424 O   0  0  0  0  0  0  0  0  0  0  0  0
   13.7330  -16.0519   23.9693 C   0  0  0  0  0  0  0  0  0  0  0  0
   14.4125  -15.1350   24.4782 O   0  0  0  0  0  0  0  0  0  0  0  0
   12.1874  -16.5298   29.0197 O   0  0  0  0  0  0  0  0  0  0  0  0
   14.3916  -17.1041   23.3697 O   0  0  0  0  0  0  0  0  0  0  0  0
  2  1  1  6
  2  4  1  0
  2  3  1  0
  4  5  1  1
  6  4  1  0
  7  6  2  0
  8  6  1  0
  9  8  1  0
  9 10  1  6
 11 10  1  0
 12 11  1  0
 12 13  2  0
 14 15  2  0
 14  9  1  0
 16 12  1  0
 17 14  1  0
 18 17  1  0
 18 19  1  1
 20 21  1  0
 20 19  1  0
 21 22  2  0
 23 18  1  0
 24 23  2  0
 25 21  1  0
 26 23  1  0
M  END
$$$$
