YYP.pdb
     RDKit          3D

 32 34  0  0  1  0  0  0  0  0999 V2000
   12.7530  -20.0545   25.8315 O   0  0  0  0  0  0  0  0  0  0  0  0
   11.5182  -20.3067   25.2327 C   0  0  0  0  0  0  0  0  0  0  0  0
   10.5420  -20.9856   25.9525 C   0  0  0  0  0  0  0  0  0  0  0  0
    9.3108  -21.2413   25.3718 C   0  0  0  0  0  0  0  0  0  0  0  0
    9.0208  -20.8357   24.0808 C   0  0  0  0  0  0  0  0  0  0  0  0
    7.6973  -21.1169   23.4752 C   0  0  0  0  0  0  0  0  0  0  0  0
    6.5770  -20.5683   24.3500 C   0  0  2  0  0  0  0  0  0  0  0  0
    5.3732  -21.2007   23.8943 N   0  0  0  0  0  0  0  0  0  0  0  0
    6.4816  -19.0764   24.1605 C   0  0  0  0  0  0  0  0  0  0  0  0
    5.9970  -18.7216   23.0655 O   0  0  0  0  0  0  0  0  0  0  0  0
   10.0216  -20.1603   23.3927 C   0  0  0  0  0  0  0  0  0  0  0  0
   11.2638  -19.8953   23.9581 C   0  0  0  0  0  0  0  0  0  0  0  0
    7.0754  -10.5970   26.3211 O   0  0  0  0  0  0  0  0  0  0  0  0
    7.1008  -12.0090   26.3735 C   0  0  0  0  0  0  0  0  0  0  0  0
    8.2794  -12.7057   26.2653 C   0  0  0  0  0  0  0  0  0  0  0  0
    8.2504  -14.0920   26.3219 C   0  0  0  0  0  0  0  0  0  0  0  0
    7.0992  -14.8025   26.4808 C   0  0  0  0  0  0  0  0  0  0  0  0
    7.1930  -16.2747   26.4993 C   0  0  0  0  0  0  0  0  0  0  0  0
    7.0059  -16.8127   25.0344 C   0  0  2  0  0  0  0  0  0  0  0  0
    6.9231  -18.2164   25.1803 N   0  0  0  0  0  0  0  0  0  0  0  0
    8.0374  -16.2817   24.2090 C   0  0  0  0  0  0  0  0  0  0  0  0
    9.2291  -16.7830   24.3845 O   0  0  0  0  0  0  0  0  0  0  0  0
    5.9244  -14.1179   26.5868 C   0  0  0  0  0  0  0  0  0  0  0  0
    5.9328  -12.7120   26.5323 C   0  0  0  0  0  0  0  0  0  0  0  0
    7.9542  -15.2907   23.2153 N   0  0  0  0  0  0  0  0  0  0  0  0
    6.8684  -14.3668   22.9151 C   0  0  0  0  0  0  0  0  0  0  0  0
    6.9920  -14.1656   21.3972 C   0  0  0  0  0  0  0  0  0  0  0  0
    8.4937  -14.0295   21.2751 C   0  0  0  0  0  0  0  0  0  0  0  0
    8.9886  -15.0646   22.1945 C   0  0  1  0  0  0  0  0  0  0  0  0
   10.3011  -14.7306   22.8117 C   0  0  0  0  0  0  0  0  0  0  0  0
   11.3831  -14.6018   21.9525 O   0  0  0  0  0  0  0  0  0  0  0  0
   10.4977  -14.5619   24.0333 O   0  0  0  0  0  0  0  0  0  0  0  0
  2  1  1  0
  3  2  2  0
  4  3  1  0
  5 11  1  0
  5  4  2  0
  6  5  1  0
  7  9  1  0
  7  6  1  0
  7  8  1  6
  9 20  1  0
  9 10  2  0
 11 12  2  0
 12  2  1  0
 13 14  1  0
 14 24  2  0
 15 16  2  0
 15 14  1  0
 16 17  1  0
 17 18  1  0
 17 23  2  0
 19 18  1  1
 20 19  1  0
 21 19  1  0
 22 21  2  0
 24 23  1  0
 25 21  1  0
 25 29  1  0
 26 25  1  0
 27 26  1  0
 27 28  1  0
 28 29  1  0
 29 30  1  1
 30 32  2  0
 30 31  1  0
M  END
$$$$
