YYP.pdb
     RDKit          3D

 32 34  0  0  1  0  0  0  0  0999 V2000
    6.0234  -18.7514   15.0213 O   0  0  0  0  0  0  0  0  0  0  0  0
    6.6452  -18.4856   16.2418 C   0  0  0  0  0  0  0  0  0  0  0  0
    5.8953  -17.9490   17.2818 C   0  0  0  0  0  0  0  0  0  0  0  0
    6.4985  -17.6818   18.4996 C   0  0  0  0  0  0  0  0  0  0  0  0
    7.8418  -17.9366   18.7137 C   0  0  0  0  0  0  0  0  0  0  0  0
    8.4711  -17.6455   20.0239 C   0  0  0  0  0  0  0  0  0  0  0  0
    8.5374  -16.1429   20.2678 C   0  0  2  0  0  0  0  0  0  0  0  0
    9.2491  -15.5917   19.1514 N   0  0  0  0  0  0  0  0  0  0  0  0
    9.2921  -15.8778   21.5448 C   0  0  0  0  0  0  0  0  0  0  0  0
   10.5352  -15.9231   21.4327 O   0  0  0  0  0  0  0  0  0  0  0  0
    8.5587  -18.4726   17.6507 C   0  0  0  0  0  0  0  0  0  0  0  0
    7.9712  -18.7465   16.4207 C   0  0  0  0  0  0  0  0  0  0  0  0
   10.1210  -14.2069   30.1455 O   0  0  0  0  0  0  0  0  0  0  0  0
    9.6121  -14.3272   28.8326 C   0  0  0  0  0  0  0  0  0  0  0  0
    8.9326  -15.4511   28.4311 C   0  0  0  0  0  0  0  0  0  0  0  0
    8.4538  -15.5205   27.1305 C   0  0  0  0  0  0  0  0  0  0  0  0
    8.6265  -14.5191   26.2236 C   0  0  0  0  0  0  0  0  0  0  0  0
    8.0947  -14.7205   24.8623 C   0  0  0  0  0  0  0  0  0  0  0  0
    9.2079  -15.3901   23.9775 C   0  0  2  0  0  0  0  0  0  0  0  0
    8.5836  -15.6086   22.7281 N   0  0  0  0  0  0  0  0  0  0  0  0
    9.7383  -16.5149   24.6706 C   0  0  0  0  0  0  0  0  0  0  0  0
    8.9028  -17.4876   24.9118 O   0  0  0  0  0  0  0  0  0  0  0  0
    9.3022  -13.4005   26.6140 C   0  0  0  0  0  0  0  0  0  0  0  0
    9.7951  -13.3107   27.9287 C   0  0  0  0  0  0  0  0  0  0  0  0
   11.0487  -16.7349   25.1295 N   0  0  0  0  0  0  0  0  0  0  0  0
   12.2205  -15.8740   25.0379 C   0  0  0  0  0  0  0  0  0  0  0  0
   13.3816  -16.8751   24.9413 C   0  0  0  0  0  0  0  0  0  0  0  0
   12.9472  -17.8778   25.9875 C   0  0  0  0  0  0  0  0  0  0  0  0
   11.5011  -17.9907   25.7472 C   0  0  1  0  0  0  0  0  0  0  0  0
   10.7196  -18.3088   26.9733 C   0  0  0  0  0  0  0  0  0  0  0  0
   11.0120  -19.5066   27.6098 O   0  0  0  0  0  0  0  0  0  0  0  0
    9.8282  -17.5849   27.4642 O   0  0  0  0  0  0  0  0  0  0  0  0
  2  1  1  0
  3  2  2  0
  4  3  1  0
  5 11  1  0
  5  4  2  0
  6  5  1  0
  7  9  1  0
  7  6  1  0
  7  8  1  6
  9 20  1  0
  9 10  2  0
 11 12  2  0
 12  2  1  0
 13 14  1  0
 14 24  2  0
 15 16  2  0
 15 14  1  0
 16 17  1  0
 17 18  1  0
 17 23  2  0
 19 18  1  1
 20 19  1  0
 21 19  1  0
 22 21  2  0
 24 23  1  0
 25 21  1  0
 25 29  1  0
 26 25  1  0
 27 26  1  0
 27 28  1  0
 28 29  1  0
 29 30  1  1
 30 32  2  0
 30 31  1  0
M  END
$$$$
