YYP.pdb
     RDKit          3D

 32 34  0  0  1  0  0  0  0  0999 V2000
    9.2462  -13.1414   16.2694 O   0  0  0  0  0  0  0  0  0  0  0  0
    8.5286  -13.5418   17.3970 C   0  0  0  0  0  0  0  0  0  0  0  0
    8.7184  -14.8231   17.9014 C   0  0  0  0  0  0  0  0  0  0  0  0
    8.0145  -15.2338   19.0213 C   0  0  0  0  0  0  0  0  0  0  0  0
    7.1171  -14.3960   19.6601 C   0  0  0  0  0  0  0  0  0  0  0  0
    6.3727  -14.8517   20.8584 C   0  0  0  0  0  0  0  0  0  0  0  0
    6.7319  -16.2924   21.2001 C   0  0  2  0  0  0  0  0  0  0  0  0
    5.7020  -17.1052   20.6209 N   0  0  0  0  0  0  0  0  0  0  0  0
    6.7440  -16.4615   22.6974 C   0  0  0  0  0  0  0  0  0  0  0  0
    5.6296  -16.7155   23.2007 O   0  0  0  0  0  0  0  0  0  0  0  0
    6.9538  -13.1232   19.1267 C   0  0  0  0  0  0  0  0  0  0  0  0
    7.6505  -12.6931   18.0029 C   0  0  0  0  0  0  0  0  0  0  0  0
    9.1842  -18.2430   30.7839 O   0  0  0  0  0  0  0  0  0  0  0  0
    9.1449  -18.0482   29.3848 C   0  0  0  0  0  0  0  0  0  0  0  0
    8.1482  -18.5974   28.6159 C   0  0  0  0  0  0  0  0  0  0  0  0
    8.1552  -18.3772   27.2457 C   0  0  0  0  0  0  0  0  0  0  0  0
    9.1115  -17.6362   26.6199 C   0  0  0  0  0  0  0  0  0  0  0  0
    9.0270  -17.4954   25.1538 C   0  0  0  0  0  0  0  0  0  0  0  0
    8.0348  -16.3249   24.8136 C   0  0  2  0  0  0  0  0  0  0  0  0
    7.9524  -16.3291   23.4023 N   0  0  0  0  0  0  0  0  0  0  0  0
    8.4802  -15.1360   25.4581 C   0  0  0  0  0  0  0  0  0  0  0  0
    9.7311  -14.8155   25.2717 O   0  0  0  0  0  0  0  0  0  0  0  0
   10.1059  -17.0892   27.3764 C   0  0  0  0  0  0  0  0  0  0  0  0
   10.1161  -17.3004   28.7673 C   0  0  0  0  0  0  0  0  0  0  0  0
    7.7564  -14.2434   26.2677 N   0  0  0  0  0  0  0  0  0  0  0  0
    6.3686  -14.3060   26.7068 C   0  0  0  0  0  0  0  0  0  0  0  0
    5.9708  -12.8262   26.8162 C   0  0  0  0  0  0  0  0  0  0  0  0
    7.2131  -12.2720   27.4781 C   0  0  0  0  0  0  0  0  0  0  0  0
    8.2962  -12.9712   26.7711 C   0  0  1  0  0  0  0  0  0  0  0  0
    9.5086  -13.1852   27.6075 C   0  0  0  0  0  0  0  0  0  0  0  0
   10.2694  -12.0640   27.9070 O   0  0  0  0  0  0  0  0  0  0  0  0
    9.8880  -14.2887   28.0525 O   0  0  0  0  0  0  0  0  0  0  0  0
  2  1  1  0
  3  2  2  0
  4  3  1  0
  5 11  1  0
  5  4  2  0
  6  5  1  0
  7  9  1  0
  7  6  1  0
  7  8  1  6
  9 20  1  0
  9 10  2  0
 11 12  2  0
 12  2  1  0
 13 14  1  0
 14 24  2  0
 15 16  2  0
 15 14  1  0
 16 17  1  0
 17 18  1  0
 17 23  2  0
 19 18  1  6
 20 19  1  0
 21 19  1  0
 22 21  2  0
 24 23  1  0
 25 21  1  0
 25 29  1  0
 26 25  1  0
 27 26  1  0
 27 28  1  0
 28 29  1  0
 29 30  1  1
 30 32  2  0
 30 31  1  0
M  END
$$$$
