YYP.pdb
     RDKit          3D

 32 34  0  0  1  0  0  0  0  0999 V2000
    9.2527  -16.0028   14.0646 O   0  0  0  0  0  0  0  0  0  0  0  0
    9.1187  -15.4852   15.3534 C   0  0  0  0  0  0  0  0  0  0  0  0
    7.8686  -15.4942   15.9608 C   0  0  0  0  0  0  0  0  0  0  0  0
    7.7208  -14.9856   17.2405 C   0  0  0  0  0  0  0  0  0  0  0  0
    8.7941  -14.4625   17.9403 C   0  0  0  0  0  0  0  0  0  0  0  0
    8.6181  -13.9230   19.3098 C   0  0  0  0  0  0  0  0  0  0  0  0
    9.3325  -14.8003   20.3304 C   0  0  2  0  0  0  0  0  0  0  0  0
    8.8408  -16.1313   20.1214 N   0  0  0  0  0  0  0  0  0  0  0  0
    8.9852  -14.3325   21.7200 C   0  0  0  0  0  0  0  0  0  0  0  0
    8.2639  -13.3137   21.7602 O   0  0  0  0  0  0  0  0  0  0  0  0
   10.0276  -14.4702   17.3004 C   0  0  0  0  0  0  0  0  0  0  0  0
   10.1956  -14.9754   16.0159 C   0  0  0  0  0  0  0  0  0  0  0  0
    5.6253  -11.1547   28.1216 O   0  0  0  0  0  0  0  0  0  0  0  0
    6.1042  -12.0553   27.1435 C   0  0  0  0  0  0  0  0  0  0  0  0
    5.9201  -13.4103   27.2705 C   0  0  0  0  0  0  0  0  0  0  0  0
    6.4107  -14.2526   26.2826 C   0  0  0  0  0  0  0  0  0  0  0  0
    7.0725  -13.7968   25.1828 C   0  0  0  0  0  0  0  0  0  0  0  0
    7.5705  -14.7922   24.2145 C   0  0  0  0  0  0  0  0  0  0  0  0
    9.1396  -14.7131   24.1684 C   0  0  2  0  0  0  0  0  0  0  0  0
    9.4717  -15.0385   22.8333 N   0  0  0  0  0  0  0  0  0  0  0  0
    9.6765  -15.5201   25.2112 C   0  0  0  0  0  0  0  0  0  0  0  0
    9.7978  -16.7924   24.9487 O   0  0  0  0  0  0  0  0  0  0  0  0
    7.2612  -12.4525   25.0506 C   0  0  0  0  0  0  0  0  0  0  0  0
    6.7708  -11.5820   26.0411 C   0  0  0  0  0  0  0  0  0  0  0  0
   10.1077  -15.1382   26.4935 N   0  0  0  0  0  0  0  0  0  0  0  0
   10.0587  -13.8325   27.1381 C   0  0  0  0  0  0  0  0  0  0  0  0
   11.2940  -13.8482   28.0511 C   0  0  0  0  0  0  0  0  0  0  0  0
   11.1878  -15.2511   28.6071 C   0  0  0  0  0  0  0  0  0  0  0  0
   10.8008  -16.0387   27.4274 C   0  0  1  0  0  0  0  0  0  0  0  0
    9.9702  -17.2292   27.7560 C   0  0  0  0  0  0  0  0  0  0  0  0
   10.6290  -18.3219   28.3014 O   0  0  0  0  0  0  0  0  0  0  0  0
    8.7374  -17.3160   27.5764 O   0  0  0  0  0  0  0  0  0  0  0  0
  2  1  1  0
  3  2  2  0
  4  3  1  0
  5 11  1  0
  5  4  2  0
  6  5  1  0
  7  9  1  0
  7  6  1  0
  7  8  1  1
  9 20  1  0
  9 10  2  0
 11 12  2  0
 12  2  1  0
 13 14  1  0
 14 24  2  0
 15 16  2  0
 15 14  1  0
 16 17  1  0
 17 18  1  0
 17 23  2  0
 19 18  1  6
 20 19  1  0
 21 19  1  0
 22 21  2  0
 24 23  1  0
 25 21  1  0
 25 29  1  0
 26 25  1  0
 27 26  1  0
 27 28  1  0
 28 29  1  0
 29 30  1  1
 30 32  2  0
 30 31  1  0
M  END
$$$$
