YYP.pdb
     RDKit          3D

 32 34  0  0  1  0  0  0  0  0999 V2000
    9.1769  -12.0166   19.2913 O   0  0  0  0  0  0  0  0  0  0  0  0
    8.3681  -13.0945   19.6528 C   0  0  0  0  0  0  0  0  0  0  0  0
    7.4484  -12.9361   20.6830 C   0  0  0  0  0  0  0  0  0  0  0  0
    6.6374  -13.9966   21.0515 C   0  0  0  0  0  0  0  0  0  0  0  0
    6.7170  -15.2238   20.4166 C   0  0  0  0  0  0  0  0  0  0  0  0
    5.8405  -16.3481   20.8233 C   0  0  0  0  0  0  0  0  0  0  0  0
    6.6283  -17.3878   21.6106 C   0  0  2  0  0  0  0  0  0  0  0  0
    5.9956  -18.6474   21.3461 N   0  0  0  0  0  0  0  0  0  0  0  0
    6.5475  -17.0666   23.0806 C   0  0  0  0  0  0  0  0  0  0  0  0
    5.3955  -17.1153   23.5606 O   0  0  0  0  0  0  0  0  0  0  0  0
    7.6483  -15.3441   19.3922 C   0  0  0  0  0  0  0  0  0  0  0  0
    8.4718  -14.2915   19.0087 C   0  0  0  0  0  0  0  0  0  0  0  0
    5.9324  -22.2461   26.6723 O   0  0  0  0  0  0  0  0  0  0  0  0
    6.6054  -21.0194   26.4737 C   0  0  0  0  0  0  0  0  0  0  0  0
    7.3300  -20.7802   25.3319 C   0  0  0  0  0  0  0  0  0  0  0  0
    7.9736  -19.5594   25.1855 C   0  0  0  0  0  0  0  0  0  0  0  0
    7.9215  -18.5774   26.1280 C   0  0  0  0  0  0  0  0  0  0  0  0
    8.6694  -17.3322   25.8703 C   0  0  0  0  0  0  0  0  0  0  0  0
    7.7230  -16.3158   25.1343 C   0  0  2  0  0  0  0  0  0  0  0  0
    7.7189  -16.7468   23.7879 N   0  0  0  0  0  0  0  0  0  0  0  0
    8.1575  -14.9893   25.4148 C   0  0  0  0  0  0  0  0  0  0  0  0
    9.3010  -14.6371   24.8946 O   0  0  0  0  0  0  0  0  0  0  0  0
    7.2056  -18.8083   27.2657 C   0  0  0  0  0  0  0  0  0  0  0  0
    6.5455  -20.0395   27.4327 C   0  0  0  0  0  0  0  0  0  0  0  0
    7.5210  -13.9907   26.1724 N   0  0  0  0  0  0  0  0  0  0  0  0
    6.1207  -13.8681   26.5556 C   0  0  0  0  0  0  0  0  0  0  0  0
    5.9071  -12.3480   26.6130 C   0  0  0  0  0  0  0  0  0  0  0  0
    7.1831  -11.9330   27.3117 C   0  0  0  0  0  0  0  0  0  0  0  0
    8.1962  -12.7812   26.6667 C   0  0  1  0  0  0  0  0  0  0  0  0
    9.3399  -13.1194   27.5569 C   0  0  0  0  0  0  0  0  0  0  0  0
   10.2193  -12.0914   27.8657 O   0  0  0  0  0  0  0  0  0  0  0  0
    9.5645  -14.2493   28.0391 O   0  0  0  0  0  0  0  0  0  0  0  0
  2  1  1  0
  3  2  2  0
  4  3  1  0
  5 11  1  0
  5  4  2  0
  6  5  1  0
  7  9  1  0
  7  6  1  0
  7  8  1  1
  9 20  1  0
  9 10  2  0
 11 12  2  0
 12  2  1  0
 13 14  1  0
 14 24  2  0
 15 16  2  0
 15 14  1  0
 16 17  1  0
 17 18  1  0
 17 23  2  0
 19 18  1  1
 20 19  1  0
 21 19  1  0
 22 21  2  0
 24 23  1  0
 25 21  1  0
 25 29  1  0
 26 25  1  0
 27 26  1  0
 27 28  1  0
 28 29  1  0
 29 30  1  1
 30 32  2  0
 30 31  1  0
M  END
$$$$
