YYP.pdb
     RDKit          3D

 32 34  0  0  1  0  0  0  0  0999 V2000
   10.2928  -12.7408   17.9036 O   0  0  0  0  0  0  0  0  0  0  0  0
    9.3361  -13.3994   18.6768 C   0  0  0  0  0  0  0  0  0  0  0  0
    8.1219  -12.7727   18.9313 C   0  0  0  0  0  0  0  0  0  0  0  0
    7.1619  -13.4151   19.6954 C   0  0  0  0  0  0  0  0  0  0  0  0
    7.3789  -14.6776   20.2192 C   0  0  0  0  0  0  0  0  0  0  0  0
    6.3398  -15.3511   21.0343 C   0  0  0  0  0  0  0  0  0  0  0  0
    6.8061  -16.7366   21.4637 C   0  0  2  0  0  0  0  0  0  0  0  0
    5.8770  -17.6637   20.8857 N   0  0  0  0  0  0  0  0  0  0  0  0
    6.7657  -16.8326   22.9669 C   0  0  0  0  0  0  0  0  0  0  0  0
    5.6169  -16.8310   23.4571 O   0  0  0  0  0  0  0  0  0  0  0  0
    8.6045  -15.2719   19.9439 C   0  0  0  0  0  0  0  0  0  0  0  0
    9.5809  -14.6426   19.1798 C   0  0  0  0  0  0  0  0  0  0  0  0
    4.5816  -22.1780   24.0345 O   0  0  0  0  0  0  0  0  0  0  0  0
    5.5542  -21.2187   24.3964 C   0  0  0  0  0  0  0  0  0  0  0  0
    6.6317  -20.9549   23.5867 C   0  0  0  0  0  0  0  0  0  0  0  0
    7.5596  -20.0042   23.9881 C   0  0  0  0  0  0  0  0  0  0  0  0
    7.4532  -19.3134   25.1571 C   0  0  0  0  0  0  0  0  0  0  0  0
    8.5175  -18.3466   25.4876 C   0  0  0  0  0  0  0  0  0  0  0  0
    8.0281  -16.9033   25.1033 C   0  0  2  0  0  0  0  0  0  0  0  0
    7.9672  -16.9142   23.6910 N   0  0  0  0  0  0  0  0  0  0  0  0
    8.8706  -15.9439   25.7332 C   0  0  0  0  0  0  0  0  0  0  0  0
   10.1511  -16.0761   25.5207 O   0  0  0  0  0  0  0  0  0  0  0  0
    6.3871  -19.5713   25.9678 C   0  0  0  0  0  0  0  0  0  0  0  0
    5.4351  -20.5312   25.5783 C   0  0  0  0  0  0  0  0  0  0  0  0
    8.5172  -14.8575   26.5525 N   0  0  0  0  0  0  0  0  0  0  0  0
    7.2202  -14.2211   26.7409 C   0  0  0  0  0  0  0  0  0  0  0  0
    7.5889  -12.7587   27.0328 C   0  0  0  0  0  0  0  0  0  0  0  0
    8.7549  -12.9681   27.9737 C   0  0  0  0  0  0  0  0  0  0  0  0
    9.4820  -14.0811   27.3458 C   0  0  1  0  0  0  0  0  0  0  0  0
   10.2052  -14.9418   28.3212 C   0  0  0  0  0  0  0  0  0  0  0  0
   11.3343  -14.3999   28.9187 O   0  0  0  0  0  0  0  0  0  0  0  0
    9.8745  -16.1043   28.6358 O   0  0  0  0  0  0  0  0  0  0  0  0
  2  1  1  0
  3  2  2  0
  4  3  1  0
  5 11  1  0
  5  4  2  0
  6  5  1  0
  7  9  1  0
  7  6  1  0
  7  8  1  6
  9 20  1  0
  9 10  2  0
 11 12  2  0
 12  2  1  0
 13 14  1  0
 14 24  2  0
 15 16  2  0
 15 14  1  0
 16 17  1  0
 17 18  1  0
 17 23  2  0
 19 18  1  6
 20 19  1  0
 21 19  1  0
 22 21  2  0
 24 23  1  0
 25 21  1  0
 25 29  1  0
 26 25  1  0
 27 26  1  0
 27 28  1  0
 28 29  1  0
 29 30  1  1
 30 32  2  0
 30 31  1  0
M  END
$$$$
