YYP.pdb
     RDKit          3D

 32 34  0  0  1  0  0  0  0  0999 V2000
   11.3839  -15.3238   31.1395 O   0  0  0  0  0  0  0  0  0  0  0  0
   11.0572  -16.1290   30.0479 C   0  0  0  0  0  0  0  0  0  0  0  0
   10.5364  -15.5390   28.9022 C   0  0  0  0  0  0  0  0  0  0  0  0
   10.2094  -16.3254   27.8101 C   0  0  0  0  0  0  0  0  0  0  0  0
   10.3880  -17.6976   27.8263 C   0  0  0  0  0  0  0  0  0  0  0  0
   10.0334  -18.5242   26.6479 C   0  0  0  0  0  0  0  0  0  0  0  0
    8.5577  -18.9023   26.6795 C   0  0  2  0  0  0  0  0  0  0  0  0
    8.5176  -20.3329   26.7722 N   0  0  0  0  0  0  0  0  0  0  0  0
    7.8991  -18.4477   25.4027 C   0  0  0  0  0  0  0  0  0  0  0  0
    7.9858  -19.2579   24.4562 O   0  0  0  0  0  0  0  0  0  0  0  0
   10.9103  -18.2513   28.9890 C   0  0  0  0  0  0  0  0  0  0  0  0
   11.2437  -17.4787   30.0958 C   0  0  0  0  0  0  0  0  0  0  0  0
    8.9885  -11.1767   26.7972 O   0  0  0  0  0  0  0  0  0  0  0  0
    8.2243  -12.2367   26.2590 C   0  0  0  0  0  0  0  0  0  0  0  0
    7.6527  -12.1433   25.0137 C   0  0  0  0  0  0  0  0  0  0  0  0
    6.9106  -13.2119   24.5310 C   0  0  0  0  0  0  0  0  0  0  0  0
    6.7191  -14.3599   25.2386 C   0  0  0  0  0  0  0  0  0  0  0  0
    5.8878  -15.4160   24.6302 C   0  0  0  0  0  0  0  0  0  0  0  0
    6.8229  -16.5882   24.1590 C   0  0  2  0  0  0  0  0  0  0  0  0
    7.2578  -17.1981   25.3578 N   0  0  0  0  0  0  0  0  0  0  0  0
    7.8083  -16.0688   23.2722 C   0  0  0  0  0  0  0  0  0  0  0  0
    9.0475  -16.1689   23.6680 O   0  0  0  0  0  0  0  0  0  0  0  0
    7.2817  -14.4594   26.4771 C   0  0  0  0  0  0  0  0  0  0  0  0
    8.0382  -13.3870   26.9840 C   0  0  0  0  0  0  0  0  0  0  0  0
    7.6373  -15.4653   22.0141 N   0  0  0  0  0  0  0  0  0  0  0  0
    6.4537  -14.8411   21.4379 C   0  0  0  0  0  0  0  0  0  0  0  0
    6.6112  -15.1168   19.9349 C   0  0  0  0  0  0  0  0  0  0  0  0
    8.0862  -14.8236   19.7706 C   0  0  0  0  0  0  0  0  0  0  0  0
    8.6739  -15.4361   20.9712 C   0  0  1  0  0  0  0  0  0  0  0  0
    9.9059  -14.7484   21.4448 C   0  0  0  0  0  0  0  0  0  0  0  0
   11.0072  -14.7840   20.6014 O   0  0  0  0  0  0  0  0  0  0  0  0
   10.0199  -14.1501   22.5351 O   0  0  0  0  0  0  0  0  0  0  0  0
  2  1  1  0
  3  2  2  0
  4  3  1  0
  5 11  1  0
  5  4  2  0
  6  5  1  0
  7  9  1  0
  7  6  1  0
  7  8  1  6
  9 20  1  0
  9 10  2  0
 11 12  2  0
 12  2  1  0
 13 14  1  0
 14 24  2  0
 15 16  2  0
 15 14  1  0
 16 17  1  0
 17 18  1  0
 17 23  2  0
 19 18  1  1
 20 19  1  0
 21 19  1  0
 22 21  2  0
 24 23  1  0
 25 21  1  0
 25 29  1  0
 26 25  1  0
 27 26  1  0
 27 28  1  0
 28 29  1  0
 29 30  1  1
 30 32  2  0
 30 31  1  0
M  END
$$$$
