DIA.pdb
     RDKit          3D

 22 21  0  0  1  0  0  0  0  0999 V2000
    9.9553  -17.6733   16.4487 N   0  0  0  0  0  0  0  0  0  0  0  0
    9.3282  -18.1116   17.6780 C   0  0  1  0  0  0  0  0  0  0  0  0
    9.7955  -19.5211   17.9407 C   0  0  0  0  0  0  0  0  0  0  0  0
    8.8793  -20.4498   17.2417 C   0  0  0  0  0  0  0  0  0  0  0  0
    7.6573  -20.4289   17.5142 O   0  0  0  0  0  0  0  0  0  0  0  0
    9.6733  -17.1795   18.7534 C   0  0  0  0  0  0  0  0  0  0  0  0
   10.8646  -16.8137   18.8968 O   0  0  0  0  0  0  0  0  0  0  0  0
    9.3320  -21.3433   16.2934 O   0  0  0  0  0  0  0  0  0  0  0  0
    6.8632  -12.6851   19.9460 C   0  0  0  0  0  0  0  0  0  0  0  0
    8.0482  -13.6321   19.6980 C   0  0  0  0  0  0  0  0  0  0  0  0
    8.1180  -14.5794   20.8338 C   0  0  2  0  0  0  0  0  0  0  0  0
    8.4113  -13.8051   22.1027 C   0  0  0  0  0  0  0  0  0  0  0  0
    9.1256  -15.6781   20.7151 C   0  0  2  0  0  0  0  0  0  0  0  0
    8.7290  -16.6421   19.6754 N   0  0  0  0  0  0  0  0  0  0  0  0
    9.4234  -16.3695   21.9842 C   0  0  0  0  0  0  0  0  0  0  0  0
    8.5328  -17.0520   22.5356 O   0  0  0  0  0  0  0  0  0  0  0  0
   12.4878  -17.0468   24.1206 C   0  0  0  0  0  0  0  0  0  0  0  0
   11.0131  -16.9626   23.8583 C   0  0  2  0  0  0  0  0  0  0  0  0
   10.6861  -16.3029   22.6265 N   0  0  0  0  0  0  0  0  0  0  0  0
   10.3756  -16.3344   25.0374 C   0  0  0  0  0  0  0  0  0  0  0  0
   10.4586  -17.0038   26.2505 O   0  0  0  0  0  0  0  0  0  0  0  0
    9.7669  -15.2418   25.0170 O   0  0  0  0  0  0  0  0  0  0  0  0
  2  1  1  6
  3  4  1  0
  3  2  1  0
  4  8  1  0
  5  4  2  0
  6  2  1  0
  6  7  2  0
  9 10  1  0
 10 11  1  0
 11 12  1  1
 11 13  1  0
 13 14  1  6
 14  6  1  0
 15 13  1  0
 16 15  2  0
 18 19  1  0
 18 17  1  1
 19 15  1  0
 20 18  1  0
 21 20  1  0
 22 20  2  0
M  END
$$$$
