DIA.pdb
     RDKit          3D

 22 21  0  0  1  0  0  0  0  0999 V2000
    9.4239  -15.4995   20.2363 N   0  0  0  0  0  0  0  0  0  0  0  0
    8.5979  -16.0981   21.2638 C   0  0  1  0  0  0  0  0  0  0  0  0
    8.7406  -17.5940   21.1375 C   0  0  0  0  0  0  0  0  0  0  0  0
    8.1344  -18.0093   19.8527 C   0  0  0  0  0  0  0  0  0  0  0  0
    6.9285  -18.3453   19.8222 O   0  0  0  0  0  0  0  0  0  0  0  0
    9.0119  -15.5876   22.5724 C   0  0  0  0  0  0  0  0  0  0  0  0
   10.2332  -15.5085   22.8478 O   0  0  0  0  0  0  0  0  0  0  0  0
    8.8607  -18.0381   18.6804 O   0  0  0  0  0  0  0  0  0  0  0  0
    6.9751  -11.9179   27.0408 C   0  0  0  0  0  0  0  0  0  0  0  0
    8.0524  -12.9529   26.6792 C   0  0  0  0  0  0  0  0  0  0  0  0
    7.6851  -13.5548   25.3772 C   0  0  2  0  0  0  0  0  0  0  0  0
    6.2747  -14.1009   25.4683 C   0  0  0  0  0  0  0  0  0  0  0  0
    8.5769  -14.6480   24.8812 C   0  0  2  0  0  0  0  0  0  0  0  0
    8.1042  -15.1618   23.5851 N   0  0  0  0  0  0  0  0  0  0  0  0
    8.7772  -15.7513   25.8404 C   0  0  0  0  0  0  0  0  0  0  0  0
    7.8151  -16.4949   26.1309 O   0  0  0  0  0  0  0  0  0  0  0  0
   11.5475  -17.8749   26.9838 C   0  0  0  0  0  0  0  0  0  0  0  0
   10.2817  -17.1432   27.3202 C   0  0  2  0  0  0  0  0  0  0  0  0
   10.0222  -16.0217   26.4634 N   0  0  0  0  0  0  0  0  0  0  0  0
   10.3350  -16.7757   28.7532 C   0  0  0  0  0  0  0  0  0  0  0  0
   10.5083  -17.7974   29.6766 O   0  0  0  0  0  0  0  0  0  0  0  0
   10.2346  -15.6080   29.1905 O   0  0  0  0  0  0  0  0  0  0  0  0
  2  1  1  6
  3  4  1  0
  3  2  1  0
  4  8  1  0
  5  4  2  0
  6  2  1  0
  6  7  2  0
  9 10  1  0
 10 11  1  0
 11 12  1  1
 11 13  1  0
 13 14  1  6
 14  6  1  0
 15 13  1  0
 16 15  2  0
 18 19  1  0
 18 17  1  6
 19 15  1  0
 20 18  1  0
 21 20  1  0
 22 20  2  0
M  END
$$$$
