DIA.pdb
     RDKit          3D

 22 21  0  0  1  0  0  0  0  0999 V2000
    8.6332  -16.9524   21.7328 N   0  0  0  0  0  0  0  0  0  0  0  0
   10.0040  -16.7239   22.1391 C   0  0  1  0  0  0  0  0  0  0  0  0
   10.7655  -16.2812   20.9150 C   0  0  0  0  0  0  0  0  0  0  0  0
   10.7885  -17.4058   19.9531 C   0  0  0  0  0  0  0  0  0  0  0  0
   10.0910  -17.3411   18.9151 O   0  0  0  0  0  0  0  0  0  0  0  0
   10.0274  -15.7375   23.2211 C   0  0  0  0  0  0  0  0  0  0  0  0
   11.0723  -15.0766   23.4336 O   0  0  0  0  0  0  0  0  0  0  0  0
   11.5590  -18.5300   20.1653 O   0  0  0  0  0  0  0  0  0  0  0  0
    6.3006  -11.9889   26.2685 C   0  0  0  0  0  0  0  0  0  0  0  0
    7.7262  -12.5613   26.2151 C   0  0  0  0  0  0  0  0  0  0  0  0
    7.7264  -13.6911   25.2582 C   0  0  2  0  0  0  0  0  0  0  0  0
    6.6185  -14.6540   25.6338 C   0  0  0  0  0  0  0  0  0  0  0  0
    9.0012  -14.4659   25.1531 C   0  0  2  0  0  0  0  0  0  0  0  0
    8.9195  -15.4649   24.0748 N   0  0  0  0  0  0  0  0  0  0  0  0
    9.4375  -15.0926   26.4158 C   0  0  0  0  0  0  0  0  0  0  0  0
    8.7029  -15.9415   26.9661 O   0  0  0  0  0  0  0  0  0  0  0  0
   10.3465  -14.0006   29.3597 C   0  0  0  0  0  0  0  0  0  0  0  0
   10.9513  -15.0191   28.4391 C   0  0  2  0  0  0  0  0  0  0  0  0
   10.6656  -14.7813   27.0531 N   0  0  0  0  0  0  0  0  0  0  0  0
   10.5205  -16.3594   28.8964 C   0  0  0  0  0  0  0  0  0  0  0  0
   10.9460  -16.7833   30.1478 O   0  0  0  0  0  0  0  0  0  0  0  0
    9.7993  -17.1374   28.2335 O   0  0  0  0  0  0  0  0  0  0  0  0
  2  1  1  6
  3  4  1  0
  3  2  1  0
  4  8  1  0
  5  4  2  0
  6  2  1  0
  6  7  2  0
  9 10  1  0
 10 11  1  0
 11 12  1  1
 11 13  1  0
 13 14  1  6
 14  6  1  0
 15 13  1  0
 16 15  2  0
 18 19  1  0
 18 17  1  1
 19 15  1  0
 20 18  1  0
 21 20  1  0
 22 20  2  0
M  END
$$$$
