DIA.pdb
     RDKit          3D

 22 21  0  0  1  0  0  0  0  0999 V2000
    7.7765  -15.3097   20.5406 N   0  0  0  0  0  0  0  0  0  0  0  0
    7.2146  -15.8574   21.7575 C   0  0  1  0  0  0  0  0  0  0  0  0
    7.2617  -17.3597   21.6353 C   0  0  0  0  0  0  0  0  0  0  0  0
    6.3683  -17.7616   20.5258 C   0  0  0  0  0  0  0  0  0  0  0  0
    6.1148  -18.9751   20.3496 O   0  0  0  0  0  0  0  0  0  0  0  0
    7.9660  -15.3482   22.9065 C   0  0  0  0  0  0  0  0  0  0  0  0
    9.2099  -15.2103   22.8207 O   0  0  0  0  0  0  0  0  0  0  0  0
    5.8026  -16.8355   19.6745 O   0  0  0  0  0  0  0  0  0  0  0  0
    5.8352  -11.6631   26.3651 C   0  0  0  0  0  0  0  0  0  0  0  0
    6.7975  -12.3719   25.3984 C   0  0  0  0  0  0  0  0  0  0  0  0
    7.3863  -13.5288   26.1107 C   0  0  2  0  0  0  0  0  0  0  0  0
    8.2823  -13.0186   27.2209 C   0  0  0  0  0  0  0  0  0  0  0  0
    8.1775  -14.4842   25.2753 C   0  0  2  0  0  0  0  0  0  0  0  0
    7.3719  -14.9874   24.1505 N   0  0  0  0  0  0  0  0  0  0  0  0
    8.7763  -15.6008   26.0315 C   0  0  0  0  0  0  0  0  0  0  0  0
    8.0378  -16.3551   26.7013 O   0  0  0  0  0  0  0  0  0  0  0  0
   12.1940  -17.2403   26.2818 C   0  0  0  0  0  0  0  0  0  0  0  0
   10.7791  -16.9860   26.7107 C   0  0  2  0  0  0  0  0  0  0  0  0
   10.1682  -15.8727   26.0423 N   0  0  0  0  0  0  0  0  0  0  0  0
   10.7668  -16.8526   28.1849 C   0  0  0  0  0  0  0  0  0  0  0  0
   11.0635  -17.9798   28.9385 O   0  0  0  0  0  0  0  0  0  0  0  0
   10.5076  -15.7944   28.7995 O   0  0  0  0  0  0  0  0  0  0  0  0
  2  1  1  6
  3  4  1  0
  3  2  1  0
  4  8  1  0
  5  4  2  0
  6  2  1  0
  6  7  2  0
  9 10  1  0
 10 11  1  0
 11 12  1  1
 11 13  1  0
 13 14  1  6
 14  6  1  0
 15 13  1  0
 16 15  2  0
 18 19  1  0
 18 17  1  6
 19 15  1  0
 20 18  1  0
 21 20  1  0
 22 20  2  0
M  END
$$$$
