DIA.pdb
     RDKit          3D

 22 21  0  0  1  0  0  0  0  0999 V2000
    9.0320  -15.4632   20.0650 N   0  0  0  0  0  0  0  0  0  0  0  0
    8.2023  -15.9885   21.1290 C   0  0  1  0  0  0  0  0  0  0  0  0
    8.2389  -17.4924   21.0238 C   0  0  0  0  0  0  0  0  0  0  0  0
    7.4921  -17.8893   19.8092 C   0  0  0  0  0  0  0  0  0  0  0  0
    8.1237  -18.2377   18.7857 O   0  0  0  0  0  0  0  0  0  0  0  0
    8.6935  -15.4879   22.4144 C   0  0  0  0  0  0  0  0  0  0  0  0
    9.9291  -15.4026   22.6140 O   0  0  0  0  0  0  0  0  0  0  0  0
    6.1133  -17.8874   19.7691 O   0  0  0  0  0  0  0  0  0  0  0  0
    7.1901  -11.7371   26.9711 C   0  0  0  0  0  0  0  0  0  0  0  0
    8.1230  -12.8969   26.5872 C   0  0  0  0  0  0  0  0  0  0  0  0
    7.6469  -13.4562   25.3016 C   0  0  2  0  0  0  0  0  0  0  0  0
    6.1894  -13.8450   25.4440 C   0  0  0  0  0  0  0  0  0  0  0  0
    8.3962  -14.6407   24.7801 C   0  0  2  0  0  0  0  0  0  0  0  0
    7.8479  -15.0789   23.4860 N   0  0  0  0  0  0  0  0  0  0  0  0
    8.4783  -15.7718   25.7241 C   0  0  0  0  0  0  0  0  0  0  0  0
    7.4642  -16.4725   25.9328 O   0  0  0  0  0  0  0  0  0  0  0  0
   10.8130  -18.2816   26.5737 C   0  0  0  0  0  0  0  0  0  0  0  0
    9.8432  -17.3160   27.1882 C   0  0  2  0  0  0  0  0  0  0  0  0
    9.6642  -16.1162   26.4215 N   0  0  0  0  0  0  0  0  0  0  0  0
   10.2801  -17.0539   28.5781 C   0  0  0  0  0  0  0  0  0  0  0  0
   10.3925  -18.1392   29.4360 O   0  0  0  0  0  0  0  0  0  0  0  0
   10.5554  -15.9219   29.0338 O   0  0  0  0  0  0  0  0  0  0  0  0
  2  1  1  6
  3  4  1  0
  3  2  1  0
  4  8  1  0
  5  4  2  0
  6  2  1  0
  6  7  2  0
  9 10  1  0
 10 11  1  0
 11 12  1  1
 11 13  1  0
 13 14  1  6
 14  6  1  0
 15 13  1  0
 16 15  2  0
 18 19  1  0
 18 17  1  6
 19 15  1  0
 20 18  1  0
 21 20  1  0
 22 20  2  0
M  END
$$$$
