DIA.pdb
     RDKit          3D

 22 21  0  0  1  0  0  0  0  0999 V2000
   11.7471  -17.4876   17.3055 N   0  0  0  0  0  0  0  0  0  0  0  0
   10.7130  -17.9266   18.2189 C   0  0  1  0  0  0  0  0  0  0  0  0
   11.0452  -19.3404   18.6247 C   0  0  0  0  0  0  0  0  0  0  0  0
   10.9044  -20.2084   17.4342 C   0  0  0  0  0  0  0  0  0  0  0  0
    9.8535  -20.8710   17.2774 O   0  0  0  0  0  0  0  0  0  0  0  0
   10.6472  -17.0015   19.3521 C   0  0  0  0  0  0  0  0  0  0  0  0
   11.7092  -16.5624   19.8551 O   0  0  0  0  0  0  0  0  0  0  0  0
   11.9008  -20.3109   16.4858 O   0  0  0  0  0  0  0  0  0  0  0  0
    6.9421  -12.9733   19.8534 C   0  0  0  0  0  0  0  0  0  0  0  0
    8.2810  -13.7283   19.8559 C   0  0  0  0  0  0  0  0  0  0  0  0
    8.2651  -14.6773   20.9924 C   0  0  2  0  0  0  0  0  0  0  0  0
    8.1923  -13.8931   22.2868 C   0  0  0  0  0  0  0  0  0  0  0  0
    9.4242  -15.6180   21.0821 C   0  0  2  0  0  0  0  0  0  0  0  0
    9.4314  -16.5502   19.9427 N   0  0  0  0  0  0  0  0  0  0  0  0
    9.5145  -16.3513   22.3594 C   0  0  0  0  0  0  0  0  0  0  0  0
    8.6581  -17.2208   22.6303 O   0  0  0  0  0  0  0  0  0  0  0  0
   12.0502  -16.7148   25.1565 C   0  0  0  0  0  0  0  0  0  0  0  0
   10.6887  -16.8520   24.5415 C   0  0  2  0  0  0  0  0  0  0  0  0
   10.5365  -16.1218   23.3155 N   0  0  0  0  0  0  0  0  0  0  0  0
    9.6866  -16.4783   25.5650 C   0  0  0  0  0  0  0  0  0  0  0  0
    9.5940  -17.2727   26.6994 O   0  0  0  0  0  0  0  0  0  0  0  0
    8.9169  -15.4960   25.4790 O   0  0  0  0  0  0  0  0  0  0  0  0
  2  1  1  6
  3  4  1  0
  3  2  1  0
  4  8  1  0
  5  4  2  0
  6  2  1  0
  6  7  2  0
  9 10  1  0
 10 11  1  0
 11 12  1  1
 11 13  1  0
 13 14  1  6
 14  6  1  0
 15 13  1  0
 16 15  2  0
 18 19  1  0
 18 17  1  1
 19 15  1  0
 20 18  1  0
 21 20  1  0
 22 20  2  0
M  END
$$$$
