DIA.pdb
     RDKit          3D

 22 21  0  0  1  0  0  0  0  0999 V2000
    8.8022  -14.8862   20.2804 N   0  0  0  0  0  0  0  0  0  0  0  0
    8.2502  -15.7846   21.2726 C   0  0  1  0  0  0  0  0  0  0  0  0
    8.6329  -17.1864   20.8691 C   0  0  0  0  0  0  0  0  0  0  0  0
    7.9430  -17.5066   19.5995 C   0  0  0  0  0  0  0  0  0  0  0  0
    6.7067  -17.7054   19.6048 O   0  0  0  0  0  0  0  0  0  0  0  0
    8.7522  -15.4078   22.5956 C   0  0  0  0  0  0  0  0  0  0  0  0
    9.9805  -15.2120   22.7588 O   0  0  0  0  0  0  0  0  0  0  0  0
    8.6234  -17.5934   18.4028 O   0  0  0  0  0  0  0  0  0  0  0  0
    6.2352  -12.0112   26.0399 C   0  0  0  0  0  0  0  0  0  0  0  0
    7.3394  -12.7022   25.2238 C   0  0  0  0  0  0  0  0  0  0  0  0
    7.5971  -14.0250   25.8371 C   0  0  2  0  0  0  0  0  0  0  0  0
    8.1978  -13.8205   27.2129 C   0  0  0  0  0  0  0  0  0  0  0  0
    8.4926  -14.9444   25.0696 C   0  0  2  0  0  0  0  0  0  0  0  0
    7.9252  -15.2424   23.7442 N   0  0  0  0  0  0  0  0  0  0  0  0
    8.8409  -16.1887   25.7821 C   0  0  0  0  0  0  0  0  0  0  0  0
    7.9277  -16.9254   26.2139 O   0  0  0  0  0  0  0  0  0  0  0  0
   11.9126  -18.3376   26.1469 C   0  0  0  0  0  0  0  0  0  0  0  0
   10.5557  -17.8663   26.5797 C   0  0  2  0  0  0  0  0  0  0  0  0
   10.1774  -16.6049   26.0094 N   0  0  0  0  0  0  0  0  0  0  0  0
   10.5249  -17.8640   28.0597 C   0  0  0  0  0  0  0  0  0  0  0  0
   10.7208  -19.0732   28.7123 O   0  0  0  0  0  0  0  0  0  0  0  0
   10.3344  -16.8477   28.7639 O   0  0  0  0  0  0  0  0  0  0  0  0
  2  1  1  6
  3  4  1  0
  3  2  1  0
  4  8  1  0
  5  4  2  0
  6  2  1  0
  6  7  2  0
  9 10  1  0
 10 11  1  0
 11 12  1  1
 11 13  1  0
 13 14  1  6
 14  6  1  0
 15 13  1  0
 16 15  2  0
 18 19  1  0
 18 17  1  1
 19 15  1  0
 20 18  1  0
 21 20  1  0
 22 20  2  0
M  END
$$$$
