RGV.pdb
     RDKit          3D

 23 22  0  0  1  0  0  0  0  0999 V2000
   30.6711  -24.4524  -16.0213 N   0  0  0  0  0  0  0  0  0  0  0  0
   30.6981  -24.2256  -17.4336 C   0  0  0  0  0  0  0  0  0  0  0  0
   31.5556  -24.8835  -18.1175 N   0  0  0  0  0  0  0  0  0  0  0  0
   29.7827  -23.2921  -17.9995 N   0  0  0  0  0  0  0  0  0  0  0  0
   28.7695  -22.7527  -17.1646 C   0  0  0  0  0  0  0  0  0  0  0  0
   27.5147  -23.5019  -16.9719 C   0  0  0  0  0  0  0  0  0  0  0  0
   26.4309  -23.3806  -17.9592 C   0  0  0  0  0  0  0  0  0  0  0  0
   25.4855  -22.2415  -17.8762 C   0  0  2  0  0  0  0  0  0  0  0  0
   26.0564  -20.9871  -18.2912 N   0  0  0  0  0  0  0  0  0  0  0  0
   25.0452  -22.0957  -16.4334 C   0  0  0  0  0  0  0  0  0  0  0  0
   24.5360  -23.0782  -15.8257 O   0  0  0  0  0  0  0  0  0  0  0  0
   31.7562  -24.7863  -19.1248 N   0  0  0  0  0  0  0  0  0  0  0  0
   25.2088  -20.8665  -15.7902 C   0  0  0  0  0  0  0  0  0  0  0  0
   24.9046  -20.6581  -14.3788 C   0  0  0  0  0  0  0  0  0  0  0  0
   23.4545  -20.7186  -14.1255 O   0  0  0  0  0  0  0  0  0  0  0  0
   22.6472  -20.8134  -15.0803 C   0  0  0  0  0  0  0  0  0  0  0  0
   19.8670  -20.9814  -10.6659 C   0  0  1  0  0  0  0  0  0  0  0  0
   21.3288  -20.7731  -10.9825 C   0  0  0  0  0  0  0  0  0  0  0  0
   21.7768  -19.4860  -10.3458 C   0  0  2  0  0  0  0  0  0  0  0  0
   21.5620  -20.7545  -12.4923 N   0  0  0  0  0  0  0  0  0  0  0  0
   22.9824  -20.6677  -12.7853 C   0  0  0  0  0  0  0  0  0  0  0  0
   20.9105  -19.5344  -12.9991 O   0  0  0  0  0  0  0  0  0  0  0  0
   19.6791  -19.5155  -13.1949 O   0  0  0  0  0  0  0  0  0  0  0  0
  2  1  1  0
  3  2  2  0
  4  2  1  0
  5  4  1  0
  6  5  1  0
  7  6  1  0
  8  7  1  0
  8 10  1  0
  8  9  1  1
 10 12  1  0
 11 10  2  0
 12 13  1  0
 13 14  1  0
 14 15  2  0
 14 20  1  0
 17 16  1  1
 17 19  1  0
 18 17  1  0
 19 21  1  0
 19 20  1  6
 21 22  2  0
 21 23  1  0
M  END
$$$$
