RGV.pdb
     RDKit          3D

 23 22  0  0  1  0  0  0  0  0999 V2000
   26.6545  -20.6186   -9.5952 N   0  0  0  0  0  0  0  0  0  0  0  0
   25.2789  -20.9159   -9.3381 C   0  0  0  0  0  0  0  0  0  0  0  0
   24.8120  -20.5893   -8.1929 N   0  0  0  0  0  0  0  0  0  0  0  0
   24.5092  -21.5515  -10.3545 N   0  0  0  0  0  0  0  0  0  0  0  0
   25.0214  -21.5631  -11.6781 C   0  0  0  0  0  0  0  0  0  0  0  0
   25.4842  -20.3029  -12.2867 C   0  0  0  0  0  0  0  0  0  0  0  0
   24.9731  -19.8955  -13.6046 C   0  0  0  0  0  0  0  0  0  0  0  0
   24.7379  -20.9199  -14.6503 C   0  0  2  0  0  0  0  0  0  0  0  0
   25.9434  -21.3792  -15.2888 N   0  0  0  0  0  0  0  0  0  0  0  0
   23.8507  -20.3119  -15.7179 C   0  0  0  0  0  0  0  0  0  0  0  0
   24.1299  -19.1797  -16.2021 O   0  0  0  0  0  0  0  0  0  0  0  0
   23.8536  -20.7437   -7.8438 N   0  0  0  0  0  0  0  0  0  0  0  0
   22.7266  -21.0166  -16.1549 C   0  0  0  0  0  0  0  0  0  0  0  0
   21.8213  -20.5158  -17.1833 C   0  0  0  0  0  0  0  0  0  0  0  0
   20.7850  -19.6401  -16.6089 O   0  0  0  0  0  0  0  0  0  0  0  0
   21.0564  -18.8823  -15.6474 C   0  0  0  0  0  0  0  0  0  0  0  0
   17.1065  -19.2128  -18.7462 C   0  0  1  0  0  0  0  0  0  0  0  0
   17.7004  -18.1350  -17.8709 C   0  0  0  0  0  0  0  0  0  0  0  0
   18.6093  -17.2824  -18.7132 C   0  0  1  0  0  0  0  0  0  0  0  0
   18.4519  -18.7455  -16.6890 N   0  0  0  0  0  0  0  0  0  0  0  0
   19.4738  -19.6655  -17.1582 C   0  0  0  0  0  0  0  0  0  0  0  0
   17.4597  -19.5123  -15.9161 O   0  0  0  0  0  0  0  0  0  0  0  0
   16.6173  -18.9196  -15.2132 O   0  0  0  0  0  0  0  0  0  0  0  0
  2  1  1  0
  3  2  2  0
  4  2  1  0
  5  4  1  0
  6  5  1  0
  7  6  1  0
  8  7  1  0
  8 10  1  0
  8  9  1  6
 10 12  1  0
 11 10  2  0
 12 13  1  0
 13 14  1  0
 14 15  2  0
 14 20  1  0
 17 16  1  6
 17 19  1  0
 18 17  1  0
 19 21  1  0
 19 20  1  6
 21 22  2  0
 21 23  1  0
M  END
$$$$
