RGV.pdb
     RDKit          3D

 23 22  0  0  1  0  0  0  0  0999 V2000
   20.4470  -19.9407  -12.7978 N   0  0  0  0  0  0  0  0  0  0  0  0
   20.6594  -20.9745  -13.7637 C   0  0  0  0  0  0  0  0  0  0  0  0
   20.7632  -20.6210  -14.9886 N   0  0  0  0  0  0  0  0  0  0  0  0
   20.7430  -22.3258  -13.3203 N   0  0  0  0  0  0  0  0  0  0  0  0
   20.3158  -22.6286  -12.0010 C   0  0  0  0  0  0  0  0  0  0  0  0
   18.9299  -23.0757  -11.7731 C   0  0  0  0  0  0  0  0  0  0  0  0
   18.5019  -23.4736  -10.4231 C   0  0  0  0  0  0  0  0  0  0  0  0
   18.7607  -24.8537   -9.9470 C   0  0  2  0  0  0  0  0  0  0  0  0
   18.7162  -25.8419  -10.9925 N   0  0  0  0  0  0  0  0  0  0  0  0
   17.6979  -25.2099   -8.9270 C   0  0  0  0  0  0  0  0  0  0  0  0
   16.5010  -25.3757   -9.2932 O   0  0  0  0  0  0  0  0  0  0  0  0
   20.8952  -21.2367  -15.8057 N   0  0  0  0  0  0  0  0  0  0  0  0
   18.0588  -25.3500   -7.5849 C   0  0  0  0  0  0  0  0  0  0  0  0
   17.0952  -25.6224   -6.5241 C   0  0  0  0  0  0  0  0  0  0  0  0
   17.7525  -25.7097   -5.2085 O   0  0  0  0  0  0  0  0  0  0  0  0
   18.9914  -25.5452   -5.1061 C   0  0  0  0  0  0  0  0  0  0  0  0
   15.4315  -27.0629   -1.8942 C   0  0  1  0  0  0  0  0  0  0  0  0
   16.5140  -26.0385   -1.6507 C   0  0  0  0  0  0  0  0  0  0  0  0
   15.8775  -24.6772   -1.5851 C   0  0  1  0  0  0  0  0  0  0  0  0
   17.5783  -26.0999   -2.7452 N   0  0  0  0  0  0  0  0  0  0  0  0
   16.9645  -25.9830   -4.0569 C   0  0  0  0  0  0  0  0  0  0  0  0
   18.2027  -27.4303   -2.6445 O   0  0  0  0  0  0  0  0  0  0  0  0
   19.0476  -27.6615   -1.7570 O   0  0  0  0  0  0  0  0  0  0  0  0
  2  1  1  0
  3  2  2  0
  4  2  1  0
  5  4  1  0
  6  5  1  0
  7  6  1  0
  8  7  1  0
  8 10  1  0
  8  9  1  6
 10 12  1  0
 11 10  2  0
 12 13  1  0
 13 14  1  0
 14 15  2  0
 14 20  1  0
 17 16  1  1
 17 19  1  0
 18 17  1  0
 19 21  1  0
 19 20  1  6
 21 22  2  0
 21 23  1  0
M  END
$$$$
