RGV.pdb
     RDKit          3D

 23 22  0  0  1  0  0  0  0  0999 V2000
   24.0802  -17.0691  -21.1268 N   0  0  0  0  0  0  0  0  0  0  0  0
   22.9109  -17.7949  -20.7360 C   0  0  0  0  0  0  0  0  0  0  0  0
   22.0523  -18.0588  -21.6466 N   0  0  0  0  0  0  0  0  0  0  0  0
   22.7627  -18.1814  -19.3729 N   0  0  0  0  0  0  0  0  0  0  0  0
   23.7622  -17.7815  -18.4478 C   0  0  0  0  0  0  0  0  0  0  0  0
   25.1706  -18.1310  -18.7069 C   0  0  0  0  0  0  0  0  0  0  0  0
   25.8340  -19.1543  -17.8843 C   0  0  0  0  0  0  0  0  0  0  0  0
   25.7964  -19.0466  -16.4060 C   0  0  2  0  0  0  0  0  0  0  0  0
   27.0630  -19.3129  -15.7762 N   0  0  0  0  0  0  0  0  0  0  0  0
   24.7967  -20.0583  -15.8828 C   0  0  0  0  0  0  0  0  0  0  0  0
   23.5584  -19.8357  -15.9880 O   0  0  0  0  0  0  0  0  0  0  0  0
   21.1596  -18.5634  -21.5339 N   0  0  0  0  0  0  0  0  0  0  0  0
   25.2619  -21.2322  -15.2853 C   0  0  0  0  0  0  0  0  0  0  0  0
   24.3758  -22.2612  -14.7525 C   0  0  0  0  0  0  0  0  0  0  0  0
   24.5905  -22.4626  -13.3090 O   0  0  0  0  0  0  0  0  0  0  0  0
   24.9355  -23.5852  -12.8695 C   0  0  0  0  0  0  0  0  0  0  0  0
   25.2874  -19.3276  -10.5411 C   0  0  1  0  0  0  0  0  0  0  0  0
   25.3900  -20.8064  -10.2525 C   0  0  0  0  0  0  0  0  0  0  0  0
   26.7598  -21.2782  -10.6568 C   0  0  1  0  0  0  0  0  0  0  0  0
   24.2979  -21.5819  -10.9875 N   0  0  0  0  0  0  0  0  0  0  0  0
   24.4012  -21.3684  -12.4209 C   0  0  0  0  0  0  0  0  0  0  0  0
   23.0128  -21.0266  -10.5293 O   0  0  0  0  0  0  0  0  0  0  0  0
   22.3583  -20.2656  -11.2692 O   0  0  0  0  0  0  0  0  0  0  0  0
  2  1  1  0
  3  2  2  0
  4  2  1  0
  5  4  1  0
  6  5  1  0
  7  6  1  0
  8  7  1  0
  8 10  1  0
  8  9  1  1
 10 12  1  0
 11 10  2  0
 12 13  1  0
 13 14  1  0
 14 15  2  0
 14 20  1  0
 17 16  1  1
 17 19  1  0
 18 17  1  0
 19 21  1  0
 19 20  1  6
 21 22  2  0
 21 23  1  0
M  END
$$$$
