RGV.pdb
     RDKit          3D

 23 22  0  0  1  0  0  0  0  0999 V2000
   14.6847  -20.8512  -12.7607 N   0  0  0  0  0  0  0  0  0  0  0  0
   15.3645  -20.3417  -13.9118 C   0  0  0  0  0  0  0  0  0  0  0  0
   14.6640  -19.7090  -14.7750 N   0  0  0  0  0  0  0  0  0  0  0  0
   16.7664  -20.5614  -14.0381 N   0  0  0  0  0  0  0  0  0  0  0  0
   17.3463  -21.6379  -13.3173 C   0  0  0  0  0  0  0  0  0  0  0  0
   16.9679  -23.0222  -13.6539 C   0  0  0  0  0  0  0  0  0  0  0  0
   17.5076  -24.1407  -12.8655 C   0  0  0  0  0  0  0  0  0  0  0  0
   18.9130  -24.0976  -12.3954 C   0  0  2  0  0  0  0  0  0  0  0  0
   19.8458  -24.7008  -13.3107 N   0  0  0  0  0  0  0  0  0  0  0  0
   18.9969  -24.8522  -11.0837 C   0  0  0  0  0  0  0  0  0  0  0  0
   19.3272  -26.0708  -11.0758 O   0  0  0  0  0  0  0  0  0  0  0  0
   14.9890  -19.3081  -15.6682 N   0  0  0  0  0  0  0  0  0  0  0  0
   18.7044  -24.1850   -9.8919 C   0  0  0  0  0  0  0  0  0  0  0  0
   18.9054  -24.7796   -8.5750 C   0  0  0  0  0  0  0  0  0  0  0  0
   17.6289  -24.9458   -7.8583 O   0  0  0  0  0  0  0  0  0  0  0  0
   16.5524  -24.5790   -8.3866 C   0  0  0  0  0  0  0  0  0  0  0  0
   17.6452  -26.6107   -3.8472 C   0  0  1  0  0  0  0  0  0  0  0  0
   16.5019  -26.8150   -4.8124 C   0  0  0  0  0  0  0  0  0  0  0  0
   16.7114  -28.1192   -5.5321 C   0  0  1  0  0  0  0  0  0  0  0  0
   16.4042  -25.6496   -5.7956 N   0  0  0  0  0  0  0  0  0  0  0  0
   17.6333  -25.5267   -6.5606 C   0  0  0  0  0  0  0  0  0  0  0  0
   16.2424  -24.4317   -4.9828 O   0  0  0  0  0  0  0  0  0  0  0  0
   17.2406  -23.7633   -4.6482 O   0  0  0  0  0  0  0  0  0  0  0  0
  2  1  1  0
  3  2  2  0
  4  2  1  0
  5  4  1  0
  6  5  1  0
  7  6  1  0
  8  7  1  0
  8 10  1  0
  8  9  1  6
 10 12  1  0
 11 10  2  0
 12 13  1  0
 13 14  1  0
 14 15  2  0
 14 20  1  0
 17 16  1  1
 17 19  1  0
 18 17  1  0
 19 21  1  0
 19 20  1  6
 21 22  2  0
 21 23  1  0
M  END
$$$$
