RGV.pdb
     RDKit          3D

 23 22  0  0  1  0  0  0  0  0999 V2000
   20.1748  -18.1465  -18.3359 N   0  0  0  0  0  0  0  0  0  0  0  0
   20.3926  -16.8854  -18.9754 C   0  0  0  0  0  0  0  0  0  0  0  0
   19.5167  -16.4982  -19.8233 N   0  0  0  0  0  0  0  0  0  0  0  0
   21.5567  -16.1349  -18.6416 N   0  0  0  0  0  0  0  0  0  0  0  0
   22.8226  -16.7637  -18.7712 C   0  0  0  0  0  0  0  0  0  0  0  0
   22.9909  -18.1544  -18.3126 C   0  0  0  0  0  0  0  0  0  0  0  0
   24.0625  -18.4867  -17.3612 C   0  0  0  0  0  0  0  0  0  0  0  0
   25.2943  -17.6623  -17.3246 C   0  0  2  0  0  0  0  0  0  0  0  0
   26.0809  -17.7475  -18.5270 N   0  0  0  0  0  0  0  0  0  0  0  0
   26.1535  -18.1456  -16.1735 C   0  0  0  0  0  0  0  0  0  0  0  0
   27.0702  -18.9889  -16.3798 O   0  0  0  0  0  0  0  0  0  0  0  0
   19.4786  -15.5886  -20.3086 N   0  0  0  0  0  0  0  0  0  0  0  0
   25.9175  -17.6489  -14.8894 C   0  0  0  0  0  0  0  0  0  0  0  0
   26.7546  -17.9774  -13.7408 C   0  0  0  0  0  0  0  0  0  0  0  0
   26.3895  -19.2828  -13.1637 O   0  0  0  0  0  0  0  0  0  0  0  0
   25.6158  -20.0543  -13.7790 C   0  0  0  0  0  0  0  0  0  0  0  0
   28.2352  -20.5522   -9.4308 C   0  0  1  0  0  0  0  0  0  0  0  0
   27.9469  -21.4625  -10.6008 C   0  0  0  0  0  0  0  0  0  0  0  0
   29.1598  -21.4964  -11.4898 C   0  0  1  0  0  0  0  0  0  0  0  0
   26.7120  -20.9907  -11.3667 N   0  0  0  0  0  0  0  0  0  0  0  0
   26.9251  -19.6564  -11.9007 C   0  0  0  0  0  0  0  0  0  0  0  0
   25.6140  -20.9260  -10.3868 O   0  0  0  0  0  0  0  0  0  0  0  0
   25.0429  -21.9701  -10.0142 O   0  0  0  0  0  0  0  0  0  0  0  0
  2  1  1  0
  3  2  2  0
  4  2  1  0
  5  4  1  0
  6  5  1  0
  7  6  1  0
  8  7  1  0
  8 10  1  0
  8  9  1  6
 10 12  1  0
 11 10  2  0
 12 13  1  0
 13 14  1  0
 14 15  2  0
 14 20  1  0
 17 16  1  1
 17 19  1  0
 18 17  1  0
 19 21  1  0
 19 20  1  6
 21 22  2  0
 21 23  1  0
M  END
$$$$
