NCD.pdb
     RDKit          3D

 23 22  0  0  1  0  0  0  0  0999 V2000
    7.3417  -16.5424   12.2239 N   0  0  0  0  0  0  0  0  0  0  0  0
    6.7701  -17.0867   13.4059 C   0  0  0  0  0  0  0  0  0  0  0  0
    5.9687  -18.0222   13.3014 O   0  0  0  0  0  0  0  0  0  0  0  0
    7.1550  -16.5162   14.6979 C   0  0  0  0  0  0  0  0  0  0  0  0
    8.0067  -15.2864   14.6478 C   0  0  2  0  0  0  0  0  0  0  0  0
    8.8725  -15.4059   13.4769 N   0  0  0  0  0  0  0  0  0  0  0  0
    8.8793  -15.0889   15.8211 C   0  0  0  0  0  0  0  0  0  0  0  0
   10.0917  -15.5079   15.8647 O   0  0  0  0  0  0  0  0  0  0  0  0
    8.3648  -14.4061   16.9581 N   0  0  0  0  0  0  0  0  0  0  0  0
    9.0617  -14.3924   18.2213 C   0  0  1  0  0  0  0  0  0  0  0  0
    8.4048  -13.4059   19.1943 C   0  0  0  0  0  0  0  0  0  0  0  0
    6.6501  -13.1974   18.7297 S   0  0  0  0  0  0  0  0  0  0  0  0
    9.1885  -15.7262   18.8229 C   0  0  0  0  0  0  0  0  0  0  0  0
    8.6901  -16.7532   18.2920 O   0  0  0  0  0  0  0  0  0  0  0  0
    9.8902  -15.9009   20.0442 N   0  0  0  0  0  0  0  0  0  0  0  0
   10.3972  -17.2112   20.4195 C   0  0  1  0  0  0  0  0  0  0  0  0
   11.3077  -17.7311   19.3335 C   0  0  0  0  0  0  0  0  0  0  0  0
   11.9201  -19.0158   19.7277 C   0  0  0  0  0  0  0  0  0  0  0  0
   11.3744  -19.7891   20.5232 O   0  0  0  0  0  0  0  0  0  0  0  0
   11.1098  -17.0197   21.7039 C   0  0  0  0  0  0  0  0  0  0  0  0
   10.6485  -17.7010   22.8263 O   0  0  0  0  0  0  0  0  0  0  0  0
   13.1473  -19.3587   19.1833 O   0  0  0  0  0  0  0  0  0  0  0  0
   12.1286  -16.2549   21.8232 O   0  0  0  0  0  0  0  0  0  0  0  0
  1  2  1  0
  2  4  1  0
  3  2  2  0
  4  5  1  0
  5  6  1  6
  5  7  1  0
  7  9  1  0
  7  8  2  0
  9 10  1  0
 10 13  1  0
 10 11  1  1
 11 12  1  0
 13 14  2  0
 15 13  1  0
 15 16  1  0
 16 20  1  0
 17 18  1  0
 16 17  1  6
 18 19  2  0
 20 21  1  0
 22 18  1  0
 23 20  2  0
M  END
$$$$
