NCD.pdb
     RDKit          3D

 23 22  0  0  1  0  0  0  0  0999 V2000
    8.5006  -17.1422   19.4706 N   0  0  0  0  0  0  0  0  0  0  0  0
    9.4831  -16.1151   19.4669 C   0  0  0  0  0  0  0  0  0  0  0  0
    9.8967  -15.6931   18.3811 O   0  0  0  0  0  0  0  0  0  0  0  0
    9.9638  -15.6000   20.7501 C   0  0  0  0  0  0  0  0  0  0  0  0
    9.4987  -16.3321   21.9700 C   0  0  2  0  0  0  0  0  0  0  0  0
    8.0417  -16.2288   22.0087 N   0  0  0  0  0  0  0  0  0  0  0  0
   10.0111  -15.7975   23.2462 C   0  0  0  0  0  0  0  0  0  0  0  0
   11.2637  -15.7230   23.5163 O   0  0  0  0  0  0  0  0  0  0  0  0
    9.0860  -15.3424   24.2263 N   0  0  0  0  0  0  0  0  0  0  0  0
    9.5036  -14.9667   25.5552 C   0  0  1  0  0  0  0  0  0  0  0  0
    8.5050  -13.9865   26.1824 C   0  0  0  0  0  0  0  0  0  0  0  0
    9.0976  -13.5237   27.8476 S   0  0  0  0  0  0  0  0  0  0  0  0
    9.7369  -16.1209   26.4329 C   0  0  0  0  0  0  0  0  0  0  0  0
    8.8504  -16.9869   26.6544 O   0  0  0  0  0  0  0  0  0  0  0  0
   10.9928  -16.2983   27.0697 N   0  0  0  0  0  0  0  0  0  0  0  0
   11.2313  -17.4578   27.9143 C   0  0  1  0  0  0  0  0  0  0  0  0
   12.6073  -18.0123   27.6351 C   0  0  0  0  0  0  0  0  0  0  0  0
   12.5221  -19.3014   26.9197 C   0  0  0  0  0  0  0  0  0  0  0  0
   13.5243  -19.8826   26.4879 O   0  0  0  0  0  0  0  0  0  0  0  0
   11.0922  -16.9809   29.3098 C   0  0  0  0  0  0  0  0  0  0  0  0
   10.7828  -17.9085   30.3000 O   0  0  0  0  0  0  0  0  0  0  0  0
   11.2738  -19.8721   26.7303 O   0  0  0  0  0  0  0  0  0  0  0  0
   11.2435  -15.7542   29.6407 O   0  0  0  0  0  0  0  0  0  0  0  0
  1  2  1  0
  2  4  1  0
  3  2  2  0
  4  5  1  0
  5  6  1  1
  5  7  1  0
  7  9  1  0
  7  8  2  0
  9 10  1  0
 10 13  1  0
 10 11  1  1
 11 12  1  0
 13 14  2  0
 15 13  1  0
 15 16  1  0
 16 20  1  0
 17 18  1  0
 16 17  1  1
 18 19  2  0
 20 21  1  0
 22 18  1  0
 23 20  2  0
M  END
$$$$
