NCD.pdb
     RDKit          3D

 23 22  0  0  1  0  0  0  0  0999 V2000
    6.9681  -16.8147   12.6332 N   0  0  0  0  0  0  0  0  0  0  0  0
    7.5468  -15.5340   12.4212 C   0  0  0  0  0  0  0  0  0  0  0  0
    7.4505  -15.0168   11.3025 O   0  0  0  0  0  0  0  0  0  0  0  0
    8.2330  -14.8812   13.5375 C   0  0  0  0  0  0  0  0  0  0  0  0
    8.3359  -15.6746   14.8025 C   0  0  2  0  0  0  0  0  0  0  0  0
    6.9746  -15.9993   15.2227 N   0  0  0  0  0  0  0  0  0  0  0  0
    8.9858  -14.9703   15.9243 C   0  0  0  0  0  0  0  0  0  0  0  0
   10.2159  -14.6050   15.8972 O   0  0  0  0  0  0  0  0  0  0  0  0
    8.2255  -14.6786   17.0908 N   0  0  0  0  0  0  0  0  0  0  0  0
    8.8082  -14.0299   18.2403 C   0  0  1  0  0  0  0  0  0  0  0  0
    7.7313  -13.3160   19.0659 C   0  0  0  0  0  0  0  0  0  0  0  0
    8.4454  -12.8323   20.6767 S   0  0  0  0  0  0  0  0  0  0  0  0
    9.5998  -14.9422   19.0759 C   0  0  0  0  0  0  0  0  0  0  0  0
    9.1012  -15.9669   19.6108 O   0  0  0  0  0  0  0  0  0  0  0  0
   10.9769  -14.6912   19.3099 N   0  0  0  0  0  0  0  0  0  0  0  0
   11.7891  -15.6607   20.0278 C   0  0  1  0  0  0  0  0  0  0  0  0
   12.1759  -16.7843   19.0970 C   0  0  0  0  0  0  0  0  0  0  0  0
   13.0512  -17.7582   19.7798 C   0  0  0  0  0  0  0  0  0  0  0  0
   12.8302  -18.1478   20.9321 O   0  0  0  0  0  0  0  0  0  0  0  0
   12.9680  -14.9151   20.5262 C   0  0  0  0  0  0  0  0  0  0  0  0
   13.4704  -15.2330   21.7845 O   0  0  0  0  0  0  0  0  0  0  0  0
   14.1549  -18.2470   19.0993 O   0  0  0  0  0  0  0  0  0  0  0  0
   13.5409  -13.9928   19.8493 O   0  0  0  0  0  0  0  0  0  0  0  0
  1  2  1  0
  2  4  1  0
  3  2  2  0
  4  5  1  0
  5  6  1  1
  5  7  1  0
  7  9  1  0
  7  8  2  0
  9 10  1  0
 10 13  1  0
 10 11  1  1
 11 12  1  0
 13 14  2  0
 15 13  1  0
 15 16  1  0
 16 20  1  0
 17 18  1  0
 16 17  1  6
 18 19  2  0
 20 21  1  0
 22 18  1  0
 23 20  2  0
M  END
$$$$
