NCD.pdb
     RDKit          3D

 23 22  0  0  1  0  0  0  0  0999 V2000
    7.6855  -18.9989   15.9398 N   0  0  0  0  0  0  0  0  0  0  0  0
    8.2479  -17.7242   15.6587 C   0  0  0  0  0  0  0  0  0  0  0  0
    8.1784  -17.2861   14.5048 O   0  0  0  0  0  0  0  0  0  0  0  0
    8.8859  -16.9835   16.7484 C   0  0  0  0  0  0  0  0  0  0  0  0
    8.9202  -17.6681   18.0789 C   0  0  2  0  0  0  0  0  0  0  0  0
    7.5442  -18.0216   18.4204 N   0  0  0  0  0  0  0  0  0  0  0  0
    9.4502  -16.8472   19.1844 C   0  0  0  0  0  0  0  0  0  0  0  0
   10.6617  -16.4245   19.2181 O   0  0  0  0  0  0  0  0  0  0  0  0
    8.5902  -16.5035   20.2642 N   0  0  0  0  0  0  0  0  0  0  0  0
    9.0698  -15.8004   21.4292 C   0  0  1  0  0  0  0  0  0  0  0  0
    7.8985  -15.3022   22.2843 C   0  0  0  0  0  0  0  0  0  0  0  0
    6.8800  -14.1615   21.2845 S   0  0  0  0  0  0  0  0  0  0  0  0
   10.0133  -16.5909   22.2304 C   0  0  0  0  0  0  0  0  0  0  0  0
    9.8522  -17.8222   22.4374 O   0  0  0  0  0  0  0  0  0  0  0  0
   11.1571  -15.9789   22.8062 N   0  0  0  0  0  0  0  0  0  0  0  0
   12.1199  -16.7745   23.5511 C   0  0  1  0  0  0  0  0  0  0  0  0
   13.4151  -16.0101   23.6805 C   0  0  0  0  0  0  0  0  0  0  0  0
   14.1028  -15.9115   22.3773 C   0  0  0  0  0  0  0  0  0  0  0  0
   13.8023  -16.6310   21.4178 O   0  0  0  0  0  0  0  0  0  0  0  0
   11.4947  -17.0442   24.8666 C   0  0  0  0  0  0  0  0  0  0  0  0
   10.5310  -16.1574   25.3373 O   0  0  0  0  0  0  0  0  0  0  0  0
   15.1174  -14.9789   22.2332 O   0  0  0  0  0  0  0  0  0  0  0  0
   11.8046  -18.0558   25.5861 O   0  0  0  0  0  0  0  0  0  0  0  0
  1  2  1  0
  2  4  1  0
  3  2  2  0
  4  5  1  0
  5  6  1  1
  5  7  1  0
  7  9  1  0
  7  8  2  0
  9 10  1  0
 10 13  1  0
 10 11  1  1
 11 12  1  0
 13 14  2  0
 15 13  1  0
 15 16  1  0
 16 20  1  0
 17 18  1  0
 16 17  1  1
 18 19  2  0
 20 21  1  0
 22 18  1  0
 23 20  2  0
M  END
$$$$
