NCD.pdb
     RDKit          3D

 23 22  0  0  1  0  0  0  0  0999 V2000
    8.2404  -15.5585   17.7519 N   0  0  0  0  0  0  0  0  0  0  0  0
    7.9940  -14.2082   18.1204 C   0  0  0  0  0  0  0  0  0  0  0  0
    7.5542  -13.4304   17.2661 O   0  0  0  0  0  0  0  0  0  0  0  0
    8.2718  -13.7952   19.4972 C   0  0  0  0  0  0  0  0  0  0  0  0
    8.0116  -14.8191   20.5575 C   0  0  2  0  0  0  0  0  0  0  0  0
    6.5665  -15.0279   20.6134 N   0  0  0  0  0  0  0  0  0  0  0  0
    8.4526  -14.4342   21.9118 C   0  0  0  0  0  0  0  0  0  0  0  0
    9.6892  -14.3022   22.2294 O   0  0  0  0  0  0  0  0  0  0  0  0
    7.4736  -14.1966   22.9162 N   0  0  0  0  0  0  0  0  0  0  0  0
    7.8336  -13.9563   24.2926 C   0  0  1  0  0  0  0  0  0  0  0  0
    6.7262  -13.1817   25.0171 C   0  0  0  0  0  0  0  0  0  0  0  0
    7.1655  -13.0370   26.7847 S   0  0  0  0  0  0  0  0  0  0  0  0
    8.1845  -15.1840   25.0183 C   0  0  0  0  0  0  0  0  0  0  0  0
    7.4050  -16.1703   25.0869 O   0  0  0  0  0  0  0  0  0  0  0  0
    9.4367  -15.2978   25.6764 N   0  0  0  0  0  0  0  0  0  0  0  0
    9.8108  -16.5392   26.3350 C   0  0  1  0  0  0  0  0  0  0  0  0
   10.9136  -17.2130   25.5549 C   0  0  0  0  0  0  0  0  0  0  0  0
   11.4073  -18.4102   26.2646 C   0  0  0  0  0  0  0  0  0  0  0  0
   10.6641  -19.1245   26.9472 O   0  0  0  0  0  0  0  0  0  0  0  0
   10.2409  -16.1621   27.7013 C   0  0  0  0  0  0  0  0  0  0  0  0
   10.5831  -17.1750   28.5922 O   0  0  0  0  0  0  0  0  0  0  0  0
   12.7494  -18.7373   26.1567 O   0  0  0  0  0  0  0  0  0  0  0  0
   10.3095  -14.9466   28.0949 O   0  0  0  0  0  0  0  0  0  0  0  0
  1  2  1  0
  2  4  1  0
  3  2  2  0
  4  5  1  0
  5  6  1  1
  5  7  1  0
  7  9  1  0
  7  8  2  0
  9 10  1  0
 10 13  1  0
 10 11  1  1
 11 12  1  0
 13 14  2  0
 15 13  1  0
 15 16  1  0
 16 20  1  0
 17 18  1  0
 16 17  1  6
 18 19  2  0
 20 21  1  0
 22 18  1  0
 23 20  2  0
M  END
$$$$
