NCD.pdb
     RDKit          3D

 23 22  0  0  1  0  0  0  0  0999 V2000
    7.9409  -19.4635   14.3134 N   0  0  0  0  0  0  0  0  0  0  0  0
    8.3627  -19.7071   15.6486 C   0  0  0  0  0  0  0  0  0  0  0  0
    8.2344  -20.8454   16.1134 O   0  0  0  0  0  0  0  0  0  0  0  0
    8.9317  -18.5988   16.4174 C   0  0  0  0  0  0  0  0  0  0  0  0
    8.1732  -18.1874   17.6405 C   0  0  2  0  0  0  0  0  0  0  0  0
    6.9019  -17.6229   17.1929 N   0  0  0  0  0  0  0  0  0  0  0  0
    8.8408  -17.1648   18.4685 C   0  0  0  0  0  0  0  0  0  0  0  0
   10.0310  -16.7467   18.2321 O   0  0  0  0  0  0  0  0  0  0  0  0
    8.1443  -16.6118   19.5788 N   0  0  0  0  0  0  0  0  0  0  0  0
    8.7699  -15.6814   20.4870 C   0  0  1  0  0  0  0  0  0  0  0  0
    7.7140  -14.8695   21.2467 C   0  0  0  0  0  0  0  0  0  0  0  0
    6.6860  -16.0133   22.2332 S   0  0  0  0  0  0  0  0  0  0  0  0
    9.7112  -16.3255   21.4123 C   0  0  0  0  0  0  0  0  0  0  0  0
    9.5657  -17.5144   21.7996 O   0  0  0  0  0  0  0  0  0  0  0  0
   10.8347  -15.6133   21.9070 N   0  0  0  0  0  0  0  0  0  0  0  0
   11.8139  -16.2795   22.7509 C   0  0  1  0  0  0  0  0  0  0  0  0
   13.1099  -15.5058   22.7293 C   0  0  0  0  0  0  0  0  0  0  0  0
   14.1351  -16.1693   23.5596 C   0  0  0  0  0  0  0  0  0  0  0  0
   14.2941  -15.8945   24.7545 O   0  0  0  0  0  0  0  0  0  0  0  0
   11.2157  -16.3327   24.1050 C   0  0  0  0  0  0  0  0  0  0  0  0
   11.7023  -17.2726   25.0086 O   0  0  0  0  0  0  0  0  0  0  0  0
   14.9416  -17.1310   22.9725 O   0  0  0  0  0  0  0  0  0  0  0  0
   10.2720  -15.5524   24.4763 O   0  0  0  0  0  0  0  0  0  0  0  0
  1  2  1  0
  2  4  1  0
  3  2  2  0
  4  5  1  0
  5  6  1  6
  5  7  1  0
  7  9  1  0
  7  8  2  0
  9 10  1  0
 10 13  1  0
 10 11  1  1
 11 12  1  0
 13 14  2  0
 15 13  1  0
 15 16  1  0
 16 20  1  0
 17 18  1  0
 16 17  1  1
 18 19  2  0
 20 21  1  0
 22 18  1  0
 23 20  2  0
M  END
$$$$
