GHF.pdb
     RDKit          3D

 26 27  0  0  1  0  0  0  0  0999 V2000
    8.3980  -15.2296   14.2041 N   0  0  0  0  0  0  0  0  0  0  0  0
    9.5140  -15.7482   14.9643 C   0  0  0  0  0  0  0  0  0  0  0  0
    9.0621  -16.3774   16.2406 C   0  0  0  0  0  0  0  0  0  0  0  0
    7.8351  -16.2432   16.5158 O   0  0  0  0  0  0  0  0  0  0  0  0
    9.9496  -17.0824   17.0942 N   0  0  0  0  0  0  0  0  0  0  0  0
    9.4332  -17.7505   18.2438 C   0  0  1  0  0  0  0  0  0  0  0  0
    9.7766  -19.1861   18.3879 C   0  0  0  0  0  0  0  0  0  0  0  0
    9.1887  -20.1019   17.3988 C   0  0  0  0  0  0  0  0  0  0  0  0
    8.1658  -19.9769   16.5116 C   0  0  0  0  0  0  0  0  0  0  0  0
    8.0495  -21.1579   15.8427 N   0  0  0  0  0  0  0  0  0  0  0  0
    8.9724  -21.9929   16.3002 C   0  0  0  0  0  0  0  0  0  0  0  0
    9.6667  -21.3781   17.2350 N   0  0  0  0  0  0  0  0  0  0  0  0
   10.0389  -17.0692   19.4567 C   0  0  0  0  0  0  0  0  0  0  0  0
   11.1812  -16.5740   19.3303 O   0  0  0  0  0  0  0  0  0  0  0  0
    9.3441  -16.9954   20.6798 N   0  0  0  0  0  0  0  0  0  0  0  0
    9.9233  -16.2136   21.7661 C   0  0  1  0  0  0  0  0  0  0  0  0
    8.8588  -15.3022   22.3097 C   0  0  0  0  0  0  0  0  0  0  0  0
    8.2767  -14.4108   21.2925 C   0  0  0  0  0  0  0  0  0  0  0  0
    7.0389  -14.6658   20.7210 C   0  0  0  0  0  0  0  0  0  0  0  0
    6.4854  -13.8371   19.7741 C   0  0  0  0  0  0  0  0  0  0  0  0
    7.1718  -12.7148   19.3715 C   0  0  0  0  0  0  0  0  0  0  0  0
    8.4205  -12.4335   19.9302 C   0  0  0  0  0  0  0  0  0  0  0  0
    8.9614  -13.2689   20.8744 C   0  0  0  0  0  0  0  0  0  0  0  0
   10.4595  -17.1013   22.8190 C   0  0  0  0  0  0  0  0  0  0  0  0
   11.2404  -16.6496   23.8572 O   0  0  0  0  0  0  0  0  0  0  0  0
   10.2181  -18.3484   22.8095 O   0  0  0  0  0  0  0  0  0  0  0  0
  2  1  1  0
  3  2  1  0
  3  4  2  0
  5  3  1  0
  6  5  1  0
  6 13  1  0
  6  7  1  6
  8  7  1  0
  9  8  2  0
 10 11  1  0
 10  9  1  0
 11 12  2  0
 12  8  1  0
 13 15  1  0
 13 14  2  0
 15 16  1  0
 16 17  1  1
 16 24  1  0
 18 17  1  0
 19 18  2  0
 20 19  1  0
 21 20  2  0
 21 22  1  0
 22 23  2  0
 23 18  1  0
 24 26  2  0
 24 25  1  0
M  END
$$$$
