GHF.pdb
     RDKit          3D

 26 27  0  0  1  0  0  0  0  0999 V2000
   15.2514  -18.2979   19.5860 N   0  0  0  0  0  0  0  0  0  0  0  0
   14.3816  -18.9035   20.5703 C   0  0  0  0  0  0  0  0  0  0  0  0
   13.2563  -17.9947   20.9401 C   0  0  0  0  0  0  0  0  0  0  0  0
   13.4946  -16.7565   20.8429 O   0  0  0  0  0  0  0  0  0  0  0  0
   11.9972  -18.4845   21.3737 N   0  0  0  0  0  0  0  0  0  0  0  0
   10.9958  -17.5625   21.7997 C   0  0  1  0  0  0  0  0  0  0  0  0
    9.5853  -17.9721   21.5944 C   0  0  0  0  0  0  0  0  0  0  0  0
    9.0652  -17.8627   20.2232 C   0  0  0  0  0  0  0  0  0  0  0  0
    9.5964  -17.3894   19.0644 C   0  0  0  0  0  0  0  0  0  0  0  0
    8.6552  -17.5269   18.0893 N   0  0  0  0  0  0  0  0  0  0  0  0
    7.5705  -18.0695   18.6254 C   0  0  0  0  0  0  0  0  0  0  0  0
    7.7963  -18.2787   19.9057 N   0  0  0  0  0  0  0  0  0  0  0  0
   11.1536  -17.4052   23.3005 C   0  0  0  0  0  0  0  0  0  0  0  0
   11.5523  -18.4001   23.9466 O   0  0  0  0  0  0  0  0  0  0  0  0
   10.8632  -16.1867   23.9450 N   0  0  0  0  0  0  0  0  0  0  0  0
   10.8099  -16.1625   25.4021 C   0  0  1  0  0  0  0  0  0  0  0  0
   10.3711  -14.7914   25.8344 C   0  0  0  0  0  0  0  0  0  0  0  0
   10.2252  -14.6568   27.2934 C   0  0  0  0  0  0  0  0  0  0  0  0
   11.0420  -15.3487   28.1754 C   0  0  0  0  0  0  0  0  0  0  0  0
   10.9161  -15.2260   29.5388 C   0  0  0  0  0  0  0  0  0  0  0  0
    9.9521  -14.3931   30.0580 C   0  0  0  0  0  0  0  0  0  0  0  0
    9.1155  -13.6842   29.1931 C   0  0  0  0  0  0  0  0  0  0  0  0
    9.2518  -13.8157   27.8344 C   0  0  0  0  0  0  0  0  0  0  0  0
    9.8921  -17.2047   25.9076 C   0  0  0  0  0  0  0  0  0  0  0  0
    8.6246  -17.3961   25.4092 O   0  0  0  0  0  0  0  0  0  0  0  0
   10.2416  -17.9855   26.8466 O   0  0  0  0  0  0  0  0  0  0  0  0
  2  1  1  0
  3  2  1  0
  3  4  2  0
  5  3  1  0
  6  5  1  0
  6 13  1  0
  6  7  1  1
  8  7  1  0
  9  8  2  0
 10 11  1  0
 10  9  1  0
 11 12  2  0
 12  8  1  0
 13 15  1  0
 13 14  2  0
 15 16  1  0
 16 17  1  6
 16 24  1  0
 18 17  1  0
 19 18  2  0
 20 19  1  0
 21 20  2  0
 21 22  1  0
 22 23  2  0
 23 18  1  0
 24 26  2  0
 24 25  1  0
M  END
$$$$
