GHF.pdb
     RDKit          3D

 26 27  0  0  1  0  0  0  0  0999 V2000
    8.8698  -19.0328   19.2798 N   0  0  0  0  0  0  0  0  0  0  0  0
    8.8412  -18.7667   20.7013 C   0  0  0  0  0  0  0  0  0  0  0  0
    9.2953  -17.3778   21.0078 C   0  0  0  0  0  0  0  0  0  0  0  0
   10.5124  -17.1316   20.7682 O   0  0  0  0  0  0  0  0  0  0  0  0
    8.4202  -16.3930   21.5347 N   0  0  0  0  0  0  0  0  0  0  0  0
    8.9278  -15.0948   21.8375 C   0  0  1  0  0  0  0  0  0  0  0  0
    8.0812  -13.9424   21.4441 C   0  0  0  0  0  0  0  0  0  0  0  0
    7.8811  -13.7400   20.0013 C   0  0  0  0  0  0  0  0  0  0  0  0
    8.1830  -12.7176   19.1571 C   0  0  0  0  0  0  0  0  0  0  0  0
    7.7576  -13.0681   17.9114 N   0  0  0  0  0  0  0  0  0  0  0  0
    7.2072  -14.2726   17.9784 C   0  0  0  0  0  0  0  0  0  0  0  0
    7.2714  -14.6934   19.2246 N   0  0  0  0  0  0  0  0  0  0  0  0
    9.0441  -15.0101   23.3479 C   0  0  0  0  0  0  0  0  0  0  0  0
    9.5943  -13.9940   23.8286 O   0  0  0  0  0  0  0  0  0  0  0  0
    8.5524  -16.0348   24.1802 N   0  0  0  0  0  0  0  0  0  0  0  0
    8.7613  -15.9264   25.6194 C   0  0  1  0  0  0  0  0  0  0  0  0
    7.4497  -15.5673   26.2597 C   0  0  0  0  0  0  0  0  0  0  0  0
    7.2825  -14.1209   26.4792 C   0  0  0  0  0  0  0  0  0  0  0  0
    8.2641  -13.3579   27.0939 C   0  0  0  0  0  0  0  0  0  0  0  0
    8.1189  -12.0064   27.2992 C   0  0  0  0  0  0  0  0  0  0  0  0
    6.9667  -11.3783   26.8861 C   0  0  0  0  0  0  0  0  0  0  0  0
    5.9615  -12.1222   26.2643 C   0  0  0  0  0  0  0  0  0  0  0  0
    6.1192  -13.4703   26.0655 C   0  0  0  0  0  0  0  0  0  0  0  0
    9.2972  -17.1909   26.1651 C   0  0  0  0  0  0  0  0  0  0  0  0
    9.6759  -17.3420   27.4787 O   0  0  0  0  0  0  0  0  0  0  0  0
    9.4357  -18.2157   25.4275 O   0  0  0  0  0  0  0  0  0  0  0  0
  2  1  1  0
  3  2  1  0
  3  4  2  0
  5  3  1  0
  6  5  1  0
  6 13  1  0
  6  7  1  1
  8  7  1  0
  9  8  2  0
 10 11  1  0
 10  9  1  0
 11 12  2  0
 12  8  1  0
 13 15  1  0
 13 14  2  0
 15 16  1  0
 16 17  1  1
 16 24  1  0
 18 17  1  0
 19 18  2  0
 20 19  1  0
 21 20  2  0
 21 22  1  0
 22 23  2  0
 23 18  1  0
 24 26  2  0
 24 25  1  0
M  END
$$$$
