GHF.pdb
     RDKit          3D

 26 27  0  0  1  0  0  0  0  0999 V2000
   12.6679  -18.0572   18.4265 N   0  0  0  0  0  0  0  0  0  0  0  0
   12.4355  -18.3181   19.8302 C   0  0  0  0  0  0  0  0  0  0  0  0
   11.8268  -17.1383   20.5132 C   0  0  0  0  0  0  0  0  0  0  0  0
   12.6395  -16.2609   20.9242 O   0  0  0  0  0  0  0  0  0  0  0  0
   10.4255  -17.0055   20.6921 N   0  0  0  0  0  0  0  0  0  0  0  0
    9.9107  -15.8564   21.3623 C   0  0  1  0  0  0  0  0  0  0  0  0
    8.5070  -15.4848   21.0604 C   0  0  0  0  0  0  0  0  0  0  0  0
    8.2983  -14.6033   19.9019 C   0  0  0  0  0  0  0  0  0  0  0  0
    9.1506  -13.9698   19.0525 C   0  0  0  0  0  0  0  0  0  0  0  0
    8.4003  -13.2702   18.1564 N   0  0  0  0  0  0  0  0  0  0  0  0
    7.1192  -13.4624   18.4397 C   0  0  0  0  0  0  0  0  0  0  0  0
    7.0367  -14.2598   19.4844 N   0  0  0  0  0  0  0  0  0  0  0  0
    9.9330  -16.1672   22.8472 C   0  0  0  0  0  0  0  0  0  0  0  0
    9.9682  -17.3719   23.1845 O   0  0  0  0  0  0  0  0  0  0  0  0
    9.9149  -15.1409   23.8119 N   0  0  0  0  0  0  0  0  0  0  0  0
    9.9954  -15.5057   25.2215 C   0  0  1  0  0  0  0  0  0  0  0  0
   10.4811  -14.3090   25.9905 C   0  0  0  0  0  0  0  0  0  0  0  0
   10.5730  -14.5437   27.4411 C   0  0  0  0  0  0  0  0  0  0  0  0
   11.5822  -15.3191   27.9925 C   0  0  0  0  0  0  0  0  0  0  0  0
   11.6786  -15.5401   29.3458 C   0  0  0  0  0  0  0  0  0  0  0  0
   10.7498  -14.9795   30.1918 C   0  0  0  0  0  0  0  0  0  0  0  0
    9.7226  -14.1942   29.6640 C   0  0  0  0  0  0  0  0  0  0  0  0
    9.6379  -13.9815   28.3114 C   0  0  0  0  0  0  0  0  0  0  0  0
    8.6811  -15.9655   25.7169 C   0  0  0  0  0  0  0  0  0  0  0  0
    8.5392  -16.9219   26.6951 O   0  0  0  0  0  0  0  0  0  0  0  0
    7.6013  -15.4873   25.2491 O   0  0  0  0  0  0  0  0  0  0  0  0
  2  1  1  0
  3  2  1  0
  3  4  2  0
  5  3  1  0
  6  5  1  0
  6 13  1  0
  6  7  1  6
  8  7  1  0
  9  8  2  0
 10 11  1  0
 10  9  1  0
 11 12  2  0
 12  8  1  0
 13 15  1  0
 13 14  2  0
 15 16  1  0
 16 17  1  1
 16 24  1  0
 18 17  1  0
 19 18  2  0
 20 19  1  0
 21 20  2  0
 21 22  1  0
 22 23  2  0
 23 18  1  0
 24 26  2  0
 24 25  1  0
M  END
$$$$
