GHF.pdb
     RDKit          3D

 26 27  0  0  1  0  0  0  0  0999 V2000
    7.5363  -13.0969   18.3972 N   0  0  0  0  0  0  0  0  0  0  0  0
    7.9438  -14.4170   18.8257 C   0  0  0  0  0  0  0  0  0  0  0  0
    7.4439  -14.7260   20.1981 C   0  0  0  0  0  0  0  0  0  0  0  0
    7.0562  -13.7332   20.8788 O   0  0  0  0  0  0  0  0  0  0  0  0
    7.4044  -16.0485   20.7107 N   0  0  0  0  0  0  0  0  0  0  0  0
    6.8752  -16.2786   22.0151 C   0  0  1  0  0  0  0  0  0  0  0  0
    6.2186  -17.5887   22.2438 C   0  0  0  0  0  0  0  0  0  0  0  0
    5.0417  -17.8845   21.4131 C   0  0  0  0  0  0  0  0  0  0  0  0
    4.3694  -17.1726   20.4696 C   0  0  0  0  0  0  0  0  0  0  0  0
    3.3377  -17.9430   20.0249 N   0  0  0  0  0  0  0  0  0  0  0  0
    3.3671  -19.0997   20.6725 C   0  0  0  0  0  0  0  0  0  0  0  0
    4.3827  -19.0845   21.5105 N   0  0  0  0  0  0  0  0  0  0  0  0
    8.0479  -16.2441   22.9773 C   0  0  0  0  0  0  0  0  0  0  0  0
    9.1295  -16.7383   22.5872 O   0  0  0  0  0  0  0  0  0  0  0  0
    7.9268  -15.6779   24.2614 N   0  0  0  0  0  0  0  0  0  0  0  0
    9.0981  -15.6597   25.1300 C   0  0  1  0  0  0  0  0  0  0  0  0
    9.4623  -14.2264   25.3990 C   0  0  0  0  0  0  0  0  0  0  0  0
    8.3521  -13.4351   25.9551 C   0  0  0  0  0  0  0  0  0  0  0  0
    7.3816  -12.8678   25.1427 C   0  0  0  0  0  0  0  0  0  0  0  0
    6.3392  -12.1313   25.6531 C   0  0  0  0  0  0  0  0  0  0  0  0
    6.2442  -11.9432   27.0127 C   0  0  0  0  0  0  0  0  0  0  0  0
    7.2077  -12.5030   27.8545 C   0  0  0  0  0  0  0  0  0  0  0  0
    8.2429  -13.2360   27.3321 C   0  0  0  0  0  0  0  0  0  0  0  0
    8.8272  -16.3899   26.3860 C   0  0  0  0  0  0  0  0  0  0  0  0
    9.7898  -16.6299   27.3385 O   0  0  0  0  0  0  0  0  0  0  0  0
    7.6675  -16.8388   26.6452 O   0  0  0  0  0  0  0  0  0  0  0  0
  2  1  1  0
  3  2  1  0
  3  4  2  0
  5  3  1  0
  6  5  1  0
  6 13  1  0
  6  7  1  6
  8  7  1  0
  9  8  2  0
 10 11  1  0
 10  9  1  0
 11 12  2  0
 12  8  1  0
 13 15  1  0
 13 14  2  0
 15 16  1  0
 16 17  1  1
 16 24  1  0
 18 17  1  0
 19 18  2  0
 20 19  1  0
 21 20  2  0
 21 22  1  0
 22 23  2  0
 23 18  1  0
 24 26  2  0
 24 25  1  0
M  END
$$$$
