GHF.pdb
     RDKit          3D

 26 27  0  0  1  0  0  0  0  0999 V2000
    5.7492  -19.6090   21.1583 N   0  0  0  0  0  0  0  0  0  0  0  0
    5.6730  -18.2928   21.7533 C   0  0  0  0  0  0  0  0  0  0  0  0
    7.0097  -17.6285   21.7865 C   0  0  0  0  0  0  0  0  0  0  0  0
    7.9898  -18.3467   21.4361 O   0  0  0  0  0  0  0  0  0  0  0  0
    7.1748  -16.2768   22.1853 N   0  0  0  0  0  0  0  0  0  0  0  0
    8.4845  -15.7131   22.2245 C   0  0  1  0  0  0  0  0  0  0  0  0
    8.6270  -14.3281   21.7133 C   0  0  0  0  0  0  0  0  0  0  0  0
    8.3250  -14.1222   20.2889 C   0  0  0  0  0  0  0  0  0  0  0  0
    8.0056  -14.9714   19.2759 C   0  0  0  0  0  0  0  0  0  0  0  0
    7.8359  -14.2270   18.1478 N   0  0  0  0  0  0  0  0  0  0  0  0
    8.0435  -12.9526   18.4497 C   0  0  0  0  0  0  0  0  0  0  0  0
    8.3385  -12.8685   19.7303 N   0  0  0  0  0  0  0  0  0  0  0  0
    8.8900  -15.6454   23.6850 C   0  0  0  0  0  0  0  0  0  0  0  0
    9.9831  -15.0995   23.9560 O   0  0  0  0  0  0  0  0  0  0  0  0
    8.0694  -16.1761   24.6995 N   0  0  0  0  0  0  0  0  0  0  0  0
    8.5566  -16.1563   26.0739 C   0  0  1  0  0  0  0  0  0  0  0  0
    7.4378  -15.6909   26.9633 C   0  0  0  0  0  0  0  0  0  0  0  0
    7.2203  -14.2354   26.9168 C   0  0  0  0  0  0  0  0  0  0  0  0
    5.9961  -13.6916   26.5574 C   0  0  0  0  0  0  0  0  0  0  0  0
    5.7823  -12.3343   26.5154 C   0  0  0  0  0  0  0  0  0  0  0  0
    6.8084  -11.4765   26.8380 C   0  0  0  0  0  0  0  0  0  0  0  0
    8.0520  -11.9966   27.2034 C   0  0  0  0  0  0  0  0  0  0  0  0
    8.2519  -13.3532   27.2413 C   0  0  0  0  0  0  0  0  0  0  0  0
    9.0407  -17.4938   26.4747 C   0  0  0  0  0  0  0  0  0  0  0  0
    9.6738  -17.7366   27.6714 O   0  0  0  0  0  0  0  0  0  0  0  0
    8.8910  -18.4996   25.7134 O   0  0  0  0  0  0  0  0  0  0  0  0
  2  1  1  0
  3  2  1  0
  3  4  2  0
  5  3  1  0
  6  5  1  0
  6 13  1  0
  6  7  1  1
  8  7  1  0
  9  8  2  0
 10 11  1  0
 10  9  1  0
 11 12  2  0
 12  8  1  0
 13 15  1  0
 13 14  2  0
 15 16  1  0
 16 17  1  1
 16 24  1  0
 18 17  1  0
 19 18  2  0
 20 19  1  0
 21 20  2  0
 21 22  1  0
 22 23  2  0
 23 18  1  0
 24 26  2  0
 24 25  1  0
M  END
$$$$
