GHF.pdb
     RDKit          3D

 26 27  0  0  1  0  0  0  0  0999 V2000
    8.2108  -12.5178   18.3788 N   0  0  0  0  0  0  0  0  0  0  0  0
    9.1915  -13.4162   18.9475 C   0  0  0  0  0  0  0  0  0  0  0  0
    8.5890  -14.2924   19.9954 C   0  0  0  0  0  0  0  0  0  0  0  0
    7.4058  -14.0062   20.3382 O   0  0  0  0  0  0  0  0  0  0  0  0
    9.2954  -15.3789   20.5732 N   0  0  0  0  0  0  0  0  0  0  0  0
    8.6904  -16.1271   21.6262 C   0  0  1  0  0  0  0  0  0  0  0  0
    8.6438  -17.5993   21.4530 C   0  0  0  0  0  0  0  0  0  0  0  0
    7.8053  -18.1028   20.3548 C   0  0  0  0  0  0  0  0  0  0  0  0
    6.5206  -17.8589   19.9815 C   0  0  0  0  0  0  0  0  0  0  0  0
    6.2577  -18.6151   18.8794 N   0  0  0  0  0  0  0  0  0  0  0  0
    7.3462  -19.3089   18.5760 C   0  0  0  0  0  0  0  0  0  0  0  0
    8.2866  -19.0155   19.4498 N   0  0  0  0  0  0  0  0  0  0  0  0
    9.5303  -15.8955   22.8683 C   0  0  0  0  0  0  0  0  0  0  0  0
   10.7745  -15.9391   22.7404 O   0  0  0  0  0  0  0  0  0  0  0  0
    8.9351  -15.6407   24.1194 N   0  0  0  0  0  0  0  0  0  0  0  0
    9.8000  -15.3842   25.2651 C   0  0  1  0  0  0  0  0  0  0  0  0
    9.7133  -13.9219   25.6022 C   0  0  0  0  0  0  0  0  0  0  0  0
    8.3467  -13.4746   25.9187 C   0  0  0  0  0  0  0  0  0  0  0  0
    7.3640  -13.3851   24.9440 C   0  0  0  0  0  0  0  0  0  0  0  0
    6.0843  -12.9728   25.2308 C   0  0  0  0  0  0  0  0  0  0  0  0
    5.7549  -12.6348   26.5230 C   0  0  0  0  0  0  0  0  0  0  0  0
    6.7248  -12.7154   27.5247 C   0  0  0  0  0  0  0  0  0  0  0  0
    7.9981  -13.1285   27.2250 C   0  0  0  0  0  0  0  0  0  0  0  0
    9.4055  -16.2249   26.4148 C   0  0  0  0  0  0  0  0  0  0  0  0
    8.3560  -17.1128   26.3716 O   0  0  0  0  0  0  0  0  0  0  0  0
   10.0321  -16.1613   27.5179 O   0  0  0  0  0  0  0  0  0  0  0  0
  2  1  1  0
  3  2  1  0
  3  4  2  0
  5  3  1  0
  6  5  1  0
  6 13  1  0
  6  7  1  6
  8  7  1  0
  9  8  2  0
 10 11  1  0
 10  9  1  0
 11 12  2  0
 12  8  1  0
 13 15  1  0
 13 14  2  0
 15 16  1  0
 16 17  1  1
 16 24  1  0
 18 17  1  0
 19 18  2  0
 20 19  1  0
 21 20  2  0
 21 22  1  0
 22 23  2  0
 23 18  1  0
 24 26  2  0
 24 25  1  0
M  END
$$$$
