DVS.pdb
     RDKit          3D

 22 21  0  0  1  0  0  0  0  0999 V2000
   17.3110  -12.7878  -15.9510 N   0  0  0  0  0  0  0  0  0  0  0  0
   17.2194  -11.3529  -15.9615 C   0  0  1  0  0  0  0  0  0  0  0  0
   16.1657  -10.9230  -14.9485 C   0  0  0  0  0  0  0  0  0  0  0  0
   14.8147  -11.3844  -15.3558 C   0  0  0  0  0  0  0  0  0  0  0  0
   13.9133  -11.6164  -14.4967 O   0  0  0  0  0  0  0  0  0  0  0  0
   18.5396  -10.7493  -15.6319 C   0  0  0  0  0  0  0  0  0  0  0  0
   19.1735  -11.1711  -14.6445 O   0  0  0  0  0  0  0  0  0  0  0  0
   14.5529  -11.5585  -16.7022 O   0  0  0  0  0  0  0  0  0  0  0  0
   20.6962   -8.4325  -18.6404 C   0  0  0  0  0  0  0  0  0  0  0  0
   21.2922   -9.2339  -17.4864 C   0  0  2  0  0  0  0  0  0  0  0  0
   21.5189  -10.6384  -17.9732 C   0  0  0  0  0  0  0  0  0  0  0  0
   20.4068   -9.1406  -16.2647 C   0  0  2  0  0  0  0  0  0  0  0  0
   19.1034   -9.7018  -16.4106 N   0  0  0  0  0  0  0  0  0  0  0  0
   20.4571   -7.8075  -15.6161 C   0  0  0  0  0  0  0  0  0  0  0  0
   19.6217   -6.9079  -15.9701 O   0  0  0  0  0  0  0  0  0  0  0  0
   22.5965   -4.6518  -12.4939 O   0  0  0  0  0  0  0  0  0  0  0  0
   22.3958   -5.9349  -12.9402 C   0  0  0  0  0  0  0  0  0  0  0  0
   21.5422   -6.0282  -14.1885 C   0  0  2  0  0  0  0  0  0  0  0  0
   21.3674   -7.4083  -14.6110 N   0  0  0  0  0  0  0  0  0  0  0  0
   21.9851   -5.1431  -15.2671 C   0  0  0  0  0  0  0  0  0  0  0  0
   21.4750   -4.0185  -15.4217 O   0  0  0  0  0  0  0  0  0  0  0  0
   22.9805   -5.5587  -16.1240 O   0  0  0  0  0  0  0  0  0  0  0  0
  2  1  1  1
  2  6  1  0
  2  3  1  0
  3  4  1  0
  4  5  2  0
  4  8  1  0
  6  7  2  0
  6 13  1  0
 10  9  1  6
 10 12  1  0
 11 10  1  0
 12 14  1  0
 12 13  1  6
 14 15  2  0
 14 19  1  0
 16 17  1  0
 18 20  1  0
 18 17  1  1
 19 18  1  0
 20 22  1  0
 21 20  2  0
M  END
$$$$
