DVS.pdb
     RDKit          3D

 22 21  0  0  1  0  0  0  0  0999 V2000
   16.8465  -11.2533  -16.5765 N   0  0  0  0  0  0  0  0  0  0  0  0
   18.0106  -10.6440  -17.1605 C   0  0  1  0  0  0  0  0  0  0  0  0
   17.5599   -9.6339  -18.2084 C   0  0  0  0  0  0  0  0  0  0  0  0
   16.9282  -10.3135  -19.3673 C   0  0  0  0  0  0  0  0  0  0  0  0
   17.0085  -11.5688  -19.5160 O   0  0  0  0  0  0  0  0  0  0  0  0
   18.8270   -9.9784  -16.1087 C   0  0  0  0  0  0  0  0  0  0  0  0
   18.2558   -9.4720  -15.1228 O   0  0  0  0  0  0  0  0  0  0  0  0
   16.2431   -9.5465  -20.2914 O   0  0  0  0  0  0  0  0  0  0  0  0
   22.0330  -11.4851  -14.4106 C   0  0  0  0  0  0  0  0  0  0  0  0
   22.3805  -10.0974  -14.9423 C   0  0  2  0  0  0  0  0  0  0  0  0
   23.2946   -9.4406  -13.9452 C   0  0  0  0  0  0  0  0  0  0  0  0
   21.1222   -9.3125  -15.2348 C   0  0  2  0  0  0  0  0  0  0  0  0
   20.2441   -9.9008  -16.1930 N   0  0  0  0  0  0  0  0  0  0  0  0
   21.3748   -7.8613  -15.4093 C   0  0  0  0  0  0  0  0  0  0  0  0
   22.0336   -7.4592  -16.4275 O   0  0  0  0  0  0  0  0  0  0  0  0
   20.1518   -3.2534  -14.8862 O   0  0  0  0  0  0  0  0  0  0  0  0
   19.9517   -4.6017  -14.7189 C   0  0  0  0  0  0  0  0  0  0  0  0
   21.2232   -5.4247  -14.7603 C   0  0  2  0  0  0  0  0  0  0  0  0
   20.9511   -6.8349  -14.5345 N   0  0  0  0  0  0  0  0  0  0  0  0
   22.2896   -4.8961  -13.9081 C   0  0  0  0  0  0  0  0  0  0  0  0
   23.0375   -3.9861  -14.3100 O   0  0  0  0  0  0  0  0  0  0  0  0
   22.4695   -5.4115  -12.6433 O   0  0  0  0  0  0  0  0  0  0  0  0
  2  1  1  1
  2  6  1  0
  2  3  1  0
  3  4  1  0
  4  5  2  0
  4  8  1  0
  6  7  2  0
  6 13  1  0
 10  9  1  1
 10 12  1  0
 11 10  1  0
 12 14  1  0
 12 13  1  6
 14 15  2  0
 14 19  1  0
 16 17  1  0
 18 20  1  0
 18 17  1  1
 19 18  1  0
 20 22  1  0
 21 20  2  0
M  END
$$$$
