DVS.pdb
     RDKit          3D

 22 21  0  0  1  0  0  0  0  0999 V2000
   14.6677  -24.2348  -10.5444 N   0  0  0  0  0  0  0  0  0  0  0  0
   14.6436  -23.7641   -9.1860 C   0  0  1  0  0  0  0  0  0  0  0  0
   13.1942  -23.5462   -8.7698 C   0  0  0  0  0  0  0  0  0  0  0  0
   12.6481  -22.3031   -9.3700 C   0  0  0  0  0  0  0  0  0  0  0  0
   13.4057  -21.4564   -9.9299 O   0  0  0  0  0  0  0  0  0  0  0  0
   15.3041  -24.7494   -8.2868 C   0  0  0  0  0  0  0  0  0  0  0  0
   15.0777  -25.9655   -8.4436 O   0  0  0  0  0  0  0  0  0  0  0  0
   11.2848  -22.0816   -9.3078 O   0  0  0  0  0  0  0  0  0  0  0  0
   19.0799  -24.9098   -7.5886 C   0  0  0  0  0  0  0  0  0  0  0  0
   18.3889  -24.8794   -6.2282 C   0  0  2  0  0  0  0  0  0  0  0  0
   19.1346  -25.8124   -5.3147 C   0  0  0  0  0  0  0  0  0  0  0  0
   16.9196  -25.2034   -6.3738 C   0  0  2  0  0  0  0  0  0  0  0  0
   16.1889  -24.3462   -7.2494 N   0  0  0  0  0  0  0  0  0  0  0  0
   16.2625  -25.4986   -5.0772 C   0  0  0  0  0  0  0  0  0  0  0  0
   15.8435  -24.5322   -4.3540 O   0  0  0  0  0  0  0  0  0  0  0  0
   14.6989  -28.7558   -1.7231 O   0  0  0  0  0  0  0  0  0  0  0  0
   15.2690  -28.4855   -2.9428 C   0  0  0  0  0  0  0  0  0  0  0  0
   15.5055  -27.0113   -3.2010 C   0  0  2  0  0  0  0  0  0  0  0  0
   16.0439  -26.7846   -4.5323 N   0  0  0  0  0  0  0  0  0  0  0  0
   16.2722  -26.3485   -2.1447 C   0  0  0  0  0  0  0  0  0  0  0  0
   17.5160  -26.3207   -2.1787 O   0  0  0  0  0  0  0  0  0  0  0  0
   15.6097  -25.7464   -1.0976 O   0  0  0  0  0  0  0  0  0  0  0  0
  2  1  1  6
  2  6  1  0
  2  3  1  0
  3  4  1  0
  4  5  2  0
  4  8  1  0
  6  7  2  0
  6 13  1  0
 10  9  1  6
 10 12  1  0
 11 10  1  0
 12 14  1  0
 12 13  1  1
 14 15  2  0
 14 19  1  0
 16 17  1  0
 18 20  1  0
 18 17  1  1
 19 18  1  0
 20 22  1  0
 21 20  2  0
M  END
$$$$
