DVS.pdb
     RDKit          3D

 22 21  0  0  1  0  0  0  0  0999 V2000
   16.4202  -10.0962  -12.8675 N   0  0  0  0  0  0  0  0  0  0  0  0
   17.1337   -9.0319  -12.2151 C   0  0  1  0  0  0  0  0  0  0  0  0
   17.9743   -8.2988  -13.2531 C   0  0  0  0  0  0  0  0  0  0  0  0
   19.0554   -9.1713  -13.7766 C   0  0  0  0  0  0  0  0  0  0  0  0
   18.8419   -9.9851  -14.7234 O   0  0  0  0  0  0  0  0  0  0  0  0
   16.1790   -8.0969  -11.5594 C   0  0  0  0  0  0  0  0  0  0  0  0
   15.2048   -7.6662  -12.2077 O   0  0  0  0  0  0  0  0  0  0  0  0
   20.3126   -9.0805  -13.2084 O   0  0  0  0  0  0  0  0  0  0  0  0
   14.2377   -8.5950   -8.2744 C   0  0  0  0  0  0  0  0  0  0  0  0
   15.0436   -7.3073   -8.1275 C   0  0  2  0  0  0  0  0  0  0  0  0
   14.2065   -6.3291   -7.3507 C   0  0  0  0  0  0  0  0  0  0  0  0
   15.4843   -6.8016   -9.4822 C   0  0  2  0  0  0  0  0  0  0  0  0
   16.3434   -7.6767  -10.2111 N   0  0  0  0  0  0  0  0  0  0  0  0
   15.8969   -5.3770   -9.4600 C   0  0  0  0  0  0  0  0  0  0  0  0
   17.0044   -5.0552   -8.9103 O   0  0  0  0  0  0  0  0  0  0  0  0
   15.9013   -0.9345  -11.3290 O   0  0  0  0  0  0  0  0  0  0  0  0
   15.5055   -2.2494  -11.3138 C   0  0  0  0  0  0  0  0  0  0  0  0
   15.6267   -2.9153   -9.9582 C   0  0  2  0  0  0  0  0  0  0  0  0
   15.1667   -4.2938  -10.0002 N   0  0  0  0  0  0  0  0  0  0  0  0
   15.0314   -2.1381   -8.8699 C   0  0  0  0  0  0  0  0  0  0  0  0
   13.8409   -2.3002   -8.5453 O   0  0  0  0  0  0  0  0  0  0  0  0
   15.7978   -1.2141   -8.1943 O   0  0  0  0  0  0  0  0  0  0  0  0
  2  1  1  6
  2  6  1  0
  2  3  1  0
  3  4  1  0
  4  5  2  0
  4  8  1  0
  6  7  2  0
  6 13  1  0
 10  9  1  6
 10 12  1  0
 11 10  1  0
 12 14  1  0
 12 13  1  1
 14 15  2  0
 14 19  1  0
 16 17  1  0
 18 20  1  0
 18 17  1  6
 19 18  1  0
 20 22  1  0
 21 20  2  0
M  END
$$$$
