DVS.pdb
     RDKit          3D

 22 21  0  0  1  0  0  0  0  0999 V2000
   22.8132  -12.6086  -20.3531 N   0  0  0  0  0  0  0  0  0  0  0  0
   23.5564  -11.3829  -20.2400 C   0  0  1  0  0  0  0  0  0  0  0  0
   22.9058  -10.3329  -21.1320 C   0  0  0  0  0  0  0  0  0  0  0  0
   23.0414  -10.6930  -22.5659 C   0  0  0  0  0  0  0  0  0  0  0  0
   24.0961  -10.4239  -23.2136 O   0  0  0  0  0  0  0  0  0  0  0  0
   23.5822  -10.9240  -18.8242 C   0  0  0  0  0  0  0  0  0  0  0  0
   22.6067  -11.1671  -18.0866 O   0  0  0  0  0  0  0  0  0  0  0  0
   21.9871  -11.3339  -23.1898 O   0  0  0  0  0  0  0  0  0  0  0  0
   26.3298  -11.5795  -16.2303 C   0  0  0  0  0  0  0  0  0  0  0  0
   26.1193  -10.0682  -16.2589 C   0  0  2  0  0  0  0  0  0  0  0  0
   26.2132   -9.5658  -14.8447 C   0  0  0  0  0  0  0  0  0  0  0  0
   24.8176   -9.7283  -16.9483 C   0  0  2  0  0  0  0  0  0  0  0  0
   24.6888  -10.2135  -18.2837 N   0  0  0  0  0  0  0  0  0  0  0  0
   24.4056   -8.3186  -16.7405 C   0  0  0  0  0  0  0  0  0  0  0  0
   25.1482   -7.3782  -17.1839 O   0  0  0  0  0  0  0  0  0  0  0  0
   21.9893   -6.1327  -18.0589 O   0  0  0  0  0  0  0  0  0  0  0  0
   21.7532   -6.0361  -16.7095 C   0  0  0  0  0  0  0  0  0  0  0  0
   22.9134   -6.4873  -15.8456 C   0  0  2  0  0  0  0  0  0  0  0  0
   23.2351   -7.8862  -16.0762 N   0  0  0  0  0  0  0  0  0  0  0  0
   22.7512   -6.1553  -14.4292 C   0  0  0  0  0  0  0  0  0  0  0  0
   22.7196   -4.9704  -14.0497 O   0  0  0  0  0  0  0  0  0  0  0  0
   22.6316   -7.1669  -13.5017 O   0  0  0  0  0  0  0  0  0  0  0  0
  2  1  1  1
  2  6  1  0
  2  3  1  0
  3  4  1  0
  4  5  2  0
  4  8  1  0
  6  7  2  0
  6 13  1  0
 10  9  1  1
 10 12  1  0
 11 10  1  0
 12 14  1  0
 12 13  1  6
 14 15  2  0
 14 19  1  0
 16 17  1  0
 18 20  1  0
 18 17  1  6
 19 18  1  0
 20 22  1  0
 21 20  2  0
M  END
$$$$
