DVS.pdb
     RDKit          3D

 22 21  0  0  1  0  0  0  0  0999 V2000
   15.3022  -13.9689  -14.8337 N   0  0  0  0  0  0  0  0  0  0  0  0
   16.1702  -13.2336  -13.9541 C   0  0  1  0  0  0  0  0  0  0  0  0
   17.5704  -13.2125  -14.5546 C   0  0  0  0  0  0  0  0  0  0  0  0
   18.1571  -14.5758  -14.5876 C   0  0  0  0  0  0  0  0  0  0  0  0
   17.7439  -15.4875  -13.8115 O   0  0  0  0  0  0  0  0  0  0  0  0
   15.6602  -11.8479  -13.7659 C   0  0  0  0  0  0  0  0  0  0  0  0
   15.1311  -11.2569  -14.7280 O   0  0  0  0  0  0  0  0  0  0  0  0
   19.1724  -14.8377  -15.4888 O   0  0  0  0  0  0  0  0  0  0  0  0
   13.3660  -10.7234  -10.9170 C   0  0  0  0  0  0  0  0  0  0  0  0
   14.5057   -9.7089  -10.9516 C   0  0  2  0  0  0  0  0  0  0  0  0
   13.9092   -8.3431  -10.7522 C   0  0  0  0  0  0  0  0  0  0  0  0
   15.3033   -9.8526  -12.2276 C   0  0  2  0  0  0  0  0  0  0  0  0
   15.7581  -11.1732  -12.5183 N   0  0  0  0  0  0  0  0  0  0  0  0
   16.3119   -8.7790  -12.4016 C   0  0  0  0  0  0  0  0  0  0  0  0
   17.5271   -9.0042  -12.0773 O   0  0  0  0  0  0  0  0  0  0  0  0
   18.8041   -6.6117  -15.2111 O   0  0  0  0  0  0  0  0  0  0  0  0
   17.8539   -7.3753  -14.5788 C   0  0  0  0  0  0  0  0  0  0  0  0
   17.0906   -6.6397  -13.4962 C   0  0  2  0  0  0  0  0  0  0  0  0
   16.0635   -7.4815  -12.9045 N   0  0  0  0  0  0  0  0  0  0  0  0
   16.5939   -5.3291  -13.9187 C   0  0  0  0  0  0  0  0  0  0  0  0
   15.5275   -5.2230  -14.5514 O   0  0  0  0  0  0  0  0  0  0  0  0
   17.3154   -4.1962  -13.6127 O   0  0  0  0  0  0  0  0  0  0  0  0
  2  1  1  6
  2  6  1  0
  2  3  1  0
  3  4  1  0
  4  5  2  0
  4  8  1  0
  6  7  2  0
  6 13  1  0
 10  9  1  6
 10 12  1  0
 11 10  1  0
 12 14  1  0
 12 13  1  1
 14 15  2  0
 14 19  1  0
 16 17  1  0
 18 20  1  0
 18 17  1  6
 19 18  1  0
 20 22  1  0
 21 20  2  0
M  END
$$$$
