DVS.pdb
     RDKit          3D

 22 21  0  0  1  0  0  0  0  0999 V2000
   20.6050  -12.0393  -19.0358 N   0  0  0  0  0  0  0  0  0  0  0  0
   21.2697  -10.7729  -18.8874 C   0  0  1  0  0  0  0  0  0  0  0  0
   20.8748   -9.8741  -20.0526 C   0  0  0  0  0  0  0  0  0  0  0  0
   21.3773  -10.4176  -21.3395 C   0  0  0  0  0  0  0  0  0  0  0  0
   20.5806  -10.8212  -22.2376 O   0  0  0  0  0  0  0  0  0  0  0  0
   20.8970  -10.1435  -17.5910 C   0  0  0  0  0  0  0  0  0  0  0  0
   19.6998  -10.1273  -17.2428 O   0  0  0  0  0  0  0  0  0  0  0  0
   22.7433  -10.4767  -21.5446 O   0  0  0  0  0  0  0  0  0  0  0  0
   22.5858  -10.7142  -14.1423 C   0  0  0  0  0  0  0  0  0  0  0  0
   22.5481   -9.2057  -14.3707 C   0  0  2  0  0  0  0  0  0  0  0  0
   22.1841   -8.5538  -13.0655 C   0  0  0  0  0  0  0  0  0  0  0  0
   21.6148   -8.8664  -15.5104 C   0  0  2  0  0  0  0  0  0  0  0  0
   21.8672   -9.5569  -16.7330 N   0  0  0  0  0  0  0  0  0  0  0  0
   21.3695   -7.4093  -15.6410 C   0  0  0  0  0  0  0  0  0  0  0  0
   22.2562   -6.6729  -16.1923 O   0  0  0  0  0  0  0  0  0  0  0  0
   19.6668   -3.8607  -17.4557 O   0  0  0  0  0  0  0  0  0  0  0  0
   20.0904   -5.0985  -17.0385 C   0  0  0  0  0  0  0  0  0  0  0  0
   19.9239   -5.3396  -15.5519 C   0  0  2  0  0  0  0  0  0  0  0  0
   20.2164   -6.7199  -15.2013 N   0  0  0  0  0  0  0  0  0  0  0  0
   18.6442   -4.8655  -15.0225 C   0  0  0  0  0  0  0  0  0  0  0  0
   17.7212   -5.6619  -14.7722 O   0  0  0  0  0  0  0  0  0  0  0  0
   18.4568   -3.5194  -14.7974 O   0  0  0  0  0  0  0  0  0  0  0  0
  2  1  1  6
  2  6  1  0
  2  3  1  0
  3  4  1  0
  4  5  2  0
  4  8  1  0
  6  7  2  0
  6 13  1  0
 10  9  1  1
 10 12  1  0
 11 10  1  0
 12 14  1  0
 12 13  1  6
 14 15  2  0
 14 19  1  0
 16 17  1  0
 18 20  1  0
 18 17  1  6
 19 18  1  0
 20 22  1  0
 21 20  2  0
M  END
$$$$
