QPP.pdb
     RDKit          3D

 24 25  0  0  1  0  0  0  0  0999 V2000
    7.1644  -19.2664   23.8879 N   0  0  0  0  0  0  0  0  0  0  0  0
    8.5469  -19.3641   24.2722 C   0  0  0  0  0  0  0  0  0  0  0  0
    8.8158  -19.6983   25.4359 O   0  0  0  0  0  0  0  0  0  0  0  0
    9.5857  -19.0655   23.2713 C   0  0  0  0  0  0  0  0  0  0  0  0
    9.0827  -18.6282   21.9372 C   0  0  0  0  0  0  0  0  0  0  0  0
    9.8418  -17.4455   21.3508 C   0  0  2  0  0  0  0  0  0  0  0  0
   11.2618  -17.7591   21.2811 N   0  0  0  0  0  0  0  0  0  0  0  0
    9.6085  -16.2163   22.1472 C   0  0  0  0  0  0  0  0  0  0  0  0
   10.5361  -15.8265   22.8959 O   0  0  0  0  0  0  0  0  0  0  0  0
    8.4139  -15.4729   22.1060 N   0  0  0  0  0  0  0  0  0  0  0  0
    7.3254  -15.6927   21.1834 C   0  0  0  0  0  0  0  0  0  0  0  0
    6.8757  -14.2357   20.9741 C   0  0  0  0  0  0  0  0  0  0  0  0
    6.7339  -13.8436   22.4525 C   0  0  0  0  0  0  0  0  0  0  0  0
    8.0666  -14.3539   22.9725 C   0  0  1  0  0  0  0  0  0  0  0  0
    7.8995  -14.7557   24.3663 C   0  0  0  0  0  0  0  0  0  0  0  0
    7.9237  -15.9549   24.7542 O   0  0  0  0  0  0  0  0  0  0  0  0
    7.6967  -13.7144   25.3475 N   0  0  0  0  0  0  0  0  0  0  0  0
    7.6540  -12.2966   25.0809 C   0  0  0  0  0  0  0  0  0  0  0  0
    8.1032  -11.6520   26.3943 C   0  0  0  0  0  0  0  0  0  0  0  0
    7.5336  -12.5906   27.4275 C   0  0  0  0  0  0  0  0  0  0  0  0
    7.5085  -13.9111   26.7532 C   0  0  1  0  0  0  0  0  0  0  0  0
    6.2622  -14.6835   27.0457 C   0  0  0  0  0  0  0  0  0  0  0  0
    5.1797  -14.6885   26.2171 O   0  0  0  0  0  0  0  0  0  0  0  0
    6.2363  -15.3499   28.1091 O   0  0  0  0  0  0  0  0  0  0  0  0
  2  3  2  0
  2  1  1  0
  4  2  1  0
  5  4  1  0
  6  5  1  0
  6  7  1  1
  8  6  1  0
  9  8  2  0
 10  8  1  0
 10 14  1  0
 11 10  1  0
 12 13  1  0
 12 11  1  0
 13 14  1  0
 14 15  1  1
 15 16  2  0
 15 17  1  0
 17 21  1  0
 18 17  1  0
 18 19  1  0
 19 20  1  0
 21 20  1  0
 22 23  1  0
 21 22  1  6
 24 22  2  0
M  END
$$$$
