QPP.pdb
     RDKit          3D

 24 25  0  0  1  0  0  0  0  0999 V2000
    5.7970  -18.7016   23.0379 N   0  0  0  0  0  0  0  0  0  0  0  0
    7.2022  -18.4060   23.1177 C   0  0  0  0  0  0  0  0  0  0  0  0
    7.9094  -19.0903   23.8727 O   0  0  0  0  0  0  0  0  0  0  0  0
    7.7447  -17.3063   22.3012 C   0  0  0  0  0  0  0  0  0  0  0  0
    6.8344  -16.1407   22.1109 C   0  0  0  0  0  0  0  0  0  0  0  0
    7.5545  -14.8002   22.0549 C   0  0  2  0  0  0  0  0  0  0  0  0
    8.5091  -14.8010   20.9556 N   0  0  0  0  0  0  0  0  0  0  0  0
    8.2286  -14.5045   23.3425 C   0  0  0  0  0  0  0  0  0  0  0  0
    9.4805  -14.5756   23.3705 O   0  0  0  0  0  0  0  0  0  0  0  0
    7.5440  -14.1518   24.5206 N   0  0  0  0  0  0  0  0  0  0  0  0
    6.1086  -14.0996   24.6682 C   0  0  0  0  0  0  0  0  0  0  0  0
    5.9983  -12.9015   25.6278 C   0  0  0  0  0  0  0  0  0  0  0  0
    6.9928  -13.3902   26.6917 C   0  0  0  0  0  0  0  0  0  0  0  0
    8.1530  -13.7717   25.7888 C   0  0  1  0  0  0  0  0  0  0  0  0
    8.8847  -14.8717   26.4106 C   0  0  0  0  0  0  0  0  0  0  0  0
    8.8235  -16.0651   26.0093 O   0  0  0  0  0  0  0  0  0  0  0  0
    9.7229  -14.5653   27.5472 N   0  0  0  0  0  0  0  0  0  0  0  0
    9.7919  -13.2960   28.2305 C   0  0  0  0  0  0  0  0  0  0  0  0
   11.2009  -13.2650   28.8274 C   0  0  0  0  0  0  0  0  0  0  0  0
   11.4368  -14.7123   29.1772 C   0  0  0  0  0  0  0  0  0  0  0  0
   10.6323  -15.4677   28.1865 C   0  0  1  0  0  0  0  0  0  0  0  0
    9.9239  -16.6371   28.7915 C   0  0  0  0  0  0  0  0  0  0  0  0
   10.5639  -17.7818   29.1638 O   0  0  0  0  0  0  0  0  0  0  0  0
    8.6834  -16.5355   28.9535 O   0  0  0  0  0  0  0  0  0  0  0  0
  2  3  2  0
  2  1  1  0
  4  2  1  0
  5  4  1  0
  6  5  1  0
  6  7  1  6
  8  6  1  0
  9  8  2  0
 10  8  1  0
 10 14  1  0
 11 10  1  0
 12 13  1  0
 12 11  1  0
 13 14  1  0
 14 15  1  1
 15 16  2  0
 15 17  1  0
 17 21  1  0
 18 17  1  0
 18 19  1  0
 19 20  1  0
 21 20  1  0
 22 23  1  0
 21 22  1  1
 24 22  2  0
M  END
$$$$
