QPP.pdb
     RDKit          3D

 24 25  0  0  1  0  0  0  0  0999 V2000
    6.2231  -19.6164   22.2679 N   0  0  0  0  0  0  0  0  0  0  0  0
    7.5156  -18.9861   22.2450 C   0  0  0  0  0  0  0  0  0  0  0  0
    8.4721  -19.5771   22.7685 O   0  0  0  0  0  0  0  0  0  0  0  0
    7.6523  -17.6680   21.6014 C   0  0  0  0  0  0  0  0  0  0  0  0
    7.0569  -16.5246   22.3510 C   0  0  0  0  0  0  0  0  0  0  0  0
    7.7631  -15.1970   22.1108 C   0  0  2  0  0  0  0  0  0  0  0  0
    8.7438  -15.3481   21.0456 N   0  0  0  0  0  0  0  0  0  0  0  0
    8.4024  -14.7021   23.3542 C   0  0  0  0  0  0  0  0  0  0  0  0
    9.6554  -14.6559   23.3824 O   0  0  0  0  0  0  0  0  0  0  0  0
    7.6839  -14.2859   24.4908 N   0  0  0  0  0  0  0  0  0  0  0  0
    6.2461  -14.1879   24.5797 C   0  0  0  0  0  0  0  0  0  0  0  0
    6.1346  -12.9517   25.4896 C   0  0  0  0  0  0  0  0  0  0  0  0
    7.0727  -13.4276   26.6090 C   0  0  0  0  0  0  0  0  0  0  0  0
    8.2549  -13.8755   25.7671 C   0  0  1  0  0  0  0  0  0  0  0  0
    8.9294  -14.9713   26.4572 C   0  0  0  0  0  0  0  0  0  0  0  0
    8.8226  -16.1805   26.1172 O   0  0  0  0  0  0  0  0  0  0  0  0
    9.7634  -14.6415   27.5902 N   0  0  0  0  0  0  0  0  0  0  0  0
    9.8357  -13.3562   28.2427 C   0  0  0  0  0  0  0  0  0  0  0  0
   11.2418  -13.3178   28.8458 C   0  0  0  0  0  0  0  0  0  0  0  0
   11.4683  -14.7573   29.2322 C   0  0  0  0  0  0  0  0  0  0  0  0
   10.6649  -15.5326   28.2562 C   0  0  1  0  0  0  0  0  0  0  0  0
    9.9473  -16.6832   28.8859 C   0  0  0  0  0  0  0  0  0  0  0  0
   10.5860  -17.8004   29.3357 O   0  0  0  0  0  0  0  0  0  0  0  0
    8.7002  -16.5920   28.9938 O   0  0  0  0  0  0  0  0  0  0  0  0
  2  3  2  0
  2  1  1  0
  4  2  1  0
  5  4  1  0
  6  5  1  0
  6  7  1  6
  8  6  1  0
  9  8  2  0
 10  8  1  0
 10 14  1  0
 11 10  1  0
 12 13  1  0
 12 11  1  0
 13 14  1  0
 14 15  1  1
 15 16  2  0
 15 17  1  0
 17 21  1  0
 18 17  1  0
 18 19  1  0
 19 20  1  0
 21 20  1  0
 22 23  1  0
 21 22  1  1
 24 22  2  0
M  END
$$$$
