QPP.pdb
     RDKit          3D

 24 25  0  0  1  0  0  0  0  0999 V2000
   11.8864  -21.7728   21.9659 N   0  0  0  0  0  0  0  0  0  0  0  0
   11.6130  -20.4452   22.4467 C   0  0  0  0  0  0  0  0  0  0  0  0
   12.0739  -20.1074   23.5475 O   0  0  0  0  0  0  0  0  0  0  0  0
   10.7998  -19.5414   21.6147 C   0  0  0  0  0  0  0  0  0  0  0  0
   10.4377  -18.2406   22.2477 C   0  0  0  0  0  0  0  0  0  0  0  0
   10.3915  -17.0730   21.2713 C   0  0  2  0  0  0  0  0  0  0  0  0
   11.7122  -16.8606   20.6968 N   0  0  0  0  0  0  0  0  0  0  0  0
    9.8984  -15.8427   21.9367 C   0  0  0  0  0  0  0  0  0  0  0  0
   10.7536  -15.0650   22.4234 O   0  0  0  0  0  0  0  0  0  0  0  0
    8.5362  -15.5064   22.0484 N   0  0  0  0  0  0  0  0  0  0  0  0
    7.4582  -16.1394   21.3260 C   0  0  0  0  0  0  0  0  0  0  0  0
    6.5467  -14.9176   21.1138 C   0  0  0  0  0  0  0  0  0  0  0  0
    6.4906  -14.4395   22.5725 C   0  0  0  0  0  0  0  0  0  0  0  0
    7.9740  -14.4644   22.8980 C   0  0  1  0  0  0  0  0  0  0  0  0
    8.1337  -14.7545   24.3201 C   0  0  0  0  0  0  0  0  0  0  0  0
    8.6144  -15.8327   24.7623 O   0  0  0  0  0  0  0  0  0  0  0  0
    7.7157  -13.7438   25.2645 N   0  0  0  0  0  0  0  0  0  0  0  0
    7.1653  -12.4514   24.9332 C   0  0  0  0  0  0  0  0  0  0  0  0
    7.5308  -11.5680   26.1284 C   0  0  0  0  0  0  0  0  0  0  0  0
    7.4437  -12.5330   27.2834 C   0  0  0  0  0  0  0  0  0  0  0  0
    7.7811  -13.8499   26.6909 C   0  0  1  0  0  0  0  0  0  0  0  0
    6.9144  -14.9531   27.2079 C   0  0  0  0  0  0  0  0  0  0  0  0
    7.1979  -15.6495   28.3450 O   0  0  0  0  0  0  0  0  0  0  0  0
    5.8845  -15.2315   26.5467 O   0  0  0  0  0  0  0  0  0  0  0  0
  2  3  2  0
  2  1  1  0
  4  2  1  0
  5  4  1  0
  6  5  1  0
  6  7  1  1
  8  6  1  0
  9  8  2  0
 10  8  1  0
 10 14  1  0
 11 10  1  0
 12 13  1  0
 12 11  1  0
 13 14  1  0
 14 15  1  1
 15 16  2  0
 15 17  1  0
 17 21  1  0
 18 17  1  0
 18 19  1  0
 19 20  1  0
 21 20  1  0
 22 23  1  0
 21 22  1  1
 24 22  2  0
M  END
$$$$
