QPP.pdb
     RDKit          3D

 24 25  0  0  1  0  0  0  0  0999 V2000
   13.0239  -15.7422   19.8046 N   0  0  0  0  0  0  0  0  0  0  0  0
   12.8341  -14.4190   20.3351 C   0  0  0  0  0  0  0  0  0  0  0  0
   13.7955  -13.8558   20.8799 O   0  0  0  0  0  0  0  0  0  0  0  0
   11.5097  -13.7862   20.2097 C   0  0  0  0  0  0  0  0  0  0  0  0
   10.4511  -14.6338   19.5894 C   0  0  0  0  0  0  0  0  0  0  0  0
    9.0846  -13.9647   19.5278 C   0  0  2  0  0  0  0  0  0  0  0  0
    9.1936  -12.6881   18.8365 N   0  0  0  0  0  0  0  0  0  0  0  0
    8.5186  -13.7854   20.8868 C   0  0  0  0  0  0  0  0  0  0  0  0
    8.7501  -12.7005   21.4721 O   0  0  0  0  0  0  0  0  0  0  0  0
    7.7435  -14.7582   21.5458 N   0  0  0  0  0  0  0  0  0  0  0  0
    7.4590  -16.0808   21.0415 C   0  0  0  0  0  0  0  0  0  0  0  0
    6.0262  -16.2508   21.5771 C   0  0  0  0  0  0  0  0  0  0  0  0
    6.3046  -15.8902   23.0441 C   0  0  0  0  0  0  0  0  0  0  0  0
    7.0884  -14.6056   22.8385 C   0  0  1  0  0  0  0  0  0  0  0  0
    8.0410  -14.4608   23.9355 C   0  0  0  0  0  0  0  0  0  0  0  0
    9.2083  -14.9362   23.9129 O   0  0  0  0  0  0  0  0  0  0  0  0
    7.6133  -13.7302   25.1066 N   0  0  0  0  0  0  0  0  0  0  0  0
    6.3753  -13.0013   25.2444 C   0  0  0  0  0  0  0  0  0  0  0  0
    6.6888  -11.9173   26.2784 C   0  0  0  0  0  0  0  0  0  0  0  0
    7.6568  -12.6170   27.1982 C   0  0  0  0  0  0  0  0  0  0  0  0
    8.3474  -13.6003   26.3291 C   0  0  1  0  0  0  0  0  0  0  0  0
    8.5493  -14.9207   27.0007 C   0  0  0  0  0  0  0  0  0  0  0  0
    9.5864  -15.1715   27.8493 O   0  0  0  0  0  0  0  0  0  0  0  0
    7.7121  -15.8232   26.7557 O   0  0  0  0  0  0  0  0  0  0  0  0
  2  3  2  0
  2  1  1  0
  4  2  1  0
  5  4  1  0
  6  5  1  0
  6  7  1  1
  8  6  1  0
  9  8  2  0
 10  8  1  0
 10 14  1  0
 11 10  1  0
 12 13  1  0
 12 11  1  0
 13 14  1  0
 14 15  1  1
 15 16  2  0
 15 17  1  0
 17 21  1  0
 18 17  1  0
 18 19  1  0
 19 20  1  0
 21 20  1  0
 22 23  1  0
 21 22  1  1
 24 22  2  0
M  END
$$$$
