QPP.pdb
     RDKit          3D

 24 25  0  0  1  0  0  0  0  0999 V2000
   11.0577  -18.8630   21.8349 N   0  0  0  0  0  0  0  0  0  0  0  0
    9.6452  -18.5954   21.8793 C   0  0  0  0  0  0  0  0  0  0  0  0
    8.9167  -19.3652   22.5234 O   0  0  0  0  0  0  0  0  0  0  0  0
    9.1215  -17.4205   21.1613 C   0  0  0  0  0  0  0  0  0  0  0  0
    8.0863  -16.6331   21.8909 C   0  0  0  0  0  0  0  0  0  0  0  0
    8.3078  -15.1275   21.8379 C   0  0  2  0  0  0  0  0  0  0  0  0
    9.2530  -14.8071   20.7780 N   0  0  0  0  0  0  0  0  0  0  0  0
    8.7829  -14.6135   23.1455 C   0  0  0  0  0  0  0  0  0  0  0  0
   10.0100  -14.3838   23.2663 O   0  0  0  0  0  0  0  0  0  0  0  0
    7.9376  -14.3726   24.2449 N   0  0  0  0  0  0  0  0  0  0  0  0
    6.4968  -14.4648   24.2261 C   0  0  0  0  0  0  0  0  0  0  0  0
    6.1593  -13.3194   25.1970 C   0  0  0  0  0  0  0  0  0  0  0  0
    7.0710  -13.7490   26.3562 C   0  0  0  0  0  0  0  0  0  0  0  0
    8.3582  -13.9829   25.5846 C   0  0  1  0  0  0  0  0  0  0  0  0
    9.1214  -15.0295   26.2586 C   0  0  0  0  0  0  0  0  0  0  0  0
    9.2252  -16.2077   25.8226 O   0  0  0  0  0  0  0  0  0  0  0  0
    9.7916  -14.6859   27.4918 N   0  0  0  0  0  0  0  0  0  0  0  0
    9.6427  -13.4488   28.2201 C   0  0  0  0  0  0  0  0  0  0  0  0
   10.9662  -13.2922   28.9726 C   0  0  0  0  0  0  0  0  0  0  0  0
   11.3244  -14.7198   29.2989 C   0  0  0  0  0  0  0  0  0  0  0  0
   10.7224  -15.5123   28.1995 C   0  0  1  0  0  0  0  0  0  0  0  0
   10.0891  -16.7779   28.6818 C   0  0  0  0  0  0  0  0  0  0  0  0
    8.7389  -16.9534   28.7506 O   0  0  0  0  0  0  0  0  0  0  0  0
   10.8571  -17.7061   29.0338 O   0  0  0  0  0  0  0  0  0  0  0  0
  2  3  2  0
  2  1  1  0
  4  2  1  0
  5  4  1  0
  6  5  1  0
  6  7  1  6
  8  6  1  0
  9  8  2  0
 10  8  1  0
 10 14  1  0
 11 10  1  0
 12 13  1  0
 12 11  1  0
 13 14  1  0
 14 15  1  1
 15 16  2  0
 15 17  1  0
 17 21  1  0
 18 17  1  0
 18 19  1  0
 19 20  1  0
 21 20  1  0
 22 23  1  0
 21 22  1  1
 24 22  2  0
M  END
$$$$
