QPP.pdb
     RDKit          3D

 24 25  0  0  1  0  0  0  0  0999 V2000
    7.0116  -19.0815   20.9742 N   0  0  0  0  0  0  0  0  0  0  0  0
    7.3680  -17.8905   20.2509 C   0  0  0  0  0  0  0  0  0  0  0  0
    8.1453  -17.9917   19.2898 O   0  0  0  0  0  0  0  0  0  0  0  0
    6.7965  -16.6017   20.6782 C   0  0  0  0  0  0  0  0  0  0  0  0
    7.2987  -16.0791   21.9814 C   0  0  0  0  0  0  0  0  0  0  0  0
    7.5726  -14.5811   21.9792 C   0  0  2  0  0  0  0  0  0  0  0  0
    8.3763  -14.2305   20.8171 N   0  0  0  0  0  0  0  0  0  0  0  0
    8.2426  -14.1612   23.2340 C   0  0  0  0  0  0  0  0  0  0  0  0
    9.4937  -14.0728   23.2208 O   0  0  0  0  0  0  0  0  0  0  0  0
    7.5551  -13.8597   24.4246 N   0  0  0  0  0  0  0  0  0  0  0  0
    6.1205  -13.7693   24.5600 C   0  0  0  0  0  0  0  0  0  0  0  0
    6.0371  -12.6300   25.5914 C   0  0  0  0  0  0  0  0  0  0  0  0
    7.0017  -13.2165   26.6330 C   0  0  0  0  0  0  0  0  0  0  0  0
    8.1602  -13.5795   25.7203 C   0  0  1  0  0  0  0  0  0  0  0  0
    8.8480  -14.7396   26.2799 C   0  0  0  0  0  0  0  0  0  0  0  0
    8.7744  -15.8981   25.7885 O   0  0  0  0  0  0  0  0  0  0  0  0
    9.6555  -14.5384   27.4613 N   0  0  0  0  0  0  0  0  0  0  0  0
    9.7346  -13.3232   28.2358 C   0  0  0  0  0  0  0  0  0  0  0  0
   11.1232  -13.3743   28.8773 C   0  0  0  0  0  0  0  0  0  0  0  0
   11.3096  -14.8489   29.1296 C   0  0  0  0  0  0  0  0  0  0  0  0
   10.5194  -15.5091   28.0625 C   0  0  1  0  0  0  0  0  0  0  0  0
    9.7611  -16.6980   28.5593 C   0  0  0  0  0  0  0  0  0  0  0  0
   10.3260  -17.9296   28.7096 O   0  0  0  0  0  0  0  0  0  0  0  0
    8.5506  -16.5285   28.8444 O   0  0  0  0  0  0  0  0  0  0  0  0
  2  3  2  0
  2  1  1  0
  4  2  1  0
  5  4  1  0
  6  5  1  0
  6  7  1  6
  8  6  1  0
  9  8  2  0
 10  8  1  0
 10 14  1  0
 11 10  1  0
 12 13  1  0
 12 11  1  0
 13 14  1  0
 14 15  1  1
 15 16  2  0
 15 17  1  0
 17 21  1  0
 18 17  1  0
 18 19  1  0
 19 20  1  0
 21 20  1  0
 22 23  1  0
 21 22  1  1
 24 22  2  0
M  END
$$$$
