QPP.pdb
     RDKit          3D

 24 25  0  0  1  0  0  0  0  0999 V2000
    7.2286  -19.5023   22.1315 N   0  0  0  0  0  0  0  0  0  0  0  0
    6.6964  -18.7503   23.2360 C   0  0  0  0  0  0  0  0  0  0  0  0
    6.1169  -19.3632   24.1452 O   0  0  0  0  0  0  0  0  0  0  0  0
    6.8614  -17.2864   23.2443 C   0  0  0  0  0  0  0  0  0  0  0  0
    7.5165  -16.7090   22.0355 C   0  0  0  0  0  0  0  0  0  0  0  0
    7.6641  -15.1940   22.0801 C   0  0  2  0  0  0  0  0  0  0  0  0
    8.4368  -14.7419   20.9321 N   0  0  0  0  0  0  0  0  0  0  0  0
    8.2956  -14.7584   23.3494 C   0  0  0  0  0  0  0  0  0  0  0  0
    9.5489  -14.7360   23.3948 O   0  0  0  0  0  0  0  0  0  0  0  0
    7.5697  -14.3729   24.4920 N   0  0  0  0  0  0  0  0  0  0  0  0
    6.1300  -14.3298   24.5910 C   0  0  0  0  0  0  0  0  0  0  0  0
    5.9779  -13.1012   25.5054 C   0  0  0  0  0  0  0  0  0  0  0  0
    6.9412  -13.5442   26.6169 C   0  0  0  0  0  0  0  0  0  0  0  0
    8.1336  -13.9446   25.7656 C   0  0  1  0  0  0  0  0  0  0  0  0
    8.8540  -15.0158   26.4479 C   0  0  0  0  0  0  0  0  0  0  0  0
    8.8243  -16.2210   26.0795 O   0  0  0  0  0  0  0  0  0  0  0  0
    9.6419  -14.6652   27.6074 N   0  0  0  0  0  0  0  0  0  0  0  0
    9.6809  -13.3709   28.2446 C   0  0  0  0  0  0  0  0  0  0  0  0
   11.0626  -13.3147   28.9004 C   0  0  0  0  0  0  0  0  0  0  0  0
   11.2834  -14.7474   29.3147 C   0  0  0  0  0  0  0  0  0  0  0  0
   10.5229  -15.5411   28.3193 C   0  0  1  0  0  0  0  0  0  0  0  0
    9.7891  -16.6882   28.9366 C   0  0  0  0  0  0  0  0  0  0  0  0
   10.4040  -17.8425   29.3215 O   0  0  0  0  0  0  0  0  0  0  0  0
    8.5511  -16.5578   29.0973 O   0  0  0  0  0  0  0  0  0  0  0  0
  2  3  2  0
  2  1  1  0
  4  2  1  0
  5  4  1  0
  6  5  1  0
  6  7  1  6
  8  6  1  0
  9  8  2  0
 10  8  1  0
 10 14  1  0
 11 10  1  0
 12 13  1  0
 12 11  1  0
 13 14  1  0
 14 15  1  1
 15 16  2  0
 15 17  1  0
 17 21  1  0
 18 17  1  0
 18 19  1  0
 19 20  1  0
 21 20  1  0
 22 23  1  0
 21 22  1  1
 24 22  2  0
M  END
$$$$
