QPP.pdb
     RDKit          3D

 24 25  0  0  1  0  0  0  0  0999 V2000
    9.0646  -14.3701   17.2870 N   0  0  0  0  0  0  0  0  0  0  0  0
    8.2966  -13.5634   18.1969 C   0  0  0  0  0  0  0  0  0  0  0  0
    8.1417  -12.3608   17.9360 O   0  0  0  0  0  0  0  0  0  0  0  0
    7.7249  -14.1956   19.3984 C   0  0  0  0  0  0  0  0  0  0  0  0
    8.0060  -15.6522   19.5509 C   0  0  0  0  0  0  0  0  0  0  0  0
    8.8010  -15.9977   20.8028 C   0  0  2  0  0  0  0  0  0  0  0  0
    8.9514  -17.4420   20.9061 N   0  0  0  0  0  0  0  0  0  0  0  0
    8.1507  -15.4440   22.0153 C   0  0  0  0  0  0  0  0  0  0  0  0
    8.0274  -14.1980   22.0886 O   0  0  0  0  0  0  0  0  0  0  0  0
    7.6700  -16.2354   23.0754 N   0  0  0  0  0  0  0  0  0  0  0  0
    7.6676  -17.6789   23.1050 C   0  0  0  0  0  0  0  0  0  0  0  0
    6.3535  -17.9121   23.8714 C   0  0  0  0  0  0  0  0  0  0  0  0
    6.6392  -16.9904   25.0666 C   0  0  0  0  0  0  0  0  0  0  0  0
    7.0867  -15.7467   24.3182 C   0  0  1  0  0  0  0  0  0  0  0  0
    8.0516  -15.0277   25.1451 C   0  0  0  0  0  0  0  0  0  0  0  0
    9.2885  -15.2709   25.1448 O   0  0  0  0  0  0  0  0  0  0  0  0
    7.5518  -13.9812   26.0072 N   0  0  0  0  0  0  0  0  0  0  0  0
    6.1863  -13.5187   26.0732 C   0  0  0  0  0  0  0  0  0  0  0  0
    6.3018  -12.0679   26.5467 C   0  0  0  0  0  0  0  0  0  0  0  0
    7.4861  -12.1241   27.4778 C   0  0  0  0  0  0  0  0  0  0  0  0
    8.3274  -13.2204   26.9398 C   0  0  1  0  0  0  0  0  0  0  0  0
    8.9078  -14.0818   28.0152 C   0  0  0  0  0  0  0  0  0  0  0  0
    9.9819  -13.7085   28.7671 O   0  0  0  0  0  0  0  0  0  0  0  0
    8.3632  -15.1948   28.2155 O   0  0  0  0  0  0  0  0  0  0  0  0
  2  3  2  0
  2  1  1  0
  4  2  1  0
  5  4  1  0
  6  5  1  0
  6  7  1  1
  8  6  1  0
  9  8  2  0
 10  8  1  0
 10 14  1  0
 11 10  1  0
 12 13  1  0
 12 11  1  0
 13 14  1  0
 14 15  1  1
 15 16  2  0
 15 17  1  0
 17 21  1  0
 18 17  1  0
 18 19  1  0
 19 20  1  0
 21 20  1  0
 22 23  1  0
 21 22  1  1
 24 22  2  0
M  END
$$$$
