FYW.pdb
     RDKit          3D

 38 41  0  0  1  0  0  0  0  0999 V2000
    8.9385  -16.4498   20.0382 N   0  0  0  0  0  0  0  0  0  0  0  0
    9.0299  -15.9328   21.3706 C   0  0  1  0  0  0  0  0  0  0  0  0
    7.7147  -15.3414   21.8280 C   0  0  0  0  0  0  0  0  0  0  0  0
    7.3688  -14.2976   20.8314 C   0  0  0  0  0  0  0  0  0  0  0  0
    8.0653  -13.1125   20.7758 C   0  0  0  0  0  0  0  0  0  0  0  0
    7.7537  -12.1206   19.8493 C   0  0  0  0  0  0  0  0  0  0  0  0
    6.7172  -12.3009   18.9423 C   0  0  0  0  0  0  0  0  0  0  0  0
    6.0222  -13.4829   18.9971 C   0  0  0  0  0  0  0  0  0  0  0  0
    6.3410  -14.4523   19.9168 C   0  0  0  0  0  0  0  0  0  0  0  0
    9.6320  -16.8779   22.3191 C   0  0  0  0  0  0  0  0  0  0  0  0
    8.8228  -17.5305   23.0515 O   0  0  0  0  0  0  0  0  0  0  0  0
   16.5244  -18.5174   27.8178 O   0  0  0  0  0  0  0  0  0  0  0  0
   15.6961  -18.1288   26.7876 C   0  0  0  0  0  0  0  0  0  0  0  0
   15.0840  -19.0800   25.9993 C   0  0  0  0  0  0  0  0  0  0  0  0
   14.2526  -18.7053   24.9650 C   0  0  0  0  0  0  0  0  0  0  0  0
   13.9939  -17.3827   24.6698 C   0  0  0  0  0  0  0  0  0  0  0  0
   13.1262  -16.9343   23.5829 C   0  0  0  0  0  0  0  0  0  0  0  0
   11.6664  -17.2809   23.7496 C   0  0  2  0  0  0  0  0  0  0  0  0
   11.0051  -17.1083   22.4715 N   0  0  0  0  0  0  0  0  0  0  0  0
   10.9903  -16.4741   24.7913 C   0  0  0  0  0  0  0  0  0  0  0  0
   11.0547  -15.2147   24.8117 O   0  0  0  0  0  0  0  0  0  0  0  0
   14.6117  -16.4399   25.4649 C   0  0  0  0  0  0  0  0  0  0  0  0
   15.4520  -16.8047   26.5105 C   0  0  0  0  0  0  0  0  0  0  0  0
   10.2223  -17.0594   25.8412 N   0  0  0  0  0  0  0  0  0  0  0  0
   10.3658  -16.6999   27.2307 C   0  0  1  0  0  0  0  0  0  0  0  0
    9.0432  -16.6189   27.9457 C   0  0  0  0  0  0  0  0  0  0  0  0
    8.0300  -15.9025   27.1293 C   0  0  0  0  0  0  0  0  0  0  0  0
    6.9986  -16.5026   26.4401 C   0  0  0  0  0  0  0  0  0  0  0  0
    6.2842  -15.5440   25.8172 N   0  0  0  0  0  0  0  0  0  0  0  0
    6.8361  -14.3591   26.0946 C   0  0  0  0  0  0  0  0  0  0  0  0
    6.4652  -13.0935   25.6886 C   0  0  0  0  0  0  0  0  0  0  0  0
    7.1796  -12.0052   26.0937 C   0  0  0  0  0  0  0  0  0  0  0  0
    8.2841  -12.2017   26.9210 C   0  0  0  0  0  0  0  0  0  0  0  0
    8.6690  -13.4487   27.3351 C   0  0  0  0  0  0  0  0  0  0  0  0
    7.9433  -14.5476   26.9227 C   0  0  0  0  0  0  0  0  0  0  0  0
   11.1937  -17.7081   27.9668 C   0  0  0  0  0  0  0  0  0  0  0  0
   11.4943  -18.7975   27.4104 O   0  0  0  0  0  0  0  0  0  0  0  0
   11.6365  -17.4615   29.2561 O   0  0  0  0  0  0  0  0  0  0  0  0
  2  1  1  6
  2  3  1  0
  3  4  1  0
  4  9  1  0
  4  5  2  0
  5  6  1  0
  6  7  2  0
  8  7  1  0
  9  8  2  0
 10  2  1  0
 11 10  2  0
 12 13  1  0
 13 14  2  0
 14 15  1  0
 16 15  2  0
 16 17  1  0
 18 17  1  6
 18 20  1  0
 18 19  1  0
 19 10  1  0
 20 21  2  0
 22 16  1  0
 23 13  1  0
 23 22  2  0
 24 25  1  0
 24 20  1  0
 25 26  1  1
 26 27  1  0
 27 28  2  0
 28 29  1  0
 30 29  1  0
 31 30  2  0
 32 31  1  0
 33 34  1  0
 33 32  2  0
 34 35  2  0
 35 27  1  0
 35 30  1  0
 36 25  1  0
 36 38  1  0
 37 36  2  0
M  END
$$$$
