FYW.pdb
     RDKit          3D

 38 41  0  0  1  0  0  0  0  0999 V2000
   10.4041  -17.4158   17.8988 N   0  0  0  0  0  0  0  0  0  0  0  0
    9.6035  -17.8908   18.9871 C   0  0  1  0  0  0  0  0  0  0  0  0
    9.7726  -19.3801   19.1920 C   0  0  0  0  0  0  0  0  0  0  0  0
    9.3391  -20.0176   17.9239 C   0  0  0  0  0  0  0  0  0  0  0  0
    8.0043  -20.1583   17.6217 C   0  0  0  0  0  0  0  0  0  0  0  0
    7.5786  -20.7559   16.4381 C   0  0  0  0  0  0  0  0  0  0  0  0
    8.5008  -21.2336   15.5158 C   0  0  0  0  0  0  0  0  0  0  0  0
    9.8324  -21.0933   15.8165 C   0  0  0  0  0  0  0  0  0  0  0  0
   10.2375  -20.5016   16.9883 C   0  0  0  0  0  0  0  0  0  0  0  0
    9.7521  -17.0902   20.2087 C   0  0  0  0  0  0  0  0  0  0  0  0
   10.9436  -16.8171   20.5594 O   0  0  0  0  0  0  0  0  0  0  0  0
    7.1993  -13.1535   27.7770 O   0  0  0  0  0  0  0  0  0  0  0  0
    7.2960  -13.6241   26.4857 C   0  0  0  0  0  0  0  0  0  0  0  0
    6.2715  -13.3974   25.5912 C   0  0  0  0  0  0  0  0  0  0  0  0
    6.3550  -13.8625   24.2958 C   0  0  0  0  0  0  0  0  0  0  0  0
    7.4483  -14.5664   23.8346 C   0  0  0  0  0  0  0  0  0  0  0  0
    7.5825  -15.0844   22.4749 C   0  0  0  0  0  0  0  0  0  0  0  0
    8.8715  -15.8199   22.1982 C   0  0  2  0  0  0  0  0  0  0  0  0
    8.6979  -16.6146   20.9987 N   0  0  0  0  0  0  0  0  0  0  0  0
    9.3075  -16.6773   23.3243 C   0  0  0  0  0  0  0  0  0  0  0  0
    8.8653  -17.8471   23.4873 O   0  0  0  0  0  0  0  0  0  0  0  0
    8.4670  -14.7871   24.7381 C   0  0  0  0  0  0  0  0  0  0  0  0
    8.3949  -14.3235   26.0467 C   0  0  0  0  0  0  0  0  0  0  0  0
   10.2530  -16.2445   24.3007 N   0  0  0  0  0  0  0  0  0  0  0  0
   11.5559  -16.8401   24.4686 C   0  0  1  0  0  0  0  0  0  0  0  0
   12.3538  -16.1840   25.5641 C   0  0  0  0  0  0  0  0  0  0  0  0
   11.5820  -16.1204   26.8315 C   0  0  0  0  0  0  0  0  0  0  0  0
   11.1002  -17.2112   27.5221 C   0  0  0  0  0  0  0  0  0  0  0  0
   10.4535  -16.7721   28.6203 N   0  0  0  0  0  0  0  0  0  0  0  0
   10.5145  -15.4374   28.6405 C   0  0  0  0  0  0  0  0  0  0  0  0
   10.0026  -14.5420   29.5572 C   0  0  0  0  0  0  0  0  0  0  0  0
   10.1820  -13.2018   29.3824 C   0  0  0  0  0  0  0  0  0  0  0  0
   10.8895  -12.7631   28.2644 C   0  0  0  0  0  0  0  0  0  0  0  0
   11.4055  -13.6347   27.3430 C   0  0  0  0  0  0  0  0  0  0  0  0
   11.2215  -14.9902   27.5235 C   0  0  0  0  0  0  0  0  0  0  0  0
   11.4449  -18.2908   24.8247 C   0  0  0  0  0  0  0  0  0  0  0  0
   12.4825  -19.0028   24.8805 O   0  0  0  0  0  0  0  0  0  0  0  0
   10.2138  -18.8658   25.0951 O   0  0  0  0  0  0  0  0  0  0  0  0
  2  1  1  6
  2  3  1  0
  3  4  1  0
  4  9  1  0
  4  5  2  0
  5  6  1  0
  6  7  2  0
  8  7  1  0
  9  8  2  0
 10  2  1  0
 11 10  2  0
 12 13  1  0
 13 14  2  0
 14 15  1  0
 16 15  2  0
 16 17  1  0
 18 17  1  1
 18 20  1  0
 18 19  1  0
 19 10  1  0
 20 21  2  0
 22 16  1  0
 23 13  1  0
 23 22  2  0
 24 25  1  0
 24 20  1  0
 25 26  1  1
 26 27  1  0
 27 28  2  0
 28 29  1  0
 30 29  1  0
 31 30  2  0
 32 31  1  0
 33 34  1  0
 33 32  2  0
 34 35  2  0
 35 27  1  0
 35 30  1  0
 36 25  1  0
 36 38  1  0
 37 36  2  0
M  END
$$$$
