FYW.pdb
     RDKit          3D

 38 41  0  0  1  0  0  0  0  0999 V2000
    6.8541  -18.2695   20.2506 N   0  0  0  0  0  0  0  0  0  0  0  0
    7.4206  -17.0553   20.7563 C   0  0  1  0  0  0  0  0  0  0  0  0
    6.3568  -16.1387   21.3192 C   0  0  0  0  0  0  0  0  0  0  0  0
    6.9494  -14.7782   21.3188 C   0  0  0  0  0  0  0  0  0  0  0  0
    7.1710  -14.1022   20.1412 C   0  0  0  0  0  0  0  0  0  0  0  0
    7.7283  -12.8261   20.1209 C   0  0  0  0  0  0  0  0  0  0  0  0
    8.0814  -12.1900   21.3042 C   0  0  0  0  0  0  0  0  0  0  0  0
    7.8604  -12.8636   22.4791 C   0  0  0  0  0  0  0  0  0  0  0  0
    7.3099  -14.1222   22.4836 C   0  0  0  0  0  0  0  0  0  0  0  0
    8.5641  -17.2773   21.6498 C   0  0  0  0  0  0  0  0  0  0  0  0
    8.4335  -18.2060   22.5086 O   0  0  0  0  0  0  0  0  0  0  0  0
   16.9672  -17.5115   24.5479 O   0  0  0  0  0  0  0  0  0  0  0  0
   15.7901  -17.2066   23.8998 C   0  0  0  0  0  0  0  0  0  0  0  0
   14.8755  -18.2019   23.6279 C   0  0  0  0  0  0  0  0  0  0  0  0
   13.6935  -17.9111   22.9800 C   0  0  0  0  0  0  0  0  0  0  0  0
   13.3695  -16.6320   22.5772 C   0  0  0  0  0  0  0  0  0  0  0  0
   12.1342  -16.2733   21.8838 C   0  0  0  0  0  0  0  0  0  0  0  0
   10.8691  -16.7771   22.5355 C   0  0  2  0  0  0  0  0  0  0  0  0
    9.7640  -16.5552   21.6244 N   0  0  0  0  0  0  0  0  0  0  0  0
   10.5928  -16.1400   23.8435 C   0  0  0  0  0  0  0  0  0  0  0  0
   10.6359  -14.8897   24.0034 O   0  0  0  0  0  0  0  0  0  0  0  0
   14.2918  -15.6445   22.8546 C   0  0  0  0  0  0  0  0  0  0  0  0
   15.4869  -15.9248   23.5069 C   0  0  0  0  0  0  0  0  0  0  0  0
   10.2604  -16.8898   25.0106 N   0  0  0  0  0  0  0  0  0  0  0  0
   10.4406  -16.3966   26.3540 C   0  0  1  0  0  0  0  0  0  0  0  0
    9.1892  -16.5107   27.1836 C   0  0  0  0  0  0  0  0  0  0  0  0
    8.0148  -15.9450   26.4717 C   0  0  0  0  0  0  0  0  0  0  0  0
    7.0379  -16.6846   25.8412 C   0  0  0  0  0  0  0  0  0  0  0  0
    6.1353  -15.8369   25.3082 N   0  0  0  0  0  0  0  0  0  0  0  0
    6.5160  -14.5864   25.5851 C   0  0  0  0  0  0  0  0  0  0  0  0
    5.9210  -13.3863   25.2533 C   0  0  0  0  0  0  0  0  0  0  0  0
    6.4869  -12.2083   25.6420 C   0  0  0  0  0  0  0  0  0  0  0  0
    7.6710  -12.2468   26.3764 C   0  0  0  0  0  0  0  0  0  0  0  0
    8.2776  -13.4264   26.7158 C   0  0  0  0  0  0  0  0  0  0  0  0
    7.7016  -14.6164   26.3205 C   0  0  0  0  0  0  0  0  0  0  0  0
   11.5069  -17.1646   27.0728 C   0  0  0  0  0  0  0  0  0  0  0  0
   11.9757  -18.2150   26.5595 O   0  0  0  0  0  0  0  0  0  0  0  0
   11.9887  -16.7370   28.2993 O   0  0  0  0  0  0  0  0  0  0  0  0
  2  1  1  1
  2  3  1  0
  3  4  1  0
  4  9  1  0
  4  5  2  0
  5  6  1  0
  6  7  2  0
  8  7  1  0
  9  8  2  0
 10  2  1  0
 11 10  2  0
 12 13  1  0
 13 14  2  0
 14 15  1  0
 16 15  2  0
 16 17  1  0
 18 17  1  6
 18 20  1  0
 18 19  1  0
 19 10  1  0
 20 21  2  0
 22 16  1  0
 23 13  1  0
 23 22  2  0
 24 25  1  0
 24 20  1  0
 25 26  1  1
 26 27  1  0
 27 28  2  0
 28 29  1  0
 30 29  1  0
 31 30  2  0
 32 31  1  0
 33 34  1  0
 33 32  2  0
 34 35  2  0
 35 27  1  0
 35 30  1  0
 36 25  1  0
 36 38  1  0
 37 36  2  0
M  END
$$$$
