FYW.pdb
     RDKit          3D

 38 41  0  0  1  0  0  0  0  0999 V2000
    7.7041  -17.4610   20.2488 N   0  0  0  0  0  0  0  0  0  0  0  0
    8.2926  -16.6676   21.2858 C   0  0  1  0  0  0  0  0  0  0  0  0
    7.2760  -15.7485   21.9262 C   0  0  0  0  0  0  0  0  0  0  0  0
    7.3360  -14.4784   21.1609 C   0  0  0  0  0  0  0  0  0  0  0  0
    6.4310  -14.2109   20.1598 C   0  0  0  0  0  0  0  0  0  0  0  0
    6.4731  -13.0260   19.4295 C   0  0  0  0  0  0  0  0  0  0  0  0
    7.4425  -12.0668   19.6936 C   0  0  0  0  0  0  0  0  0  0  0  0
    8.3454  -12.3329   20.6922 C   0  0  0  0  0  0  0  0  0  0  0  0
    8.2915  -13.5064   21.4043 C   0  0  0  0  0  0  0  0  0  0  0  0
    9.0837  -17.4549   22.2396 C   0  0  0  0  0  0  0  0  0  0  0  0
    8.5035  -18.4638   22.7521 O   0  0  0  0  0  0  0  0  0  0  0  0
   11.6005  -22.7248   19.7868 O   0  0  0  0  0  0  0  0  0  0  0  0
   11.7724  -21.6776   20.6656 C   0  0  0  0  0  0  0  0  0  0  0  0
   12.0302  -20.4109   20.1860 C   0  0  0  0  0  0  0  0  0  0  0  0
   12.2043  -19.3537   21.0539 C   0  0  0  0  0  0  0  0  0  0  0  0
   12.1310  -19.5048   22.4233 C   0  0  0  0  0  0  0  0  0  0  0  0
   12.3130  -18.4191   23.3842 C   0  0  0  0  0  0  0  0  0  0  0  0
   11.0424  -17.7190   23.8019 C   0  0  2  0  0  0  0  0  0  0  0  0
   10.4043  -17.1809   22.6172 N   0  0  0  0  0  0  0  0  0  0  0  0
   11.2677  -16.6457   24.7971 C   0  0  0  0  0  0  0  0  0  0  0  0
   12.4106  -16.1565   25.0095 O   0  0  0  0  0  0  0  0  0  0  0  0
   11.8726  -20.7763   22.8916 C   0  0  0  0  0  0  0  0  0  0  0  0
   11.6952  -21.8503   22.0271 C   0  0  0  0  0  0  0  0  0  0  0  0
   10.2147  -16.0909   25.5833 N   0  0  0  0  0  0  0  0  0  0  0  0
   10.1942  -16.1216   27.0252 C   0  0  1  0  0  0  0  0  0  0  0  0
    8.8046  -16.2926   27.5793 C   0  0  0  0  0  0  0  0  0  0  0  0
    7.8143  -15.4949   26.8118 C   0  0  0  0  0  0  0  0  0  0  0  0
    6.7171  -16.0107   26.1568 C   0  0  0  0  0  0  0  0  0  0  0  0
    6.0493  -14.9953   25.5736 N   0  0  0  0  0  0  0  0  0  0  0  0
    6.6942  -13.8563   25.8428 C   0  0  0  0  0  0  0  0  0  0  0  0
    6.3989  -12.5620   25.4664 C   0  0  0  0  0  0  0  0  0  0  0  0
    7.2038  -11.5327   25.8556 C   0  0  0  0  0  0  0  0  0  0  0  0
    8.3225  -11.8186   26.6365 C   0  0  0  0  0  0  0  0  0  0  0  0
    8.6335  -13.0955   27.0207 C   0  0  0  0  0  0  0  0  0  0  0  0
    7.8163  -14.1343   26.6245 C   0  0  0  0  0  0  0  0  0  0  0  0
   11.0126  -17.2597   27.5529 C   0  0  0  0  0  0  0  0  0  0  0  0
   10.7599  -18.4369   27.1827 O   0  0  0  0  0  0  0  0  0  0  0  0
   12.0482  -17.0385   28.4461 O   0  0  0  0  0  0  0  0  0  0  0  0
  2  1  1  6
  2  3  1  0
  3  4  1  0
  4  9  1  0
  4  5  2  0
  5  6  1  0
  6  7  2  0
  8  7  1  0
  9  8  2  0
 10  2  1  0
 11 10  2  0
 12 13  1  0
 13 14  2  0
 14 15  1  0
 16 15  2  0
 16 17  1  0
 18 17  1  6
 18 20  1  0
 18 19  1  0
 19 10  1  0
 20 21  2  0
 22 16  1  0
 23 13  1  0
 23 22  2  0
 24 25  1  0
 24 20  1  0
 25 26  1  6
 26 27  1  0
 27 28  2  0
 28 29  1  0
 30 29  1  0
 31 30  2  0
 32 31  1  0
 33 34  1  0
 33 32  2  0
 34 35  2  0
 35 27  1  0
 35 30  1  0
 36 25  1  0
 36 38  1  0
 37 36  2  0
M  END
$$$$
