NYF.pdb
     RDKit          3D

 32 33  0  0  1  0  0  0  0  0999 V2000
   26.2293  -32.9912  -14.4757 N   0  0  0  0  0  0  0  0  0  0  0  0
   26.3293  -33.6622  -15.7343 C   0  0  0  0  0  0  0  0  0  0  0  0
   26.2312  -34.9081  -15.7591 O   0  0  0  0  0  0  0  0  0  0  0  0
   26.5488  -32.8475  -16.9853 C   0  0  0  0  0  0  0  0  0  0  0  0
   26.7233  -31.4046  -16.4810 C   0  0  2  0  0  0  0  0  0  0  0  0
   25.3765  -30.8202  -16.5978 N   0  0  0  0  0  0  0  0  0  0  0  0
   27.6635  -30.6601  -17.3359 C   0  0  0  0  0  0  0  0  0  0  0  0
   27.2184  -30.2424  -18.4579 O   0  0  0  0  0  0  0  0  0  0  0  0
   26.0847  -24.4016  -17.3999 O   0  0  0  0  0  0  0  0  0  0  0  0
   27.0751  -25.3825  -17.3050 C   0  0  0  0  0  0  0  0  0  0  0  0
   28.0918  -25.3654  -18.2376 C   0  0  0  0  0  0  0  0  0  0  0  0
   29.1042  -26.3109  -18.1986 C   0  0  0  0  0  0  0  0  0  0  0  0
   29.1136  -27.2975  -17.2173 C   0  0  0  0  0  0  0  0  0  0  0  0
   30.2036  -28.2655  -17.2245 C   0  0  0  0  0  0  0  0  0  0  0  0
   29.8033  -29.5826  -17.8754 C   0  0  2  0  0  0  0  0  0  0  0  0
   29.0082  -30.3840  -16.9953 N   0  0  0  0  0  0  0  0  0  0  0  0
   31.0745  -30.2919  -18.1596 C   0  0  0  0  0  0  0  0  0  0  0  0
   31.4970  -31.1047  -17.2961 O   0  0  0  0  0  0  0  0  0  0  0  0
   28.1034  -27.2996  -16.3062 C   0  0  0  0  0  0  0  0  0  0  0  0
   27.0795  -26.3507  -16.3363 C   0  0  0  0  0  0  0  0  0  0  0  0
   31.8499  -30.1287  -19.3208 N   0  0  0  0  0  0  0  0  0  0  0  0
   33.0442  -30.8998  -19.6136 C   0  0  1  0  0  0  0  0  0  0  0  0
   32.7977  -32.3716  -19.4718 C   0  0  0  0  0  0  0  0  0  0  0  0
   34.0053  -33.1476  -19.7871 C   0  0  0  0  0  0  0  0  0  0  0  0
   34.0170  -33.9073  -20.9478 C   0  0  0  0  0  0  0  0  0  0  0  0
   35.1020  -34.6707  -21.3381 C   0  0  0  0  0  0  0  0  0  0  0  0
   36.2097  -34.6737  -20.5441 C   0  0  0  0  0  0  0  0  0  0  0  0
   36.2066  -33.9157  -19.3821 C   0  0  0  0  0  0  0  0  0  0  0  0
   35.1298  -33.1537  -18.9869 C   0  0  0  0  0  0  0  0  0  0  0  0
   33.5741  -30.5179  -20.9107 C   0  0  0  0  0  0  0  0  0  0  0  0
   32.7594  -30.4117  -21.8952 O   0  0  0  0  0  0  0  0  0  0  0  0
   34.9204  -30.2721  -21.0851 O   0  0  0  0  0  0  0  0  0  0  0  0
  2  3  2  0
  2  1  1  0
  4  2  1  0
  5  4  1  0
  5  6  1  6
  7  8  2  0
  7  5  1  0
  9 10  1  0
 10 20  2  0
 10 11  1  0
 11 12  2  0
 12 13  1  0
 13 14  1  0
 15 14  1  1
 15 16  1  0
 16  7  1  0
 17 15  1  0
 17 21  1  0
 18 17  2  0
 19 13  2  0
 20 19  1  0
 22 21  1  0
 22 30  1  0
 22 23  1  6
 24 23  1  0
 25 24  2  0
 26 25  1  0
 27 26  2  0
 27 28  1  0
 28 29  2  0
 29 24  1  0
 30 32  1  0
 31 30  2  0
M  END
$$$$
