NYF.pdb
     RDKit          3D

 32 33  0  0  1  0  0  0  0  0999 V2000
   16.5835  -16.0401  -17.2866 N   0  0  0  0  0  0  0  0  0  0  0  0
   17.7904  -15.3810  -17.6782 C   0  0  0  0  0  0  0  0  0  0  0  0
   18.3007  -15.6703  -18.7820 O   0  0  0  0  0  0  0  0  0  0  0  0
   18.4052  -14.3625  -16.7499 C   0  0  0  0  0  0  0  0  0  0  0  0
   18.7063  -13.1517  -17.6498 C   0  0  2  0  0  0  0  0  0  0  0  0
   19.9162  -13.5488  -18.3897 N   0  0  0  0  0  0  0  0  0  0  0  0
   18.9897  -11.9543  -16.8407 C   0  0  0  0  0  0  0  0  0  0  0  0
   18.0354  -11.5031  -16.1215 O   0  0  0  0  0  0  0  0  0  0  0  0
   22.5788   -5.0824  -12.7211 O   0  0  0  0  0  0  0  0  0  0  0  0
   22.3883   -6.2853  -13.4059 C   0  0  0  0  0  0  0  0  0  0  0  0
   22.5150   -6.2728  -14.7797 C   0  0  0  0  0  0  0  0  0  0  0  0
   22.3381   -7.4324  -15.5174 C   0  0  0  0  0  0  0  0  0  0  0  0
   22.0275   -8.6327  -14.8856 C   0  0  0  0  0  0  0  0  0  0  0  0
   21.8531   -9.8209  -15.7119 C   0  0  0  0  0  0  0  0  0  0  0  0
   20.3865  -10.1228  -15.9890 C   0  0  2  0  0  0  0  0  0  0  0  0
   20.2348  -11.2839  -16.8122 N   0  0  0  0  0  0  0  0  0  0  0  0
   19.8649   -8.9412  -16.7182 C   0  0  0  0  0  0  0  0  0  0  0  0
   20.2513   -8.7676  -17.9037 O   0  0  0  0  0  0  0  0  0  0  0  0
   21.9060   -8.6267  -13.5307 C   0  0  0  0  0  0  0  0  0  0  0  0
   22.0835   -7.4639  -12.7783 C   0  0  0  0  0  0  0  0  0  0  0  0
   18.9700   -7.9946  -16.1899 N   0  0  0  0  0  0  0  0  0  0  0  0
   18.4809   -6.8423  -16.9246 C   0  0  1  0  0  0  0  0  0  0  0  0
   17.0804   -7.0558  -17.4145 C   0  0  0  0  0  0  0  0  0  0  0  0
   16.5663   -5.8606  -18.0980 C   0  0  0  0  0  0  0  0  0  0  0  0
   16.7506   -5.7539  -19.4688 C   0  0  0  0  0  0  0  0  0  0  0  0
   16.3041   -4.6735  -20.2076 C   0  0  0  0  0  0  0  0  0  0  0  0
   15.6524   -3.6696  -19.5559 C   0  0  0  0  0  0  0  0  0  0  0  0
   15.4629   -3.7691  -18.1851 C   0  0  0  0  0  0  0  0  0  0  0  0
   15.9051   -4.8414  -17.4430 C   0  0  0  0  0  0  0  0  0  0  0  0
   18.6444   -5.6404  -16.1260 C   0  0  0  0  0  0  0  0  0  0  0  0
   18.3016   -5.6774  -14.8911 O   0  0  0  0  0  0  0  0  0  0  0  0
   19.1575   -4.4843  -16.6770 O   0  0  0  0  0  0  0  0  0  0  0  0
  2  3  2  0
  2  1  1  0
  4  2  1  0
  5  4  1  0
  5  6  1  1
  7  8  2  0
  7  5  1  0
  9 10  1  0
 10 20  2  0
 10 11  1  0
 11 12  2  0
 12 13  1  0
 13 14  1  0
 15 14  1  6
 15 16  1  0
 16  7  1  0
 17 15  1  0
 17 21  1  0
 18 17  2  0
 19 13  2  0
 20 19  1  0
 22 21  1  0
 22 30  1  0
 22 23  1  1
 24 23  1  0
 25 24  2  0
 26 25  1  0
 27 26  2  0
 27 28  1  0
 28 29  2  0
 29 24  1  0
 30 32  1  0
 31 30  2  0
M  END
$$$$
