NYF.pdb
     RDKit          3D

 32 33  0  0  1  0  0  0  0  0999 V2000
   21.2655  -18.7680  -15.1075 N   0  0  0  0  0  0  0  0  0  0  0  0
   22.6273  -18.5843  -15.5025 C   0  0  0  0  0  0  0  0  0  0  0  0
   22.9252  -17.5747  -16.1766 O   0  0  0  0  0  0  0  0  0  0  0  0
   23.6551  -19.6109  -15.0941 C   0  0  0  0  0  0  0  0  0  0  0  0
   23.8352  -19.3967  -13.5814 C   0  0  2  0  0  0  0  0  0  0  0  0
   24.3753  -18.0306  -13.4761 N   0  0  0  0  0  0  0  0  0  0  0  0
   24.8038  -20.3576  -13.0271 C   0  0  0  0  0  0  0  0  0  0  0  0
   24.5380  -21.5980  -13.1765 O   0  0  0  0  0  0  0  0  0  0  0  0
   28.9840  -19.9434  -17.7323 O   0  0  0  0  0  0  0  0  0  0  0  0
   28.8076  -20.2219  -16.3746 C   0  0  0  0  0  0  0  0  0  0  0  0
   28.7984  -19.1598  -15.4939 C   0  0  0  0  0  0  0  0  0  0  0  0
   28.6279  -19.3689  -14.1346 C   0  0  0  0  0  0  0  0  0  0  0  0
   28.4639  -20.6560  -13.6317 C   0  0  0  0  0  0  0  0  0  0  0  0
   28.2881  -20.8161  -12.1934 C   0  0  0  0  0  0  0  0  0  0  0  0
   26.8295  -21.0227  -11.8083 C   0  0  2  0  0  0  0  0  0  0  0  0
   25.9919  -19.9961  -12.3501 N   0  0  0  0  0  0  0  0  0  0  0  0
   26.7912  -20.9471  -10.3275 C   0  0  0  0  0  0  0  0  0  0  0  0
   27.8297  -20.5536   -9.7346 O   0  0  0  0  0  0  0  0  0  0  0  0
   28.4759  -21.6912  -14.5141 C   0  0  0  0  0  0  0  0  0  0  0  0
   28.6458  -21.4909  -15.8855 C   0  0  0  0  0  0  0  0  0  0  0  0
   25.6839  -21.2814   -9.5287 N   0  0  0  0  0  0  0  0  0  0  0  0
   25.6386  -21.1019   -8.0890 C   0  0  1  0  0  0  0  0  0  0  0  0
   26.0980  -19.7319   -7.6904 C   0  0  0  0  0  0  0  0  0  0  0  0
   27.0464  -19.7924   -6.5694 C   0  0  0  0  0  0  0  0  0  0  0  0
   28.2006  -19.0258   -6.6393 C   0  0  0  0  0  0  0  0  0  0  0  0
   29.1555  -19.0079   -5.6392 C   0  0  0  0  0  0  0  0  0  0  0  0
   28.9495  -19.7794   -4.5348 C   0  0  0  0  0  0  0  0  0  0  0  0
   27.7973  -20.5482   -4.4564 C   0  0  0  0  0  0  0  0  0  0  0  0
   26.8426  -20.5714   -5.4485 C   0  0  0  0  0  0  0  0  0  0  0  0
   24.3189  -21.4448   -7.5890 C   0  0  0  0  0  0  0  0  0  0  0  0
   24.1749  -21.6373   -6.3295 O   0  0  0  0  0  0  0  0  0  0  0  0
   23.2420  -21.5602   -8.4435 O   0  0  0  0  0  0  0  0  0  0  0  0
  2  3  2  0
  2  1  1  0
  4  2  1  0
  5  4  1  0
  5  6  1  6
  7  8  2  0
  7  5  1  0
  9 10  1  0
 10 20  2  0
 10 11  1  0
 11 12  2  0
 12 13  1  0
 13 14  1  0
 15 14  1  6
 15 16  1  0
 16  7  1  0
 17 15  1  0
 17 21  1  0
 18 17  2  0
 19 13  2  0
 20 19  1  0
 22 21  1  0
 22 30  1  0
 22 23  1  6
 24 23  1  0
 25 24  2  0
 26 25  1  0
 27 26  2  0
 27 28  1  0
 28 29  2  0
 29 24  1  0
 30 32  1  0
 31 30  2  0
M  END
$$$$
