NYF.pdb
     RDKit          3D

 32 33  0  0  1  0  0  0  0  0999 V2000
   21.2401  -17.8789  -13.2690 N   0  0  0  0  0  0  0  0  0  0  0  0
   21.5365  -18.8155  -14.3079 C   0  0  0  0  0  0  0  0  0  0  0  0
   20.8418  -18.7984  -15.3469 O   0  0  0  0  0  0  0  0  0  0  0  0
   22.6733  -19.7891  -14.1162 C   0  0  0  0  0  0  0  0  0  0  0  0
   23.1601  -19.5366  -12.6790 C   0  0  2  0  0  0  0  0  0  0  0  0
   23.7659  -18.1955  -12.7376 N   0  0  0  0  0  0  0  0  0  0  0  0
   24.1796  -20.5253  -12.2890 C   0  0  0  0  0  0  0  0  0  0  0  0
   23.8139  -21.7485  -12.2502 O   0  0  0  0  0  0  0  0  0  0  0  0
   26.4008  -20.7726  -18.0084 O   0  0  0  0  0  0  0  0  0  0  0  0
   26.6920  -20.9497  -16.6534 C   0  0  0  0  0  0  0  0  0  0  0  0
   27.2056  -19.8745  -15.9579 C   0  0  0  0  0  0  0  0  0  0  0  0
   27.5155  -19.9850  -14.6117 C   0  0  0  0  0  0  0  0  0  0  0  0
   27.3155  -21.1847  -13.9357 C   0  0  0  0  0  0  0  0  0  0  0  0
   27.6590  -21.2430  -12.5201 C   0  0  0  0  0  0  0  0  0  0  0  0
   26.4264  -21.2622  -11.6261 C   0  0  2  0  0  0  0  0  0  0  0  0
   25.5180  -20.2077  -11.9600 N   0  0  0  0  0  0  0  0  0  0  0  0
   26.9285  -21.0497  -10.2467 C   0  0  0  0  0  0  0  0  0  0  0  0
   28.1374  -20.7277  -10.1070 O   0  0  0  0  0  0  0  0  0  0  0  0
   26.8088  -22.2345  -14.6370 C   0  0  0  0  0  0  0  0  0  0  0  0
   26.4922  -22.1328  -15.9931 C   0  0  0  0  0  0  0  0  0  0  0  0
   26.1598  -21.1801   -9.0770 N   0  0  0  0  0  0  0  0  0  0  0  0
   26.6908  -21.0208   -7.7355 C   0  0  1  0  0  0  0  0  0  0  0  0
   27.4877  -19.7579   -7.6053 C   0  0  0  0  0  0  0  0  0  0  0  0
   27.9804  -19.5770   -6.2326 C   0  0  0  0  0  0  0  0  0  0  0  0
   27.6633  -18.4017   -5.5672 C   0  0  0  0  0  0  0  0  0  0  0  0
   28.0738  -18.1331   -4.2743 C   0  0  0  0  0  0  0  0  0  0  0  0
   28.8236  -19.0688   -3.6264 C   0  0  0  0  0  0  0  0  0  0  0  0
   29.1443  -20.2474   -4.2843 C   0  0  0  0  0  0  0  0  0  0  0  0
   28.7394  -20.5214   -5.5717 C   0  0  0  0  0  0  0  0  0  0  0  0
   25.6197  -21.1394   -6.7621 C   0  0  0  0  0  0  0  0  0  0  0  0
   25.9299  -21.3597   -5.5376 O   0  0  0  0  0  0  0  0  0  0  0  0
   24.2983  -21.0170   -7.1395 O   0  0  0  0  0  0  0  0  0  0  0  0
  2  3  2  0
  2  1  1  0
  4  2  1  0
  5  4  1  0
  5  6  1  6
  7  8  2  0
  7  5  1  0
  9 10  1  0
 10 20  2  0
 10 11  1  0
 11 12  2  0
 12 13  1  0
 13 14  1  0
 15 14  1  6
 15 16  1  0
 16  7  1  0
 17 15  1  0
 17 21  1  0
 18 17  2  0
 19 13  2  0
 20 19  1  0
 22 21  1  0
 22 30  1  0
 22 23  1  6
 24 23  1  0
 25 24  2  0
 26 25  1  0
 27 26  2  0
 27 28  1  0
 28 29  2  0
 29 24  1  0
 30 32  1  0
 31 30  2  0
M  END
$$$$
