NYF.pdb
     RDKit          3D

 32 33  0  0  1  0  0  0  0  0999 V2000
   23.3654  -30.7110  -17.9515 N   0  0  0  0  0  0  0  0  0  0  0  0
   22.2295  -31.2267  -17.2530 C   0  0  0  0  0  0  0  0  0  0  0  0
   21.1464  -30.6074  -17.3296 O   0  0  0  0  0  0  0  0  0  0  0  0
   22.3753  -32.4959  -16.4499 C   0  0  0  0  0  0  0  0  0  0  0  0
   23.8810  -32.8084  -16.4914 C   0  0  2  0  0  0  0  0  0  0  0  0
   24.0154  -33.7721  -17.5970 N   0  0  0  0  0  0  0  0  0  0  0  0
   24.3222  -33.4325  -15.2325 C   0  0  0  0  0  0  0  0  0  0  0  0
   23.8647  -34.5964  -14.9726 O   0  0  0  0  0  0  0  0  0  0  0  0
   28.1221  -35.3451   -7.5371 O   0  0  0  0  0  0  0  0  0  0  0  0
   27.8399  -34.8603   -8.8166 C   0  0  0  0  0  0  0  0  0  0  0  0
   27.4772  -33.5347   -8.9390 C   0  0  0  0  0  0  0  0  0  0  0  0
   27.1844  -32.9927  -10.1803 C   0  0  0  0  0  0  0  0  0  0  0  0
   27.2496  -33.7767  -11.3281 C   0  0  0  0  0  0  0  0  0  0  0  0
   26.9314  -33.1532  -12.6069 C   0  0  0  0  0  0  0  0  0  0  0  0
   25.5409  -33.5266  -13.1025 C   0  0  2  0  0  0  0  0  0  0  0  0
   25.2078  -32.8308  -14.3082 N   0  0  0  0  0  0  0  0  0  0  0  0
   24.6070  -33.1083  -12.0288 C   0  0  0  0  0  0  0  0  0  0  0  0
   24.2404  -31.9041  -12.0083 O   0  0  0  0  0  0  0  0  0  0  0  0
   27.6085  -35.0814  -11.1890 C   0  0  0  0  0  0  0  0  0  0  0  0
   27.9066  -35.6367   -9.9430 C   0  0  0  0  0  0  0  0  0  0  0  0
   24.0962  -33.9517  -11.0269 N   0  0  0  0  0  0  0  0  0  0  0  0
   23.1404  -33.5285  -10.0199 C   0  0  1  0  0  0  0  0  0  0  0  0
   21.7824  -33.2992  -10.6117 C   0  0  0  0  0  0  0  0  0  0  0  0
   20.8096  -32.9112   -9.5806 C   0  0  0  0  0  0  0  0  0  0  0  0
   20.7341  -31.5754   -9.2140 C   0  0  0  0  0  0  0  0  0  0  0  0
   19.8530  -31.1048   -8.2576 C   0  0  0  0  0  0  0  0  0  0  0  0
   19.0211  -31.9972   -7.6500 C   0  0  0  0  0  0  0  0  0  0  0  0
   19.0895  -33.3348   -8.0117 C   0  0  0  0  0  0  0  0  0  0  0  0
   19.9646  -33.8106   -8.9626 C   0  0  0  0  0  0  0  0  0  0  0  0
   23.1441  -34.4648   -8.9097 C   0  0  0  0  0  0  0  0  0  0  0  0
   23.2972  -35.7121   -9.1643 O   0  0  0  0  0  0  0  0  0  0  0  0
   22.9889  -34.0283   -7.6102 O   0  0  0  0  0  0  0  0  0  0  0  0
  2  3  2  0
  2  1  1  0
  4  2  1  0
  5  4  1  0
  5  6  1  6
  7  8  2  0
  7  5  1  0
  9 10  1  0
 10 20  2  0
 10 11  1  0
 11 12  2  0
 12 13  1  0
 13 14  1  0
 15 14  1  1
 15 16  1  0
 16  7  1  0
 17 15  1  0
 17 21  1  0
 18 17  2  0
 19 13  2  0
 20 19  1  0
 22 21  1  0
 22 30  1  0
 22 23  1  6
 24 23  1  0
 25 24  2  0
 26 25  1  0
 27 26  2  0
 27 28  1  0
 28 29  2  0
 29 24  1  0
 30 32  1  0
 31 30  2  0
M  END
$$$$
