NYF.pdb
     RDKit          3D

 32 33  0  0  1  0  0  0  0  0999 V2000
   18.6233  -13.9051  -21.0196 N   0  0  0  0  0  0  0  0  0  0  0  0
   18.1371  -12.9183  -20.1063 C   0  0  0  0  0  0  0  0  0  0  0  0
   17.0755  -13.1457  -19.4869 O   0  0  0  0  0  0  0  0  0  0  0  0
   18.9184  -11.6406  -19.9215 C   0  0  0  0  0  0  0  0  0  0  0  0
   17.8566  -10.5284  -19.9674 C   0  0  2  0  0  0  0  0  0  0  0  0
   17.7539  -10.1916  -21.3975 N   0  0  0  0  0  0  0  0  0  0  0  0
   18.3017   -9.3465  -19.2097 C   0  0  0  0  0  0  0  0  0  0  0  0
   19.2576   -8.6641  -19.7116 O   0  0  0  0  0  0  0  0  0  0  0  0
   15.6504   -3.8353  -21.7073 O   0  0  0  0  0  0  0  0  0  0  0  0
   15.9781   -4.6015  -20.5859 C   0  0  0  0  0  0  0  0  0  0  0  0
   16.8288   -4.0472  -19.6518 C   0  0  0  0  0  0  0  0  0  0  0  0
   17.1928   -4.7553  -18.5176 C   0  0  0  0  0  0  0  0  0  0  0  0
   16.7074   -6.0412  -18.2999 C   0  0  0  0  0  0  0  0  0  0  0  0
   17.1234   -6.7386  -17.0893 C   0  0  0  0  0  0  0  0  0  0  0  0
   18.2397   -7.7401  -17.3533 C   0  0  2  0  0  0  0  0  0  0  0  0
   17.7436   -8.9279  -17.9794 N   0  0  0  0  0  0  0  0  0  0  0  0
   18.7887   -8.0890  -16.0203 C   0  0  0  0  0  0  0  0  0  0  0  0
   18.3019   -9.0888  -15.4303 O   0  0  0  0  0  0  0  0  0  0  0  0
   15.8700   -6.5722  -19.2313 C   0  0  0  0  0  0  0  0  0  0  0  0
   15.4964   -5.8664  -20.3767 C   0  0  0  0  0  0  0  0  0  0  0  0
   19.8133   -7.3897  -15.3590 N   0  0  0  0  0  0  0  0  0  0  0  0
   20.3539   -7.7725  -14.0676 C   0  0  1  0  0  0  0  0  0  0  0  0
   21.8516   -7.7107  -14.0575 C   0  0  0  0  0  0  0  0  0  0  0  0
   22.3944   -8.1337  -12.7589 C   0  0  0  0  0  0  0  0  0  0  0  0
   22.8300   -9.4435  -12.6209 C   0  0  0  0  0  0  0  0  0  0  0  0
   23.3592   -9.9420  -11.4444 C   0  0  0  0  0  0  0  0  0  0  0  0
   23.4564   -9.1047  -10.3735 C   0  0  0  0  0  0  0  0  0  0  0  0
   23.0240   -7.7929  -10.5034 C   0  0  0  0  0  0  0  0  0  0  0  0
   22.4957   -7.2899  -11.6714 C   0  0  0  0  0  0  0  0  0  0  0  0
   19.7292   -6.9879  -13.0173 C   0  0  0  0  0  0  0  0  0  0  0  0
   19.4166   -5.7702  -13.2696 O   0  0  0  0  0  0  0  0  0  0  0  0
   19.4739   -7.5346  -11.7766 O   0  0  0  0  0  0  0  0  0  0  0  0
  2  3  2  0
  2  1  1  0
  4  2  1  0
  5  4  1  0
  5  6  1  6
  7  8  2  0
  7  5  1  0
  9 10  1  0
 10 20  2  0
 10 11  1  0
 11 12  2  0
 12 13  1  0
 13 14  1  0
 15 14  1  1
 15 16  1  0
 16  7  1  0
 17 15  1  0
 17 21  1  0
 18 17  2  0
 19 13  2  0
 20 19  1  0
 22 21  1  0
 22 30  1  0
 22 23  1  6
 24 23  1  0
 25 24  2  0
 26 25  1  0
 27 26  2  0
 27 28  1  0
 28 29  2  0
 29 24  1  0
 30 32  1  0
 31 30  2  0
M  END
$$$$
