NYF.pdb
     RDKit          3D

 32 33  0  0  1  0  0  0  0  0999 V2000
   26.3654  -19.3659  -20.5586 N   0  0  0  0  0  0  0  0  0  0  0  0
   26.8453  -18.0209  -20.4900 C   0  0  0  0  0  0  0  0  0  0  0  0
   28.0688  -17.8124  -20.6386 O   0  0  0  0  0  0  0  0  0  0  0  0
   25.8631  -16.9026  -20.2417 C   0  0  0  0  0  0  0  0  0  0  0  0
   24.5269  -17.6152  -19.9705 C   0  0  2  0  0  0  0  0  0  0  0  0
   24.2171  -18.2892  -21.2428 N   0  0  0  0  0  0  0  0  0  0  0  0
   23.4681  -16.6418  -19.6537 C   0  0  0  0  0  0  0  0  0  0  0  0
   23.5821  -16.0005  -18.5550 O   0  0  0  0  0  0  0  0  0  0  0  0
   16.7391  -11.0423  -19.6734 O   0  0  0  0  0  0  0  0  0  0  0  0
   17.8583  -11.8244  -19.9697 C   0  0  0  0  0  0  0  0  0  0  0  0
   17.7085  -12.8442  -20.8868 C   0  0  0  0  0  0  0  0  0  0  0  0
   18.7798  -13.6560  -21.2239 C   0  0  0  0  0  0  0  0  0  0  0  0
   20.0282  -13.4583  -20.6418 C   0  0  0  0  0  0  0  0  0  0  0  0
   21.1189  -14.3422  -21.0346 C   0  0  0  0  0  0  0  0  0  0  0  0
   21.3471  -15.4620  -20.0283 C   0  0  2  0  0  0  0  0  0  0  0  0
   22.3503  -16.3781  -20.4792 N   0  0  0  0  0  0  0  0  0  0  0  0
   20.0516  -16.1765  -19.9231 C   0  0  0  0  0  0  0  0  0  0  0  0
   19.7658  -17.0062  -20.8257 O   0  0  0  0  0  0  0  0  0  0  0  0
   20.1578  -12.4486  -19.7395 C   0  0  0  0  0  0  0  0  0  0  0  0
   19.0849  -11.6245  -19.3940 C   0  0  0  0  0  0  0  0  0  0  0  0
   19.1121  -16.0008  -18.8923 N   0  0  0  0  0  0  0  0  0  0  0  0
   17.8702  -16.7452  -18.7911 C   0  0  1  0  0  0  0  0  0  0  0  0
   18.1114  -18.2244  -18.8162 C   0  0  0  0  0  0  0  0  0  0  0  0
   16.8491  -18.9723  -18.7317 C   0  0  0  0  0  0  0  0  0  0  0  0
   16.5144  -19.5675  -17.5242 C   0  0  0  0  0  0  0  0  0  0  0  0
   15.3504  -20.2905  -17.3372 C   0  0  0  0  0  0  0  0  0  0  0  0
   14.4945  -20.4215  -18.3896 C   0  0  0  0  0  0  0  0  0  0  0  0
   14.8213  -19.8284  -19.6005 C   0  0  0  0  0  0  0  0  0  0  0  0
   15.9786  -19.1076  -19.7941 C   0  0  0  0  0  0  0  0  0  0  0  0
   17.1163  -16.2950  -17.6343 C   0  0  0  0  0  0  0  0  0  0  0  0
   15.9811  -16.8413  -17.3958 O   0  0  0  0  0  0  0  0  0  0  0  0
   17.6057  -15.3052  -16.8073 O   0  0  0  0  0  0  0  0  0  0  0  0
  2  3  2  0
  2  1  1  0
  4  2  1  0
  5  4  1  0
  5  6  1  6
  7  8  2  0
  7  5  1  0
  9 10  1  0
 10 20  2  0
 10 11  1  0
 11 12  2  0
 12 13  1  0
 13 14  1  0
 15 14  1  6
 15 16  1  0
 16  7  1  0
 17 15  1  0
 17 21  1  0
 18 17  2  0
 19 13  2  0
 20 19  1  0
 22 21  1  0
 22 30  1  0
 22 23  1  1
 24 23  1  0
 25 24  2  0
 26 25  1  0
 27 26  2  0
 27 28  1  0
 28 29  2  0
 29 24  1  0
 30 32  1  0
 31 30  2  0
M  END
$$$$
