NYF.pdb
     RDKit          3D

 32 33  0  0  1  0  0  0  0  0999 V2000
   20.0045  -16.8566  -15.1750 N   0  0  0  0  0  0  0  0  0  0  0  0
   19.4603  -15.6391  -15.6906 C   0  0  0  0  0  0  0  0  0  0  0  0
   18.2191  -15.5328  -15.7927 O   0  0  0  0  0  0  0  0  0  0  0  0
   20.3986  -14.5278  -16.0926 C   0  0  0  0  0  0  0  0  0  0  0  0
   19.8845  -14.0664  -17.4672 C   0  0  2  0  0  0  0  0  0  0  0  0
   20.4414  -15.0545  -18.4067 N   0  0  0  0  0  0  0  0  0  0  0  0
   20.3968  -12.7253  -17.7959 C   0  0  0  0  0  0  0  0  0  0  0  0
   21.3846  -12.6654  -18.6033 O   0  0  0  0  0  0  0  0  0  0  0  0
   21.2543   -4.4553  -20.2664 O   0  0  0  0  0  0  0  0  0  0  0  0
   20.8594   -5.7517  -19.9267 C   0  0  0  0  0  0  0  0  0  0  0  0
   19.8212   -5.8959  -19.0295 C   0  0  0  0  0  0  0  0  0  0  0  0
   19.3821   -7.1547  -18.6514 C   0  0  0  0  0  0  0  0  0  0  0  0
   19.9819   -8.2985  -19.1692 C   0  0  0  0  0  0  0  0  0  0  0  0
   19.4785   -9.5963  -18.7362 C   0  0  0  0  0  0  0  0  0  0  0  0
   20.4041  -10.2704  -17.7325 C   0  0  2  0  0  0  0  0  0  0  0  0
   19.8696  -11.5186  -17.2797 N   0  0  0  0  0  0  0  0  0  0  0  0
   20.4959   -9.3378  -16.5828 C   0  0  0  0  0  0  0  0  0  0  0  0
   19.4715   -9.1897  -15.8661 O   0  0  0  0  0  0  0  0  0  0  0  0
   21.0042   -8.1378  -20.0523 C   0  0  0  0  0  0  0  0  0  0  0  0
   21.4531   -6.8739  -20.4405 C   0  0  0  0  0  0  0  0  0  0  0  0
   21.6395   -8.6019  -16.2272 N   0  0  0  0  0  0  0  0  0  0  0  0
   21.6788   -7.6370  -15.1436 C   0  0  1  0  0  0  0  0  0  0  0  0
   22.6454   -8.0490  -14.0745 C   0  0  0  0  0  0  0  0  0  0  0  0
   23.7871   -8.7808  -14.6408 C   0  0  0  0  0  0  0  0  0  0  0  0
   23.9597  -10.1109  -14.2863 C   0  0  0  0  0  0  0  0  0  0  0  0
   24.9979  -10.8897  -14.7638 C   0  0  0  0  0  0  0  0  0  0  0  0
   25.8903  -10.3214  -15.6228 C   0  0  0  0  0  0  0  0  0  0  0  0
   25.7244   -8.9920  -15.9833 C   0  0  0  0  0  0  0  0  0  0  0  0
   24.6934   -8.2104  -15.5115 C   0  0  0  0  0  0  0  0  0  0  0  0
   21.9245   -6.3074  -15.6735 C   0  0  0  0  0  0  0  0  0  0  0  0
   22.4111   -6.2021  -16.8551 O   0  0  0  0  0  0  0  0  0  0  0  0
   21.6415   -5.1810  -14.9289 O   0  0  0  0  0  0  0  0  0  0  0  0
  2  3  2  0
  2  1  1  0
  4  2  1  0
  5  4  1  0
  5  6  1  6
  7  8  2  0
  7  5  1  0
  9 10  1  0
 10 20  2  0
 10 11  1  0
 11 12  2  0
 12 13  1  0
 13 14  1  0
 15 14  1  6
 15 16  1  0
 16  7  1  0
 17 15  1  0
 17 21  1  0
 18 17  2  0
 19 13  2  0
 20 19  1  0
 22 21  1  0
 22 30  1  0
 22 23  1  1
 24 23  1  0
 25 24  2  0
 26 25  1  0
 27 26  2  0
 27 28  1  0
 28 29  2  0
 29 24  1  0
 30 32  1  0
 31 30  2  0
M  END
$$$$
