NYF.pdb
     RDKit          3D

 32 33  0  0  1  0  0  0  0  0999 V2000
   13.5152   -3.0630  -15.0723 N   0  0  0  0  0  0  0  0  0  0  0  0
   14.0842   -3.3286  -13.7878 C   0  0  0  0  0  0  0  0  0  0  0  0
   13.9893   -2.4560  -12.8978 O   0  0  0  0  0  0  0  0  0  0  0  0
   14.7772   -4.6478  -13.5502 C   0  0  0  0  0  0  0  0  0  0  0  0
   14.6817   -5.3826  -14.8984 C   0  0  2  0  0  0  0  0  0  0  0  0
   13.5507   -6.3090  -14.7208 N   0  0  0  0  0  0  0  0  0  0  0  0
   15.9117   -6.1466  -15.1677 C   0  0  0  0  0  0  0  0  0  0  0  0
   16.2379   -7.0376  -14.3127 O   0  0  0  0  0  0  0  0  0  0  0  0
   22.1906  -10.8900  -18.8317 O   0  0  0  0  0  0  0  0  0  0  0  0
   21.1661   -9.9589  -18.6433 C   0  0  0  0  0  0  0  0  0  0  0  0
   19.9990  -10.3948  -18.0504 C   0  0  0  0  0  0  0  0  0  0  0  0
   18.9451   -9.5210  -17.8355 C   0  0  0  0  0  0  0  0  0  0  0  0
   19.0439   -8.1860  -18.2155 C   0  0  0  0  0  0  0  0  0  0  0  0
   17.9041   -7.3124  -17.9644 C   0  0  0  0  0  0  0  0  0  0  0  0
   17.8413   -6.8450  -16.5166 C   0  0  2  0  0  0  0  0  0  0  0  0
   16.7406   -5.9566  -16.2979 N   0  0  0  0  0  0  0  0  0  0  0  0
   19.1089   -6.1132  -16.2763 C   0  0  0  0  0  0  0  0  0  0  0  0
   19.1626   -4.9051  -16.6264 O   0  0  0  0  0  0  0  0  0  0  0  0
   20.2015   -7.7736  -18.7988 C   0  0  0  0  0  0  0  0  0  0  0  0
   21.2695   -8.6458  -19.0186 C   0  0  0  0  0  0  0  0  0  0  0  0
   20.2609   -6.6623  -15.6870 N   0  0  0  0  0  0  0  0  0  0  0  0
   21.4241   -5.8845  -15.3013 C   0  0  1  0  0  0  0  0  0  0  0  0
   21.7866   -6.1118  -13.8647 C   0  0  0  0  0  0  0  0  0  0  0  0
   21.9878   -7.5404  -13.5848 C   0  0  0  0  0  0  0  0  0  0  0  0
   21.0289   -8.2077  -12.8366 C   0  0  0  0  0  0  0  0  0  0  0  0
   21.1202   -9.5506  -12.5194 C   0  0  0  0  0  0  0  0  0  0  0  0
   22.2031  -10.2479  -12.9648 C   0  0  0  0  0  0  0  0  0  0  0  0
   23.1662   -9.5884  -13.7147 C   0  0  0  0  0  0  0  0  0  0  0  0
   23.0821   -8.2515  -14.0339 C   0  0  0  0  0  0  0  0  0  0  0  0
   22.5154   -6.1343  -16.2264 C   0  0  0  0  0  0  0  0  0  0  0  0
   22.4031   -7.1075  -17.0536 O   0  0  0  0  0  0  0  0  0  0  0  0
   23.6472   -5.3455  -16.2214 O   0  0  0  0  0  0  0  0  0  0  0  0
  2  3  2  0
  2  1  1  0
  4  2  1  0
  5  4  1  0
  5  6  1  1
  7  8  2  0
  7  5  1  0
  9 10  1  0
 10 20  2  0
 10 11  1  0
 11 12  2  0
 12 13  1  0
 13 14  1  0
 15 14  1  6
 15 16  1  0
 16  7  1  0
 17 15  1  0
 17 21  1  0
 18 17  2  0
 19 13  2  0
 20 19  1  0
 22 21  1  0
 22 30  1  0
 22 23  1  1
 24 23  1  0
 25 24  2  0
 26 25  1  0
 27 26  2  0
 27 28  1  0
 28 29  2  0
 29 24  1  0
 30 32  1  0
 31 30  2  0
M  END
$$$$
