NYF.pdb
     RDKit          3D

 32 33  0  0  1  0  0  0  0  0999 V2000
   29.6162  -19.7659  -17.1217 N   0  0  0  0  0  0  0  0  0  0  0  0
   28.2351  -19.5696  -17.4349 C   0  0  0  0  0  0  0  0  0  0  0  0
   27.8995  -19.4776  -18.6354 O   0  0  0  0  0  0  0  0  0  0  0  0
   27.2328  -19.4804  -16.3104 C   0  0  0  0  0  0  0  0  0  0  0  0
   27.9099  -20.2001  -15.1313 C   0  0  2  0  0  0  0  0  0  0  0  0
   27.9722  -21.6076  -15.5604 N   0  0  0  0  0  0  0  0  0  0  0  0
   27.0939  -20.0890  -13.9104 C   0  0  0  0  0  0  0  0  0  0  0  0
   26.7373  -18.9142  -13.5580 O   0  0  0  0  0  0  0  0  0  0  0  0
   21.0324  -21.3803  -16.4067 O   0  0  0  0  0  0  0  0  0  0  0  0
   21.8916  -21.4998  -15.3115 C   0  0  0  0  0  0  0  0  0  0  0  0
   22.9170  -22.4194  -15.3931 C   0  0  0  0  0  0  0  0  0  0  0  0
   23.8033  -22.5865  -14.3410 C   0  0  0  0  0  0  0  0  0  0  0  0
   23.6748  -21.8297  -13.1804 C   0  0  0  0  0  0  0  0  0  0  0  0
   24.6361  -22.0474  -12.1063 C   0  0  0  0  0  0  0  0  0  0  0  0
   25.7237  -20.9820  -12.0785 C   0  0  2  0  0  0  0  0  0  0  0  0
   26.6875  -21.1869  -13.1167 N   0  0  0  0  0  0  0  0  0  0  0  0
   26.3923  -21.1261  -10.7623 C   0  0  0  0  0  0  0  0  0  0  0  0
   27.4676  -21.7793  -10.7205 O   0  0  0  0  0  0  0  0  0  0  0  0
   22.6582  -20.9280  -13.1170 C   0  0  0  0  0  0  0  0  0  0  0  0
   21.7607  -20.7514  -14.1719 C   0  0  0  0  0  0  0  0  0  0  0  0
   25.9197  -20.5900   -9.5518 N   0  0  0  0  0  0  0  0  0  0  0  0
   26.5785  -20.7731   -8.2715 C   0  0  1  0  0  0  0  0  0  0  0  0
   27.8513  -19.9856   -8.1898 C   0  0  0  0  0  0  0  0  0  0  0  0
   28.3143  -19.8626   -6.8005 C   0  0  0  0  0  0  0  0  0  0  0  0
   29.2121  -20.8039   -6.3183 C   0  0  0  0  0  0  0  0  0  0  0  0
   29.7116  -20.7781   -5.0290 C   0  0  0  0  0  0  0  0  0  0  0  0
   29.3015  -19.7800   -4.1966 C   0  0  0  0  0  0  0  0  0  0  0  0
   28.4046  -18.8339   -4.6712 C   0  0  0  0  0  0  0  0  0  0  0  0
   27.9027  -18.8536   -5.9535 C   0  0  0  0  0  0  0  0  0  0  0  0
   25.6480  -20.4946   -7.1919 C   0  0  0  0  0  0  0  0  0  0  0  0
   25.8533  -21.0454   -6.0524 O   0  0  0  0  0  0  0  0  0  0  0  0
   24.5685  -19.6567   -7.3813 O   0  0  0  0  0  0  0  0  0  0  0  0
  2  3  2  0
  2  1  1  0
  4  2  1  0
  5  4  1  0
  5  6  1  6
  7  8  2  0
  7  5  1  0
  9 10  1  0
 10 20  2  0
 10 11  1  0
 11 12  2  0
 12 13  1  0
 13 14  1  0
 15 14  1  6
 15 16  1  0
 16  7  1  0
 17 15  1  0
 17 21  1  0
 18 17  2  0
 19 13  2  0
 20 19  1  0
 22 21  1  0
 22 30  1  0
 22 23  1  6
 24 23  1  0
 25 24  2  0
 26 25  1  0
 27 26  2  0
 27 28  1  0
 28 29  2  0
 29 24  1  0
 30 32  1  0
 31 30  2  0
M  END
$$$$
