HET.pdb
     RDKit          3D

 27 27  0  0  1  0  0  0  0  0999 V2000
   37.2570   -8.5887  -15.4566 N   0  0  0  0  0  0  0  0  0  0  0  0
   36.2003   -7.7995  -14.8838 C   0  0  1  0  0  0  0  0  0  0  0  0
   36.6690   -6.5029  -14.2972 C   0  0  0  0  0  0  0  0  0  0  0  0
   37.6228   -6.7943  -13.2080 C   0  0  0  0  0  0  0  0  0  0  0  0
   39.0042   -6.6112  -13.2782 C   0  0  0  0  0  0  0  0  0  0  0  0
   39.5190   -6.9855  -12.1005 N   0  0  0  0  0  0  0  0  0  0  0  0
   38.5194   -7.3893  -11.3115 C   0  0  0  0  0  0  0  0  0  0  0  0
   37.3690   -7.2748  -11.9796 N   0  0  0  0  0  0  0  0  0  0  0  0
   35.1485   -7.5927  -15.9193 C   0  0  0  0  0  0  0  0  0  0  0  0
   35.4372   -7.3435  -17.1246 O   0  0  0  0  0  0  0  0  0  0  0  0
   33.7515   -7.6637  -15.6114 N   0  0  0  0  0  0  0  0  0  0  0  0
   32.7588   -7.4575  -16.6259 C   0  0  1  0  0  0  0  0  0  0  0  0
   31.7363   -8.5363  -16.7488 C   0  0  0  0  0  0  0  0  0  0  0  0
   30.7036   -8.4108  -17.7955 C   0  0  0  0  0  0  0  0  0  0  0  0
   29.6822   -9.4624  -17.8734 C   0  0  0  0  0  0  0  0  0  0  0  0
   28.6193   -9.3202  -17.2119 O   0  0  0  0  0  0  0  0  0  0  0  0
   32.0907   -6.1235  -16.4728 C   0  0  0  0  0  0  0  0  0  0  0  0
   31.4951   -5.7956  -15.4151 O   0  0  0  0  0  0  0  0  0  0  0  0
   29.8135  -10.6093  -18.6335 O   0  0  0  0  0  0  0  0  0  0  0  0
   33.4450   -2.6367  -16.6017 C   0  0  0  0  0  0  0  0  0  0  0  0
   32.4317   -2.8223  -17.6969 C   0  0  1  0  0  0  0  0  0  0  0  0
   33.1219   -3.1102  -18.8734 O   0  0  0  0  0  0  0  0  0  0  0  0
   31.4316   -3.9168  -17.3728 C   0  0  2  0  0  0  0  0  0  0  0  0
   32.1157   -5.1835  -17.5356 N   0  0  0  0  0  0  0  0  0  0  0  0
   30.3017   -3.7679  -18.3167 C   0  0  0  0  0  0  0  0  0  0  0  0
   29.3830   -2.7428  -18.1679 O   0  0  0  0  0  0  0  0  0  0  0  0
   30.1349   -4.5567  -19.2777 O   0  0  0  0  0  0  0  0  0  0  0  0
  2  1  1  6
  2  3  1  0
  4  3  1  0
  4  8  1  0
  5  6  1  0
  5  4  2  0
  6  7  1  0
  7  8  2  0
  9  2  1  0
  9 10  2  0
 11  9  1  0
 12 11  1  0
 12 13  1  1
 14 13  1  0
 15 14  1  0
 16 15  2  0
 17 12  1  0
 17 18  2  0
 19 15  1  0
 21 20  1  1
 21 23  1  0
 22 21  1  0
 23 24  1  6
 23 25  1  0
 24 17  1  0
 25 26  1  0
 27 25  2  0
M  END
$$$$
