HET.pdb
     RDKit          3D

 27 27  0  0  1  0  0  0  0  0999 V2000
   18.6957  -12.2826  -18.3135 N   0  0  0  0  0  0  0  0  0  0  0  0
   19.0355  -11.7549  -17.0199 C   0  0  1  0  0  0  0  0  0  0  0  0
   20.3620  -12.2274  -16.5076 C   0  0  0  0  0  0  0  0  0  0  0  0
   20.3258  -13.6990  -16.3890 C   0  0  0  0  0  0  0  0  0  0  0  0
   19.6527  -14.4093  -15.3945 C   0  0  0  0  0  0  0  0  0  0  0  0
   19.8557  -15.7124  -15.6248 N   0  0  0  0  0  0  0  0  0  0  0  0
   20.6209  -15.8350  -16.7129 C   0  0  0  0  0  0  0  0  0  0  0  0
   20.9077  -14.6169  -17.1785 N   0  0  0  0  0  0  0  0  0  0  0  0
   18.9612  -10.2676  -17.0802 C   0  0  0  0  0  0  0  0  0  0  0  0
   19.4390   -9.6135  -18.0508 O   0  0  0  0  0  0  0  0  0  0  0  0
   18.3457   -9.4926  -16.0448 N   0  0  0  0  0  0  0  0  0  0  0  0
   18.2338   -8.0669  -16.1549 C   0  0  1  0  0  0  0  0  0  0  0  0
   16.8520   -7.5217  -16.0207 C   0  0  0  0  0  0  0  0  0  0  0  0
   15.7213   -8.3483  -16.4856 C   0  0  0  0  0  0  0  0  0  0  0  0
   14.3809   -8.0058  -15.9946 C   0  0  0  0  0  0  0  0  0  0  0  0
   14.2524   -7.0017  -15.2445 O   0  0  0  0  0  0  0  0  0  0  0  0
   19.1614   -7.3714  -15.2036 C   0  0  0  0  0  0  0  0  0  0  0  0
   19.0958   -7.5501  -13.9607 O   0  0  0  0  0  0  0  0  0  0  0  0
   13.2401   -8.7214  -16.3059 O   0  0  0  0  0  0  0  0  0  0  0  0
   22.7819   -7.6554  -14.8510 C   0  0  0  0  0  0  0  0  0  0  0  0
   22.4650   -6.2181  -15.1587 C   0  0  1  0  0  0  0  0  0  0  0  0
   22.6590   -6.0208  -16.5250 O   0  0  0  0  0  0  0  0  0  0  0  0
   21.0519   -5.8431  -14.7516 C   0  0  2  0  0  0  0  0  0  0  0  0
   20.1524   -6.4805  -15.6916 N   0  0  0  0  0  0  0  0  0  0  0  0
   20.9602   -4.3671  -14.8054 C   0  0  0  0  0  0  0  0  0  0  0  0
   21.6434   -3.5800  -13.8940 O   0  0  0  0  0  0  0  0  0  0  0  0
   20.2673   -3.7789  -15.6699 O   0  0  0  0  0  0  0  0  0  0  0  0
  2  1  1  6
  2  3  1  0
  4  3  1  0
  4  8  1  0
  5  6  1  0
  5  4  2  0
  6  7  1  0
  7  8  2  0
  9  2  1  0
  9 10  2  0
 11  9  1  0
 12 11  1  0
 12 13  1  1
 14 13  1  0
 15 14  1  0
 16 15  2  0
 17 12  1  0
 17 18  2  0
 19 15  1  0
 21 20  1  6
 21 23  1  0
 22 21  1  0
 23 24  1  6
 23 25  1  0
 24 17  1  0
 25 26  1  0
 27 25  2  0
M  END
$$$$
