HET.pdb
     RDKit          3D

 27 27  0  0  1  0  0  0  0  0999 V2000
   16.9005  -10.8539  -17.1406 N   0  0  0  0  0  0  0  0  0  0  0  0
   17.6572  -10.5401  -15.9589 C   0  0  1  0  0  0  0  0  0  0  0  0
   18.8704  -11.4002  -15.7762 C   0  0  0  0  0  0  0  0  0  0  0  0
   18.4378  -12.8062  -15.6459 C   0  0  0  0  0  0  0  0  0  0  0  0
   17.5746  -13.2943  -14.6645 C   0  0  0  0  0  0  0  0  0  0  0  0
   17.4260  -14.6076  -14.8778 N   0  0  0  0  0  0  0  0  0  0  0  0
   18.1568  -14.9480  -15.9431 C   0  0  0  0  0  0  0  0  0  0  0  0
   18.7712  -13.8587  -16.4110 N   0  0  0  0  0  0  0  0  0  0  0  0
   18.0031   -9.0907  -15.9885 C   0  0  0  0  0  0  0  0  0  0  0  0
   18.4873   -8.5403  -17.0185 O   0  0  0  0  0  0  0  0  0  0  0  0
   17.8082   -8.2373  -14.8549 N   0  0  0  0  0  0  0  0  0  0  0  0
   18.1037   -6.8355  -14.9246 C   0  0  1  0  0  0  0  0  0  0  0  0
   16.9782   -5.9260  -14.5635 C   0  0  0  0  0  0  0  0  0  0  0  0
   17.2117   -4.4693  -14.5993 C   0  0  0  0  0  0  0  0  0  0  0  0
   16.0857   -3.5909  -14.2592 C   0  0  0  0  0  0  0  0  0  0  0  0
   14.9854   -4.1170  -13.9428 O   0  0  0  0  0  0  0  0  0  0  0  0
   19.3247   -6.4946  -14.1233 C   0  0  0  0  0  0  0  0  0  0  0  0
   19.4365   -6.8152  -12.9126 O   0  0  0  0  0  0  0  0  0  0  0  0
   16.1563   -2.2106  -14.2640 O   0  0  0  0  0  0  0  0  0  0  0  0
   22.8942   -7.4522  -14.5144 C   0  0  0  0  0  0  0  0  0  0  0  0
   22.7810   -5.9562  -14.6141 C   0  0  1  0  0  0  0  0  0  0  0  0
   22.7679   -5.6179  -15.9664 O   0  0  0  0  0  0  0  0  0  0  0  0
   21.5449   -5.4270  -13.9104 C   0  0  2  0  0  0  0  0  0  0  0  0
   20.4015   -5.7907  -14.7224 N   0  0  0  0  0  0  0  0  0  0  0  0
   21.7034   -3.9602  -13.7957 C   0  0  0  0  0  0  0  0  0  0  0  0
   22.6557   -3.4131  -12.9526 O   0  0  0  0  0  0  0  0  0  0  0  0
   20.9884   -3.1648  -14.4511 O   0  0  0  0  0  0  0  0  0  0  0  0
  2  1  1  6
  2  3  1  0
  4  3  1  0
  4  8  1  0
  5  6  1  0
  5  4  2  0
  6  7  1  0
  7  8  2  0
  9  2  1  0
  9 10  2  0
 11  9  1  0
 12 11  1  0
 12 13  1  1
 14 13  1  0
 15 14  1  0
 16 15  2  0
 17 12  1  0
 17 18  2  0
 19 15  1  0
 21 20  1  6
 21 23  1  0
 22 21  1  0
 23 24  1  6
 23 25  1  0
 24 17  1  0
 25 26  1  0
 27 25  2  0
M  END
$$$$
