HET.pdb
     RDKit          3D

 27 27  0  0  1  0  0  0  0  0999 V2000
   16.4822  -12.1748  -10.8791 N   0  0  0  0  0  0  0  0  0  0  0  0
   16.4649  -11.0979  -11.8317 C   0  0  1  0  0  0  0  0  0  0  0  0
   15.1123  -10.8398  -12.4224 C   0  0  0  0  0  0  0  0  0  0  0  0
   14.7449  -11.9844  -13.2802 C   0  0  0  0  0  0  0  0  0  0  0  0
   15.0622  -12.1101  -14.6330 C   0  0  0  0  0  0  0  0  0  0  0  0
   14.5596  -13.2764  -15.0565 N   0  0  0  0  0  0  0  0  0  0  0  0
   13.9494  -13.8719  -14.0281 C   0  0  0  0  0  0  0  0  0  0  0  0
   14.0598  -13.0917  -12.9501 N   0  0  0  0  0  0  0  0  0  0  0  0
   17.0286   -9.8810  -11.1816 C   0  0  0  0  0  0  0  0  0  0  0  0
   16.8247   -9.6200   -9.9615 O   0  0  0  0  0  0  0  0  0  0  0  0
   17.8326   -8.9371  -11.8985 N   0  0  0  0  0  0  0  0  0  0  0  0
   18.3161   -7.7448  -11.2645 C   0  0  1  0  0  0  0  0  0  0  0  0
   19.6048   -7.2151  -11.7967 C   0  0  0  0  0  0  0  0  0  0  0  0
   20.2083   -6.0406  -11.1378 C   0  0  0  0  0  0  0  0  0  0  0  0
   21.4766   -5.5347  -11.6769 C   0  0  0  0  0  0  0  0  0  0  0  0
   22.4956   -5.5515  -10.9361 O   0  0  0  0  0  0  0  0  0  0  0  0
   17.2732   -6.6669  -11.2612 C   0  0  0  0  0  0  0  0  0  0  0  0
   16.6225   -6.3680  -12.2948 O   0  0  0  0  0  0  0  0  0  0  0  0
   21.6254   -5.0367  -12.9576 O   0  0  0  0  0  0  0  0  0  0  0  0
   14.1505   -6.1795   -9.0413 C   0  0  0  0  0  0  0  0  0  0  0  0
   15.1239   -5.0438   -8.8878 C   0  0  1  0  0  0  0  0  0  0  0  0
   15.8867   -5.2862   -7.7464 O   0  0  0  0  0  0  0  0  0  0  0  0
   16.0108   -4.8805  -10.1085 C   0  0  2  0  0  0  0  0  0  0  0  0
   16.9906   -5.9470  -10.0714 N   0  0  0  0  0  0  0  0  0  0  0  0
   16.6381   -3.5434  -10.0153 C   0  0  0  0  0  0  0  0  0  0  0  0
   15.8825   -2.3930  -10.1654 O   0  0  0  0  0  0  0  0  0  0  0  0
   17.8657   -3.4028   -9.7990 O   0  0  0  0  0  0  0  0  0  0  0  0
  2  1  1  1
  2  3  1  0
  4  3  1  0
  4  8  1  0
  5  6  1  0
  5  4  2  0
  6  7  1  0
  7  8  2  0
  9  2  1  0
  9 10  2  0
 11  9  1  0
 12 11  1  0
 12 13  1  6
 14 13  1  0
 15 14  1  0
 16 15  2  0
 17 12  1  0
 17 18  2  0
 19 15  1  0
 21 20  1  6
 21 23  1  0
 22 21  1  0
 23 24  1  1
 23 25  1  0
 24 17  1  0
 25 26  1  0
 27 25  2  0
M  END
$$$$
