HET.pdb
     RDKit          3D

 27 27  0  0  1  0  0  0  0  0999 V2000
   20.0585  -13.0082  -17.1008 N   0  0  0  0  0  0  0  0  0  0  0  0
   19.2676  -11.8279  -16.8794 C   0  0  1  0  0  0  0  0  0  0  0  0
   18.3479  -11.9332  -15.7011 C   0  0  0  0  0  0  0  0  0  0  0  0
   17.2976  -12.9248  -16.0084 C   0  0  0  0  0  0  0  0  0  0  0  0
   17.1539  -13.5933  -17.2245 C   0  0  0  0  0  0  0  0  0  0  0  0
   16.0936  -14.4032  -17.1144 N   0  0  0  0  0  0  0  0  0  0  0  0
   15.5804  -14.2633  -15.8890 C   0  0  0  0  0  0  0  0  0  0  0  0
   16.3076  -13.3681  -15.2161 N   0  0  0  0  0  0  0  0  0  0  0  0
   20.1837  -10.6578  -16.7663 C   0  0  0  0  0  0  0  0  0  0  0  0
   21.3143  -10.7460  -16.2077 O   0  0  0  0  0  0  0  0  0  0  0  0
   19.8386   -9.3670  -17.2823 N   0  0  0  0  0  0  0  0  0  0  0  0
   20.7661   -8.2746  -17.2235 C   0  0  1  0  0  0  0  0  0  0  0  0
   20.9624   -7.5328  -18.5025 C   0  0  0  0  0  0  0  0  0  0  0  0
   19.7869   -6.9118  -19.1431 C   0  0  0  0  0  0  0  0  0  0  0  0
   19.9974   -5.6643  -19.8878 C   0  0  0  0  0  0  0  0  0  0  0  0
   21.1787   -5.2789  -20.0959 O   0  0  0  0  0  0  0  0  0  0  0  0
   20.4182   -7.3219  -16.1187 C   0  0  0  0  0  0  0  0  0  0  0  0
   19.2574   -6.8588  -15.9808 O   0  0  0  0  0  0  0  0  0  0  0  0
   18.9724   -4.8784  -20.3800 O   0  0  0  0  0  0  0  0  0  0  0  0
   20.3060   -7.8734  -12.6210 C   0  0  0  0  0  0  0  0  0  0  0  0
   21.2664   -6.7320  -12.8098 C   0  0  1  0  0  0  0  0  0  0  0  0
   22.5602   -7.2468  -12.7430 O   0  0  0  0  0  0  0  0  0  0  0  0
   21.0394   -6.0032  -14.1214 C   0  0  2  0  0  0  0  0  0  0  0  0
   21.4072   -6.9140  -15.1864 N   0  0  0  0  0  0  0  0  0  0  0  0
   21.8932   -4.7946  -14.1016 C   0  0  0  0  0  0  0  0  0  0  0  0
   21.6474   -3.7667  -13.2072 O   0  0  0  0  0  0  0  0  0  0  0  0
   22.8622   -4.6569  -14.8862 O   0  0  0  0  0  0  0  0  0  0  0  0
  2  1  1  1
  2  3  1  0
  4  3  1  0
  4  8  1  0
  5  6  1  0
  5  4  2  0
  6  7  1  0
  7  8  2  0
  9  2  1  0
  9 10  2  0
 11  9  1  0
 12 11  1  0
 12 13  1  6
 14 13  1  0
 15 14  1  0
 16 15  2  0
 17 12  1  0
 17 18  2  0
 19 15  1  0
 21 20  1  6
 21 23  1  0
 22 21  1  0
 23 24  1  6
 23 25  1  0
 24 17  1  0
 25 26  1  0
 27 25  2  0
M  END
$$$$
