HET.pdb
     RDKit          3D

 27 27  0  0  1  0  0  0  0  0999 V2000
   22.5869  -13.2534  -17.7176 N   0  0  0  0  0  0  0  0  0  0  0  0
   23.1505  -12.3714  -16.7317 C   0  0  1  0  0  0  0  0  0  0  0  0
   24.6420  -12.2536  -16.8134 C   0  0  0  0  0  0  0  0  0  0  0  0
   25.2351  -13.5847  -16.5741 C   0  0  0  0  0  0  0  0  0  0  0  0
   25.6182  -14.0822  -15.3282 C   0  0  0  0  0  0  0  0  0  0  0  0
   26.1090  -15.3128  -15.5211 N   0  0  0  0  0  0  0  0  0  0  0  0
   26.0451  -15.5935  -16.8256 C   0  0  0  0  0  0  0  0  0  0  0  0
   25.5160  -14.5485  -17.4666 N   0  0  0  0  0  0  0  0  0  0  0  0
   22.4814  -11.0445  -16.8450 C   0  0  0  0  0  0  0  0  0  0  0  0
   22.4559  -10.3997  -17.9321 O   0  0  0  0  0  0  0  0  0  0  0  0
   21.8293  -10.4223  -15.7319 N   0  0  0  0  0  0  0  0  0  0  0  0
   21.0945   -9.2011  -15.8930 C   0  0  1  0  0  0  0  0  0  0  0  0
   19.6523   -9.2683  -15.5185 C   0  0  0  0  0  0  0  0  0  0  0  0
   18.8055   -8.0852  -15.7654 C   0  0  0  0  0  0  0  0  0  0  0  0
   17.8189   -7.7282  -14.7385 C   0  0  0  0  0  0  0  0  0  0  0  0
   17.8450   -6.5642  -14.2568 O   0  0  0  0  0  0  0  0  0  0  0  0
   21.7636   -8.0634  -15.1809 C   0  0  0  0  0  0  0  0  0  0  0  0
   22.2890   -8.2052  -14.0474 O   0  0  0  0  0  0  0  0  0  0  0  0
   16.8541   -8.5957  -14.2623 O   0  0  0  0  0  0  0  0  0  0  0  0
   24.3322   -5.5658  -16.7728 C   0  0  0  0  0  0  0  0  0  0  0  0
   23.1833   -4.8469  -16.1216 C   0  0  1  0  0  0  0  0  0  0  0  0
   22.2932   -4.4670  -17.1249 O   0  0  0  0  0  0  0  0  0  0  0  0
   22.4905   -5.7022  -15.0769 C   0  0  2  0  0  0  0  0  0  0  0  0
   21.8215   -6.7781  -15.7797 N   0  0  0  0  0  0  0  0  0  0  0  0
   21.5369   -4.8268  -14.3598 C   0  0  0  0  0  0  0  0  0  0  0  0
   21.9883   -3.8368  -13.5036 O   0  0  0  0  0  0  0  0  0  0  0  0
   20.2960   -4.9470  -14.4989 O   0  0  0  0  0  0  0  0  0  0  0  0
  2  1  1  6
  2  3  1  0
  4  3  1  0
  4  8  1  0
  5  6  1  0
  5  4  2  0
  6  7  1  0
  7  8  2  0
  9  2  1  0
  9 10  2  0
 11  9  1  0
 12 11  1  0
 12 13  1  1
 14 13  1  0
 15 14  1  0
 16 15  2  0
 17 12  1  0
 17 18  2  0
 19 15  1  0
 21 20  1  6
 21 23  1  0
 22 21  1  0
 23 24  1  6
 23 25  1  0
 24 17  1  0
 25 26  1  0
 27 25  2  0
M  END
$$$$
