HET.pdb
     RDKit          3D

 27 27  0  0  1  0  0  0  0  0999 V2000
   22.9097  -12.8604  -17.7928 N   0  0  0  0  0  0  0  0  0  0  0  0
   23.2201  -12.1903  -16.5590 C   0  0  1  0  0  0  0  0  0  0  0  0
   24.6892  -12.0073  -16.3277 C   0  0  0  0  0  0  0  0  0  0  0  0
   25.3133  -13.3372  -16.1774 C   0  0  0  0  0  0  0  0  0  0  0  0
   25.2371  -14.1371  -15.0368 C   0  0  0  0  0  0  0  0  0  0  0  0
   25.9251  -15.2582  -15.2860 N   0  0  0  0  0  0  0  0  0  0  0  0
   26.4194  -15.1839  -16.5249 C   0  0  0  0  0  0  0  0  0  0  0  0
   26.0506  -14.0212  -17.0679 N   0  0  0  0  0  0  0  0  0  0  0  0
   22.4869  -10.8932  -16.5266 C   0  0  0  0  0  0  0  0  0  0  0  0
   22.6496  -10.0112  -17.4176 O   0  0  0  0  0  0  0  0  0  0  0  0
   21.5566  -10.5694  -15.4868 N   0  0  0  0  0  0  0  0  0  0  0  0
   20.7849   -9.3613  -15.5342 C   0  0  1  0  0  0  0  0  0  0  0  0
   19.3773   -9.4825  -15.0564 C   0  0  0  0  0  0  0  0  0  0  0  0
   18.5414  -10.5709  -15.5991 C   0  0  0  0  0  0  0  0  0  0  0  0
   17.1757  -10.7049  -15.0774 C   0  0  0  0  0  0  0  0  0  0  0  0
   17.0164  -11.1779  -13.9206 O   0  0  0  0  0  0  0  0  0  0  0  0
   21.4809   -8.2405  -14.8211 C   0  0  0  0  0  0  0  0  0  0  0  0
   22.0207   -8.4012  -13.6969 O   0  0  0  0  0  0  0  0  0  0  0  0
   16.0429  -10.3416  -15.7812 O   0  0  0  0  0  0  0  0  0  0  0  0
   24.0994   -5.8539  -16.4709 C   0  0  0  0  0  0  0  0  0  0  0  0
   22.9902   -5.0884  -15.8041 C   0  0  1  0  0  0  0  0  0  0  0  0
   22.0908   -4.6914  -16.7924 O   0  0  0  0  0  0  0  0  0  0  0  0
   22.2929   -5.9066  -14.7329 C   0  0  2  0  0  0  0  0  0  0  0  0
   21.5487   -6.9503  -15.4081 N   0  0  0  0  0  0  0  0  0  0  0  0
   21.4081   -4.9842  -13.9871 C   0  0  0  0  0  0  0  0  0  0  0  0
   21.9368   -3.9921  -13.1789 O   0  0  0  0  0  0  0  0  0  0  0  0
   20.1584   -5.0651  -14.0581 O   0  0  0  0  0  0  0  0  0  0  0  0
  2  1  1  6
  2  3  1  0
  4  3  1  0
  4  8  1  0
  5  6  1  0
  5  4  2  0
  6  7  1  0
  7  8  2  0
  9  2  1  0
  9 10  2  0
 11  9  1  0
 12 11  1  0
 12 13  1  1
 14 13  1  0
 15 14  1  0
 16 15  2  0
 17 12  1  0
 17 18  2  0
 19 15  1  0
 21 20  1  6
 21 23  1  0
 22 21  1  0
 23 24  1  6
 23 25  1  0
 24 17  1  0
 25 26  1  0
 27 25  2  0
M  END
$$$$
