HET.pdb
     RDKit          3D

 27 27  0  0  1  0  0  0  0  0999 V2000
   21.7627  -12.6126  -16.6283 N   0  0  0  0  0  0  0  0  0  0  0  0
   20.9525  -11.4292  -16.7311 C   0  0  1  0  0  0  0  0  0  0  0  0
   19.6505  -11.5266  -15.9959 C   0  0  0  0  0  0  0  0  0  0  0  0
   18.8167  -12.5577  -16.6457 C   0  0  0  0  0  0  0  0  0  0  0  0
   19.0999  -13.9237  -16.6692 C   0  0  0  0  0  0  0  0  0  0  0  0
   18.1161  -14.5259  -17.3488 N   0  0  0  0  0  0  0  0  0  0  0  0
   17.2433  -13.5945  -17.7431 C   0  0  0  0  0  0  0  0  0  0  0  0
   17.6648  -12.4007  -17.3187 N   0  0  0  0  0  0  0  0  0  0  0  0
   21.7600  -10.2611  -16.2787 C   0  0  0  0  0  0  0  0  0  0  0  0
   22.2940  -10.2214  -15.1335 O   0  0  0  0  0  0  0  0  0  0  0  0
   21.9785   -9.1170  -17.1121 N   0  0  0  0  0  0  0  0  0  0  0  0
   22.7720   -8.0118  -16.6582 C   0  0  1  0  0  0  0  0  0  0  0  0
   23.7160   -7.4461  -17.6650 C   0  0  0  0  0  0  0  0  0  0  0  0
   24.5823   -6.3211  -17.2629 C   0  0  0  0  0  0  0  0  0  0  0  0
   25.5461   -5.8180  -18.2493 C   0  0  0  0  0  0  0  0  0  0  0  0
   25.2817   -4.7470  -18.8580 O   0  0  0  0  0  0  0  0  0  0  0  0
   21.9148   -6.9246  -16.0816 C   0  0  0  0  0  0  0  0  0  0  0  0
   21.0490   -6.3254  -16.7689 O   0  0  0  0  0  0  0  0  0  0  0  0
   26.7364   -6.4503  -18.5556 O   0  0  0  0  0  0  0  0  0  0  0  0
   19.4394   -7.0637  -13.5415 C   0  0  0  0  0  0  0  0  0  0  0  0
   20.4209   -6.0283  -13.0668 C   0  0  1  0  0  0  0  0  0  0  0  0
   21.2368   -6.6222  -12.1050 O   0  0  0  0  0  0  0  0  0  0  0  0
   21.2489   -5.4595  -14.2043 C   0  0  2  0  0  0  0  0  0  0  0  0
   22.0623   -6.5401  -14.7236 N   0  0  0  0  0  0  0  0  0  0  0  0
   22.0698   -4.3648  -13.6407 C   0  0  0  0  0  0  0  0  0  0  0  0
   21.4807   -3.1955  -13.1907 O   0  0  0  0  0  0  0  0  0  0  0  0
   23.3177   -4.4537  -13.5501 O   0  0  0  0  0  0  0  0  0  0  0  0
  2  1  1  1
  2  3  1  0
  4  3  1  0
  4  8  1  0
  5  6  1  0
  5  4  2  0
  6  7  1  0
  7  8  2  0
  9  2  1  0
  9 10  2  0
 11  9  1  0
 12 11  1  0
 12 13  1  6
 14 13  1  0
 15 14  1  0
 16 15  2  0
 17 12  1  0
 17 18  2  0
 19 15  1  0
 21 20  1  6
 21 23  1  0
 22 21  1  0
 23 24  1  1
 23 25  1  0
 24 17  1  0
 25 26  1  0
 27 25  2  0
M  END
$$$$
