HET.pdb
     RDKit          3D

 27 27  0  0  1  0  0  0  0  0999 V2000
   18.2537  -12.8793  -16.1150 N   0  0  0  0  0  0  0  0  0  0  0  0
   17.9539  -11.4737  -16.0746 C   0  0  1  0  0  0  0  0  0  0  0  0
   16.8526  -11.1213  -15.1216 C   0  0  0  0  0  0  0  0  0  0  0  0
   15.6026  -11.7535  -15.5893 C   0  0  0  0  0  0  0  0  0  0  0  0
   14.9407  -12.7996  -14.9456 C   0  0  0  0  0  0  0  0  0  0  0  0
   13.8549  -13.0944  -15.6712 N   0  0  0  0  0  0  0  0  0  0  0  0
   13.8194  -12.2790  -16.7288 C   0  0  0  0  0  0  0  0  0  0  0  0
   14.8769  -11.4653  -16.6823 N   0  0  0  0  0  0  0  0  0  0  0  0
   19.2094  -10.7296  -15.7722 C   0  0  0  0  0  0  0  0  0  0  0  0
   20.0119  -11.1109  -14.8730 O   0  0  0  0  0  0  0  0  0  0  0  0
   19.5805   -9.5414  -16.4806 N   0  0  0  0  0  0  0  0  0  0  0  0
   20.8278   -8.8833  -16.2192 C   0  0  1  0  0  0  0  0  0  0  0  0
   21.7811   -8.8412  -17.3655 C   0  0  0  0  0  0  0  0  0  0  0  0
   21.2338   -8.7412  -18.7323 C   0  0  0  0  0  0  0  0  0  0  0  0
   22.1754   -8.4629  -19.8237 C   0  0  0  0  0  0  0  0  0  0  0  0
   21.7266   -8.3693  -20.9973 O   0  0  0  0  0  0  0  0  0  0  0  0
   20.6130   -7.5039  -15.6712 C   0  0  0  0  0  0  0  0  0  0  0  0
   19.8441   -6.6794  -16.2281 O   0  0  0  0  0  0  0  0  0  0  0  0
   23.5355   -8.2953  -19.6441 O   0  0  0  0  0  0  0  0  0  0  0  0
   19.3598   -6.5924  -12.3133 C   0  0  0  0  0  0  0  0  0  0  0  0
   20.6824   -5.9039  -12.5073 C   0  0  1  0  0  0  0  0  0  0  0  0
   21.6513   -6.6405  -11.8275 O   0  0  0  0  0  0  0  0  0  0  0  0
   21.0423   -5.7574  -13.9743 C   0  0  2  0  0  0  0  0  0  0  0  0
   21.2831   -7.0893  -14.4910 N   0  0  0  0  0  0  0  0  0  0  0  0
   22.2504   -4.9057  -14.0435 C   0  0  0  0  0  0  0  0  0  0  0  0
   22.2005   -3.5720  -13.6750 O   0  0  0  0  0  0  0  0  0  0  0  0
   23.3544   -5.3549  -14.4345 O   0  0  0  0  0  0  0  0  0  0  0  0
  2  1  1  1
  2  3  1  0
  4  3  1  0
  4  8  1  0
  5  6  1  0
  5  4  2  0
  6  7  1  0
  7  8  2  0
  9  2  1  0
  9 10  2  0
 11  9  1  0
 12 11  1  0
 12 13  1  6
 14 13  1  0
 15 14  1  0
 16 15  2  0
 17 12  1  0
 17 18  2  0
 19 15  1  0
 21 20  1  6
 21 23  1  0
 22 21  1  0
 23 24  1  1
 23 25  1  0
 24 17  1  0
 25 26  1  0
 27 25  2  0
M  END
$$$$
