HNG.pdb
     RDKit          3D

 23 23  0  0  1  0  0  0  0  0999 V2000
   11.9943  -13.5519   19.8323 N   0  0  0  0  0  0  0  0  0  0  0  0
   11.6734  -14.7350   19.1030 C   0  0  1  0  0  0  0  0  0  0  0  0
   10.7536  -14.4708   17.9303 C   0  0  0  0  0  0  0  0  0  0  0  0
    9.5404  -13.7360   18.3849 C   0  0  0  0  0  0  0  0  0  0  0  0
    9.4131  -13.0752   19.5881 C   0  0  0  0  0  0  0  0  0  0  0  0
    8.1892  -12.5363   19.6462 N   0  0  0  0  0  0  0  0  0  0  0  0
    7.5609  -12.8533   18.5009 C   0  0  0  0  0  0  0  0  0  0  0  0
    8.3878  -13.5823   17.7391 N   0  0  0  0  0  0  0  0  0  0  0  0
   12.9190  -15.4005   18.6476 C   0  0  0  0  0  0  0  0  0  0  0  0
   12.8386  -16.3840   17.8998 O   0  0  0  0  0  0  0  0  0  0  0  0
   15.8059  -12.7457   16.5937 N   0  0  0  0  0  0  0  0  0  0  0  0
   15.9753  -14.1414   16.8015 C   0  0  0  0  0  0  0  0  0  0  0  0
   15.7147  -14.9058   15.8412 O   0  0  0  0  0  0  0  0  0  0  0  0
   16.4410  -14.6862   18.0976 C   0  0  0  0  0  0  0  0  0  0  0  0
   15.4462  -15.6294   18.6886 C   0  0  2  0  0  0  0  0  0  0  0  0
   14.2099  -14.9586   19.0326 N   0  0  0  0  0  0  0  0  0  0  0  0
   15.9918  -16.3568   19.8749 C   0  0  0  0  0  0  0  0  0  0  0  0
   16.9789  -17.1071   19.8344 O   0  0  0  0  0  0  0  0  0  0  0  0
   15.3442  -16.1841   21.1370 N   0  0  0  0  0  0  0  0  0  0  0  0
   15.7665  -16.8751   22.3264 C   0  0  0  0  0  0  0  0  0  0  0  0
   17.0264  -16.3201   22.8829 C   0  0  0  0  0  0  0  0  0  0  0  0
   17.6171  -15.4358   22.2242 O   0  0  0  0  0  0  0  0  0  0  0  0
   17.5131  -16.7835   24.0965 O   0  0  0  0  0  0  0  0  0  0  0  0
  2  9  1  0
  2  1  1  6
  3  2  1  0
  4  5  2  0
  4  3  1  0
  6  5  1  0
  7  8  2  0
  7  6  1  0
  8  4  1  0
  9 10  2  0
 11 12  1  0
 12 14  1  0
 13 12  2  0
 15 14  1  1
 15 17  1  0
 16  9  1  0
 16 15  1  0
 17 19  1  0
 18 17  2  0
 19 20  1  0
 20 21  1  0
 21 22  2  0
 21 23  1  0
M  END
$$$$
