HNG.pdb
     RDKit          3D

 23 23  0  0  1  0  0  0  0  0999 V2000
   10.7925  -21.8018   19.8123 N   0  0  0  0  0  0  0  0  0  0  0  0
   10.1307  -20.6232   20.2676 C   0  0  1  0  0  0  0  0  0  0  0  0
    8.7837  -20.4145   19.6096 C   0  0  0  0  0  0  0  0  0  0  0  0
    8.9364  -20.3762   18.1284 C   0  0  0  0  0  0  0  0  0  0  0  0
    9.4782  -19.3319   17.4099 C   0  0  0  0  0  0  0  0  0  0  0  0
    9.4500  -19.6540   16.1110 N   0  0  0  0  0  0  0  0  0  0  0  0
    8.9007  -20.8772   16.0169 C   0  0  0  0  0  0  0  0  0  0  0  0
    8.5910  -21.3101   17.2466 N   0  0  0  0  0  0  0  0  0  0  0  0
    9.9879  -20.6630   21.7440 C   0  0  0  0  0  0  0  0  0  0  0  0
    9.4422  -19.7143   22.3229 O   0  0  0  0  0  0  0  0  0  0  0  0
    7.8255  -24.0146   22.8411 N   0  0  0  0  0  0  0  0  0  0  0  0
    8.2054  -23.0311   23.7939 C   0  0  0  0  0  0  0  0  0  0  0  0
    7.3516  -22.1657   24.1049 O   0  0  0  0  0  0  0  0  0  0  0  0
    9.5547  -23.0165   24.4044 C   0  0  0  0  0  0  0  0  0  0  0  0
   10.3425  -21.8243   23.9726 C   0  0  2  0  0  0  0  0  0  0  0  0
   10.4517  -21.7473   22.5307 N   0  0  0  0  0  0  0  0  0  0  0  0
   11.6981  -21.7842   24.6007 C   0  0  0  0  0  0  0  0  0  0  0  0
   11.9091  -21.9795   25.8075 O   0  0  0  0  0  0  0  0  0  0  0  0
   12.8263  -21.5047   23.7693 N   0  0  0  0  0  0  0  0  0  0  0  0
   14.1686  -21.4309   24.2823 C   0  0  0  0  0  0  0  0  0  0  0  0
   14.5728  -20.0387   24.6042 C   0  0  0  0  0  0  0  0  0  0  0  0
   14.2343  -19.5735   25.7149 O   0  0  0  0  0  0  0  0  0  0  0  0
   15.3022  -19.2974   23.6861 O   0  0  0  0  0  0  0  0  0  0  0  0
  2  9  1  0
  2  1  1  6
  3  2  1  0
  4  5  2  0
  4  3  1  0
  6  5  1  0
  7  8  2  0
  7  6  1  0
  8  4  1  0
  9 10  2  0
 11 12  1  0
 12 14  1  0
 13 12  2  0
 15 14  1  6
 15 17  1  0
 16  9  1  0
 16 15  1  0
 17 19  1  0
 18 17  2  0
 19 20  1  0
 20 21  1  0
 21 22  2  0
 21 23  1  0
M  END
$$$$
