HNG.pdb
     RDKit          3D

 23 23  0  0  1  0  0  0  0  0999 V2000
    9.5079  -15.2455   12.6322 N   0  0  0  0  0  0  0  0  0  0  0  0
   10.8805  -14.9594   12.8945 C   0  0  1  0  0  0  0  0  0  0  0  0
   11.2888  -13.5742   12.4411 C   0  0  0  0  0  0  0  0  0  0  0  0
   11.2053  -13.4743   10.9573 C   0  0  0  0  0  0  0  0  0  0  0  0
   12.1381  -13.9701   10.0714 C   0  0  0  0  0  0  0  0  0  0  0  0
   11.7273  -13.6939    8.8277 N   0  0  0  0  0  0  0  0  0  0  0  0
   10.5590  -13.0373    8.9318 C   0  0  0  0  0  0  0  0  0  0  0  0
   10.2478  -12.9073   10.2287 N   0  0  0  0  0  0  0  0  0  0  0  0
   11.1663  -15.1391   14.3393 C   0  0  0  0  0  0  0  0  0  0  0  0
   10.4930  -14.5143   15.1696 O   0  0  0  0  0  0  0  0  0  0  0  0
   10.3492  -17.8783   16.0478 N   0  0  0  0  0  0  0  0  0  0  0  0
   11.5961  -18.4212   16.4602 C   0  0  0  0  0  0  0  0  0  0  0  0
   11.6297  -19.6425   16.7466 O   0  0  0  0  0  0  0  0  0  0  0  0
   12.8172  -17.5883   16.5529 C   0  0  0  0  0  0  0  0  0  0  0  0
   12.5385  -16.1616   16.2135 C   0  0  2  0  0  0  0  0  0  0  0  0
   12.1843  -16.0016   14.8186 N   0  0  0  0  0  0  0  0  0  0  0  0
   13.6789  -15.2626   16.5679 C   0  0  0  0  0  0  0  0  0  0  0  0
   14.5835  -14.9467   15.7800 O   0  0  0  0  0  0  0  0  0  0  0  0
   13.7399  -14.7295   17.8924 N   0  0  0  0  0  0  0  0  0  0  0  0
   14.7662  -13.8128   18.3130 C   0  0  0  0  0  0  0  0  0  0  0  0
   15.9979  -14.5122   18.7587 C   0  0  0  0  0  0  0  0  0  0  0  0
   16.0176  -15.7612   18.6927 O   0  0  0  0  0  0  0  0  0  0  0  0
   17.0795  -13.7820   19.2293 O   0  0  0  0  0  0  0  0  0  0  0  0
  2  9  1  0
  2  1  1  1
  3  2  1  0
  4  5  2  0
  4  3  1  0
  6  5  1  0
  7  8  2  0
  7  6  1  0
  8  4  1  0
  9 10  2  0
 11 12  1  0
 12 14  1  0
 13 12  2  0
 15 14  1  6
 15 17  1  0
 16  9  1  0
 16 15  1  0
 17 19  1  0
 18 17  2  0
 19 20  1  0
 20 21  1  0
 21 22  2  0
 21 23  1  0
M  END
$$$$
