HNG.pdb
     RDKit          3D

 23 23  0  0  1  0  0  0  0  0999 V2000
    7.5743  -16.8794   20.0771 N   0  0  0  0  0  0  0  0  0  0  0  0
    8.7222  -17.0102   19.2405 C   0  0  1  0  0  0  0  0  0  0  0  0
    9.3863  -15.6831   18.9425 C   0  0  0  0  0  0  0  0  0  0  0  0
    8.4509  -14.7975   18.1945 C   0  0  0  0  0  0  0  0  0  0  0  0
    7.5558  -13.9191   18.7671 C   0  0  0  0  0  0  0  0  0  0  0  0
    6.8884  -13.2981   17.7869 N   0  0  0  0  0  0  0  0  0  0  0  0
    7.3563  -13.7781   16.6217 C   0  0  0  0  0  0  0  0  0  0  0  0
    8.3055  -14.6889   16.8769 N   0  0  0  0  0  0  0  0  0  0  0  0
    9.6911  -17.9500   19.8566 C   0  0  0  0  0  0  0  0  0  0  0  0
    9.9649  -17.8322   21.0584 O   0  0  0  0  0  0  0  0  0  0  0  0
    8.8894  -20.5042   20.2977 N   0  0  0  0  0  0  0  0  0  0  0  0
    9.8139  -21.5203   19.9336 C   0  0  0  0  0  0  0  0  0  0  0  0
    9.3991  -22.7045   19.9246 O   0  0  0  0  0  0  0  0  0  0  0  0
   11.2166  -21.2070   19.5762 C   0  0  0  0  0  0  0  0  0  0  0  0
   11.4737  -19.7366   19.5894 C   0  0  2  0  0  0  0  0  0  0  0  0
   10.3245  -18.9872   19.1265 N   0  0  0  0  0  0  0  0  0  0  0  0
   12.6886  -19.3677   18.8007 C   0  0  0  0  0  0  0  0  0  0  0  0
   13.0052  -19.8997   17.7257 O   0  0  0  0  0  0  0  0  0  0  0  0
   13.5437  -18.3408   19.3070 N   0  0  0  0  0  0  0  0  0  0  0  0
   14.7512  -18.6264   20.0358 C   0  0  0  0  0  0  0  0  0  0  0  0
   15.7633  -19.3198   19.1992 C   0  0  0  0  0  0  0  0  0  0  0  0
   15.4711  -20.4469   18.7419 O   0  0  0  0  0  0  0  0  0  0  0  0
   16.9868  -18.7168   18.9468 O   0  0  0  0  0  0  0  0  0  0  0  0
  2  9  1  0
  2  1  1  1
  3  2  1  0
  4  5  2  0
  4  3  1  0
  6  5  1  0
  7  8  2  0
  7  6  1  0
  8  4  1  0
  9 10  2  0
 11 12  1  0
 12 14  1  0
 13 12  2  0
 15 14  1  6
 15 17  1  0
 16  9  1  0
 16 15  1  0
 17 19  1  0
 18 17  2  0
 19 20  1  0
 20 21  1  0
 21 22  2  0
 21 23  1  0
M  END
$$$$
