HNG.pdb
     RDKit          3D

 23 23  0  0  1  0  0  0  0  0999 V2000
    8.1065  -12.8428   18.0268 N   0  0  0  0  0  0  0  0  0  0  0  0
    8.6931  -14.1065   18.3324 C   0  0  1  0  0  0  0  0  0  0  0  0
    9.8492  -14.4538   17.4192 C   0  0  0  0  0  0  0  0  0  0  0  0
    9.3544  -14.7020   16.0364 C   0  0  0  0  0  0  0  0  0  0  0  0
    8.0359  -14.8991   15.6852 C   0  0  0  0  0  0  0  0  0  0  0  0
    7.9758  -15.0901   14.3617 N   0  0  0  0  0  0  0  0  0  0  0  0
    9.2330  -15.0142   13.8919 C   0  0  0  0  0  0  0  0  0  0  0  0
   10.0655  -14.7781   14.9150 N   0  0  0  0  0  0  0  0  0  0  0  0
    9.1254  -14.1321   19.7516 C   0  0  0  0  0  0  0  0  0  0  0  0
    9.7784  -13.1808   20.2005 O   0  0  0  0  0  0  0  0  0  0  0  0
    6.8480  -13.8969   22.0145 N   0  0  0  0  0  0  0  0  0  0  0  0
    6.9381  -15.1704   22.6388 C   0  0  0  0  0  0  0  0  0  0  0  0
    5.8645  -15.7375   22.9554 O   0  0  0  0  0  0  0  0  0  0  0  0
    8.2434  -15.8150   22.9113 C   0  0  0  0  0  0  0  0  0  0  0  0
    9.3061  -15.3207   21.9867 C   0  0  2  0  0  0  0  0  0  0  0  0
    8.8226  -15.2057   20.6267 N   0  0  0  0  0  0  0  0  0  0  0  0
   10.5355  -16.1695   22.0326 C   0  0  0  0  0  0  0  0  0  0  0  0
   10.5249  -17.3954   22.2222 O   0  0  0  0  0  0  0  0  0  0  0  0
   11.8052  -15.5401   21.8481 N   0  0  0  0  0  0  0  0  0  0  0  0
   13.0400  -16.2783   21.8206 C   0  0  0  0  0  0  0  0  0  0  0  0
   13.8616  -16.0472   23.0358 C   0  0  0  0  0  0  0  0  0  0  0  0
   14.6648  -15.0883   23.0250 O   0  0  0  0  0  0  0  0  0  0  0  0
   13.7249  -16.8816   24.1355 O   0  0  0  0  0  0  0  0  0  0  0  0
  2  9  1  0
  2  1  1  6
  3  2  1  0
  4  5  2  0
  4  3  1  0
  6  5  1  0
  7  8  2  0
  7  6  1  0
  8  4  1  0
  9 10  2  0
 11 12  1  0
 12 14  1  0
 13 12  2  0
 15 14  1  1
 15 17  1  0
 16  9  1  0
 16 15  1  0
 17 19  1  0
 18 17  2  0
 19 20  1  0
 20 21  1  0
 21 22  2  0
 21 23  1  0
M  END
$$$$
