HNG.pdb
     RDKit          3D

 23 23  0  0  1  0  0  0  0  0999 V2000
   10.5003  -15.5388   20.2744 N   0  0  0  0  0  0  0  0  0  0  0  0
    9.7988  -14.7386   21.2242 C   0  0  1  0  0  0  0  0  0  0  0  0
    8.3154  -14.6501   20.9365 C   0  0  0  0  0  0  0  0  0  0  0  0
    8.0872  -14.0162   19.6081 C   0  0  0  0  0  0  0  0  0  0  0  0
    9.0743  -13.6701   18.7101 C   0  0  0  0  0  0  0  0  0  0  0  0
    8.4935  -13.1275   17.6330 N   0  0  0  0  0  0  0  0  0  0  0  0
    7.1672  -13.1333   17.8516 C   0  0  0  0  0  0  0  0  0  0  0  0
    6.9274  -13.6747   19.0537 N   0  0  0  0  0  0  0  0  0  0  0  0
   10.0329  -15.2596   22.5937 C   0  0  0  0  0  0  0  0  0  0  0  0
    9.4793  -14.7055   23.5526 O   0  0  0  0  0  0  0  0  0  0  0  0
   10.5396  -18.5147   26.8535 N   0  0  0  0  0  0  0  0  0  0  0  0
   11.2690  -18.8152   25.6714 C   0  0  0  0  0  0  0  0  0  0  0  0
   12.2875  -19.5389   25.7874 O   0  0  0  0  0  0  0  0  0  0  0  0
   10.8537  -18.2999   24.3464 C   0  0  0  0  0  0  0  0  0  0  0  0
   11.2012  -16.8575   24.1821 C   0  0  2  0  0  0  0  0  0  0  0  0
   10.8693  -16.3734   22.8584 N   0  0  0  0  0  0  0  0  0  0  0  0
   12.6373  -16.5827   24.4924 C   0  0  0  0  0  0  0  0  0  0  0  0
   13.1292  -16.6651   25.6283 O   0  0  0  0  0  0  0  0  0  0  0  0
   13.5046  -16.2011   23.4227 N   0  0  0  0  0  0  0  0  0  0  0  0
   14.9186  -16.0049   23.6030 C   0  0  0  0  0  0  0  0  0  0  0  0
   15.5847  -15.5346   22.3620 C   0  0  0  0  0  0  0  0  0  0  0  0
   16.8188  -15.3340   22.4006 O   0  0  0  0  0  0  0  0  0  0  0  0
   14.8409  -15.3313   21.2087 O   0  0  0  0  0  0  0  0  0  0  0  0
  2  9  1  0
  2  1  1  6
  3  2  1  0
  4  5  2  0
  4  3  1  0
  6  5  1  0
  7  8  2  0
  7  6  1  0
  8  4  1  0
  9 10  2  0
 11 12  1  0
 12 14  1  0
 13 12  2  0
 15 14  1  6
 15 17  1  0
 16  9  1  0
 16 15  1  0
 17 19  1  0
 18 17  2  0
 19 20  1  0
 20 21  1  0
 21 22  2  0
 21 23  1  0
M  END
$$$$
