HNG.pdb
     RDKit          3D

 23 23  0  0  1  0  0  0  0  0999 V2000
   13.2731  -24.8764   30.0773 N   0  0  0  0  0  0  0  0  0  0  0  0
   12.8770  -24.5008   31.3951 C   0  0  1  0  0  0  0  0  0  0  0  0
   11.5832  -23.7156   31.4182 C   0  0  0  0  0  0  0  0  0  0  0  0
   11.7081  -22.4954   30.5732 C   0  0  0  0  0  0  0  0  0  0  0  0
   12.5954  -21.4629   30.7906 C   0  0  0  0  0  0  0  0  0  0  0  0
   12.4184  -20.5455   29.8320 N   0  0  0  0  0  0  0  0  0  0  0  0
   11.4386  -20.9945   29.0286 C   0  0  0  0  0  0  0  0  0  0  0  0
   11.0116  -22.1798   29.4849 N   0  0  0  0  0  0  0  0  0  0  0  0
   12.7690  -25.7070   32.2525 C   0  0  0  0  0  0  0  0  0  0  0  0
   11.9524  -26.5883   31.9534 O   0  0  0  0  0  0  0  0  0  0  0  0
   14.8590  -27.9803   32.0043 N   0  0  0  0  0  0  0  0  0  0  0  0
   15.5189  -28.0661   33.2600 C   0  0  0  0  0  0  0  0  0  0  0  0
   16.6874  -28.5233   33.2702 O   0  0  0  0  0  0  0  0  0  0  0  0
   14.8637  -27.6357   34.5166 C   0  0  0  0  0  0  0  0  0  0  0  0
   13.5066  -27.0672   34.2641 C   0  0  2  0  0  0  0  0  0  0  0  0
   13.5649  -25.8995   33.4098 N   0  0  0  0  0  0  0  0  0  0  0  0
   12.7815  -26.7496   35.5319 C   0  0  0  0  0  0  0  0  0  0  0  0
   12.7375  -25.6192   36.0409 O   0  0  0  0  0  0  0  0  0  0  0  0
   12.0940  -27.8054   36.2063 N   0  0  0  0  0  0  0  0  0  0  0  0
   11.3535  -27.5963   37.4223 C   0  0  0  0  0  0  0  0  0  0  0  0
   12.2366  -27.2694   38.5704 C   0  0  0  0  0  0  0  0  0  0  0  0
   13.4686  -27.2098   38.3621 O   0  0  0  0  0  0  0  0  0  0  0  0
   11.6894  -27.0414   39.8246 O   0  0  0  0  0  0  0  0  0  0  0  0
  2  9  1  0
  2  1  1  6
  3  2  1  0
  4  5  2  0
  4  3  1  0
  6  5  1  0
  7  8  2  0
  7  6  1  0
  8  4  1  0
  9 10  2  0
 11 12  1  0
 12 14  1  0
 13 12  2  0
 15 14  1  1
 15 17  1  0
 16  9  1  0
 16 15  1  0
 17 19  1  0
 18 17  2  0
 19 20  1  0
 20 21  1  0
 21 22  2  0
 21 23  1  0
M  END
$$$$
