HNG.pdb
     RDKit          3D

 23 23  0  0  1  0  0  0  0  0999 V2000
   10.7324  -14.8689   20.7834 N   0  0  0  0  0  0  0  0  0  0  0  0
   11.1045  -15.8574   19.8248 C   0  0  1  0  0  0  0  0  0  0  0  0
   10.5663  -15.5654   18.4405 C   0  0  0  0  0  0  0  0  0  0  0  0
    9.4208  -14.6169   18.5248 C   0  0  0  0  0  0  0  0  0  0  0  0
    9.1715  -13.7598   19.5754 C   0  0  0  0  0  0  0  0  0  0  0  0
    8.0608  -13.0657   19.2992 N   0  0  0  0  0  0  0  0  0  0  0  0
    7.6220  -13.4798   18.0980 C   0  0  0  0  0  0  0  0  0  0  0  0
    8.4531  -14.4225   17.6332 N   0  0  0  0  0  0  0  0  0  0  0  0
   12.5814  -15.9960   19.7901 C   0  0  0  0  0  0  0  0  0  0  0  0
   13.0900  -16.8484   19.0499 O   0  0  0  0  0  0  0  0  0  0  0  0
   14.8524  -13.3567   17.7447 N   0  0  0  0  0  0  0  0  0  0  0  0
   15.5374  -14.3307   18.5204 C   0  0  0  0  0  0  0  0  0  0  0  0
   16.0825  -15.2804   17.9077 O   0  0  0  0  0  0  0  0  0  0  0  0
   15.6124  -14.2403   19.9968 C   0  0  0  0  0  0  0  0  0  0  0  0
   14.8815  -15.3628   20.6558 C   0  0  2  0  0  0  0  0  0  0  0  0
   13.4462  -15.1901   20.5727 N   0  0  0  0  0  0  0  0  0  0  0  0
   15.3018  -15.5542   22.0773 C   0  0  0  0  0  0  0  0  0  0  0  0
   16.4722  -15.4474   22.4746 O   0  0  0  0  0  0  0  0  0  0  0  0
   14.3024  -15.8804   23.0453 N   0  0  0  0  0  0  0  0  0  0  0  0
   14.5960  -16.0177   24.4472 C   0  0  0  0  0  0  0  0  0  0  0  0
   14.9420  -17.4138   24.8161 C   0  0  0  0  0  0  0  0  0  0  0  0
   15.0301  -18.2570   23.8964 O   0  0  0  0  0  0  0  0  0  0  0  0
   15.1561  -17.7482   26.1454 O   0  0  0  0  0  0  0  0  0  0  0  0
  2  9  1  0
  2  1  1  1
  3  2  1  0
  4  5  2  0
  4  3  1  0
  6  5  1  0
  7  8  2  0
  7  6  1  0
  8  4  1  0
  9 10  2  0
 11 12  1  0
 12 14  1  0
 13 12  2  0
 15 14  1  1
 15 17  1  0
 16  9  1  0
 16 15  1  0
 17 19  1  0
 18 17  2  0
 19 20  1  0
 20 21  1  0
 21 22  2  0
 21 23  1  0
M  END
$$$$
