HNG.pdb
     RDKit          3D

 23 23  0  0  1  0  0  0  0  0999 V2000
   11.3078  -13.4306   18.6723 N   0  0  0  0  0  0  0  0  0  0  0  0
   10.0141  -13.8253   19.1252 C   0  0  1  0  0  0  0  0  0  0  0  0
    9.3980  -14.9112   18.2694 C   0  0  0  0  0  0  0  0  0  0  0  0
    9.2440  -14.4338   16.8668 C   0  0  0  0  0  0  0  0  0  0  0  0
    8.2993  -13.5285   16.4324 C   0  0  0  0  0  0  0  0  0  0  0  0
    8.4659  -13.3434   15.1172 N   0  0  0  0  0  0  0  0  0  0  0  0
    9.4956  -14.1180   14.7343 C   0  0  0  0  0  0  0  0  0  0  0  0
    9.9636  -14.7778   15.8025 N   0  0  0  0  0  0  0  0  0  0  0  0
   10.0861  -14.2582   20.5426 C   0  0  0  0  0  0  0  0  0  0  0  0
   11.1691  -14.6460   21.0006 O   0  0  0  0  0  0  0  0  0  0  0  0
    7.6061  -13.4529   25.9452 N   0  0  0  0  0  0  0  0  0  0  0  0
    7.8057  -14.4614   24.9640 C   0  0  0  0  0  0  0  0  0  0  0  0
    8.0346  -15.6266   25.3693 O   0  0  0  0  0  0  0  0  0  0  0  0
    7.7484  -14.1619   23.5146 C   0  0  0  0  0  0  0  0  0  0  0  0
    9.0048  -14.5671   22.8178 C   0  0  2  0  0  0  0  0  0  0  0  0
    8.9616  -14.2486   21.4059 N   0  0  0  0  0  0  0  0  0  0  0  0
    9.3200  -16.0147   23.0160 C   0  0  0  0  0  0  0  0  0  0  0  0
    8.7452  -16.9375   22.4186 O   0  0  0  0  0  0  0  0  0  0  0  0
   10.3441  -16.3675   23.9482 N   0  0  0  0  0  0  0  0  0  0  0  0
   10.7341  -17.7308   24.1927 C   0  0  0  0  0  0  0  0  0  0  0  0
   11.8556  -17.8308   25.1608 C   0  0  0  0  0  0  0  0  0  0  0  0
   11.5777  -18.0861   26.3534 O   0  0  0  0  0  0  0  0  0  0  0  0
   13.1617  -17.6432   24.7324 O   0  0  0  0  0  0  0  0  0  0  0  0
  2  9  1  0
  2  1  1  6
  3  2  1  0
  4  5  2  0
  4  3  1  0
  6  5  1  0
  7  8  2  0
  7  6  1  0
  8  4  1  0
  9 10  2  0
 11 12  1  0
 12 14  1  0
 13 12  2  0
 15 14  1  6
 15 17  1  0
 16  9  1  0
 16 15  1  0
 17 19  1  0
 18 17  2  0
 19 20  1  0
 20 21  1  0
 21 22  2  0
 21 23  1  0
M  END
$$$$
