SRV.pdb
     RDKit          3D

 25 24  0  0  1  0  0  0  0  0999 V2000
   17.2935  -23.1969  -15.3061 O   0  0  0  0  0  0  0  0  0  0  0  0
   17.4654  -21.8263  -15.1545 C   0  0  0  0  0  0  0  0  0  0  0  0
   18.5835  -21.6063  -14.1861 C   0  0  2  0  0  0  0  0  0  0  0  0
   18.0800  -21.5127  -12.8281 N   0  0  0  0  0  0  0  0  0  0  0  0
   19.3322  -20.3438  -14.4706 C   0  0  0  0  0  0  0  0  0  0  0  0
   18.8892  -19.2205  -14.1151 O   0  0  0  0  0  0  0  0  0  0  0  0
   27.1140  -21.3117  -13.4468 N   0  0  0  0  0  0  0  0  0  0  0  0
   26.0446  -21.5907  -12.5645 C   0  0  0  0  0  0  0  0  0  0  0  0
   26.1650  -22.3634  -11.5297 N   0  0  0  0  0  0  0  0  0  0  0  0
   24.7629  -20.9841  -12.8353 N   0  0  0  0  0  0  0  0  0  0  0  0
   24.6776  -19.8895  -13.7738 C   0  0  0  0  0  0  0  0  0  0  0  0
   23.2090  -19.4368  -13.8198 C   0  0  0  0  0  0  0  0  0  0  0  0
   22.7675  -19.5269  -15.2321 C   0  0  0  0  0  0  0  0  0  0  0  0
   21.3222  -19.1361  -15.4971 C   0  0  2  0  0  0  0  0  0  0  0  0
   20.5705  -20.3505  -15.1509 N   0  0  0  0  0  0  0  0  0  0  0  0
   21.0250  -18.8052  -16.8914 C   0  0  0  0  0  0  0  0  0  0  0  0
   20.8607  -19.7266  -17.7455 O   0  0  0  0  0  0  0  0  0  0  0  0
   25.3228  -22.4579  -10.9226 C   0  0  0  0  0  0  0  0  0  0  0  0
   19.6953  -14.9491  -18.4044 C   0  0  2  0  0  0  0  0  0  0  0  0
   19.4630  -16.2989  -19.0081 C   0  0  0  0  0  0  0  0  0  0  0  0
   19.1541  -16.1117  -20.4764 C   0  0  1  0  0  0  0  0  0  0  0  0
   20.6353  -17.2346  -18.8085 N   0  0  0  0  0  0  0  0  0  0  0  0
   20.8930  -17.4861  -17.4113 C   0  0  0  0  0  0  0  0  0  0  0  0
   21.8477  -16.7478  -19.5114 O   0  0  0  0  0  0  0  0  0  0  0  0
   22.7450  -15.8910  -18.8943 O   0  0  0  0  0  0  0  0  0  0  0  0
  2  3  1  0
  2  1  1  0
  3  4  1  1
  5  6  2  0
  5  3  1  0
  7  8  1  0
  8 10  1  0
  8  9  2  0
 10 11  1  0
 12 11  1  0
 12 13  1  0
 14 13  1  6
 14 15  1  0
 15  5  1  0
 16 17  2  0
 16 14  1  0
 19 18  1  1
 20 19  1  0
 21 19  1  0
 21 22  1  1
 22 16  1  0
 23 21  1  0
 24 23  1  0
 25 23  2  0
M  END
$$$$
