SRV.pdb
     RDKit          3D

 25 24  0  0  1  0  0  0  0  0999 V2000
   20.0661  -20.1192  -15.1504 O   0  0  0  0  0  0  0  0  0  0  0  0
   20.1043  -21.3931  -14.5967 C   0  0  0  0  0  0  0  0  0  0  0  0
   20.5200  -21.2617  -13.1661 C   0  0  2  0  0  0  0  0  0  0  0  0
   19.5072  -20.5638  -12.3957 N   0  0  0  0  0  0  0  0  0  0  0  0
   21.7957  -20.4957  -13.0204 C   0  0  0  0  0  0  0  0  0  0  0  0
   21.8123  -19.3249  -12.5583 O   0  0  0  0  0  0  0  0  0  0  0  0
   29.0520  -22.5799   -9.6699 N   0  0  0  0  0  0  0  0  0  0  0  0
   29.5869  -21.6528  -10.5942 C   0  0  0  0  0  0  0  0  0  0  0  0
   30.8165  -21.2421  -10.5524 N   0  0  0  0  0  0  0  0  0  0  0  0
   28.7177  -21.1444  -11.6287 N   0  0  0  0  0  0  0  0  0  0  0  0
   27.3645  -21.6395  -11.7281 C   0  0  0  0  0  0  0  0  0  0  0  0
   26.7501  -21.0443  -13.0057 C   0  0  0  0  0  0  0  0  0  0  0  0
   25.3262  -21.4556  -13.0389 C   0  0  0  0  0  0  0  0  0  0  0  0
   24.3224  -20.3374  -13.2713 C   0  0  2  0  0  0  0  0  0  0  0  0
   23.0416  -21.0475  -13.3936 N   0  0  0  0  0  0  0  0  0  0  0  0
   24.5329  -19.5740  -14.5020 C   0  0  0  0  0  0  0  0  0  0  0  0
   23.9727  -19.9334  -15.5803 O   0  0  0  0  0  0  0  0  0  0  0  0
   31.0758  -20.4892  -11.2252 C   0  0  0  0  0  0  0  0  0  0  0  0
   26.3563  -15.6191  -14.7276 C   0  0  2  0  0  0  0  0  0  0  0  0
   25.2992  -16.1771  -15.6283 C   0  0  0  0  0  0  0  0  0  0  0  0
   25.3475  -15.4208  -16.9368 C   0  0  1  0  0  0  0  0  0  0  0  0
   25.4501  -17.6665  -15.8489 N   0  0  0  0  0  0  0  0  0  0  0  0
   25.3425  -18.4082  -14.6159 C   0  0  0  0  0  0  0  0  0  0  0  0
   26.7041  -17.9862  -16.5742 O   0  0  0  0  0  0  0  0  0  0  0  0
   27.8480  -18.3814  -15.8993 O   0  0  0  0  0  0  0  0  0  0  0  0
  2  3  1  0
  2  1  1  0
  3  4  1  1
  5  6  2  0
  5  3  1  0
  7  8  1  0
  8 10  1  0
  8  9  2  0
 10 11  1  0
 12 11  1  0
 12 13  1  0
 14 13  1  6
 14 15  1  0
 15  5  1  0
 16 17  2  0
 16 14  1  0
 19 18  1  1
 20 19  1  0
 21 19  1  0
 21 22  1  1
 22 16  1  0
 23 21  1  0
 24 23  1  0
 25 23  2  0
M  END
$$$$
