SRV.pdb
     RDKit          3D

 25 24  0  0  1  0  0  0  0  0999 V2000
   20.3680  -24.3750  -17.5402 O   0  0  0  0  0  0  0  0  0  0  0  0
   21.5879  -24.9724  -17.8335 C   0  0  0  0  0  0  0  0  0  0  0  0
   22.2671  -25.2926  -16.5401 C   0  0  2  0  0  0  0  0  0  0  0  0
   21.5766  -26.3635  -15.8452 N   0  0  0  0  0  0  0  0  0  0  0  0
   22.3035  -24.1157  -15.6189 C   0  0  0  0  0  0  0  0  0  0  0  0
   22.0192  -24.2257  -14.3975 O   0  0  0  0  0  0  0  0  0  0  0  0
   26.3199  -19.4478  -10.8123 N   0  0  0  0  0  0  0  0  0  0  0  0
   25.5370  -20.5199  -10.3247 C   0  0  0  0  0  0  0  0  0  0  0  0
   25.0797  -20.5670   -9.1118 N   0  0  0  0  0  0  0  0  0  0  0  0
   25.2378  -21.6085  -11.2245 N   0  0  0  0  0  0  0  0  0  0  0  0
   25.6450  -21.5209  -12.6076 C   0  0  0  0  0  0  0  0  0  0  0  0
   24.4583  -20.9492  -13.4007 C   0  0  0  0  0  0  0  0  0  0  0  0
   23.9967  -22.0126  -14.3245 C   0  0  0  0  0  0  0  0  0  0  0  0
   22.8009  -21.6571  -15.1938 C   0  0  2  0  0  0  0  0  0  0  0  0
   22.6580  -22.8258  -16.0734 N   0  0  0  0  0  0  0  0  0  0  0  0
   22.9900  -20.4779  -16.0396 C   0  0  0  0  0  0  0  0  0  0  0  0
   23.6667  -20.5598  -17.1078 O   0  0  0  0  0  0  0  0  0  0  0  0
   24.5154  -21.4073   -8.8627 C   0  0  0  0  0  0  0  0  0  0  0  0
   21.5222  -20.2922  -18.2807 C   0  0  2  0  0  0  0  0  0  0  0  0
   20.9996  -19.0027  -17.7291 C   0  0  0  0  0  0  0  0  0  0  0  0
   19.7048  -19.2908  -17.0032 C   0  0  2  0  0  0  0  0  0  0  0  0
   21.9953  -18.3120  -16.8229 N   0  0  0  0  0  0  0  0  0  0  0  0
   22.4623  -19.1828  -15.7714 C   0  0  0  0  0  0  0  0  0  0  0  0
   21.4515  -17.0418  -16.2827 O   0  0  0  0  0  0  0  0  0  0  0  0
   21.2849  -15.9269  -17.0885 O   0  0  0  0  0  0  0  0  0  0  0  0
  2  3  1  0
  2  1  1  0
  3  4  1  1
  5  6  2  0
  5  3  1  0
  7  8  1  0
  8 10  1  0
  8  9  2  0
 10 11  1  0
 12 11  1  0
 12 13  1  0
 14 13  1  1
 14 15  1  0
 15  5  1  0
 16 17  2  0
 16 14  1  0
 19 18  1  6
 20 19  1  0
 21 19  1  0
 21 22  1  6
 22 16  1  0
 23 21  1  0
 24 23  1  0
 25 23  2  0
M  END
$$$$
