SRV.pdb
     RDKit          3D

 25 24  0  0  1  0  0  0  0  0999 V2000
   15.0947  -16.4078  -17.2783 O   0  0  0  0  0  0  0  0  0  0  0  0
   15.6974  -16.5550  -18.5217 C   0  0  0  0  0  0  0  0  0  0  0  0
   17.0069  -17.2486  -18.3201 C   0  0  2  0  0  0  0  0  0  0  0  0
   16.8113  -18.5614  -17.7330 N   0  0  0  0  0  0  0  0  0  0  0  0
   17.9124  -16.4843  -17.4083 C   0  0  0  0  0  0  0  0  0  0  0  0
   18.5102  -17.0438  -16.4522 O   0  0  0  0  0  0  0  0  0  0  0  0
   25.3761  -15.6695  -17.3656 N   0  0  0  0  0  0  0  0  0  0  0  0
   25.2053  -14.7011  -16.3492 C   0  0  0  0  0  0  0  0  0  0  0  0
   26.1835  -13.9928  -15.8759 N   0  0  0  0  0  0  0  0  0  0  0  0
   23.8780  -14.4978  -15.8189 N   0  0  0  0  0  0  0  0  0  0  0  0
   22.7572  -15.1766  -16.4265 C   0  0  0  0  0  0  0  0  0  0  0  0
   21.5159  -14.2945  -16.2147 C   0  0  0  0  0  0  0  0  0  0  0  0
   20.3737  -14.9845  -16.8603 C   0  0  0  0  0  0  0  0  0  0  0  0
   19.0222  -14.3041  -16.7099 C   0  0  2  0  0  0  0  0  0  0  0  0
   18.1404  -15.1000  -17.5752 N   0  0  0  0  0  0  0  0  0  0  0  0
   18.9808  -12.9182  -17.1782 C   0  0  0  0  0  0  0  0  0  0  0  0
   19.2286  -12.6460  -18.3906 O   0  0  0  0  0  0  0  0  0  0  0  0
   25.9413  -13.3159  -15.1211 C   0  0  0  0  0  0  0  0  0  0  0  0
   17.2869   -8.3792  -17.2326 C   0  0  2  0  0  0  0  0  0  0  0  0
   17.2865   -9.8183  -16.8213 C   0  0  0  0  0  0  0  0  0  0  0  0
   16.2963  -10.5574  -17.6930 C   0  0  1  0  0  0  0  0  0  0  0  0
   18.6614  -10.4456  -16.8987 N   0  0  0  0  0  0  0  0  0  0  0  0
   18.6727  -11.7877  -16.3691 C   0  0  0  0  0  0  0  0  0  0  0  0
   19.6877   -9.5916  -16.2521 O   0  0  0  0  0  0  0  0  0  0  0  0
   20.3135   -8.5662  -16.9426 O   0  0  0  0  0  0  0  0  0  0  0  0
  2  3  1  0
  2  1  1  0
  3  4  1  1
  5  6  2  0
  5  3  1  0
  7  8  1  0
  8 10  1  0
  8  9  2  0
 10 11  1  0
 12 11  1  0
 12 13  1  0
 14 13  1  6
 14 15  1  0
 15  5  1  0
 16 17  2  0
 16 14  1  0
 19 18  1  1
 20 19  1  0
 21 19  1  0
 21 22  1  1
 22 16  1  0
 23 21  1  0
 24 23  1  0
 25 23  2  0
M  END
$$$$
