SRV.pdb
     RDKit          3D

 25 24  0  0  1  0  0  0  0  0999 V2000
   29.7253  -22.6478  -15.7994 O   0  0  0  0  0  0  0  0  0  0  0  0
   29.1419  -21.6870  -14.9825 C   0  0  0  0  0  0  0  0  0  0  0  0
   27.7874  -21.3741  -15.5339 C   0  0  2  0  0  0  0  0  0  0  0  0
   27.8884  -20.4955  -16.6847 N   0  0  0  0  0  0  0  0  0  0  0  0
   26.9161  -20.6917  -14.5287 C   0  0  0  0  0  0  0  0  0  0  0  0
   26.8857  -19.4374  -14.4263 O   0  0  0  0  0  0  0  0  0  0  0  0
   19.1978  -21.8710  -12.4161 N   0  0  0  0  0  0  0  0  0  0  0  0
   19.4284  -20.6500  -11.7407 C   0  0  0  0  0  0  0  0  0  0  0  0
   18.6262  -20.1799  -10.8363 N   0  0  0  0  0  0  0  0  0  0  0  0
   20.6132  -19.8980  -12.0795 N   0  0  0  0  0  0  0  0  0  0  0  0
   21.5274  -20.4181  -13.0694 C   0  0  0  0  0  0  0  0  0  0  0  0
   22.6298  -21.1839  -12.3195 C   0  0  0  0  0  0  0  0  0  0  0  0
   23.7741  -21.3268  -13.2510 C   0  0  0  0  0  0  0  0  0  0  0  0
   25.1071  -20.8004  -12.7431 C   0  0  2  0  0  0  0  0  0  0  0  0
   26.0863  -21.4199  -13.6471 N   0  0  0  0  0  0  0  0  0  0  0  0
   25.4408  -21.2010  -11.3757 C   0  0  0  0  0  0  0  0  0  0  0  0
   25.4042  -22.4225  -11.0410 O   0  0  0  0  0  0  0  0  0  0  0  0
   18.9170  -19.2901  -10.3777 C   0  0  0  0  0  0  0  0  0  0  0  0
   26.7594  -20.1962   -6.6686 C   0  0  1  0  0  0  0  0  0  0  0  0
   26.6459  -19.7487   -8.0924 C   0  0  0  0  0  0  0  0  0  0  0  0
   28.0418  -19.5272   -8.6297 C   0  0  1  0  0  0  0  0  0  0  0  0
   25.8764  -20.7292   -8.9504 N   0  0  0  0  0  0  0  0  0  0  0  0
   25.8238  -20.3125  -10.3309 C   0  0  0  0  0  0  0  0  0  0  0  0
   24.5220  -20.9873   -8.4029 O   0  0  0  0  0  0  0  0  0  0  0  0
   24.2961  -21.9963   -7.4805 O   0  0  0  0  0  0  0  0  0  0  0  0
  2  3  1  0
  2  1  1  0
  3  4  1  6
  5  6  2  0
  5  3  1  0
  7  8  1  0
  8 10  1  0
  8  9  2  0
 10 11  1  0
 12 11  1  0
 12 13  1  0
 14 13  1  6
 14 15  1  0
 15  5  1  0
 16 17  2  0
 16 14  1  0
 19 18  1  1
 20 19  1  0
 21 19  1  0
 21 22  1  1
 22 16  1  0
 23 21  1  0
 24 23  1  0
 25 23  2  0
M  END
$$$$
