SRV.pdb
     RDKit          3D

 25 24  0  0  1  0  0  0  0  0999 V2000
   19.1586  -21.2470  -17.2573 O   0  0  0  0  0  0  0  0  0  0  0  0
   20.0672  -21.7520  -16.3351 C   0  0  0  0  0  0  0  0  0  0  0  0
   21.2337  -22.3031  -17.0915 C   0  0  2  0  0  0  0  0  0  0  0  0
   20.9218  -23.6090  -17.6427 N   0  0  0  0  0  0  0  0  0  0  0  0
   22.4403  -22.4636  -16.2235 C   0  0  0  0  0  0  0  0  0  0  0  0
   22.7219  -23.5652  -15.6834 O   0  0  0  0  0  0  0  0  0  0  0  0
   29.2513  -21.2617  -15.4454 N   0  0  0  0  0  0  0  0  0  0  0  0
   28.9308  -20.7729  -16.7331 C   0  0  0  0  0  0  0  0  0  0  0  0
   29.4011  -21.2934  -17.8242 N   0  0  0  0  0  0  0  0  0  0  0  0
   28.0388  -19.6418  -16.8293 N   0  0  0  0  0  0  0  0  0  0  0  0
   27.4657  -19.0833  -15.6269 C   0  0  0  0  0  0  0  0  0  0  0  0
   26.6988  -20.2108  -14.9166 C   0  0  0  0  0  0  0  0  0  0  0  0
   25.4470  -20.4355  -15.6781 C   0  0  0  0  0  0  0  0  0  0  0  0
   24.5099  -21.4894  -15.1097 C   0  0  2  0  0  0  0  0  0  0  0  0
   23.3212  -21.3889  -15.9680 N   0  0  0  0  0  0  0  0  0  0  0  0
   24.0890  -21.2513  -13.7285 C   0  0  0  0  0  0  0  0  0  0  0  0
   23.0730  -20.5344  -13.4849 O   0  0  0  0  0  0  0  0  0  0  0  0
   29.0465  -20.8917  -18.7184 C   0  0  0  0  0  0  0  0  0  0  0  0
   26.5684  -20.3304  -10.6975 C   0  0  2  0  0  0  0  0  0  0  0  0
   25.5439  -21.3457  -10.2979 C   0  0  0  0  0  0  0  0  0  0  0  0
   25.1130  -21.0476   -8.8795 C   0  0  1  0  0  0  0  0  0  0  0  0
   24.3580  -21.3759  -11.2372 N   0  0  0  0  0  0  0  0  0  0  0  0
   24.7370  -21.7715  -12.5721 C   0  0  0  0  0  0  0  0  0  0  0  0
   23.6266  -20.0852  -11.2341 O   0  0  0  0  0  0  0  0  0  0  0  0
   24.0677  -19.0033  -11.9790 O   0  0  0  0  0  0  0  0  0  0  0  0
  2  3  1  0
  2  1  1  0
  3  4  1  1
  5  6  2  0
  5  3  1  0
  7  8  1  0
  8 10  1  0
  8  9  2  0
 10 11  1  0
 12 11  1  0
 12 13  1  0
 14 13  1  6
 14 15  1  0
 15  5  1  0
 16 17  2  0
 16 14  1  0
 19 18  1  1
 20 19  1  0
 21 19  1  0
 21 22  1  1
 22 16  1  0
 23 21  1  0
 24 23  1  0
 25 23  2  0
M  END
$$$$
