SRV.pdb
     RDKit          3D

 25 24  0  0  1  0  0  0  0  0999 V2000
   21.4004  -17.0835  -18.1902 O   0  0  0  0  0  0  0  0  0  0  0  0
   21.2678  -15.7123  -18.3717 C   0  0  0  0  0  0  0  0  0  0  0  0
   21.0949  -15.0837  -17.0258 C   0  0  2  0  0  0  0  0  0  0  0  0
   19.9585  -15.6582  -16.3293 N   0  0  0  0  0  0  0  0  0  0  0  0
   20.8597  -13.6103  -17.1204 C   0  0  0  0  0  0  0  0  0  0  0  0
   21.7727  -12.8184  -17.4726 O   0  0  0  0  0  0  0  0  0  0  0  0
   14.3649  -13.0351  -17.1033 N   0  0  0  0  0  0  0  0  0  0  0  0
   14.2970  -12.2055  -15.9600 C   0  0  0  0  0  0  0  0  0  0  0  0
   13.3882  -12.3372  -15.0439 N   0  0  0  0  0  0  0  0  0  0  0  0
   15.2882  -11.1662  -15.8134 N   0  0  0  0  0  0  0  0  0  0  0  0
   15.6672  -10.3770  -16.9621 C   0  0  0  0  0  0  0  0  0  0  0  0
   17.1933  -10.1970  -16.9129 C   0  0  0  0  0  0  0  0  0  0  0  0
   17.7960  -11.5490  -16.9933 C   0  0  0  0  0  0  0  0  0  0  0  0
   19.3139  -11.5994  -16.9216 C   0  0  2  0  0  0  0  0  0  0  0  0
   19.6041  -13.0365  -16.8198 N   0  0  0  0  0  0  0  0  0  0  0  0
   19.8921  -10.9396  -15.7502 C   0  0  0  0  0  0  0  0  0  0  0  0
   19.7095  -11.4194  -14.5918 O   0  0  0  0  0  0  0  0  0  0  0  0
   13.4060  -11.6378  -14.2710 C   0  0  0  0  0  0  0  0  0  0  0  0
   23.1398  -10.7351  -14.4871 C   0  0  2  0  0  0  0  0  0  0  0  0
   22.7063   -9.3025  -14.4792 C   0  0  0  0  0  0  0  0  0  0  0  0
   23.4092   -8.5911  -15.6133 C   0  0  2  0  0  0  0  0  0  0  0  0
   21.2044   -9.1490  -14.5816 N   0  0  0  0  0  0  0  0  0  0  0  0
   20.6808   -9.7544  -15.7821 C   0  0  0  0  0  0  0  0  0  0  0  0
   20.7915   -7.7295  -14.4577 O   0  0  0  0  0  0  0  0  0  0  0  0
   20.9175   -7.0426  -13.2608 O   0  0  0  0  0  0  0  0  0  0  0  0
  2  3  1  0
  2  1  1  0
  3  4  1  6
  5  6  2  0
  5  3  1  0
  7  8  1  0
  8 10  1  0
  8  9  2  0
 10 11  1  0
 12 11  1  0
 12 13  1  0
 14 13  1  1
 14 15  1  0
 15  5  1  0
 16 17  2  0
 16 14  1  0
 19 18  1  1
 20 19  1  0
 21 19  1  0
 21 22  1  1
 22 16  1  0
 23 21  1  0
 24 23  1  0
 25 23  2  0
M  END
$$$$
