SRV.pdb
     RDKit          3D

 25 24  0  0  1  0  0  0  0  0999 V2000
   22.5402  -20.5579   -9.3544 O   0  0  0  0  0  0  0  0  0  0  0  0
   23.2801  -20.0927  -10.4347 C   0  0  0  0  0  0  0  0  0  0  0  0
   24.5118  -20.9336  -10.5461 C   0  0  2  0  0  0  0  0  0  0  0  0
   25.4192  -20.6694   -9.4447 N   0  0  0  0  0  0  0  0  0  0  0  0
   25.2604  -20.6675  -11.8126 C   0  0  0  0  0  0  0  0  0  0  0  0
   26.4032  -20.1399  -11.8042 O   0  0  0  0  0  0  0  0  0  0  0  0
   26.3343  -25.4945  -18.3018 N   0  0  0  0  0  0  0  0  0  0  0  0
   26.0270  -25.4726  -16.9216 C   0  0  0  0  0  0  0  0  0  0  0  0
   26.2737  -26.4673  -16.1265 N   0  0  0  0  0  0  0  0  0  0  0  0
   25.4100  -24.2849  -16.3804 N   0  0  0  0  0  0  0  0  0  0  0  0
   25.0254  -23.2142  -17.2702 C   0  0  0  0  0  0  0  0  0  0  0  0
   25.4622  -21.8933  -16.6157 C   0  0  0  0  0  0  0  0  0  0  0  0
   25.0737  -21.9638  -15.1868 C   0  0  0  0  0  0  0  0  0  0  0  0
   25.4091  -20.7385  -14.3514 C   0  0  2  0  0  0  0  0  0  0  0  0
   24.7226  -20.9946  -13.0775 N   0  0  0  0  0  0  0  0  0  0  0  0
   24.9026  -19.4753  -14.8894 C   0  0  0  0  0  0  0  0  0  0  0  0
   23.6856  -19.1577  -14.7356 O   0  0  0  0  0  0  0  0  0  0  0  0
   26.0302  -26.3281  -15.1224 C   0  0  0  0  0  0  0  0  0  0  0  0
   25.6091  -14.9475  -16.8487 C   0  0  2  0  0  0  0  0  0  0  0  0
   26.1744  -16.2247  -16.3109 C   0  0  0  0  0  0  0  0  0  0  0  0
   26.9146  -15.9103  -15.0303 C   0  0  1  0  0  0  0  0  0  0  0  0
   25.1142  -17.2810  -16.0871 N   0  0  0  0  0  0  0  0  0  0  0  0
   25.6784  -18.5175  -15.6025 C   0  0  0  0  0  0  0  0  0  0  0  0
   24.2901  -17.4928  -17.3024 O   0  0  0  0  0  0  0  0  0  0  0  0
   23.0477  -16.8961  -17.4455 O   0  0  0  0  0  0  0  0  0  0  0  0
  2  3  1  0
  2  1  1  0
  3  4  1  1
  5  6  2  0
  5  3  1  0
  7  8  1  0
  8 10  1  0
  8  9  2  0
 10 11  1  0
 12 11  1  0
 12 13  1  0
 14 13  1  6
 14 15  1  0
 15  5  1  0
 16 17  2  0
 16 14  1  0
 19 18  1  6
 20 19  1  0
 21 19  1  0
 21 22  1  6
 22 16  1  0
 23 21  1  0
 24 23  1  0
 25 23  2  0
M  END
$$$$
