QAD.pdb
     RDKit          3D

 23 22  0  0  1  0  0  0  0  0999 V2000
    9.5106  -13.5542   16.1738 N   0  0  0  0  0  0  0  0  0  0  0  0
    8.1067  -13.8415   16.3534 C   0  0  0  0  0  0  0  0  0  0  0  0
    7.5407  -14.7274   15.6820 O   0  0  0  0  0  0  0  0  0  0  0  0
    7.3629  -13.0619   17.3415 C   0  0  0  0  0  0  0  0  0  0  0  0
    7.9665  -13.1363   18.6952 C   0  0  0  0  0  0  0  0  0  0  0  0
    8.1576  -14.5437   19.1536 C   0  0  2  0  0  0  0  0  0  0  0  0
    7.0354  -15.4069   19.0664 N   0  0  0  0  0  0  0  0  0  0  0  0
    8.6176  -14.4713   20.5748 C   0  0  0  0  0  0  0  0  0  0  0  0
    9.5707  -13.7090   20.8469 O   0  0  0  0  0  0  0  0  0  0  0  0
    7.2959  -15.6564   23.8138 C   0  0  0  0  0  0  0  0  0  0  0  0
    8.4363  -15.2436   22.9205 C   0  0  2  0  0  0  0  0  0  0  0  0
    7.9827  -15.2441   21.5526 N   0  0  0  0  0  0  0  0  0  0  0  0
    9.6383  -16.0872   23.0980 C   0  0  0  0  0  0  0  0  0  0  0  0
    9.7276  -17.1421   22.4120 O   0  0  0  0  0  0  0  0  0  0  0  0
   10.6965  -15.7983   23.9813 N   0  0  0  0  0  0  0  0  0  0  0  0
   11.7837  -16.7179   24.1758 C   0  0  1  0  0  0  0  0  0  0  0  0
   13.0779  -15.9577   24.0036 C   0  0  0  0  0  0  0  0  0  0  0  0
   14.1875  -16.7926   23.5250 C   0  0  0  0  0  0  0  0  0  0  0  0
   14.1664  -18.0239   23.3253 O   0  0  0  0  0  0  0  0  0  0  0  0
   11.8009  -17.3195   25.5252 C   0  0  0  0  0  0  0  0  0  0  0  0
   11.1473  -16.7205   26.4179 O   0  0  0  0  0  0  0  0  0  0  0  0
   15.3955  -16.1403   23.2652 O   0  0  0  0  0  0  0  0  0  0  0  0
   12.4694  -18.4656   25.8623 O   0  0  0  0  0  0  0  0  0  0  0  0
  2  1  1  0
  2  3  2  0
  4  2  1  0
  5  4  1  0
  6  5  1  0
  6  7  1  1
  8  6  1  0
  8 12  1  0
  9  8  2  0
 11 10  1  1
 11 12  1  0
 11 13  1  0
 13 15  1  0
 13 14  2  0
 15 16  1  0
 16 17  1  1
 17 18  1  0
 18 19  2  0
 18 22  1  0
 20 16  1  0
 20 23  1  0
 21 20  2  0
M  END
$$$$
