QAD.pdb
     RDKit          3D

 23 22  0  0  1  0  0  0  0  0999 V2000
    8.3231  -12.5070   17.3989 N   0  0  0  0  0  0  0  0  0  0  0  0
    7.8730  -13.7325   16.7813 C   0  0  0  0  0  0  0  0  0  0  0  0
    7.3879  -13.7328   15.6321 O   0  0  0  0  0  0  0  0  0  0  0  0
    7.9964  -14.9751   17.5415 C   0  0  0  0  0  0  0  0  0  0  0  0
    8.5388  -14.7554   18.9052 C   0  0  0  0  0  0  0  0  0  0  0  0
    8.6645  -16.0269   19.6765 C   0  0  2  0  0  0  0  0  0  0  0  0
    7.4774  -16.7766   19.8790 N   0  0  0  0  0  0  0  0  0  0  0  0
    9.2545  -15.6658   21.0024 C   0  0  0  0  0  0  0  0  0  0  0  0
   10.4186  -15.2100   21.0241 O   0  0  0  0  0  0  0  0  0  0  0  0
    7.9773  -14.8968   24.3106 C   0  0  0  0  0  0  0  0  0  0  0  0
    9.0513  -15.5318   23.4666 C   0  0  2  0  0  0  0  0  0  0  0  0
    8.5045  -15.8422   22.1698 N   0  0  0  0  0  0  0  0  0  0  0  0
    9.6535  -16.7223   24.1051 C   0  0  0  0  0  0  0  0  0  0  0  0
    9.0452  -17.8224   23.9987 O   0  0  0  0  0  0  0  0  0  0  0  0
   10.8626  -16.7189   24.8272 N   0  0  0  0  0  0  0  0  0  0  0  0
   11.3402  -17.8975   25.4966 C   0  0  1  0  0  0  0  0  0  0  0  0
   12.8504  -17.8555   25.5009 C   0  0  0  0  0  0  0  0  0  0  0  0
   13.4440  -18.0194   24.1675 C   0  0  0  0  0  0  0  0  0  0  0  0
   14.6556  -17.9656   23.8752 O   0  0  0  0  0  0  0  0  0  0  0  0
   10.8967  -17.9863   26.9033 C   0  0  0  0  0  0  0  0  0  0  0  0
   11.2137  -19.0305   27.5294 O   0  0  0  0  0  0  0  0  0  0  0  0
   12.5593  -18.2613   23.1134 O   0  0  0  0  0  0  0  0  0  0  0  0
   10.1763  -17.0243   27.5587 O   0  0  0  0  0  0  0  0  0  0  0  0
  2  1  1  0
  2  3  2  0
  4  2  1  0
  5  4  1  0
  6  5  1  0
  6  7  1  1
  8  6  1  0
  8 12  1  0
  9  8  2  0
 11 10  1  1
 11 12  1  0
 11 13  1  0
 13 15  1  0
 13 14  2  0
 15 16  1  0
 16 17  1  1
 17 18  1  0
 18 19  2  0
 18 22  1  0
 20 16  1  0
 20 23  1  0
 21 20  2  0
M  END
$$$$
