QAD.pdb
     RDKit          3D

 23 22  0  0  1  0  0  0  0  0999 V2000
    8.3395  -12.5017   17.5376 N   0  0  0  0  0  0  0  0  0  0  0  0
    7.7715  -13.7469   17.0768 C   0  0  0  0  0  0  0  0  0  0  0  0
    7.5252  -13.9328   15.8682 O   0  0  0  0  0  0  0  0  0  0  0  0
    7.4872  -14.7847   18.0663 C   0  0  0  0  0  0  0  0  0  0  0  0
    7.9311  -14.4057   19.4307 C   0  0  0  0  0  0  0  0  0  0  0  0
    8.5835  -15.5394   20.1495 C   0  0  2  0  0  0  0  0  0  0  0  0
    7.8450  -16.7461   20.2525 N   0  0  0  0  0  0  0  0  0  0  0  0
    8.9139  -15.0423   21.5207 C   0  0  0  0  0  0  0  0  0  0  0  0
    9.7911  -14.1581   21.6307 O   0  0  0  0  0  0  0  0  0  0  0  0
    7.4959  -14.8974   24.8096 C   0  0  0  0  0  0  0  0  0  0  0  0
    8.6877  -15.2864   23.9745 C   0  0  2  0  0  0  0  0  0  0  0  0
    8.2460  -15.5676   22.6317 N   0  0  0  0  0  0  0  0  0  0  0  0
    9.4454  -16.4192   24.5492 C   0  0  0  0  0  0  0  0  0  0  0  0
    8.9987  -17.5844   24.3647 O   0  0  0  0  0  0  0  0  0  0  0  0
   10.6356  -16.2927   25.2914 N   0  0  0  0  0  0  0  0  0  0  0  0
   11.3417  -17.4453   25.7793 C   0  0  1  0  0  0  0  0  0  0  0  0
   12.8221  -17.1505   25.7160 C   0  0  0  0  0  0  0  0  0  0  0  0
   13.3098  -16.8942   24.3545 C   0  0  0  0  0  0  0  0  0  0  0  0
   12.6722  -17.0352   23.2915 O   0  0  0  0  0  0  0  0  0  0  0  0
   11.0165  -17.7745   27.1826 C   0  0  0  0  0  0  0  0  0  0  0  0
   10.2806  -16.9595   27.7967 O   0  0  0  0  0  0  0  0  0  0  0  0
   14.6275  -16.4447   24.2353 O   0  0  0  0  0  0  0  0  0  0  0  0
   11.4554  -18.8881   27.8468 O   0  0  0  0  0  0  0  0  0  0  0  0
  2  1  1  0
  2  3  2  0
  4  2  1  0
  5  4  1  0
  6  5  1  0
  6  7  1  1
  8  6  1  0
  8 12  1  0
  9  8  2  0
 11 10  1  1
 11 12  1  0
 11 13  1  0
 13 15  1  0
 13 14  2  0
 15 16  1  0
 16 17  1  1
 17 18  1  0
 18 19  2  0
 18 22  1  0
 20 16  1  0
 20 23  1  0
 21 20  2  0
M  END
$$$$
