QAD.pdb
     RDKit          3D

 23 22  0  0  1  0  0  0  0  0999 V2000
    7.6087  -19.4370   16.0523 N   0  0  0  0  0  0  0  0  0  0  0  0
    8.6023  -19.0124   15.0940 C   0  0  0  0  0  0  0  0  0  0  0  0
    9.3404  -19.8405   14.5235 O   0  0  0  0  0  0  0  0  0  0  0  0
    8.7244  -17.5830   14.8128 C   0  0  0  0  0  0  0  0  0  0  0  0
    7.7430  -16.7688   15.5718 C   0  0  0  0  0  0  0  0  0  0  0  0
    7.8295  -15.3175   15.2342 C   0  0  2  0  0  0  0  0  0  0  0  0
    8.2640  -14.9862   13.9252 N   0  0  0  0  0  0  0  0  0  0  0  0
    8.7548  -14.7007   16.2343 C   0  0  0  0  0  0  0  0  0  0  0  0
    9.9748  -14.6639   15.9630 O   0  0  0  0  0  0  0  0  0  0  0  0
    8.2644  -12.9316   19.4752 C   0  0  0  0  0  0  0  0  0  0  0  0
    9.1096  -13.6085   18.4280 C   0  0  2  0  0  0  0  0  0  0  0  0
    8.2445  -14.1867   17.4309 N   0  0  0  0  0  0  0  0  0  0  0  0
   10.0340  -14.6125   18.9983 C   0  0  0  0  0  0  0  0  0  0  0  0
    9.6740  -15.8215   18.9883 O   0  0  0  0  0  0  0  0  0  0  0  0
   11.2935  -14.3172   19.5548 N   0  0  0  0  0  0  0  0  0  0  0  0
   12.1155  -15.3421   20.1372 C   0  0  1  0  0  0  0  0  0  0  0  0
   13.5285  -14.8152   20.2285 C   0  0  0  0  0  0  0  0  0  0  0  0
   14.1765  -14.6488   18.9210 C   0  0  0  0  0  0  0  0  0  0  0  0
   14.2908  -15.5109   18.0265 O   0  0  0  0  0  0  0  0  0  0  0  0
   11.6949  -15.7175   21.5030 C   0  0  0  0  0  0  0  0  0  0  0  0
   10.7275  -15.0779   21.9907 O   0  0  0  0  0  0  0  0  0  0  0  0
   14.7233  -13.3923   18.6482 O   0  0  0  0  0  0  0  0  0  0  0  0
   12.2781  -16.6981   22.2594 O   0  0  0  0  0  0  0  0  0  0  0  0
  2  1  1  0
  2  3  2  0
  4  2  1  0
  5  4  1  0
  6  5  1  0
  6  7  1  6
  8  6  1  0
  8 12  1  0
  9  8  2  0
 11 10  1  1
 11 12  1  0
 11 13  1  0
 13 15  1  0
 13 14  2  0
 15 16  1  0
 16 17  1  1
 17 18  1  0
 18 19  2  0
 18 22  1  0
 20 16  1  0
 20 23  1  0
 21 20  2  0
M  END
$$$$
