QAD.pdb
     RDKit          3D

 23 22  0  0  1  0  0  0  0  0999 V2000
    9.2785  -17.4747   15.8065 N   0  0  0  0  0  0  0  0  0  0  0  0
    8.2198  -16.7577   15.1351 C   0  0  0  0  0  0  0  0  0  0  0  0
    7.7208  -17.1906   14.0769 O   0  0  0  0  0  0  0  0  0  0  0  0
    7.7501  -15.5059   15.7263 C   0  0  0  0  0  0  0  0  0  0  0  0
    8.4202  -15.1994   17.0144 C   0  0  0  0  0  0  0  0  0  0  0  0
    7.7746  -14.0610   17.7319 C   0  0  2  0  0  0  0  0  0  0  0  0
    7.7765  -12.8031   17.0763 N   0  0  0  0  0  0  0  0  0  0  0  0
    8.4729  -13.9346   19.0484 C   0  0  0  0  0  0  0  0  0  0  0  0
    9.6631  -13.5516   19.0489 O   0  0  0  0  0  0  0  0  0  0  0  0
    7.4221  -14.1133   22.5974 C   0  0  0  0  0  0  0  0  0  0  0  0
    8.4575  -14.2170   21.5083 C   0  0  2  0  0  0  0  0  0  0  0  0
    7.7914  -14.2417   20.2306 N   0  0  0  0  0  0  0  0  0  0  0  0
    9.3552  -15.3801   21.6794 C   0  0  0  0  0  0  0  0  0  0  0  0
    9.0209  -16.4701   21.1396 O   0  0  0  0  0  0  0  0  0  0  0  0
   10.5624  -15.3606   22.4044 N   0  0  0  0  0  0  0  0  0  0  0  0
   11.3077  -16.5639   22.6532 C   0  0  1  0  0  0  0  0  0  0  0  0
   12.7576  -16.1864   22.8471 C   0  0  0  0  0  0  0  0  0  0  0  0
   13.3623  -15.5600   21.6642 C   0  0  0  0  0  0  0  0  0  0  0  0
   13.2246  -15.9145   20.4760 O   0  0  0  0  0  0  0  0  0  0  0  0
   10.8701  -17.2766   23.8714 C   0  0  0  0  0  0  0  0  0  0  0  0
   10.0355  -16.6833   24.6024 O   0  0  0  0  0  0  0  0  0  0  0  0
   14.1785  -14.4490   21.8919 O   0  0  0  0  0  0  0  0  0  0  0  0
   11.3051  -18.5180   24.2503 O   0  0  0  0  0  0  0  0  0  0  0  0
  2  1  1  0
  2  3  2  0
  4  2  1  0
  5  4  1  0
  6  5  1  0
  6  7  1  6
  8  6  1  0
  8 12  1  0
  9  8  2  0
 11 10  1  1
 11 12  1  0
 11 13  1  0
 13 15  1  0
 13 14  2  0
 15 16  1  0
 16 17  1  1
 17 18  1  0
 18 19  2  0
 18 22  1  0
 20 16  1  0
 20 23  1  0
 21 20  2  0
M  END
$$$$
