QAD.pdb
     RDKit          3D

 23 22  0  0  1  0  0  0  0  0999 V2000
   15.8668  -16.9515   16.2637 N   0  0  0  0  0  0  0  0  0  0  0  0
   14.8370  -17.6831   15.5637 C   0  0  0  0  0  0  0  0  0  0  0  0
   14.6569  -17.5271   14.3392 O   0  0  0  0  0  0  0  0  0  0  0  0
   14.0057  -18.6100   16.3298 C   0  0  0  0  0  0  0  0  0  0  0  0
   13.0455  -17.9100   17.2189 C   0  0  0  0  0  0  0  0  0  0  0  0
   11.6882  -17.7962   16.6087 C   0  0  2  0  0  0  0  0  0  0  0  0
   11.5801  -17.0334   15.4177 N   0  0  0  0  0  0  0  0  0  0  0  0
   10.7970  -17.2083   17.6560 C   0  0  0  0  0  0  0  0  0  0  0  0
   10.6576  -15.9661   17.6806 O   0  0  0  0  0  0  0  0  0  0  0  0
    7.9812  -18.3925   19.5363 C   0  0  0  0  0  0  0  0  0  0  0  0
    9.2122  -17.5244   19.5322 C   0  0  2  0  0  0  0  0  0  0  0  0
   10.1493  -18.0463   18.5697 N   0  0  0  0  0  0  0  0  0  0  0  0
    9.8232  -17.3894   20.8725 C   0  0  0  0  0  0  0  0  0  0  0  0
    9.1042  -16.9447   21.8087 O   0  0  0  0  0  0  0  0  0  0  0  0
   11.1560  -17.7226   21.1826 N   0  0  0  0  0  0  0  0  0  0  0  0
   11.7131  -17.4576   22.4806 C   0  0  1  0  0  0  0  0  0  0  0  0
   12.7447  -18.5214   22.7748 C   0  0  0  0  0  0  0  0  0  0  0  0
   12.2062  -19.8871   22.7287 C   0  0  0  0  0  0  0  0  0  0  0  0
   11.0374  -20.2404   22.9848 O   0  0  0  0  0  0  0  0  0  0  0  0
   12.3925  -16.1481   22.5645 C   0  0  0  0  0  0  0  0  0  0  0  0
   12.4433  -15.4706   21.5056 O   0  0  0  0  0  0  0  0  0  0  0  0
   13.0958  -20.8991   22.3590 O   0  0  0  0  0  0  0  0  0  0  0  0
   12.9604  -15.6327   23.6984 O   0  0  0  0  0  0  0  0  0  0  0  0
  2  1  1  0
  2  3  2  0
  4  2  1  0
  5  4  1  0
  6  5  1  0
  6  7  1  6
  8  6  1  0
  8 12  1  0
  9  8  2  0
 11 10  1  1
 11 12  1  0
 11 13  1  0
 13 15  1  0
 13 14  2  0
 15 16  1  0
 16 17  1  6
 17 18  1  0
 18 19  2  0
 18 22  1  0
 20 16  1  0
 20 23  1  0
 21 20  2  0
M  END
$$$$
