WHN.pdb
     RDKit          3D

 33 35  0  0  1  0  0  0  0  0999 V2000
    6.3702  -17.0896   23.2738 N   0  0  0  0  0  0  0  0  0  0  0  0
    7.3941  -16.0763   23.2844 C   0  0  1  0  0  0  0  0  0  0  0  0
    7.9418  -15.8966   24.6674 C   0  0  0  0  0  0  0  0  0  0  0  0
    7.0295  -15.0185   25.4375 C   0  0  0  0  0  0  0  0  0  0  0  0
    5.9190  -15.4066   26.1813 C   0  0  0  0  0  0  0  0  0  0  0  0
    5.3594  -14.3410   26.7733 N   0  0  0  0  0  0  0  0  0  0  0  0
    6.0934  -13.2883   26.4179 C   0  0  0  0  0  0  0  0  0  0  0  0
    5.9254  -11.9634   26.7584 C   0  0  0  0  0  0  0  0  0  0  0  0
    6.7804  -11.0013   26.2869 C   0  0  0  0  0  0  0  0  0  0  0  0
    7.8122  -11.3830   25.4653 C   0  0  0  0  0  0  0  0  0  0  0  0
    8.0179  -12.7072   25.0976 C   0  0  0  0  0  0  0  0  0  0  0  0
    7.1496  -13.6661   25.5809 C   0  0  0  0  0  0  0  0  0  0  0  0
    8.4284  -16.4625   22.3033 C   0  0  0  0  0  0  0  0  0  0  0  0
    8.5021  -17.6387   21.8747 O   0  0  0  0  0  0  0  0  0  0  0  0
    9.3425  -15.5179   21.8378 N   0  0  0  0  0  0  0  0  0  0  0  0
   10.3063  -15.8349   20.7441 C   0  0  1  0  0  0  0  0  0  0  0  0
   10.3770  -14.5588   19.9526 C   0  0  0  0  0  0  0  0  0  0  0  0
    9.1611  -14.1831   19.2327 C   0  0  0  0  0  0  0  0  0  0  0  0
    8.7353  -14.5824   18.0001 C   0  0  0  0  0  0  0  0  0  0  0  0
    7.5229  -14.0159   17.8029 N   0  0  0  0  0  0  0  0  0  0  0  0
    7.1683  -13.2784   18.8594 C   0  0  0  0  0  0  0  0  0  0  0  0
    8.1713  -13.3828   19.7312 N   0  0  0  0  0  0  0  0  0  0  0  0
   11.6306  -16.0984   21.4274 C   0  0  0  0  0  0  0  0  0  0  0  0
   12.6767  -15.4609   21.1751 O   0  0  0  0  0  0  0  0  0  0  0  0
   13.1421  -15.5648   25.4316 N   0  0  0  0  0  0  0  0  0  0  0  0
   12.2165  -16.6100   25.2542 C   0  0  0  0  0  0  0  0  0  0  0  0
   11.0838  -16.5091   25.7682 O   0  0  0  0  0  0  0  0  0  0  0  0
   12.5845  -17.7896   24.4794 C   0  0  0  0  0  0  0  0  0  0  0  0
   12.9614  -17.5304   23.0387 C   0  0  2  0  0  0  0  0  0  0  0  0
   11.6905  -17.1203   22.4043 N   0  0  0  0  0  0  0  0  0  0  0  0
   13.4036  -18.7449   22.3211 C   0  0  0  0  0  0  0  0  0  0  0  0
   12.6557  -19.2948   21.4898 O   0  0  0  0  0  0  0  0  0  0  0  0
   14.6489  -19.2969   22.5521 O   0  0  0  0  0  0  0  0  0  0  0  0
  2 13  1  0
  2  1  1  1
  3  2  1  0
  4  3  1  0
  5  4  2  0
  6  5  1  0
  7 12  2  0
  7  6  1  0
  8  7  1  0
  9  8  2  0
  9 10  1  0
 10 11  2  0
 11 12  1  0
 12  4  1  0
 13 14  2  0
 15 16  1  0
 15 13  1  0
 16 17  1  6
 18 17  1  0
 19 18  2  0
 20 21  1  0
 20 19  1  0
 21 22  2  0
 22 18  1  0
 23 24  2  0
 23 16  1  0
 25 26  1  0
 26 27  2  0
 26 28  1  0
 29 28  1  1
 29 30  1  0
 30 23  1  0
 31 33  1  0
 31 29  1  0
 32 31  2  0
M  END
$$$$
