WHN.pdb
     RDKit          3D

 33 35  0  0  1  0  0  0  0  0999 V2000
    6.5353  -18.2707   25.1289 N   0  0  0  0  0  0  0  0  0  0  0  0
    6.8044  -16.9364   24.6569 C   0  0  1  0  0  0  0  0  0  0  0  0
    7.6649  -16.1962   25.6348 C   0  0  0  0  0  0  0  0  0  0  0  0
    6.9110  -15.0319   26.1566 C   0  0  0  0  0  0  0  0  0  0  0  0
    5.5964  -15.0186   26.6137 C   0  0  0  0  0  0  0  0  0  0  0  0
    5.2661  -13.7927   27.0463 N   0  0  0  0  0  0  0  0  0  0  0  0
    6.3449  -13.0318   26.8709 C   0  0  0  0  0  0  0  0  0  0  0  0
    6.5128  -11.6930   27.1519 C   0  0  0  0  0  0  0  0  0  0  0  0
    7.7025  -11.0631   26.8937 C   0  0  0  0  0  0  0  0  0  0  0  0
    8.7289  -11.7932   26.3473 C   0  0  0  0  0  0  0  0  0  0  0  0
    8.6023  -13.1445   26.0490 C   0  0  0  0  0  0  0  0  0  0  0  0
    7.3986  -13.7666   26.3154 C   0  0  0  0  0  0  0  0  0  0  0  0
    7.4176  -17.0413   23.3173 C   0  0  0  0  0  0  0  0  0  0  0  0
    8.0392  -18.0747   22.9729 O   0  0  0  0  0  0  0  0  0  0  0  0
    7.3128  -15.9858   22.4122 N   0  0  0  0  0  0  0  0  0  0  0  0
    7.9914  -16.0239   21.0842 C   0  0  1  0  0  0  0  0  0  0  0  0
    7.5527  -14.7461   20.4248 C   0  0  0  0  0  0  0  0  0  0  0  0
    8.0877  -14.4991   19.0867 C   0  0  0  0  0  0  0  0  0  0  0  0
    8.9741  -15.2438   18.3658 C   0  0  0  0  0  0  0  0  0  0  0  0
    9.1039  -14.6399   17.1623 N   0  0  0  0  0  0  0  0  0  0  0  0
    8.3361  -13.5482   17.0959 C   0  0  0  0  0  0  0  0  0  0  0  0
    7.7165  -13.4650   18.2733 N   0  0  0  0  0  0  0  0  0  0  0  0
    9.4749  -15.9751   21.3797 C   0  0  0  0  0  0  0  0  0  0  0  0
    9.9977  -15.1440   22.1545 O   0  0  0  0  0  0  0  0  0  0  0  0
   14.4853  -17.7211   21.1363 N   0  0  0  0  0  0  0  0  0  0  0  0
   13.5246  -18.7495   21.1392 C   0  0  0  0  0  0  0  0  0  0  0  0
   13.9057  -19.9336   21.2402 O   0  0  0  0  0  0  0  0  0  0  0  0
   12.1069  -18.4267   21.0254 C   0  0  0  0  0  0  0  0  0  0  0  0
   11.7771  -16.9522   20.9765 C   0  0  2  0  0  0  0  0  0  0  0  0
   10.3170  -16.9194   20.7464 N   0  0  0  0  0  0  0  0  0  0  0  0
   12.3884  -16.2530   19.8262 C   0  0  0  0  0  0  0  0  0  0  0  0
   13.3832  -15.5204   19.9886 O   0  0  0  0  0  0  0  0  0  0  0  0
   11.8758  -16.3935   18.5510 O   0  0  0  0  0  0  0  0  0  0  0  0
  2 13  1  0
  2  1  1  1
  3  2  1  0
  4  3  1  0
  5  4  2  0
  6  5  1  0
  7 12  2  0
  7  6  1  0
  8  7  1  0
  9  8  2  0
  9 10  1  0
 10 11  2  0
 11 12  1  0
 12  4  1  0
 13 14  2  0
 15 16  1  0
 15 13  1  0
 16 17  1  6
 18 17  1  0
 19 18  2  0
 20 21  1  0
 20 19  1  0
 21 22  2  0
 22 18  1  0
 23 24  2  0
 23 16  1  0
 25 26  1  0
 26 27  2  0
 26 28  1  0
 29 28  1  6
 29 30  1  0
 30 23  1  0
 31 33  1  0
 31 29  1  0
 32 31  2  0
M  END
$$$$
