WHN.pdb
     RDKit          3D

 33 35  0  0  1  0  0  0  0  0999 V2000
    6.7094  -17.5385   23.8763 N   0  0  0  0  0  0  0  0  0  0  0  0
    7.7488  -16.5815   23.5952 C   0  0  1  0  0  0  0  0  0  0  0  0
    8.3087  -16.0241   24.8682 C   0  0  0  0  0  0  0  0  0  0  0  0
    7.3459  -15.0494   25.4331 C   0  0  0  0  0  0  0  0  0  0  0  0
    6.2520  -15.3249   26.2484 C   0  0  0  0  0  0  0  0  0  0  0  0
    5.6327  -14.1874   26.5971 N   0  0  0  0  0  0  0  0  0  0  0  0
    6.3126  -13.1997   26.0180 C   0  0  0  0  0  0  0  0  0  0  0  0
    6.0725  -11.8432   26.0631 C   0  0  0  0  0  0  0  0  0  0  0  0
    6.8788  -10.9626   25.3898 C   0  0  0  0  0  0  0  0  0  0  0  0
    7.9352  -11.4584   24.6663 C   0  0  0  0  0  0  0  0  0  0  0  0
    8.2132  -12.8180   24.5944 C   0  0  0  0  0  0  0  0  0  0  0  0
    7.3933  -13.6937   25.2784 C   0  0  0  0  0  0  0  0  0  0  0  0
    8.7702  -17.2485   22.7626 C   0  0  0  0  0  0  0  0  0  0  0  0
    8.8519  -18.4993   22.7226 O   0  0  0  0  0  0  0  0  0  0  0  0
    9.6630  -16.4911   22.0050 N   0  0  0  0  0  0  0  0  0  0  0  0
   10.7187  -17.1322   21.1684 C   0  0  1  0  0  0  0  0  0  0  0  0
   10.6395  -16.3874   19.8650 C   0  0  0  0  0  0  0  0  0  0  0  0
   11.5693  -16.8194   18.8226 C   0  0  0  0  0  0  0  0  0  0  0  0
   12.4959  -17.8194   18.8596 C   0  0  0  0  0  0  0  0  0  0  0  0
   13.0608  -17.8744   17.6317 N   0  0  0  0  0  0  0  0  0  0  0  0
   12.5280  -16.9524   16.8245 C   0  0  0  0  0  0  0  0  0  0  0  0
   11.6169  -16.3095   17.5551 N   0  0  0  0  0  0  0  0  0  0  0  0
   12.0302  -16.8320   21.8612 C   0  0  0  0  0  0  0  0  0  0  0  0
   13.1462  -16.9541   21.3099 O   0  0  0  0  0  0  0  0  0  0  0  0
   13.8706  -19.1219   25.8684 N   0  0  0  0  0  0  0  0  0  0  0  0
   12.6474  -19.4194   25.2393 C   0  0  0  0  0  0  0  0  0  0  0  0
   12.1326  -20.5423   25.4171 O   0  0  0  0  0  0  0  0  0  0  0  0
   11.9981  -18.4239   24.3939 C   0  0  0  0  0  0  0  0  0  0  0  0
   12.7123  -17.0959   24.2867 C   0  0  2  0  0  0  0  0  0  0  0  0
   11.9939  -16.3894   23.2047 N   0  0  0  0  0  0  0  0  0  0  0  0
   14.1143  -17.2194   23.8342 C   0  0  0  0  0  0  0  0  0  0  0  0
   14.3729  -17.4841   22.6442 O   0  0  0  0  0  0  0  0  0  0  0  0
   15.1660  -17.0454   24.7130 O   0  0  0  0  0  0  0  0  0  0  0  0
  2 13  1  0
  2  1  1  1
  3  2  1  0
  4  3  1  0
  5  4  2  0
  6  5  1  0
  7 12  2  0
  7  6  1  0
  8  7  1  0
  9  8  2  0
  9 10  1  0
 10 11  2  0
 11 12  1  0
 12  4  1  0
 13 14  2  0
 15 16  1  0
 15 13  1  0
 16 17  1  6
 18 17  1  0
 19 18  2  0
 20 21  1  0
 20 19  1  0
 21 22  2  0
 22 18  1  0
 23 24  2  0
 23 16  1  0
 25 26  1  0
 26 27  2  0
 26 28  1  0
 29 28  1  6
 29 30  1  0
 30 23  1  0
 31 33  1  0
 31 29  1  0
 32 31  2  0
M  END
$$$$
