WHN.pdb
     RDKit          3D

 33 35  0  0  1  0  0  0  0  0999 V2000
    6.3068  -15.2244   22.6912 N   0  0  0  0  0  0  0  0  0  0  0  0
    7.6790  -15.3529   23.1105 C   0  0  1  0  0  0  0  0  0  0  0  0
    7.7554  -15.9359   24.4886 C   0  0  0  0  0  0  0  0  0  0  0  0
    6.9984  -15.0689   25.4222 C   0  0  0  0  0  0  0  0  0  0  0  0
    5.8892  -15.4225   26.1849 C   0  0  0  0  0  0  0  0  0  0  0  0
    5.4953  -14.3876   26.9418 N   0  0  0  0  0  0  0  0  0  0  0  0
    6.3325  -13.3879   26.6719 C   0  0  0  0  0  0  0  0  0  0  0  0
    6.3453  -12.1091   27.1859 C   0  0  0  0  0  0  0  0  0  0  0  0
    7.2854  -11.1971   26.7817 C   0  0  0  0  0  0  0  0  0  0  0  0
    8.2187  -11.5822   25.8511 C   0  0  0  0  0  0  0  0  0  0  0  0
    8.2420  -12.8610   25.3078 C   0  0  0  0  0  0  0  0  0  0  0  0
    7.2897  -13.7699   25.7249 C   0  0  0  0  0  0  0  0  0  0  0  0
    8.3898  -16.1661   22.1031 C   0  0  0  0  0  0  0  0  0  0  0  0
    7.7589  -16.9081   21.3130 O   0  0  0  0  0  0  0  0  0  0  0  0
    9.7808  -16.1191   22.0167 N   0  0  0  0  0  0  0  0  0  0  0  0
   10.4725  -15.6668   20.7748 C   0  0  1  0  0  0  0  0  0  0  0  0
    9.9548  -14.2705   20.5689 C   0  0  0  0  0  0  0  0  0  0  0  0
    8.9178  -14.1154   19.5500 C   0  0  0  0  0  0  0  0  0  0  0  0
    7.8381  -13.2822   19.5441 C   0  0  0  0  0  0  0  0  0  0  0  0
    7.2154  -13.4577   18.3561 N   0  0  0  0  0  0  0  0  0  0  0  0
    7.8583  -14.3649   17.6149 C   0  0  0  0  0  0  0  0  0  0  0  0
    8.8980  -14.7647   18.3472 N   0  0  0  0  0  0  0  0  0  0  0  0
   11.9466  -15.6310   21.1158 C   0  0  0  0  0  0  0  0  0  0  0  0
   12.5911  -14.5723   21.2833 O   0  0  0  0  0  0  0  0  0  0  0  0
   13.4088  -18.2538   25.2102 N   0  0  0  0  0  0  0  0  0  0  0  0
   12.1114  -17.9299   24.7718 C   0  0  0  0  0  0  0  0  0  0  0  0
   11.1525  -18.0786   25.5566 O   0  0  0  0  0  0  0  0  0  0  0  0
   11.9002  -17.4283   23.4186 C   0  0  0  0  0  0  0  0  0  0  0  0
   13.1389  -17.3397   22.5568 C   0  0  2  0  0  0  0  0  0  0  0  0
   12.6340  -16.8602   21.2525 N   0  0  0  0  0  0  0  0  0  0  0  0
   13.7659  -18.6527   22.2951 C   0  0  0  0  0  0  0  0  0  0  0  0
   14.4946  -19.1869   23.1533 O   0  0  0  0  0  0  0  0  0  0  0  0
   13.5608  -19.3163   21.1008 O   0  0  0  0  0  0  0  0  0  0  0  0
  2 13  1  0
  2  1  1  6
  3  2  1  0
  4  3  1  0
  5  4  2  0
  6  5  1  0
  7 12  2  0
  7  6  1  0
  8  7  1  0
  9  8  2  0
  9 10  1  0
 10 11  2  0
 11 12  1  0
 12  4  1  0
 13 14  2  0
 15 16  1  0
 15 13  1  0
 16 17  1  1
 18 17  1  0
 19 18  2  0
 20 21  1  0
 20 19  1  0
 21 22  2  0
 22 18  1  0
 23 24  2  0
 23 16  1  0
 25 26  1  0
 26 27  2  0
 26 28  1  0
 29 28  1  1
 29 30  1  0
 30 23  1  0
 31 33  1  0
 31 29  1  0
 32 31  2  0
M  END
$$$$
