WHN.pdb
     RDKit          3D

 33 35  0  0  1  0  0  0  0  0999 V2000
    8.4353  -16.5575   21.9240 N   0  0  0  0  0  0  0  0  0  0  0  0
    8.9342  -15.2619   22.3087 C   0  0  1  0  0  0  0  0  0  0  0  0
    7.9066  -14.2036   22.0467 C   0  0  0  0  0  0  0  0  0  0  0  0
    7.5963  -14.1802   20.5978 C   0  0  0  0  0  0  0  0  0  0  0  0
    6.5456  -14.8263   19.9530 C   0  0  0  0  0  0  0  0  0  0  0  0
    6.5593  -14.5434   18.6419 N   0  0  0  0  0  0  0  0  0  0  0  0
    7.5974  -13.7327   18.4458 C   0  0  0  0  0  0  0  0  0  0  0  0
    8.0425  -13.1680   17.2700 C   0  0  0  0  0  0  0  0  0  0  0  0
    9.1475  -12.3570   17.2524 C   0  0  0  0  0  0  0  0  0  0  0  0
    9.8061  -12.1162   18.4329 C   0  0  0  0  0  0  0  0  0  0  0  0
    9.3911  -12.6648   19.6402 C   0  0  0  0  0  0  0  0  0  0  0  0
    8.2758  -13.4790   19.6435 C   0  0  0  0  0  0  0  0  0  0  0  0
    9.3377  -15.3313   23.7278 C   0  0  0  0  0  0  0  0  0  0  0  0
    9.8852  -14.3531   24.2901 O   0  0  0  0  0  0  0  0  0  0  0  0
    9.1137  -16.4930   24.4658 N   0  0  0  0  0  0  0  0  0  0  0  0
    9.4473  -16.5740   25.9176 C   0  0  1  0  0  0  0  0  0  0  0  0
    8.1147  -16.4231   26.5967 C   0  0  0  0  0  0  0  0  0  0  0  0
    7.5436  -15.0771   26.5954 C   0  0  0  0  0  0  0  0  0  0  0  0
    8.0632  -13.9237   27.1050 C   0  0  0  0  0  0  0  0  0  0  0  0
    7.1938  -12.9341   26.7975 N   0  0  0  0  0  0  0  0  0  0  0  0
    6.1506  -13.4162   26.1156 C   0  0  0  0  0  0  0  0  0  0  0  0
    6.3674  -14.7259   25.9937 N   0  0  0  0  0  0  0  0  0  0  0  0
    9.9890  -17.9699   26.1371 C   0  0  0  0  0  0  0  0  0  0  0  0
    9.3924  -19.0073   25.7734 O   0  0  0  0  0  0  0  0  0  0  0  0
   14.2812  -17.9172   25.1194 N   0  0  0  0  0  0  0  0  0  0  0  0
   13.7006  -19.1242   25.5513 C   0  0  0  0  0  0  0  0  0  0  0  0
   13.5547  -20.0533   24.7310 O   0  0  0  0  0  0  0  0  0  0  0  0
   13.2789  -19.2779   26.9390 C   0  0  0  0  0  0  0  0  0  0  0  0
   11.7905  -19.4325   27.1535 C   0  0  2  0  0  0  0  0  0  0  0  0
   11.2370  -18.1110   26.7887 N   0  0  0  0  0  0  0  0  0  0  0  0
   11.4222  -19.6540   28.5680 C   0  0  0  0  0  0  0  0  0  0  0  0
   10.9045  -18.7387   29.2366 O   0  0  0  0  0  0  0  0  0  0  0  0
   11.6410  -20.8731   29.1801 O   0  0  0  0  0  0  0  0  0  0  0  0
  2 13  1  0
  2  1  1  1
  3  2  1  0
  4  3  1  0
  5  4  2  0
  6  5  1  0
  7 12  2  0
  7  6  1  0
  8  7  1  0
  9  8  2  0
  9 10  1  0
 10 11  2  0
 11 12  1  0
 12  4  1  0
 13 14  2  0
 15 16  1  0
 15 13  1  0
 16 17  1  1
 18 17  1  0
 19 18  2  0
 20 21  1  0
 20 19  1  0
 21 22  2  0
 22 18  1  0
 23 24  2  0
 23 16  1  0
 25 26  1  0
 26 27  2  0
 26 28  1  0
 29 28  1  1
 29 30  1  0
 30 23  1  0
 31 33  1  0
 31 29  1  0
 32 31  2  0
M  END
$$$$
