WHN.pdb
     RDKit          3D

 33 35  0  0  1  0  0  0  0  0999 V2000
    6.3618  -17.1165   23.8660 N   0  0  0  0  0  0  0  0  0  0  0  0
    7.4168  -16.1357   23.8402 C   0  0  1  0  0  0  0  0  0  0  0  0
    7.9938  -15.9480   25.2101 C   0  0  0  0  0  0  0  0  0  0  0  0
    7.1221  -15.0290   25.9793 C   0  0  0  0  0  0  0  0  0  0  0  0
    5.9675  -15.3585   26.6833 C   0  0  0  0  0  0  0  0  0  0  0  0
    5.4652  -14.2721   27.2887 N   0  0  0  0  0  0  0  0  0  0  0  0
    6.2784  -13.2636   26.9807 C   0  0  0  0  0  0  0  0  0  0  0  0
    6.1912  -11.9392   27.3520 C   0  0  0  0  0  0  0  0  0  0  0  0
    7.1222  -11.0264   26.9287 C   0  0  0  0  0  0  0  0  0  0  0  0
    8.1482  -11.4573   26.1244 C   0  0  0  0  0  0  0  0  0  0  0  0
    8.2738  -12.7830   25.7270 C   0  0  0  0  0  0  0  0  0  0  0  0
    7.3295  -13.6919   26.1617 C   0  0  0  0  0  0  0  0  0  0  0  0
    8.4212  -16.5720   22.8491 C   0  0  0  0  0  0  0  0  0  0  0  0
    8.6362  -17.7904   22.6439 O   0  0  0  0  0  0  0  0  0  0  0  0
    9.1484  -15.6287   22.1240 N   0  0  0  0  0  0  0  0  0  0  0  0
   10.2327  -16.0323   21.1822 C   0  0  1  0  0  0  0  0  0  0  0  0
   10.3913  -14.8334   20.2892 C   0  0  0  0  0  0  0  0  0  0  0  0
    9.3014  -14.5884   19.3459 C   0  0  0  0  0  0  0  0  0  0  0  0
    9.0032  -15.2464   18.1891 C   0  0  0  0  0  0  0  0  0  0  0  0
    7.8659  -14.6946   17.7076 N   0  0  0  0  0  0  0  0  0  0  0  0
    7.4362  -13.7186   18.5130 C   0  0  0  0  0  0  0  0  0  0  0  0
    8.3154  -13.6564   19.5130 N   0  0  0  0  0  0  0  0  0  0  0  0
   11.4699  -16.2146   22.0345 C   0  0  0  0  0  0  0  0  0  0  0  0
   11.6858  -15.5709   23.0849 O   0  0  0  0  0  0  0  0  0  0  0  0
   14.7411  -20.0074   24.3866 N   0  0  0  0  0  0  0  0  0  0  0  0
   14.7511  -19.7080   23.0116 C   0  0  0  0  0  0  0  0  0  0  0  0
   15.7574  -20.0032   22.3350 O   0  0  0  0  0  0  0  0  0  0  0  0
   13.5978  -19.0621   22.3950 C   0  0  0  0  0  0  0  0  0  0  0  0
   13.5738  -17.5531   22.4813 C   0  0  2  0  0  0  0  0  0  0  0  0
   12.4352  -17.1635   21.6224 N   0  0  0  0  0  0  0  0  0  0  0  0
   14.7689  -16.9134   21.8914 C   0  0  0  0  0  0  0  0  0  0  0  0
   15.8157  -16.7955   22.5571 O   0  0  0  0  0  0  0  0  0  0  0  0
   14.7556  -16.4337   20.5958 O   0  0  0  0  0  0  0  0  0  0  0  0
  2 13  1  0
  2  1  1  1
  3  2  1  0
  4  3  1  0
  5  4  2  0
  6  5  1  0
  7 12  2  0
  7  6  1  0
  8  7  1  0
  9  8  2  0
  9 10  1  0
 10 11  2  0
 11 12  1  0
 12  4  1  0
 13 14  2  0
 15 16  1  0
 15 13  1  0
 16 17  1  6
 18 17  1  0
 19 18  2  0
 20 21  1  0
 20 19  1  0
 21 22  2  0
 22 18  1  0
 23 24  2  0
 23 16  1  0
 25 26  1  0
 26 27  2  0
 26 28  1  0
 29 28  1  6
 29 30  1  0
 30 23  1  0
 31 33  1  0
 31 29  1  0
 32 31  2  0
M  END
$$$$
