WHN.pdb
     RDKit          3D

 33 35  0  0  1  0  0  0  0  0999 V2000
    7.0224  -16.8872   21.9146 N   0  0  0  0  0  0  0  0  0  0  0  0
    7.8144  -16.2263   22.9203 C   0  0  1  0  0  0  0  0  0  0  0  0
    7.0242  -16.0522   24.1813 C   0  0  0  0  0  0  0  0  0  0  0  0
    6.6426  -14.6268   24.3188 C   0  0  0  0  0  0  0  0  0  0  0  0
    5.8404  -13.8848   23.4567 C   0  0  0  0  0  0  0  0  0  0  0  0
    5.6820  -12.6380   23.9252 N   0  0  0  0  0  0  0  0  0  0  0  0
    6.3685  -12.5775   25.0647 C   0  0  0  0  0  0  0  0  0  0  0  0
    6.5266  -11.5102   25.9223 C   0  0  0  0  0  0  0  0  0  0  0  0
    7.2858  -11.6258   27.0578 C   0  0  0  0  0  0  0  0  0  0  0  0
    7.8889  -12.8296   27.3267 C   0  0  0  0  0  0  0  0  0  0  0  0
    7.7554  -13.9306   26.4894 C   0  0  0  0  0  0  0  0  0  0  0  0
    6.9867  -13.8004   25.3496 C   0  0  0  0  0  0  0  0  0  0  0  0
    9.0478  -17.0138   23.1201 C   0  0  0  0  0  0  0  0  0  0  0  0
    9.0144  -18.2672   23.1461 O   0  0  0  0  0  0  0  0  0  0  0  0
   10.2737  -16.3697   23.2834 N   0  0  0  0  0  0  0  0  0  0  0  0
   11.5233  -17.1293   23.5785 C   0  0  1  0  0  0  0  0  0  0  0  0
   12.6184  -16.1636   23.2209 C   0  0  0  0  0  0  0  0  0  0  0  0
   12.8563  -15.9651   21.7920 C   0  0  0  0  0  0  0  0  0  0  0  0
   12.7878  -16.8726   20.7762 C   0  0  0  0  0  0  0  0  0  0  0  0
   13.0246  -16.1947   19.6298 N   0  0  0  0  0  0  0  0  0  0  0  0
   13.2381  -14.8998   19.8818 C   0  0  0  0  0  0  0  0  0  0  0  0
   13.1344  -14.7628   21.2037 N   0  0  0  0  0  0  0  0  0  0  0  0
   11.5117  -17.3743   25.0719 C   0  0  0  0  0  0  0  0  0  0  0  0
   11.4598  -16.4581   25.9216 O   0  0  0  0  0  0  0  0  0  0  0  0
   11.3587  -20.4059   29.4382 N   0  0  0  0  0  0  0  0  0  0  0  0
   10.8088  -21.0511   28.3149 C   0  0  0  0  0  0  0  0  0  0  0  0
   10.2880  -22.1762   28.4577 O   0  0  0  0  0  0  0  0  0  0  0  0
   10.8513  -20.4066   27.0072 C   0  0  0  0  0  0  0  0  0  0  0  0
   11.5176  -19.0502   26.9716 C   0  0  2  0  0  0  0  0  0  0  0  0
   11.5624  -18.7110   25.5333 N   0  0  0  0  0  0  0  0  0  0  0  0
   12.9229  -19.0755   27.4300 C   0  0  0  0  0  0  0  0  0  0  0  0
   13.8002  -19.6375   26.7462 O   0  0  0  0  0  0  0  0  0  0  0  0
   13.2966  -18.4806   28.6195 O   0  0  0  0  0  0  0  0  0  0  0  0
  2 13  1  0
  2  1  1  6
  3  2  1  0
  4  3  1  0
  5  4  2  0
  6  5  1  0
  7 12  2  0
  7  6  1  0
  8  7  1  0
  9  8  2  0
  9 10  1  0
 10 11  2  0
 11 12  1  0
 12  4  1  0
 13 14  2  0
 15 16  1  0
 15 13  1  0
 16 17  1  1
 18 17  1  0
 19 18  2  0
 20 21  1  0
 20 19  1  0
 21 22  2  0
 22 18  1  0
 23 24  2  0
 23 16  1  0
 25 26  1  0
 26 27  2  0
 26 28  1  0
 29 28  1  6
 29 30  1  0
 30 23  1  0
 31 33  1  0
 31 29  1  0
 32 31  2  0
M  END
$$$$
