ALM.pdb
     RDKit          3D

 22 21  0  0  1  0  0  0  0  0999 V2000
   14.3660  -12.9619    6.1047 C   0  0  0  0  0  0  0  0  0  0  0  0
   14.0974  -13.4206    4.6950 C   0  0  2  0  0  0  0  0  0  0  0  0
   12.6995  -13.7744    4.5215 N   0  0  0  0  0  0  0  0  0  0  0  0
   15.0038  -14.5083    4.2735 C   0  0  0  0  0  0  0  0  0  0  0  0
   14.6471  -15.6861    4.3592 O   0  0  0  0  0  0  0  0  0  0  0  0
   18.4090  -16.8716    1.1226 C   0  0  0  0  0  0  0  0  0  0  0  0
   19.2887  -16.1288    2.1476 C   0  0  1  0  0  0  0  0  0  0  0  0
   20.5474  -15.7744    1.4468 C   0  0  0  0  0  0  0  0  0  0  0  0
   18.4561  -14.9865    2.6331 C   0  0  0  0  0  0  0  0  0  0  0  0
   17.1947  -15.3072    3.3204 C   0  0  2  0  0  0  0  0  0  0  0  0
   16.3261  -14.2870    3.7489 N   0  0  0  0  0  0  0  0  0  0  0  0
   17.5341  -16.1856    4.4863 C   0  0  0  0  0  0  0  0  0  0  0  0
   18.1514  -15.6359    5.4579 O   0  0  0  0  0  0  0  0  0  0  0  0
   15.0013  -18.3716    9.5751 C   0  0  0  0  0  0  0  0  0  0  0  0
   16.3529  -17.1921    9.5079 S   0  0  0  0  0  0  0  0  0  0  0  0
   17.4807  -17.5359    8.1160 C   0  0  0  0  0  0  0  0  0  0  0  0
   16.6921  -17.8823    6.8897 C   0  0  0  0  0  0  0  0  0  0  0  0
   17.5650  -18.3019    5.7459 C   0  0  2  0  0  0  0  0  0  0  0  0
   17.1938  -17.5617    4.5263 N   0  0  0  0  0  0  0  0  0  0  0  0
   17.4128  -19.7306    5.4198 C   0  0  0  0  0  0  0  0  0  0  0  0
   17.6313  -20.6265    6.3073 O   0  0  0  0  0  0  0  0  0  0  0  0
   17.0325  -20.1940    4.1685 O   0  0  0  0  0  0  0  0  0  0  0  0
  2  4  1  0
  2  1  1  1
  2  3  1  0
  4  5  2  0
  7  6  1  6
  7  9  1  0
  7  8  1  0
 10  9  1  1
 10 12  1  0
 11 10  1  0
 11  4  1  0
 12 19  1  0
 13 12  2  0
 15 16  1  0
 15 14  1  0
 17 16  1  0
 18 17  1  1
 19 18  1  0
 20 22  1  0
 20 18  1  0
 21 20  2  0
M  END
$$$$
