ALM.pdb
     RDKit          3D

 22 21  0  0  1  0  0  0  0  0999 V2000
   17.9257  -13.1803  -17.1604 C   0  0  0  0  0  0  0  0  0  0  0  0
   18.4854  -11.8523  -17.5997 C   0  0  2  0  0  0  0  0  0  0  0  0
   19.0579  -11.9451  -18.9313 N   0  0  0  0  0  0  0  0  0  0  0  0
   19.4392  -11.2907  -16.6213 C   0  0  0  0  0  0  0  0  0  0  0  0
   19.0944  -11.1005  -15.4523 O   0  0  0  0  0  0  0  0  0  0  0  0
   24.9684  -12.3951  -15.9763 C   0  0  0  0  0  0  0  0  0  0  0  0
   23.4559  -12.2415  -15.7215 C   0  0  1  0  0  0  0  0  0  0  0  0
   23.2201  -12.6502  -14.3150 C   0  0  0  0  0  0  0  0  0  0  0  0
   23.1372  -10.8214  -16.0615 C   0  0  0  0  0  0  0  0  0  0  0  0
   21.7237  -10.4129  -16.0237 C   0  0  2  0  0  0  0  0  0  0  0  0
   20.7964  -10.9345  -16.9439 N   0  0  0  0  0  0  0  0  0  0  0  0
   21.6913   -8.9160  -16.0882 C   0  0  0  0  0  0  0  0  0  0  0  0
   21.8595   -8.3877  -17.2370 O   0  0  0  0  0  0  0  0  0  0  0  0
   18.0351   -2.5856  -16.5800 C   0  0  0  0  0  0  0  0  0  0  0  0
   18.2536   -4.3561  -16.3801 S   0  0  0  0  0  0  0  0  0  0  0  0
   19.9294   -4.7673  -15.7887 C   0  0  0  0  0  0  0  0  0  0  0  0
   20.0753   -6.2525  -15.6510 C   0  0  0  0  0  0  0  0  0  0  0  0
   21.4316   -6.6520  -15.1537 C   0  0  2  0  0  0  0  0  0  0  0  0
   21.4844   -8.1095  -14.9401 N   0  0  0  0  0  0  0  0  0  0  0  0
   21.7560   -6.0359  -13.8554 C   0  0  0  0  0  0  0  0  0  0  0  0
   21.6733   -6.7162  -12.7746 O   0  0  0  0  0  0  0  0  0  0  0  0
   22.1629   -4.7169  -13.7143 O   0  0  0  0  0  0  0  0  0  0  0  0
  2  4  1  0
  2  1  1  1
  2  3  1  0
  4  5  2  0
  7  6  1  1
  7  9  1  0
  7  8  1  0
 10  9  1  6
 10 12  1  0
 11 10  1  0
 11  4  1  0
 12 19  1  0
 13 12  2  0
 15 16  1  0
 15 14  1  0
 17 16  1  0
 18 17  1  1
 19 18  1  0
 20 22  1  0
 20 18  1  0
 21 20  2  0
M  END
$$$$
