ALM.pdb
     RDKit          3D

 22 21  0  0  1  0  0  0  0  0999 V2000
   18.3101  -13.6378  -17.8569 C   0  0  0  0  0  0  0  0  0  0  0  0
   18.9198  -12.3221  -18.2658 C   0  0  2  0  0  0  0  0  0  0  0  0
   19.6118  -12.4433  -19.5370 N   0  0  0  0  0  0  0  0  0  0  0  0
   19.7844  -11.7500  -17.2133 C   0  0  0  0  0  0  0  0  0  0  0  0
   19.3158  -11.4619  -16.1092 O   0  0  0  0  0  0  0  0  0  0  0  0
   23.5725  -10.9678  -13.8753 C   0  0  0  0  0  0  0  0  0  0  0  0
   24.2361  -10.6166  -15.2216 C   0  0  1  0  0  0  0  0  0  0  0  0
   25.6567  -11.0305  -15.1138 C   0  0  0  0  0  0  0  0  0  0  0  0
   23.4197  -11.3136  -16.2616 C   0  0  0  0  0  0  0  0  0  0  0  0
   22.0173  -10.8954  -16.4195 C   0  0  2  0  0  0  0  0  0  0  0  0
   21.1902  -11.4930  -17.3877 N   0  0  0  0  0  0  0  0  0  0  0  0
   22.0159   -9.4103  -16.6208 C   0  0  0  0  0  0  0  0  0  0  0  0
   22.2470   -8.9917  -17.8034 O   0  0  0  0  0  0  0  0  0  0  0  0
   17.8997   -3.7226  -18.2463 C   0  0  0  0  0  0  0  0  0  0  0  0
   18.3714   -5.4219  -17.9110 S   0  0  0  0  0  0  0  0  0  0  0  0
   19.9649   -5.5188  -17.0285 C   0  0  0  0  0  0  0  0  0  0  0  0
   20.3074   -6.9496  -16.7429 C   0  0  0  0  0  0  0  0  0  0  0  0
   21.5619   -7.0888  -15.9347 C   0  0  2  0  0  0  0  0  0  0  0  0
   21.7711   -8.4995  -15.5617 N   0  0  0  0  0  0  0  0  0  0  0  0
   21.4999   -6.3358  -14.6699 C   0  0  0  0  0  0  0  0  0  0  0  0
   21.3488   -6.9478  -13.5561 O   0  0  0  0  0  0  0  0  0  0  0  0
   21.5989   -4.9538  -14.5961 O   0  0  0  0  0  0  0  0  0  0  0  0
  2  4  1  0
  2  1  1  1
  2  3  1  0
  4  5  2  0
  7  6  1  1
  7  9  1  0
  7  8  1  0
 10  9  1  6
 10 12  1  0
 11 10  1  0
 11  4  1  0
 12 19  1  0
 13 12  2  0
 15 16  1  0
 15 14  1  0
 17 16  1  0
 18 17  1  1
 19 18  1  0
 20 22  1  0
 20 18  1  0
 21 20  2  0
M  END
$$$$
