ALM.pdb
     RDKit          3D

 22 21  0  0  1  0  0  0  0  0999 V2000
   16.2439  -11.1163  -17.5172 C   0  0  0  0  0  0  0  0  0  0  0  0
   17.2314  -10.0264  -17.8438 C   0  0  2  0  0  0  0  0  0  0  0  0
   17.8238  -10.2376  -19.1529 N   0  0  0  0  0  0  0  0  0  0  0  0
   18.2535   -9.8573  -16.7907 C   0  0  0  0  0  0  0  0  0  0  0  0
   17.9196   -9.5815  -15.6356 O   0  0  0  0  0  0  0  0  0  0  0  0
   22.1911  -10.4468  -13.5851 C   0  0  0  0  0  0  0  0  0  0  0  0
   22.8864  -10.2064  -14.9397 C   0  0  1  0  0  0  0  0  0  0  0  0
   24.1288  -11.0171  -14.9273 C   0  0  0  0  0  0  0  0  0  0  0  0
   21.8717  -10.5644  -15.9771 C   0  0  0  0  0  0  0  0  0  0  0  0
   20.6618   -9.7305  -16.0624 C   0  0  2  0  0  0  0  0  0  0  0  0
   19.6678   -9.9961  -17.0215 N   0  0  0  0  0  0  0  0  0  0  0  0
   21.1112   -8.3075  -16.2014 C   0  0  0  0  0  0  0  0  0  0  0  0
   21.6496   -7.9819  -17.3111 O   0  0  0  0  0  0  0  0  0  0  0  0
   18.9735   -2.6463  -18.2843 C   0  0  0  0  0  0  0  0  0  0  0  0
   19.0585   -2.7448  -16.4939 S   0  0  0  0  0  0  0  0  0  0  0  0
   20.5221   -3.6807  -15.9377 C   0  0  0  0  0  0  0  0  0  0  0  0
   20.1792   -5.1326  -15.7948 C   0  0  0  0  0  0  0  0  0  0  0  0
   21.3735   -5.9737  -15.4592 C   0  0  2  0  0  0  0  0  0  0  0  0
   20.9537   -7.3552  -15.1624 N   0  0  0  0  0  0  0  0  0  0  0  0
   22.0776   -5.4927  -14.2578 C   0  0  0  0  0  0  0  0  0  0  0  0
   21.9730   -6.1214  -13.1480 O   0  0  0  0  0  0  0  0  0  0  0  0
   22.8803   -4.3611  -14.2425 O   0  0  0  0  0  0  0  0  0  0  0  0
  2  4  1  0
  2  1  1  1
  2  3  1  0
  4  5  2  0
  7  6  1  1
  7  9  1  0
  7  8  1  0
 10  9  1  6
 10 12  1  0
 11 10  1  0
 11  4  1  0
 12 19  1  0
 13 12  2  0
 15 16  1  0
 15 14  1  0
 17 16  1  0
 18 17  1  1
 19 18  1  0
 20 22  1  0
 20 18  1  0
 21 20  2  0
M  END
$$$$
