ALM.pdb
     RDKit          3D

 22 21  0  0  1  0  0  0  0  0999 V2000
   28.0500  -22.8328  -16.6361 C   0  0  0  0  0  0  0  0  0  0  0  0
   27.2556  -21.5856  -16.3476 C   0  0  2  0  0  0  0  0  0  0  0  0
   28.1220  -20.4218  -16.2817 N   0  0  0  0  0  0  0  0  0  0  0  0
   26.4116  -21.7206  -15.1427 C   0  0  0  0  0  0  0  0  0  0  0  0
   25.4940  -22.5445  -15.1128 O   0  0  0  0  0  0  0  0  0  0  0  0
   25.1033  -21.9714  -10.0619 C   0  0  0  0  0  0  0  0  0  0  0  0
   25.2009  -20.4711  -10.4023 C   0  0  1  0  0  0  0  0  0  0  0  0
   25.6034  -19.7791   -9.1532 C   0  0  0  0  0  0  0  0  0  0  0  0
   26.1585  -20.3840  -11.5465 C   0  0  0  0  0  0  0  0  0  0  0  0
   25.7510  -20.9925  -12.8233 C   0  0  2  0  0  0  0  0  0  0  0  0
   26.5873  -20.9298  -13.9525 N   0  0  0  0  0  0  0  0  0  0  0  0
   24.4071  -20.4303  -13.1751 C   0  0  0  0  0  0  0  0  0  0  0  0
   24.3585  -19.1833  -13.4398 O   0  0  0  0  0  0  0  0  0  0  0  0
   21.4474  -20.0282  -18.2588 C   0  0  0  0  0  0  0  0  0  0  0  0
   20.0788  -20.6044  -17.2501 S   0  0  0  0  0  0  0  0  0  0  0  0
   20.3579  -20.2703  -15.4787 C   0  0  0  0  0  0  0  0  0  0  0  0
   21.6613  -20.8678  -15.0426 C   0  0  0  0  0  0  0  0  0  0  0  0
   21.9866  -20.5541  -13.6136 C   0  0  2  0  0  0  0  0  0  0  0  0
   23.2359  -21.2289  -13.2178 N   0  0  0  0  0  0  0  0  0  0  0  0
   20.9494  -21.0352  -12.6844 C   0  0  0  0  0  0  0  0  0  0  0  0
   20.9627  -22.2444  -12.2653 O   0  0  0  0  0  0  0  0  0  0  0  0
   19.9173  -20.2384  -12.2101 O   0  0  0  0  0  0  0  0  0  0  0  0
  2  4  1  0
  2  1  1  1
  2  3  1  0
  4  5  2  0
  7  6  1  1
  7  9  1  0
  7  8  1  0
 10  9  1  1
 10 12  1  0
 11 10  1  0
 11  4  1  0
 12 19  1  0
 13 12  2  0
 15 16  1  0
 15 14  1  0
 17 16  1  0
 18 17  1  6
 19 18  1  0
 20 22  1  0
 20 18  1  0
 21 20  2  0
M  END
$$$$
