ALM.pdb
     RDKit          3D

 22 21  0  0  1  0  0  0  0  0999 V2000
   20.8717  -20.8154  -11.9744 C   0  0  0  0  0  0  0  0  0  0  0  0
   22.1232  -20.7897  -12.8128 C   0  0  2  0  0  0  0  0  0  0  0  0
   21.9680  -21.6080  -14.0026 N   0  0  0  0  0  0  0  0  0  0  0  0
   23.3278  -21.1544  -12.0392 C   0  0  0  0  0  0  0  0  0  0  0  0
   23.4561  -22.2940  -11.5847 O   0  0  0  0  0  0  0  0  0  0  0  0
   28.6239  -20.0009  -13.4950 C   0  0  0  0  0  0  0  0  0  0  0  0
   27.2701  -20.6559  -13.1568 C   0  0  1  0  0  0  0  0  0  0  0  0
   27.4671  -22.1213  -13.2777 C   0  0  0  0  0  0  0  0  0  0  0  0
   26.9089  -20.1453  -11.7993 C   0  0  0  0  0  0  0  0  0  0  0  0
   25.6444  -20.6140  -11.2098 C   0  0  2  0  0  0  0  0  0  0  0  0
   24.4068  -20.2415  -11.7651 N   0  0  0  0  0  0  0  0  0  0  0  0
   25.6644  -20.2401   -9.7587 C   0  0  0  0  0  0  0  0  0  0  0  0
   24.9984  -19.2049   -9.4240 O   0  0  0  0  0  0  0  0  0  0  0  0
   30.4655  -21.5563   -4.9821 C   0  0  0  0  0  0  0  0  0  0  0  0
   28.8112  -21.6613   -4.2931 S   0  0  0  0  0  0  0  0  0  0  0  0
   27.6227  -20.6449   -5.2321 C   0  0  0  0  0  0  0  0  0  0  0  0
   27.4027  -21.2365   -6.5913 C   0  0  0  0  0  0  0  0  0  0  0  0
   26.5399  -20.3723   -7.4603 C   0  0  2  0  0  0  0  0  0  0  0  0
   26.3818  -20.9878   -8.7904 N   0  0  0  0  0  0  0  0  0  0  0  0
   27.1315  -19.0431   -7.6920 C   0  0  0  0  0  0  0  0  0  0  0  0
   26.8254  -18.0552   -6.9382 O   0  0  0  0  0  0  0  0  0  0  0  0
   28.0352  -18.7743   -8.7100 O   0  0  0  0  0  0  0  0  0  0  0  0
  2  4  1  0
  2  1  1  1
  2  3  1  0
  4  5  2  0
  7  6  1  1
  7  9  1  0
  7  8  1  0
 10  9  1  6
 10 12  1  0
 11 10  1  0
 11  4  1  0
 12 19  1  0
 13 12  2  0
 15 16  1  0
 15 14  1  0
 17 16  1  0
 18 17  1  1
 19 18  1  0
 20 22  1  0
 20 18  1  0
 21 20  2  0
M  END
$$$$
