AHP.pdb
     RDKit          3D

 23 24  0  0  1  0  0  0  0  0999 V2000
    8.5073  -12.6643   19.7245 C   0  0  0  0  0  0  0  0  0  0  0  0
    8.3012  -14.1487   19.8054 C   0  0  2  0  0  0  0  0  0  0  0  0
    7.6679  -14.6677   18.6064 N   0  0  0  0  0  0  0  0  0  0  0  0
    7.5304  -14.5517   21.0193 C   0  0  0  0  0  0  0  0  0  0  0  0
    6.3182  -14.8827   20.9679 O   0  0  0  0  0  0  0  0  0  0  0  0
    8.1757  -14.5621   22.2556 N   0  0  0  0  0  0  0  0  0  0  0  0
    7.5045  -15.0457   23.5036 C   0  0  1  0  0  0  0  0  0  0  0  0
    7.7793  -16.5551   23.3815 C   0  0  0  0  0  0  0  0  0  0  0  0
    7.4495  -17.3638   24.5243 C   0  0  0  0  0  0  0  0  0  0  0  0
    6.7955  -16.9471   25.6627 C   0  0  0  0  0  0  0  0  0  0  0  0
    6.6648  -17.9693   26.5470 N   0  0  0  0  0  0  0  0  0  0  0  0
    7.2379  -19.0380   25.9672 C   0  0  0  0  0  0  0  0  0  0  0  0
    7.7090  -18.6849   24.7589 N   0  0  0  0  0  0  0  0  0  0  0  0
    8.2557  -14.4195   24.6048 C   0  0  0  0  0  0  0  0  0  0  0  0
    9.4814  -14.7946   24.7515 O   0  0  0  0  0  0  0  0  0  0  0  0
    7.7277  -13.4453   25.4913 N   0  0  0  0  0  0  0  0  0  0  0  0
    6.4890  -12.7416   25.3609 C   0  0  0  0  0  0  0  0  0  0  0  0
    6.0395  -12.6015   26.8128 C   0  0  0  0  0  0  0  0  0  0  0  0
    7.3531  -12.0926   27.4220 C   0  0  0  0  0  0  0  0  0  0  0  0
    8.3477  -12.9477   26.7122 C   0  0  1  0  0  0  0  0  0  0  0  0
    8.7874  -14.0233   27.6233 C   0  0  0  0  0  0  0  0  0  0  0  0
    8.2674  -15.1546   27.5005 O   0  0  0  0  0  0  0  0  0  0  0  0
    9.7439  -13.8249   28.5974 O   0  0  0  0  0  0  0  0  0  0  0  0
  2  3  1  0
  2  1  1  6
  4  5  2  0
  4  2  1  0
  6  4  1  0
  7  6  1  0
  7 14  1  0
  7  8  1  1
  9  8  1  0
 10  9  2  0
 11 10  1  0
 12 11  1  0
 12 13  2  0
 13  9  1  0
 14 16  1  0
 15 14  2  0
 16 17  1  0
 16 20  1  0
 17 18  1  0
 19 18  1  0
 20 19  1  0
 20 21  1  1
 21 22  2  0
 21 23  1  0
M  END
$$$$
