AHP.pdb
     RDKit          3D

 23 24  0  0  1  0  0  0  0  0999 V2000
    9.6711  -12.8425   19.9491 C   0  0  0  0  0  0  0  0  0  0  0  0
    8.5875  -13.8628   19.7565 C   0  0  2  0  0  0  0  0  0  0  0  0
    7.7085  -13.5095   18.6563 N   0  0  0  0  0  0  0  0  0  0  0  0
    7.7974  -14.0970   21.0018 C   0  0  0  0  0  0  0  0  0  0  0  0
    6.7215  -13.4909   21.2405 O   0  0  0  0  0  0  0  0  0  0  0  0
    8.2672  -15.0204   21.9353 N   0  0  0  0  0  0  0  0  0  0  0  0
    7.5351  -15.3133   23.2083 C   0  0  1  0  0  0  0  0  0  0  0  0
    7.7185  -16.8400   23.2713 C   0  0  0  0  0  0  0  0  0  0  0  0
    7.3917  -17.4766   24.5190 C   0  0  0  0  0  0  0  0  0  0  0  0
    6.3630  -17.1352   25.3692 C   0  0  0  0  0  0  0  0  0  0  0  0
    6.3552  -17.9367   26.4652 N   0  0  0  0  0  0  0  0  0  0  0  0
    7.3826  -18.7894   26.3096 C   0  0  0  0  0  0  0  0  0  0  0  0
    8.0068  -18.5213   25.1499 N   0  0  0  0  0  0  0  0  0  0  0  0
    8.2951  -14.6069   24.2535 C   0  0  0  0  0  0  0  0  0  0  0  0
    9.5456  -14.9072   24.3579 O   0  0  0  0  0  0  0  0  0  0  0  0
    7.7500  -13.6328   25.1296 N   0  0  0  0  0  0  0  0  0  0  0  0
    6.5255  -12.9120   24.9634 C   0  0  0  0  0  0  0  0  0  0  0  0
    6.0291  -12.7772   26.4005 C   0  0  0  0  0  0  0  0  0  0  0  0
    7.3278  -12.2902   27.0576 C   0  0  0  0  0  0  0  0  0  0  0  0
    8.3349  -13.1526   26.3746 C   0  0  1  0  0  0  0  0  0  0  0  0
    8.7299  -14.2408   27.2913 C   0  0  0  0  0  0  0  0  0  0  0  0
    8.2158  -15.3698   27.1285 O   0  0  0  0  0  0  0  0  0  0  0  0
    9.6387  -14.0566   28.3126 O   0  0  0  0  0  0  0  0  0  0  0  0
  2  3  1  0
  2  1  1  1
  4  5  2  0
  4  2  1  0
  6  4  1  0
  7  6  1  0
  7 14  1  0
  7  8  1  1
  9  8  1  0
 10  9  2  0
 11 10  1  0
 12 11  1  0
 12 13  2  0
 13  9  1  0
 14 16  1  0
 15 14  2  0
 16 17  1  0
 16 20  1  0
 17 18  1  0
 19 18  1  0
 20 19  1  0
 20 21  1  1
 21 22  2  0
 21 23  1  0
M  END
$$$$
