AHP.pdb
     RDKit          3D

 23 24  0  0  1  0  0  0  0  0999 V2000
   11.9870  -18.5516   21.9350 C   0  0  0  0  0  0  0  0  0  0  0  0
   11.3265  -17.3256   21.3753 C   0  0  2  0  0  0  0  0  0  0  0  0
   12.1148  -16.7312   20.3107 N   0  0  0  0  0  0  0  0  0  0  0  0
   11.0217  -16.3115   22.4283 C   0  0  0  0  0  0  0  0  0  0  0  0
   11.8565  -15.4419   22.7871 O   0  0  0  0  0  0  0  0  0  0  0  0
    9.7671  -16.3271   23.0370 N   0  0  0  0  0  0  0  0  0  0  0  0
    9.3505  -15.2924   24.0360 C   0  0  1  0  0  0  0  0  0  0  0  0
    7.8210  -15.3990   23.9019 C   0  0  0  0  0  0  0  0  0  0  0  0
    7.0392  -14.5426   24.7528 C   0  0  0  0  0  0  0  0  0  0  0  0
    7.0968  -13.1675   24.8083 C   0  0  0  0  0  0  0  0  0  0  0  0
    6.2310  -12.6840   25.7359 N   0  0  0  0  0  0  0  0  0  0  0  0
    5.6221  -13.7565   26.2706 C   0  0  0  0  0  0  0  0  0  0  0  0
    6.0990  -14.8704   25.6891 N   0  0  0  0  0  0  0  0  0  0  0  0
    9.8430  -15.7950   25.3298 C   0  0  0  0  0  0  0  0  0  0  0  0
    9.9357  -17.0761   25.4518 O   0  0  0  0  0  0  0  0  0  0  0  0
   10.2197  -14.9744   26.4246 N   0  0  0  0  0  0  0  0  0  0  0  0
   10.1012  -13.5518   26.5170 C   0  0  0  0  0  0  0  0  0  0  0  0
    9.7737  -13.3475   27.9938 C   0  0  0  0  0  0  0  0  0  0  0  0
   10.8581  -14.2449   28.6058 C   0  0  0  0  0  0  0  0  0  0  0  0
   10.8216  -15.4114   27.6773 C   0  0  1  0  0  0  0  0  0  0  0  0
   10.0833  -16.5135   28.3260 C   0  0  0  0  0  0  0  0  0  0  0  0
    8.9332  -16.7815   27.9125 O   0  0  0  0  0  0  0  0  0  0  0  0
   10.6139  -17.2514   29.3638 O   0  0  0  0  0  0  0  0  0  0  0  0
  2  3  1  0
  2  1  1  1
  4  5  2  0
  4  2  1  0
  6  4  1  0
  7  6  1  0
  7 14  1  0
  7  8  1  1
  9  8  1  0
 10  9  2  0
 11 10  1  0
 12 11  1  0
 12 13  2  0
 13  9  1  0
 14 16  1  0
 15 14  2  0
 16 17  1  0
 16 20  1  0
 17 18  1  0
 19 18  1  0
 20 19  1  0
 20 21  1  1
 21 22  2  0
 21 23  1  0
M  END
$$$$
