AHP.pdb
     RDKit          3D

 23 24  0  0  1  0  0  0  0  0999 V2000
    7.8013  -13.2959   18.9245 C   0  0  0  0  0  0  0  0  0  0  0  0
    8.6787  -13.8677   19.9995 C   0  0  2  0  0  0  0  0  0  0  0  0
    9.1994  -15.1714   19.6289 N   0  0  0  0  0  0  0  0  0  0  0  0
    7.9879  -13.9378   21.3216 C   0  0  0  0  0  0  0  0  0  0  0  0
    7.1282  -13.0916   21.6777 O   0  0  0  0  0  0  0  0  0  0  0  0
    8.3057  -14.9778   22.1946 N   0  0  0  0  0  0  0  0  0  0  0  0
    7.4989  -15.2652   23.4228 C   0  0  1  0  0  0  0  0  0  0  0  0
    7.4957  -16.8037   23.3808 C   0  0  0  0  0  0  0  0  0  0  0  0
    6.5745  -17.4206   22.4645 C   0  0  0  0  0  0  0  0  0  0  0  0
    5.2056  -17.4909   22.6006 C   0  0  0  0  0  0  0  0  0  0  0  0
    4.6495  -18.1593   21.5576 N   0  0  0  0  0  0  0  0  0  0  0  0
    5.6694  -18.5140   20.7571 C   0  0  0  0  0  0  0  0  0  0  0  0
    6.8225  -18.0767   21.2916 N   0  0  0  0  0  0  0  0  0  0  0  0
    8.3002  -14.7297   24.5364 C   0  0  0  0  0  0  0  0  0  0  0  0
    9.4723  -15.2435   24.7010 O   0  0  0  0  0  0  0  0  0  0  0  0
    7.8744  -13.7012   25.4165 N   0  0  0  0  0  0  0  0  0  0  0  0
    6.7572  -12.8248   25.2425 C   0  0  0  0  0  0  0  0  0  0  0  0
    6.2618  -12.6402   26.6744 C   0  0  0  0  0  0  0  0  0  0  0  0
    7.6032  -12.3339   27.3542 C   0  0  0  0  0  0  0  0  0  0  0  0
    8.4988  -13.3140   26.6747 C   0  0  1  0  0  0  0  0  0  0  0  0
    8.7346  -14.4535   27.5838 C   0  0  0  0  0  0  0  0  0  0  0  0
    8.0588  -15.4936   27.4194 O   0  0  0  0  0  0  0  0  0  0  0  0
    9.6667  -14.4107   28.5998 O   0  0  0  0  0  0  0  0  0  0  0  0
  2  3  1  0
  2  1  1  6
  4  5  2  0
  4  2  1  0
  6  4  1  0
  7  6  1  0
  7 14  1  0
  7  8  1  1
  9  8  1  0
 10  9  2  0
 11 10  1  0
 12 11  1  0
 12 13  2  0
 13  9  1  0
 14 16  1  0
 15 14  2  0
 16 17  1  0
 16 20  1  0
 17 18  1  0
 19 18  1  0
 20 19  1  0
 20 21  1  1
 21 22  2  0
 21 23  1  0
M  END
$$$$
