PGP.pdb
     RDKit          3D

 19 20  0  0  1  0  0  0  0  0999 V2000
   17.9664  -13.3660  -18.7408 N   0  0  0  0  0  0  0  0  0  0  0  0
   17.7847  -14.0496  -20.0349 C   0  0  0  0  0  0  0  0  0  0  0  0
   18.4718  -15.3682  -19.7586 C   0  0  0  0  0  0  0  0  0  0  0  0
   18.0098  -15.7144  -18.3738 C   0  0  0  0  0  0  0  0  0  0  0  0
   17.6239  -14.3899  -17.7745 C   0  0  1  0  0  0  0  0  0  0  0  0
   18.3549  -14.1819  -16.5097 C   0  0  0  0  0  0  0  0  0  0  0  0
   18.1547  -14.9459  -15.4998 O   0  0  0  0  0  0  0  0  0  0  0  0
   19.3087  -13.1569  -16.3009 N   0  0  0  0  0  0  0  0  0  0  0  0
   19.9019  -12.9635  -14.9885 C   0  0  0  0  0  0  0  0  0  0  0  0
   19.9600  -11.5314  -14.6213 C   0  0  0  0  0  0  0  0  0  0  0  0
   18.8482  -10.9310  -14.4693 O   0  0  0  0  0  0  0  0  0  0  0  0
   21.1789  -10.8489  -14.4444 N   0  0  0  0  0  0  0  0  0  0  0  0
   22.4870  -11.5134  -14.5368 C   0  0  0  0  0  0  0  0  0  0  0  0
   23.4362  -10.5373  -13.8632 C   0  0  0  0  0  0  0  0  0  0  0  0
   22.8376   -9.2274  -14.3141 C   0  0  0  0  0  0  0  0  0  0  0  0
   21.3564   -9.4513  -14.1465 C   0  0  1  0  0  0  0  0  0  0  0  0
   20.5710   -8.5564  -15.0406 C   0  0  0  0  0  0  0  0  0  0  0  0
   20.3546   -8.9696  -16.2038 O   0  0  0  0  0  0  0  0  0  0  0  0
   20.0986   -7.3403  -14.6352 O   0  0  0  0  0  0  0  0  0  0  0  0
  1  2  1  0
  3  2  1  0
  4  5  1  0
  4  3  1  0
  5  1  1  0
  5  6  1  1
  7  6  2  0
  8  6  1  0
  9  8  1  0
 10  9  1  0
 10 12  1  0
 11 10  2  0
 12 16  1  0
 13 12  1  0
 13 14  1  0
 14 15  1  0
 16 17  1  6
 16 15  1  0
 17 19  1  0
 18 17  2  0
M  END
$$$$
