PGP.pdb
     RDKit          3D

 19 20  0  0  1  0  0  0  0  0999 V2000
   24.5575  -21.5924  -10.5230 N   0  0  0  0  0  0  0  0  0  0  0  0
   23.3314  -20.9963  -11.0853 C   0  0  0  0  0  0  0  0  0  0  0  0
   23.7684  -19.5591  -11.2600 C   0  0  0  0  0  0  0  0  0  0  0  0
   25.1588  -19.6858  -11.8095 C   0  0  0  0  0  0  0  0  0  0  0  0
   25.6049  -21.0520  -11.3658 C   0  0  1  0  0  0  0  0  0  0  0  0
   26.8741  -20.9456  -10.6206 C   0  0  0  0  0  0  0  0  0  0  0  0
   27.8536  -20.2593  -11.0825 O   0  0  0  0  0  0  0  0  0  0  0  0
   27.1197  -21.5691   -9.3737 N   0  0  0  0  0  0  0  0  0  0  0  0
   28.2596  -21.1694   -8.5659 C   0  0  0  0  0  0  0  0  0  0  0  0
   27.8447  -20.7327   -7.2145 C   0  0  0  0  0  0  0  0  0  0  0  0
   26.5972  -20.5735   -7.0192 O   0  0  0  0  0  0  0  0  0  0  0  0
   28.7724  -20.4996   -6.1812 N   0  0  0  0  0  0  0  0  0  0  0  0
   30.2102  -20.7725   -6.3222 C   0  0  0  0  0  0  0  0  0  0  0  0
   30.7149  -20.7986   -4.8897 C   0  0  0  0  0  0  0  0  0  0  0  0
   29.8592  -19.7127   -4.2845 C   0  0  0  0  0  0  0  0  0  0  0  0
   28.4952  -19.9877   -4.8642 C   0  0  1  0  0  0  0  0  0  0  0  0
   27.6567  -18.7573   -4.8773 C   0  0  0  0  0  0  0  0  0  0  0  0
   27.6240  -18.1082   -5.9489 O   0  0  0  0  0  0  0  0  0  0  0  0
   26.9484  -18.3369   -3.7874 O   0  0  0  0  0  0  0  0  0  0  0  0
  1  2  1  0
  3  2  1  0
  4  5  1  0
  4  3  1  0
  5  1  1  0
  5  6  1  1
  7  6  2  0
  8  6  1  0
  9  8  1  0
 10  9  1  0
 10 12  1  0
 11 10  2  0
 12 16  1  0
 13 12  1  0
 13 14  1  0
 14 15  1  0
 16 17  1  6
 16 15  1  0
 17 19  1  0
 18 17  2  0
M  END
$$$$
