PGP.pdb
     RDKit          3D

 19 20  0  0  1  0  0  0  0  0999 V2000
   24.6876  -21.4716  -10.7434 N   0  0  0  0  0  0  0  0  0  0  0  0
   23.5089  -20.9475  -11.4580 C   0  0  0  0  0  0  0  0  0  0  0  0
   24.0276  -19.6018  -11.9131 C   0  0  0  0  0  0  0  0  0  0  0  0
   25.4210  -19.9084  -12.3775 C   0  0  0  0  0  0  0  0  0  0  0  0
   25.7817  -21.1715  -11.6447 C   0  0  1  0  0  0  0  0  0  0  0  0
   27.0377  -20.9735  -10.8960 C   0  0  0  0  0  0  0  0  0  0  0  0
   28.0337  -20.3671  -11.4291 O   0  0  0  0  0  0  0  0  0  0  0  0
   27.2525  -21.4190   -9.5697 N   0  0  0  0  0  0  0  0  0  0  0  0
   28.2573  -20.7816   -8.7356 C   0  0  0  0  0  0  0  0  0  0  0  0
   27.8130  -20.6784   -7.3281 C   0  0  0  0  0  0  0  0  0  0  0  0
   26.5802  -20.8940   -7.0968 O   0  0  0  0  0  0  0  0  0  0  0  0
   28.6983  -20.3578   -6.2811 N   0  0  0  0  0  0  0  0  0  0  0  0
   30.1423  -20.1716   -6.4852 C   0  0  0  0  0  0  0  0  0  0  0  0
   30.7222  -20.2845   -5.0858 C   0  0  0  0  0  0  0  0  0  0  0  0
   29.6317  -19.6113   -4.2889 C   0  0  0  0  0  0  0  0  0  0  0  0
   28.3695  -20.1735   -4.8914 C   0  0  1  0  0  0  0  0  0  0  0  0
   27.2154  -19.2573   -4.6780 C   0  0  0  0  0  0  0  0  0  0  0  0
   27.0229  -18.3793   -5.5514 O   0  0  0  0  0  0  0  0  0  0  0  0
   26.3923  -19.3500   -3.5915 O   0  0  0  0  0  0  0  0  0  0  0  0
  1  2  1  0
  3  2  1  0
  4  5  1  0
  4  3  1  0
  5  1  1  0
  5  6  1  1
  7  6  2  0
  8  6  1  0
  9  8  1  0
 10  9  1  0
 10 12  1  0
 11 10  2  0
 12 16  1  0
 13 12  1  0
 13 14  1  0
 14 15  1  0
 16 17  1  6
 16 15  1  0
 17 19  1  0
 18 17  2  0
M  END
$$$$
