PGP.pdb
     RDKit          3D

 19 20  0  0  1  0  0  0  0  0999 V2000
   22.9226  -20.9140  -13.3101 N   0  0  0  0  0  0  0  0  0  0  0  0
   22.1870  -20.0362  -14.2391 C   0  0  0  0  0  0  0  0  0  0  0  0
   23.3212  -19.2195  -14.8165 C   0  0  0  0  0  0  0  0  0  0  0  0
   24.3972  -20.2391  -15.0483 C   0  0  0  0  0  0  0  0  0  0  0  0
   24.0563  -21.3539  -14.0979 C   0  0  1  0  0  0  0  0  0  0  0  0
   25.2151  -21.6438  -13.2315 C   0  0  0  0  0  0  0  0  0  0  0  0
   26.3880  -21.7916  -13.7279 O   0  0  0  0  0  0  0  0  0  0  0  0
   25.1423  -21.7819  -11.8246 N   0  0  0  0  0  0  0  0  0  0  0  0
   26.3395  -21.6487  -11.0118 C   0  0  0  0  0  0  0  0  0  0  0  0
   26.2368  -20.5112  -10.0711 C   0  0  0  0  0  0  0  0  0  0  0  0
   25.7800  -19.4186  -10.5373 O   0  0  0  0  0  0  0  0  0  0  0  0
   26.6216  -20.6146   -8.7206 N   0  0  0  0  0  0  0  0  0  0  0  0
   27.1566  -21.8525   -8.1351 C   0  0  0  0  0  0  0  0  0  0  0  0
   27.0100  -21.6370   -6.6387 C   0  0  0  0  0  0  0  0  0  0  0  0
   27.3139  -20.1615   -6.5496 C   0  0  0  0  0  0  0  0  0  0  0  0
   26.5554  -19.5839   -7.7172 C   0  0  1  0  0  0  0  0  0  0  0  0
   27.1504  -18.2933   -8.1616 C   0  0  0  0  0  0  0  0  0  0  0  0
   27.9887  -18.3490   -9.0916 O   0  0  0  0  0  0  0  0  0  0  0  0
   26.8143  -17.0947   -7.5988 O   0  0  0  0  0  0  0  0  0  0  0  0
  1  2  1  0
  3  2  1  0
  4  5  1  0
  4  3  1  0
  5  1  1  0
  5  6  1  1
  7  6  2  0
  8  6  1  0
  9  8  1  0
 10  9  1  0
 10 12  1  0
 11 10  2  0
 12 16  1  0
 13 12  1  0
 13 14  1  0
 14 15  1  0
 16 17  1  6
 16 15  1  0
 17 19  1  0
 18 17  2  0
M  END
$$$$
