PGP.pdb
     RDKit          3D

 19 20  0  0  1  0  0  0  0  0999 V2000
   26.7310  -20.5826  -11.9292 N   0  0  0  0  0  0  0  0  0  0  0  0
   26.3490  -20.9773  -13.2978 C   0  0  0  0  0  0  0  0  0  0  0  0
   25.0589  -21.7195  -13.0298 C   0  0  0  0  0  0  0  0  0  0  0  0
   24.3713  -20.8592  -12.0108 C   0  0  0  0  0  0  0  0  0  0  0  0
   25.4905  -20.0856  -11.3694 C   0  0  1  0  0  0  0  0  0  0  0  0
   25.4598  -20.2822   -9.9073 C   0  0  0  0  0  0  0  0  0  0  0  0
   24.5295  -19.7651   -9.1925 O   0  0  0  0  0  0  0  0  0  0  0  0
   26.4196  -21.0308   -9.1845 N   0  0  0  0  0  0  0  0  0  0  0  0
   26.3750  -21.0727   -7.7326 C   0  0  0  0  0  0  0  0  0  0  0  0
   27.0775  -19.9177   -7.1314 C   0  0  0  0  0  0  0  0  0  0  0  0
   27.2833  -18.9134   -7.8855 O   0  0  0  0  0  0  0  0  0  0  0  0
   27.5053  -19.9124   -5.7898 N   0  0  0  0  0  0  0  0  0  0  0  0
   27.0647  -20.9132   -4.8072 C   0  0  0  0  0  0  0  0  0  0  0  0
   27.4010  -20.2778   -3.4690 C   0  0  0  0  0  0  0  0  0  0  0  0
   28.6928  -19.5810   -3.8206 C   0  0  0  0  0  0  0  0  0  0  0  0
   28.3975  -18.9696   -5.1664 C   0  0  1  0  0  0  0  0  0  0  0  0
   29.6482  -18.7438   -5.9423 C   0  0  0  0  0  0  0  0  0  0  0  0
   29.9340  -19.5986   -6.8132 O   0  0  0  0  0  0  0  0  0  0  0  0
   30.4600  -17.6651   -5.7335 O   0  0  0  0  0  0  0  0  0  0  0  0
  1  2  1  0
  3  2  1  0
  4  5  1  0
  4  3  1  0
  5  1  1  0
  5  6  1  1
  7  6  2  0
  8  6  1  0
  9  8  1  0
 10  9  1  0
 10 12  1  0
 11 10  2  0
 12 16  1  0
 13 12  1  0
 13 14  1  0
 14 15  1  0
 16 17  1  6
 16 15  1  0
 17 19  1  0
 18 17  2  0
M  END
$$$$
