LPH.pdb
     RDKit          3D

 26 27  0  0  1  0  0  0  0  0999 V2000
    7.1036  -12.1413   20.0610 C   0  0  0  0  0  0  0  0  0  0  0  0
    7.4042  -13.5959   20.1444 C   0  0  1  0  0  0  0  0  0  0  0  0
    8.7642  -13.7957   19.4568 C   0  0  0  0  0  0  0  0  0  0  0  0
    7.4425  -14.2044   21.4926 C   0  0  0  0  0  0  0  0  0  0  0  0
    7.5141  -15.7148   21.4719 C   0  0  2  0  0  0  0  0  0  0  0  0
    6.2791  -16.2358   21.0140 N   0  0  0  0  0  0  0  0  0  0  0  0
    8.0003  -16.2435   22.7654 C   0  0  0  0  0  0  0  0  0  0  0  0
    7.0646  -16.6169   23.5772 O   0  0  0  0  0  0  0  0  0  0  0  0
    9.3139  -16.3844   23.2056 N   0  0  0  0  0  0  0  0  0  0  0  0
   10.5495  -16.0238   22.5883 C   0  0  0  0  0  0  0  0  0  0  0  0
   11.4051  -17.2598   22.8176 C   0  0  0  0  0  0  0  0  0  0  0  0
   10.8984  -17.7999   24.1093 C   0  0  0  0  0  0  0  0  0  0  0  0
    9.6961  -16.9722   24.4912 C   0  0  1  0  0  0  0  0  0  0  0  0
    9.9964  -15.9346   25.4944 C   0  0  0  0  0  0  0  0  0  0  0  0
   10.8191  -15.0278   25.1881 O   0  0  0  0  0  0  0  0  0  0  0  0
    9.4308  -15.8793   26.7757 N   0  0  0  0  0  0  0  0  0  0  0  0
    9.8123  -14.8851   27.7955 C   0  0  1  0  0  0  0  0  0  0  0  0
    8.5772  -14.1894   28.3111 C   0  0  0  0  0  0  0  0  0  0  0  0
    7.8549  -13.5592   27.1917 C   0  0  0  0  0  0  0  0  0  0  0  0
    8.0236  -12.2195   26.8012 C   0  0  0  0  0  0  0  0  0  0  0  0
    7.2186  -11.9771   25.7553 N   0  0  0  0  0  0  0  0  0  0  0  0
    6.5495  -13.0899   25.4622 C   0  0  0  0  0  0  0  0  0  0  0  0
    6.9416  -14.0219   26.3285 N   0  0  0  0  0  0  0  0  0  0  0  0
   10.3797  -15.6706   28.9407 C   0  0  0  0  0  0  0  0  0  0  0  0
   10.8717  -15.0150   29.9258 O   0  0  0  0  0  0  0  0  0  0  0  0
   10.4290  -17.0234   29.0494 O   0  0  0  0  0  0  0  0  0  0  0  0
  2  1  1  1
  3  2  1  0
  4  2  1  0
  5  6  1  1
  5  4  1  0
  7  8  2  0
  7  5  1  0
  9  7  1  0
 10  9  1  0
 11 10  1  0
 12 11  1  0
 12 13  1  0
 13 14  1  1
 13  9  1  0
 14 15  2  0
 16 17  1  0
 16 14  1  0
 18 19  1  0
 17 18  1  1
 19 23  1  0
 20 19  2  0
 20 21  1  0
 21 22  1  0
 23 22  2  0
 24 17  1  0
 25 24  2  0
 26 24  1  0
M  END
$$$$
