LPH.pdb
     RDKit          3D

 26 27  0  0  1  0  0  0  0  0999 V2000
    4.3608  -20.1542   20.2358 C   0  0  0  0  0  0  0  0  0  0  0  0
    4.6898  -18.9201   19.4729 C   0  0  1  0  0  0  0  0  0  0  0  0
    3.3796  -18.1258   19.3514 C   0  0  0  0  0  0  0  0  0  0  0  0
    5.7455  -18.0427   20.0251 C   0  0  0  0  0  0  0  0  0  0  0  0
    6.5112  -17.2798   18.9674 C   0  0  2  0  0  0  0  0  0  0  0  0
    6.7790  -18.1380   17.8729 N   0  0  0  0  0  0  0  0  0  0  0  0
    7.6826  -16.5894   19.5508 C   0  0  0  0  0  0  0  0  0  0  0  0
    8.8259  -17.0304   19.1356 O   0  0  0  0  0  0  0  0  0  0  0  0
    7.7035  -15.5460   20.4728 N   0  0  0  0  0  0  0  0  0  0  0  0
    6.6384  -14.8543   21.1246 C   0  0  0  0  0  0  0  0  0  0  0  0
    7.0573  -13.3990   20.9856 C   0  0  0  0  0  0  0  0  0  0  0  0
    8.5449  -13.4615   21.0000 C   0  0  0  0  0  0  0  0  0  0  0  0
    8.9243  -14.9218   20.9869 C   0  0  1  0  0  0  0  0  0  0  0  0
    9.2815  -15.4442   22.3183 C   0  0  0  0  0  0  0  0  0  0  0  0
    8.3484  -15.7922   23.0936 O   0  0  0  0  0  0  0  0  0  0  0  0
   10.5932  -15.5846   22.7923 N   0  0  0  0  0  0  0  0  0  0  0  0
   11.1626  -16.8634   23.2552 C   0  0  1  0  0  0  0  0  0  0  0  0
   12.3178  -17.2540   22.3675 C   0  0  0  0  0  0  0  0  0  0  0  0
   12.9078  -18.5181   22.8429 C   0  0  0  0  0  0  0  0  0  0  0  0
   12.5089  -19.1802   24.0168 C   0  0  0  0  0  0  0  0  0  0  0  0
   13.2473  -20.2928   24.1490 N   0  0  0  0  0  0  0  0  0  0  0  0
   14.0919  -20.3715   23.1231 C   0  0  0  0  0  0  0  0  0  0  0  0
   13.8752  -19.3055   22.3553 N   0  0  0  0  0  0  0  0  0  0  0  0
   11.7322  -16.5891   24.6157 C   0  0  0  0  0  0  0  0  0  0  0  0
   12.1922  -15.4146   24.8421 O   0  0  0  0  0  0  0  0  0  0  0  0
   11.8143  -17.4641   25.6510 O   0  0  0  0  0  0  0  0  0  0  0  0
  2  1  1  1
  3  2  1  0
  4  2  1  0
  5  6  1  6
  5  4  1  0
  7  8  2  0
  7  5  1  0
  9  7  1  0
 10  9  1  0
 11 10  1  0
 12 11  1  0
 12 13  1  0
 13 14  1  1
 13  9  1  0
 14 15  2  0
 16 17  1  0
 16 14  1  0
 18 19  1  0
 17 18  1  6
 19 23  1  0
 20 19  2  0
 20 21  1  0
 21 22  1  0
 23 22  2  0
 24 17  1  0
 25 24  2  0
 26 24  1  0
M  END
$$$$
