LPH.pdb
     RDKit          3D

 26 27  0  0  1  0  0  0  0  0999 V2000
    6.7056  -11.6922   27.7263 C   0  0  0  0  0  0  0  0  0  0  0  0
    6.1257  -12.7930   26.9107 C   0  0  1  0  0  0  0  0  0  0  0  0
    5.1673  -12.1292   25.9091 C   0  0  0  0  0  0  0  0  0  0  0  0
    7.0708  -13.6659   26.1799 C   0  0  0  0  0  0  0  0  0  0  0  0
    6.4173  -14.8839   25.5664 C   0  0  2  0  0  0  0  0  0  0  0  0
    5.7743  -15.6321   26.5827 N   0  0  0  0  0  0  0  0  0  0  0  0
    7.3717  -15.6308   24.7177 C   0  0  0  0  0  0  0  0  0  0  0  0
    7.6755  -16.8076   25.1613 O   0  0  0  0  0  0  0  0  0  0  0  0
    7.9700  -15.2295   23.5260 N   0  0  0  0  0  0  0  0  0  0  0  0
    7.8460  -14.0186   22.7802 C   0  0  0  0  0  0  0  0  0  0  0  0
    7.6853  -14.5246   21.3552 C   0  0  0  0  0  0  0  0  0  0  0  0
    8.4733  -15.7879   21.3429 C   0  0  0  0  0  0  0  0  0  0  0  0
    8.9176  -16.0435   22.7620 C   0  0  1  0  0  0  0  0  0  0  0  0
   10.3115  -15.6383   23.0192 C   0  0  0  0  0  0  0  0  0  0  0  0
   10.5494  -14.4168   23.2298 O   0  0  0  0  0  0  0  0  0  0  0  0
   11.4031  -16.5170   23.0478 N   0  0  0  0  0  0  0  0  0  0  0  0
   12.2165  -16.7715   24.2510 C   0  0  1  0  0  0  0  0  0  0  0  0
   11.3631  -17.4231   25.3103 C   0  0  0  0  0  0  0  0  0  0  0  0
   11.0122  -16.4355   26.3463 C   0  0  0  0  0  0  0  0  0  0  0  0
   11.2634  -15.0569   26.2364 C   0  0  0  0  0  0  0  0  0  0  0  0
   10.8199  -14.4540   27.3502 N   0  0  0  0  0  0  0  0  0  0  0  0
   10.3017  -15.3753   28.1593 C   0  0  0  0  0  0  0  0  0  0  0  0
   10.4250  -16.5499   27.5444 N   0  0  0  0  0  0  0  0  0  0  0  0
   13.2483  -17.7806   23.8415 C   0  0  0  0  0  0  0  0  0  0  0  0
   14.4698  -17.5389   24.1446 O   0  0  0  0  0  0  0  0  0  0  0  0
   13.0252  -18.9421   23.1740 O   0  0  0  0  0  0  0  0  0  0  0  0
  2  1  1  6
  3  2  1  0
  4  2  1  0
  5  6  1  1
  5  4  1  0
  7  8  2  0
  7  5  1  0
  9  7  1  0
 10  9  1  0
 11 10  1  0
 12 11  1  0
 12 13  1  0
 13 14  1  6
 13  9  1  0
 14 15  2  0
 16 17  1  0
 16 14  1  0
 18 19  1  0
 17 18  1  1
 19 23  1  0
 20 19  2  0
 20 21  1  0
 21 22  1  0
 23 22  2  0
 24 17  1  0
 25 24  2  0
 26 24  1  0
M  END
$$$$
