LPH.pdb
     RDKit          3D

 26 27  0  0  1  0  0  0  0  0999 V2000
    7.8167  -12.3769   27.2538 C   0  0  0  0  0  0  0  0  0  0  0  0
    7.1629  -13.6524   26.8554 C   0  0  1  0  0  0  0  0  0  0  0  0
    5.7072  -13.3013   26.5088 C   0  0  0  0  0  0  0  0  0  0  0  0
    7.7670  -14.4023   25.7321 C   0  0  0  0  0  0  0  0  0  0  0  0
    7.1209  -15.7474   25.4868 C   0  0  2  0  0  0  0  0  0  0  0  0
    7.3697  -16.5952   26.5938 N   0  0  0  0  0  0  0  0  0  0  0  0
    7.4970  -16.2860   24.1610 C   0  0  0  0  0  0  0  0  0  0  0  0
    7.8547  -17.5294   24.1699 O   0  0  0  0  0  0  0  0  0  0  0  0
    7.5131  -15.6314   22.9321 N   0  0  0  0  0  0  0  0  0  0  0  0
    7.4546  -14.2410   22.6138 C   0  0  0  0  0  0  0  0  0  0  0  0
    6.4404  -14.2049   21.4813 C   0  0  0  0  0  0  0  0  0  0  0  0
    6.6292  -15.5165   20.8021 C   0  0  0  0  0  0  0  0  0  0  0  0
    7.6060  -16.3077   21.6366 C   0  0  1  0  0  0  0  0  0  0  0  0
    8.9818  -16.2804   21.1077 C   0  0  0  0  0  0  0  0  0  0  0  0
    9.2004  -16.8111   19.9837 O   0  0  0  0  0  0  0  0  0  0  0  0
   10.0761  -15.7032   21.7666 N   0  0  0  0  0  0  0  0  0  0  0  0
   11.4299  -15.6241   21.1878 C   0  0  1  0  0  0  0  0  0  0  0  0
   11.7378  -14.1957   20.8138 C   0  0  0  0  0  0  0  0  0  0  0  0
   10.8263  -13.7518   19.7442 C   0  0  0  0  0  0  0  0  0  0  0  0
   11.1078  -13.8679   18.3720 C   0  0  0  0  0  0  0  0  0  0  0  0
   10.0706  -13.3694   17.6818 N   0  0  0  0  0  0  0  0  0  0  0  0
    9.1478  -12.9440   18.5418 C   0  0  0  0  0  0  0  0  0  0  0  0
    9.6155  -13.1801   19.7659 N   0  0  0  0  0  0  0  0  0  0  0  0
   12.3708  -15.9967   22.2953 C   0  0  0  0  0  0  0  0  0  0  0  0
   11.8787  -16.1446   23.4693 O   0  0  0  0  0  0  0  0  0  0  0  0
   13.7094  -16.1984   22.1873 O   0  0  0  0  0  0  0  0  0  0  0  0
  2  1  1  6
  3  2  1  0
  4  2  1  0
  5  6  1  1
  5  4  1  0
  7  8  2  0
  7  5  1  0
  9  7  1  0
 10  9  1  0
 11 10  1  0
 12 11  1  0
 12 13  1  0
 13 14  1  6
 13  9  1  0
 14 15  2  0
 16 17  1  0
 16 14  1  0
 18 19  1  0
 17 18  1  1
 19 23  1  0
 20 19  2  0
 20 21  1  0
 21 22  1  0
 23 22  2  0
 24 17  1  0
 25 24  2  0
 26 24  1  0
M  END
$$$$
