LPH.pdb
     RDKit          3D

 26 27  0  0  1  0  0  0  0  0999 V2000
    8.2138  -15.4604   15.3425 C   0  0  0  0  0  0  0  0  0  0  0  0
    8.0651  -14.3544   16.3264 C   0  0  1  0  0  0  0  0  0  0  0  0
    6.5551  -14.1104   16.4764 C   0  0  0  0  0  0  0  0  0  0  0  0
    8.6650  -14.5519   17.6645 C   0  0  0  0  0  0  0  0  0  0  0  0
    8.5517  -13.3401   18.5621 C   0  0  2  0  0  0  0  0  0  0  0  0
    9.0464  -12.2028   17.8779 N   0  0  0  0  0  0  0  0  0  0  0  0
    9.1437  -13.6042   19.8920 C   0  0  0  0  0  0  0  0  0  0  0  0
   10.2765  -13.0148   20.1007 O   0  0  0  0  0  0  0  0  0  0  0  0
    8.6412  -14.3933   20.9235 N   0  0  0  0  0  0  0  0  0  0  0  0
    7.4787  -15.2195   20.9858 C   0  0  0  0  0  0  0  0  0  0  0  0
    6.8837  -14.8494   22.3354 C   0  0  0  0  0  0  0  0  0  0  0  0
    8.0753  -14.5050   23.1592 C   0  0  0  0  0  0  0  0  0  0  0  0
    9.2702  -14.5335   22.2384 C   0  0  1  0  0  0  0  0  0  0  0  0
   10.0526  -15.7792   22.3355 C   0  0  0  0  0  0  0  0  0  0  0  0
    9.5679  -16.8299   21.8313 O   0  0  0  0  0  0  0  0  0  0  0  0
   11.3069  -15.8850   22.9521 N   0  0  0  0  0  0  0  0  0  0  0  0
   12.1214  -17.1140   22.9427 C   0  0  1  0  0  0  0  0  0  0  0  0
   13.5508  -16.7713   22.6043 C   0  0  0  0  0  0  0  0  0  0  0  0
   13.6189  -16.1937   21.2502 C   0  0  0  0  0  0  0  0  0  0  0  0
   12.9984  -16.7577   20.1221 C   0  0  0  0  0  0  0  0  0  0  0  0
   13.2613  -15.9812   19.0598 N   0  0  0  0  0  0  0  0  0  0  0  0
   14.0142  -14.9564   19.4534 C   0  0  0  0  0  0  0  0  0  0  0  0
   14.2171  -15.0998   20.7615 N   0  0  0  0  0  0  0  0  0  0  0  0
   12.1173  -17.6184   24.3555 C   0  0  0  0  0  0  0  0  0  0  0  0
   11.4735  -16.9363   25.2288 O   0  0  0  0  0  0  0  0  0  0  0  0
   12.7312  -18.7382   24.8175 O   0  0  0  0  0  0  0  0  0  0  0  0
  2  1  1  6
  3  2  1  0
  4  2  1  0
  5  6  1  6
  5  4  1  0
  7  8  2  0
  7  5  1  0
  9  7  1  0
 10  9  1  0
 11 10  1  0
 12 11  1  0
 12 13  1  0
 13 14  1  6
 13  9  1  0
 14 15  2  0
 16 17  1  0
 16 14  1  0
 18 19  1  0
 17 18  1  1
 19 23  1  0
 20 19  2  0
 20 21  1  0
 21 22  1  0
 23 22  2  0
 24 17  1  0
 25 24  2  0
 26 24  1  0
M  END
$$$$
