EKV.pdb
     RDKit          3D

 26 25  0  0  1  0  0  0  0  0999 V2000
   16.2319  -12.0720  -15.8604 N   0  0  0  0  0  0  0  0  0  0  0  0
   16.2090  -10.6419  -15.8900 C   0  0  1  0  0  0  0  0  0  0  0  0
   15.2817   -9.9799  -14.9388 C   0  0  0  0  0  0  0  0  0  0  0  0
   13.8315  -10.2637  -15.0779 C   0  0  0  0  0  0  0  0  0  0  0  0
   13.0819   -9.4544  -16.0460 C   0  0  0  0  0  0  0  0  0  0  0  0
   12.1716   -8.6755  -15.7164 O   0  0  0  0  0  0  0  0  0  0  0  0
   17.5822  -10.0683  -15.8578 C   0  0  0  0  0  0  0  0  0  0  0  0
   18.3596  -10.3523  -14.9004 O   0  0  0  0  0  0  0  0  0  0  0  0
   13.3519   -9.5116  -17.4273 O   0  0  0  0  0  0  0  0  0  0  0  0
   18.0890   -9.2049  -16.8541 N   0  0  0  0  0  0  0  0  0  0  0  0
   19.4466   -8.6437  -16.8257 C   0  0  1  0  0  0  0  0  0  0  0  0
   19.8481   -8.1803  -18.1851 C   0  0  0  0  0  0  0  0  0  0  0  0
   20.4312   -9.3027  -18.9875 C   0  0  0  0  0  0  0  0  0  0  0  0
   19.6747   -9.4943  -20.3004 C   0  0  0  0  0  0  0  0  0  0  0  0
   20.2041  -10.6596  -21.0828 C   0  0  0  0  0  0  0  0  0  0  0  0
   19.3807  -10.8213  -22.2680 N   0  0  0  0  0  0  0  0  0  0  0  0
   19.5967   -7.6708  -15.7451 C   0  0  0  0  0  0  0  0  0  0  0  0
   18.7418   -6.8105  -15.4991 O   0  0  0  0  0  0  0  0  0  0  0  0
   20.2223   -8.3475  -12.0372 C   0  0  0  0  0  0  0  0  0  0  0  0
   21.2746   -7.3950  -12.5421 C   0  0  1  0  0  0  0  0  0  0  0  0
   22.5465   -8.1849  -12.7579 C   0  0  0  0  0  0  0  0  0  0  0  0
   20.8945   -6.7702  -13.8517 C   0  0  2  0  0  0  0  0  0  0  0  0
   20.7566   -7.6950  -14.9339 N   0  0  0  0  0  0  0  0  0  0  0  0
   21.9491   -5.7902  -14.2125 C   0  0  0  0  0  0  0  0  0  0  0  0
   22.1760   -4.7374  -13.5585 O   0  0  0  0  0  0  0  0  0  0  0  0
   22.7774   -5.9843  -15.3323 O   0  0  0  0  0  0  0  0  0  0  0  0
  2  1  1  1
  2  7  1  0
  3  4  1  0
  3  2  1  0
  4  5  1  0
  5  6  2  0
  5  9  1  0
  7  8  2  0
 10  7  1  0
 10 11  1  0
 11 17  1  0
 12 13  1  0
 11 12  1  6
 13 14  1  0
 14 15  1  0
 15 16  1  0
 17 18  2  0
 20 19  1  6
 20 22  1  0
 21 20  1  0
 22 24  1  0
 23 17  1  0
 22 23  1  6
 24 25  2  0
 24 26  1  0
M  END
$$$$
