EKV.pdb
     RDKit          3D

 26 25  0  0  1  0  0  0  0  0999 V2000
   17.4913  -10.0240  -14.0227 N   0  0  0  0  0  0  0  0  0  0  0  0
   17.7902   -9.4520  -12.7460 C   0  0  1  0  0  0  0  0  0  0  0  0
   18.8721   -8.4364  -12.7181 C   0  0  0  0  0  0  0  0  0  0  0  0
   20.2079   -8.8365  -13.2264 C   0  0  0  0  0  0  0  0  0  0  0  0
   21.2804   -7.8379  -13.1461 C   0  0  0  0  0  0  0  0  0  0  0  0
   22.4514   -8.0728  -13.4891 O   0  0  0  0  0  0  0  0  0  0  0  0
   16.5577   -9.0083  -12.0391 C   0  0  0  0  0  0  0  0  0  0  0  0
   15.6183   -8.4680  -12.6929 O   0  0  0  0  0  0  0  0  0  0  0  0
   21.0451   -6.5337  -12.6685 O   0  0  0  0  0  0  0  0  0  0  0  0
   16.3618   -9.1559  -10.6482 N   0  0  0  0  0  0  0  0  0  0  0  0
   15.1776   -8.6527   -9.9389 C   0  0  1  0  0  0  0  0  0  0  0  0
   14.4676   -9.7694   -9.2512 C   0  0  0  0  0  0  0  0  0  0  0  0
   13.7234  -10.6215  -10.2329 C   0  0  0  0  0  0  0  0  0  0  0  0
   12.9774  -11.7528   -9.5283 C   0  0  0  0  0  0  0  0  0  0  0  0
   12.1227  -12.5344  -10.4818 C   0  0  0  0  0  0  0  0  0  0  0  0
   11.4906  -13.6134   -9.7436 N   0  0  0  0  0  0  0  0  0  0  0  0
   15.5068   -7.4942   -9.1104 C   0  0  0  0  0  0  0  0  0  0  0  0
   16.4356   -7.5019   -8.2926 O   0  0  0  0  0  0  0  0  0  0  0  0
   16.2534   -3.8137  -10.0831 C   0  0  0  0  0  0  0  0  0  0  0  0
   15.1062   -3.8688   -9.1083 C   0  0  1  0  0  0  0  0  0  0  0  0
   13.8248   -3.6977   -9.8937 C   0  0  0  0  0  0  0  0  0  0  0  0
   15.0327   -5.1840   -8.3907 C   0  0  2  0  0  0  0  0  0  0  0  0
   14.7483   -6.3051   -9.2318 N   0  0  0  0  0  0  0  0  0  0  0  0
   13.9591   -5.0873   -7.3705 C   0  0  0  0  0  0  0  0  0  0  0  0
   12.8670   -5.7114   -7.4461 O   0  0  0  0  0  0  0  0  0  0  0  0
   14.1012   -4.2742   -6.2320 O   0  0  0  0  0  0  0  0  0  0  0  0
  2  1  1  6
  2  7  1  0
  3  4  1  0
  3  2  1  0
  4  5  1  0
  5  6  2  0
  5  9  1  0
  7  8  2  0
 10  7  1  0
 10 11  1  0
 11 17  1  0
 12 13  1  0
 11 12  1  1
 13 14  1  0
 14 15  1  0
 15 16  1  0
 17 18  2  0
 20 19  1  6
 20 22  1  0
 21 20  1  0
 22 24  1  0
 23 17  1  0
 22 23  1  6
 24 25  2  0
 24 26  1  0
M  END
$$$$
