EKV.pdb
     RDKit          3D

 26 25  0  0  1  0  0  0  0  0999 V2000
   25.5748  -15.9307  -18.0927 N   0  0  0  0  0  0  0  0  0  0  0  0
   24.1467  -15.9115  -18.1752 C   0  0  1  0  0  0  0  0  0  0  0  0
   23.5696  -15.5388  -19.4908 C   0  0  0  0  0  0  0  0  0  0  0  0
   24.4549  -15.6153  -20.6797 C   0  0  0  0  0  0  0  0  0  0  0  0
   23.8958  -16.2263  -21.8913 C   0  0  0  0  0  0  0  0  0  0  0  0
   23.2873  -15.5766  -22.7582 O   0  0  0  0  0  0  0  0  0  0  0  0
   23.5455  -17.1484  -17.6059 C   0  0  0  0  0  0  0  0  0  0  0  0
   22.2909  -17.3112  -17.6412 O   0  0  0  0  0  0  0  0  0  0  0  0
   24.0163  -17.6058  -22.1496 O   0  0  0  0  0  0  0  0  0  0  0  0
   24.3046  -18.1818  -17.0134 N   0  0  0  0  0  0  0  0  0  0  0  0
   23.7184  -19.4322  -16.5118 C   0  0  1  0  0  0  0  0  0  0  0  0
   24.7203  -20.5356  -16.5633 C   0  0  0  0  0  0  0  0  0  0  0  0
   24.1171  -21.8333  -16.1206 C   0  0  0  0  0  0  0  0  0  0  0  0
   25.1111  -22.9835  -16.2689 C   0  0  0  0  0  0  0  0  0  0  0  0
   24.5438  -24.2777  -15.7650 C   0  0  0  0  0  0  0  0  0  0  0  0
   25.5379  -25.3170  -15.9663 N   0  0  0  0  0  0  0  0  0  0  0  0
   23.0525  -19.2287  -15.2265 C   0  0  0  0  0  0  0  0  0  0  0  0
   23.6698  -18.9333  -14.1954 O   0  0  0  0  0  0  0  0  0  0  0  0
   18.9387  -18.1685  -14.9253 C   0  0  0  0  0  0  0  0  0  0  0  0
   20.0162  -18.0034  -13.8856 C   0  0  1  0  0  0  0  0  0  0  0  0
   19.3467  -17.9625  -12.5298 C   0  0  0  0  0  0  0  0  0  0  0  0
   20.9854  -19.1484  -13.8847 C   0  0  2  0  0  0  0  0  0  0  0  0
   21.6469  -19.3684  -15.1335 N   0  0  0  0  0  0  0  0  0  0  0  0
   20.2351  -20.3805  -13.5356 C   0  0  0  0  0  0  0  0  0  0  0  0
   19.6992  -20.5758  -12.4120 O   0  0  0  0  0  0  0  0  0  0  0  0
   20.0742  -21.4272  -14.4609 O   0  0  0  0  0  0  0  0  0  0  0  0
  2  1  1  6
  2  7  1  0
  3  4  1  0
  3  2  1  0
  4  5  1  0
  5  6  2  0
  5  9  1  0
  7  8  2  0
 10  7  1  0
 10 11  1  0
 11 17  1  0
 12 13  1  0
 11 12  1  1
 13 14  1  0
 14 15  1  0
 15 16  1  0
 17 18  2  0
 20 19  1  6
 20 22  1  0
 21 20  1  0
 22 24  1  0
 23 17  1  0
 22 23  1  6
 24 25  2  0
 24 26  1  0
M  END
$$$$
