EKV.pdb
     RDKit          3D

 26 25  0  0  1  0  0  0  0  0999 V2000
   21.9689  -20.7514  -17.3788 N   0  0  0  0  0  0  0  0  0  0  0  0
   22.7921  -19.8009  -16.6966 C   0  0  1  0  0  0  0  0  0  0  0  0
   22.0915  -18.6431  -16.0868 C   0  0  0  0  0  0  0  0  0  0  0  0
   21.4356  -17.6741  -16.9998 C   0  0  0  0  0  0  0  0  0  0  0  0
   22.3121  -16.8297  -17.8200 C   0  0  0  0  0  0  0  0  0  0  0  0
   23.2033  -16.1101  -17.3384 O   0  0  0  0  0  0  0  0  0  0  0  0
   23.7408  -20.4648  -15.7614 C   0  0  0  0  0  0  0  0  0  0  0  0
   23.3013  -21.2561  -14.8769 O   0  0  0  0  0  0  0  0  0  0  0  0
   22.1954  -16.7824  -19.2230 O   0  0  0  0  0  0  0  0  0  0  0  0
   25.1386  -20.2650  -15.7982 N   0  0  0  0  0  0  0  0  0  0  0  0
   26.0642  -20.8301  -14.8068 C   0  0  1  0  0  0  0  0  0  0  0  0
   27.4511  -20.8734  -15.3531 C   0  0  0  0  0  0  0  0  0  0  0  0
   27.5139  -21.6988  -16.6015 C   0  0  0  0  0  0  0  0  0  0  0  0
   28.9533  -21.8577  -17.0868 C   0  0  0  0  0  0  0  0  0  0  0  0
   29.0310  -22.6821  -18.3378 C   0  0  0  0  0  0  0  0  0  0  0  0
   30.3919  -22.6157  -18.8404 N   0  0  0  0  0  0  0  0  0  0  0  0
   25.9066  -20.1848  -13.5046 C   0  0  0  0  0  0  0  0  0  0  0  0
   25.8948  -18.9550  -13.3672 O   0  0  0  0  0  0  0  0  0  0  0  0
   24.3980  -22.2343  -10.0021 C   0  0  0  0  0  0  0  0  0  0  0  0
   24.4468  -20.7519  -10.2657 C   0  0  1  0  0  0  0  0  0  0  0  0
   24.5164  -20.0475   -8.9289 C   0  0  0  0  0  0  0  0  0  0  0  0
   25.6574  -20.3548  -11.0574 C   0  0  2  0  0  0  0  0  0  0  0  0
   25.7589  -20.9773  -12.3410 N   0  0  0  0  0  0  0  0  0  0  0  0
   26.8592  -20.7238  -10.2685 C   0  0  0  0  0  0  0  0  0  0  0  0
   27.6765  -21.6165  -10.6190 O   0  0  0  0  0  0  0  0  0  0  0  0
   27.1638  -20.0828   -9.0545 O   0  0  0  0  0  0  0  0  0  0  0  0
  2  1  1  1
  2  7  1  0
  3  4  1  0
  3  2  1  0
  4  5  1  0
  5  6  2  0
  5  9  1  0
  7  8  2  0
 10  7  1  0
 10 11  1  0
 11 17  1  0
 12 13  1  0
 11 12  1  6
 13 14  1  0
 14 15  1  0
 15 16  1  0
 17 18  2  0
 20 19  1  1
 20 22  1  0
 21 20  1  0
 22 24  1  0
 23 17  1  0
 22 23  1  6
 24 25  2  0
 24 26  1  0
M  END
$$$$
