EKV.pdb
     RDKit          3D

 26 25  0  0  1  0  0  0  0  0999 V2000
   22.2033  -16.4673  -18.7201 N   0  0  0  0  0  0  0  0  0  0  0  0
   22.3436  -15.7864  -17.4698 C   0  0  1  0  0  0  0  0  0  0  0  0
   23.4111  -16.2843  -16.5667 C   0  0  0  0  0  0  0  0  0  0  0  0
   23.6641  -17.7465  -16.5373 C   0  0  0  0  0  0  0  0  0  0  0  0
   24.7062  -18.2262  -15.6219 C   0  0  0  0  0  0  0  0  0  0  0  0
   25.3646  -17.4691  -14.8891 O   0  0  0  0  0  0  0  0  0  0  0  0
   22.3746  -14.3089  -17.6476 C   0  0  0  0  0  0  0  0  0  0  0  0
   23.2921  -13.7783  -18.3392 O   0  0  0  0  0  0  0  0  0  0  0  0
   25.0285  -19.5934  -15.5164 O   0  0  0  0  0  0  0  0  0  0  0  0
   21.4198  -13.4361  -17.0805 N   0  0  0  0  0  0  0  0  0  0  0  0
   21.4701  -11.9750  -17.2268 C   0  0  1  0  0  0  0  0  0  0  0  0
   20.1611  -11.4543  -17.7159 C   0  0  0  0  0  0  0  0  0  0  0  0
   19.8834  -11.9186  -19.1127 C   0  0  0  0  0  0  0  0  0  0  0  0
   18.5553  -11.3651  -19.6251 C   0  0  0  0  0  0  0  0  0  0  0  0
   18.2278  -11.8831  -20.9944 C   0  0  0  0  0  0  0  0  0  0  0  0
   16.9467  -11.3283  -21.3942 N   0  0  0  0  0  0  0  0  0  0  0  0
   22.0057  -11.3388  -16.0246 C   0  0  0  0  0  0  0  0  0  0  0  0
   21.4885  -11.4798  -14.9091 O   0  0  0  0  0  0  0  0  0  0  0  0
   25.7162  -11.2715  -14.7632 C   0  0  0  0  0  0  0  0  0  0  0  0
   25.1587   -9.8734  -14.8254 C   0  0  1  0  0  0  0  0  0  0  0  0
   25.7324   -9.2022  -16.0537 C   0  0  0  0  0  0  0  0  0  0  0  0
   23.6641   -9.8625  -14.9522 C   0  0  2  0  0  0  0  0  0  0  0  0
   23.1612  -10.5261  -16.1150 N   0  0  0  0  0  0  0  0  0  0  0  0
   23.2208   -8.4468  -14.9998 C   0  0  0  0  0  0  0  0  0  0  0  0
   23.3238   -7.6508  -14.0285 O   0  0  0  0  0  0  0  0  0  0  0  0
   22.6465   -7.8976  -16.1600 O   0  0  0  0  0  0  0  0  0  0  0  0
  2  1  1  6
  2  7  1  0
  3  4  1  0
  3  2  1  0
  4  5  1  0
  5  6  2  0
  5  9  1  0
  7  8  2  0
 10  7  1  0
 10 11  1  0
 11 17  1  0
 12 13  1  0
 11 12  1  1
 13 14  1  0
 14 15  1  0
 15 16  1  0
 17 18  2  0
 20 19  1  6
 20 22  1  0
 21 20  1  0
 22 24  1  0
 23 17  1  0
 22 23  1  6
 24 25  2  0
 24 26  1  0
M  END
$$$$
