EKV.pdb
     RDKit          3D

 26 25  0  0  1  0  0  0  0  0999 V2000
   23.1011  -34.9662  -15.0454 N   0  0  0  0  0  0  0  0  0  0  0  0
   22.1187  -34.0307  -15.4997 C   0  0  1  0  0  0  0  0  0  0  0  0
   20.7018  -34.4567  -15.3818 C   0  0  0  0  0  0  0  0  0  0  0  0
   20.1878  -35.4284  -16.3791 C   0  0  0  0  0  0  0  0  0  0  0  0
   19.6007  -34.8787  -17.6068 C   0  0  0  0  0  0  0  0  0  0  0  0
   18.7131  -34.0092  -17.6025 O   0  0  0  0  0  0  0  0  0  0  0  0
   22.3632  -32.6672  -14.9552 C   0  0  0  0  0  0  0  0  0  0  0  0
   22.8493  -32.5318  -13.7945 O   0  0  0  0  0  0  0  0  0  0  0  0
   20.0131  -35.3090  -18.8832 O   0  0  0  0  0  0  0  0  0  0  0  0
   22.0816  -31.4815  -15.6692 N   0  0  0  0  0  0  0  0  0  0  0  0
   22.2789  -30.1354  -15.1144 C   0  0  1  0  0  0  0  0  0  0  0  0
   22.7137  -29.1895  -16.1822 C   0  0  0  0  0  0  0  0  0  0  0  0
   24.1312  -29.4506  -16.5899 C   0  0  0  0  0  0  0  0  0  0  0  0
   24.5742  -28.4917  -17.6932 C   0  0  0  0  0  0  0  0  0  0  0  0
   25.9392  -28.8340  -18.2130 C   0  0  0  0  0  0  0  0  0  0  0  0
   26.3049  -27.8449  -19.2115 N   0  0  0  0  0  0  0  0  0  0  0  0
   21.1292  -29.7166  -14.3146 C   0  0  0  0  0  0  0  0  0  0  0  0
   19.9621  -29.8506  -14.7039 O   0  0  0  0  0  0  0  0  0  0  0  0
   21.9199  -28.4420  -10.4363 C   0  0  0  0  0  0  0  0  0  0  0  0
   20.4864  -28.7800  -10.7528 C   0  0  1  0  0  0  0  0  0  0  0  0
   19.6118  -27.7225  -10.1165 C   0  0  0  0  0  0  0  0  0  0  0  0
   20.2136  -28.7748  -12.2278 C   0  0  2  0  0  0  0  0  0  0  0  0
   21.3340  -29.1336  -13.0410 N   0  0  0  0  0  0  0  0  0  0  0  0
   19.7864  -27.4052  -12.6077 C   0  0  0  0  0  0  0  0  0  0  0  0
   20.5649  -26.5414  -13.0932 O   0  0  0  0  0  0  0  0  0  0  0  0
   18.4556  -26.9810  -12.4445 O   0  0  0  0  0  0  0  0  0  0  0  0
  2  1  1  1
  2  7  1  0
  3  4  1  0
  3  2  1  0
  4  5  1  0
  5  6  2  0
  5  9  1  0
  7  8  2  0
 10  7  1  0
 10 11  1  0
 11 17  1  0
 12 13  1  0
 11 12  1  6
 13 14  1  0
 14 15  1  0
 15 16  1  0
 17 18  2  0
 20 19  1  6
 20 22  1  0
 21 20  1  0
 22 24  1  0
 23 17  1  0
 22 23  1  6
 24 25  2  0
 24 26  1  0
M  END
$$$$
