EKV.pdb
     RDKit          3D

 26 25  0  0  1  0  0  0  0  0999 V2000
   20.6680  -12.1515  -15.4608 N   0  0  0  0  0  0  0  0  0  0  0  0
   20.7555  -11.3975  -16.6734 C   0  0  1  0  0  0  0  0  0  0  0  0
   20.1615  -12.0239  -17.8808 C   0  0  0  0  0  0  0  0  0  0  0  0
   20.6625  -11.5808  -19.2058 C   0  0  0  0  0  0  0  0  0  0  0  0
   20.1032  -12.2461  -20.3884 C   0  0  0  0  0  0  0  0  0  0  0  0
   19.8903  -13.4691  -20.4400 O   0  0  0  0  0  0  0  0  0  0  0  0
   20.3225   -9.9870  -16.4773 C   0  0  0  0  0  0  0  0  0  0  0  0
   20.5079   -9.1389  -17.3982 O   0  0  0  0  0  0  0  0  0  0  0  0
   19.7688  -11.5291  -21.5540 O   0  0  0  0  0  0  0  0  0  0  0  0
   19.6997   -9.5203  -15.2987 N   0  0  0  0  0  0  0  0  0  0  0  0
   19.3193   -8.1173  -15.0843 C   0  0  1  0  0  0  0  0  0  0  0  0
   17.9365   -8.0301  -14.5327 C   0  0  0  0  0  0  0  0  0  0  0  0
   16.9227   -8.4634  -15.5466 C   0  0  0  0  0  0  0  0  0  0  0  0
   15.5114   -8.4360  -14.9632 C   0  0  0  0  0  0  0  0  0  0  0  0
   14.5075   -9.0296  -15.9069 C   0  0  0  0  0  0  0  0  0  0  0  0
   13.2091   -9.0122  -15.2568 N   0  0  0  0  0  0  0  0  0  0  0  0
   20.3524   -7.3937  -14.3455 C   0  0  0  0  0  0  0  0  0  0  0  0
   20.8524   -7.8283  -13.3001 O   0  0  0  0  0  0  0  0  0  0  0  0
   23.7010   -6.6284  -15.5371 C   0  0  0  0  0  0  0  0  0  0  0  0
   23.1243   -5.3157  -15.0752 C   0  0  1  0  0  0  0  0  0  0  0  0
   22.6833   -4.5484  -16.3020 C   0  0  0  0  0  0  0  0  0  0  0  0
   21.9249   -5.5005  -14.1936 C   0  0  2  0  0  0  0  0  0  0  0  0
   20.8159   -6.1454  -14.8259 N   0  0  0  0  0  0  0  0  0  0  0  0
   21.4818   -4.1588  -13.7394 C   0  0  0  0  0  0  0  0  0  0  0  0
   20.4156   -3.6089  -14.1251 O   0  0  0  0  0  0  0  0  0  0  0  0
   22.2440   -3.4046  -12.8296 O   0  0  0  0  0  0  0  0  0  0  0  0
  2  1  1  1
  2  7  1  0
  3  4  1  0
  3  2  1  0
  4  5  1  0
  5  6  2  0
  5  9  1  0
  7  8  2  0
 10  7  1  0
 10 11  1  0
 11 17  1  0
 12 13  1  0
 11 12  1  1
 13 14  1  0
 14 15  1  0
 15 16  1  0
 17 18  2  0
 20 19  1  6
 20 22  1  0
 21 20  1  0
 22 24  1  0
 23 17  1  0
 22 23  1  6
 24 25  2  0
 24 26  1  0
M  END
$$$$
