IMG.pdb
     RDKit          3D

 21 20  0  0  1  0  0  0  0  0999 V2000
   20.9622  -13.6250  -22.5082 C   0  0  0  0  0  0  0  0  0  0  0  0
   21.7162  -13.5685  -21.2201 C   0  0  0  0  0  0  0  0  0  0  0  0
   21.1353  -12.5534  -20.2463 C   0  0  2  0  0  0  0  0  0  0  0  0
   21.1151  -11.1791  -20.8250 C   0  0  0  0  0  0  0  0  0  0  0  0
   22.0048  -12.6086  -19.0147 C   0  0  2  0  0  0  0  0  0  0  0  0
   22.0157  -14.0053  -18.5061 N   0  0  0  0  0  0  0  0  0  0  0  0
   21.4479  -11.7842  -17.9245 C   0  0  0  0  0  0  0  0  0  0  0  0
   20.3652  -12.1416  -17.3446 O   0  0  0  0  0  0  0  0  0  0  0  0
   22.3051   -9.4480  -10.9539 C   0  0  0  0  0  0  0  0  0  0  0  0
   22.9109  -10.0439  -12.5411 S   0  0  0  0  0  0  0  0  0  0  0  0
   21.7648   -9.5065  -13.8616 C   0  0  0  0  0  0  0  0  0  0  0  0
   22.2275  -10.1814  -15.1157 C   0  0  0  0  0  0  0  0  0  0  0  0
   21.4041   -9.8458  -16.3226 C   0  0  2  0  0  0  0  0  0  0  0  0
   22.0224  -10.5994  -17.4437 N   0  0  0  0  0  0  0  0  0  0  0  0
   21.2822   -8.4669  -16.7038 C   0  0  0  0  0  0  0  0  0  0  0  0
   22.2115   -7.9376  -17.4106 O   0  0  0  0  0  0  0  0  0  0  0  0
   20.2058   -7.5835  -16.3793 N   0  0  0  0  0  0  0  0  0  0  0  0
   20.2178   -6.1907  -16.7611 C   0  0  0  0  0  0  0  0  0  0  0  0
   18.9574   -5.5538  -16.3644 C   0  0  0  0  0  0  0  0  0  0  0  0
   18.0100   -6.2575  -15.9380 O   0  0  0  0  0  0  0  0  0  0  0  0
   18.7985   -4.1570  -16.4573 O   0  0  0  0  0  0  0  0  0  0  0  0
  2  1  1  0
  3  2  1  0
  3  5  1  0
  3  4  1  6
  5  7  1  0
  5  6  1  1
  7  8  2  0
  9 10  1  0
 10 11  1  0
 11 12  1  0
 13 12  1  1
 14 13  1  0
 14  7  1  0
 15 17  1  0
 15 13  1  0
 16 15  2  0
 18 17  1  0
 19 18  1  0
 19 21  1  0
 20 19  2  0
M  END
$$$$
