IMG.pdb
     RDKit          3D

 21 20  0  0  1  0  0  0  0  0999 V2000
   17.5778  -32.2552  -11.3091 C   0  0  0  0  0  0  0  0  0  0  0  0
   18.5915  -31.6966  -10.3649 C   0  0  0  0  0  0  0  0  0  0  0  0
   19.9053  -32.4639  -10.3962 C   0  0  2  0  0  0  0  0  0  0  0  0
   19.7227  -33.8916  -10.0058 C   0  0  0  0  0  0  0  0  0  0  0  0
   20.8281  -31.7548   -9.4362 C   0  0  2  0  0  0  0  0  0  0  0  0
   21.2183  -30.4502  -10.0322 N   0  0  0  0  0  0  0  0  0  0  0  0
   22.0846  -32.5047   -9.2431 C   0  0  0  0  0  0  0  0  0  0  0  0
   22.0614  -33.6526   -8.6792 O   0  0  0  0  0  0  0  0  0  0  0  0
   26.8848  -33.8923  -13.4979 C   0  0  0  0  0  0  0  0  0  0  0  0
   25.5434  -34.7464  -12.6536 S   0  0  0  0  0  0  0  0  0  0  0  0
   24.4671  -33.5139  -11.8360 C   0  0  0  0  0  0  0  0  0  0  0  0
   25.2792  -32.9220  -10.7259 C   0  0  0  0  0  0  0  0  0  0  0  0
   24.5655  -32.8831   -9.4082 C   0  0  2  0  0  0  0  0  0  0  0  0
   23.3523  -32.0580   -9.6411 N   0  0  0  0  0  0  0  0  0  0  0  0
   25.2661  -32.3638   -8.2675 C   0  0  0  0  0  0  0  0  0  0  0  0
   25.7128  -31.1630   -8.3118 O   0  0  0  0  0  0  0  0  0  0  0  0
   25.5308  -33.0518   -7.0424 N   0  0  0  0  0  0  0  0  0  0  0  0
   26.2926  -32.4471   -5.9748 C   0  0  0  0  0  0  0  0  0  0  0  0
   26.1982  -33.2718   -4.7655 C   0  0  0  0  0  0  0  0  0  0  0  0
   26.8602  -32.9616   -3.7456 O   0  0  0  0  0  0  0  0  0  0  0  0
   25.3702  -34.4112   -4.7364 O   0  0  0  0  0  0  0  0  0  0  0  0
  2  1  1  0
  3  2  1  0
  3  5  1  0
  3  4  1  1
  5  7  1  0
  5  6  1  6
  7  8  2  0
  9 10  1  0
 10 11  1  0
 11 12  1  0
 13 12  1  6
 14 13  1  0
 14  7  1  0
 15 17  1  0
 15 13  1  0
 16 15  2  0
 18 17  1  0
 19 18  1  0
 19 21  1  0
 20 19  2  0
M  END
$$$$
