IMG.pdb
     RDKit          3D

 21 20  0  0  1  0  0  0  0  0999 V2000
   26.4441  -20.0889  -17.4477 C   0  0  0  0  0  0  0  0  0  0  0  0
   26.9497  -20.9723  -16.3547 C   0  0  0  0  0  0  0  0  0  0  0  0
   26.1178  -20.8663  -15.0848 C   0  0  2  0  0  0  0  0  0  0  0  0
   26.0853  -19.4713  -14.5585 C   0  0  0  0  0  0  0  0  0  0  0  0
   26.7516  -21.8053  -14.0886 C   0  0  2  0  0  0  0  0  0  0  0  0
   26.6607  -23.1903  -14.6205 N   0  0  0  0  0  0  0  0  0  0  0  0
   26.0141  -21.8125  -12.8101 C   0  0  0  0  0  0  0  0  0  0  0  0
   24.9368  -22.4934  -12.6997 O   0  0  0  0  0  0  0  0  0  0  0  0
   28.5595  -19.7798   -7.6474 C   0  0  0  0  0  0  0  0  0  0  0  0
   26.9577  -19.8753   -6.8310 S   0  0  0  0  0  0  0  0  0  0  0  0
   25.6838  -20.3368   -8.0598 C   0  0  0  0  0  0  0  0  0  0  0  0
   26.4138  -20.5903   -9.3424 C   0  0  0  0  0  0  0  0  0  0  0  0
   25.5325  -21.0728  -10.4550 C   0  0  2  0  0  0  0  0  0  0  0  0
   26.4039  -21.1166  -11.6574 N   0  0  0  0  0  0  0  0  0  0  0  0
   24.3518  -20.3177  -10.7669 C   0  0  0  0  0  0  0  0  0  0  0  0
   24.4699  -19.2459  -11.4601 O   0  0  0  0  0  0  0  0  0  0  0  0
   23.0107  -20.6336  -10.3845 N   0  0  0  0  0  0  0  0  0  0  0  0
   21.9035  -19.7555  -10.6822 C   0  0  0  0  0  0  0  0  0  0  0  0
   21.2630  -20.1675  -11.9358 C   0  0  0  0  0  0  0  0  0  0  0  0
   21.5275  -21.2892  -12.4322 O   0  0  0  0  0  0  0  0  0  0  0  0
   20.3517  -19.3154  -12.5903 O   0  0  0  0  0  0  0  0  0  0  0  0
  2  1  1  0
  3  2  1  0
  3  5  1  0
  3  4  1  1
  5  7  1  0
  5  6  1  6
  7  8  2  0
  9 10  1  0
 10 11  1  0
 11 12  1  0
 13 12  1  1
 14 13  1  0
 14  7  1  0
 15 17  1  0
 15 13  1  0
 16 15  2  0
 18 17  1  0
 19 18  1  0
 19 21  1  0
 20 19  2  0
M  END
$$$$
