IMG.pdb
     RDKit          3D

 21 20  0  0  1  0  0  0  0  0999 V2000
   20.5273  -22.1015  -16.4545 C   0  0  0  0  0  0  0  0  0  0  0  0
   20.6359  -21.8831  -14.9809 C   0  0  0  0  0  0  0  0  0  0  0  0
   21.9633  -21.2570  -14.5786 C   0  0  2  0  0  0  0  0  0  0  0  0
   23.1204  -22.1143  -14.9664 C   0  0  0  0  0  0  0  0  0  0  0  0
   21.9040  -21.0735  -13.0823 C   0  0  2  0  0  0  0  0  0  0  0  0
   20.8632  -20.0588  -12.7715 N   0  0  0  0  0  0  0  0  0  0  0  0
   23.1709  -20.5297  -12.5554 C   0  0  0  0  0  0  0  0  0  0  0  0
   23.5121  -19.3280  -12.8311 O   0  0  0  0  0  0  0  0  0  0  0  0
   27.7799  -18.9298   -6.9940 C   0  0  0  0  0  0  0  0  0  0  0  0
   26.3921  -19.8521   -7.6755 S   0  0  0  0  0  0  0  0  0  0  0  0
   26.8445  -20.4810   -9.3326 C   0  0  0  0  0  0  0  0  0  0  0  0
   25.5852  -21.0296   -9.9287 C   0  0  0  0  0  0  0  0  0  0  0  0
   25.3836  -20.6561  -11.3665 C   0  0  2  0  0  0  0  0  0  0  0  0
   24.0693  -21.2365  -11.7441 N   0  0  0  0  0  0  0  0  0  0  0  0
   26.3669  -21.0754  -12.3250 C   0  0  0  0  0  0  0  0  0  0  0  0
   26.1444  -22.1324  -13.0152 O   0  0  0  0  0  0  0  0  0  0  0  0
   27.6085  -20.4276  -12.6134 N   0  0  0  0  0  0  0  0  0  0  0  0
   27.8420  -19.7435  -13.8637 C   0  0  0  0  0  0  0  0  0  0  0  0
   27.6293  -20.6658  -14.9842 C   0  0  0  0  0  0  0  0  0  0  0  0
   26.5604  -20.6153  -15.6395 O   0  0  0  0  0  0  0  0  0  0  0  0
   28.6146  -21.6102  -15.3337 O   0  0  0  0  0  0  0  0  0  0  0  0
  2  1  1  0
  3  2  1  0
  3  5  1  0
  3  4  1  1
  5  7  1  0
  5  6  1  6
  7  8  2  0
  9 10  1  0
 10 11  1  0
 11 12  1  0
 13 12  1  1
 14 13  1  0
 14  7  1  0
 15 17  1  0
 15 13  1  0
 16 15  2  0
 18 17  1  0
 19 18  1  0
 19 21  1  0
 20 19  2  0
M  END
$$$$
