IMG.pdb
     RDKit          3D

 21 20  0  0  1  0  0  0  0  0999 V2000
   16.9501  -28.6217   -7.3067 C   0  0  0  0  0  0  0  0  0  0  0  0
   17.6717  -27.4557   -6.7145 C   0  0  0  0  0  0  0  0  0  0  0  0
   17.5900  -26.2122   -7.5880 C   0  0  2  0  0  0  0  0  0  0  0  0
   18.1996  -26.4370   -8.9304 C   0  0  0  0  0  0  0  0  0  0  0  0
   18.3189  -25.1246   -6.8385 C   0  0  2  0  0  0  0  0  0  0  0  0
   17.5444  -24.7941   -5.6136 N   0  0  0  0  0  0  0  0  0  0  0  0
   18.3840  -23.8780   -7.6260 C   0  0  0  0  0  0  0  0  0  0  0  0
   17.3518  -23.1282   -7.7187 O   0  0  0  0  0  0  0  0  0  0  0  0
   23.5726  -20.9337   -8.3349 C   0  0  0  0  0  0  0  0  0  0  0  0
   22.6677  -19.6109   -9.1552 S   0  0  0  0  0  0  0  0  0  0  0  0
   20.9818  -20.1958   -9.5572 C   0  0  0  0  0  0  0  0  0  0  0  0
   20.8092  -21.4975   -8.8374 C   0  0  0  0  0  0  0  0  0  0  0  0
   19.4891  -22.1601   -9.0934 C   0  0  2  0  0  0  0  0  0  0  0  0
   19.5208  -23.4195   -8.3061 N   0  0  0  0  0  0  0  0  0  0  0  0
   19.1329  -22.4710  -10.4491 C   0  0  0  0  0  0  0  0  0  0  0  0
   19.1562  -21.5340  -11.3236 O   0  0  0  0  0  0  0  0  0  0  0  0
   18.7447  -23.7496  -10.9580 N   0  0  0  0  0  0  0  0  0  0  0  0
   18.4923  -23.9691  -12.3629 C   0  0  0  0  0  0  0  0  0  0  0  0
   17.0890  -23.6724  -12.6700 C   0  0  0  0  0  0  0  0  0  0  0  0
   16.3219  -23.2747  -11.7601 O   0  0  0  0  0  0  0  0  0  0  0  0
   16.5918  -23.8294  -13.9789 O   0  0  0  0  0  0  0  0  0  0  0  0
  2  1  1  0
  3  2  1  0
  3  5  1  0
  3  4  1  6
  5  7  1  0
  5  6  1  1
  7  8  2  0
  9 10  1  0
 10 11  1  0
 11 12  1  0
 13 12  1  6
 14 13  1  0
 14  7  1  0
 15 17  1  0
 15 13  1  0
 16 15  2  0
 18 17  1  0
 19 18  1  0
 19 21  1  0
 20 19  2  0
M  END
$$$$
