IMG.pdb
     RDKit          3D

 21 20  0  0  1  0  0  0  0  0999 V2000
   26.8170  -18.4443  -16.7512 C   0  0  0  0  0  0  0  0  0  0  0  0
   27.5410  -19.2051  -15.6891 C   0  0  0  0  0  0  0  0  0  0  0  0
   26.6446  -19.5649  -14.5131 C   0  0  2  0  0  0  0  0  0  0  0  0
   26.0887  -18.3511  -13.8484 C   0  0  0  0  0  0  0  0  0  0  0  0
   27.5026  -20.3585  -13.5592 C   0  0  2  0  0  0  0  0  0  0  0  0
   28.0032  -21.5661  -14.2668 N   0  0  0  0  0  0  0  0  0  0  0  0
   26.7161  -20.8564  -12.4138 C   0  0  0  0  0  0  0  0  0  0  0  0
   25.9746  -21.8896  -12.5509 O   0  0  0  0  0  0  0  0  0  0  0  0
   28.1431  -19.3194   -6.7132 C   0  0  0  0  0  0  0  0  0  0  0  0
   26.6999  -20.2191   -6.1225 S   0  0  0  0  0  0  0  0  0  0  0  0
   25.6835  -20.7309   -7.5546 C   0  0  0  0  0  0  0  0  0  0  0  0
   26.4697  -20.3663   -8.7758 C   0  0  0  0  0  0  0  0  0  0  0  0
   25.8331  -20.8074  -10.0593 C   0  0  2  0  0  0  0  0  0  0  0  0
   26.7102  -20.2798  -11.1361 N   0  0  0  0  0  0  0  0  0  0  0  0
   24.4810  -20.4037  -10.3247 C   0  0  0  0  0  0  0  0  0  0  0  0
   24.2755  -19.4230  -11.1244 O   0  0  0  0  0  0  0  0  0  0  0  0
   23.2936  -20.9899   -9.7855 N   0  0  0  0  0  0  0  0  0  0  0  0
   22.4038  -21.7936  -10.5905 C   0  0  0  0  0  0  0  0  0  0  0  0
   21.5629  -20.9261  -11.4221 C   0  0  0  0  0  0  0  0  0  0  0  0
   22.0257  -20.4385  -12.4816 O   0  0  0  0  0  0  0  0  0  0  0  0
   20.2378  -20.6336  -11.0433 O   0  0  0  0  0  0  0  0  0  0  0  0
  2  1  1  0
  3  2  1  0
  3  5  1  0
  3  4  1  1
  5  7  1  0
  5  6  1  6
  7  8  2  0
  9 10  1  0
 10 11  1  0
 11 12  1  0
 13 12  1  1
 14 13  1  0
 14  7  1  0
 15 17  1  0
 15 13  1  0
 16 15  2  0
 18 17  1  0
 19 18  1  0
 19 21  1  0
 20 19  2  0
M  END
$$$$
