IMG.pdb
     RDKit          3D

 21 20  0  0  1  0  0  0  0  0999 V2000
   19.0765  -12.4731    3.6843 C   0  0  0  0  0  0  0  0  0  0  0  0
   18.4680  -12.9501    4.9623 C   0  0  0  0  0  0  0  0  0  0  0  0
   18.2698  -14.4587    4.9885 C   0  0  2  0  0  0  0  0  0  0  0  0
   17.3873  -14.9210    3.8787 C   0  0  0  0  0  0  0  0  0  0  0  0
   17.6617  -14.7786    6.3316 C   0  0  2  0  0  0  0  0  0  0  0  0
   18.5227  -14.1920    7.3919 N   0  0  0  0  0  0  0  0  0  0  0  0
   17.6434  -16.2329    6.5823 C   0  0  0  0  0  0  0  0  0  0  0  0
   16.5998  -16.9156    6.2973 O   0  0  0  0  0  0  0  0  0  0  0  0
   20.6190  -22.8912    4.9276 C   0  0  0  0  0  0  0  0  0  0  0  0
   20.5909  -21.0920    4.9853 S   0  0  0  0  0  0  0  0  0  0  0  0
   19.5209  -20.5520    6.3671 C   0  0  0  0  0  0  0  0  0  0  0  0
   19.4757  -19.0567    6.3001 C   0  0  0  0  0  0  0  0  0  0  0  0
   18.6009  -18.4303    7.3439 C   0  0  2  0  0  0  0  0  0  0  0  0
   18.7097  -16.9654    7.1222 N   0  0  0  0  0  0  0  0  0  0  0  0
   18.8777  -18.7110    8.7246 C   0  0  0  0  0  0  0  0  0  0  0  0
   19.7408  -17.9900    9.3398 O   0  0  0  0  0  0  0  0  0  0  0  0
   18.2799  -19.7346    9.5241 N   0  0  0  0  0  0  0  0  0  0  0  0
   18.6588  -19.9487   10.9011 C   0  0  0  0  0  0  0  0  0  0  0  0
   19.9215  -20.6926   10.9612 C   0  0  0  0  0  0  0  0  0  0  0  0
   20.1231  -21.6445   10.1689 O   0  0  0  0  0  0  0  0  0  0  0  0
   20.9132  -20.3490   11.9012 O   0  0  0  0  0  0  0  0  0  0  0  0
  2  1  1  0
  3  2  1  0
  3  5  1  0
  3  4  1  6
  5  7  1  0
  5  6  1  1
  7  8  2  0
  9 10  1  0
 10 11  1  0
 11 12  1  0
 13 12  1  6
 14 13  1  0
 14  7  1  0
 15 17  1  0
 15 13  1  0
 16 15  2  0
 18 17  1  0
 19 18  1  0
 19 21  1  0
 20 19  2  0
M  END
$$$$
