IMG.pdb
     RDKit          3D

 21 20  0  0  1  0  0  0  0  0999 V2000
   28.8936  -12.7348  -16.2088 C   0  0  0  0  0  0  0  0  0  0  0  0
   27.4628  -12.9136  -15.8191 C   0  0  0  0  0  0  0  0  0  0  0  0
   26.6282  -11.6659  -16.0692 C   0  0  2  0  0  0  0  0  0  0  0  0
   27.0337  -10.5403  -15.1789 C   0  0  0  0  0  0  0  0  0  0  0  0
   25.1945  -12.0633  -15.8192 C   0  0  2  0  0  0  0  0  0  0  0  0
   24.8783  -13.2466  -16.6615 N   0  0  0  0  0  0  0  0  0  0  0  0
   24.2595  -11.0026  -16.2425 C   0  0  0  0  0  0  0  0  0  0  0  0
   24.0580  -10.7906  -17.4878 O   0  0  0  0  0  0  0  0  0  0  0  0
   19.2186  -12.7383  -18.2444 C   0  0  0  0  0  0  0  0  0  0  0  0
   19.4079  -11.4000  -17.0550 S   0  0  0  0  0  0  0  0  0  0  0  0
   21.1528  -10.8512  -17.0409 C   0  0  0  0  0  0  0  0  0  0  0  0
   21.2618   -9.8355  -15.9461 C   0  0  0  0  0  0  0  0  0  0  0  0
   22.5945   -9.1518  -15.8855 C   0  0  2  0  0  0  0  0  0  0  0  0
   23.5396  -10.1752  -15.3695 N   0  0  0  0  0  0  0  0  0  0  0  0
   22.7170   -7.9647  -15.0870 C   0  0  0  0  0  0  0  0  0  0  0  0
   22.9295   -8.0867  -13.8287 O   0  0  0  0  0  0  0  0  0  0  0  0
   22.6304   -6.6137  -15.5471 N   0  0  0  0  0  0  0  0  0  0  0  0
   22.6808   -5.4918  -14.6391 C   0  0  0  0  0  0  0  0  0  0  0  0
   22.4627   -4.2429  -15.3767 C   0  0  0  0  0  0  0  0  0  0  0  0
   22.3290   -4.2702  -16.6240 O   0  0  0  0  0  0  0  0  0  0  0  0
   22.4015   -3.0097  -14.6981 O   0  0  0  0  0  0  0  0  0  0  0  0
  2  1  1  0
  3  2  1  0
  3  5  1  0
  3  4  1  1
  5  7  1  0
  5  6  1  6
  7  8  2  0
  9 10  1  0
 10 11  1  0
 11 12  1  0
 13 12  1  1
 14 13  1  0
 14  7  1  0
 15 17  1  0
 15 13  1  0
 16 15  2  0
 18 17  1  0
 19 18  1  0
 19 21  1  0
 20 19  2  0
M  END
$$$$
