IMG.pdb
     RDKit          3D

 21 20  0  0  1  0  0  0  0  0999 V2000
   17.5428  -13.2888  -18.5384 C   0  0  0  0  0  0  0  0  0  0  0  0
   19.0351  -13.2446  -18.4955 C   0  0  0  0  0  0  0  0  0  0  0  0
   19.5619  -12.3288  -17.4002 C   0  0  2  0  0  0  0  0  0  0  0  0
   19.1438  -10.9132  -17.6129 C   0  0  0  0  0  0  0  0  0  0  0  0
   21.0646  -12.4591  -17.4313 C   0  0  2  0  0  0  0  0  0  0  0  0
   21.4178  -13.8945  -17.2756 N   0  0  0  0  0  0  0  0  0  0  0  0
   21.6897  -11.7615  -16.2907 C   0  0  0  0  0  0  0  0  0  0  0  0
   21.5493  -12.2239  -15.1063 O   0  0  0  0  0  0  0  0  0  0  0  0
   27.7699  -12.4659  -15.2803 C   0  0  0  0  0  0  0  0  0  0  0  0
   26.8852  -10.9155  -15.5147 S   0  0  0  0  0  0  0  0  0  0  0  0
   25.1298  -11.1504  -15.0571 C   0  0  0  0  0  0  0  0  0  0  0  0
   24.4484   -9.8461  -15.3340 C   0  0  0  0  0  0  0  0  0  0  0  0
   22.9583   -9.8967  -15.1777 C   0  0  2  0  0  0  0  0  0  0  0  0
   22.4581  -10.5933  -16.3908 N   0  0  0  0  0  0  0  0  0  0  0  0
   22.2453   -8.6594  -15.0278 C   0  0  0  0  0  0  0  0  0  0  0  0
   22.4891   -7.9269  -14.0045 O   0  0  0  0  0  0  0  0  0  0  0  0
   21.2625   -8.1271  -15.9194 N   0  0  0  0  0  0  0  0  0  0  0  0
   20.5922   -6.8746  -15.6593 C   0  0  0  0  0  0  0  0  0  0  0  0
   21.2119   -5.8040  -16.4475 C   0  0  0  0  0  0  0  0  0  0  0  0
   22.1718   -6.0674  -17.2115 O   0  0  0  0  0  0  0  0  0  0  0  0
   20.7398   -4.4798  -16.3560 O   0  0  0  0  0  0  0  0  0  0  0  0
  2  1  1  0
  3  2  1  0
  3  5  1  0
  3  4  1  6
  5  7  1  0
  5  6  1  1
  7  8  2  0
  9 10  1  0
 10 11  1  0
 11 12  1  0
 13 12  1  6
 14 13  1  0
 14  7  1  0
 15 17  1  0
 15 13  1  0
 16 15  2  0
 18 17  1  0
 19 18  1  0
 19 21  1  0
 20 19  2  0
M  END
$$$$
