IMG.pdb
     RDKit          3D

 21 20  0  0  1  0  0  0  0  0999 V2000
   29.4147  -17.3022  -16.7682 C   0  0  0  0  0  0  0  0  0  0  0  0
   28.1221  -17.2357  -16.0227 C   0  0  0  0  0  0  0  0  0  0  0  0
   27.8211  -18.5170  -15.2586 C   0  0  2  0  0  0  0  0  0  0  0  0
   27.7524  -19.6994  -16.1648 C   0  0  0  0  0  0  0  0  0  0  0  0
   26.5010  -18.2908  -14.5641 C   0  0  2  0  0  0  0  0  0  0  0  0
   26.6169  -17.0781  -13.7123 N   0  0  0  0  0  0  0  0  0  0  0  0
   26.1772  -19.4011  -13.6473 C   0  0  0  0  0  0  0  0  0  0  0  0
   25.9488  -20.5690  -14.1165 O   0  0  0  0  0  0  0  0  0  0  0  0
   26.9151  -19.0524   -7.2733 C   0  0  0  0  0  0  0  0  0  0  0  0
   26.7988  -20.8304   -7.5310 S   0  0  0  0  0  0  0  0  0  0  0  0
   25.7823  -21.1570   -9.0163 C   0  0  0  0  0  0  0  0  0  0  0  0
   26.2636  -20.2064  -10.0684 C   0  0  0  0  0  0  0  0  0  0  0  0
   25.6442  -20.4302  -11.4151 C   0  0  2  0  0  0  0  0  0  0  0  0
   26.0980  -19.2898  -12.2521 N   0  0  0  0  0  0  0  0  0  0  0  0
   24.2143  -20.5270  -11.5012 C   0  0  0  0  0  0  0  0  0  0  0  0
   23.5177  -19.4532  -11.4291 O   0  0  0  0  0  0  0  0  0  0  0  0
   23.4481  -21.7226  -11.6673 N   0  0  0  0  0  0  0  0  0  0  0  0
   22.0064  -21.7253  -11.5819 C   0  0  0  0  0  0  0  0  0  0  0  0
   21.4291  -21.3608  -12.8801 C   0  0  0  0  0  0  0  0  0  0  0  0
   20.7890  -20.2881  -12.9991 O   0  0  0  0  0  0  0  0  0  0  0  0
   21.5858  -22.2041  -13.9978 O   0  0  0  0  0  0  0  0  0  0  0  0
  2  1  1  0
  3  2  1  0
  3  5  1  0
  3  4  1  6
  5  7  1  0
  5  6  1  1
  7  8  2  0
  9 10  1  0
 10 11  1  0
 11 12  1  0
 13 12  1  1
 14 13  1  0
 14  7  1  0
 15 17  1  0
 15 13  1  0
 16 15  2  0
 18 17  1  0
 19 18  1  0
 19 21  1  0
 20 19  2  0
M  END
$$$$
