IMG.pdb
     RDKit          3D

 21 20  0  0  1  0  0  0  0  0999 V2000
   16.6701  -11.1325  -19.3480 C   0  0  0  0  0  0  0  0  0  0  0  0
   18.0319  -11.7119  -19.1462 C   0  0  0  0  0  0  0  0  0  0  0  0
   18.8228  -10.9853  -18.0681 C   0  0  2  0  0  0  0  0  0  0  0  0
   19.0413   -9.5510  -18.4128 C   0  0  0  0  0  0  0  0  0  0  0  0
   20.1359  -11.7180  -17.9457 C   0  0  2  0  0  0  0  0  0  0  0  0
   19.8568  -13.1285  -17.5687 N   0  0  0  0  0  0  0  0  0  0  0  0
   20.9632  -11.1631  -16.8566 C   0  0  0  0  0  0  0  0  0  0  0  0
   20.6662  -11.4165  -15.6384 O   0  0  0  0  0  0  0  0  0  0  0  0
   27.4568   -9.9193  -16.8943 C   0  0  0  0  0  0  0  0  0  0  0  0
   26.8092  -10.6238  -15.3693 S   0  0  0  0  0  0  0  0  0  0  0  0
   25.1942   -9.8532  -14.9899 C   0  0  0  0  0  0  0  0  0  0  0  0
   24.2344  -10.3687  -16.0173 C   0  0  0  0  0  0  0  0  0  0  0  0
   22.8486   -9.8126  -15.8836 C   0  0  2  0  0  0  0  0  0  0  0  0
   22.0930  -10.3544  -17.0422 N   0  0  0  0  0  0  0  0  0  0  0  0
   22.6857   -8.3864  -15.8511 C   0  0  0  0  0  0  0  0  0  0  0  0
   22.9221   -7.7139  -16.9165 O   0  0  0  0  0  0  0  0  0  0  0  0
   22.2723   -7.5998  -14.7310 N   0  0  0  0  0  0  0  0  0  0  0  0
   22.2560   -6.1564  -14.7744 C   0  0  0  0  0  0  0  0  0  0  0  0
   20.9323   -5.6848  -15.1949 C   0  0  0  0  0  0  0  0  0  0  0  0
   20.6766   -4.4563  -15.1884 O   0  0  0  0  0  0  0  0  0  0  0  0
   19.9422   -6.5985  -15.6070 O   0  0  0  0  0  0  0  0  0  0  0  0
  2  1  1  0
  3  2  1  0
  3  5  1  0
  3  4  1  6
  5  7  1  0
  5  6  1  1
  7  8  2  0
  9 10  1  0
 10 11  1  0
 11 12  1  0
 13 12  1  6
 14 13  1  0
 14  7  1  0
 15 17  1  0
 15 13  1  0
 16 15  2  0
 18 17  1  0
 19 18  1  0
 19 21  1  0
 20 19  2  0
M  END
$$$$
