IMG.pdb
     RDKit          3D

 21 20  0  0  1  0  0  0  0  0999 V2000
   18.4217  -14.2156  -19.5135 C   0  0  0  0  0  0  0  0  0  0  0  0
   19.8681  -14.3771  -19.1777 C   0  0  0  0  0  0  0  0  0  0  0  0
   20.3776  -13.2868  -18.2463 C   0  0  2  0  0  0  0  0  0  0  0  0
   20.2492  -11.9321  -18.8565 C   0  0  0  0  0  0  0  0  0  0  0  0
   21.8221  -13.6178  -17.9638 C   0  0  2  0  0  0  0  0  0  0  0  0
   21.8913  -14.9939  -17.4063 N   0  0  0  0  0  0  0  0  0  0  0  0
   22.3853  -12.7312  -16.9269 C   0  0  0  0  0  0  0  0  0  0  0  0
   21.9887  -12.8356  -15.7152 O   0  0  0  0  0  0  0  0  0  0  0  0
   28.1666  -10.1824  -17.2959 C   0  0  0  0  0  0  0  0  0  0  0  0
   27.8577  -10.2765  -15.5247 S   0  0  0  0  0  0  0  0  0  0  0  0
   26.0709  -10.0401  -15.2131 C   0  0  0  0  0  0  0  0  0  0  0  0
   25.3586  -10.9815  -16.1343 C   0  0  0  0  0  0  0  0  0  0  0  0
   23.8643  -10.8955  -16.0505 C   0  0  2  0  0  0  0  0  0  0  0  0
   23.3577  -11.7479  -17.1566 N   0  0  0  0  0  0  0  0  0  0  0  0
   23.2488   -9.6017  -16.1444 C   0  0  0  0  0  0  0  0  0  0  0  0
   23.1629   -9.0412  -17.2941 O   0  0  0  0  0  0  0  0  0  0  0  0
   22.6972   -8.8386  -15.0684 N   0  0  0  0  0  0  0  0  0  0  0  0
   22.2213   -7.4878  -15.2539 C   0  0  0  0  0  0  0  0  0  0  0  0
   20.7808   -7.4999  -15.5303 C   0  0  0  0  0  0  0  0  0  0  0  0
   20.2026   -6.4406  -15.8739 O   0  0  0  0  0  0  0  0  0  0  0  0
   20.0374   -8.6909  -15.4137 O   0  0  0  0  0  0  0  0  0  0  0  0
  2  1  1  0
  3  2  1  0
  3  5  1  0
  3  4  1  6
  5  7  1  0
  5  6  1  1
  7  8  2  0
  9 10  1  0
 10 11  1  0
 11 12  1  0
 13 12  1  6
 14 13  1  0
 14  7  1  0
 15 17  1  0
 15 13  1  0
 16 15  2  0
 18 17  1  0
 19 18  1  0
 19 21  1  0
 20 19  2  0
M  END
$$$$
