NAT.pdb
     RDKit          3D

 21 20  0  0  1  0  0  0  0  0999 V2000
    6.6512  -19.1362   17.1953 N   0  0  0  0  0  0  0  0  0  0  0  0
    8.0042  -18.8401   16.8653 C   0  0  0  0  0  0  0  0  0  0  0  0
    8.3341  -18.9965   15.6498 O   0  0  0  0  0  0  0  0  0  0  0  0
    8.9897  -18.3731   17.8728 C   0  0  0  0  0  0  0  0  0  0  0  0
    9.3820  -16.9642   17.5459 C   0  0  2  0  0  0  0  0  0  0  0  0
   10.5991  -16.9316   16.7882 N   0  0  0  0  0  0  0  0  0  0  0  0
    9.4746  -16.1629   18.7978 C   0  0  0  0  0  0  0  0  0  0  0  0
   10.4197  -16.3642   19.6013 O   0  0  0  0  0  0  0  0  0  0  0  0
    7.3923  -13.4529   20.5074 C   0  0  0  0  0  0  0  0  0  0  0  0
    8.5104  -14.4592   20.3982 C   0  0  2  0  0  0  0  0  0  0  0  0
    8.5383  -15.1573   19.1536 N   0  0  0  0  0  0  0  0  0  0  0  0
    8.4894  -15.3296   21.5816 C   0  0  0  0  0  0  0  0  0  0  0  0
    7.5827  -16.1974   21.6644 O   0  0  0  0  0  0  0  0  0  0  0  0
   11.6185  -17.1963   23.3419 C   0  0  0  0  0  0  0  0  0  0  0  0
   10.7818  -16.4410   24.3293 C   0  0  1  0  0  0  0  0  0  0  0  0
   11.4605  -15.2660   24.6488 O   0  0  0  0  0  0  0  0  0  0  0  0
    9.4146  -16.0930   23.8091 C   0  0  2  0  0  0  0  0  0  0  0  0
    9.4233  -15.2659   22.6497 N   0  0  0  0  0  0  0  0  0  0  0  0
    8.6476  -15.4687   24.9457 C   0  0  0  0  0  0  0  0  0  0  0  0
    8.3020  -16.1942   26.0576 O   0  0  0  0  0  0  0  0  0  0  0  0
    8.3064  -14.2523   24.8919 O   0  0  0  0  0  0  0  0  0  0  0  0
  2  1  1  0
  2  4  1  0
  3  2  2  0
  5  4  1  0
  5  6  1  1
  7 11  1  0
  7  5  1  0
  8  7  2  0
 10  9  1  6
 10 11  1  0
 12 10  1  0
 12 18  1  0
 13 12  2  0
 15 14  1  6
 16 15  1  0
 17 18  1  6
 17 15  1  0
 19 17  1  0
 20 19  1  0
 21 19  2  0
M  END
$$$$
