NAT.pdb
     RDKit          3D

 21 20  0  0  1  0  0  0  0  0999 V2000
    7.6581  -18.7406   17.6818 N   0  0  0  0  0  0  0  0  0  0  0  0
    7.0199  -17.6618   18.3573 C   0  0  0  0  0  0  0  0  0  0  0  0
    6.2059  -16.9710   17.6711 O   0  0  0  0  0  0  0  0  0  0  0  0
    7.2790  -17.3464   19.7847 C   0  0  0  0  0  0  0  0  0  0  0  0
    7.2142  -15.8606   19.9692 C   0  0  2  0  0  0  0  0  0  0  0  0
    7.6711  -15.1759   18.7949 N   0  0  0  0  0  0  0  0  0  0  0  0
    7.9803  -15.4693   21.1849 C   0  0  0  0  0  0  0  0  0  0  0  0
    9.1378  -15.9228   21.3683 O   0  0  0  0  0  0  0  0  0  0  0  0
    7.3878  -13.2707   24.2523 C   0  0  0  0  0  0  0  0  0  0  0  0
    8.0954  -14.3229   23.4356 C   0  0  2  0  0  0  0  0  0  0  0  0
    7.4741  -14.5920   22.1792 N   0  0  0  0  0  0  0  0  0  0  0  0
    8.3145  -15.5113   24.2710 C   0  0  0  0  0  0  0  0  0  0  0  0
    7.3123  -16.1915   24.6104 O   0  0  0  0  0  0  0  0  0  0  0  0
    9.9716  -18.6945   23.5148 C   0  0  0  0  0  0  0  0  0  0  0  0
   10.6381  -18.1770   24.7531 C   0  0  1  0  0  0  0  0  0  0  0  0
   11.8570  -17.6159   24.3753 O   0  0  0  0  0  0  0  0  0  0  0  0
    9.8247  -17.1420   25.4797 C   0  0  2  0  0  0  0  0  0  0  0  0
    9.5831  -15.9557   24.7294 N   0  0  0  0  0  0  0  0  0  0  0  0
   10.5235  -16.8562   26.7835 C   0  0  0  0  0  0  0  0  0  0  0  0
   10.6166  -17.8077   27.7674 O   0  0  0  0  0  0  0  0  0  0  0  0
   11.0410  -15.7217   26.9937 O   0  0  0  0  0  0  0  0  0  0  0  0
  2  1  1  0
  2  4  1  0
  3  2  2  0
  5  4  1  0
  5  6  1  6
  7 11  1  0
  7  5  1  0
  8  7  2  0
 10  9  1  1
 10 11  1  0
 12 10  1  0
 12 18  1  0
 13 12  2  0
 15 14  1  6
 16 15  1  0
 17 18  1  6
 17 15  1  0
 19 17  1  0
 20 19  1  0
 21 19  2  0
M  END
$$$$
