NAT.pdb
     RDKit          3D

 21 20  0  0  1  0  0  0  0  0999 V2000
    8.2409  -12.5217   17.1484 N   0  0  0  0  0  0  0  0  0  0  0  0
    7.9271  -13.8489   17.5573 C   0  0  0  0  0  0  0  0  0  0  0  0
    8.1456  -14.7661   16.7076 O   0  0  0  0  0  0  0  0  0  0  0  0
    7.3744  -14.1632   18.8989 C   0  0  0  0  0  0  0  0  0  0  0  0
    8.5110  -14.3302   19.8612 C   0  0  2  0  0  0  0  0  0  0  0  0
    9.4633  -15.2843   19.3720 N   0  0  0  0  0  0  0  0  0  0  0  0
    7.9844  -14.6964   21.2053 C   0  0  0  0  0  0  0  0  0  0  0  0
    7.1018  -13.9844   21.7470 O   0  0  0  0  0  0  0  0  0  0  0  0
    8.5353  -17.4864   23.7514 C   0  0  0  0  0  0  0  0  0  0  0  0
    8.0860  -16.1222   23.2910 C   0  0  2  0  0  0  0  0  0  0  0  0
    8.4269  -15.8297   21.9362 N   0  0  0  0  0  0  0  0  0  0  0  0
    8.5378  -15.1158   24.2611 C   0  0  0  0  0  0  0  0  0  0  0  0
    9.6802  -14.6126   24.1062 O   0  0  0  0  0  0  0  0  0  0  0  0
    6.5698  -11.8141   25.5202 C   0  0  0  0  0  0  0  0  0  0  0  0
    7.0224  -12.6976   26.6427 C   0  0  1  0  0  0  0  0  0  0  0  0
    5.9295  -13.4625   27.0471 O   0  0  0  0  0  0  0  0  0  0  0  0
    8.1506  -13.6155   26.2611 C   0  0  2  0  0  0  0  0  0  0  0  0
    7.7767  -14.6628   25.3713 N   0  0  0  0  0  0  0  0  0  0  0  0
    8.7513  -14.1432   27.5380 C   0  0  0  0  0  0  0  0  0  0  0  0
    9.2995  -13.3001   28.4711 O   0  0  0  0  0  0  0  0  0  0  0  0
    8.7595  -15.3858   27.7724 O   0  0  0  0  0  0  0  0  0  0  0  0
  2  1  1  0
  2  4  1  0
  3  2  2  0
  5  4  1  0
  5  6  1  6
  7 11  1  0
  7  5  1  0
  8  7  2  0
 10  9  1  1
 10 11  1  0
 12 10  1  0
 12 18  1  0
 13 12  2  0
 15 14  1  6
 16 15  1  0
 17 18  1  6
 17 15  1  0
 19 17  1  0
 20 19  1  0
 21 19  2  0
M  END
$$$$
