NAT.pdb
     RDKit          3D

 21 20  0  0  1  0  0  0  0  0999 V2000
    9.4330  -14.2052   17.0943 N   0  0  0  0  0  0  0  0  0  0  0  0
    8.1175  -13.7565   17.4030 C   0  0  0  0  0  0  0  0  0  0  0  0
    7.3797  -13.4544   16.4154 O   0  0  0  0  0  0  0  0  0  0  0  0
    7.6177  -13.6415   18.7962 C   0  0  0  0  0  0  0  0  0  0  0  0
    8.6791  -14.1367   19.7311 C   0  0  2  0  0  0  0  0  0  0  0  0
    9.3049  -15.3207   19.2183 N   0  0  0  0  0  0  0  0  0  0  0  0
    8.0994  -14.3466   21.0868 C   0  0  0  0  0  0  0  0  0  0  0  0
    7.5048  -13.4031   21.6662 O   0  0  0  0  0  0  0  0  0  0  0  0
    7.6612  -17.2879   23.4799 C   0  0  0  0  0  0  0  0  0  0  0  0
    7.5872  -15.8408   23.0612 C   0  0  2  0  0  0  0  0  0  0  0  0
    8.1766  -15.5781   21.7881 N   0  0  0  0  0  0  0  0  0  0  0  0
    8.0982  -14.9994   24.1516 C   0  0  0  0  0  0  0  0  0  0  0  0
    9.3085  -14.6581   24.1210 O   0  0  0  0  0  0  0  0  0  0  0  0
    6.7495  -11.5134   25.5949 C   0  0  0  0  0  0  0  0  0  0  0  0
    6.8432  -12.5739   26.6494 C   0  0  1  0  0  0  0  0  0  0  0  0
    5.5663  -13.1018   26.8342 O   0  0  0  0  0  0  0  0  0  0  0  0
    7.7886  -13.6874   26.2926 C   0  0  2  0  0  0  0  0  0  0  0  0
    7.3235  -14.5372   25.2485 N   0  0  0  0  0  0  0  0  0  0  0  0
    8.0804  -14.4512   27.5580 C   0  0  0  0  0  0  0  0  0  0  0  0
    8.6767  -13.8467   28.6356 O   0  0  0  0  0  0  0  0  0  0  0  0
    7.7767  -15.6754   27.6478 O   0  0  0  0  0  0  0  0  0  0  0  0
  2  1  1  0
  2  4  1  0
  3  2  2  0
  5  4  1  0
  5  6  1  6
  7 11  1  0
  7  5  1  0
  8  7  2  0
 10  9  1  1
 10 11  1  0
 12 10  1  0
 12 18  1  0
 13 12  2  0
 15 14  1  6
 16 15  1  0
 17 18  1  6
 17 15  1  0
 19 17  1  0
 20 19  1  0
 21 19  2  0
M  END
$$$$
