NAT.pdb
     RDKit          3D

 21 20  0  0  1  0  0  0  0  0999 V2000
   12.0676  -15.4882   13.8417 N   0  0  0  0  0  0  0  0  0  0  0  0
   12.1848  -15.6534   15.2510 C   0  0  0  0  0  0  0  0  0  0  0  0
   12.7777  -16.7035   15.6471 O   0  0  0  0  0  0  0  0  0  0  0  0
   11.6499  -14.6638   16.2198 C   0  0  0  0  0  0  0  0  0  0  0  0
   11.0781  -15.3993   17.3936 C   0  0  2  0  0  0  0  0  0  0  0  0
   10.0130  -16.2691   16.9867 N   0  0  0  0  0  0  0  0  0  0  0  0
   10.6463  -14.4276   18.4363 C   0  0  0  0  0  0  0  0  0  0  0  0
   11.5062  -13.7606   19.0648 O   0  0  0  0  0  0  0  0  0  0  0  0
    7.3926  -12.9182   19.6828 C   0  0  0  0  0  0  0  0  0  0  0  0
    8.8328  -13.3427   19.8248 C   0  0  2  0  0  0  0  0  0  0  0  0
    9.2876  -14.1984   18.7769 N   0  0  0  0  0  0  0  0  0  0  0  0
    9.0448  -13.8748   21.1776 C   0  0  0  0  0  0  0  0  0  0  0  0
    8.7004  -13.1634   22.1561 O   0  0  0  0  0  0  0  0  0  0  0  0
    7.9029  -17.3583   22.7012 C   0  0  0  0  0  0  0  0  0  0  0  0
    9.3744  -17.1407   22.8822 C   0  0  1  0  0  0  0  0  0  0  0  0
   10.0356  -17.8790   21.9019 O   0  0  0  0  0  0  0  0  0  0  0  0
    9.7820  -15.6978   22.7695 C   0  0  2  0  0  0  0  0  0  0  0  0
    9.6143  -15.1429   21.4686 N   0  0  0  0  0  0  0  0  0  0  0  0
   11.2058  -15.5947   23.2511 C   0  0  0  0  0  0  0  0  0  0  0  0
   12.2215  -15.2302   22.4041 O   0  0  0  0  0  0  0  0  0  0  0  0
   11.4901  -15.8455   24.4574 O   0  0  0  0  0  0  0  0  0  0  0  0
  2  1  1  0
  2  4  1  0
  3  2  2  0
  5  4  1  0
  5  6  1  6
  7 11  1  0
  7  5  1  0
  8  7  2  0
 10  9  1  6
 10 11  1  0
 12 10  1  0
 12 18  1  0
 13 12  2  0
 15 14  1  6
 16 15  1  0
 17 18  1  6
 17 15  1  0
 19 17  1  0
 20 19  1  0
 21 19  2  0
M  END
$$$$
