NAT.pdb
     RDKit          3D

 21 20  0  0  1  0  0  0  0  0999 V2000
    9.3850  -20.3247   16.1980 N   0  0  0  0  0  0  0  0  0  0  0  0
    9.0069  -18.9790   15.9277 C   0  0  0  0  0  0  0  0  0  0  0  0
    9.4073  -18.4924   14.8259 O   0  0  0  0  0  0  0  0  0  0  0  0
    8.1899  -18.1728   16.8694 C   0  0  0  0  0  0  0  0  0  0  0  0
    7.9384  -18.9835   18.1045 C   0  0  2  0  0  0  0  0  0  0  0  0
    6.8871  -19.9349   17.8901 N   0  0  0  0  0  0  0  0  0  0  0  0
    7.6554  -18.0785   19.2529 C   0  0  0  0  0  0  0  0  0  0  0  0
    8.5134  -17.2324   19.6093 O   0  0  0  0  0  0  0  0  0  0  0  0
    4.7232  -17.3621   21.5831 C   0  0  0  0  0  0  0  0  0  0  0  0
    6.1701  -17.3330   21.1586 C   0  0  2  0  0  0  0  0  0  0  0  0
    6.4448  -18.1099   19.9932 N   0  0  0  0  0  0  0  0  0  0  0  0
    7.0159  -17.6553   22.3158 C   0  0  0  0  0  0  0  0  0  0  0  0
    7.3373  -18.8573   22.4999 O   0  0  0  0  0  0  0  0  0  0  0  0
   10.3435  -15.8156   23.5771 C   0  0  0  0  0  0  0  0  0  0  0  0
    9.3598  -15.9845   24.6947 C   0  0  1  0  0  0  0  0  0  0  0  0
    8.7604  -14.7467   24.9224 O   0  0  0  0  0  0  0  0  0  0  0  0
    8.2917  -17.0011   24.4003 C   0  0  2  0  0  0  0  0  0  0  0  0
    7.5034  -16.7048   23.2517 N   0  0  0  0  0  0  0  0  0  0  0  0
    7.4524  -17.1430   25.6433 C   0  0  0  0  0  0  0  0  0  0  0  0
    7.9765  -17.6514   26.8048 O   0  0  0  0  0  0  0  0  0  0  0  0
    6.2377  -16.7918   25.6354 O   0  0  0  0  0  0  0  0  0  0  0  0
  2  1  1  0
  2  4  1  0
  3  2  2  0
  5  4  1  0
  5  6  1  6
  7 11  1  0
  7  5  1  0
  8  7  2  0
 10  9  1  1
 10 11  1  0
 12 10  1  0
 12 18  1  0
 13 12  2  0
 15 14  1  6
 16 15  1  0
 17 18  1  6
 17 15  1  0
 19 17  1  0
 20 19  1  0
 21 19  2  0
M  END
$$$$
