NAT.pdb
     RDKit          3D

 21 20  0  0  1  0  0  0  0  0999 V2000
   11.9087  -15.4717   18.4882 N   0  0  0  0  0  0  0  0  0  0  0  0
   11.7365  -14.2297   19.1626 C   0  0  0  0  0  0  0  0  0  0  0  0
   12.7064  -13.4138   19.0956 O   0  0  0  0  0  0  0  0  0  0  0  0
   10.4986  -13.8890   19.9082 C   0  0  0  0  0  0  0  0  0  0  0  0
    9.5619  -15.0571   19.8459 C   0  0  2  0  0  0  0  0  0  0  0  0
    8.7430  -14.9978   18.6701 N   0  0  0  0  0  0  0  0  0  0  0  0
    8.7529  -15.1221   21.0946 C   0  0  0  0  0  0  0  0  0  0  0  0
    7.8917  -14.2375   21.3293 O   0  0  0  0  0  0  0  0  0  0  0  0
    8.1205  -17.6374   23.8633 C   0  0  0  0  0  0  0  0  0  0  0  0
    8.1423  -16.2492   23.2741 C   0  0  2  0  0  0  0  0  0  0  0  0
    8.8948  -16.1476   22.0656 N   0  0  0  0  0  0  0  0  0  0  0  0
    8.5363  -15.2919   24.3165 C   0  0  0  0  0  0  0  0  0  0  0  0
    9.7467  -14.9577   24.3888 O   0  0  0  0  0  0  0  0  0  0  0  0
    6.3608  -11.8938   25.5181 C   0  0  0  0  0  0  0  0  0  0  0  0
    6.8213  -12.8216   26.6009 C   0  0  1  0  0  0  0  0  0  0  0  0
    5.7447  -13.6368   26.9467 O   0  0  0  0  0  0  0  0  0  0  0  0
    7.9812  -13.6866   26.1914 C   0  0  2  0  0  0  0  0  0  0  0  0
    7.6470  -14.7092   25.2581 N   0  0  0  0  0  0  0  0  0  0  0  0
    8.5910  -14.2451   27.4508 C   0  0  0  0  0  0  0  0  0  0  0  0
    9.1800  -13.4280   28.3823 O   0  0  0  0  0  0  0  0  0  0  0  0
    8.5693  -15.4900   27.6714 O   0  0  0  0  0  0  0  0  0  0  0  0
  2  1  1  0
  2  4  1  0
  3  2  2  0
  5  4  1  0
  5  6  1  6
  7 11  1  0
  7  5  1  0
  8  7  2  0
 10  9  1  1
 10 11  1  0
 12 10  1  0
 12 18  1  0
 13 12  2  0
 15 14  1  6
 16 15  1  0
 17 18  1  6
 17 15  1  0
 19 17  1  0
 20 19  1  0
 21 19  2  0
M  END
$$$$
