NAT.pdb
     RDKit          3D

 21 20  0  0  1  0  0  0  0  0999 V2000
    8.8346  -15.7269   12.9336 N   0  0  0  0  0  0  0  0  0  0  0  0
    9.3539  -16.5223   13.9942 C   0  0  0  0  0  0  0  0  0  0  0  0
    9.4490  -17.7677   13.7690 O   0  0  0  0  0  0  0  0  0  0  0  0
    9.7669  -15.9457   15.2985 C   0  0  0  0  0  0  0  0  0  0  0  0
    8.7203  -16.2691   16.3211 C   0  0  2  0  0  0  0  0  0  0  0  0
    7.4252  -15.8315   15.8880 N   0  0  0  0  0  0  0  0  0  0  0  0
    9.1029  -15.6850   17.6366 C   0  0  0  0  0  0  0  0  0  0  0  0
   10.1706  -16.0436   18.1940 O   0  0  0  0  0  0  0  0  0  0  0  0
    7.5980  -13.1802   20.0990 C   0  0  0  0  0  0  0  0  0  0  0  0
    8.5877  -14.2171   19.6299 C   0  0  2  0  0  0  0  0  0  0  0  0
    8.3178  -14.7217   18.3224 N   0  0  0  0  0  0  0  0  0  0  0  0
    8.7239  -15.2522   20.6635 C   0  0  0  0  0  0  0  0  0  0  0  0
    7.7417  -16.0075   20.8805 O   0  0  0  0  0  0  0  0  0  0  0  0
   11.4706  -18.4525   23.1573 C   0  0  0  0  0  0  0  0  0  0  0  0
   11.3419  -17.3002   22.2081 C   0  0  1  0  0  0  0  0  0  0  0  0
   11.3777  -17.8126   20.9121 O   0  0  0  0  0  0  0  0  0  0  0  0
   10.0723  -16.5157   22.3915 C   0  0  2  0  0  0  0  0  0  0  0  0
    9.8905  -15.4679   21.4442 N   0  0  0  0  0  0  0  0  0  0  0  0
   10.0601  -16.0069   23.8096 C   0  0  0  0  0  0  0  0  0  0  0  0
   10.3845  -14.7070   24.1047 O   0  0  0  0  0  0  0  0  0  0  0  0
    9.7470  -16.7790   24.7608 O   0  0  0  0  0  0  0  0  0  0  0  0
  2  1  1  0
  2  4  1  0
  3  2  2  0
  5  4  1  0
  5  6  1  6
  7 11  1  0
  7  5  1  0
  8  7  2  0
 10  9  1  1
 10 11  1  0
 12 10  1  0
 12 18  1  0
 13 12  2  0
 15 14  1  1
 16 15  1  0
 17 18  1  6
 17 15  1  0
 19 17  1  0
 20 19  1  0
 21 19  2  0
M  END
$$$$
