FIK.pdb
     RDKit          3D

 29 29  0  0  1  0  0  0  0  0999 V2000
    7.6706  -19.0271   27.7655 N   0  0  0  0  0  0  0  0  0  0  0  0
    8.0966  -17.6687   27.6520 C   0  0  1  0  0  0  0  0  0  0  0  0
    9.5894  -17.5679   27.9903 C   0  0  0  0  0  0  0  0  0  0  0  0
    9.8342  -16.4173   28.8961 C   0  0  0  0  0  0  0  0  0  0  0  0
   10.0321  -16.6106   30.2417 C   0  0  0  0  0  0  0  0  0  0  0  0
   10.2594  -15.5581   31.0917 C   0  0  0  0  0  0  0  0  0  0  0  0
   10.2954  -14.2676   30.6140 C   0  0  0  0  0  0  0  0  0  0  0  0
   10.0973  -14.0670   29.2634 C   0  0  0  0  0  0  0  0  0  0  0  0
    9.8710  -15.1228   28.4209 C   0  0  0  0  0  0  0  0  0  0  0  0
    7.9060  -17.1103   26.2884 C   0  0  0  0  0  0  0  0  0  0  0  0
    7.6078  -17.8476   25.3337 O   0  0  0  0  0  0  0  0  0  0  0  0
    6.5441  -11.9986   26.3079 C   0  0  0  0  0  0  0  0  0  0  0  0
    6.3427  -13.3045   25.6174 C   0  0  0  0  0  0  0  0  0  0  0  0
    7.5185  -13.6667   24.7037 C   0  0  2  0  0  0  0  0  0  0  0  0
    7.4146  -13.0548   23.3522 C   0  0  0  0  0  0  0  0  0  0  0  0
    7.8245  -15.1182   24.7322 C   0  0  2  0  0  0  0  0  0  0  0  0
    8.0421  -15.7487   25.9738 N   0  0  0  0  0  0  0  0  0  0  0  0
    8.9940  -15.3488   23.8245 C   0  0  0  0  0  0  0  0  0  0  0  0
   10.0858  -14.7982   24.1076 O   0  0  0  0  0  0  0  0  0  0  0  0
    8.9158  -16.1508   22.6787 N   0  0  0  0  0  0  0  0  0  0  0  0
   10.1740  -16.4341   21.8769 C   0  0  1  0  0  0  0  0  0  0  0  0
   10.5063  -15.1887   21.1796 C   0  0  0  0  0  0  0  0  0  0  0  0
   11.7979  -15.0259   20.5509 C   0  0  0  0  0  0  0  0  0  0  0  0
   12.0502  -14.2482   19.3315 C   0  0  0  0  0  0  0  0  0  0  0  0
   13.4825  -14.1933   18.8613 C   0  0  0  0  0  0  0  0  0  0  0  0
   13.7098  -13.4884   17.6447 N   0  0  0  0  0  0  0  0  0  0  0  0
   11.0985  -16.9020   22.9179 C   0  0  0  0  0  0  0  0  0  0  0  0
   11.2527  -16.2250   23.9949 O   0  0  0  0  0  0  0  0  0  0  0  0
   11.8230  -18.0677   22.7933 O   0  0  0  0  0  0  0  0  0  0  0  0
  2  1  1  6
  2  3  1  0
  4  9  2  0
  4  3  1  0
  5  4  1  0
  6  7  1  0
  6  5  2  0
  7  8  2  0
  8  9  1  0
 10  2  1  0
 11 10  2  0
 13 12  1  0
 13 14  1  0
 14 15  1  6
 16 14  1  0
 16 17  1  1
 17 10  1  0
 18 16  1  0
 19 18  2  0
 20 18  1  0
 21 22  1  1
 21 20  1  0
 23 22  1  0
 24 25  1  0
 24 23  1  0
 25 26  1  0
 27 21  1  0
 27 29  1  0
 28 27  2  0
M  END
$$$$
