FIK.pdb
     RDKit          3D

 29 29  0  0  1  0  0  0  0  0999 V2000
   10.0389  -15.2633   21.0227 N   0  0  0  0  0  0  0  0  0  0  0  0
    8.9831  -14.7119   21.8107 C   0  0  1  0  0  0  0  0  0  0  0  0
    7.6301  -15.1583   21.2424 C   0  0  0  0  0  0  0  0  0  0  0  0
    7.2673  -14.3272   20.0669 C   0  0  0  0  0  0  0  0  0  0  0  0
    7.5442  -12.9818   20.0438 C   0  0  0  0  0  0  0  0  0  0  0  0
    7.2154  -12.2003   18.9653 C   0  0  0  0  0  0  0  0  0  0  0  0
    6.5931  -12.7489   17.8669 C   0  0  0  0  0  0  0  0  0  0  0  0
    6.3124  -14.0997   17.8841 C   0  0  0  0  0  0  0  0  0  0  0  0
    6.6437  -14.8735   18.9644 C   0  0  0  0  0  0  0  0  0  0  0  0
    9.0351  -15.1363   23.2336 C   0  0  0  0  0  0  0  0  0  0  0  0
    9.8804  -15.9600   23.6224 O   0  0  0  0  0  0  0  0  0  0  0  0
    6.2239  -11.5699   26.5304 C   0  0  0  0  0  0  0  0  0  0  0  0
    7.2475  -12.3648   25.7934 C   0  0  0  0  0  0  0  0  0  0  0  0
    7.5040  -13.7285   26.4439 C   0  0  2  0  0  0  0  0  0  0  0  0
    7.8672  -13.6274   27.8824 C   0  0  0  0  0  0  0  0  0  0  0  0
    8.3851  -14.5881   25.6155 C   0  0  2  0  0  0  0  0  0  0  0  0
    8.1635  -14.6591   24.2255 N   0  0  0  0  0  0  0  0  0  0  0  0
    8.3625  -15.9621   26.2125 C   0  0  0  0  0  0  0  0  0  0  0  0
    7.3133  -16.6422   26.1031 O   0  0  0  0  0  0  0  0  0  0  0  0
    9.4611  -16.5133   26.8841 N   0  0  0  0  0  0  0  0  0  0  0  0
    9.4640  -17.9933   27.2245 C   0  0  1  0  0  0  0  0  0  0  0  0
   10.2083  -18.6602   26.1526 C   0  0  0  0  0  0  0  0  0  0  0  0
   10.5897  -20.0486   26.2825 C   0  0  0  0  0  0  0  0  0  0  0  0
    9.8681  -21.1806   25.6884 C   0  0  0  0  0  0  0  0  0  0  0  0
   10.4663  -22.5462   25.9186 C   0  0  0  0  0  0  0  0  0  0  0  0
    9.7095  -23.6468   25.4238 N   0  0  0  0  0  0  0  0  0  0  0  0
   10.0544  -17.9945   28.5693 C   0  0  0  0  0  0  0  0  0  0  0  0
   10.8259  -17.0391   28.9356 O   0  0  0  0  0  0  0  0  0  0  0  0
    9.8082  -18.9957   29.4837 O   0  0  0  0  0  0  0  0  0  0  0  0
  2  1  1  6
  2  3  1  0
  4  9  2  0
  4  3  1  0
  5  4  1  0
  6  7  1  0
  6  5  2  0
  7  8  2  0
  8  9  1  0
 10  2  1  0
 11 10  2  0
 13 12  1  0
 13 14  1  0
 14 15  1  1
 16 14  1  0
 16 17  1  6
 17 10  1  0
 18 16  1  0
 19 18  2  0
 20 18  1  0
 21 22  1  6
 21 20  1  0
 23 22  1  0
 24 25  1  0
 24 23  1  0
 25 26  1  0
 27 21  1  0
 27 29  1  0
 28 27  2  0
M  END
$$$$
