FIK.pdb
     RDKit          3D

 29 29  0  0  1  0  0  0  0  0999 V2000
    8.3466  -18.0674   16.0668 N   0  0  0  0  0  0  0  0  0  0  0  0
    7.8320  -18.0981   17.3987 C   0  0  1  0  0  0  0  0  0  0  0  0
    7.7999  -19.5459   17.9044 C   0  0  0  0  0  0  0  0  0  0  0  0
    6.8210  -20.3418   17.1217 C   0  0  0  0  0  0  0  0  0  0  0  0
    5.4706  -20.1335   17.2638 C   0  0  0  0  0  0  0  0  0  0  0  0
    4.5535  -20.8605   16.5480 C   0  0  0  0  0  0  0  0  0  0  0  0
    4.9663  -21.8275   15.6595 C   0  0  0  0  0  0  0  0  0  0  0  0
    6.3214  -22.0414   15.5123 C   0  0  0  0  0  0  0  0  0  0  0  0
    7.2310  -21.3116   16.2305 C   0  0  0  0  0  0  0  0  0  0  0  0
    8.6458  -17.3054   18.3562 C   0  0  0  0  0  0  0  0  0  0  0  0
    9.8859  -17.3842   18.3563 O   0  0  0  0  0  0  0  0  0  0  0  0
    6.9105  -12.3487   20.3558 C   0  0  0  0  0  0  0  0  0  0  0  0
    7.7138  -13.4731   19.7962 C   0  0  0  0  0  0  0  0  0  0  0  0
    8.1255  -14.4850   20.8710 C   0  0  2  0  0  0  0  0  0  0  0  0
    8.8269  -13.8574   22.0223 C   0  0  0  0  0  0  0  0  0  0  0  0
    8.7821  -15.6827   20.2914 C   0  0  2  0  0  0  0  0  0  0  0  0
    8.1013  -16.4301   19.3095 N   0  0  0  0  0  0  0  0  0  0  0  0
    9.1829  -16.5705   21.4298 C   0  0  0  0  0  0  0  0  0  0  0  0
    8.2875  -17.2198   22.0231 O   0  0  0  0  0  0  0  0  0  0  0  0
   10.5110  -16.7027   21.8548 N   0  0  0  0  0  0  0  0  0  0  0  0
   10.8376  -17.6331   23.0098 C   0  0  1  0  0  0  0  0  0  0  0  0
   11.9271  -18.4968   22.5465 C   0  0  0  0  0  0  0  0  0  0  0  0
   12.5773  -19.4072   23.4621 C   0  0  0  0  0  0  0  0  0  0  0  0
   13.7521  -20.2279   23.1434 C   0  0  0  0  0  0  0  0  0  0  0  0
   14.1530  -21.2477   24.1802 C   0  0  0  0  0  0  0  0  0  0  0  0
   15.1255  -22.2031   23.7676 N   0  0  0  0  0  0  0  0  0  0  0  0
   11.1312  -16.6834   24.0911 C   0  0  0  0  0  0  0  0  0  0  0  0
   11.4994  -15.4872   23.8163 O   0  0  0  0  0  0  0  0  0  0  0  0
   11.0213  -17.0222   25.4224 O   0  0  0  0  0  0  0  0  0  0  0  0
  2  1  1  6
  2  3  1  0
  4  9  2  0
  4  3  1  0
  5  4  1  0
  6  7  1  0
  6  5  2  0
  7  8  2  0
  8  9  1  0
 10  2  1  0
 11 10  2  0
 13 12  1  0
 13 14  1  0
 14 15  1  1
 16 14  1  0
 16 17  1  6
 17 10  1  0
 18 16  1  0
 19 18  2  0
 20 18  1  0
 21 22  1  6
 21 20  1  0
 23 22  1  0
 24 25  1  0
 24 23  1  0
 25 26  1  0
 27 21  1  0
 27 29  1  0
 28 27  2  0
M  END
$$$$
