FIK.pdb
     RDKit          3D

 29 29  0  0  1  0  0  0  0  0999 V2000
    5.7977  -17.3353   25.1629 N   0  0  0  0  0  0  0  0  0  0  0  0
    6.4828  -16.1341   24.8060 C   0  0  1  0  0  0  0  0  0  0  0  0
    7.2395  -15.5920   26.0252 C   0  0  0  0  0  0  0  0  0  0  0  0
    6.9887  -14.1368   26.1799 C   0  0  0  0  0  0  0  0  0  0  0  0
    5.7078  -13.6405   26.1886 C   0  0  0  0  0  0  0  0  0  0  0  0
    5.4595  -12.2988   26.3306 C   0  0  0  0  0  0  0  0  0  0  0  0
    6.4976  -11.4055   26.4695 C   0  0  0  0  0  0  0  0  0  0  0  0
    7.7864  -11.8979   26.4615 C   0  0  0  0  0  0  0  0  0  0  0  0
    8.0265  -13.2388   26.3193 C   0  0  0  0  0  0  0  0  0  0  0  0
    7.4712  -16.3295   23.7140 C   0  0  0  0  0  0  0  0  0  0  0  0
    7.9275  -17.4574   23.4617 O   0  0  0  0  0  0  0  0  0  0  0  0
    7.6177  -12.2261   19.9342 C   0  0  0  0  0  0  0  0  0  0  0  0
    7.4880  -13.5260   20.6528 C   0  0  0  0  0  0  0  0  0  0  0  0
    8.8363  -14.2345   20.8213 C   0  0  2  0  0  0  0  0  0  0  0  0
    9.5269  -14.4854   19.5284 C   0  0  0  0  0  0  0  0  0  0  0  0
    8.7487  -15.3954   21.7411 C   0  0  2  0  0  0  0  0  0  0  0  0
    7.9567  -15.2918   22.9023 N   0  0  0  0  0  0  0  0  0  0  0  0
   10.1484  -15.7874   22.1045 C   0  0  0  0  0  0  0  0  0  0  0  0
   10.7931  -15.0425   22.8822 O   0  0  0  0  0  0  0  0  0  0  0  0
   10.7613  -16.9467   21.6121 N   0  0  0  0  0  0  0  0  0  0  0  0
   12.2652  -16.9660   21.4022 C   0  0  1  0  0  0  0  0  0  0  0  0
   12.5789  -15.8023   20.5685 C   0  0  0  0  0  0  0  0  0  0  0  0
   13.9531  -15.4654   20.2717 C   0  0  0  0  0  0  0  0  0  0  0  0
   14.3899  -14.5972   19.1714 C   0  0  0  0  0  0  0  0  0  0  0  0
   15.8781  -14.3903   19.0371 C   0  0  0  0  0  0  0  0  0  0  0  0
   16.3138  -13.7872   17.8225 N   0  0  0  0  0  0  0  0  0  0  0  0
   12.7646  -16.9715   22.7834 C   0  0  0  0  0  0  0  0  0  0  0  0
   13.3815  -17.9968   23.2419 O   0  0  0  0  0  0  0  0  0  0  0  0
   12.6041  -15.8972   23.6316 O   0  0  0  0  0  0  0  0  0  0  0  0
  2  1  1  1
  2  3  1  0
  4  9  2  0
  4  3  1  0
  5  4  1  0
  6  7  1  0
  6  5  2  0
  7  8  2  0
  8  9  1  0
 10  2  1  0
 11 10  2  0
 13 12  1  0
 13 14  1  0
 14 15  1  6
 16 14  1  0
 16 17  1  1
 17 10  1  0
 18 16  1  0
 19 18  2  0
 20 18  1  0
 21 22  1  6
 21 20  1  0
 23 22  1  0
 24 25  1  0
 24 23  1  0
 25 26  1  0
 27 21  1  0
 27 29  1  0
 28 27  2  0
M  END
$$$$
