FIK.pdb
     RDKit          3D

 29 29  0  0  1  0  0  0  0  0999 V2000
    5.4491  -17.9563   25.1479 N   0  0  0  0  0  0  0  0  0  0  0  0
    6.0312  -16.6535   25.0912 C   0  0  1  0  0  0  0  0  0  0  0  0
    6.5007  -16.2384   26.4914 C   0  0  0  0  0  0  0  0  0  0  0  0
    6.7749  -14.7798   26.5298 C   0  0  0  0  0  0  0  0  0  0  0  0
    8.0622  -14.3077   26.6142 C   0  0  0  0  0  0  0  0  0  0  0  0
    8.3321  -12.9632   26.6506 C   0  0  0  0  0  0  0  0  0  0  0  0
    7.3099  -12.0424   26.6031 C   0  0  0  0  0  0  0  0  0  0  0  0
    6.0148  -12.5104   26.5183 C   0  0  0  0  0  0  0  0  0  0  0  0
    5.7532  -13.8543   26.4824 C   0  0  0  0  0  0  0  0  0  0  0  0
    7.2048  -16.5786   24.1831 C   0  0  0  0  0  0  0  0  0  0  0  0
    8.0494  -17.4897   24.1569 O   0  0  0  0  0  0  0  0  0  0  0  0
    7.2109  -12.5035   20.1931 C   0  0  0  0  0  0  0  0  0  0  0  0
    7.1921  -13.8137   20.9043 C   0  0  0  0  0  0  0  0  0  0  0  0
    8.5515  -14.1604   21.5210 C   0  0  2  0  0  0  0  0  0  0  0  0
    9.6658  -14.1110   20.5374 C   0  0  0  0  0  0  0  0  0  0  0  0
    8.4901  -15.3793   22.3647 C   0  0  2  0  0  0  0  0  0  0  0  0
    7.4506  -15.5088   23.3076 N   0  0  0  0  0  0  0  0  0  0  0  0
    9.8198  -15.5264   23.0392 C   0  0  0  0  0  0  0  0  0  0  0  0
   10.1361  -14.6916   23.9215 O   0  0  0  0  0  0  0  0  0  0  0  0
   10.7182  -16.5540   22.7245 N   0  0  0  0  0  0  0  0  0  0  0  0
   12.0533  -16.6267   23.4445 C   0  0  1  0  0  0  0  0  0  0  0  0
   12.2433  -18.0311   23.8175 C   0  0  0  0  0  0  0  0  0  0  0  0
   11.3016  -18.6872   24.6965 C   0  0  0  0  0  0  0  0  0  0  0  0
   11.3972  -20.0818   25.1451 C   0  0  0  0  0  0  0  0  0  0  0  0
   10.3702  -20.5280   26.1559 C   0  0  0  0  0  0  0  0  0  0  0  0
   10.4631  -19.9246   27.4429 N   0  0  0  0  0  0  0  0  0  0  0  0
   12.9676  -16.0550   22.4472 C   0  0  0  0  0  0  0  0  0  0  0  0
   12.6492  -16.0546   21.2060 O   0  0  0  0  0  0  0  0  0  0  0  0
   14.1807  -15.4981   22.7901 O   0  0  0  0  0  0  0  0  0  0  0  0
  2  1  1  1
  2  3  1  0
  4  9  2  0
  4  3  1  0
  5  4  1  0
  6  7  1  0
  6  5  2  0
  7  8  2  0
  8  9  1  0
 10  2  1  0
 11 10  2  0
 13 12  1  0
 13 14  1  0
 14 15  1  6
 16 14  1  0
 16 17  1  1
 17 10  1  0
 18 16  1  0
 19 18  2  0
 20 18  1  0
 21 22  1  6
 21 20  1  0
 23 22  1  0
 24 25  1  0
 24 23  1  0
 25 26  1  0
 27 21  1  0
 27 29  1  0
 28 27  2  0
M  END
$$$$
