FIK.pdb
     RDKit          3D

 29 29  0  0  1  0  0  0  0  0999 V2000
    5.3924  -17.9412   25.2440 N   0  0  0  0  0  0  0  0  0  0  0  0
    5.9793  -16.6470   25.1026 C   0  0  1  0  0  0  0  0  0  0  0  0
    6.4458  -16.1413   26.4737 C   0  0  0  0  0  0  0  0  0  0  0  0
    6.6890  -14.6775   26.4256 C   0  0  0  0  0  0  0  0  0  0  0  0
    5.6476  -13.7959   26.2652 C   0  0  0  0  0  0  0  0  0  0  0  0
    5.8558  -12.4408   26.2188 C   0  0  0  0  0  0  0  0  0  0  0  0
    7.1263  -11.9233   26.3328 C   0  0  0  0  0  0  0  0  0  0  0  0
    8.1764  -12.8036   26.4940 C   0  0  0  0  0  0  0  0  0  0  0  0
    7.9607  -14.1554   26.5394 C   0  0  0  0  0  0  0  0  0  0  0  0
    7.1560  -16.6367   24.1955 C   0  0  0  0  0  0  0  0  0  0  0  0
    7.9061  -17.6239   24.1135 O   0  0  0  0  0  0  0  0  0  0  0  0
    7.2389  -12.6944   20.1481 C   0  0  0  0  0  0  0  0  0  0  0  0
    7.2528  -14.0149   20.8400 C   0  0  0  0  0  0  0  0  0  0  0  0
    8.5981  -14.3039   21.5147 C   0  0  2  0  0  0  0  0  0  0  0  0
    9.7419  -14.2812   20.5646 C   0  0  0  0  0  0  0  0  0  0  0  0
    8.5321  -15.4806   22.4161 C   0  0  2  0  0  0  0  0  0  0  0  0
    7.5080  -15.5478   23.3819 N   0  0  0  0  0  0  0  0  0  0  0  0
    9.8713  -15.6186   23.0735 C   0  0  0  0  0  0  0  0  0  0  0  0
   10.2036  -14.7670   23.9336 O   0  0  0  0  0  0  0  0  0  0  0  0
   10.7615  -16.6556   22.7667 N   0  0  0  0  0  0  0  0  0  0  0  0
   11.9872  -16.8712   23.6371 C   0  0  1  0  0  0  0  0  0  0  0  0
   12.1350  -18.3214   23.7870 C   0  0  0  0  0  0  0  0  0  0  0  0
   12.4375  -18.8951   25.0791 C   0  0  0  0  0  0  0  0  0  0  0  0
   11.4791  -19.6131   25.9283 C   0  0  0  0  0  0  0  0  0  0  0  0
   12.0228  -20.1736   27.2190 C   0  0  0  0  0  0  0  0  0  0  0  0
   11.7160  -19.4319   28.3957 N   0  0  0  0  0  0  0  0  0  0  0  0
   13.0240  -16.1529   22.8846 C   0  0  0  0  0  0  0  0  0  0  0  0
   14.0207  -15.6308   23.4979 O   0  0  0  0  0  0  0  0  0  0  0  0
   12.9804  -16.0143   21.5142 O   0  0  0  0  0  0  0  0  0  0  0  0
  2  1  1  1
  2  3  1  0
  4  9  2  0
  4  3  1  0
  5  4  1  0
  6  7  1  0
  6  5  2  0
  7  8  2  0
  8  9  1  0
 10  2  1  0
 11 10  2  0
 13 12  1  0
 13 14  1  0
 14 15  1  6
 16 14  1  0
 16 17  1  1
 17 10  1  0
 18 16  1  0
 19 18  2  0
 20 18  1  0
 21 22  1  6
 21 20  1  0
 23 22  1  0
 24 25  1  0
 24 23  1  0
 25 26  1  0
 27 21  1  0
 27 29  1  0
 28 27  2  0
M  END
$$$$
