FIK.pdb
     RDKit          3D

 29 29  0  0  1  0  0  0  0  0999 V2000
    4.9847  -19.3661   22.3625 N   0  0  0  0  0  0  0  0  0  0  0  0
    5.4665  -18.8971   23.6225 C   0  0  1  0  0  0  0  0  0  0  0  0
    6.2158  -20.0274   24.3396 C   0  0  0  0  0  0  0  0  0  0  0  0
    5.2680  -21.0961   24.7441 C   0  0  0  0  0  0  0  0  0  0  0  0
    3.9197  -20.9646   24.5156 C   0  0  0  0  0  0  0  0  0  0  0  0
    3.0311  -21.9428   24.8834 C   0  0  0  0  0  0  0  0  0  0  0  0
    3.4713  -23.0936   25.4974 C   0  0  0  0  0  0  0  0  0  0  0  0
    4.8243  -23.2316   25.7296 C   0  0  0  0  0  0  0  0  0  0  0  0
    5.7054  -22.2505   25.3595 C   0  0  0  0  0  0  0  0  0  0  0  0
    6.3994  -17.7474   23.4983 C   0  0  0  0  0  0  0  0  0  0  0  0
    7.0113  -17.5349   22.4379 O   0  0  0  0  0  0  0  0  0  0  0  0
    5.6935  -13.6034   26.9775 C   0  0  0  0  0  0  0  0  0  0  0  0
    6.0646  -14.0841   25.6159 C   0  0  0  0  0  0  0  0  0  0  0  0
    7.4594  -14.7182   25.5831 C   0  0  2  0  0  0  0  0  0  0  0  0
    8.5556  -13.7140   25.6175 C   0  0  0  0  0  0  0  0  0  0  0  0
    7.5756  -15.7637   24.5368 C   0  0  2  0  0  0  0  0  0  0  0  0
    6.6597  -16.8349   24.5332 N   0  0  0  0  0  0  0  0  0  0  0  0
    8.9795  -16.2853   24.5767 C   0  0  0  0  0  0  0  0  0  0  0  0
    9.2759  -17.1323   25.4542 O   0  0  0  0  0  0  0  0  0  0  0  0
    9.9682  -15.8662   23.6772 N   0  0  0  0  0  0  0  0  0  0  0  0
   11.2583  -16.6589   23.5612 C   0  0  1  0  0  0  0  0  0  0  0  0
   11.8251  -16.3321   22.2499 C   0  0  0  0  0  0  0  0  0  0  0  0
   12.7467  -17.2406   21.6055 C   0  0  0  0  0  0  0  0  0  0  0  0
   13.2925  -17.0699   20.2534 C   0  0  0  0  0  0  0  0  0  0  0  0
   14.3428  -18.0660   19.8287 C   0  0  0  0  0  0  0  0  0  0  0  0
   13.8563  -19.3259   19.3763 N   0  0  0  0  0  0  0  0  0  0  0  0
   11.9943  -16.2170   24.7530 C   0  0  0  0  0  0  0  0  0  0  0  0
   11.7912  -15.0494   25.2401 O   0  0  0  0  0  0  0  0  0  0  0  0
   12.9126  -17.0199   25.3944 O   0  0  0  0  0  0  0  0  0  0  0  0
  2  1  1  6
  2  3  1  0
  4  9  2  0
  4  3  1  0
  5  4  1  0
  6  7  1  0
  6  5  2  0
  7  8  2  0
  8  9  1  0
 10  2  1  0
 11 10  2  0
 13 12  1  0
 13 14  1  0
 14 15  1  6
 16 14  1  0
 16 17  1  1
 17 10  1  0
 18 16  1  0
 19 18  2  0
 20 18  1  0
 21 22  1  6
 21 20  1  0
 23 22  1  0
 24 25  1  0
 24 23  1  0
 25 26  1  0
 27 21  1  0
 27 29  1  0
 28 27  2  0
M  END
$$$$
