NVY.pdb
     RDKit          3D

 28 28  0  0  1  0  0  0  0  0999 V2000
   26.2186  -25.6364  -19.6435 N   0  0  0  0  0  0  0  0  0  0  0  0
   26.5750  -24.2819  -19.4369 C   0  0  0  0  0  0  0  0  0  0  0  0
   27.5076  -23.8379  -20.1924 O   0  0  0  0  0  0  0  0  0  0  0  0
   26.0020  -23.3566  -18.4714 C   0  0  0  0  0  0  0  0  0  0  0  0
   26.8292  -23.0492  -17.2743 C   0  0  2  0  0  0  0  0  0  0  0  0
   27.1944  -24.2038  -16.4812 N   0  0  0  0  0  0  0  0  0  0  0  0
   26.2282  -21.9606  -16.4636 C   0  0  0  0  0  0  0  0  0  0  0  0
   25.4358  -22.2583  -15.5069 O   0  0  0  0  0  0  0  0  0  0  0  0
   26.2961  -17.3266  -14.8441 C   0  0  0  0  0  0  0  0  0  0  0  0
   26.8980  -18.4248  -15.6857 C   0  0  1  0  0  0  0  0  0  0  0  0
   28.2357  -18.8377  -15.1110 C   0  0  0  0  0  0  0  0  0  0  0  0
   25.9345  -19.5567  -15.7746 C   0  0  2  0  0  0  0  0  0  0  0  0
   26.4578  -20.5832  -16.6626 N   0  0  0  0  0  0  0  0  0  0  0  0
   24.6087  -19.0832  -16.2740 C   0  0  0  0  0  0  0  0  0  0  0  0
   24.5451  -18.5669  -17.4092 O   0  0  0  0  0  0  0  0  0  0  0  0
   19.1805  -23.1968  -12.5942 O   0  0  0  0  0  0  0  0  0  0  0  0
   19.6948  -22.3356  -13.5543 C   0  0  0  0  0  0  0  0  0  0  0  0
   19.1834  -21.0617  -13.7605 C   0  0  0  0  0  0  0  0  0  0  0  0
   19.6843  -20.2070  -14.7039 C   0  0  0  0  0  0  0  0  0  0  0  0
   20.7395  -20.5876  -15.5032 C   0  0  0  0  0  0  0  0  0  0  0  0
   21.3120  -19.7110  -16.5449 C   0  0  0  0  0  0  0  0  0  0  0  0
   22.1944  -18.6627  -15.9407 C   0  0  2  0  0  0  0  0  0  0  0  0
   23.4549  -19.2169  -15.4804 N   0  0  0  0  0  0  0  0  0  0  0  0
   21.5987  -17.8664  -14.8730 C   0  0  0  0  0  0  0  0  0  0  0  0
   20.5235  -17.0155  -15.1558 O   0  0  0  0  0  0  0  0  0  0  0  0
   21.2659  -21.8541  -15.3155 C   0  0  0  0  0  0  0  0  0  0  0  0
   20.7533  -22.7057  -14.3625 C   0  0  0  0  0  0  0  0  0  0  0  0
   21.9732  -17.8711  -13.6752 O   0  0  0  0  0  0  0  0  0  0  0  0
  1  2  1  0
  2  3  2  0
  4  2  1  0
  5  4  1  0
  5  6  1  1
  7  5  1  0
  7  8  2  0
 10 12  1  0
 10  9  1  1
 11 10  1  0
 12 13  1  6
 13  7  1  0
 14 15  2  0
 14 12  1  0
 16 17  1  0
 17 18  2  0
 18 19  1  0
 20 21  1  0
 20 19  2  0
 22 21  1  1
 22 23  1  0
 23 14  1  0
 24 22  1  0
 25 24  1  0
 26 20  1  0
 27 26  2  0
 27 17  1  0
 28 24  2  0
M  END
$$$$
