NVY.pdb
     RDKit          3D

 28 28  0  0  1  0  0  0  0  0999 V2000
   27.1611  -19.2286  -19.9559 N   0  0  0  0  0  0  0  0  0  0  0  0
   26.1049  -19.4042  -19.0296 C   0  0  0  0  0  0  0  0  0  0  0  0
   24.9850  -18.8862  -19.3689 O   0  0  0  0  0  0  0  0  0  0  0  0
   26.1580  -20.1000  -17.7530 C   0  0  0  0  0  0  0  0  0  0  0  0
   27.4997  -20.5529  -17.2987 C   0  0  2  0  0  0  0  0  0  0  0  0
   28.1182  -21.5502  -18.1461 N   0  0  0  0  0  0  0  0  0  0  0  0
   27.4853  -20.9430  -15.8665 C   0  0  0  0  0  0  0  0  0  0  0  0
   27.0851  -22.1116  -15.5411 O   0  0  0  0  0  0  0  0  0  0  0  0
   28.9743  -20.5066  -11.2482 C   0  0  0  0  0  0  0  0  0  0  0  0
   29.0517  -20.0723  -12.6912 C   0  0  1  0  0  0  0  0  0  0  0  0
   30.3272  -20.5937  -13.3167 C   0  0  0  0  0  0  0  0  0  0  0  0
   27.8290  -20.5317  -13.4063 C   0  0  2  0  0  0  0  0  0  0  0  0
   27.8833  -20.1124  -14.7983 N   0  0  0  0  0  0  0  0  0  0  0  0
   26.6007  -19.9806  -12.7592 C   0  0  0  0  0  0  0  0  0  0  0  0
   26.0594  -18.9731  -13.2605 O   0  0  0  0  0  0  0  0  0  0  0  0
   18.2889  -20.0975  -11.4022 O   0  0  0  0  0  0  0  0  0  0  0  0
   19.6351  -20.3235  -11.6562 C   0  0  0  0  0  0  0  0  0  0  0  0
   20.2723  -21.5020  -11.2931 C   0  0  0  0  0  0  0  0  0  0  0  0
   21.5981  -21.7328  -11.5398 C   0  0  0  0  0  0  0  0  0  0  0  0
   22.3680  -20.7819  -12.1725 C   0  0  0  0  0  0  0  0  0  0  0  0
   23.8054  -20.9725  -12.4531 C   0  0  0  0  0  0  0  0  0  0  0  0
   24.6463  -20.4646  -11.3229 C   0  0  2  0  0  0  0  0  0  0  0  0
   26.0648  -20.5855  -11.6077 N   0  0  0  0  0  0  0  0  0  0  0  0
   24.3665  -21.0402  -10.0117 C   0  0  0  0  0  0  0  0  0  0  0  0
   24.9398  -22.2660   -9.6525 O   0  0  0  0  0  0  0  0  0  0  0  0
   21.7537  -19.5983  -12.5438 C   0  0  0  0  0  0  0  0  0  0  0  0
   20.4183  -19.3774  -12.2902 C   0  0  0  0  0  0  0  0  0  0  0  0
   23.6306  -20.5204   -9.1381 O   0  0  0  0  0  0  0  0  0  0  0  0
  1  2  1  0
  2  3  2  0
  4  2  1  0
  5  4  1  0
  5  6  1  6
  7  5  1  0
  7  8  2  0
 10 12  1  0
 10  9  1  1
 11 10  1  0
 12 13  1  6
 13  7  1  0
 14 15  2  0
 14 12  1  0
 16 17  1  0
 17 18  2  0
 18 19  1  0
 20 21  1  0
 20 19  2  0
 22 21  1  6
 22 23  1  0
 23 14  1  0
 24 22  1  0
 25 24  1  0
 26 20  1  0
 27 26  2  0
 27 17  1  0
 28 24  2  0
M  END
$$$$
