NVY.pdb
     RDKit          3D

 28 28  0  0  1  0  0  0  0  0999 V2000
   28.5996  -23.4510  -20.4072 N   0  0  0  0  0  0  0  0  0  0  0  0
   27.5499  -24.0480  -19.6681 C   0  0  0  0  0  0  0  0  0  0  0  0
   26.9509  -25.0177  -20.2499 O   0  0  0  0  0  0  0  0  0  0  0  0
   27.0879  -23.6807  -18.3383 C   0  0  0  0  0  0  0  0  0  0  0  0
   27.8916  -22.6601  -17.6143 C   0  0  2  0  0  0  0  0  0  0  0  0
   29.2960  -22.9836  -17.4790 N   0  0  0  0  0  0  0  0  0  0  0  0
   27.2599  -22.2864  -16.3240 C   0  0  0  0  0  0  0  0  0  0  0  0
   27.7352  -22.7576  -15.2359 O   0  0  0  0  0  0  0  0  0  0  0  0
   28.0573  -20.5604  -14.3539 C   0  0  0  0  0  0  0  0  0  0  0  0
   26.6916  -19.9200  -14.3930 C   0  0  1  0  0  0  0  0  0  0  0  0
   26.7405  -18.6565  -15.2244 C   0  0  0  0  0  0  0  0  0  0  0  0
   25.7024  -20.9087  -14.9041 C   0  0  2  0  0  0  0  0  0  0  0  0
   26.1449  -21.4335  -16.1867 N   0  0  0  0  0  0  0  0  0  0  0  0
   24.3556  -20.2797  -15.0521 C   0  0  0  0  0  0  0  0  0  0  0  0
   24.2066  -19.3738  -15.8986 O   0  0  0  0  0  0  0  0  0  0  0  0
   16.0824  -19.1116  -16.8365 O   0  0  0  0  0  0  0  0  0  0  0  0
   17.3679  -19.5597  -16.5643 C   0  0  0  0  0  0  0  0  0  0  0  0
   18.4826  -19.0694  -17.2306 C   0  0  0  0  0  0  0  0  0  0  0  0
   19.7526  -19.5053  -16.9683 C   0  0  0  0  0  0  0  0  0  0  0  0
   19.9778  -20.4695  -16.0108 C   0  0  0  0  0  0  0  0  0  0  0  0
   21.3252  -20.9854  -15.6951 C   0  0  0  0  0  0  0  0  0  0  0  0
   21.9341  -20.2352  -14.5509 C   0  0  2  0  0  0  0  0  0  0  0  0
   23.2768  -20.7003  -14.2532 N   0  0  0  0  0  0  0  0  0  0  0  0
   21.1504  -20.2035  -13.3206 C   0  0  0  0  0  0  0  0  0  0  0  0
   20.2233  -19.1754  -13.1118 O   0  0  0  0  0  0  0  0  0  0  0  0
   18.8808  -20.9733  -15.3333 C   0  0  0  0  0  0  0  0  0  0  0  0
   17.6070  -20.5267  -15.6060 C   0  0  0  0  0  0  0  0  0  0  0  0
   21.2308  -21.0445  -12.3926 O   0  0  0  0  0  0  0  0  0  0  0  0
  1  2  1  0
  2  3  2  0
  4  2  1  0
  5  4  1  0
  5  6  1  1
  7  5  1  0
  7  8  2  0
 10 12  1  0
 10  9  1  6
 11 10  1  0
 12 13  1  6
 13  7  1  0
 14 15  2  0
 14 12  1  0
 16 17  1  0
 17 18  2  0
 18 19  1  0
 20 21  1  0
 20 19  2  0
 22 21  1  6
 22 23  1  0
 23 14  1  0
 24 22  1  0
 25 24  1  0
 26 20  1  0
 27 26  2  0
 27 17  1  0
 28 24  2  0
M  END
$$$$
