NVY.pdb
     RDKit          3D

 28 28  0  0  1  0  0  0  0  0999 V2000
   18.6043  -13.0901  -20.4764 N   0  0  0  0  0  0  0  0  0  0  0  0
   19.9640  -12.7806  -20.2314 C   0  0  0  0  0  0  0  0  0  0  0  0
   20.7799  -13.1197  -21.1571 O   0  0  0  0  0  0  0  0  0  0  0  0
   20.5221  -12.1286  -19.0567 C   0  0  0  0  0  0  0  0  0  0  0  0
   21.7086  -12.7773  -18.4378 C   0  0  2  0  0  0  0  0  0  0  0  0
   21.5037  -14.1537  -18.0390 N   0  0  0  0  0  0  0  0  0  0  0  0
   22.2796  -11.9421  -17.3515 C   0  0  0  0  0  0  0  0  0  0  0  0
   21.6528  -11.8449  -16.2427 O   0  0  0  0  0  0  0  0  0  0  0  0
   26.1428  -10.0262  -15.0980 C   0  0  0  0  0  0  0  0  0  0  0  0
   25.5327  -10.8244  -16.2239 C   0  0  1  0  0  0  0  0  0  0  0  0
   25.8166  -12.2970  -16.0220 C   0  0  0  0  0  0  0  0  0  0  0  0
   24.0766  -10.5234  -16.3036 C   0  0  2  0  0  0  0  0  0  0  0  0
   23.4886  -11.2207  -17.4369 N   0  0  0  0  0  0  0  0  0  0  0  0
   23.8481   -9.0535  -16.4398 C   0  0  0  0  0  0  0  0  0  0  0  0
   24.0908   -8.5080  -17.5365 O   0  0  0  0  0  0  0  0  0  0  0  0
   20.4932   -1.3004  -17.3609 O   0  0  0  0  0  0  0  0  0  0  0  0
   20.8814   -2.6216  -17.1839 C   0  0  0  0  0  0  0  0  0  0  0  0
   21.9511   -2.9801  -16.3750 C   0  0  0  0  0  0  0  0  0  0  0  0
   22.3399   -4.2794  -16.1951 C   0  0  0  0  0  0  0  0  0  0  0  0
   21.6688   -5.3042  -16.8248 C   0  0  0  0  0  0  0  0  0  0  0  0
   22.0523   -6.7228  -16.6763 C   0  0  0  0  0  0  0  0  0  0  0  0
   23.0148   -6.9043  -15.5435 C   0  0  2  0  0  0  0  0  0  0  0  0
   23.3687   -8.2994  -15.3533 N   0  0  0  0  0  0  0  0  0  0  0  0
   22.6096   -6.3304  -14.2648 C   0  0  0  0  0  0  0  0  0  0  0  0
   21.7195   -7.0278  -13.4392 O   0  0  0  0  0  0  0  0  0  0  0  0
   20.5985   -4.9705  -17.6368 C   0  0  0  0  0  0  0  0  0  0  0  0
   20.2163   -3.6589  -17.8102 C   0  0  0  0  0  0  0  0  0  0  0  0
   22.9985   -5.2253  -13.8147 O   0  0  0  0  0  0  0  0  0  0  0  0
  1  2  1  0
  2  3  2  0
  4  2  1  0
  5  4  1  0
  5  6  1  1
  7  5  1  0
  7  8  2  0
 10 12  1  0
 10  9  1  1
 11 10  1  0
 12 13  1  6
 13  7  1  0
 14 15  2  0
 14 12  1  0
 16 17  1  0
 17 18  2  0
 18 19  1  0
 20 21  1  0
 20 19  2  0
 22 21  1  6
 22 23  1  0
 23 14  1  0
 24 22  1  0
 25 24  1  0
 26 20  1  0
 27 26  2  0
 27 17  1  0
 28 24  2  0
M  END
$$$$
