NVY.pdb
     RDKit          3D

 28 28  0  0  1  0  0  0  0  0999 V2000
   21.2000  -17.1392  -17.9786 N   0  0  0  0  0  0  0  0  0  0  0  0
   21.4775  -17.2567  -16.5952 C   0  0  0  0  0  0  0  0  0  0  0  0
   20.8621  -16.4276  -15.8392 O   0  0  0  0  0  0  0  0  0  0  0  0
   22.3743  -18.2054  -15.9532 C   0  0  0  0  0  0  0  0  0  0  0  0
   23.2168  -19.0369  -16.8535 C   0  0  2  0  0  0  0  0  0  0  0  0
   22.4756  -19.8231  -17.8168 N   0  0  0  0  0  0  0  0  0  0  0  0
   24.1998  -19.8429  -16.0869 C   0  0  0  0  0  0  0  0  0  0  0  0
   23.8516  -20.9837  -15.6298 O   0  0  0  0  0  0  0  0  0  0  0  0
   28.7714  -20.7274  -14.4872 C   0  0  0  0  0  0  0  0  0  0  0  0
   27.8313  -20.0504  -15.4539 C   0  0  1  0  0  0  0  0  0  0  0  0
   28.0617  -20.5822  -16.8519 C   0  0  0  0  0  0  0  0  0  0  0  0
   26.4300  -20.2411  -14.9880 C   0  0  2  0  0  0  0  0  0  0  0  0
   25.5246  -19.4488  -15.8059 N   0  0  0  0  0  0  0  0  0  0  0  0
   26.2924  -19.8470  -13.5537 C   0  0  0  0  0  0  0  0  0  0  0  0
   26.3832  -18.6385  -13.2525 O   0  0  0  0  0  0  0  0  0  0  0  0
   19.7076  -21.8313  -11.9377 O   0  0  0  0  0  0  0  0  0  0  0  0
   20.9448  -21.2456  -11.7052 C   0  0  0  0  0  0  0  0  0  0  0  0
   21.4669  -21.0935  -10.4281 C   0  0  0  0  0  0  0  0  0  0  0  0
   22.6850  -20.5178  -10.1903 C   0  0  0  0  0  0  0  0  0  0  0  0
   23.4567  -20.0568  -11.2339 C   0  0  0  0  0  0  0  0  0  0  0  0
   24.7728  -19.4166  -11.0349 C   0  0  0  0  0  0  0  0  0  0  0  0
   25.8826  -20.4114  -11.1809 C   0  0  2  0  0  0  0  0  0  0  0  0
   26.0649  -20.8189  -12.5624 N   0  0  0  0  0  0  0  0  0  0  0  0
   25.7906  -21.5975  -10.3360 C   0  0  0  0  0  0  0  0  0  0  0  0
   25.7385  -21.4585   -8.9439 O   0  0  0  0  0  0  0  0  0  0  0  0
   22.9562  -20.1978  -12.5168 C   0  0  0  0  0  0  0  0  0  0  0  0
   21.7286  -20.7790  -12.7438 C   0  0  0  0  0  0  0  0  0  0  0  0
   25.7520  -22.7799  -10.7549 O   0  0  0  0  0  0  0  0  0  0  0  0
  1  2  1  0
  2  3  2  0
  4  2  1  0
  5  4  1  0
  5  6  1  1
  7  5  1  0
  7  8  2  0
 10 12  1  0
 10  9  1  1
 11 10  1  0
 12 13  1  6
 13  7  1  0
 14 15  2  0
 14 12  1  0
 16 17  1  0
 17 18  2  0
 18 19  1  0
 20 21  1  0
 20 19  2  0
 22 21  1  6
 22 23  1  0
 23 14  1  0
 24 22  1  0
 25 24  1  0
 26 20  1  0
 27 26  2  0
 27 17  1  0
 28 24  2  0
M  END
$$$$
