NVY.pdb
     RDKit          3D

 28 28  0  0  1  0  0  0  0  0999 V2000
   16.8266  -10.5780  -20.0436 N   0  0  0  0  0  0  0  0  0  0  0  0
   16.7031   -9.5022  -19.1315 C   0  0  0  0  0  0  0  0  0  0  0  0
   15.9131   -8.5629  -19.4938 O   0  0  0  0  0  0  0  0  0  0  0  0
   17.3692   -9.3545  -17.8466 C   0  0  0  0  0  0  0  0  0  0  0  0
   18.2563  -10.4716  -17.4260 C   0  0  2  0  0  0  0  0  0  0  0  0
   17.5711  -11.7195  -17.1636 N   0  0  0  0  0  0  0  0  0  0  0  0
   19.1548  -10.0639  -16.3169 C   0  0  0  0  0  0  0  0  0  0  0  0
   18.8027  -10.2938  -15.1107 O   0  0  0  0  0  0  0  0  0  0  0  0
   23.4685   -9.0896  -14.3839 C   0  0  0  0  0  0  0  0  0  0  0  0
   22.5625   -9.6655  -15.4443 C   0  0  1  0  0  0  0  0  0  0  0  0
   22.4843  -11.1690  -15.2917 C   0  0  0  0  0  0  0  0  0  0  0  0
   21.2297   -9.0070  -15.3591 C   0  0  2  0  0  0  0  0  0  0  0  0
   20.4002   -9.4222  -16.4797 N   0  0  0  0  0  0  0  0  0  0  0  0
   21.3745   -7.5203  -15.3600 C   0  0  0  0  0  0  0  0  0  0  0  0
   21.7946   -6.9593  -16.3935 O   0  0  0  0  0  0  0  0  0  0  0  0
   16.6532   -4.4599  -18.6079 O   0  0  0  0  0  0  0  0  0  0  0  0
   17.4493   -4.4870  -17.4708 C   0  0  0  0  0  0  0  0  0  0  0  0
   18.2215   -3.4024  -17.0781 C   0  0  0  0  0  0  0  0  0  0  0  0
   19.0084   -3.4207  -15.9591 C   0  0  0  0  0  0  0  0  0  0  0  0
   19.0652   -4.5425  -15.1618 C   0  0  0  0  0  0  0  0  0  0  0  0
   19.9060   -4.6221  -13.9501 C   0  0  0  0  0  0  0  0  0  0  0  0
   21.1975   -5.3240  -14.2366 C   0  0  2  0  0  0  0  0  0  0  0  0
   21.0436   -6.7676  -14.2185 N   0  0  0  0  0  0  0  0  0  0  0  0
   22.3275   -4.9485  -13.3935 C   0  0  0  0  0  0  0  0  0  0  0  0
   23.1224   -3.8502  -13.7429 O   0  0  0  0  0  0  0  0  0  0  0  0
   18.3034   -5.6367  -15.5340 C   0  0  0  0  0  0  0  0  0  0  0  0
   17.5149   -5.6065  -16.6626 C   0  0  0  0  0  0  0  0  0  0  0  0
   22.6699   -5.5401  -12.3410 O   0  0  0  0  0  0  0  0  0  0  0  0
  1  2  1  0
  2  3  2  0
  4  2  1  0
  5  4  1  0
  5  6  1  1
  7  5  1  0
  7  8  2  0
 10 12  1  0
 10  9  1  1
 11 10  1  0
 12 13  1  6
 13  7  1  0
 14 15  2  0
 14 12  1  0
 16 17  1  0
 17 18  2  0
 18 19  1  0
 20 21  1  0
 20 19  2  0
 22 21  1  1
 22 23  1  0
 23 14  1  0
 24 22  1  0
 25 24  1  0
 26 20  1  0
 27 26  2  0
 27 17  1  0
 28 24  2  0
M  END
$$$$
