NVY.pdb
     RDKit          3D

 28 28  0  0  1  0  0  0  0  0999 V2000
   22.3345  -16.7294  -15.7544 N   0  0  0  0  0  0  0  0  0  0  0  0
   21.9739  -17.3632  -14.5408 C   0  0  0  0  0  0  0  0  0  0  0  0
   20.9783  -16.8456  -13.9256 O   0  0  0  0  0  0  0  0  0  0  0  0
   22.6061  -18.5222  -13.9294 C   0  0  0  0  0  0  0  0  0  0  0  0
   23.7755  -19.0965  -14.6467 C   0  0  2  0  0  0  0  0  0  0  0  0
   23.5078  -19.4984  -16.0113 N   0  0  0  0  0  0  0  0  0  0  0  0
   24.4307  -20.1640  -13.8501 C   0  0  0  0  0  0  0  0  0  0  0  0
   23.8032  -21.2549  -13.6313 O   0  0  0  0  0  0  0  0  0  0  0  0
   27.3403  -22.0314  -14.5436 C   0  0  0  0  0  0  0  0  0  0  0  0
   27.6024  -21.5785  -13.1284 C   0  0  1  0  0  0  0  0  0  0  0  0
   28.6506  -20.4870  -13.1243 C   0  0  0  0  0  0  0  0  0  0  0  0
   26.3194  -21.1483  -12.5070 C   0  0  2  0  0  0  0  0  0  0  0  0
   25.7235  -20.0787  -13.2926 N   0  0  0  0  0  0  0  0  0  0  0  0
   26.5418  -20.6831  -11.1051 C   0  0  0  0  0  0  0  0  0  0  0  0
   27.4977  -19.9139  -10.8730 O   0  0  0  0  0  0  0  0  0  0  0  0
   29.0551  -19.2624   -3.2814 O   0  0  0  0  0  0  0  0  0  0  0  0
   28.4366  -19.3372   -4.5222 C   0  0  0  0  0  0  0  0  0  0  0  0
   27.0952  -19.6641   -4.6655 C   0  0  0  0  0  0  0  0  0  0  0  0
   26.4781  -19.7397   -5.8842 C   0  0  0  0  0  0  0  0  0  0  0  0
   27.1814  -19.4883   -7.0415 C   0  0  0  0  0  0  0  0  0  0  0  0
   26.5696  -19.5671   -8.3835 C   0  0  0  0  0  0  0  0  0  0  0  0
   26.1122  -20.9607   -8.6853 C   0  0  2  0  0  0  0  0  0  0  0  0
   25.6904  -21.1038  -10.0672 N   0  0  0  0  0  0  0  0  0  0  0  0
   25.0773  -21.4961   -7.8070 C   0  0  0  0  0  0  0  0  0  0  0  0
   25.4371  -22.1193   -6.6060 O   0  0  0  0  0  0  0  0  0  0  0  0
   28.5210  -19.1603   -6.9230 C   0  0  0  0  0  0  0  0  0  0  0  0
   29.1313  -19.0872   -5.6907 C   0  0  0  0  0  0  0  0  0  0  0  0
   23.8439  -21.4496   -8.0340 O   0  0  0  0  0  0  0  0  0  0  0  0
  1  2  1  0
  2  3  2  0
  4  2  1  0
  5  4  1  0
  5  6  1  6
  7  5  1  0
  7  8  2  0
 10 12  1  0
 10  9  1  6
 11 10  1  0
 12 13  1  6
 13  7  1  0
 14 15  2  0
 14 12  1  0
 16 17  1  0
 17 18  2  0
 18 19  1  0
 20 21  1  0
 20 19  2  0
 22 21  1  1
 22 23  1  0
 23 14  1  0
 24 22  1  0
 25 24  1  0
 26 20  1  0
 27 26  2  0
 27 17  1  0
 28 24  2  0
M  END
$$$$
