NVY.pdb
     RDKit          3D

 28 28  0  0  1  0  0  0  0  0999 V2000
   14.1648   -7.8329   -7.1489 N   0  0  0  0  0  0  0  0  0  0  0  0
   15.0675   -7.1151   -7.9701 C   0  0  0  0  0  0  0  0  0  0  0  0
   15.7240   -6.1863   -7.3835 O   0  0  0  0  0  0  0  0  0  0  0  0
   15.3230   -7.3187   -9.3878 C   0  0  0  0  0  0  0  0  0  0  0  0
   14.8884   -6.2308  -10.3040 C   0  0  2  0  0  0  0  0  0  0  0  0
   13.4601   -5.9969  -10.3273 N   0  0  0  0  0  0  0  0  0  0  0  0
   15.4664   -6.3999  -11.6608 C   0  0  0  0  0  0  0  0  0  0  0  0
   15.0147   -7.3208  -12.4221 O   0  0  0  0  0  0  0  0  0  0  0  0
   17.6714   -4.5779  -15.5881 C   0  0  0  0  0  0  0  0  0  0  0  0
   16.9729   -4.4462  -14.2571 C   0  0  1  0  0  0  0  0  0  0  0  0
   15.5745   -3.9056  -14.4624 C   0  0  0  0  0  0  0  0  0  0  0  0
   16.9858   -5.7649  -13.5655 C   0  0  2  0  0  0  0  0  0  0  0  0
   16.5044   -5.6126  -12.2012 N   0  0  0  0  0  0  0  0  0  0  0  0
   18.3635   -6.3418  -13.5547 C   0  0  0  0  0  0  0  0  0  0  0  0
   19.2085   -5.8618  -12.7705 O   0  0  0  0  0  0  0  0  0  0  0  0
   25.4767  -11.0541  -15.5993 O   0  0  0  0  0  0  0  0  0  0  0  0
   24.1644  -10.6419  -15.4107 C   0  0  0  0  0  0  0  0  0  0  0  0
   23.3723  -10.1829  -16.4542 C   0  0  0  0  0  0  0  0  0  0  0  0
   22.0784   -9.7752  -16.2770 C   0  0  0  0  0  0  0  0  0  0  0  0
   21.5000   -9.8055  -15.0273 C   0  0  0  0  0  0  0  0  0  0  0  0
   20.1124   -9.3663  -14.7763 C   0  0  0  0  0  0  0  0  0  0  0  0
   20.0629   -7.9094  -14.4331 C   0  0  2  0  0  0  0  0  0  0  0  0
   18.7017   -7.4052  -14.4114 N   0  0  0  0  0  0  0  0  0  0  0  0
   20.8895   -7.0325  -15.2557 C   0  0  0  0  0  0  0  0  0  0  0  0
   20.4211   -6.6024  -16.5030 O   0  0  0  0  0  0  0  0  0  0  0  0
   22.2712  -10.2595  -13.9712 C   0  0  0  0  0  0  0  0  0  0  0  0
   23.5726  -10.6675  -14.1618 C   0  0  0  0  0  0  0  0  0  0  0  0
   22.0277   -6.6089  -14.9394 O   0  0  0  0  0  0  0  0  0  0  0  0
  1  2  1  0
  2  3  2  0
  4  2  1  0
  5  4  1  0
  5  6  1  6
  7  5  1  0
  7  8  2  0
 10 12  1  0
 10  9  1  6
 11 10  1  0
 12 13  1  1
 13  7  1  0
 14 15  2  0
 14 12  1  0
 16 17  1  0
 17 18  2  0
 18 19  1  0
 20 21  1  0
 20 19  2  0
 22 21  1  6
 22 23  1  0
 23 14  1  0
 24 22  1  0
 25 24  1  0
 26 20  1  0
 27 26  2  0
 27 17  1  0
 28 24  2  0
M  END
$$$$
