NVY.pdb
     RDKit          3D

 28 28  0  0  1  0  0  0  0  0999 V2000
   29.5765  -20.2197  -17.6989 N   0  0  0  0  0  0  0  0  0  0  0  0
   28.1842  -19.9659  -17.6586 C   0  0  0  0  0  0  0  0  0  0  0  0
   27.7418  -19.1839  -18.5698 O   0  0  0  0  0  0  0  0  0  0  0  0
   27.2192  -20.4920  -16.7054 C   0  0  0  0  0  0  0  0  0  0  0  0
   27.7656  -21.3095  -15.5897 C   0  0  2  0  0  0  0  0  0  0  0  0
   28.5238  -22.4697  -16.0075 N   0  0  0  0  0  0  0  0  0  0  0  0
   26.7168  -21.6361  -14.5912 C   0  0  0  0  0  0  0  0  0  0  0  0
   25.9637  -22.6496  -14.7847 O   0  0  0  0  0  0  0  0  0  0  0  0
   24.6326  -21.0200  -10.1629 C   0  0  0  0  0  0  0  0  0  0  0  0
   25.7721  -20.7376  -11.1108 C   0  0  1  0  0  0  0  0  0  0  0  0
   27.0544  -21.3239  -10.5614 C   0  0  0  0  0  0  0  0  0  0  0  0
   25.4282  -21.2655  -12.4600 C   0  0  2  0  0  0  0  0  0  0  0  0
   26.4666  -20.9034  -13.4123 N   0  0  0  0  0  0  0  0  0  0  0  0
   24.1119  -20.7276  -12.9175 C   0  0  0  0  0  0  0  0  0  0  0  0
   23.9998  -19.4985  -13.1079 O   0  0  0  0  0  0  0  0  0  0  0  0
   16.3729  -19.4384  -16.5909 O   0  0  0  0  0  0  0  0  0  0  0  0
   17.6065  -19.9400  -16.1979 C   0  0  0  0  0  0  0  0  0  0  0  0
   17.7423  -21.1689  -15.5669 C   0  0  0  0  0  0  0  0  0  0  0  0
   18.9538  -21.6706  -15.1767 C   0  0  0  0  0  0  0  0  0  0  0  0
   20.1111  -20.9581  -15.4007 C   0  0  0  0  0  0  0  0  0  0  0  0
   21.4436  -21.4453  -14.9902 C   0  0  0  0  0  0  0  0  0  0  0  0
   21.7506  -21.0482  -13.5793 C   0  0  2  0  0  0  0  0  0  0  0  0
   23.0205  -21.5894  -13.1296 N   0  0  0  0  0  0  0  0  0  0  0  0
   20.7196  -21.3530  -12.5929 C   0  0  0  0  0  0  0  0  0  0  0  0
   19.8152  -20.3588  -12.2007 O   0  0  0  0  0  0  0  0  0  0  0  0
   20.0001  -19.7294  -16.0287 C   0  0  0  0  0  0  0  0  0  0  0  0
   18.7749  -19.2348  -16.4170 C   0  0  0  0  0  0  0  0  0  0  0  0
   20.5586  -22.4676  -12.0389 O   0  0  0  0  0  0  0  0  0  0  0  0
  1  2  1  0
  2  3  2  0
  4  2  1  0
  5  4  1  0
  5  6  1  6
  7  5  1  0
  7  8  2  0
 10 12  1  0
 10  9  1  1
 11 10  1  0
 12 13  1  6
 13  7  1  0
 14 15  2  0
 14 12  1  0
 16 17  1  0
 17 18  2  0
 18 19  1  0
 20 21  1  0
 20 19  2  0
 22 21  1  6
 22 23  1  0
 23 14  1  0
 24 22  1  0
 25 24  1  0
 26 20  1  0
 27 26  2  0
 27 17  1  0
 28 24  2  0
M  END
$$$$
