NFV.pdb
     RDKit          3D

 27 27  0  0  1  0  0  0  0  0999 V2000
   11.0275  -17.7642   17.3804 N   0  0  0  0  0  0  0  0  0  0  0  0
   11.6554  -17.5375   18.6267 C   0  0  0  0  0  0  0  0  0  0  0  0
   12.6372  -18.2756   18.9307 O   0  0  0  0  0  0  0  0  0  0  0  0
   11.2073  -16.4813   19.5713 C   0  0  0  0  0  0  0  0  0  0  0  0
   10.9461  -17.1282   20.9193 C   0  0  2  0  0  0  0  0  0  0  0  0
    9.9006  -18.1037   20.8258 N   0  0  0  0  0  0  0  0  0  0  0  0
   10.6454  -16.1214   21.9690 C   0  0  0  0  0  0  0  0  0  0  0  0
   11.5019  -15.2060   22.1570 O   0  0  0  0  0  0  0  0  0  0  0  0
    9.4508  -16.2292   22.6892 N   0  0  0  0  0  0  0  0  0  0  0  0
    9.1779  -15.3232   23.7986 C   0  0  1  0  0  0  0  0  0  0  0  0
    7.6847  -15.1508   23.9492 C   0  0  0  0  0  0  0  0  0  0  0  0
    7.2606  -14.0668   24.8371 C   0  0  0  0  0  0  0  0  0  0  0  0
    6.4628  -14.3727   25.9456 C   0  0  0  0  0  0  0  0  0  0  0  0
    6.0458  -13.4298   26.8431 C   0  0  0  0  0  0  0  0  0  0  0  0
    6.4006  -12.1204   26.6884 C   0  0  0  0  0  0  0  0  0  0  0  0
    7.1868  -11.7977   25.6017 C   0  0  0  0  0  0  0  0  0  0  0  0
    7.6123  -12.7342   24.6934 C   0  0  0  0  0  0  0  0  0  0  0  0
    9.8698  -15.8757   24.9621 C   0  0  0  0  0  0  0  0  0  0  0  0
   10.7670  -16.7880   24.8274 O   0  0  0  0  0  0  0  0  0  0  0  0
    9.4563  -14.3951   29.0275 C   0  0  0  0  0  0  0  0  0  0  0  0
   10.7366  -14.7605   28.3081 C   0  0  2  0  0  0  0  0  0  0  0  0
   11.2905  -13.6409   27.4787 C   0  0  0  0  0  0  0  0  0  0  0  0
   10.5120  -15.9780   27.3974 C   0  0  2  0  0  0  0  0  0  0  0  0
    9.6669  -15.5039   26.3237 N   0  0  0  0  0  0  0  0  0  0  0  0
    9.9832  -17.1142   28.1460 C   0  0  0  0  0  0  0  0  0  0  0  0
   10.7867  -17.6759   28.9672 O   0  0  0  0  0  0  0  0  0  0  0  0
    8.7304  -17.6551   28.0783 O   0  0  0  0  0  0  0  0  0  0  0  0
  2  1  1  0
  3  2  2  0
  4  2  1  0
  5  4  1  0
  5  6  1  6
  7  8  2  0
  7  5  1  0
  9  7  1  0
 10  9  1  0
 10 11  1  1
 11 12  1  0
 12 13  2  0
 12 17  1  0
 13 14  1  0
 14 15  2  0
 16 15  1  0
 17 16  2  0
 18 10  1  0
 19 18  2  0
 21 23  1  0
 21 20  1  6
 22 21  1  0
 23 24  1  6
 24 18  1  0
 25 27  1  0
 25 23  1  0
 26 25  2  0
M  END
$$$$
