NFV.pdb
     RDKit          3D

 27 27  0  0  1  0  0  0  0  0999 V2000
   11.0626  -18.3421   18.0794 N   0  0  0  0  0  0  0  0  0  0  0  0
   10.3596  -17.1263   18.2422 C   0  0  0  0  0  0  0  0  0  0  0  0
    9.5727  -16.7761   17.3153 O   0  0  0  0  0  0  0  0  0  0  0  0
   10.5132  -16.2644   19.4433 C   0  0  0  0  0  0  0  0  0  0  0  0
    9.7500  -16.9042   20.5887 C   0  0  2  0  0  0  0  0  0  0  0  0
    8.3971  -17.1859   20.2092 N   0  0  0  0  0  0  0  0  0  0  0  0
    9.7980  -16.0743   21.8195 C   0  0  0  0  0  0  0  0  0  0  0  0
   10.9229  -15.5929   22.1508 O   0  0  0  0  0  0  0  0  0  0  0  0
    8.6189  -15.8666   22.5434 N   0  0  0  0  0  0  0  0  0  0  0  0
    8.6651  -15.2340   23.8563 C   0  0  1  0  0  0  0  0  0  0  0  0
    7.2998  -14.6838   24.1959 C   0  0  0  0  0  0  0  0  0  0  0  0
    7.2476  -13.7985   25.3607 C   0  0  0  0  0  0  0  0  0  0  0  0
    8.4460  -13.4151   25.9737 C   0  0  0  0  0  0  0  0  0  0  0  0
    8.4938  -12.5688   27.0462 C   0  0  0  0  0  0  0  0  0  0  0  0
    7.3450  -12.0523   27.5736 C   0  0  0  0  0  0  0  0  0  0  0  0
    6.1527  -12.4180   26.9838 C   0  0  0  0  0  0  0  0  0  0  0  0
    6.0906  -13.2664   25.9070 C   0  0  0  0  0  0  0  0  0  0  0  0
    9.1881  -16.2392   24.7803 C   0  0  0  0  0  0  0  0  0  0  0  0
    9.3261  -17.4654   24.4161 O   0  0  0  0  0  0  0  0  0  0  0  0
   12.5660  -16.1393   26.2018 C   0  0  0  0  0  0  0  0  0  0  0  0
   11.5979  -17.2972   26.0916 C   0  0  2  0  0  0  0  0  0  0  0  0
   11.2089  -17.6119   24.6781 C   0  0  0  0  0  0  0  0  0  0  0  0
   10.3211  -17.0081   26.8967 C   0  0  2  0  0  0  0  0  0  0  0  0
    9.5982  -16.0188   26.1282 N   0  0  0  0  0  0  0  0  0  0  0  0
   10.6318  -16.6201   28.2692 C   0  0  0  0  0  0  0  0  0  0  0  0
   11.1557  -17.5223   29.0088 O   0  0  0  0  0  0  0  0  0  0  0  0
   10.4317  -15.4071   28.8652 O   0  0  0  0  0  0  0  0  0  0  0  0
  2  1  1  0
  3  2  2  0
  4  2  1  0
  5  4  1  0
  5  6  1  6
  7  8  2  0
  7  5  1  0
  9  7  1  0
 10  9  1  0
 10 11  1  1
 11 12  1  0
 12 13  2  0
 12 17  1  0
 13 14  1  0
 14 15  2  0
 16 15  1  0
 17 16  2  0
 18 10  1  0
 19 18  2  0
 21 23  1  0
 21 20  1  6
 22 21  1  0
 23 24  1  6
 24 18  1  0
 25 27  1  0
 25 23  1  0
 26 25  2  0
M  END
$$$$
