NFV.pdb
     RDKit          3D

 27 27  0  0  1  0  0  0  0  0999 V2000
   13.7933  -17.6793   18.9542 N   0  0  0  0  0  0  0  0  0  0  0  0
   12.4137  -17.3926   19.0709 C   0  0  0  0  0  0  0  0  0  0  0  0
   11.6194  -18.0158   18.3082 O   0  0  0  0  0  0  0  0  0  0  0  0
   11.8787  -16.4022   20.0414 C   0  0  0  0  0  0  0  0  0  0  0  0
   11.2842  -17.1594   21.2149 C   0  0  2  0  0  0  0  0  0  0  0  0
   10.1661  -17.9534   20.7993 N   0  0  0  0  0  0  0  0  0  0  0  0
   10.9100  -16.2512   22.3290 C   0  0  0  0  0  0  0  0  0  0  0  0
   11.7740  -15.4005   22.6989 O   0  0  0  0  0  0  0  0  0  0  0  0
    9.6425  -16.3755   22.9082 N   0  0  0  0  0  0  0  0  0  0  0  0
    9.2318  -15.4724   23.9767 C   0  0  1  0  0  0  0  0  0  0  0  0
    7.7475  -15.2122   23.8702 C   0  0  0  0  0  0  0  0  0  0  0  0
    7.2198  -14.1872   24.7725 C   0  0  0  0  0  0  0  0  0  0  0  0
    7.5452  -12.8463   24.5379 C   0  0  0  0  0  0  0  0  0  0  0  0
    7.0737  -11.8218   25.3103 C   0  0  0  0  0  0  0  0  0  0  0  0
    6.2463  -12.0739   26.3669 C   0  0  0  0  0  0  0  0  0  0  0  0
    5.9134  -13.3894   26.6153 C   0  0  0  0  0  0  0  0  0  0  0  0
    6.3796  -14.4272   25.8480 C   0  0  0  0  0  0  0  0  0  0  0  0
    9.6769  -16.0843   25.2278 C   0  0  0  0  0  0  0  0  0  0  0  0
   10.0151  -17.3248   25.2746 O   0  0  0  0  0  0  0  0  0  0  0  0
    9.6918  -14.3034   29.2201 C   0  0  0  0  0  0  0  0  0  0  0  0
   10.9182  -14.7996   28.4854 C   0  0  2  0  0  0  0  0  0  0  0  0
   11.5690  -13.7463   27.6398 C   0  0  0  0  0  0  0  0  0  0  0  0
   10.5593  -15.9941   27.5873 C   0  0  2  0  0  0  0  0  0  0  0  0
    9.7972  -15.4359   26.4921 N   0  0  0  0  0  0  0  0  0  0  0  0
    9.8815  -17.0443   28.3413 C   0  0  0  0  0  0  0  0  0  0  0  0
    8.6363  -17.2040   28.0977 O   0  0  0  0  0  0  0  0  0  0  0  0
   10.4144  -17.8821   29.2798 O   0  0  0  0  0  0  0  0  0  0  0  0
  2  1  1  0
  3  2  2  0
  4  2  1  0
  5  4  1  0
  5  6  1  6
  7  8  2  0
  7  5  1  0
  9  7  1  0
 10  9  1  0
 10 11  1  1
 11 12  1  0
 12 13  2  0
 12 17  1  0
 13 14  1  0
 14 15  2  0
 16 15  1  0
 17 16  2  0
 18 10  1  0
 19 18  2  0
 21 23  1  0
 21 20  1  6
 22 21  1  0
 23 24  1  6
 24 18  1  0
 25 27  1  0
 25 23  1  0
 26 25  2  0
M  END
$$$$
