NFV.pdb
     RDKit          3D

 27 27  0  0  1  0  0  0  0  0999 V2000
    9.8413  -20.1624   19.7907 N   0  0  0  0  0  0  0  0  0  0  0  0
   11.0410  -19.8142   20.4529 C   0  0  0  0  0  0  0  0  0  0  0  0
   12.0911  -20.4429   20.1317 O   0  0  0  0  0  0  0  0  0  0  0  0
   11.1056  -18.7550   21.4935 C   0  0  0  0  0  0  0  0  0  0  0  0
   10.1836  -17.6231   21.0780 C   0  0  2  0  0  0  0  0  0  0  0  0
   10.6048  -17.0490   19.8344 N   0  0  0  0  0  0  0  0  0  0  0  0
   10.0686  -16.5850   22.1340 C   0  0  0  0  0  0  0  0  0  0  0  0
   11.0060  -15.7357   22.2169 O   0  0  0  0  0  0  0  0  0  0  0  0
    8.9497  -16.5936   22.9738 N   0  0  0  0  0  0  0  0  0  0  0  0
    8.7679  -15.5403   23.9655 C   0  0  1  0  0  0  0  0  0  0  0  0
    7.3221  -15.1022   23.9722 C   0  0  0  0  0  0  0  0  0  0  0  0
    6.9707  -14.0995   24.9794 C   0  0  0  0  0  0  0  0  0  0  0  0
    7.4128  -12.7829   24.8067 C   0  0  0  0  0  0  0  0  0  0  0  0
    7.1074  -11.7765   25.6800 C   0  0  0  0  0  0  0  0  0  0  0  0
    6.3401  -12.0239   26.7820 C   0  0  0  0  0  0  0  0  0  0  0  0
    5.8942  -13.3157   26.9708 C   0  0  0  0  0  0  0  0  0  0  0  0
    6.1933  -14.3350   26.1021 C   0  0  0  0  0  0  0  0  0  0  0  0
    9.2716  -16.0732   25.2304 C   0  0  0  0  0  0  0  0  0  0  0  0
    9.2300  -17.3345   25.4810 O   0  0  0  0  0  0  0  0  0  0  0  0
    9.6380  -13.9774   28.8774 C   0  0  0  0  0  0  0  0  0  0  0  0
   10.8271  -14.7759   28.3889 C   0  0  2  0  0  0  0  0  0  0  0  0
   11.8177  -13.9536   27.6203 C   0  0  0  0  0  0  0  0  0  0  0  0
   10.3631  -15.9396   27.4986 C   0  0  2  0  0  0  0  0  0  0  0  0
    9.8481  -15.3219   26.2965 N   0  0  0  0  0  0  0  0  0  0  0  0
    9.4223  -16.8069   28.2010 C   0  0  0  0  0  0  0  0  0  0  0  0
    9.8917  -17.4718   29.1875 O   0  0  0  0  0  0  0  0  0  0  0  0
    8.0960  -16.9979   27.9346 O   0  0  0  0  0  0  0  0  0  0  0  0
  2  1  1  0
  3  2  2  0
  4  2  1  0
  5  4  1  0
  5  6  1  6
  7  8  2  0
  7  5  1  0
  9  7  1  0
 10  9  1  0
 10 11  1  1
 11 12  1  0
 12 13  2  0
 12 17  1  0
 13 14  1  0
 14 15  2  0
 16 15  1  0
 17 16  2  0
 18 10  1  0
 19 18  2  0
 21 23  1  0
 21 20  1  6
 22 21  1  0
 23 24  1  6
 24 18  1  0
 25 27  1  0
 25 23  1  0
 26 25  2  0
M  END
$$$$
