NFV.pdb
     RDKit          3D

 27 27  0  0  1  0  0  0  0  0999 V2000
   10.6292  -19.0190   18.8362 N   0  0  0  0  0  0  0  0  0  0  0  0
   10.9479  -17.6598   18.6128 C   0  0  0  0  0  0  0  0  0  0  0  0
   11.4741  -17.3564   17.5027 O   0  0  0  0  0  0  0  0  0  0  0  0
   10.6898  -16.5983   19.6204 C   0  0  0  0  0  0  0  0  0  0  0  0
   10.1798  -17.2595   20.8879 C   0  0  2  0  0  0  0  0  0  0  0  0
    8.9107  -17.8863   20.6642 N   0  0  0  0  0  0  0  0  0  0  0  0
   10.1113  -16.3042   22.0232 C   0  0  0  0  0  0  0  0  0  0  0  0
   11.1502  -15.6210   22.2698 O   0  0  0  0  0  0  0  0  0  0  0  0
    8.9229  -16.2052   22.7549 N   0  0  0  0  0  0  0  0  0  0  0  0
    8.8209  -15.2666   23.8660 C   0  0  1  0  0  0  0  0  0  0  0  0
    7.4265  -14.6867   23.9058 C   0  0  0  0  0  0  0  0  0  0  0  0
    7.1594  -13.7596   25.0070 C   0  0  0  0  0  0  0  0  0  0  0  0
    7.6933  -12.4672   24.9483 C   0  0  0  0  0  0  0  0  0  0  0  0
    7.4709  -11.5274   25.9157 C   0  0  0  0  0  0  0  0  0  0  0  0
    6.6998  -11.8212   27.0036 C   0  0  0  0  0  0  0  0  0  0  0  0
    6.1639  -13.0901   27.0805 C   0  0  0  0  0  0  0  0  0  0  0  0
    6.3792  -14.0428   26.1167 C   0  0  0  0  0  0  0  0  0  0  0  0
    9.2347  -15.9976   25.0628 C   0  0  0  0  0  0  0  0  0  0  0  0
    8.9481  -17.2433   25.2099 O   0  0  0  0  0  0  0  0  0  0  0  0
   11.4666  -14.2794   28.3342 C   0  0  0  0  0  0  0  0  0  0  0  0
   11.8066  -15.5934   27.6648 C   0  0  2  0  0  0  0  0  0  0  0  0
   12.7165  -15.4385   26.4831 C   0  0  0  0  0  0  0  0  0  0  0  0
   10.5264  -16.3086   27.2049 C   0  0  2  0  0  0  0  0  0  0  0  0
    9.9711  -15.4712   26.1645 N   0  0  0  0  0  0  0  0  0  0  0  0
    9.6322  -16.5768   28.3271 C   0  0  0  0  0  0  0  0  0  0  0  0
    8.5430  -15.9074   28.3569 O   0  0  0  0  0  0  0  0  0  0  0  0
    9.8148  -17.4583   29.3548 O   0  0  0  0  0  0  0  0  0  0  0  0
  2  1  1  0
  3  2  2  0
  4  2  1  0
  5  4  1  0
  5  6  1  6
  7  8  2  0
  7  5  1  0
  9  7  1  0
 10  9  1  0
 10 11  1  1
 11 12  1  0
 12 13  2  0
 12 17  1  0
 13 14  1  0
 14 15  2  0
 16 15  1  0
 17 16  2  0
 18 10  1  0
 19 18  2  0
 21 23  1  0
 21 20  1  6
 22 21  1  0
 23 24  1  6
 24 18  1  0
 25 27  1  0
 25 23  1  0
 26 25  2  0
M  END
$$$$
