NFV.pdb
     RDKit          3D

 27 27  0  0  1  0  0  0  0  0999 V2000
   12.3108  -18.9969   19.3201 N   0  0  0  0  0  0  0  0  0  0  0  0
   12.6120  -17.6302   19.1193 C   0  0  0  0  0  0  0  0  0  0  0  0
   13.3573  -17.3323   18.1410 O   0  0  0  0  0  0  0  0  0  0  0  0
   12.0917  -16.5549   20.0034 C   0  0  0  0  0  0  0  0  0  0  0  0
   11.4118  -17.2055   21.1943 C   0  0  2  0  0  0  0  0  0  0  0  0
   10.3080  -18.0170   20.7742 N   0  0  0  0  0  0  0  0  0  0  0  0
   10.9848  -16.2041   22.2048 C   0  0  0  0  0  0  0  0  0  0  0  0
   11.8153  -15.2957   22.5079 O   0  0  0  0  0  0  0  0  0  0  0  0
    9.7072  -16.3091   22.7652 N   0  0  0  0  0  0  0  0  0  0  0  0
    9.2832  -15.3799   23.8057 C   0  0  1  0  0  0  0  0  0  0  0  0
    7.8010  -15.1200   23.6720 C   0  0  0  0  0  0  0  0  0  0  0  0
    7.2555  -14.0991   24.5683 C   0  0  0  0  0  0  0  0  0  0  0  0
    6.4155  -14.4963   25.6150 C   0  0  0  0  0  0  0  0  0  0  0  0
    5.8856  -13.6160   26.5166 C   0  0  0  0  0  0  0  0  0  0  0  0
    6.1628  -12.2819   26.4282 C   0  0  0  0  0  0  0  0  0  0  0  0
    6.9890  -11.8696   25.4033 C   0  0  0  0  0  0  0  0  0  0  0  0
    7.5274  -12.7425   24.4916 C   0  0  0  0  0  0  0  0  0  0  0  0
    9.7095  -15.9619   25.0774 C   0  0  0  0  0  0  0  0  0  0  0  0
    9.9190  -17.2264   25.1897 O   0  0  0  0  0  0  0  0  0  0  0  0
    9.2187  -14.3518   29.0073 C   0  0  0  0  0  0  0  0  0  0  0  0
   10.5884  -14.7831   28.5297 C   0  0  2  0  0  0  0  0  0  0  0  0
   11.3900  -13.6622   27.9386 C   0  0  0  0  0  0  0  0  0  0  0  0
   10.4643  -15.9003   27.4816 C   0  0  2  0  0  0  0  0  0  0  0  0
    9.9440  -15.2577   26.2949 N   0  0  0  0  0  0  0  0  0  0  0  0
    9.6665  -17.0156   27.9821 C   0  0  0  0  0  0  0  0  0  0  0  0
   10.1862  -17.7069   28.9242 O   0  0  0  0  0  0  0  0  0  0  0  0
    8.4276  -17.4151   27.5675 O   0  0  0  0  0  0  0  0  0  0  0  0
  2  1  1  0
  3  2  2  0
  4  2  1  0
  5  4  1  0
  5  6  1  6
  7  8  2  0
  7  5  1  0
  9  7  1  0
 10  9  1  0
 10 11  1  1
 11 12  1  0
 12 13  2  0
 12 17  1  0
 13 14  1  0
 14 15  2  0
 16 15  1  0
 17 16  2  0
 18 10  1  0
 19 18  2  0
 21 23  1  0
 21 20  1  6
 22 21  1  0
 23 24  1  6
 24 18  1  0
 25 27  1  0
 25 23  1  0
 26 25  2  0
M  END
$$$$
