NFV.pdb
     RDKit          3D

 27 27  0  0  1  0  0  0  0  0999 V2000
    8.2209  -19.1541   18.7824 N   0  0  0  0  0  0  0  0  0  0  0  0
    8.7702  -19.6921   19.9688 C   0  0  0  0  0  0  0  0  0  0  0  0
    8.8758  -20.9506   20.0473 O   0  0  0  0  0  0  0  0  0  0  0  0
    9.2178  -18.8430   21.1035 C   0  0  0  0  0  0  0  0  0  0  0  0
    8.9231  -17.3944   20.7590 C   0  0  2  0  0  0  0  0  0  0  0  0
    9.6549  -16.9848   19.5970 N   0  0  0  0  0  0  0  0  0  0  0  0
    9.1875  -16.4867   21.9045 C   0  0  0  0  0  0  0  0  0  0  0  0
   10.3865  -16.1187   22.0881 O   0  0  0  0  0  0  0  0  0  0  0  0
    8.1182  -16.0875   22.7137 N   0  0  0  0  0  0  0  0  0  0  0  0
    8.3370  -15.1523   23.8108 C   0  0  1  0  0  0  0  0  0  0  0  0
    7.0854  -14.3353   24.0301 C   0  0  0  0  0  0  0  0  0  0  0  0
    7.1138  -13.4335   25.1830 C   0  0  0  0  0  0  0  0  0  0  0  0
    7.7576  -12.1970   25.0593 C   0  0  0  0  0  0  0  0  0  0  0  0
    7.8074  -11.2812   26.0730 C   0  0  0  0  0  0  0  0  0  0  0  0
    7.2159  -11.5447   27.2751 C   0  0  0  0  0  0  0  0  0  0  0  0
    6.5759  -12.7584   27.4176 C   0  0  0  0  0  0  0  0  0  0  0  0
    6.5184  -13.6865   26.4084 C   0  0  0  0  0  0  0  0  0  0  0  0
    8.7767  -15.9521   24.9530 C   0  0  0  0  0  0  0  0  0  0  0  0
    8.0746  -16.9437   25.3766 O   0  0  0  0  0  0  0  0  0  0  0  0
   12.6021  -15.5560   26.8845 C   0  0  0  0  0  0  0  0  0  0  0  0
   11.8416  -16.8494   26.6871 C   0  0  2  0  0  0  0  0  0  0  0  0
   12.1017  -17.4930   25.3581 C   0  0  0  0  0  0  0  0  0  0  0  0
   10.3299  -16.6098   26.8262 C   0  0  2  0  0  0  0  0  0  0  0  0
    9.9707  -15.7638   25.7094 N   0  0  0  0  0  0  0  0  0  0  0  0
    9.9930  -16.0748   28.1419 C   0  0  0  0  0  0  0  0  0  0  0  0
   10.1311  -16.8732   29.1313 O   0  0  0  0  0  0  0  0  0  0  0  0
    9.5461  -14.8209   28.4497 O   0  0  0  0  0  0  0  0  0  0  0  0
  2  1  1  0
  3  2  2  0
  4  2  1  0
  5  4  1  0
  5  6  1  6
  7  8  2  0
  7  5  1  0
  9  7  1  0
 10  9  1  0
 10 11  1  1
 11 12  1  0
 12 13  2  0
 12 17  1  0
 13 14  1  0
 14 15  2  0
 16 15  1  0
 17 16  2  0
 18 10  1  0
 19 18  2  0
 21 23  1  0
 21 20  1  6
 22 21  1  0
 23 24  1  6
 24 18  1  0
 25 27  1  0
 25 23  1  0
 26 25  2  0
M  END
$$$$
