NFV.pdb
     RDKit          3D

 27 27  0  0  1  0  0  0  0  0999 V2000
    8.7472  -16.6962   18.5029 N   0  0  0  0  0  0  0  0  0  0  0  0
    8.8961  -15.3272   18.8232 C   0  0  0  0  0  0  0  0  0  0  0  0
    8.9467  -14.5034   17.8641 O   0  0  0  0  0  0  0  0  0  0  0  0
    8.9936  -14.8358   20.2225 C   0  0  0  0  0  0  0  0  0  0  0  0
    8.9766  -16.0367   21.1506 C   0  0  2  0  0  0  0  0  0  0  0  0
    7.7381  -16.7496   21.0440 N   0  0  0  0  0  0  0  0  0  0  0  0
    9.2533  -15.6536   22.5587 C   0  0  0  0  0  0  0  0  0  0  0  0
   10.3260  -15.0178   22.7868 O   0  0  0  0  0  0  0  0  0  0  0  0
    8.3321  -16.0068   23.5507 N   0  0  0  0  0  0  0  0  0  0  0  0
    8.5456  -15.5921   24.9322 C   0  0  1  0  0  0  0  0  0  0  0  0
    7.2136  -15.2819   25.5739 C   0  0  0  0  0  0  0  0  0  0  0  0
    6.9573  -13.8660   25.8440 C   0  0  0  0  0  0  0  0  0  0  0  0
    5.6616  -13.3672   25.6679 C   0  0  0  0  0  0  0  0  0  0  0  0
    5.3251  -12.0673   25.9245 C   0  0  0  0  0  0  0  0  0  0  0  0
    6.2643  -11.1838   26.3738 C   0  0  0  0  0  0  0  0  0  0  0  0
    7.5480  -11.6556   26.5540 C   0  0  0  0  0  0  0  0  0  0  0  0
    7.8991  -12.9577   26.3002 C   0  0  0  0  0  0  0  0  0  0  0  0
    9.3194  -16.6575   25.5678 C   0  0  0  0  0  0  0  0  0  0  0  0
    9.0535  -17.8955   25.3395 O   0  0  0  0  0  0  0  0  0  0  0  0
   12.7234  -15.9558   28.0085 C   0  0  0  0  0  0  0  0  0  0  0  0
   12.5233  -17.2465   27.2442 C   0  0  2  0  0  0  0  0  0  0  0  0
   13.0777  -17.2027   25.8517 C   0  0  0  0  0  0  0  0  0  0  0  0
   11.0290  -17.5969   27.1641 C   0  0  2  0  0  0  0  0  0  0  0  0
   10.4114  -16.4890   26.4691 N   0  0  0  0  0  0  0  0  0  0  0  0
   10.4768  -17.8850   28.4843 C   0  0  0  0  0  0  0  0  0  0  0  0
    9.6175  -17.0513   28.9339 O   0  0  0  0  0  0  0  0  0  0  0  0
   10.7650  -18.9396   29.3037 O   0  0  0  0  0  0  0  0  0  0  0  0
  2  1  1  0
  3  2  2  0
  4  2  1  0
  5  4  1  0
  5  6  1  1
  7  8  2  0
  7  5  1  0
  9  7  1  0
 10  9  1  0
 10 11  1  1
 11 12  1  0
 12 13  2  0
 12 17  1  0
 13 14  1  0
 14 15  2  0
 16 15  1  0
 17 16  2  0
 18 10  1  0
 19 18  2  0
 21 23  1  0
 21 20  1  6
 22 21  1  0
 23 24  1  1
 24 18  1  0
 25 27  1  0
 25 23  1  0
 26 25  2  0
M  END
$$$$
