NFV.pdb
     RDKit          3D

 27 27  0  0  1  0  0  0  0  0999 V2000
   11.2921  -18.5239   18.2453 N   0  0  0  0  0  0  0  0  0  0  0  0
   10.5373  -17.3351   18.1194 C   0  0  0  0  0  0  0  0  0  0  0  0
    9.9201  -17.1455   17.0312 O   0  0  0  0  0  0  0  0  0  0  0  0
   10.4483  -16.3218   19.2031 C   0  0  0  0  0  0  0  0  0  0  0  0
    9.8828  -16.9962   20.4397 C   0  0  2  0  0  0  0  0  0  0  0  0
    8.5505  -17.4677   20.2026 N   0  0  0  0  0  0  0  0  0  0  0  0
    9.9313  -16.1066   21.6281 C   0  0  0  0  0  0  0  0  0  0  0  0
   11.0607  -15.6288   21.9491 O   0  0  0  0  0  0  0  0  0  0  0  0
    8.7477  -15.8425   22.3258 N   0  0  0  0  0  0  0  0  0  0  0  0
    8.7845  -15.0972   23.5784 C   0  0  1  0  0  0  0  0  0  0  0  0
    7.4880  -14.3410   23.7500 C   0  0  0  0  0  0  0  0  0  0  0  0
    7.3686  -13.5644   24.9853 C   0  0  0  0  0  0  0  0  0  0  0  0
    6.5803  -14.0667   26.0270 C   0  0  0  0  0  0  0  0  0  0  0  0
    6.4361  -13.4245   27.2251 C   0  0  0  0  0  0  0  0  0  0  0  0
    7.0717  -12.2384   27.4569 C   0  0  0  0  0  0  0  0  0  0  0  0
    7.8537  -11.7260   26.4425 C   0  0  0  0  0  0  0  0  0  0  0  0
    8.0070  -12.3602   25.2354 C   0  0  0  0  0  0  0  0  0  0  0  0
    9.0923  -16.0681   24.6274 C   0  0  0  0  0  0  0  0  0  0  0  0
    8.3670  -17.1181   24.7912 O   0  0  0  0  0  0  0  0  0  0  0  0
   12.8344  -16.5096   26.3328 C   0  0  0  0  0  0  0  0  0  0  0  0
   11.7761  -17.5901   26.2832 C   0  0  2  0  0  0  0  0  0  0  0  0
   11.7183  -18.3030   24.9653 C   0  0  0  0  0  0  0  0  0  0  0  0
   10.3892  -16.9973   26.5789 C   0  0  2  0  0  0  0  0  0  0  0  0
   10.1725  -15.9983   25.5556 N   0  0  0  0  0  0  0  0  0  0  0  0
   10.2995  -16.5078   27.9511 C   0  0  0  0  0  0  0  0  0  0  0  0
   10.1964  -15.2413   28.0959 O   0  0  0  0  0  0  0  0  0  0  0  0
   10.3120  -17.2376   29.1060 O   0  0  0  0  0  0  0  0  0  0  0  0
  2  1  1  0
  3  2  2  0
  4  2  1  0
  5  4  1  0
  5  6  1  6
  7  8  2  0
  7  5  1  0
  9  7  1  0
 10  9  1  0
 10 11  1  1
 11 12  1  0
 12 13  2  0
 12 17  1  0
 13 14  1  0
 14 15  2  0
 16 15  1  0
 17 16  2  0
 18 10  1  0
 19 18  2  0
 21 23  1  0
 21 20  1  6
 22 21  1  0
 23 24  1  6
 24 18  1  0
 25 27  1  0
 25 23  1  0
 26 25  2  0
M  END
$$$$
