NFV.pdb
     RDKit          3D

 27 27  0  0  1  0  0  0  0  0999 V2000
   12.3147  -19.9905   19.5549 N   0  0  0  0  0  0  0  0  0  0  0  0
   11.1369  -19.5677   20.2128 C   0  0  0  0  0  0  0  0  0  0  0  0
   10.0417  -20.0805   19.8404 O   0  0  0  0  0  0  0  0  0  0  0  0
   11.1449  -18.5601   21.3053 C   0  0  0  0  0  0  0  0  0  0  0  0
   10.2141  -17.4268   20.9142 C   0  0  2  0  0  0  0  0  0  0  0  0
   10.6202  -16.8348   19.6740 N   0  0  0  0  0  0  0  0  0  0  0  0
   10.1057  -16.4031   21.9848 C   0  0  0  0  0  0  0  0  0  0  0  0
   11.0589  -15.5746   22.0937 O   0  0  0  0  0  0  0  0  0  0  0  0
    8.9754  -16.4018   22.8093 N   0  0  0  0  0  0  0  0  0  0  0  0
    8.8224  -15.3857   23.8438 C   0  0  1  0  0  0  0  0  0  0  0  0
    7.4164  -14.8349   23.8013 C   0  0  0  0  0  0  0  0  0  0  0  0
    7.0871  -13.8629   24.8454 C   0  0  0  0  0  0  0  0  0  0  0  0
    7.5622  -12.5520   24.7241 C   0  0  0  0  0  0  0  0  0  0  0  0
    7.2795  -11.5725   25.6346 C   0  0  0  0  0  0  0  0  0  0  0  0
    6.5030  -11.8425   26.7249 C   0  0  0  0  0  0  0  0  0  0  0  0
    6.0246  -13.1291   26.8632 C   0  0  0  0  0  0  0  0  0  0  0  0
    6.3007  -14.1216   25.9567 C   0  0  0  0  0  0  0  0  0  0  0  0
    9.2151  -16.0166   25.1030 C   0  0  0  0  0  0  0  0  0  0  0  0
    8.9741  -17.2611   25.3235 O   0  0  0  0  0  0  0  0  0  0  0  0
   10.9281  -13.9797   28.5004 C   0  0  0  0  0  0  0  0  0  0  0  0
   11.5267  -15.2329   27.8992 C   0  0  2  0  0  0  0  0  0  0  0  0
   12.5336  -14.9518   26.8243 C   0  0  0  0  0  0  0  0  0  0  0  0
   10.4229  -16.1271   27.3127 C   0  0  2  0  0  0  0  0  0  0  0  0
    9.8823  -15.3863   26.1943 N   0  0  0  0  0  0  0  0  0  0  0  0
    9.4491  -16.5101   28.3305 C   0  0  0  0  0  0  0  0  0  0  0  0
    9.8850  -17.2390   29.2866 O   0  0  0  0  0  0  0  0  0  0  0  0
    8.1234  -16.1853   28.3893 O   0  0  0  0  0  0  0  0  0  0  0  0
  2  1  1  0
  3  2  2  0
  4  2  1  0
  5  4  1  0
  5  6  1  6
  7  8  2  0
  7  5  1  0
  9  7  1  0
 10  9  1  0
 10 11  1  1
 11 12  1  0
 12 13  2  0
 12 17  1  0
 13 14  1  0
 14 15  2  0
 16 15  1  0
 17 16  2  0
 18 10  1  0
 19 18  2  0
 21 23  1  0
 21 20  1  6
 22 21  1  0
 23 24  1  6
 24 18  1  0
 25 27  1  0
 25 23  1  0
 26 25  2  0
M  END
$$$$
