NFV.pdb
     RDKit          3D

 27 27  0  0  1  0  0  0  0  0999 V2000
    7.1107  -19.4560   18.9740 N   0  0  0  0  0  0  0  0  0  0  0  0
    8.4424  -18.9812   18.9682 C   0  0  0  0  0  0  0  0  0  0  0  0
    9.1231  -19.1591   17.9165 O   0  0  0  0  0  0  0  0  0  0  0  0
    9.0550  -18.2940   20.1350 C   0  0  0  0  0  0  0  0  0  0  0  0
    8.7405  -16.8126   20.0336 C   0  0  2  0  0  0  0  0  0  0  0  0
    9.4119  -16.2214   18.9142 N   0  0  0  0  0  0  0  0  0  0  0  0
    9.0606  -16.0901   21.2912 C   0  0  0  0  0  0  0  0  0  0  0  0
   10.2849  -15.9788   21.6006 O   0  0  0  0  0  0  0  0  0  0  0  0
    8.0131  -15.5752   22.0625 N   0  0  0  0  0  0  0  0  0  0  0  0
    8.2971  -14.8387   23.2885 C   0  0  1  0  0  0  0  0  0  0  0  0
    7.1233  -13.9480   23.6215 C   0  0  0  0  0  0  0  0  0  0  0  0
    7.2025  -13.2535   24.9078 C   0  0  0  0  0  0  0  0  0  0  0  0
    6.4260  -13.7170   25.9761 C   0  0  0  0  0  0  0  0  0  0  0  0
    6.4590  -13.1492   27.2192 C   0  0  0  0  0  0  0  0  0  0  0  0
    7.2713  -12.0812   27.4723 C   0  0  0  0  0  0  0  0  0  0  0  0
    8.0449  -11.6088   26.4323 C   0  0  0  0  0  0  0  0  0  0  0  0
    8.0214  -12.1694   25.1800 C   0  0  0  0  0  0  0  0  0  0  0  0
    8.6383  -15.8376   24.3002 C   0  0  0  0  0  0  0  0  0  0  0  0
    7.8353  -16.8054   24.5723 O   0  0  0  0  0  0  0  0  0  0  0  0
   12.5548  -16.5835   25.6425 C   0  0  0  0  0  0  0  0  0  0  0  0
   11.4188  -17.5804   25.5664 C   0  0  2  0  0  0  0  0  0  0  0  0
   11.2125  -18.1399   24.1906 C   0  0  0  0  0  0  0  0  0  0  0  0
   10.1049  -16.9336   26.0326 C   0  0  2  0  0  0  0  0  0  0  0  0
    9.8335  -15.8829   25.0765 N   0  0  0  0  0  0  0  0  0  0  0  0
   10.1881  -16.4988   27.4236 C   0  0  0  0  0  0  0  0  0  0  0  0
   10.2216  -15.2358   27.6220 O   0  0  0  0  0  0  0  0  0  0  0  0
   10.2350  -17.2767   28.5457 O   0  0  0  0  0  0  0  0  0  0  0  0
  2  1  1  0
  3  2  2  0
  4  2  1  0
  5  4  1  0
  5  6  1  6
  7  8  2  0
  7  5  1  0
  9  7  1  0
 10  9  1  0
 10 11  1  1
 11 12  1  0
 12 13  2  0
 12 17  1  0
 13 14  1  0
 14 15  2  0
 16 15  1  0
 17 16  2  0
 18 10  1  0
 19 18  2  0
 21 23  1  0
 21 20  1  6
 22 21  1  0
 23 24  1  6
 24 18  1  0
 25 27  1  0
 25 23  1  0
 26 25  2  0
M  END
$$$$
