KQE.pdb
     RDKit          3D

 28 27  0  0  1  0  0  0  0  0999 V2000
    6.5113  -17.0625   20.9800 N   0  0  0  0  0  0  0  0  0  0  0  0
    7.6002  -16.3667   21.5820 C   0  0  1  0  0  0  0  0  0  0  0  0
    7.4338  -14.8866   21.7170 C   0  0  0  0  0  0  0  0  0  0  0  0
    7.4226  -14.1240   20.4309 C   0  0  0  0  0  0  0  0  0  0  0  0
    8.4835  -13.0892   20.3809 C   0  0  0  0  0  0  0  0  0  0  0  0
    8.3704  -12.3993   19.0017 C   0  0  0  0  0  0  0  0  0  0  0  0
    9.4195  -11.4011   18.8861 N   0  0  0  0  0  0  0  0  0  0  0  0
    7.9907  -16.9460   22.8991 C   0  0  0  0  0  0  0  0  0  0  0  0
    7.0882  -17.1626   23.7413 O   0  0  0  0  0  0  0  0  0  0  0  0
    8.9394  -22.0266   24.2179 N   0  0  0  0  0  0  0  0  0  0  0  0
   10.0775  -21.1730   24.3995 C   0  0  0  0  0  0  0  0  0  0  0  0
   10.9236  -21.4036   25.2891 O   0  0  0  0  0  0  0  0  0  0  0  0
   10.2468  -20.0001   23.5148 C   0  0  0  0  0  0  0  0  0  0  0  0
   10.7738  -18.8507   24.3270 C   0  0  0  0  0  0  0  0  0  0  0  0
    9.7266  -17.7756   24.5228 C   0  0  2  0  0  0  0  0  0  0  0  0
    9.3302  -17.2485   23.2083 N   0  0  0  0  0  0  0  0  0  0  0  0
   10.2318  -16.6603   25.3481 C   0  0  0  0  0  0  0  0  0  0  0  0
   11.3522  -16.1609   25.1169 O   0  0  0  0  0  0  0  0  0  0  0  0
    9.4319  -16.1668   26.4012 N   0  0  0  0  0  0  0  0  0  0  0  0
    9.9112  -15.1603   27.2956 C   0  0  1  0  0  0  0  0  0  0  0  0
    8.9162  -14.0456   27.3021 C   0  0  0  0  0  0  0  0  0  0  0  0
    8.3392  -13.6137   26.0159 C   0  0  0  0  0  0  0  0  0  0  0  0
    7.4187  -12.4887   26.0109 C   0  0  0  0  0  0  0  0  0  0  0  0
    6.8223  -12.0945   24.9985 O   0  0  0  0  0  0  0  0  0  0  0  0
   10.4197  -15.6216   28.5788 C   0  0  0  0  0  0  0  0  0  0  0  0
   10.3360  -16.7981   29.0257 O   0  0  0  0  0  0  0  0  0  0  0  0
    7.1532  -11.7676   27.2060 O   0  0  0  0  0  0  0  0  0  0  0  0
   11.0671  -14.6588   29.3842 O   0  0  0  0  0  0  0  0  0  0  0  0
  2  1  1  1
  3  2  1  0
  4  5  1  0
  4  3  1  0
  6  5  1  0
  7  6  1  0
  8  9  2  0
  8  2  1  0
 10 11  1  0
 11 12  2  0
 13 14  1  0
 13 11  1  0
 15 14  1  6
 15 16  1  0
 16  8  1  0
 17 15  1  0
 18 17  2  0
 19 17  1  0
 20 19  1  0
 21 22  1  0
 20 21  1  1
 23 22  1  0
 23 24  2  0
 25 20  1  0
 25 28  1  0
 26 25  2  0
 27 23  1  0
M  END
$$$$
