KQE.pdb
     RDKit          3D

 28 27  0  0  1  0  0  0  0  0999 V2000
    6.8259  -16.2320   20.0860 N   0  0  0  0  0  0  0  0  0  0  0  0
    7.9260  -15.3553   19.8552 C   0  0  1  0  0  0  0  0  0  0  0  0
    7.6843  -14.2483   18.8790 C   0  0  0  0  0  0  0  0  0  0  0  0
    7.6609  -14.6572   17.4409 C   0  0  0  0  0  0  0  0  0  0  0  0
    7.4215  -13.5092   16.5333 C   0  0  0  0  0  0  0  0  0  0  0  0
    7.2389  -14.0927   15.1130 C   0  0  0  0  0  0  0  0  0  0  0  0
    6.9543  -13.0076   14.1901 N   0  0  0  0  0  0  0  0  0  0  0  0
    8.4832  -14.7923   21.1183 C   0  0  0  0  0  0  0  0  0  0  0  0
    9.5626  -14.1583   21.0581 O   0  0  0  0  0  0  0  0  0  0  0  0
    5.4390  -13.2571   26.2462 N   0  0  0  0  0  0  0  0  0  0  0  0
    6.7855  -13.1060   26.7165 C   0  0  0  0  0  0  0  0  0  0  0  0
    7.0287  -12.5837   27.8249 O   0  0  0  0  0  0  0  0  0  0  0  0
    7.9017  -13.5789   25.8695 C   0  0  0  0  0  0  0  0  0  0  0  0
    7.3433  -14.0959   24.5736 C   0  0  0  0  0  0  0  0  0  0  0  0
    8.4394  -14.5221   23.6209 C   0  0  2  0  0  0  0  0  0  0  0  0
    7.8307  -14.9569   22.3547 N   0  0  0  0  0  0  0  0  0  0  0  0
    9.2414  -15.6346   24.1682 C   0  0  0  0  0  0  0  0  0  0  0  0
    8.7567  -16.7820   24.2490 O   0  0  0  0  0  0  0  0  0  0  0  0
   10.5620  -15.3837   24.5986 N   0  0  0  0  0  0  0  0  0  0  0  0
   11.4344  -16.4451   24.9922 C   0  0  1  0  0  0  0  0  0  0  0  0
   12.7729  -16.1848   24.3812 C   0  0  0  0  0  0  0  0  0  0  0  0
   13.8710  -17.1246   24.6723 C   0  0  0  0  0  0  0  0  0  0  0  0
   15.1716  -16.8802   24.0709 C   0  0  0  0  0  0  0  0  0  0  0  0
   15.9791  -16.0430   24.4987 O   0  0  0  0  0  0  0  0  0  0  0  0
   11.3939  -16.8318   26.3946 C   0  0  0  0  0  0  0  0  0  0  0  0
   11.0361  -16.0943   27.3532 O   0  0  0  0  0  0  0  0  0  0  0  0
   15.5884  -17.6150   22.9285 O   0  0  0  0  0  0  0  0  0  0  0  0
   11.7870  -18.1544   26.6963 O   0  0  0  0  0  0  0  0  0  0  0  0
  2  1  1  1
  3  2  1  0
  4  5  1  0
  4  3  1  0
  6  5  1  0
  7  6  1  0
  8  9  2  0
  8  2  1  0
 10 11  1  0
 11 12  2  0
 13 14  1  0
 13 11  1  0
 15 14  1  1
 15 16  1  0
 16  8  1  0
 17 15  1  0
 18 17  2  0
 19 17  1  0
 20 19  1  0
 21 22  1  0
 20 21  1  1
 23 22  1  0
 23 24  2  0
 25 20  1  0
 25 28  1  0
 26 25  2  0
 27 23  1  0
M  END
$$$$
