KQE.pdb
     RDKit          3D

 28 27  0  0  1  0  0  0  0  0999 V2000
   10.7148  -16.1165   14.4654 N   0  0  0  0  0  0  0  0  0  0  0  0
    9.8179  -16.6334   15.4454 C   0  0  1  0  0  0  0  0  0  0  0  0
    9.8993  -18.1063   15.6919 C   0  0  0  0  0  0  0  0  0  0  0  0
   11.2652  -18.6281   16.0048 C   0  0  0  0  0  0  0  0  0  0  0  0
   11.2800  -20.1014   16.1721 C   0  0  0  0  0  0  0  0  0  0  0  0
   12.7461  -20.5047   16.4529 C   0  0  0  0  0  0  0  0  0  0  0  0
   12.7994  -21.9307   16.7249 N   0  0  0  0  0  0  0  0  0  0  0  0
    9.9081  -15.9057   16.7435 C   0  0  0  0  0  0  0  0  0  0  0  0
   11.0413  -15.5547   17.1477 O   0  0  0  0  0  0  0  0  0  0  0  0
    8.7032  -11.9671   19.0934 N   0  0  0  0  0  0  0  0  0  0  0  0
    8.1827  -12.3821   20.3638 C   0  0  0  0  0  0  0  0  0  0  0  0
    8.3437  -11.6848   21.3877 O   0  0  0  0  0  0  0  0  0  0  0  0
    7.4432  -13.6594   20.4569 C   0  0  0  0  0  0  0  0  0  0  0  0
    7.4628  -14.3313   19.1128 C   0  0  0  0  0  0  0  0  0  0  0  0
    8.8422  -14.8476   18.7639 C   0  0  2  0  0  0  0  0  0  0  0  0
    8.7644  -15.6110   17.5094 N   0  0  0  0  0  0  0  0  0  0  0  0
    9.3837  -15.7255   19.8205 C   0  0  0  0  0  0  0  0  0  0  0  0
    8.9572  -16.8911   19.9528 O   0  0  0  0  0  0  0  0  0  0  0  0
   10.3891  -15.2297   20.6782 N   0  0  0  0  0  0  0  0  0  0  0  0
   10.8811  -16.0000   21.7770 C   0  0  1  0  0  0  0  0  0  0  0  0
   12.3152  -15.6348   21.9832 C   0  0  0  0  0  0  0  0  0  0  0  0
   13.2324  -15.7187   20.8318 C   0  0  0  0  0  0  0  0  0  0  0  0
   14.5610  -15.1429   20.9592 C   0  0  0  0  0  0  0  0  0  0  0  0
   15.0471  -14.7706   22.0368 O   0  0  0  0  0  0  0  0  0  0  0  0
   10.0256  -16.0742   22.9519 C   0  0  0  0  0  0  0  0  0  0  0  0
    8.9172  -15.4896   23.0955 O   0  0  0  0  0  0  0  0  0  0  0  0
   15.3884  -14.9763   19.8162 O   0  0  0  0  0  0  0  0  0  0  0  0
   10.4848  -16.8797   24.0173 O   0  0  0  0  0  0  0  0  0  0  0  0
  2  1  1  6
  3  2  1  0
  4  5  1  0
  4  3  1  0
  6  5  1  0
  7  6  1  0
  8  9  2  0
  8  2  1  0
 10 11  1  0
 11 12  2  0
 13 14  1  0
 13 11  1  0
 15 14  1  1
 15 16  1  0
 16  8  1  0
 17 15  1  0
 18 17  2  0
 19 17  1  0
 20 19  1  0
 21 22  1  0
 20 21  1  1
 23 22  1  0
 23 24  2  0
 25 20  1  0
 25 28  1  0
 26 25  2  0
 27 23  1  0
M  END
$$$$
