LWK.pdb
     RDKit          3D

 32 33  0  0  1  0  0  0  0  0999 V2000
   29.6176  -19.9012  -16.6493 C   0  0  0  0  0  0  0  0  0  0  0  0
   28.1878  -20.4139  -16.8002 C   0  0  1  0  0  0  0  0  0  0  0  0
   28.2849  -21.6001  -17.7686 C   0  0  0  0  0  0  0  0  0  0  0  0
   27.6609  -20.9594  -15.5089 C   0  0  0  0  0  0  0  0  0  0  0  0
   27.1482  -19.8881  -14.5774 C   0  0  2  0  0  0  0  0  0  0  0  0
   28.0759  -18.8304  -14.3601 N   0  0  0  0  0  0  0  0  0  0  0  0
   26.8188  -20.5522  -13.2916 C   0  0  0  0  0  0  0  0  0  0  0  0
   26.2036  -21.6490  -13.3312 O   0  0  0  0  0  0  0  0  0  0  0  0
   27.1875  -19.9671  -12.0324 N   0  0  0  0  0  0  0  0  0  0  0  0
   26.7647  -20.5342  -10.7958 C   0  0  1  0  0  0  0  0  0  0  0  0
   27.6383  -20.1233   -9.6277 C   0  0  0  0  0  0  0  0  0  0  0  0
   27.0753  -20.4560   -8.3225 C   0  0  0  0  0  0  0  0  0  0  0  0
   25.9563  -21.1872   -8.0470 C   0  0  0  0  0  0  0  0  0  0  0  0
   25.8098  -21.2441   -6.7119 N   0  0  0  0  0  0  0  0  0  0  0  0
   26.8109  -20.5645   -6.1122 C   0  0  0  0  0  0  0  0  0  0  0  0
   27.1550  -20.2983   -4.8057 C   0  0  0  0  0  0  0  0  0  0  0  0
   28.2652  -19.5545   -4.4608 C   0  0  0  0  0  0  0  0  0  0  0  0
   29.0660  -19.0555   -5.4682 C   0  0  0  0  0  0  0  0  0  0  0  0
   28.7292  -19.3169   -6.7746 C   0  0  0  0  0  0  0  0  0  0  0  0
   27.6061  -20.0690   -7.1103 C   0  0  0  0  0  0  0  0  0  0  0  0
   25.3696  -20.1571  -10.4337 C   0  0  0  0  0  0  0  0  0  0  0  0
   25.1349  -18.9386  -10.2477 O   0  0  0  0  0  0  0  0  0  0  0  0
   24.3259  -21.1115  -10.2969 N   0  0  0  0  0  0  0  0  0  0  0  0
   22.9313  -20.8255  -10.6406 C   0  0  1  0  0  0  0  0  0  0  0  0
   22.4701  -21.6722  -11.7711 C   0  0  0  0  0  0  0  0  0  0  0  0
   22.0159  -20.8308  -12.9296 C   0  0  0  0  0  0  0  0  0  0  0  0
   22.6175  -21.3357  -14.2404 C   0  0  0  0  0  0  0  0  0  0  0  0
   22.0679  -20.4207  -15.3371 C   0  0  0  0  0  0  0  0  0  0  0  0
   22.6221  -20.7993  -16.6225 N   0  0  0  0  0  0  0  0  0  0  0  0
   22.0534  -20.9384   -9.4800 C   0  0  0  0  0  0  0  0  0  0  0  0
   20.8269  -20.3719   -9.2809 O   0  0  0  0  0  0  0  0  0  0  0  0
   22.4904  -21.6656   -8.5106 O   0  0  0  0  0  0  0  0  0  0  0  0
  2  1  1  1
  2  3  1  0
  4  2  1  0
  5  4  1  0
  5  6  1  1
  7  5  1  0
  7  8  2  0
  9  7  1  0
 10  9  1  0
 10 11  1  1
 11 12  1  0
 12 13  2  0
 12 20  1  0
 13 14  1  0
 14 15  1  0
 15 16  2  0
 16 17  1  0
 18 17  2  0
 19 18  1  0
 20 19  2  0
 20 15  1  0
 21 10  1  0
 22 21  2  0
 23 21  1  0
 24 25  1  6
 24 23  1  0
 25 26  1  0
 26 27  1  0
 27 28  1  0
 28 29  1  0
 30 24  1  0
 31 30  1  0
 32 30  2  0
M  END
$$$$
