LWK.pdb
     RDKit          3D

 32 33  0  0  1  0  0  0  0  0999 V2000
   30.0039  -20.9989  -16.8877 C   0  0  0  0  0  0  0  0  0  0  0  0
   28.9521  -22.1051  -16.8957 C   0  0  1  0  0  0  0  0  0  0  0  0
   29.7339  -23.4030  -17.1376 C   0  0  0  0  0  0  0  0  0  0  0  0
   28.2938  -22.2466  -15.5581 C   0  0  0  0  0  0  0  0  0  0  0  0
   27.3474  -21.1146  -15.2399 C   0  0  2  0  0  0  0  0  0  0  0  0
   28.0043  -19.8788  -14.9797 N   0  0  0  0  0  0  0  0  0  0  0  0
   26.5541  -21.5317  -14.0569 C   0  0  0  0  0  0  0  0  0  0  0  0
   26.3358  -22.7597  -13.8922 O   0  0  0  0  0  0  0  0  0  0  0  0
   26.0456  -20.5680  -13.1206 N   0  0  0  0  0  0  0  0  0  0  0  0
   25.2354  -20.9589  -12.0159 C   0  0  1  0  0  0  0  0  0  0  0  0
   25.6308  -20.2761  -10.7221 C   0  0  0  0  0  0  0  0  0  0  0  0
   26.9083  -20.7298  -10.1806 C   0  0  0  0  0  0  0  0  0  0  0  0
   27.8722  -21.4718  -10.7996 C   0  0  0  0  0  0  0  0  0  0  0  0
   28.8812  -21.6584   -9.9310 N   0  0  0  0  0  0  0  0  0  0  0  0
   28.5938  -21.0528   -8.7586 C   0  0  0  0  0  0  0  0  0  0  0  0
   29.2430  -20.9204   -7.5514 C   0  0  0  0  0  0  0  0  0  0  0  0
   28.7069  -20.2268   -6.4855 C   0  0  0  0  0  0  0  0  0  0  0  0
   27.4665  -19.6401   -6.6349 C   0  0  0  0  0  0  0  0  0  0  0  0
   26.8123  -19.7678   -7.8366 C   0  0  0  0  0  0  0  0  0  0  0  0
   27.3637  -20.4704   -8.9053 C   0  0  0  0  0  0  0  0  0  0  0  0
   23.7903  -20.6635  -12.2255 C   0  0  0  0  0  0  0  0  0  0  0  0
   23.4615  -19.4576  -12.3349 O   0  0  0  0  0  0  0  0  0  0  0  0
   22.8009  -21.6804  -12.3031 N   0  0  0  0  0  0  0  0  0  0  0  0
   21.3922  -21.4042  -12.5933 C   0  0  1  0  0  0  0  0  0  0  0  0
   20.7391  -22.5663  -13.2496 C   0  0  0  0  0  0  0  0  0  0  0  0
   21.4268  -22.9194  -14.5375 C   0  0  0  0  0  0  0  0  0  0  0  0
   21.1240  -21.8843  -15.6201 C   0  0  0  0  0  0  0  0  0  0  0  0
   21.8966  -22.3342  -16.8621 C   0  0  0  0  0  0  0  0  0  0  0  0
   21.6819  -21.3955  -17.9464 N   0  0  0  0  0  0  0  0  0  0  0  0
   20.6685  -20.9721  -11.4016 C   0  0  0  0  0  0  0  0  0  0  0  0
   19.5095  -20.2543  -11.3220 O   0  0  0  0  0  0  0  0  0  0  0  0
   21.1898  -21.3074  -10.2724 O   0  0  0  0  0  0  0  0  0  0  0  0
  2  1  1  1
  2  3  1  0
  4  2  1  0
  5  4  1  0
  5  6  1  1
  7  5  1  0
  7  8  2  0
  9  7  1  0
 10  9  1  0
 10 11  1  1
 11 12  1  0
 12 13  2  0
 12 20  1  0
 13 14  1  0
 14 15  1  0
 15 16  2  0
 16 17  1  0
 18 17  2  0
 19 18  1  0
 20 19  2  0
 20 15  1  0
 21 10  1  0
 22 21  2  0
 23 21  1  0
 24 25  1  1
 24 23  1  0
 25 26  1  0
 26 27  1  0
 27 28  1  0
 28 29  1  0
 30 24  1  0
 31 30  1  0
 32 30  2  0
M  END
$$$$
