LWK.pdb
     RDKit          3D

 32 33  0  0  1  0  0  0  0  0999 V2000
   30.6936  -22.2151  -16.5317 C   0  0  0  0  0  0  0  0  0  0  0  0
   29.7184  -21.0920  -16.1884 C   0  0  1  0  0  0  0  0  0  0  0  0
   28.9828  -20.7823  -17.4989 C   0  0  0  0  0  0  0  0  0  0  0  0
   28.6779  -21.5475  -15.2125 C   0  0  0  0  0  0  0  0  0  0  0  0
   27.6480  -20.4877  -14.9056 C   0  0  2  0  0  0  0  0  0  0  0  0
   28.2079  -19.2743  -14.4150 N   0  0  0  0  0  0  0  0  0  0  0  0
   26.7175  -21.0641  -13.9032 C   0  0  0  0  0  0  0  0  0  0  0  0
   26.2398  -22.2066  -14.1255 O   0  0  0  0  0  0  0  0  0  0  0  0
   26.3660  -20.3456  -12.7098 N   0  0  0  0  0  0  0  0  0  0  0  0
   25.4320  -20.8722  -11.7717 C   0  0  1  0  0  0  0  0  0  0  0  0
   25.6025  -20.2956  -10.3807 C   0  0  0  0  0  0  0  0  0  0  0  0
   26.9002  -20.5826   -9.7767 C   0  0  0  0  0  0  0  0  0  0  0  0
   27.9440  -21.2815  -10.3103 C   0  0  0  0  0  0  0  0  0  0  0  0
   28.9411  -21.3010   -9.4087 N   0  0  0  0  0  0  0  0  0  0  0  0
   28.5677  -20.6287   -8.2986 C   0  0  0  0  0  0  0  0  0  0  0  0
   29.1684  -20.3365   -7.0944 C   0  0  0  0  0  0  0  0  0  0  0  0
   28.5423  -19.6087   -6.1029 C   0  0  0  0  0  0  0  0  0  0  0  0
   27.2587  -19.1535   -6.3270 C   0  0  0  0  0  0  0  0  0  0  0  0
   26.6525  -19.4410   -7.5263 C   0  0  0  0  0  0  0  0  0  0  0  0
   27.2946  -20.1766   -8.5194 C   0  0  0  0  0  0  0  0  0  0  0  0
   24.0163  -20.6220  -12.1626 C   0  0  0  0  0  0  0  0  0  0  0  0
   23.6130  -19.4343  -12.1273 O   0  0  0  0  0  0  0  0  0  0  0  0
   23.1340  -21.6612  -12.5634 N   0  0  0  0  0  0  0  0  0  0  0  0
   21.7168  -21.4373  -12.8572 C   0  0  1  0  0  0  0  0  0  0  0  0
   21.0465  -22.6970  -13.2713 C   0  0  0  0  0  0  0  0  0  0  0  0
   19.6002  -22.4596  -13.6000 C   0  0  0  0  0  0  0  0  0  0  0  0
   18.9169  -23.7581  -14.0270 C   0  0  0  0  0  0  0  0  0  0  0  0
   17.7987  -23.3500  -14.9889 C   0  0  0  0  0  0  0  0  0  0  0  0
   17.0902  -24.5270  -15.4533 N   0  0  0  0  0  0  0  0  0  0  0  0
   21.0282  -20.7927  -11.7433 C   0  0  0  0  0  0  0  0  0  0  0  0
   20.2079  -19.7012  -11.7655 O   0  0  0  0  0  0  0  0  0  0  0  0
   21.2186  -21.3176  -10.5825 O   0  0  0  0  0  0  0  0  0  0  0  0
  2  1  1  6
  2  3  1  0
  4  2  1  0
  5  4  1  0
  5  6  1  1
  7  5  1  0
  7  8  2  0
  9  7  1  0
 10  9  1  0
 10 11  1  1
 11 12  1  0
 12 13  2  0
 12 20  1  0
 13 14  1  0
 14 15  1  0
 15 16  2  0
 16 17  1  0
 18 17  2  0
 19 18  1  0
 20 19  2  0
 20 15  1  0
 21 10  1  0
 22 21  2  0
 23 21  1  0
 24 25  1  1
 24 23  1  0
 25 26  1  0
 26 27  1  0
 27 28  1  0
 28 29  1  0
 30 24  1  0
 31 30  1  0
 32 30  2  0
M  END
$$$$
