LWK.pdb
     RDKit          3D

 32 33  0  0  1  0  0  0  0  0999 V2000
   30.9537  -23.5277  -17.2649 C   0  0  0  0  0  0  0  0  0  0  0  0
   29.7103  -22.6564  -17.4225 C   0  0  1  0  0  0  0  0  0  0  0  0
   29.0171  -23.1690  -18.6918 C   0  0  0  0  0  0  0  0  0  0  0  0
   28.7465  -22.8659  -16.2957 C   0  0  0  0  0  0  0  0  0  0  0  0
   27.5063  -22.0131  -16.4095 C   0  0  2  0  0  0  0  0  0  0  0  0
   27.7785  -20.6495  -16.7144 N   0  0  0  0  0  0  0  0  0  0  0  0
   26.7893  -22.1148  -15.1140 C   0  0  0  0  0  0  0  0  0  0  0  0
   26.6151  -23.2590  -14.6207 O   0  0  0  0  0  0  0  0  0  0  0  0
   26.3041  -20.9455  -14.4347 N   0  0  0  0  0  0  0  0  0  0  0  0
   25.7014  -21.0293  -13.1465 C   0  0  1  0  0  0  0  0  0  0  0  0
   26.1907  -19.9568  -12.1942 C   0  0  0  0  0  0  0  0  0  0  0  0
   27.2641  -20.3977  -11.3084 C   0  0  0  0  0  0  0  0  0  0  0  0
   28.4881  -20.8969  -11.6482 C   0  0  0  0  0  0  0  0  0  0  0  0
   29.1581  -21.1734  -10.5160 N   0  0  0  0  0  0  0  0  0  0  0  0
   28.3950  -20.8643   -9.4455 C   0  0  0  0  0  0  0  0  0  0  0  0
   28.5648  -20.9368   -8.0808 C   0  0  0  0  0  0  0  0  0  0  0  0
   27.5931  -20.5419   -7.1838 C   0  0  0  0  0  0  0  0  0  0  0  0
   26.3993  -20.0530   -7.6746 C   0  0  0  0  0  0  0  0  0  0  0  0
   26.2223  -19.9775   -9.0353 C   0  0  0  0  0  0  0  0  0  0  0  0
   27.2105  -20.3792   -9.9308 C   0  0  0  0  0  0  0  0  0  0  0  0
   24.2173  -20.9080  -13.1935 C   0  0  0  0  0  0  0  0  0  0  0  0
   23.7314  -20.1474  -14.0650 O   0  0  0  0  0  0  0  0  0  0  0  0
   23.3598  -21.6100  -12.3041 N   0  0  0  0  0  0  0  0  0  0  0  0
   21.8993  -21.5203  -12.3647 C   0  0  1  0  0  0  0  0  0  0  0  0
   21.2598  -22.5474  -11.5022 C   0  0  0  0  0  0  0  0  0  0  0  0
   19.7698  -22.5640  -11.6916 C   0  0  0  0  0  0  0  0  0  0  0  0
   19.1154  -23.6045  -10.7836 C   0  0  0  0  0  0  0  0  0  0  0  0
   17.6121  -23.5173  -11.0569 C   0  0  0  0  0  0  0  0  0  0  0  0
   16.8907  -24.3775  -10.1390 N   0  0  0  0  0  0  0  0  0  0  0  0
   21.4261  -20.1748  -12.0543 C   0  0  0  0  0  0  0  0  0  0  0  0
   20.4399  -19.4560  -12.6669 O   0  0  0  0  0  0  0  0  0  0  0  0
   22.0160  -19.5811  -11.0751 O   0  0  0  0  0  0  0  0  0  0  0  0
  2  1  1  1
  2  3  1  0
  4  2  1  0
  5  4  1  0
  5  6  1  1
  7  5  1  0
  7  8  2  0
  9  7  1  0
 10  9  1  0
 10 11  1  1
 11 12  1  0
 12 13  2  0
 12 20  1  0
 13 14  1  0
 14 15  1  0
 15 16  2  0
 16 17  1  0
 18 17  2  0
 19 18  1  0
 20 19  2  0
 20 15  1  0
 21 10  1  0
 22 21  2  0
 23 21  1  0
 24 25  1  1
 24 23  1  0
 25 26  1  0
 26 27  1  0
 27 28  1  0
 28 29  1  0
 30 24  1  0
 31 30  1  0
 32 30  2  0
M  END
$$$$
