LWK.pdb
     RDKit          3D

 32 33  0  0  1  0  0  0  0  0999 V2000
   30.3236  -24.2209  -18.3910 C   0  0  0  0  0  0  0  0  0  0  0  0
   29.4840  -22.9612  -18.1949 C   0  0  1  0  0  0  0  0  0  0  0  0
   28.7063  -22.7870  -19.5061 C   0  0  0  0  0  0  0  0  0  0  0  0
   28.4632  -23.1443  -17.1146 C   0  0  0  0  0  0  0  0  0  0  0  0
   27.6151  -21.9169  -16.8855 C   0  0  2  0  0  0  0  0  0  0  0  0
   28.3456  -20.6974  -16.9611 N   0  0  0  0  0  0  0  0  0  0  0  0
   26.9968  -22.0608  -15.5440 C   0  0  0  0  0  0  0  0  0  0  0  0
   26.3631  -23.1185  -15.2934 O   0  0  0  0  0  0  0  0  0  0  0  0
   27.1128  -21.0274  -14.5528 N   0  0  0  0  0  0  0  0  0  0  0  0
   26.4874  -21.1446  -13.2782 C   0  0  1  0  0  0  0  0  0  0  0  0
   27.0999  -20.2340  -12.2332 C   0  0  0  0  0  0  0  0  0  0  0  0
   26.4613  -20.3235  -10.9235 C   0  0  0  0  0  0  0  0  0  0  0  0
   25.1335  -20.2264  -10.6230 C   0  0  0  0  0  0  0  0  0  0  0  0
   24.9923  -20.3679   -9.2935 N   0  0  0  0  0  0  0  0  0  0  0  0
   26.2015  -20.5552   -8.7222 C   0  0  0  0  0  0  0  0  0  0  0  0
   26.6445  -20.7504   -7.4330 C   0  0  0  0  0  0  0  0  0  0  0  0
   27.9773  -20.9203   -7.1173 C   0  0  0  0  0  0  0  0  0  0  0  0
   28.9071  -20.8935   -8.1371 C   0  0  0  0  0  0  0  0  0  0  0  0
   28.4727  -20.6992   -9.4262 C   0  0  0  0  0  0  0  0  0  0  0  0
   27.1248  -20.5289   -9.7324 C   0  0  0  0  0  0  0  0  0  0  0  0
   25.0326  -20.8260  -13.3165 C   0  0  0  0  0  0  0  0  0  0  0  0
   24.7057  -19.6866  -13.7282 O   0  0  0  0  0  0  0  0  0  0  0  0
   24.0320  -21.7499  -12.9113 N   0  0  0  0  0  0  0  0  0  0  0  0
   22.6131  -21.5837  -13.2338 C   0  0  1  0  0  0  0  0  0  0  0  0
   21.9170  -22.8950  -13.2956 C   0  0  0  0  0  0  0  0  0  0  0  0
   20.4664  -22.7235  -13.6456 C   0  0  0  0  0  0  0  0  0  0  0  0
   19.7472  -24.0716  -13.6692 C   0  0  0  0  0  0  0  0  0  0  0  0
   18.3045  -23.7732  -14.0837 C   0  0  0  0  0  0  0  0  0  0  0  0
   17.5298  -24.9989  -14.1003 N   0  0  0  0  0  0  0  0  0  0  0  0
   21.9544  -20.6583  -12.3171 C   0  0  0  0  0  0  0  0  0  0  0  0
   22.3805  -20.2208  -11.0957 O   0  0  0  0  0  0  0  0  0  0  0  0
   20.8183  -20.1918  -12.7059 O   0  0  0  0  0  0  0  0  0  0  0  0
  2  1  1  6
  2  3  1  0
  4  2  1  0
  5  4  1  0
  5  6  1  1
  7  5  1  0
  7  8  2  0
  9  7  1  0
 10  9  1  0
 10 11  1  1
 11 12  1  0
 12 13  2  0
 12 20  1  0
 13 14  1  0
 14 15  1  0
 15 16  2  0
 16 17  1  0
 18 17  2  0
 19 18  1  0
 20 19  2  0
 20 15  1  0
 21 10  1  0
 22 21  2  0
 23 21  1  0
 24 25  1  1
 24 23  1  0
 25 26  1  0
 26 27  1  0
 27 28  1  0
 28 29  1  0
 30 24  1  0
 31 30  1  0
 32 30  2  0
M  END
$$$$
