LWK.pdb
     RDKit          3D

 32 33  0  0  1  0  0  0  0  0999 V2000
   29.3182  -24.8281  -18.2368 C   0  0  0  0  0  0  0  0  0  0  0  0
   28.9169  -23.3944  -17.8997 C   0  0  1  0  0  0  0  0  0  0  0  0
   28.1366  -22.8959  -19.1233 C   0  0  0  0  0  0  0  0  0  0  0  0
   27.9693  -23.3473  -16.7412 C   0  0  0  0  0  0  0  0  0  0  0  0
   27.6250  -21.9414  -16.3131 C   0  0  2  0  0  0  0  0  0  0  0  0
   28.7559  -21.0823  -16.2163 N   0  0  0  0  0  0  0  0  0  0  0  0
   26.9449  -22.0426  -14.9977 C   0  0  0  0  0  0  0  0  0  0  0  0
   25.9274  -22.7775  -14.9111 O   0  0  0  0  0  0  0  0  0  0  0  0
   27.4271  -21.3254  -13.8501 N   0  0  0  0  0  0  0  0  0  0  0  0
   26.7315  -21.3554  -12.6071 C   0  0  1  0  0  0  0  0  0  0  0  0
   27.5454  -20.7902  -11.4605 C   0  0  0  0  0  0  0  0  0  0  0  0
   26.8106  -20.6994  -10.2024 C   0  0  0  0  0  0  0  0  0  0  0  0
   25.4627  -20.7793  -10.0039 C   0  0  0  0  0  0  0  0  0  0  0  0
   25.2230  -20.6440   -8.6880 N   0  0  0  0  0  0  0  0  0  0  0  0
   26.3879  -20.4776   -8.0254 C   0  0  0  0  0  0  0  0  0  0  0  0
   26.7346  -20.2972   -6.7049 C   0  0  0  0  0  0  0  0  0  0  0  0
   28.0418  -20.1487   -6.2879 C   0  0  0  0  0  0  0  0  0  0  0  0
   29.0458  -20.1824   -7.2346 C   0  0  0  0  0  0  0  0  0  0  0  0
   28.7078  -20.3621   -8.5544 C   0  0  0  0  0  0  0  0  0  0  0  0
   27.3847  -20.5108   -8.9630 C   0  0  0  0  0  0  0  0  0  0  0  0
   25.4559  -20.5863  -12.6397 C   0  0  0  0  0  0  0  0  0  0  0  0
   25.5367  -19.3499  -12.8371 O   0  0  0  0  0  0  0  0  0  0  0  0
   24.1854  -21.1963  -12.4588 N   0  0  0  0  0  0  0  0  0  0  0  0
   22.9233  -20.5203  -12.7671 C   0  0  1  0  0  0  0  0  0  0  0  0
   22.1813  -21.2279  -13.8425 C   0  0  0  0  0  0  0  0  0  0  0  0
   20.8701  -20.5544  -14.1310 C   0  0  0  0  0  0  0  0  0  0  0  0
   20.0819  -21.3243  -15.1898 C   0  0  0  0  0  0  0  0  0  0  0  0
   18.8835  -20.4425  -15.5481 C   0  0  0  0  0  0  0  0  0  0  0  0
   18.0113  -21.1425  -16.4712 N   0  0  0  0  0  0  0  0  0  0  0  0
   22.1053  -20.3300  -11.5732 C   0  0  0  0  0  0  0  0  0  0  0  0
   21.3961  -19.2267  -11.1933 O   0  0  0  0  0  0  0  0  0  0  0  0
   22.0434  -21.3320  -10.7661 O   0  0  0  0  0  0  0  0  0  0  0  0
  2  1  1  6
  2  3  1  0
  4  2  1  0
  5  4  1  0
  5  6  1  1
  7  5  1  0
  7  8  2  0
  9  7  1  0
 10  9  1  0
 10 11  1  1
 11 12  1  0
 12 13  2  0
 12 20  1  0
 13 14  1  0
 14 15  1  0
 15 16  2  0
 16 17  1  0
 18 17  2  0
 19 18  1  0
 20 19  2  0
 20 15  1  0
 21 10  1  0
 22 21  2  0
 23 21  1  0
 24 25  1  6
 24 23  1  0
 25 26  1  0
 26 27  1  0
 27 28  1  0
 28 29  1  0
 30 24  1  0
 31 30  1  0
 32 30  2  0
M  END
$$$$
