LWK.pdb
     RDKit          3D

 32 33  0  0  1  0  0  0  0  0999 V2000
   28.2054  -19.8107  -18.5211 C   0  0  0  0  0  0  0  0  0  0  0  0
   28.4910  -19.4173  -17.0741 C   0  0  1  0  0  0  0  0  0  0  0  0
   28.0608  -17.9486  -16.9633 C   0  0  0  0  0  0  0  0  0  0  0  0
   27.6339  -20.1862  -16.1166 C   0  0  0  0  0  0  0  0  0  0  0  0
   27.7659  -19.7120  -14.6897 C   0  0  2  0  0  0  0  0  0  0  0  0
   29.0872  -19.8244  -14.1719 N   0  0  0  0  0  0  0  0  0  0  0  0
   26.8261  -20.5214  -13.8746 C   0  0  0  0  0  0  0  0  0  0  0  0
   26.3993  -21.6012  -14.3592 O   0  0  0  0  0  0  0  0  0  0  0  0
   26.4096  -20.0926  -12.5683 N   0  0  0  0  0  0  0  0  0  0  0  0
   25.5439  -20.8886  -11.7643 C   0  0  1  0  0  0  0  0  0  0  0  0
   25.6436  -20.5634  -10.2876 C   0  0  0  0  0  0  0  0  0  0  0  0
   26.9526  -20.8465   -9.7069 C   0  0  0  0  0  0  0  0  0  0  0  0
   28.0022  -21.5101  -10.2734 C   0  0  0  0  0  0  0  0  0  0  0  0
   29.0095  -21.5405   -9.3836 N   0  0  0  0  0  0  0  0  0  0  0  0
   28.6372  -20.9100   -8.2489 C   0  0  0  0  0  0  0  0  0  0  0  0
   29.2463  -20.6454   -7.0426 C   0  0  0  0  0  0  0  0  0  0  0  0
   28.6191  -19.9601   -6.0219 C   0  0  0  0  0  0  0  0  0  0  0  0
   27.3254  -19.5206   -6.2177 C   0  0  0  0  0  0  0  0  0  0  0  0
   26.7108  -19.7808   -7.4189 C   0  0  0  0  0  0  0  0  0  0  0  0
   27.3542  -20.4734   -8.4417 C   0  0  0  0  0  0  0  0  0  0  0  0
   24.1088  -20.7370  -12.1348 C   0  0  0  0  0  0  0  0  0  0  0  0
   23.6981  -19.5759  -12.3746 O   0  0  0  0  0  0  0  0  0  0  0  0
   23.2165  -21.8393  -12.2221 N   0  0  0  0  0  0  0  0  0  0  0  0
   21.8120  -21.7015  -12.6133 C   0  0  1  0  0  0  0  0  0  0  0  0
   21.1821  -23.0283  -12.8378 C   0  0  0  0  0  0  0  0  0  0  0  0
   19.7936  -22.8833  -13.3921 C   0  0  0  0  0  0  0  0  0  0  0  0
   19.1565  -24.2510  -13.6344 C   0  0  0  0  0  0  0  0  0  0  0  0
   17.7986  -23.9750  -14.2839 C   0  0  0  0  0  0  0  0  0  0  0  0
   17.0570  -25.2129  -14.4276 N   0  0  0  0  0  0  0  0  0  0  0  0
   21.0602  -20.8947  -11.6570 C   0  0  0  0  0  0  0  0  0  0  0  0
   20.1155  -19.9402  -11.9043 O   0  0  0  0  0  0  0  0  0  0  0  0
   21.3210  -21.1052  -10.4132 O   0  0  0  0  0  0  0  0  0  0  0  0
  2  1  1  6
  2  3  1  0
  4  2  1  0
  5  4  1  0
  5  6  1  1
  7  5  1  0
  7  8  2  0
  9  7  1  0
 10  9  1  0
 10 11  1  1
 11 12  1  0
 12 13  2  0
 12 20  1  0
 13 14  1  0
 14 15  1  0
 15 16  2  0
 16 17  1  0
 18 17  2  0
 19 18  1  0
 20 19  2  0
 20 15  1  0
 21 10  1  0
 22 21  2  0
 23 21  1  0
 24 25  1  1
 24 23  1  0
 25 26  1  0
 26 27  1  0
 27 28  1  0
 28 29  1  0
 30 24  1  0
 31 30  1  0
 32 30  2  0
M  END
$$$$
