WRQ.pdb
     RDKit          3D

 35 36  0  0  1  0  0  0  0  0999 V2000
    6.3197  -17.0715   24.8445 N   0  0  0  0  0  0  0  0  0  0  0  0
    7.3514  -16.1694   24.3530 C   0  0  1  0  0  0  0  0  0  0  0  0
    8.1905  -15.6958   25.5546 C   0  0  0  0  0  0  0  0  0  0  0  0
    7.4599  -14.6791   26.3137 C   0  0  0  0  0  0  0  0  0  0  0  0
    6.9237  -14.8305   27.5845 C   0  0  0  0  0  0  0  0  0  0  0  0
    6.3101  -13.6989   27.9324 N   0  0  0  0  0  0  0  0  0  0  0  0
    6.4127  -12.7848   26.9392 C   0  0  0  0  0  0  0  0  0  0  0  0
    5.9680  -11.5045   26.8060 C   0  0  0  0  0  0  0  0  0  0  0  0
    6.2359  -10.8074   25.6524 C   0  0  0  0  0  0  0  0  0  0  0  0
    6.9584  -11.4251   24.6386 C   0  0  0  0  0  0  0  0  0  0  0  0
    7.4063  -12.7023   24.7642 C   0  0  0  0  0  0  0  0  0  0  0  0
    7.1410  -13.4110   25.9202 C   0  0  0  0  0  0  0  0  0  0  0  0
    8.2477  -16.9442   23.4430 C   0  0  0  0  0  0  0  0  0  0  0  0
    8.7624  -17.9882   23.8805 O   0  0  0  0  0  0  0  0  0  0  0  0
    8.1481  -12.6734   18.5201 N   0  0  0  0  0  0  0  0  0  0  0  0
    7.8665  -13.7297   17.5955 C   0  0  0  0  0  0  0  0  0  0  0  0
    8.3763  -13.7121   16.4087 N   0  0  0  0  0  0  0  0  0  0  0  0
    7.0328  -14.8153   17.9592 N   0  0  0  0  0  0  0  0  0  0  0  0
    7.3302  -15.5836   19.1394 C   0  0  0  0  0  0  0  0  0  0  0  0
    8.3686  -14.9905   20.0330 C   0  0  0  0  0  0  0  0  0  0  0  0
    9.6591  -15.7467   20.1281 C   0  0  0  0  0  0  0  0  0  0  0  0
    9.6788  -16.6354   21.3738 C   0  0  2  0  0  0  0  0  0  0  0  0
    8.4870  -16.4928   22.1444 N   0  0  0  0  0  0  0  0  0  0  0  0
   10.9216  -16.4906   22.1454 C   0  0  0  0  0  0  0  0  0  0  0  0
   11.2869  -15.3610   22.5990 O   0  0  0  0  0  0  0  0  0  0  0  0
    8.1605  -14.4391   15.6844 N   0  0  0  0  0  0  0  0  0  0  0  0
   12.7731  -20.7829   26.1900 C   0  0  0  0  0  0  0  0  0  0  0  0
   11.8444  -19.7180   26.1388 O   0  0  0  0  0  0  0  0  0  0  0  0
   10.9043  -19.6578   27.0155 C   0  0  0  0  0  0  0  0  0  0  0  0
   11.8805  -18.6450   25.1347 C   0  0  0  0  0  0  0  0  0  0  0  0
   12.9982  -18.6375   24.1820 C   0  0  2  0  0  0  0  0  0  0  0  0
   12.9898  -17.5482   23.1522 N   0  0  0  0  0  0  0  0  0  0  0  0
   11.7303  -17.6197   22.3945 C   0  0  0  0  0  0  0  0  0  0  0  0
   14.1356  -17.3723   22.2872 O   0  0  0  0  0  0  0  0  0  0  0  0
   15.4117  -17.1356   22.8463 O   0  0  0  0  0  0  0  0  0  0  0  0
  2  1  1  1
  2  3  1  0
  4  5  2  0
  4  3  1  0
  6  5  1  0
  7 12  2  0
  7  6  1  0
  8  7  1  0
  9 10  1  0
  9  8  2  0
 10 11  2  0
 11 12  1  0
 12  4  1  0
 13  2  1  0
 14 13  2  0
 16 18  1  0
 16 15  1  0
 17 16  2  0
 19 18  1  0
 20 19  1  0
 20 21  1  0
 22 21  1  6
 22 23  1  0
 23 13  1  0
 24 22  1  0
 24 25  2  0
 26 27  1  0
 27 28  2  0
 27 29  1  0
 29 30  1  0
 31 30  1  1
 31 32  1  0
 32 24  1  0
 33 34  1  0
 33 31  1  0
 35 33  2  0
M  END
$$$$
