WRQ.pdb
     RDKit          3D

 35 36  0  0  1  0  0  0  0  0999 V2000
    6.1324  -17.7322   24.7879 N   0  0  0  0  0  0  0  0  0  0  0  0
    7.0426  -16.6827   24.3523 C   0  0  1  0  0  0  0  0  0  0  0  0
    7.7435  -16.1048   25.5961 C   0  0  0  0  0  0  0  0  0  0  0  0
    6.9811  -14.9734   26.1275 C   0  0  0  0  0  0  0  0  0  0  0  0
    5.8071  -15.0473   26.8633 C   0  0  0  0  0  0  0  0  0  0  0  0
    5.3956  -13.8107   27.1460 N   0  0  0  0  0  0  0  0  0  0  0  0
    6.2522  -12.9006   26.6261 C   0  0  0  0  0  0  0  0  0  0  0  0
    6.2801  -11.5391   26.6378 C   0  0  0  0  0  0  0  0  0  0  0  0
    7.3060  -10.8738   26.0106 C   0  0  0  0  0  0  0  0  0  0  0  0
    8.3000  -11.6064   25.3728 C   0  0  0  0  0  0  0  0  0  0  0  0
    8.2797  -12.9654   25.3574 C   0  0  0  0  0  0  0  0  0  0  0  0
    7.2518  -13.6426   25.9848 C   0  0  0  0  0  0  0  0  0  0  0  0
    8.0864  -17.3069   23.4846 C   0  0  0  0  0  0  0  0  0  0  0  0
    8.2877  -18.5285   23.6007 O   0  0  0  0  0  0  0  0  0  0  0  0
    7.2996  -13.2942   17.0700 N   0  0  0  0  0  0  0  0  0  0  0  0
    8.2903  -13.1213   18.0891 C   0  0  0  0  0  0  0  0  0  0  0  0
    8.8105  -11.9584   18.3037 N   0  0  0  0  0  0  0  0  0  0  0  0
    8.7168  -14.2121   18.8853 N   0  0  0  0  0  0  0  0  0  0  0  0
    8.0639  -15.4888   18.7611 C   0  0  0  0  0  0  0  0  0  0  0  0
    8.5859  -16.5549   19.6665 C   0  0  0  0  0  0  0  0  0  0  0  0
    9.8598  -16.2343   20.3880 C   0  0  0  0  0  0  0  0  0  0  0  0
    9.8987  -16.9209   21.7551 C   0  0  2  0  0  0  0  0  0  0  0  0
    8.8025  -16.5250   22.5775 N   0  0  0  0  0  0  0  0  0  0  0  0
   11.2142  -16.8079   22.4012 C   0  0  0  0  0  0  0  0  0  0  0  0
   11.4834  -15.8417   23.1817 O   0  0  0  0  0  0  0  0  0  0  0  0
    9.5504  -11.7894   19.0273 N   0  0  0  0  0  0  0  0  0  0  0  0
   14.2515  -14.7289   18.5384 C   0  0  0  0  0  0  0  0  0  0  0  0
   15.3009  -15.1284   19.3976 O   0  0  0  0  0  0  0  0  0  0  0  0
   16.4855  -14.6635   19.2055 C   0  0  0  0  0  0  0  0  0  0  0  0
   15.1302  -16.0550   20.5259 C   0  0  0  0  0  0  0  0  0  0  0  0
   13.7788  -16.5630   20.7950 C   0  0  1  0  0  0  0  0  0  0  0  0
   13.6270  -17.4554   21.9899 N   0  0  0  0  0  0  0  0  0  0  0  0
   12.2029  -17.7852   22.1592 C   0  0  0  0  0  0  0  0  0  0  0  0
   14.2528  -17.0886   23.2412 O   0  0  0  0  0  0  0  0  0  0  0  0
   13.5042  -16.4171   24.2339 O   0  0  0  0  0  0  0  0  0  0  0  0
  2  1  1  1
  2  3  1  0
  4  5  2  0
  4  3  1  0
  6  5  1  0
  7 12  2  0
  7  6  1  0
  8  7  1  0
  9 10  1  0
  9  8  2  0
 10 11  2  0
 11 12  1  0
 12  4  1  0
 13  2  1  0
 14 13  2  0
 16 18  1  0
 16 15  1  0
 17 16  2  0
 19 18  1  0
 20 19  1  0
 20 21  1  0
 22 21  1  6
 22 23  1  0
 23 13  1  0
 24 22  1  0
 24 25  2  0
 26 27  1  0
 27 28  2  0
 27 29  1  0
 29 30  1  0
 31 30  1  6
 31 32  1  0
 32 24  1  0
 33 34  1  0
 33 31  1  0
 35 33  2  0
M  END
$$$$
