WRQ.pdb
     RDKit          3D

 35 36  0  0  1  0  0  0  0  0999 V2000
    6.7287  -17.9322   24.8841 N   0  0  0  0  0  0  0  0  0  0  0  0
    7.4616  -16.9148   24.1441 C   0  0  1  0  0  0  0  0  0  0  0  0
    8.2659  -16.0714   25.1511 C   0  0  0  0  0  0  0  0  0  0  0  0
    7.3707  -15.1905   25.9037 C   0  0  0  0  0  0  0  0  0  0  0  0
    6.3143  -15.5884   26.7104 C   0  0  0  0  0  0  0  0  0  0  0  0
    5.7166  -14.5042   27.2058 N   0  0  0  0  0  0  0  0  0  0  0  0
    6.3332  -13.3840   26.7616 C   0  0  0  0  0  0  0  0  0  0  0  0
    6.1135  -12.0568   26.9738 C   0  0  0  0  0  0  0  0  0  0  0  0
    6.9288  -11.1274   26.3739 C   0  0  0  0  0  0  0  0  0  0  0  0
    7.9666  -11.5613   25.5577 C   0  0  0  0  0  0  0  0  0  0  0  0
    8.1928  -12.8841   25.3415 C   0  0  0  0  0  0  0  0  0  0  0  0
    7.3777  -13.8256   25.9400 C   0  0  0  0  0  0  0  0  0  0  0  0
    8.4329  -17.6071   23.2446 C   0  0  0  0  0  0  0  0  0  0  0  0
    8.8310  -18.7377   23.5753 O   0  0  0  0  0  0  0  0  0  0  0  0
    6.7453  -14.3432   18.2966 N   0  0  0  0  0  0  0  0  0  0  0  0
    7.8487  -13.8173   17.5509 C   0  0  0  0  0  0  0  0  0  0  0  0
    7.8436  -12.5869   17.1572 N   0  0  0  0  0  0  0  0  0  0  0  0
    8.9675  -14.6258   17.2344 N   0  0  0  0  0  0  0  0  0  0  0  0
    9.0671  -15.9558   17.7756 C   0  0  0  0  0  0  0  0  0  0  0  0
    9.3980  -16.0218   19.2299 C   0  0  0  0  0  0  0  0  0  0  0  0
    9.6381  -17.3933   19.7844 C   0  0  0  0  0  0  0  0  0  0  0  0
    9.9973  -17.3244   21.2704 C   0  0  2  0  0  0  0  0  0  0  0  0
    8.8675  -16.9863   22.0728 N   0  0  0  0  0  0  0  0  0  0  0  0
   11.1884  -16.5001   21.5209 C   0  0  0  0  0  0  0  0  0  0  0  0
   11.8853  -16.0418   20.5620 O   0  0  0  0  0  0  0  0  0  0  0  0
    8.6109  -12.1710   16.5757 N   0  0  0  0  0  0  0  0  0  0  0  0
   11.7298  -18.2532   27.1563 C   0  0  0  0  0  0  0  0  0  0  0  0
   12.4333  -19.2048   26.3825 O   0  0  0  0  0  0  0  0  0  0  0  0
   13.1361  -20.1052   26.9754 C   0  0  0  0  0  0  0  0  0  0  0  0
   12.4142  -19.2438   24.9131 C   0  0  0  0  0  0  0  0  0  0  0  0
   11.6616  -18.1960   24.2111 C   0  0  1  0  0  0  0  0  0  0  0  0
   12.4658  -17.0720   23.6307 N   0  0  0  0  0  0  0  0  0  0  0  0
   11.5730  -16.2044   22.8460 C   0  0  0  0  0  0  0  0  0  0  0  0
   13.6976  -17.3607   22.9299 O   0  0  0  0  0  0  0  0  0  0  0  0
   14.9157  -16.8109   23.3891 O   0  0  0  0  0  0  0  0  0  0  0  0
  2  1  1  1
  2  3  1  0
  4  5  2  0
  4  3  1  0
  6  5  1  0
  7 12  2  0
  7  6  1  0
  8  7  1  0
  9 10  1  0
  9  8  2  0
 10 11  2  0
 11 12  1  0
 12  4  1  0
 13  2  1  0
 14 13  2  0
 16 18  1  0
 16 15  1  0
 17 16  2  0
 19 18  1  0
 20 19  1  0
 20 21  1  0
 22 21  1  6
 22 23  1  0
 23 13  1  0
 24 22  1  0
 24 25  2  0
 26 27  1  0
 27 28  2  0
 27 29  1  0
 29 30  1  0
 31 30  1  1
 31 32  1  0
 32 24  1  0
 33 34  1  0
 33 31  1  0
 35 33  2  0
M  END
$$$$
