WRQ.pdb
     RDKit          3D

 35 36  0  0  1  0  0  0  0  0999 V2000
    6.6422  -18.6774   25.0836 N   0  0  0  0  0  0  0  0  0  0  0  0
    6.7951  -17.2664   24.7587 C   0  0  1  0  0  0  0  0  0  0  0  0
    7.5962  -16.5949   25.8898 C   0  0  0  0  0  0  0  0  0  0  0  0
    7.0068  -15.2978   26.2273 C   0  0  0  0  0  0  0  0  0  0  0  0
    5.6884  -15.0646   26.5913 C   0  0  0  0  0  0  0  0  0  0  0  0
    5.5212  -13.7575   26.7960 N   0  0  0  0  0  0  0  0  0  0  0  0
    6.6832  -13.0966   26.5827 C   0  0  0  0  0  0  0  0  0  0  0  0
    7.0314  -11.7822   26.6593 C   0  0  0  0  0  0  0  0  0  0  0  0
    8.3226  -11.4028   26.3816 C   0  0  0  0  0  0  0  0  0  0  0  0
    9.2530  -12.3720   26.0256 C   0  0  0  0  0  0  0  0  0  0  0  0
    8.9134  -13.6859   25.9477 C   0  0  0  0  0  0  0  0  0  0  0  0
    7.6173  -14.0763   26.2246 C   0  0  0  0  0  0  0  0  0  0  0  0
    7.5986  -17.1656   23.5033 C   0  0  0  0  0  0  0  0  0  0  0  0
    8.5793  -17.9195   23.3759 O   0  0  0  0  0  0  0  0  0  0  0  0
    7.7281  -15.5485   16.5006 N   0  0  0  0  0  0  0  0  0  0  0  0
    8.2788  -14.2514   16.2470 C   0  0  0  0  0  0  0  0  0  0  0  0
    8.9101  -14.0139   15.1452 N   0  0  0  0  0  0  0  0  0  0  0  0
    8.1404  -13.2027   17.1887 N   0  0  0  0  0  0  0  0  0  0  0  0
    7.4271  -13.4322   18.4176 C   0  0  0  0  0  0  0  0  0  0  0  0
    8.0645  -14.4154   19.3426 C   0  0  0  0  0  0  0  0  0  0  0  0
    7.2904  -14.7431   20.5833 C   0  0  0  0  0  0  0  0  0  0  0  0
    8.0487  -15.7533   21.4473 C   0  0  2  0  0  0  0  0  0  0  0  0
    7.2425  -16.2466   22.5156 N   0  0  0  0  0  0  0  0  0  0  0  0
    9.3684  -15.2560   21.8622 C   0  0  0  0  0  0  0  0  0  0  0  0
    9.5019  -14.5241   22.8925 O   0  0  0  0  0  0  0  0  0  0  0  0
    9.3035  -13.0720   14.9050 N   0  0  0  0  0  0  0  0  0  0  0  0
   11.1490  -18.6990   25.1279 C   0  0  0  0  0  0  0  0  0  0  0  0
   11.9089  -17.5127   25.2486 O   0  0  0  0  0  0  0  0  0  0  0  0
   12.4594  -17.2278   26.3765 C   0  0  0  0  0  0  0  0  0  0  0  0
   12.1254  -16.5611   24.1493 C   0  0  0  0  0  0  0  0  0  0  0  0
   11.5908  -16.9112   22.8269 C   0  0  2  0  0  0  0  0  0  0  0  0
   11.8105  -15.9109   21.7322 N   0  0  0  0  0  0  0  0  0  0  0  0
   10.5147  -15.5929   21.1115 C   0  0  0  0  0  0  0  0  0  0  0  0
   12.8431  -16.1438   20.7466 O   0  0  0  0  0  0  0  0  0  0  0  0
   14.2041  -16.0635   21.1184 O   0  0  0  0  0  0  0  0  0  0  0  0
  2  1  1  1
  2  3  1  0
  4  5  2  0
  4  3  1  0
  6  5  1  0
  7 12  2  0
  7  6  1  0
  8  7  1  0
  9 10  1  0
  9  8  2  0
 10 11  2  0
 11 12  1  0
 12  4  1  0
 13  2  1  0
 14 13  2  0
 16 18  1  0
 16 15  1  0
 17 16  2  0
 19 18  1  0
 20 19  1  0
 20 21  1  0
 22 21  1  1
 22 23  1  0
 23 13  1  0
 24 22  1  0
 24 25  2  0
 26 27  1  0
 27 28  2  0
 27 29  1  0
 29 30  1  0
 31 30  1  1
 31 32  1  0
 32 24  1  0
 33 34  1  0
 33 31  1  0
 35 33  2  0
M  END
$$$$
