WRQ.pdb
     RDKit          3D

 35 36  0  0  1  0  0  0  0  0999 V2000
    6.5133  -17.3450   24.0830 N   0  0  0  0  0  0  0  0  0  0  0  0
    7.4193  -16.3205   23.5836 C   0  0  1  0  0  0  0  0  0  0  0  0
    8.0652  -15.6170   24.7919 C   0  0  0  0  0  0  0  0  0  0  0  0
    7.0984  -14.7256   25.4358 C   0  0  0  0  0  0  0  0  0  0  0  0
    5.9546  -15.1114   26.1199 C   0  0  0  0  0  0  0  0  0  0  0  0
    5.3141  -14.0203   26.5410 N   0  0  0  0  0  0  0  0  0  0  0  0
    5.9861  -12.9070   26.1649 C   0  0  0  0  0  0  0  0  0  0  0  0
    5.7551  -11.5772   26.3463 C   0  0  0  0  0  0  0  0  0  0  0  0
    6.6405  -10.6570   25.8386 C   0  0  0  0  0  0  0  0  0  0  0  0
    7.7599  -11.1029   25.1459 C   0  0  0  0  0  0  0  0  0  0  0  0
    7.9979  -12.4284   24.9613 C   0  0  0  0  0  0  0  0  0  0  0  0
    7.1127  -13.3606   25.4678 C   0  0  0  0  0  0  0  0  0  0  0  0
    8.5041  -16.9988   22.8123 C   0  0  0  0  0  0  0  0  0  0  0  0
    8.9348  -18.0835   23.2415 O   0  0  0  0  0  0  0  0  0  0  0  0
    8.4642  -12.8423   17.5311 N   0  0  0  0  0  0  0  0  0  0  0  0
    7.9378  -13.8988   16.7207 C   0  0  0  0  0  0  0  0  0  0  0  0
    6.9943  -13.6617   15.8706 N   0  0  0  0  0  0  0  0  0  0  0  0
    8.4393  -15.2191   16.8261 N   0  0  0  0  0  0  0  0  0  0  0  0
    9.5907  -15.4851   17.6478 C   0  0  0  0  0  0  0  0  0  0  0  0
    9.3574  -15.3678   19.1176 C   0  0  0  0  0  0  0  0  0  0  0  0
   10.5682  -15.5248   19.9867 C   0  0  0  0  0  0  0  0  0  0  0  0
   10.3135  -16.5486   21.0954 C   0  0  2  0  0  0  0  0  0  0  0  0
    9.0051  -16.4160   21.6476 N   0  0  0  0  0  0  0  0  0  0  0  0
   11.3935  -16.5747   22.0923 C   0  0  0  0  0  0  0  0  0  0  0  0
   11.6830  -15.5434   22.7763 O   0  0  0  0  0  0  0  0  0  0  0  0
    6.5969  -14.3989   15.2395 N   0  0  0  0  0  0  0  0  0  0  0  0
   13.8684  -21.7905   26.0294 C   0  0  0  0  0  0  0  0  0  0  0  0
   13.3776  -20.4782   26.2192 O   0  0  0  0  0  0  0  0  0  0  0  0
   12.6002  -20.2330   27.2151 C   0  0  0  0  0  0  0  0  0  0  0  0
   13.7047  -19.3446   25.3423 C   0  0  0  0  0  0  0  0  0  0  0  0
   12.7500  -19.0051   24.2791 C   0  0  1  0  0  0  0  0  0  0  0  0
   13.1472  -17.8928   23.3560 N   0  0  0  0  0  0  0  0  0  0  0  0
   12.1272  -17.7613   22.3034 C   0  0  0  0  0  0  0  0  0  0  0  0
   14.4900  -17.8525   22.8201 O   0  0  0  0  0  0  0  0  0  0  0  0
   15.5425  -17.3144   23.5944 O   0  0  0  0  0  0  0  0  0  0  0  0
  2  1  1  1
  2  3  1  0
  4  5  2  0
  4  3  1  0
  6  5  1  0
  7 12  2  0
  7  6  1  0
  8  7  1  0
  9 10  1  0
  9  8  2  0
 10 11  2  0
 11 12  1  0
 12  4  1  0
 13  2  1  0
 14 13  2  0
 16 18  1  0
 16 15  1  0
 17 16  2  0
 19 18  1  0
 20 19  1  0
 20 21  1  0
 22 21  1  6
 22 23  1  0
 23 13  1  0
 24 22  1  0
 24 25  2  0
 26 27  1  0
 27 28  2  0
 27 29  1  0
 29 30  1  0
 31 30  1  1
 31 32  1  0
 32 24  1  0
 33 34  1  0
 33 31  1  0
 35 33  2  0
M  END
$$$$
