WRQ.pdb
     RDKit          3D

 35 36  0  0  1  0  0  0  0  0999 V2000
    7.3007  -17.3831   26.3653 N   0  0  0  0  0  0  0  0  0  0  0  0
    7.4633  -16.6187   25.1369 C   0  0  1  0  0  0  0  0  0  0  0  0
    8.5778  -15.5792   25.3594 C   0  0  0  0  0  0  0  0  0  0  0  0
    8.1778  -14.6201   26.3908 C   0  0  0  0  0  0  0  0  0  0  0  0
    8.5478  -14.6499   27.7278 C   0  0  0  0  0  0  0  0  0  0  0  0
    7.9665  -13.6298   28.3599 N   0  0  0  0  0  0  0  0  0  0  0  0
    7.2144  -12.9090   27.4955 C   0  0  0  0  0  0  0  0  0  0  0  0
    6.4417  -11.7971   27.6408 C   0  0  0  0  0  0  0  0  0  0  0  0
    5.7831  -11.2787   26.5517 C   0  0  0  0  0  0  0  0  0  0  0  0
    5.9183  -11.9021   25.3170 C   0  0  0  0  0  0  0  0  0  0  0  0
    6.6882  -13.0117   25.1636 C   0  0  0  0  0  0  0  0  0  0  0  0
    7.3534  -13.5402   26.2532 C   0  0  0  0  0  0  0  0  0  0  0  0
    7.9160  -17.5562   24.0655 C   0  0  0  0  0  0  0  0  0  0  0  0
    8.4181  -18.6398   24.4119 O   0  0  0  0  0  0  0  0  0  0  0  0
    9.8330  -13.6221   18.6769 N   0  0  0  0  0  0  0  0  0  0  0  0
    8.5727  -12.9448   18.6223 C   0  0  0  0  0  0  0  0  0  0  0  0
    8.5242  -11.6714   18.4102 N   0  0  0  0  0  0  0  0  0  0  0  0
    7.3566  -13.6505   18.7923 N   0  0  0  0  0  0  0  0  0  0  0  0
    7.3708  -15.0849   18.9114 C   0  0  0  0  0  0  0  0  0  0  0  0
    7.9972  -15.6077   20.1615 C   0  0  0  0  0  0  0  0  0  0  0  0
    8.0503  -17.0998   20.2919 C   0  0  0  0  0  0  0  0  0  0  0  0
    8.6495  -17.5075   21.6398 C   0  0  2  0  0  0  0  0  0  0  0  0
    7.7703  -17.2076   22.7222 N   0  0  0  0  0  0  0  0  0  0  0  0
   10.0214  -17.0099   21.8161 C   0  0  0  0  0  0  0  0  0  0  0  0
   10.2595  -15.9624   22.4953 O   0  0  0  0  0  0  0  0  0  0  0  0
    7.6472  -11.1075   18.5225 N   0  0  0  0  0  0  0  0  0  0  0  0
   11.2080  -20.9497   25.3159 C   0  0  0  0  0  0  0  0  0  0  0  0
   12.4033  -20.1957   25.2708 O   0  0  0  0  0  0  0  0  0  0  0  0
   13.1771  -20.1775   26.2990 C   0  0  0  0  0  0  0  0  0  0  0  0
   12.8390  -19.4170   24.1027 C   0  0  0  0  0  0  0  0  0  0  0  0
   11.8002  -18.8375   23.2413 C   0  0  1  0  0  0  0  0  0  0  0  0
   12.2728  -18.1543   21.9934 N   0  0  0  0  0  0  0  0  0  0  0  0
   11.1014  -17.7009   21.2268 C   0  0  0  0  0  0  0  0  0  0  0  0
   13.2563  -18.8003   21.1524 O   0  0  0  0  0  0  0  0  0  0  0  0
   14.6334  -18.5818   21.3821 O   0  0  0  0  0  0  0  0  0  0  0  0
  2  1  1  1
  2  3  1  0
  4  5  2  0
  4  3  1  0
  6  5  1  0
  7 12  2  0
  7  6  1  0
  8  7  1  0
  9 10  1  0
  9  8  2  0
 10 11  2  0
 11 12  1  0
 12  4  1  0
 13  2  1  0
 14 13  2  0
 16 18  1  0
 16 15  1  0
 17 16  2  0
 19 18  1  0
 20 19  1  0
 20 21  1  0
 22 21  1  6
 22 23  1  0
 23 13  1  0
 24 22  1  0
 24 25  2  0
 26 27  1  0
 27 28  2  0
 27 29  1  0
 29 30  1  0
 31 30  1  1
 31 32  1  0
 32 24  1  0
 33 34  1  0
 33 31  1  0
 35 33  2  0
M  END
$$$$
