WRQ.pdb
     RDKit          3D

 35 36  0  0  1  0  0  0  0  0999 V2000
    6.4009  -17.2079   24.9391 N   0  0  0  0  0  0  0  0  0  0  0  0
    7.0461  -15.9930   24.4622 C   0  0  1  0  0  0  0  0  0  0  0  0
    8.3491  -15.7940   25.2588 C   0  0  0  0  0  0  0  0  0  0  0  0
    8.1423  -14.8222   26.3343 C   0  0  0  0  0  0  0  0  0  0  0  0
    8.3134  -15.0512   27.6921 C   0  0  0  0  0  0  0  0  0  0  0  0
    8.0051  -13.9390   28.3601 N   0  0  0  0  0  0  0  0  0  0  0  0
    7.6306  -12.9632   27.4998 C   0  0  0  0  0  0  0  0  0  0  0  0
    7.2319  -11.6730   27.6758 C   0  0  0  0  0  0  0  0  0  0  0  0
    6.9105  -10.9048   26.5826 C   0  0  0  0  0  0  0  0  0  0  0  0
    6.9983  -11.4618   25.3124 C   0  0  0  0  0  0  0  0  0  0  0  0
    7.3961  -12.7484   25.1284 C   0  0  0  0  0  0  0  0  0  0  0  0
    7.7206  -13.5284   26.2218 C   0  0  0  0  0  0  0  0  0  0  0  0
    7.4104  -16.1957   23.0276 C   0  0  0  0  0  0  0  0  0  0  0  0
    7.6097  -17.3585   22.6347 O   0  0  0  0  0  0  0  0  0  0  0  0
    8.2040  -13.3249   15.0241 N   0  0  0  0  0  0  0  0  0  0  0  0
    8.3150  -14.6369   15.5865 C   0  0  0  0  0  0  0  0  0  0  0  0
    9.0800  -15.5207   15.0365 N   0  0  0  0  0  0  0  0  0  0  0  0
    7.5986  -14.9933   16.7550 N   0  0  0  0  0  0  0  0  0  0  0  0
    7.2329  -13.9794   17.7090 C   0  0  0  0  0  0  0  0  0  0  0  0
    8.2570  -13.7030   18.7594 C   0  0  0  0  0  0  0  0  0  0  0  0
    7.7603  -13.7038   20.1734 C   0  0  0  0  0  0  0  0  0  0  0  0
    7.8720  -15.1005   20.7888 C   0  0  2  0  0  0  0  0  0  0  0  0
    7.5184  -15.0997   22.1707 N   0  0  0  0  0  0  0  0  0  0  0  0
    9.1611  -15.7416   20.4924 C   0  0  0  0  0  0  0  0  0  0  0  0
    9.3583  -16.3455   19.3916 O   0  0  0  0  0  0  0  0  0  0  0  0
    9.2307  -16.4761   15.4418 N   0  0  0  0  0  0  0  0  0  0  0  0
   14.4761  -13.7509   19.1892 C   0  0  0  0  0  0  0  0  0  0  0  0
   14.6618  -15.1364   19.4016 O   0  0  0  0  0  0  0  0  0  0  0  0
   15.6721  -15.7273   18.8663 C   0  0  0  0  0  0  0  0  0  0  0  0
   13.7647  -15.9696   20.2152 C   0  0  0  0  0  0  0  0  0  0  0  0
   12.4069  -15.4690   20.4659 C   0  0  1  0  0  0  0  0  0  0  0  0
   11.4958  -16.3713   21.2424 N   0  0  0  0  0  0  0  0  0  0  0  0
   10.2063  -15.6901   21.4389 C   0  0  0  0  0  0  0  0  0  0  0  0
   11.9718  -16.9956   22.4571 O   0  0  0  0  0  0  0  0  0  0  0  0
   11.4791  -16.5669   23.7102 O   0  0  0  0  0  0  0  0  0  0  0  0
  2  1  1  1
  2  3  1  0
  4  5  2  0
  4  3  1  0
  6  5  1  0
  7 12  2  0
  7  6  1  0
  8  7  1  0
  9 10  1  0
  9  8  2  0
 10 11  2  0
 11 12  1  0
 12  4  1  0
 13  2  1  0
 14 13  2  0
 16 18  1  0
 16 15  1  0
 17 16  2  0
 19 18  1  0
 20 19  1  0
 20 21  1  0
 22 21  1  1
 22 23  1  0
 23 13  1  0
 24 22  1  0
 24 25  2  0
 26 27  1  0
 27 28  2  0
 27 29  1  0
 29 30  1  0
 31 30  1  6
 31 32  1  0
 32 24  1  0
 33 34  1  0
 33 31  1  0
 35 33  2  0
M  END
$$$$
