WRQ.pdb
     RDKit          3D

 35 36  0  0  1  0  0  0  0  0999 V2000
    7.4189  -17.1783   26.2060 N   0  0  0  0  0  0  0  0  0  0  0  0
    7.9365  -16.3456   25.1296 C   0  0  1  0  0  0  0  0  0  0  0  0
    9.0585  -15.4593   25.7022 C   0  0  0  0  0  0  0  0  0  0  0  0
    8.5099  -14.5125   26.6750 C   0  0  0  0  0  0  0  0  0  0  0  0
    8.7665  -14.4948   28.0385 C   0  0  0  0  0  0  0  0  0  0  0  0
    8.0674  -13.5061   28.5971 N   0  0  0  0  0  0  0  0  0  0  0  0
    7.3452  -12.8526   27.6570 C   0  0  0  0  0  0  0  0  0  0  0  0
    6.4909  -11.7934   27.7126 C   0  0  0  0  0  0  0  0  0  0  0  0
    5.8940  -11.3392   26.5611 C   0  0  0  0  0  0  0  0  0  0  0  0
    6.1743  -11.9725   25.3562 C   0  0  0  0  0  0  0  0  0  0  0  0
    7.0263  -13.0297   25.2923 C   0  0  0  0  0  0  0  0  0  0  0  0
    7.6305  -13.4936   26.4451 C   0  0  0  0  0  0  0  0  0  0  0  0
    8.5403  -17.2438   24.0998 C   0  0  0  0  0  0  0  0  0  0  0  0
    9.0584  -18.3069   24.4840 O   0  0  0  0  0  0  0  0  0  0  0  0
    8.5820  -11.8101   18.2489 N   0  0  0  0  0  0  0  0  0  0  0  0
    8.6837  -13.2323   18.3800 C   0  0  0  0  0  0  0  0  0  0  0  0
    9.8404  -13.8075   18.3758 N   0  0  0  0  0  0  0  0  0  0  0  0
    7.5269  -14.0368   18.5226 N   0  0  0  0  0  0  0  0  0  0  0  0
    7.6614  -15.4471   18.7768 C   0  0  0  0  0  0  0  0  0  0  0  0
    8.3616  -15.7948   20.0486 C   0  0  0  0  0  0  0  0  0  0  0  0
    8.5135  -17.2585   20.3326 C   0  0  0  0  0  0  0  0  0  0  0  0
    9.2223  -17.4828   21.6703 C   0  0  2  0  0  0  0  0  0  0  0  0
    8.5128  -16.8824   22.7523 N   0  0  0  0  0  0  0  0  0  0  0  0
   10.6495  -17.1353   21.6130 C   0  0  0  0  0  0  0  0  0  0  0  0
   11.0309  -15.9237   21.5732 O   0  0  0  0  0  0  0  0  0  0  0  0
    9.9594  -14.8486   18.3353 N   0  0  0  0  0  0  0  0  0  0  0  0
   14.0578  -22.0118   22.2640 C   0  0  0  0  0  0  0  0  0  0  0  0
   14.2805  -20.9682   23.1917 O   0  0  0  0  0  0  0  0  0  0  0  0
   14.6199  -21.2584   24.3986 C   0  0  0  0  0  0  0  0  0  0  0  0
   14.1547  -19.5402   22.8665 C   0  0  0  0  0  0  0  0  0  0  0  0
   13.8075  -19.1816   21.4852 C   0  0  2  0  0  0  0  0  0  0  0  0
   13.0402  -17.9073   21.2994 N   0  0  0  0  0  0  0  0  0  0  0  0
   11.6223  -18.1574   21.6035 C   0  0  0  0  0  0  0  0  0  0  0  0
   13.2089  -17.1409   20.0845 O   0  0  0  0  0  0  0  0  0  0  0  0
   13.9193  -15.9197   20.1138 O   0  0  0  0  0  0  0  0  0  0  0  0
  2  1  1  1
  2  3  1  0
  4  5  2  0
  4  3  1  0
  6  5  1  0
  7 12  2  0
  7  6  1  0
  8  7  1  0
  9 10  1  0
  9  8  2  0
 10 11  2  0
 11 12  1  0
 12  4  1  0
 13  2  1  0
 14 13  2  0
 16 18  1  0
 16 15  1  0
 17 16  2  0
 19 18  1  0
 20 19  1  0
 20 21  1  0
 22 21  1  6
 22 23  1  0
 23 13  1  0
 24 22  1  0
 24 25  2  0
 26 27  1  0
 27 28  2  0
 27 29  1  0
 29 30  1  0
 31 30  1  1
 31 32  1  0
 32 24  1  0
 33 34  1  0
 33 31  1  0
 35 33  2  0
M  END
$$$$
