WRQ.pdb
     RDKit          3D

 35 36  0  0  1  0  0  0  0  0999 V2000
    8.9480  -16.2335   24.8124 N   0  0  0  0  0  0  0  0  0  0  0  0
    7.9467  -17.1010   24.2085 C   0  0  1  0  0  0  0  0  0  0  0  0
    6.6098  -16.3376   24.1651 C   0  0  0  0  0  0  0  0  0  0  0  0
    6.5327  -15.3869   25.2760 C   0  0  0  0  0  0  0  0  0  0  0  0
    5.9691  -15.6233   26.5217 C   0  0  0  0  0  0  0  0  0  0  0  0
    6.0630  -14.5142   27.2561 N   0  0  0  0  0  0  0  0  0  0  0  0
    6.6719  -13.5334   26.5493 C   0  0  0  0  0  0  0  0  0  0  0  0
    7.0004  -12.2446   26.8423 C   0  0  0  0  0  0  0  0  0  0  0  0
    7.6336  -11.4721   25.8986 C   0  0  0  0  0  0  0  0  0  0  0  0
    7.9277  -12.0229   24.6570 C   0  0  0  0  0  0  0  0  0  0  0  0
    7.6038  -13.3085   24.3571 C   0  0  0  0  0  0  0  0  0  0  0  0
    6.9664  -14.0924   25.2996 C   0  0  0  0  0  0  0  0  0  0  0  0
    8.3638  -17.3784   22.8010 C   0  0  0  0  0  0  0  0  0  0  0  0
    7.9023  -18.3900   22.2441 O   0  0  0  0  0  0  0  0  0  0  0  0
    6.7488  -12.6652   17.6389 N   0  0  0  0  0  0  0  0  0  0  0  0
    7.9682  -12.8435   18.3677 C   0  0  0  0  0  0  0  0  0  0  0  0
    8.3158  -11.9942   19.2770 N   0  0  0  0  0  0  0  0  0  0  0  0
    8.8142  -13.9509   18.1156 N   0  0  0  0  0  0  0  0  0  0  0  0
   10.0116  -14.1304   18.8940 C   0  0  0  0  0  0  0  0  0  0  0  0
    9.8410  -14.9418   20.1354 C   0  0  0  0  0  0  0  0  0  0  0  0
   10.8065  -16.0740   20.3146 C   0  0  0  0  0  0  0  0  0  0  0  0
   10.5380  -16.8161   21.6257 C   0  0  2  0  0  0  0  0  0  0  0  0
    9.2454  -16.5156   22.1487 N   0  0  0  0  0  0  0  0  0  0  0  0
   11.6349  -16.6607   22.5919 C   0  0  0  0  0  0  0  0  0  0  0  0
   11.9163  -15.5266   23.0916 O   0  0  0  0  0  0  0  0  0  0  0  0
    9.1837  -12.1015   19.8557 N   0  0  0  0  0  0  0  0  0  0  0  0
   12.2394  -20.3012   27.3207 C   0  0  0  0  0  0  0  0  0  0  0  0
   11.5015  -19.1660   26.9134 O   0  0  0  0  0  0  0  0  0  0  0  0
   10.4002  -18.8800   27.5145 C   0  0  0  0  0  0  0  0  0  0  0  0
   11.9157  -18.2633   25.8296 C   0  0  0  0  0  0  0  0  0  0  0  0
   13.1717  -18.5653   25.1308 C   0  0  2  0  0  0  0  0  0  0  0  0
   13.5005  -17.7053   23.9478 N   0  0  0  0  0  0  0  0  0  0  0  0
   12.3946  -17.7847   22.9802 C   0  0  0  0  0  0  0  0  0  0  0  0
   14.7920  -17.8304   23.3089 O   0  0  0  0  0  0  0  0  0  0  0  0
   14.8707  -18.0945   21.9229 O   0  0  0  0  0  0  0  0  0  0  0  0
  2  1  1  6
  2  3  1  0
  4  5  2  0
  4  3  1  0
  6  5  1  0
  7 12  2  0
  7  6  1  0
  8  7  1  0
  9 10  1  0
  9  8  2  0
 10 11  2  0
 11 12  1  0
 12  4  1  0
 13  2  1  0
 14 13  2  0
 16 18  1  0
 16 15  1  0
 17 16  2  0
 19 18  1  0
 20 19  1  0
 20 21  1  0
 22 21  1  6
 22 23  1  0
 23 13  1  0
 24 22  1  0
 24 25  2  0
 26 27  1  0
 27 28  2  0
 27 29  1  0
 29 30  1  0
 31 30  1  1
 31 32  1  0
 32 24  1  0
 33 34  1  0
 33 31  1  0
 35 33  2  0
M  END
$$$$
