WRQ.pdb
     RDKit          3D

 35 36  0  0  1  0  0  0  0  0999 V2000
    6.5460  -18.2076   25.0563 N   0  0  0  0  0  0  0  0  0  0  0  0
    6.7234  -16.8661   24.5189 C   0  0  1  0  0  0  0  0  0  0  0  0
    7.5966  -16.0641   25.5021 C   0  0  0  0  0  0  0  0  0  0  0  0
    6.8247  -14.9652   26.0854 C   0  0  0  0  0  0  0  0  0  0  0  0
    5.5616  -15.0590   26.6520 C   0  0  0  0  0  0  0  0  0  0  0  0
    5.1748  -13.8462   27.0490 N   0  0  0  0  0  0  0  0  0  0  0  0
    6.1343  -12.9328   26.7703 C   0  0  0  0  0  0  0  0  0  0  0  0
    6.2241  -11.5891   26.9728 C   0  0  0  0  0  0  0  0  0  0  0  0
    7.3538  -10.9149   26.5759 C   0  0  0  0  0  0  0  0  0  0  0  0
    8.3880  -11.6202   25.9720 C   0  0  0  0  0  0  0  0  0  0  0  0
    8.3062  -12.9614   25.7670 C   0  0  0  0  0  0  0  0  0  0  0  0
    7.1739  -13.6474   26.1623 C   0  0  0  0  0  0  0  0  0  0  0  0
    7.4686  -16.9796   23.2291 C   0  0  0  0  0  0  0  0  0  0  0  0
    8.1612  -17.9954   23.0426 O   0  0  0  0  0  0  0  0  0  0  0  0
    7.6171  -15.5648   16.5684 N   0  0  0  0  0  0  0  0  0  0  0  0
    8.4619  -14.5243   16.0646 C   0  0  0  0  0  0  0  0  0  0  0  0
    8.9784  -14.6164   14.8841 N   0  0  0  0  0  0  0  0  0  0  0  0
    8.7449  -13.3738   16.8406 N   0  0  0  0  0  0  0  0  0  0  0  0
    8.2231  -13.2646   18.1775 C   0  0  0  0  0  0  0  0  0  0  0  0
    8.6095  -14.3747   19.0979 C   0  0  0  0  0  0  0  0  0  0  0  0
    7.7219  -14.5759   20.2887 C   0  0  0  0  0  0  0  0  0  0  0  0
    8.1749  -15.7873   21.1068 C   0  0  2  0  0  0  0  0  0  0  0  0
    7.3765  -15.9652   22.2753 N   0  0  0  0  0  0  0  0  0  0  0  0
    9.6236  -15.7847   21.3559 C   0  0  0  0  0  0  0  0  0  0  0  0
   10.1798  -14.8379   21.9956 O   0  0  0  0  0  0  0  0  0  0  0  0
    9.6255  -13.8932   14.4867 N   0  0  0  0  0  0  0  0  0  0  0  0
   11.2886  -17.4006   24.7651 C   0  0  0  0  0  0  0  0  0  0  0  0
   12.2188  -18.0115   23.8929 O   0  0  0  0  0  0  0  0  0  0  0  0
   13.4766  -17.9264   24.1516 C   0  0  0  0  0  0  0  0  0  0  0  0
   11.8424  -18.7605   22.6854 C   0  0  0  0  0  0  0  0  0  0  0  0
   12.3184  -18.2549   21.3912 C   0  0  2  0  0  0  0  0  0  0  0  0
   11.8858  -16.8695   21.0162 N   0  0  0  0  0  0  0  0  0  0  0  0
   10.4205  -16.8486   20.8825 C   0  0  0  0  0  0  0  0  0  0  0  0
   12.5415  -16.1864   19.9228 O   0  0  0  0  0  0  0  0  0  0  0  0
   13.9438  -16.0126   19.9393 O   0  0  0  0  0  0  0  0  0  0  0  0
  2  1  1  1
  2  3  1  0
  4  5  2  0
  4  3  1  0
  6  5  1  0
  7 12  2  0
  7  6  1  0
  8  7  1  0
  9 10  1  0
  9  8  2  0
 10 11  2  0
 11 12  1  0
 12  4  1  0
 13  2  1  0
 14 13  2  0
 16 18  1  0
 16 15  1  0
 17 16  2  0
 19 18  1  0
 20 19  1  0
 20 21  1  0
 22 21  1  1
 22 23  1  0
 23 13  1  0
 24 22  1  0
 24 25  2  0
 26 27  1  0
 27 28  2  0
 27 29  1  0
 29 30  1  0
 31 30  1  1
 31 32  1  0
 32 24  1  0
 33 34  1  0
 33 31  1  0
 35 33  2  0
M  END
$$$$
