WRQ.pdb
     RDKit          3D

 35 36  0  0  1  0  0  0  0  0999 V2000
    6.5926  -18.0226   24.6798 N   0  0  0  0  0  0  0  0  0  0  0  0
    7.1278  -16.7019   24.3814 C   0  0  1  0  0  0  0  0  0  0  0  0
    7.7167  -16.1156   25.6782 C   0  0  0  0  0  0  0  0  0  0  0  0
    6.9522  -14.9385   26.0951 C   0  0  0  0  0  0  0  0  0  0  0  0
    5.5780  -14.8734   26.2758 C   0  0  0  0  0  0  0  0  0  0  0  0
    5.2471  -13.6313   26.6306 N   0  0  0  0  0  0  0  0  0  0  0  0
    6.3518  -12.8519   26.6967 C   0  0  0  0  0  0  0  0  0  0  0  0
    6.5457  -11.5405   27.0085 C   0  0  0  0  0  0  0  0  0  0  0  0
    7.8165  -11.0177   26.9928 C   0  0  0  0  0  0  0  0  0  0  0  0
    8.8848  -11.8408   26.6570 C   0  0  0  0  0  0  0  0  0  0  0  0
    8.6996  -13.1509   26.3453 C   0  0  0  0  0  0  0  0  0  0  0  0
    7.4253  -13.6848   26.3578 C   0  0  0  0  0  0  0  0  0  0  0  0
    8.2442  -16.8658   23.4023 C   0  0  0  0  0  0  0  0  0  0  0  0
    8.9775  -17.8638   23.5150 O   0  0  0  0  0  0  0  0  0  0  0  0
    8.9938  -15.5432   17.0576 N   0  0  0  0  0  0  0  0  0  0  0  0
    8.2756  -14.3455   16.7423 C   0  0  0  0  0  0  0  0  0  0  0  0
    8.3864  -13.8058   15.5738 N   0  0  0  0  0  0  0  0  0  0  0  0
    7.4271  -13.7308   17.6952 N   0  0  0  0  0  0  0  0  0  0  0  0
    7.9473  -13.3609   18.9853 C   0  0  0  0  0  0  0  0  0  0  0  0
    8.1402  -14.4952   19.9364 C   0  0  0  0  0  0  0  0  0  0  0  0
    9.4560  -14.5314   20.6530 C   0  0  0  0  0  0  0  0  0  0  0  0
    9.5640  -15.7809   21.5300 C   0  0  2  0  0  0  0  0  0  0  0  0
    8.4409  -15.9165   22.3987 N   0  0  0  0  0  0  0  0  0  0  0  0
   10.8673  -15.8821   22.2024 C   0  0  0  0  0  0  0  0  0  0  0  0
   11.1621  -15.1297   23.1833 O   0  0  0  0  0  0  0  0  0  0  0  0
    7.8277  -12.9697   15.2765 N   0  0  0  0  0  0  0  0  0  0  0  0
   14.0448  -20.7646   24.4850 C   0  0  0  0  0  0  0  0  0  0  0  0
   13.5541  -20.6996   23.1605 O   0  0  0  0  0  0  0  0  0  0  0  0
   13.1916  -21.7829   22.5678 C   0  0  0  0  0  0  0  0  0  0  0  0
   13.4195  -19.4517   22.3953 C   0  0  0  0  0  0  0  0  0  0  0  0
   13.2368  -18.2042   23.1486 C   0  0  1  0  0  0  0  0  0  0  0  0
   13.1620  -16.9427   22.3423 N   0  0  0  0  0  0  0  0  0  0  0  0
   11.8151  -16.8295   21.7604 C   0  0  0  0  0  0  0  0  0  0  0  0
   14.1979  -16.6477   21.3770 O   0  0  0  0  0  0  0  0  0  0  0  0
   15.5424  -16.5354   21.7975 O   0  0  0  0  0  0  0  0  0  0  0  0
  2  1  1  1
  2  3  1  0
  4  5  2  0
  4  3  1  0
  6  5  1  0
  7 12  2  0
  7  6  1  0
  8  7  1  0
  9 10  1  0
  9  8  2  0
 10 11  2  0
 11 12  1  0
 12  4  1  0
 13  2  1  0
 14 13  2  0
 16 18  1  0
 16 15  1  0
 17 16  2  0
 19 18  1  0
 20 19  1  0
 20 21  1  0
 22 21  1  1
 22 23  1  0
 23 13  1  0
 24 22  1  0
 24 25  2  0
 26 27  1  0
 27 28  2  0
 27 29  1  0
 29 30  1  0
 31 30  1  1
 31 32  1  0
 32 24  1  0
 33 34  1  0
 33 31  1  0
 35 33  2  0
M  END
$$$$
