WRQ.pdb
     RDKit          3D

 35 36  0  0  1  0  0  0  0  0999 V2000
    6.5250  -17.7177   25.0565 N   0  0  0  0  0  0  0  0  0  0  0  0
    7.2563  -16.8025   24.1920 C   0  0  1  0  0  0  0  0  0  0  0  0
    8.1362  -15.9010   25.0781 C   0  0  0  0  0  0  0  0  0  0  0  0
    7.3084  -14.9218   25.7851 C   0  0  0  0  0  0  0  0  0  0  0  0
    6.2883  -15.2040   26.6823 C   0  0  0  0  0  0  0  0  0  0  0  0
    5.7486  -14.0575   27.0976 N   0  0  0  0  0  0  0  0  0  0  0  0
    6.3693  -13.0070   26.5114 C   0  0  0  0  0  0  0  0  0  0  0  0
    6.1975  -11.6590   26.6011 C   0  0  0  0  0  0  0  0  0  0  0  0
    7.0027  -10.8200   25.8689 C   0  0  0  0  0  0  0  0  0  0  0  0
    7.9814  -11.3655   25.0465 C   0  0  0  0  0  0  0  0  0  0  0  0
    8.1595  -12.7098   24.9521 C   0  0  0  0  0  0  0  0  0  0  0  0
    7.3541  -13.5609   25.6842 C   0  0  0  0  0  0  0  0  0  0  0  0
    8.1592  -17.6123   23.3199 C   0  0  0  0  0  0  0  0  0  0  0  0
    8.8400  -18.5053   23.8541 O   0  0  0  0  0  0  0  0  0  0  0  0
    6.5689  -13.3134   18.7338 N   0  0  0  0  0  0  0  0  0  0  0  0
    7.9652  -13.0885   18.5107 C   0  0  0  0  0  0  0  0  0  0  0  0
    8.5544  -12.0664   19.0371 N   0  0  0  0  0  0  0  0  0  0  0  0
    8.7305  -13.9783   17.7181 N   0  0  0  0  0  0  0  0  0  0  0  0
    8.6549  -15.3959   17.9556 C   0  0  0  0  0  0  0  0  0  0  0  0
    8.9739  -15.8196   19.3510 C   0  0  0  0  0  0  0  0  0  0  0  0
    8.9426  -17.2954   19.6098 C   0  0  0  0  0  0  0  0  0  0  0  0
    9.3127  -17.6013   21.0629 C   0  0  2  0  0  0  0  0  0  0  0  0
    8.2217  -17.3586   21.9492 N   0  0  0  0  0  0  0  0  0  0  0  0
   10.5750  -16.9643   21.4652 C   0  0  0  0  0  0  0  0  0  0  0  0
   10.6690  -15.7018   21.5762 O   0  0  0  0  0  0  0  0  0  0  0  0
    9.5724  -11.8591   18.8946 N   0  0  0  0  0  0  0  0  0  0  0  0
   13.6497  -18.2014   26.4642 C   0  0  0  0  0  0  0  0  0  0  0  0
   13.6347  -19.1784   25.4422 O   0  0  0  0  0  0  0  0  0  0  0  0
   13.8167  -20.4150   25.7485 C   0  0  0  0  0  0  0  0  0  0  0  0
   13.4146  -18.8759   24.0206 C   0  0  0  0  0  0  0  0  0  0  0  0
   13.1568  -17.4781   23.6510 C   0  0  1  0  0  0  0  0  0  0  0  0
   12.9903  -17.1945   22.1885 N   0  0  0  0  0  0  0  0  0  0  0  0
   11.7085  -17.7594   21.7375 C   0  0  0  0  0  0  0  0  0  0  0  0
   14.0693  -17.4958   21.2736 O   0  0  0  0  0  0  0  0  0  0  0  0
   15.3478  -16.9304   21.4802 O   0  0  0  0  0  0  0  0  0  0  0  0
  2  1  1  1
  2  3  1  0
  4  5  2  0
  4  3  1  0
  6  5  1  0
  7 12  2  0
  7  6  1  0
  8  7  1  0
  9 10  1  0
  9  8  2  0
 10 11  2  0
 11 12  1  0
 12  4  1  0
 13  2  1  0
 14 13  2  0
 16 18  1  0
 16 15  1  0
 17 16  2  0
 19 18  1  0
 20 19  1  0
 20 21  1  0
 22 21  1  6
 22 23  1  0
 23 13  1  0
 24 22  1  0
 24 25  2  0
 26 27  1  0
 27 28  2  0
 27 29  1  0
 29 30  1  0
 31 30  1  1
 31 32  1  0
 32 24  1  0
 33 34  1  0
 33 31  1  0
 35 33  2  0
M  END
$$$$
