SFR.pdb
     RDKit          3D

 29 29  0  0  1  0  0  0  0  0999 V2000
    8.0180  -15.9654   18.9818 O   0  0  0  0  0  0  0  0  0  0  0  0
    6.9291  -15.4723   19.6916 C   0  0  0  0  0  0  0  0  0  0  0  0
    7.3184  -14.1552   20.2818 C   0  0  2  0  0  0  0  0  0  0  0  0
    8.0565  -13.3518   19.3262 N   0  0  0  0  0  0  0  0  0  0  0  0
    8.0974  -14.2998   21.5527 C   0  0  0  0  0  0  0  0  0  0  0  0
    9.3199  -14.0223   21.6187 O   0  0  0  0  0  0  0  0  0  0  0  0
    7.4376  -14.7652   22.7210 N   0  0  0  0  0  0  0  0  0  0  0  0
    8.1939  -14.8629   23.9755 C   0  0  1  0  0  0  0  0  0  0  0  0
    7.2833  -14.5912   25.1082 C   0  0  0  0  0  0  0  0  0  0  0  0
    7.0913  -13.2276   25.5362 C   0  0  0  0  0  0  0  0  0  0  0  0
    6.0702  -12.8996   26.4010 C   0  0  0  0  0  0  0  0  0  0  0  0
    5.8625  -11.5936   26.8289 C   0  0  0  0  0  0  0  0  0  0  0  0
    6.6880  -10.5743   26.3908 C   0  0  0  0  0  0  0  0  0  0  0  0
    7.7093  -10.8775   25.5308 C   0  0  0  0  0  0  0  0  0  0  0  0
    7.9016  -12.1883   25.1139 C   0  0  0  0  0  0  0  0  0  0  0  0
    9.0266  -16.0516   24.0015 C   0  0  0  0  0  0  0  0  0  0  0  0
    8.4578  -17.1700   23.7142 O   0  0  0  0  0  0  0  0  0  0  0  0
   14.8267  -20.5120   23.0622 N   0  0  0  0  0  0  0  0  0  0  0  0
   13.8180  -20.8812   22.1243 C   0  0  0  0  0  0  0  0  0  0  0  0
   13.4322  -22.0940   22.0001 N   0  0  0  0  0  0  0  0  0  0  0  0
   13.2341  -19.8708   21.3141 N   0  0  0  0  0  0  0  0  0  0  0  0
   12.8075  -18.5945   21.8361 C   0  0  0  0  0  0  0  0  0  0  0  0
   13.0764  -18.5679   23.3454 C   0  0  0  0  0  0  0  0  0  0  0  0
   12.5119  -17.3068   23.9284 C   0  0  0  0  0  0  0  0  0  0  0  0
   11.0820  -17.4850   24.3103 C   0  0  2  0  0  0  0  0  0  0  0  0
   10.4033  -16.1592   24.2974 N   0  0  0  0  0  0  0  0  0  0  0  0
   10.9272  -18.1129   25.6298 C   0  0  0  0  0  0  0  0  0  0  0  0
   10.9768  -19.3749   25.7242 O   0  0  0  0  0  0  0  0  0  0  0  0
   10.7303  -17.4080   26.7962 O   0  0  0  0  0  0  0  0  0  0  0  0
  2  1  1  0
  3  2  1  0
  3  5  1  0
  3  4  1  6
  5  6  2  0
  7  5  1  0
  7  8  1  0
  8  9  1  1
 10  9  1  0
 11 10  2  0
 12 11  1  0
 13 14  1  0
 13 12  2  0
 14 15  2  0
 15 10  1  0
 16  8  1  0
 16 17  2  0
 19 21  1  0
 19 18  1  0
 20 19  2  0
 22 23  1  0
 22 21  1  0
 23 24  1  0
 25 24  1  1
 25 26  1  0
 25 27  1  0
 26 16  1  0
 27 29  1  0
 28 27  2  0
M  END
$$$$
