SFR.pdb
     RDKit          3D

 29 29  0  0  1  0  0  0  0  0999 V2000
    9.5939  -18.9803   21.1525 O   0  0  0  0  0  0  0  0  0  0  0  0
    8.7020  -18.2105   20.4145 C   0  0  0  0  0  0  0  0  0  0  0  0
    9.2822  -16.8404   20.2692 C   0  0  2  0  0  0  0  0  0  0  0  0
   10.5746  -16.8870   19.6126 N   0  0  0  0  0  0  0  0  0  0  0  0
    9.3876  -16.1166   21.5761 C   0  0  0  0  0  0  0  0  0  0  0  0
   10.4300  -16.1532   22.2745 O   0  0  0  0  0  0  0  0  0  0  0  0
    8.2770  -15.3652   22.0438 N   0  0  0  0  0  0  0  0  0  0  0  0
    8.3576  -14.7175   23.3588 C   0  0  1  0  0  0  0  0  0  0  0  0
    7.2179  -13.7874   23.5072 C   0  0  0  0  0  0  0  0  0  0  0  0
    7.1108  -13.0035   24.7128 C   0  0  0  0  0  0  0  0  0  0  0  0
    6.1902  -13.3306   25.6843 C   0  0  0  0  0  0  0  0  0  0  0  0
    6.0656  -12.5921   26.8551 C   0  0  0  0  0  0  0  0  0  0  0  0
    6.8748  -11.4931   27.0784 C   0  0  0  0  0  0  0  0  0  0  0  0
    7.7968  -11.1497   26.1262 C   0  0  0  0  0  0  0  0  0  0  0  0
    7.9070  -11.8995   24.9623 C   0  0  0  0  0  0  0  0  0  0  0  0
    8.6303  -15.6818   24.4090 C   0  0  0  0  0  0  0  0  0  0  0  0
    8.3606  -16.9145   24.1549 O   0  0  0  0  0  0  0  0  0  0  0  0
    5.7593  -22.0051   27.6380 N   0  0  0  0  0  0  0  0  0  0  0  0
    6.9475  -22.0606   26.8516 C   0  0  0  0  0  0  0  0  0  0  0  0
    7.2643  -23.1091   26.1918 N   0  0  0  0  0  0  0  0  0  0  0  0
    7.7922  -20.9192   26.8065 N   0  0  0  0  0  0  0  0  0  0  0  0
    7.4911  -19.6914   27.5030 C   0  0  0  0  0  0  0  0  0  0  0  0
    8.7163  -18.7725   27.4277 C   0  0  0  0  0  0  0  0  0  0  0  0
    8.3515  -17.5176   26.6920 C   0  0  0  0  0  0  0  0  0  0  0  0
    9.5201  -16.5980   26.5869 C   0  0  2  0  0  0  0  0  0  0  0  0
    9.1668  -15.4578   25.6960 N   0  0  0  0  0  0  0  0  0  0  0  0
   10.7227  -17.2739   26.0808 C   0  0  0  0  0  0  0  0  0  0  0  0
   10.5943  -18.2904   25.3365 O   0  0  0  0  0  0  0  0  0  0  0  0
   12.0075  -16.8674   26.3643 O   0  0  0  0  0  0  0  0  0  0  0  0
  2  1  1  0
  3  2  1  0
  3  5  1  0
  3  4  1  1
  5  6  2  0
  7  5  1  0
  7  8  1  0
  8  9  1  1
 10  9  1  0
 11 10  2  0
 12 11  1  0
 13 14  1  0
 13 12  2  0
 14 15  2  0
 15 10  1  0
 16  8  1  0
 16 17  2  0
 19 21  1  0
 19 18  1  0
 20 19  2  0
 22 23  1  0
 22 21  1  0
 23 24  1  0
 25 24  1  6
 25 26  1  0
 25 27  1  0
 26 16  1  0
 27 29  1  0
 28 27  2  0
M  END
$$$$
