SFR.pdb
     RDKit          3D

 29 29  0  0  1  0  0  0  0  0999 V2000
    7.0260  -20.0428   22.1545 O   0  0  0  0  0  0  0  0  0  0  0  0
    5.9469  -20.5165   22.8919 C   0  0  0  0  0  0  0  0  0  0  0  0
    4.9710  -19.3963   23.0575 C   0  0  2  0  0  0  0  0  0  0  0  0
    4.0661  -19.3199   21.9267 N   0  0  0  0  0  0  0  0  0  0  0  0
    5.6408  -18.0752   23.2790 C   0  0  0  0  0  0  0  0  0  0  0  0
    5.7737  -17.2340   22.3568 O   0  0  0  0  0  0  0  0  0  0  0  0
    6.1428  -17.7603   24.5696 N   0  0  0  0  0  0  0  0  0  0  0  0
    6.8068  -16.4680   24.7802 C   0  0  1  0  0  0  0  0  0  0  0  0
    6.3758  -15.9125   26.0809 C   0  0  0  0  0  0  0  0  0  0  0  0
    6.8382  -14.6022   26.4665 C   0  0  0  0  0  0  0  0  0  0  0  0
    6.1585  -13.4719   26.0684 C   0  0  0  0  0  0  0  0  0  0  0  0
    6.5825  -12.1972   26.4253 C   0  0  0  0  0  0  0  0  0  0  0  0
    7.7148  -12.0284   27.2010 C   0  0  0  0  0  0  0  0  0  0  0  0
    8.4059  -13.1380   27.6080 C   0  0  0  0  0  0  0  0  0  0  0  0
    7.9673  -14.4038   27.2415 C   0  0  0  0  0  0  0  0  0  0  0  0
    8.2235  -16.5434   24.4732 C   0  0  0  0  0  0  0  0  0  0  0  0
    8.8826  -17.5199   24.9917 O   0  0  0  0  0  0  0  0  0  0  0  0
    7.7109  -14.2651   17.1820 N   0  0  0  0  0  0  0  0  0  0  0  0
    8.1609  -13.8022   18.4535 C   0  0  0  0  0  0  0  0  0  0  0  0
    7.7992  -12.6671   18.9180 N   0  0  0  0  0  0  0  0  0  0  0  0
    9.0307  -14.6287   19.2140 N   0  0  0  0  0  0  0  0  0  0  0  0
    9.5290  -14.2558   20.5164 C   0  0  0  0  0  0  0  0  0  0  0  0
   10.4370  -15.3781   21.0332 C   0  0  0  0  0  0  0  0  0  0  0  0
   10.9554  -15.0117   22.3919 C   0  0  0  0  0  0  0  0  0  0  0  0
   10.4457  -15.9502   23.4320 C   0  0  2  0  0  0  0  0  0  0  0  0
    8.9988  -15.6838   23.6644 N   0  0  0  0  0  0  0  0  0  0  0  0
   11.1839  -15.8402   24.6978 C   0  0  0  0  0  0  0  0  0  0  0  0
   10.6962  -15.1492   25.6405 O   0  0  0  0  0  0  0  0  0  0  0  0
   12.3944  -16.4522   24.9353 O   0  0  0  0  0  0  0  0  0  0  0  0
  2  1  1  0
  3  2  1  0
  3  5  1  0
  3  4  1  6
  5  6  2  0
  7  5  1  0
  7  8  1  0
  8  9  1  1
 10  9  1  0
 11 10  2  0
 12 11  1  0
 13 14  1  0
 13 12  2  0
 14 15  2  0
 15 10  1  0
 16  8  1  0
 16 17  2  0
 19 21  1  0
 19 18  1  0
 20 19  2  0
 22 23  1  0
 22 21  1  0
 23 24  1  0
 25 24  1  6
 25 26  1  0
 25 27  1  0
 26 16  1  0
 27 29  1  0
 28 27  2  0
M  END
$$$$
