SFR.pdb
     RDKit          3D

 29 29  0  0  1  0  0  0  0  0999 V2000
    7.8388  -17.4878   18.8139 O   0  0  0  0  0  0  0  0  0  0  0  0
    6.6817  -16.8534   19.2511 C   0  0  0  0  0  0  0  0  0  0  0  0
    6.9637  -15.3884   19.3458 C   0  0  2  0  0  0  0  0  0  0  0  0
    7.7626  -14.9362   18.2230 N   0  0  0  0  0  0  0  0  0  0  0  0
    7.6191  -15.0092   20.6379 C   0  0  0  0  0  0  0  0  0  0  0  0
    8.8616  -14.8576   20.7341 O   0  0  0  0  0  0  0  0  0  0  0  0
    6.8150  -14.8144   21.7921 N   0  0  0  0  0  0  0  0  0  0  0  0
    7.4635  -14.4643   23.0618 C   0  0  1  0  0  0  0  0  0  0  0  0
    6.4870  -13.7641   23.9233 C   0  0  0  0  0  0  0  0  0  0  0  0
    6.8916  -13.3559   25.2459 C   0  0  0  0  0  0  0  0  0  0  0  0
    7.1164  -12.0274   25.5333 C   0  0  0  0  0  0  0  0  0  0  0  0
    7.5075  -11.6067   26.7990 C   0  0  0  0  0  0  0  0  0  0  0  0
    7.6837  -12.5250   27.8178 C   0  0  0  0  0  0  0  0  0  0  0  0
    7.4657  -13.8508   27.5546 C   0  0  0  0  0  0  0  0  0  0  0  0
    7.0754  -14.2526   26.2837 C   0  0  0  0  0  0  0  0  0  0  0  0
    8.2132  -15.5843   23.6009 C   0  0  0  0  0  0  0  0  0  0  0  0
    7.5901  -16.7050   23.7127 O   0  0  0  0  0  0  0  0  0  0  0  0
   13.0386  -15.7924   19.0710 N   0  0  0  0  0  0  0  0  0  0  0  0
   13.8149  -15.0895   20.0389 C   0  0  0  0  0  0  0  0  0  0  0  0
   14.5638  -14.1068   19.7095 N   0  0  0  0  0  0  0  0  0  0  0  0
   13.7478  -15.4982   21.3978 N   0  0  0  0  0  0  0  0  0  0  0  0
   12.9692  -16.6303   21.8399 C   0  0  0  0  0  0  0  0  0  0  0  0
   12.0029  -16.1628   22.9347 C   0  0  0  0  0  0  0  0  0  0  0  0
   11.1756  -17.3252   23.3966 C   0  0  0  0  0  0  0  0  0  0  0  0
   10.1948  -16.9058   24.4382 C   0  0  2  0  0  0  0  0  0  0  0  0
    9.5599  -15.6237   24.0242 N   0  0  0  0  0  0  0  0  0  0  0  0
   10.8131  -16.7529   25.7624 C   0  0  0  0  0  0  0  0  0  0  0  0
   11.3650  -17.7542   26.3070 O   0  0  0  0  0  0  0  0  0  0  0  0
   10.8361  -15.5694   26.4660 O   0  0  0  0  0  0  0  0  0  0  0  0
  2  1  1  0
  3  2  1  0
  3  5  1  0
  3  4  1  6
  5  6  2  0
  7  5  1  0
  7  8  1  0
  8  9  1  1
 10  9  1  0
 11 10  2  0
 12 11  1  0
 13 14  1  0
 13 12  2  0
 14 15  2  0
 15 10  1  0
 16  8  1  0
 16 17  2  0
 19 21  1  0
 19 18  1  0
 20 19  2  0
 22 23  1  0
 22 21  1  0
 23 24  1  0
 25 24  1  6
 25 26  1  0
 25 27  1  0
 26 16  1  0
 27 29  1  0
 28 27  2  0
M  END
$$$$
