SFR.pdb
     RDKit          3D

 29 29  0  0  1  0  0  0  0  0999 V2000
    8.2537  -19.1595   19.5865 O   0  0  0  0  0  0  0  0  0  0  0  0
    8.6094  -18.4828   20.7476 C   0  0  0  0  0  0  0  0  0  0  0  0
    9.0690  -17.1131   20.3636 C   0  0  2  0  0  0  0  0  0  0  0  0
   10.2656  -17.1732   19.5464 N   0  0  0  0  0  0  0  0  0  0  0  0
    9.2920  -16.2257   21.5493 C   0  0  0  0  0  0  0  0  0  0  0  0
   10.4392  -16.0059   22.0092 O   0  0  0  0  0  0  0  0  0  0  0  0
    8.1748  -15.6124   22.1759 N   0  0  0  0  0  0  0  0  0  0  0  0
    8.3630  -14.9370   23.4657 C   0  0  1  0  0  0  0  0  0  0  0  0
    7.2372  -14.0050   23.6891 C   0  0  0  0  0  0  0  0  0  0  0  0
    7.1576  -13.2962   24.9424 C   0  0  0  0  0  0  0  0  0  0  0  0
    6.2835  -13.7041   25.9261 C   0  0  0  0  0  0  0  0  0  0  0  0
    6.1862  -13.0390   27.1427 C   0  0  0  0  0  0  0  0  0  0  0  0
    6.9764  -11.9338   27.4008 C   0  0  0  0  0  0  0  0  0  0  0  0
    7.8524  -11.5109   26.4373 C   0  0  0  0  0  0  0  0  0  0  0  0
    7.9357  -12.1880   25.2275 C   0  0  0  0  0  0  0  0  0  0  0  0
    8.7249  -15.8786   24.5095 C   0  0  0  0  0  0  0  0  0  0  0  0
    7.9512  -16.8941   24.6744 O   0  0  0  0  0  0  0  0  0  0  0  0
   15.3726  -16.3276   23.5765 N   0  0  0  0  0  0  0  0  0  0  0  0
   14.6971  -17.2839   22.7624 C   0  0  0  0  0  0  0  0  0  0  0  0
   14.9213  -17.3701   21.5065 N   0  0  0  0  0  0  0  0  0  0  0  0
   13.7554  -18.1568   23.3704 N   0  0  0  0  0  0  0  0  0  0  0  0
   13.3647  -18.0486   24.7556 C   0  0  0  0  0  0  0  0  0  0  0  0
   11.8908  -17.6306   24.8176 C   0  0  0  0  0  0  0  0  0  0  0  0
   11.5051  -17.3800   26.2451 C   0  0  0  0  0  0  0  0  0  0  0  0
   10.0810  -16.9517   26.3491 C   0  0  2  0  0  0  0  0  0  0  0  0
    9.8319  -15.8434   25.3857 N   0  0  0  0  0  0  0  0  0  0  0  0
    9.7212  -16.5233   27.7079 C   0  0  0  0  0  0  0  0  0  0  0  0
    9.4838  -15.2990   27.9282 O   0  0  0  0  0  0  0  0  0  0  0  0
    9.6200  -17.3806   28.7807 O   0  0  0  0  0  0  0  0  0  0  0  0
  2  1  1  0
  3  2  1  0
  3  5  1  0
  3  4  1  1
  5  6  2  0
  7  5  1  0
  7  8  1  0
  8  9  1  1
 10  9  1  0
 11 10  2  0
 12 11  1  0
 13 14  1  0
 13 12  2  0
 14 15  2  0
 15 10  1  0
 16  8  1  0
 16 17  2  0
 19 21  1  0
 19 18  1  0
 20 19  2  0
 22 23  1  0
 22 21  1  0
 23 24  1  0
 25 24  1  1
 25 26  1  0
 25 27  1  0
 26 16  1  0
 27 29  1  0
 28 27  2  0
M  END
$$$$
