SFR.pdb
     RDKit          3D

 29 29  0  0  1  0  0  0  0  0999 V2000
    8.9073  -18.6038   20.6832 O   0  0  0  0  0  0  0  0  0  0  0  0
    8.2968  -17.5809   19.9667 C   0  0  0  0  0  0  0  0  0  0  0  0
    9.1483  -16.3581   20.0872 C   0  0  2  0  0  0  0  0  0  0  0  0
   10.4640  -16.5793   19.5186 N   0  0  0  0  0  0  0  0  0  0  0  0
    9.2657  -15.8735   21.4994 C   0  0  0  0  0  0  0  0  0  0  0  0
   10.3006  -16.0638   22.1840 O   0  0  0  0  0  0  0  0  0  0  0  0
    8.1758  -15.1775   22.0863 N   0  0  0  0  0  0  0  0  0  0  0  0
    8.2956  -14.7028   23.4704 C   0  0  1  0  0  0  0  0  0  0  0  0
    7.3273  -13.6068   23.6881 C   0  0  0  0  0  0  0  0  0  0  0  0
    7.1935  -13.0480   25.0107 C   0  0  0  0  0  0  0  0  0  0  0  0
    8.1170  -12.1440   25.4884 C   0  0  0  0  0  0  0  0  0  0  0  0
    8.0122  -11.5906   26.7590 C   0  0  0  0  0  0  0  0  0  0  0  0
    6.9623  -11.9385   27.5891 C   0  0  0  0  0  0  0  0  0  0  0  0
    6.0327  -12.8352   27.1349 C   0  0  0  0  0  0  0  0  0  0  0  0
    6.1537  -13.3779   25.8622 C   0  0  0  0  0  0  0  0  0  0  0  0
    8.3402  -15.8095   24.4086 C   0  0  0  0  0  0  0  0  0  0  0  0
    7.5236  -16.7831   24.2032 O   0  0  0  0  0  0  0  0  0  0  0  0
   12.8824  -21.0056   22.5220 N   0  0  0  0  0  0  0  0  0  0  0  0
   12.5144  -19.6556   22.2475 C   0  0  0  0  0  0  0  0  0  0  0  0
   12.6180  -19.1599   21.0734 N   0  0  0  0  0  0  0  0  0  0  0  0
   12.0223  -18.8509   23.3099 N   0  0  0  0  0  0  0  0  0  0  0  0
   11.8278  -19.3520   24.6495 C   0  0  0  0  0  0  0  0  0  0  0  0
   11.2456  -18.2270   25.5135 C   0  0  0  0  0  0  0  0  0  0  0  0
    9.7501  -18.3378   25.5315 C   0  0  0  0  0  0  0  0  0  0  0  0
    9.1399  -17.2375   26.3310 C   0  0  2  0  0  0  0  0  0  0  0  0
    9.1736  -15.9783   25.5361 N   0  0  0  0  0  0  0  0  0  0  0  0
    9.8199  -17.0346   27.6178 C   0  0  0  0  0  0  0  0  0  0  0  0
   10.3628  -15.9167   27.8613 O   0  0  0  0  0  0  0  0  0  0  0  0
    9.9069  -17.9967   28.5992 O   0  0  0  0  0  0  0  0  0  0  0  0
  2  1  1  0
  3  2  1  0
  3  5  1  0
  3  4  1  1
  5  6  2  0
  7  5  1  0
  7  8  1  0
  8  9  1  1
 10  9  1  0
 11 10  2  0
 12 11  1  0
 13 14  1  0
 13 12  2  0
 14 15  2  0
 15 10  1  0
 16  8  1  0
 16 17  2  0
 19 21  1  0
 19 18  1  0
 20 19  2  0
 22 23  1  0
 22 21  1  0
 23 24  1  0
 25 24  1  6
 25 26  1  0
 25 27  1  0
 26 16  1  0
 27 29  1  0
 28 27  2  0
M  END
$$$$
