RKA.pdb
     RDKit          3D

 26 25  0  0  1  0  0  0  0  0999 V2000
   20.7399  -21.9694  -11.1064 N   0  0  0  0  0  0  0  0  0  0  0  0
   20.5571  -21.4425   -9.7930 C   0  0  0  0  0  0  0  0  0  0  0  0
   19.5695  -21.8457   -9.0983 N   0  0  0  0  0  0  0  0  0  0  0  0
   21.4497  -20.4883   -9.2562 N   0  0  0  0  0  0  0  0  0  0  0  0
   22.6080  -20.0673  -10.0362 C   0  0  0  0  0  0  0  0  0  0  0  0
   23.7245  -21.0414   -9.9457 C   0  0  0  0  0  0  0  0  0  0  0  0
   24.9468  -20.6146  -10.6445 C   0  0  0  0  0  0  0  0  0  0  0  0
   25.1056  -21.0711  -12.0343 C   0  0  2  0  0  0  0  0  0  0  0  0
   26.4410  -21.4797  -12.3915 N   0  0  0  0  0  0  0  0  0  0  0  0
   24.6094  -20.0262  -13.0091 C   0  0  0  0  0  0  0  0  0  0  0  0
   23.9441  -19.0377  -12.6080 O   0  0  0  0  0  0  0  0  0  0  0  0
   19.3519  -21.4257   -8.1819 N   0  0  0  0  0  0  0  0  0  0  0  0
   24.8698  -20.1176  -14.3924 C   0  0  2  0  0  0  0  0  0  0  0  0
   24.4880  -19.0328  -15.3014 C   0  0  0  0  0  0  0  0  0  0  0  0
   25.3117  -19.0561  -16.5401 C   0  0  0  0  0  0  0  0  0  0  0  0
   25.0527  -17.8933  -17.4510 C   0  0  0  0  0  0  0  0  0  0  0  0
   25.9011  -18.0319  -18.7309 C   0  0  0  0  0  0  0  0  0  0  0  0
   25.7030  -16.7528  -19.5429 N   0  0  0  0  0  0  0  0  0  0  0  0
   26.4356  -16.8210  -20.7837 C   0  0  0  0  0  0  0  0  0  0  0  0
   23.0475  -19.0586  -15.5759 O   0  0  0  0  0  0  0  0  0  0  0  0
   22.4408  -20.1313  -15.7370 C   0  0  0  0  0  0  0  0  0  0  0  0
   20.2068  -16.5619  -15.7337 C   0  0  2  0  0  0  0  0  0  0  0  0
   20.8577  -17.9124  -15.9148 N   0  0  0  0  0  0  0  0  0  0  0  0
   22.2806  -17.8596  -15.6699 C   0  0  0  0  0  0  0  0  0  0  0  0
   20.5318  -18.4192  -17.2579 O   0  0  0  0  0  0  0  0  0  0  0  0
   21.3486  -18.3344  -18.2159 O   0  0  0  0  0  0  0  0  0  0  0  0
  2  1  1  0
  2  3  2  0
  4  2  1  0
  5  4  1  0
  6  5  1  0
  7  6  1  0
  8  7  1  0
  8  9  1  6
 10  8  1  0
 11 10  2  0
 12 10  1  0
 13 14  1  6
 13 12  1  0
 15 16  1  0
 15 14  1  0
 17 16  1  0
 18 17  1  0
 19 13  1  0
 19 23  1  0
 20 19  2  0
 22 24  1  0
 22 23  1  0
 22 21  1  1
 24 26  1  0
 25 24  2  0
M  END
$$$$
