RKA.pdb
     RDKit          3D

 26 25  0  0  1  0  0  0  0  0999 V2000
   29.0297  -21.6831  -17.9558 N   0  0  0  0  0  0  0  0  0  0  0  0
   29.2933  -22.5832  -16.8804 C   0  0  0  0  0  0  0  0  0  0  0  0
   30.3126  -23.3427  -16.9472 N   0  0  0  0  0  0  0  0  0  0  0  0
   28.4468  -22.6424  -15.7511 N   0  0  0  0  0  0  0  0  0  0  0  0
   27.1695  -21.9386  -15.7713 C   0  0  0  0  0  0  0  0  0  0  0  0
   27.2776  -20.5716  -15.2027 C   0  0  0  0  0  0  0  0  0  0  0  0
   26.1506  -20.1954  -14.3351 C   0  0  0  0  0  0  0  0  0  0  0  0
   24.8081  -20.5917  -14.7886 C   0  0  2  0  0  0  0  0  0  0  0  0
   24.7243  -20.9820  -16.1737 N   0  0  0  0  0  0  0  0  0  0  0  0
   23.7946  -19.5069  -14.4978 C   0  0  0  0  0  0  0  0  0  0  0  0
   23.7270  -18.9792  -13.3588 O   0  0  0  0  0  0  0  0  0  0  0  0
   30.4851  -24.0718  -16.2384 N   0  0  0  0  0  0  0  0  0  0  0  0
   22.8939  -19.0488  -15.4820 C   0  0  1  0  0  0  0  0  0  0  0  0
   21.8141  -18.1191  -15.1369 C   0  0  0  0  0  0  0  0  0  0  0  0
   21.6156  -17.1063  -16.2084 C   0  0  0  0  0  0  0  0  0  0  0  0
   20.5875  -16.0695  -15.8665 C   0  0  0  0  0  0  0  0  0  0  0  0
   20.4438  -15.0705  -17.0320 C   0  0  0  0  0  0  0  0  0  0  0  0
   19.3426  -14.0841  -16.6461 N   0  0  0  0  0  0  0  0  0  0  0  0
   19.1658  -13.0918  -17.6781 C   0  0  0  0  0  0  0  0  0  0  0  0
   20.5830  -18.8431  -14.8034 O   0  0  0  0  0  0  0  0  0  0  0  0
   20.1718  -19.7770  -15.5128 C   0  0  0  0  0  0  0  0  0  0  0  0
   18.3049  -19.1999  -11.8491 C   0  0  2  0  0  0  0  0  0  0  0  0
   18.6183  -19.2649  -13.3249 N   0  0  0  0  0  0  0  0  0  0  0  0
   19.8049  -18.5098  -13.6553 C   0  0  0  0  0  0  0  0  0  0  0  0
   17.4353  -18.8215  -14.0806 O   0  0  0  0  0  0  0  0  0  0  0  0
   17.4405  -17.7569  -14.7578 O   0  0  0  0  0  0  0  0  0  0  0  0
  2  1  1  0
  2  3  2  0
  4  2  1  0
  5  4  1  0
  6  5  1  0
  7  6  1  0
  8  7  1  0
  8  9  1  6
 10  8  1  0
 11 10  2  0
 12 10  1  0
 13 14  1  1
 13 12  1  0
 15 16  1  0
 15 14  1  0
 17 16  1  0
 18 17  1  0
 19 13  1  0
 19 23  1  0
 20 19  2  0
 22 24  1  0
 22 23  1  0
 22 21  1  1
 24 26  1  0
 25 24  2  0
M  END
$$$$
