RKA.pdb
     RDKit          3D

 26 25  0  0  1  0  0  0  0  0999 V2000
   22.2146  -23.5927  -13.7965 N   0  0  0  0  0  0  0  0  0  0  0  0
   21.3250  -24.1769  -14.7470 C   0  0  0  0  0  0  0  0  0  0  0  0
   21.3830  -23.7975  -15.9607 N   0  0  0  0  0  0  0  0  0  0  0  0
   20.3892  -25.1633  -14.3640 N   0  0  0  0  0  0  0  0  0  0  0  0
   20.4261  -25.7033  -13.0097 C   0  0  0  0  0  0  0  0  0  0  0  0
   21.4844  -26.7316  -12.8486 C   0  0  0  0  0  0  0  0  0  0  0  0
   20.9750  -28.1113  -12.8105 C   0  0  0  0  0  0  0  0  0  0  0  0
   20.5237  -28.6120  -11.5026 C   0  0  2  0  0  0  0  0  0  0  0  0
   20.2015  -30.0166  -11.4670 N   0  0  0  0  0  0  0  0  0  0  0  0
   19.3549  -27.8030  -10.9853 C   0  0  0  0  0  0  0  0  0  0  0  0
   18.1900  -28.0137  -11.4087 O   0  0  0  0  0  0  0  0  0  0  0  0
   20.7389  -24.1758  -16.6718 N   0  0  0  0  0  0  0  0  0  0  0  0
   19.5226  -26.7903  -10.0179 C   0  0  2  0  0  0  0  0  0  0  0  0
   18.3696  -26.0456   -9.5029 C   0  0  0  0  0  0  0  0  0  0  0  0
   18.4022  -25.9667   -8.0176 C   0  0  0  0  0  0  0  0  0  0  0  0
   17.2065  -25.2780   -7.4302 C   0  0  0  0  0  0  0  0  0  0  0  0
   17.2867  -25.3117   -5.8909 C   0  0  0  0  0  0  0  0  0  0  0  0
   16.0835  -24.5338   -5.3604 N   0  0  0  0  0  0  0  0  0  0  0  0
   16.1505  -24.4129   -3.9245 C   0  0  0  0  0  0  0  0  0  0  0  0
   18.2662  -24.7288  -10.1403 O   0  0  0  0  0  0  0  0  0  0  0  0
   19.2787  -24.1089  -10.5077 C   0  0  0  0  0  0  0  0  0  0  0  0
   17.8315  -23.2426  -12.5034 C   0  0  2  0  0  0  0  0  0  0  0  0
   16.8676  -23.0583  -11.3558 N   0  0  0  0  0  0  0  0  0  0  0  0
   17.0048  -24.1024  -10.3666 C   0  0  0  0  0  0  0  0  0  0  0  0
   15.5011  -22.9640  -11.8950 O   0  0  0  0  0  0  0  0  0  0  0  0
   14.6375  -23.8574  -11.6758 O   0  0  0  0  0  0  0  0  0  0  0  0
  2  1  1  0
  2  3  2  0
  4  2  1  0
  5  4  1  0
  6  5  1  0
  7  6  1  0
  8  7  1  0
  8  9  1  6
 10  8  1  0
 11 10  2  0
 12 10  1  0
 13 14  1  1
 13 12  1  0
 15 16  1  0
 15 14  1  0
 17 16  1  0
 18 17  1  0
 19 13  1  0
 19 23  1  0
 20 19  2  0
 22 24  1  0
 22 23  1  0
 22 21  1  1
 24 26  1  0
 25 24  2  0
M  END
$$$$
