RKA.pdb
     RDKit          3D

 26 25  0  0  1  0  0  0  0  0999 V2000
   18.9140  -19.6280  -18.2687 N   0  0  0  0  0  0  0  0  0  0  0  0
   19.6027  -20.1592  -19.3999 C   0  0  0  0  0  0  0  0  0  0  0  0
   19.2952  -19.7408  -20.5621 N   0  0  0  0  0  0  0  0  0  0  0  0
   20.6138  -21.1342  -19.2498 N   0  0  0  0  0  0  0  0  0  0  0  0
   21.1122  -21.4552  -17.9172 C   0  0  0  0  0  0  0  0  0  0  0  0
   22.5301  -21.0526  -17.7407 C   0  0  0  0  0  0  0  0  0  0  0  0
   23.4931  -21.9661  -18.3751 C   0  0  0  0  0  0  0  0  0  0  0  0
   24.3837  -22.7151  -17.4746 C   0  0  2  0  0  0  0  0  0  0  0  0
   23.7817  -23.1340  -16.2336 N   0  0  0  0  0  0  0  0  0  0  0  0
   25.6512  -21.9382  -17.1948 C   0  0  0  0  0  0  0  0  0  0  0  0
   25.6732  -21.0393  -16.3162 O   0  0  0  0  0  0  0  0  0  0  0  0
   19.7826  -20.0866  -21.4026 N   0  0  0  0  0  0  0  0  0  0  0  0
   26.8465  -22.1877  -17.9010 C   0  0  2  0  0  0  0  0  0  0  0  0
   28.0429  -21.3747  -17.6626 C   0  0  0  0  0  0  0  0  0  0  0  0
   29.2803  -22.1322  -17.9916 C   0  0  0  0  0  0  0  0  0  0  0  0
   29.7492  -23.0216  -16.8790 C   0  0  0  0  0  0  0  0  0  0  0  0
   30.9591  -23.8539  -17.3485 C   0  0  0  0  0  0  0  0  0  0  0  0
   31.4144  -24.6972  -16.1585 N   0  0  0  0  0  0  0  0  0  0  0  0
   32.4784  -25.5904  -16.5472 C   0  0  0  0  0  0  0  0  0  0  0  0
   27.9567  -20.0920  -18.3685 O   0  0  0  0  0  0  0  0  0  0  0  0
   27.3546  -19.9908  -19.4510 C   0  0  0  0  0  0  0  0  0  0  0  0
   27.8096  -16.5791  -17.7607 C   0  0  2  0  0  0  0  0  0  0  0  0
   28.4792  -17.6612  -18.5737 N   0  0  0  0  0  0  0  0  0  0  0  0
   28.5571  -18.9077  -17.8474 C   0  0  0  0  0  0  0  0  0  0  0  0
   29.7984  -17.1768  -19.0121 O   0  0  0  0  0  0  0  0  0  0  0  0
   30.8696  -17.6809  -18.5755 O   0  0  0  0  0  0  0  0  0  0  0  0
  2  1  1  0
  2  3  2  0
  4  2  1  0
  5  4  1  0
  6  5  1  0
  7  6  1  0
  8  7  1  0
  8  9  1  1
 10  8  1  0
 11 10  2  0
 12 10  1  0
 13 14  1  1
 13 12  1  0
 15 16  1  0
 15 14  1  0
 17 16  1  0
 18 17  1  0
 19 13  1  0
 19 23  1  0
 20 19  2  0
 22 24  1  0
 22 23  1  0
 22 21  1  6
 24 26  1  0
 25 24  2  0
M  END
$$$$
