RKA.pdb
     RDKit          3D

 26 25  0  0  1  0  0  0  0  0999 V2000
   26.5551  -20.5613   -9.0465 N   0  0  0  0  0  0  0  0  0  0  0  0
   25.2893  -20.7637   -9.6733 C   0  0  0  0  0  0  0  0  0  0  0  0
   24.2295  -20.6304   -8.9808 N   0  0  0  0  0  0  0  0  0  0  0  0
   25.1958  -21.1060  -11.0405 N   0  0  0  0  0  0  0  0  0  0  0  0
   26.4121  -21.3665  -11.8022 C   0  0  0  0  0  0  0  0  0  0  0  0
   27.2103  -20.1333  -12.0161 C   0  0  0  0  0  0  0  0  0  0  0  0
   27.4027  -19.7853  -13.4325 C   0  0  0  0  0  0  0  0  0  0  0  0
   26.5613  -20.4978  -14.4070 C   0  0  2  0  0  0  0  0  0  0  0  0
   27.2668  -21.0289  -15.5463 N   0  0  0  0  0  0  0  0  0  0  0  0
   25.4141  -19.6283  -14.8720 C   0  0  0  0  0  0  0  0  0  0  0  0
   24.7239  -18.9791  -14.0458 O   0  0  0  0  0  0  0  0  0  0  0  0
   23.2957  -20.7520   -9.4014 N   0  0  0  0  0  0  0  0  0  0  0  0
   25.0757  -19.5123  -16.2364 C   0  0  1  0  0  0  0  0  0  0  0  0
   23.9719  -18.6479  -16.6652 C   0  0  0  0  0  0  0  0  0  0  0  0
   24.1514  -18.2085  -18.0751 C   0  0  0  0  0  0  0  0  0  0  0  0
   23.1290  -17.2070  -18.5229 C   0  0  0  0  0  0  0  0  0  0  0  0
   23.4132  -16.7835  -19.9779 C   0  0  0  0  0  0  0  0  0  0  0  0
   22.3528  -15.7526  -20.3619 N   0  0  0  0  0  0  0  0  0  0  0  0
   22.5441  -15.3104  -21.7216 C   0  0  0  0  0  0  0  0  0  0  0  0
   22.6762  -19.2941  -16.4315 O   0  0  0  0  0  0  0  0  0  0  0  0
   22.5239  -20.5152  -16.6052 C   0  0  0  0  0  0  0  0  0  0  0  0
   19.9239  -19.4738  -14.4024 C   0  0  2  0  0  0  0  0  0  0  0  0
   20.2519  -19.1979  -15.8503 N   0  0  0  0  0  0  0  0  0  0  0  0
   21.5371  -18.5540  -15.9962 C   0  0  0  0  0  0  0  0  0  0  0  0
   19.1552  -18.4158  -16.4440 O   0  0  0  0  0  0  0  0  0  0  0  0
   17.9730  -18.8550  -16.4854 O   0  0  0  0  0  0  0  0  0  0  0  0
  2  1  1  0
  2  3  2  0
  4  2  1  0
  5  4  1  0
  6  5  1  0
  7  6  1  0
  8  7  1  0
  8  9  1  6
 10  8  1  0
 11 10  2  0
 12 10  1  0
 13 14  1  6
 13 12  1  0
 15 16  1  0
 15 14  1  0
 17 16  1  0
 18 17  1  0
 19 13  1  0
 19 23  1  0
 20 19  2  0
 22 24  1  0
 22 23  1  0
 22 21  1  6
 24 26  1  0
 25 24  2  0
M  END
$$$$
