RKA.pdb
     RDKit          3D

 26 25  0  0  1  0  0  0  0  0999 V2000
   29.3387  -11.8477  -15.9200 N   0  0  0  0  0  0  0  0  0  0  0  0
   28.4854  -12.8822  -16.4075 C   0  0  0  0  0  0  0  0  0  0  0  0
   28.9884  -14.0188  -16.6822 N   0  0  0  0  0  0  0  0  0  0  0  0
   27.1011  -12.6655  -16.5870 N   0  0  0  0  0  0  0  0  0  0  0  0
   26.5152  -11.3894  -16.1927 C   0  0  0  0  0  0  0  0  0  0  0  0
   25.0820  -11.2948  -16.5677 C   0  0  0  0  0  0  0  0  0  0  0  0
   24.2567  -12.3991  -16.0542 C   0  0  0  0  0  0  0  0  0  0  0  0
   22.8365  -12.3955  -16.4389 C   0  0  2  0  0  0  0  0  0  0  0  0
   22.5318  -13.1190  -17.6478 N   0  0  0  0  0  0  0  0  0  0  0  0
   22.3041  -10.9829  -16.5369 C   0  0  0  0  0  0  0  0  0  0  0  0
   22.5713  -10.2631  -17.5323 O   0  0  0  0  0  0  0  0  0  0  0  0
   28.4240  -14.7632  -17.1192 N   0  0  0  0  0  0  0  0  0  0  0  0
   21.4955  -10.4221  -15.5262 C   0  0  1  0  0  0  0  0  0  0  0  0
   20.8353   -9.1284  -15.7247 C   0  0  0  0  0  0  0  0  0  0  0  0
   19.4009   -9.1930  -15.3352 C   0  0  0  0  0  0  0  0  0  0  0  0
   18.6630   -7.9069  -15.5594 C   0  0  0  0  0  0  0  0  0  0  0  0
   17.1713   -8.0926  -15.2170 C   0  0  0  0  0  0  0  0  0  0  0  0
   16.4592   -6.7925  -15.5875 N   0  0  0  0  0  0  0  0  0  0  0  0
   15.0589   -6.8668  -15.2492 C   0  0  0  0  0  0  0  0  0  0  0  0
   21.5630   -8.0554  -15.0390 O   0  0  0  0  0  0  0  0  0  0  0  0
   21.9362   -8.1804  -13.8601 C   0  0  0  0  0  0  0  0  0  0  0  0
   23.0044   -4.6672  -15.9231 C   0  0  2  0  0  0  0  0  0  0  0  0
   22.5914   -5.7829  -14.9931 N   0  0  0  0  0  0  0  0  0  0  0  0
   21.8743   -6.8253  -15.6906 C   0  0  0  0  0  0  0  0  0  0  0  0
   21.8176   -5.2098  -13.8796 O   0  0  0  0  0  0  0  0  0  0  0  0
   20.5572   -5.2615  -13.8509 O   0  0  0  0  0  0  0  0  0  0  0  0
  2  1  1  0
  2  3  2  0
  4  2  1  0
  5  4  1  0
  6  5  1  0
  7  6  1  0
  8  7  1  0
  8  9  1  6
 10  8  1  0
 11 10  2  0
 12 10  1  0
 13 14  1  6
 13 12  1  0
 15 16  1  0
 15 14  1  0
 17 16  1  0
 18 17  1  0
 19 13  1  0
 19 23  1  0
 20 19  2  0
 22 24  1  0
 22 23  1  0
 22 21  1  6
 24 26  1  0
 25 24  2  0
M  END
$$$$
