RKA.pdb
     RDKit          3D

 26 25  0  0  1  0  0  0  0  0999 V2000
   10.8012   -9.0426   -8.7761 N   0  0  0  0  0  0  0  0  0  0  0  0
   11.4959  -10.1664   -9.3152 C   0  0  0  0  0  0  0  0  0  0  0  0
   10.8357  -11.0597   -9.9369 N   0  0  0  0  0  0  0  0  0  0  0  0
   12.8947  -10.3003   -9.1711 N   0  0  0  0  0  0  0  0  0  0  0  0
   13.6132   -9.4125   -8.2641 C   0  0  0  0  0  0  0  0  0  0  0  0
   14.2030   -8.2496   -8.9736 C   0  0  0  0  0  0  0  0  0  0  0  0
   14.8978   -7.3009   -8.0894 C   0  0  0  0  0  0  0  0  0  0  0  0
   15.6041   -6.1872   -8.7419 C   0  0  2  0  0  0  0  0  0  0  0  0
   14.7533   -5.2379   -9.4148 N   0  0  0  0  0  0  0  0  0  0  0  0
   16.6597   -6.6989   -9.6970 C   0  0  0  0  0  0  0  0  0  0  0  0
   17.6433   -7.3582   -9.2746 O   0  0  0  0  0  0  0  0  0  0  0  0
   11.2818  -11.9355  -10.2493 N   0  0  0  0  0  0  0  0  0  0  0  0
   16.5843   -6.4596  -11.0851 C   0  0  1  0  0  0  0  0  0  0  0  0
   17.5760   -7.0320  -12.0005 C   0  0  0  0  0  0  0  0  0  0  0  0
   16.9669   -7.3509  -13.3198 C   0  0  0  0  0  0  0  0  0  0  0  0
   16.1109   -8.5821  -13.3001 C   0  0  0  0  0  0  0  0  0  0  0  0
   15.4832   -8.8056  -14.6904 C   0  0  0  0  0  0  0  0  0  0  0  0
   14.6243  -10.0660  -14.5990 N   0  0  0  0  0  0  0  0  0  0  0  0
   14.0606  -10.3903  -15.8867 C   0  0  0  0  0  0  0  0  0  0  0  0
   18.7523   -6.1631  -12.1123 O   0  0  0  0  0  0  0  0  0  0  0  0
   18.6402   -4.9255  -12.1329 C   0  0  0  0  0  0  0  0  0  0  0  0
   22.5095   -6.5504  -12.0378 C   0  0  2  0  0  0  0  0  0  0  0  0
   21.2157   -5.8190  -12.3048 N   0  0  0  0  0  0  0  0  0  0  0  0
   20.0723   -6.6962  -12.2022 C   0  0  0  0  0  0  0  0  0  0  0  0
   21.3071   -5.1576  -13.6167 O   0  0  0  0  0  0  0  0  0  0  0  0
   20.6489   -5.5650  -14.6131 O   0  0  0  0  0  0  0  0  0  0  0  0
  2  1  1  0
  2  3  2  0
  4  2  1  0
  5  4  1  0
  6  5  1  0
  7  6  1  0
  8  7  1  0
  8  9  1  6
 10  8  1  0
 11 10  2  0
 12 10  1  0
 13 14  1  1
 13 12  1  0
 15 16  1  0
 15 14  1  0
 17 16  1  0
 18 17  1  0
 19 13  1  0
 19 23  1  0
 20 19  2  0
 22 24  1  0
 22 23  1  0
 22 21  1  1
 24 26  1  0
 25 24  2  0
M  END
$$$$
