RKA.pdb
     RDKit          3D

 26 25  0  0  1  0  0  0  0  0999 V2000
   28.1172  -30.2089  -16.0923 N   0  0  0  0  0  0  0  0  0  0  0  0
   26.8589  -29.9235  -16.7016 C   0  0  0  0  0  0  0  0  0  0  0  0
   26.1309  -30.8904  -17.0960 N   0  0  0  0  0  0  0  0  0  0  0  0
   26.4122  -28.5942  -16.8710 N   0  0  0  0  0  0  0  0  0  0  0  0
   27.2449  -27.4903  -16.4068 C   0  0  0  0  0  0  0  0  0  0  0  0
   26.6433  -26.1694  -16.7182 C   0  0  0  0  0  0  0  0  0  0  0  0
   25.8914  -25.5779  -15.6005 C   0  0  0  0  0  0  0  0  0  0  0  0
   25.1227  -24.3582  -15.8948 C   0  0  2  0  0  0  0  0  0  0  0  0
   25.8625  -23.1275  -15.7686 N   0  0  0  0  0  0  0  0  0  0  0  0
   23.8668  -24.2919  -15.0542 C   0  0  0  0  0  0  0  0  0  0  0  0
   23.8743  -23.7267  -13.9313 O   0  0  0  0  0  0  0  0  0  0  0  0
   25.2536  -30.7248  -17.6124 N   0  0  0  0  0  0  0  0  0  0  0  0
   22.6499  -24.8557  -15.4911 C   0  0  2  0  0  0  0  0  0  0  0  0
   21.4452  -24.7781  -14.6594 C   0  0  0  0  0  0  0  0  0  0  0  0
   20.2822  -24.2840  -15.4448 C   0  0  0  0  0  0  0  0  0  0  0  0
   18.9956  -24.2910  -14.6745 C   0  0  0  0  0  0  0  0  0  0  0  0
   17.8573  -23.7322  -15.5516 C   0  0  0  0  0  0  0  0  0  0  0  0
   16.5725  -23.8163  -14.7289 N   0  0  0  0  0  0  0  0  0  0  0  0
   15.4671  -23.2394  -15.4542 C   0  0  0  0  0  0  0  0  0  0  0  0
   21.1804  -26.0589  -13.9958 O   0  0  0  0  0  0  0  0  0  0  0  0
   21.1521  -27.1235  -14.6365 C   0  0  0  0  0  0  0  0  0  0  0  0
   20.6769  -27.3195  -10.4635 C   0  0  2  0  0  0  0  0  0  0  0  0
   20.6274  -27.4063  -11.9703 N   0  0  0  0  0  0  0  0  0  0  0  0
   20.9445  -26.1409  -12.5914 C   0  0  0  0  0  0  0  0  0  0  0  0
   19.3080  -27.9206  -12.3723 O   0  0  0  0  0  0  0  0  0  0  0  0
   18.4466  -27.1810  -12.9229 O   0  0  0  0  0  0  0  0  0  0  0  0
  2  1  1  0
  2  3  2  0
  4  2  1  0
  5  4  1  0
  6  5  1  0
  7  6  1  0
  8  7  1  0
  8  9  1  1
 10  8  1  0
 11 10  2  0
 12 10  1  0
 13 14  1  6
 13 12  1  0
 15 16  1  0
 15 14  1  0
 17 16  1  0
 18 17  1  0
 19 13  1  0
 19 23  1  0
 20 19  2  0
 22 24  1  0
 22 23  1  0
 22 21  1  6
 24 26  1  0
 25 24  2  0
M  END
$$$$
