CSV.pdb
     RDKit          3D

 20 19  0  0  1  0  0  0  0  0999 V2000
   21.2156  -12.9941  -16.4624 N   0  0  0  0  0  0  0  0  0  0  0  0
   20.8292  -11.8034  -17.1535 C   0  0  1  0  0  0  0  0  0  0  0  0
   19.6813  -12.0234  -18.1120 C   0  0  0  0  0  0  0  0  0  0  0  0
   20.1588  -13.3454  -19.2673 S   0  0  0  0  0  0  0  0  0  0  0  0
   20.4696  -10.7315  -16.1993 C   0  0  0  0  0  0  0  0  0  0  0  0
   19.6424  -10.9542  -15.3170 O   0  0  0  0  0  0  0  0  0  0  0  0
   21.9538   -8.6904  -13.4262 O   0  0  0  0  0  0  0  0  0  0  0  0
   21.9539   -8.0229  -14.6508 C   0  0  0  0  0  0  0  0  0  0  0  0
   20.7245   -8.3360  -15.4628 C   0  0  2  0  0  0  0  0  0  0  0  0
   21.0652   -9.4725  -16.2981 N   0  0  0  0  0  0  0  0  0  0  0  0
   20.1847   -7.2065  -16.2083 C   0  0  0  0  0  0  0  0  0  0  0  0
   20.6699   -6.8669  -17.3172 O   0  0  0  0  0  0  0  0  0  0  0  0
   16.5488   -4.2527  -17.4206 C   0  0  0  0  0  0  0  0  0  0  0  0
   17.0933   -5.4473  -16.6950 C   0  0  1  0  0  0  0  0  0  0  0  0
   16.6585   -6.6851  -17.4393 C   0  0  0  0  0  0  0  0  0  0  0  0
   18.5952   -5.3628  -16.5591 C   0  0  2  0  0  0  0  0  0  0  0  0
   19.0982   -6.4255  -15.7499 N   0  0  0  0  0  0  0  0  0  0  0  0
   18.8777   -4.0754  -15.8331 C   0  0  0  0  0  0  0  0  0  0  0  0
   19.2417   -3.0344  -16.4373 O   0  0  0  0  0  0  0  0  0  0  0  0
   18.7477   -3.9796  -14.4527 O   0  0  0  0  0  0  0  0  0  0  0  0
  2  3  1  0
  2  1  1  1
  4  3  1  0
  5  2  1  0
  5  6  2  0
  7  8  1  0
  9  8  1  6
  9 10  1  0
 10  5  1  0
 11  9  1  0
 11 17  1  0
 12 11  2  0
 14 13  1  6
 14 15  1  0
 14 16  1  0
 16 17  1  1
 16 18  1  0
 18 19  2  0
 18 20  1  0
M  END
$$$$
