CSV.pdb
     RDKit          3D

 20 19  0  0  1  0  0  0  0  0999 V2000
   23.2044  -12.8147  -18.2759 N   0  0  0  0  0  0  0  0  0  0  0  0
   23.1824  -12.0993  -17.0380 C   0  0  1  0  0  0  0  0  0  0  0  0
   24.5487  -11.9756  -16.4034 C   0  0  0  0  0  0  0  0  0  0  0  0
   25.0869  -13.6387  -15.8985 S   0  0  0  0  0  0  0  0  0  0  0  0
   22.6038  -10.7496  -17.2177 C   0  0  0  0  0  0  0  0  0  0  0  0
   22.9321  -10.0709  -18.1892 O   0  0  0  0  0  0  0  0  0  0  0  0
   18.8605   -7.9926  -16.0334 O   0  0  0  0  0  0  0  0  0  0  0  0
   19.6054   -9.1701  -15.9697 C   0  0  0  0  0  0  0  0  0  0  0  0
   21.0327   -8.9576  -16.4014 C   0  0  2  0  0  0  0  0  0  0  0  0
   21.6893  -10.2467  -16.2900 N   0  0  0  0  0  0  0  0  0  0  0  0
   21.7275   -7.8875  -15.6978 C   0  0  0  0  0  0  0  0  0  0  0  0
   22.2582   -8.0840  -14.5753 O   0  0  0  0  0  0  0  0  0  0  0  0
   23.9008   -3.4934  -15.6387 C   0  0  0  0  0  0  0  0  0  0  0  0
   23.1814   -4.5598  -16.4102 C   0  0  1  0  0  0  0  0  0  0  0  0
   24.1563   -5.1690  -17.3869 C   0  0  0  0  0  0  0  0  0  0  0  0
   22.5840   -5.5920  -15.4835 C   0  0  2  0  0  0  0  0  0  0  0  0
   21.8537   -6.5769  -16.2143 N   0  0  0  0  0  0  0  0  0  0  0  0
   21.5984   -4.8557  -14.6171 C   0  0  0  0  0  0  0  0  0  0  0  0
   21.9360   -4.3154  -13.5330 O   0  0  0  0  0  0  0  0  0  0  0  0
   20.2617   -4.7395  -14.9798 O   0  0  0  0  0  0  0  0  0  0  0  0
  2  3  1  0
  2  1  1  6
  4  3  1  0
  5  2  1  0
  5  6  2  0
  7  8  1  0
  9  8  1  1
  9 10  1  0
 10  5  1  0
 11  9  1  0
 11 17  1  0
 12 11  2  0
 14 13  1  1
 14 15  1  0
 14 16  1  0
 16 17  1  6
 16 18  1  0
 18 19  2  0
 18 20  1  0
M  END
$$$$
