CSV.pdb
     RDKit          3D

 20 19  0  0  1  0  0  0  0  0999 V2000
   16.6356  -13.1527  -16.1200 N   0  0  0  0  0  0  0  0  0  0  0  0
   17.9305  -12.5925  -15.8871 C   0  0  1  0  0  0  0  0  0  0  0  0
   19.0524  -13.4661  -16.3997 C   0  0  0  0  0  0  0  0  0  0  0  0
   19.2521  -14.8593  -15.2467 S   0  0  0  0  0  0  0  0  0  0  0  0
   18.0420  -11.2483  -16.4948 C   0  0  0  0  0  0  0  0  0  0  0  0
   17.6032  -11.0538  -17.6270 O   0  0  0  0  0  0  0  0  0  0  0  0
   16.7121   -8.0586  -15.3406 O   0  0  0  0  0  0  0  0  0  0  0  0
   17.3795   -8.3445  -16.5315 C   0  0  0  0  0  0  0  0  0  0  0  0
   18.7778   -8.8481  -16.2864 C   0  0  2  0  0  0  0  0  0  0  0  0
   18.6421  -10.2041  -15.7882 N   0  0  0  0  0  0  0  0  0  0  0  0
   19.5908   -7.9925  -15.4320 C   0  0  0  0  0  0  0  0  0  0  0  0
   19.6288   -8.1633  -14.1872 O   0  0  0  0  0  0  0  0  0  0  0  0
   23.4787   -5.1449  -14.8124 C   0  0  0  0  0  0  0  0  0  0  0  0
   22.5785   -5.9325  -15.7176 C   0  0  1  0  0  0  0  0  0  0  0  0
   23.3029   -7.1943  -16.1157 C   0  0  0  0  0  0  0  0  0  0  0  0
   21.2550   -6.2223  -15.0501 C   0  0  2  0  0  0  0  0  0  0  0  0
   20.3806   -6.9296  -15.9290 N   0  0  0  0  0  0  0  0  0  0  0  0
   20.6245   -4.8845  -14.7729 C   0  0  0  0  0  0  0  0  0  0  0  0
   19.8784   -4.3123  -15.6079 O   0  0  0  0  0  0  0  0  0  0  0  0
   20.8406   -4.2173  -13.5729 O   0  0  0  0  0  0  0  0  0  0  0  0
  2  3  1  0
  2  1  1  6
  4  3  1  0
  5  2  1  0
  5  6  2  0
  7  8  1  0
  9  8  1  1
  9 10  1  0
 10  5  1  0
 11  9  1  0
 11 17  1  0
 12 11  2  0
 14 13  1  1
 14 15  1  0
 14 16  1  0
 16 17  1  6
 16 18  1  0
 18 19  2  0
 18 20  1  0
M  END
$$$$
