CSV.pdb
     RDKit          3D

 20 19  0  0  1  0  0  0  0  0999 V2000
   15.0887  -13.3114  -16.3255 N   0  0  0  0  0  0  0  0  0  0  0  0
   16.1663  -12.6856  -15.6241 C   0  0  1  0  0  0  0  0  0  0  0  0
   17.4108  -13.5416  -15.5689 C   0  0  0  0  0  0  0  0  0  0  0  0
   17.0869  -14.9330  -14.4422 S   0  0  0  0  0  0  0  0  0  0  0  0
   16.5005  -11.3768  -16.2275 C   0  0  0  0  0  0  0  0  0  0  0  0
   16.0858  -11.1013  -17.3520 O   0  0  0  0  0  0  0  0  0  0  0  0
   15.6464   -8.1230  -14.9140 O   0  0  0  0  0  0  0  0  0  0  0  0
   16.2323   -8.4275  -16.1426 C   0  0  0  0  0  0  0  0  0  0  0  0
   17.5659   -9.1079  -15.9772 C   0  0  2  0  0  0  0  0  0  0  0  0
   17.2827  -10.4574  -15.5257 N   0  0  0  0  0  0  0  0  0  0  0  0
   18.5103   -8.3954  -15.1266 C   0  0  0  0  0  0  0  0  0  0  0  0
   18.5027   -8.5446  -13.8784 O   0  0  0  0  0  0  0  0  0  0  0  0
   22.8894   -6.6319  -14.3351 C   0  0  0  0  0  0  0  0  0  0  0  0
   21.8613   -7.2446  -15.2394 C   0  0  1  0  0  0  0  0  0  0  0  0
   22.1325   -8.7263  -15.3200 C   0  0  0  0  0  0  0  0  0  0  0  0
   20.4628   -6.9475  -14.7526 C   0  0  2  0  0  0  0  0  0  0  0  0
   19.4844   -7.5027  -15.6311 N   0  0  0  0  0  0  0  0  0  0  0  0
   20.3115   -5.4512  -14.8029 C   0  0  0  0  0  0  0  0  0  0  0  0
   19.9523   -4.8514  -15.8481 O   0  0  0  0  0  0  0  0  0  0  0  0
   20.5641   -4.6605  -13.6882 O   0  0  0  0  0  0  0  0  0  0  0  0
  2  3  1  0
  2  1  1  6
  4  3  1  0
  5  2  1  0
  5  6  2  0
  7  8  1  0
  9  8  1  1
  9 10  1  0
 10  5  1  0
 11  9  1  0
 11 17  1  0
 12 11  2  0
 14 13  1  1
 14 15  1  0
 14 16  1  0
 16 17  1  6
 16 18  1  0
 18 19  2  0
 18 20  1  0
M  END
$$$$
