CSV.pdb
     RDKit          3D

 20 19  0  0  1  0  0  0  0  0999 V2000
   29.2107  -14.6803  -19.5316 N   0  0  0  0  0  0  0  0  0  0  0  0
   30.2739  -14.1152  -18.7604 C   0  0  1  0  0  0  0  0  0  0  0  0
   31.5526  -14.9171  -18.8412 C   0  0  0  0  0  0  0  0  0  0  0  0
   31.2295  -16.5633  -18.1369 S   0  0  0  0  0  0  0  0  0  0  0  0
   30.5450  -12.7213  -19.1754 C   0  0  0  0  0  0  0  0  0  0  0  0
   30.4909  -12.4192  -20.3663 O   0  0  0  0  0  0  0  0  0  0  0  0
   28.6816   -9.9528  -18.3056 O   0  0  0  0  0  0  0  0  0  0  0  0
   29.7731   -9.8753  -19.1705 C   0  0  0  0  0  0  0  0  0  0  0  0
   31.0458  -10.3426  -18.5142 C   0  0  2  0  0  0  0  0  0  0  0  0
   30.8609  -11.7517  -18.2215 N   0  0  0  0  0  0  0  0  0  0  0  0
   31.4575   -9.5569  -17.3583 C   0  0  0  0  0  0  0  0  0  0  0  0
   30.9711   -9.7712  -16.2190 O   0  0  0  0  0  0  0  0  0  0  0  0
   34.8536   -7.1373  -14.9459 C   0  0  0  0  0  0  0  0  0  0  0  0
   34.3766   -7.8517  -16.1756 C   0  0  1  0  0  0  0  0  0  0  0  0
   34.9759   -9.2360  -16.1746 C   0  0  0  0  0  0  0  0  0  0  0  0
   32.8677   -7.8846  -16.2344 C   0  0  2  0  0  0  0  0  0  0  0  0
   32.4141   -8.5177  -17.4305 N   0  0  0  0  0  0  0  0  0  0  0  0
   32.4200   -6.4491  -16.2905 C   0  0  0  0  0  0  0  0  0  0  0  0
   32.3147   -5.8248  -17.3769 O   0  0  0  0  0  0  0  0  0  0  0  0
   32.1009   -5.7450  -15.1355 O   0  0  0  0  0  0  0  0  0  0  0  0
  2  3  1  0
  2  1  1  6
  4  3  1  0
  5  2  1  0
  5  6  2  0
  7  8  1  0
  9  8  1  1
  9 10  1  0
 10  5  1  0
 11  9  1  0
 11 17  1  0
 12 11  2  0
 14 13  1  1
 14 15  1  0
 14 16  1  0
 16 17  1  6
 16 18  1  0
 18 19  2  0
 18 20  1  0
M  END
$$$$
