CSV.pdb
     RDKit          3D

 20 19  0  0  1  0  0  0  0  0999 V2000
   15.5842  -11.9786  -16.0449 N   0  0  0  0  0  0  0  0  0  0  0  0
   15.3826  -10.6279  -15.6210 C   0  0  1  0  0  0  0  0  0  0  0  0
   14.8514  -10.5253  -14.2096 C   0  0  0  0  0  0  0  0  0  0  0  0
   13.1522  -11.1757  -14.1996 S   0  0  0  0  0  0  0  0  0  0  0  0
   16.6348   -9.8475  -15.7290 C   0  0  0  0  0  0  0  0  0  0  0  0
   17.7187  -10.4267  -15.6868 O   0  0  0  0  0  0  0  0  0  0  0  0
   16.4628   -5.6272  -15.7713 O   0  0  0  0  0  0  0  0  0  0  0  0
   17.2050   -6.3338  -16.7176 C   0  0  0  0  0  0  0  0  0  0  0  0
   17.7421   -7.6264  -16.1611 C   0  0  2  0  0  0  0  0  0  0  0  0
   16.5886   -8.4599  -15.8783 N   0  0  0  0  0  0  0  0  0  0  0  0
   18.6414   -7.4719  -15.0252 C   0  0  0  0  0  0  0  0  0  0  0  0
   18.2574   -7.7157  -13.8532 O   0  0  0  0  0  0  0  0  0  0  0  0
   22.6630   -8.1959  -15.2020 C   0  0  0  0  0  0  0  0  0  0  0  0
   21.7707   -8.2017  -13.9963 C   0  0  1  0  0  0  0  0  0  0  0  0
   22.6450   -8.2234  -12.7672 C   0  0  0  0  0  0  0  0  0  0  0  0
   20.8338   -7.0171  -14.0076 C   0  0  2  0  0  0  0  0  0  0  0  0
   19.9838   -7.0456  -15.1539 N   0  0  0  0  0  0  0  0  0  0  0  0
   21.7049   -5.7960  -14.1268 C   0  0  0  0  0  0  0  0  0  0  0  0
   21.7804   -5.1313  -15.1915 O   0  0  0  0  0  0  0  0  0  0  0  0
   22.4702   -5.3458  -13.0575 O   0  0  0  0  0  0  0  0  0  0  0  0
  2  3  1  0
  2  1  1  1
  4  3  1  0
  5  2  1  0
  5  6  2  0
  7  8  1  0
  9  8  1  1
  9 10  1  0
 10  5  1  0
 11  9  1  0
 11 17  1  0
 12 11  2  0
 14 13  1  6
 14 15  1  0
 14 16  1  0
 16 17  1  6
 16 18  1  0
 18 19  2  0
 18 20  1  0
M  END
$$$$
