CSV.pdb
     RDKit          3D

 20 19  0  0  1  0  0  0  0  0999 V2000
   16.3091  -15.3978  -16.2811 N   0  0  0  0  0  0  0  0  0  0  0  0
   16.4307  -14.3080  -15.3633 C   0  0  1  0  0  0  0  0  0  0  0  0
   16.7835  -14.7527  -13.9624 C   0  0  0  0  0  0  0  0  0  0  0  0
   15.3266  -15.5778  -13.2505 S   0  0  0  0  0  0  0  0  0  0  0  0
   17.4372  -13.3309  -15.8333 C   0  0  0  0  0  0  0  0  0  0  0  0
   18.4936  -13.7312  -16.3193 O   0  0  0  0  0  0  0  0  0  0  0  0
   17.9378   -8.7543  -17.2469 O   0  0  0  0  0  0  0  0  0  0  0  0
   17.1959   -9.8257  -16.7496 C   0  0  0  0  0  0  0  0  0  0  0  0
   18.0794  -10.9265  -16.2239 C   0  0  2  0  0  0  0  0  0  0  0  0
   17.1913  -11.9606  -15.7265 N   0  0  0  0  0  0  0  0  0  0  0  0
   19.0736  -10.4950  -15.2502 C   0  0  0  0  0  0  0  0  0  0  0  0
   18.8186  -10.4876  -14.0192 O   0  0  0  0  0  0  0  0  0  0  0  0
   23.6262   -9.7582  -13.7821 C   0  0  0  0  0  0  0  0  0  0  0  0
   22.6457  -10.2619  -14.7995 C   0  0  1  0  0  0  0  0  0  0  0  0
   22.6016  -11.7666  -14.7019 C   0  0  0  0  0  0  0  0  0  0  0  0
   21.2849   -9.6382  -14.5984 C   0  0  2  0  0  0  0  0  0  0  0  0
   20.3712  -10.0622  -15.6097 N   0  0  0  0  0  0  0  0  0  0  0  0
   21.4765   -8.1547  -14.7620 C   0  0  0  0  0  0  0  0  0  0  0  0
   22.0222   -7.4503  -13.8747 O   0  0  0  0  0  0  0  0  0  0  0  0
   21.0556   -7.4929  -15.9094 O   0  0  0  0  0  0  0  0  0  0  0  0
  2  3  1  0
  2  1  1  6
  4  3  1  0
  5  2  1  0
  5  6  2  0
  7  8  1  0
  9  8  1  1
  9 10  1  0
 10  5  1  0
 11  9  1  0
 11 17  1  0
 12 11  2  0
 14 13  1  1
 14 15  1  0
 14 16  1  0
 16 17  1  6
 16 18  1  0
 18 19  2  0
 18 20  1  0
M  END
$$$$
