CSV.pdb
     RDKit          3D

 20 19  0  0  1  0  0  0  0  0999 V2000
   22.4569  -12.2395  -20.5506 N   0  0  0  0  0  0  0  0  0  0  0  0
   21.7062  -11.1757  -19.9595 C   0  0  1  0  0  0  0  0  0  0  0  0
   20.5600  -11.6661  -19.1049 C   0  0  0  0  0  0  0  0  0  0  0  0
   19.4556  -12.6556  -20.1591 S   0  0  0  0  0  0  0  0  0  0  0  0
   22.5797  -10.2996  -19.1483 C   0  0  0  0  0  0  0  0  0  0  0  0
   23.8004  -10.3646  -19.2823 O   0  0  0  0  0  0  0  0  0  0  0  0
   24.6336   -7.2420  -18.7389 O   0  0  0  0  0  0  0  0  0  0  0  0
   23.2681   -7.4928  -18.8733 C   0  0  0  0  0  0  0  0  0  0  0  0
   22.7154   -8.2478  -17.6930 C   0  0  2  0  0  0  0  0  0  0  0  0
   22.0232   -9.4024  -18.2345 N   0  0  0  0  0  0  0  0  0  0  0  0
   21.8974   -7.4492  -16.7897 C   0  0  0  0  0  0  0  0  0  0  0  0
   20.7640   -7.0303  -17.1366 O   0  0  0  0  0  0  0  0  0  0  0  0
   20.1839   -7.1453  -12.3992 C   0  0  0  0  0  0  0  0  0  0  0  0
   21.2026   -7.6187  -13.3932 C   0  0  1  0  0  0  0  0  0  0  0  0
   20.7903   -8.9896  -13.8689 C   0  0  0  0  0  0  0  0  0  0  0  0
   21.3450   -6.6393  -14.5341 C   0  0  2  0  0  0  0  0  0  0  0  0
   22.3086   -7.0939  -15.4839 N   0  0  0  0  0  0  0  0  0  0  0  0
   21.8775   -5.3682  -13.9300 C   0  0  0  0  0  0  0  0  0  0  0  0
   23.1060   -5.1867  -13.7321 O   0  0  0  0  0  0  0  0  0  0  0  0
   21.0287   -4.3311  -13.5615 O   0  0  0  0  0  0  0  0  0  0  0  0
  2  3  1  0
  2  1  1  1
  4  3  1  0
  5  2  1  0
  5  6  2  0
  7  8  1  0
  9  8  1  6
  9 10  1  0
 10  5  1  0
 11  9  1  0
 11 17  1  0
 12 11  2  0
 14 13  1  1
 14 15  1  0
 14 16  1  0
 16 17  1  6
 16 18  1  0
 18 19  2  0
 18 20  1  0
M  END
$$$$
