CSV.pdb
     RDKit          3D

 20 19  0  0  1  0  0  0  0  0999 V2000
   19.6375  -13.0532  -16.3517 N   0  0  0  0  0  0  0  0  0  0  0  0
   19.8960  -11.8393  -17.0619 C   0  0  1  0  0  0  0  0  0  0  0  0
   19.1954  -11.7776  -18.3998 C   0  0  0  0  0  0  0  0  0  0  0  0
   19.8599  -13.1108  -19.4446 S   0  0  0  0  0  0  0  0  0  0  0  0
   19.5098  -10.6617  -16.2541 C   0  0  0  0  0  0  0  0  0  0  0  0
   18.3600  -10.5660  -15.8284 O   0  0  0  0  0  0  0  0  0  0  0  0
   21.3326   -7.0125  -13.6649 O   0  0  0  0  0  0  0  0  0  0  0  0
   21.4720   -8.1168  -14.5055 C   0  0  0  0  0  0  0  0  0  0  0  0
   20.1719   -8.4860  -15.1705 C   0  0  2  0  0  0  0  0  0  0  0  0
   20.4443   -9.6624  -15.9750 N   0  0  0  0  0  0  0  0  0  0  0  0
   19.5418   -7.4041  -15.9157 C   0  0  0  0  0  0  0  0  0  0  0  0
   19.8566   -7.1664  -17.1093 O   0  0  0  0  0  0  0  0  0  0  0  0
   16.0289   -4.2028  -16.8075 C   0  0  0  0  0  0  0  0  0  0  0  0
   16.5517   -5.4612  -16.1805 C   0  0  1  0  0  0  0  0  0  0  0  0
   16.0234   -6.6323  -16.9711 C   0  0  0  0  0  0  0  0  0  0  0  0
   18.0607   -5.4510  -16.1176 C   0  0  2  0  0  0  0  0  0  0  0  0
   18.5507   -6.5595  -15.3636 N   0  0  0  0  0  0  0  0  0  0  0  0
   18.4398   -4.2002  -15.3719 C   0  0  0  0  0  0  0  0  0  0  0  0
   18.6083   -3.0998  -15.9566 O   0  0  0  0  0  0  0  0  0  0  0  0
   18.6216   -4.2062  -13.9940 O   0  0  0  0  0  0  0  0  0  0  0  0
  2  3  1  0
  2  1  1  1
  4  3  1  0
  5  2  1  0
  5  6  2  0
  7  8  1  0
  9  8  1  6
  9 10  1  0
 10  5  1  0
 11  9  1  0
 11 17  1  0
 12 11  2  0
 14 13  1  6
 14 15  1  0
 14 16  1  0
 16 17  1  1
 16 18  1  0
 18 19  2  0
 18 20  1  0
M  END
$$$$
