CSV.pdb
     RDKit          3D

 20 19  0  0  1  0  0  0  0  0999 V2000
   20.4287  -10.9014  -16.9233 N   0  0  0  0  0  0  0  0  0  0  0  0
   21.3215   -9.8026  -16.7228 C   0  0  1  0  0  0  0  0  0  0  0  0
   22.0654   -9.4097  -17.9785 C   0  0  0  0  0  0  0  0  0  0  0  0
   23.2983  -10.7010  -18.3291 S   0  0  0  0  0  0  0  0  0  0  0  0
   20.5993   -8.6244  -16.1946 C   0  0  0  0  0  0  0  0  0  0  0  0
   19.5404   -8.2762  -16.7140 O   0  0  0  0  0  0  0  0  0  0  0  0
   21.2849   -7.5055  -12.3904 O   0  0  0  0  0  0  0  0  0  0  0  0
   20.1550   -7.1047  -13.1033 C   0  0  0  0  0  0  0  0  0  0  0  0
   20.4872   -6.7400  -14.5265 C   0  0  2  0  0  0  0  0  0  0  0  0
   21.1155   -7.9096  -15.1118 N   0  0  0  0  0  0  0  0  0  0  0  0
   21.2727   -5.5218  -14.6741 C   0  0  0  0  0  0  0  0  0  0  0  0
   22.5294   -5.5550  -14.6856 O   0  0  0  0  0  0  0  0  0  0  0  0
   22.0165   -3.3421  -17.3296 C   0  0  0  0  0  0  0  0  0  0  0  0
   21.4256   -2.4530  -16.2759 C   0  0  1  0  0  0  0  0  0  0  0  0
   19.9966   -2.1589  -16.6593 C   0  0  0  0  0  0  0  0  0  0  0  0
   21.5292   -3.0870  -14.9089 C   0  0  2  0  0  0  0  0  0  0  0  0
   20.6925   -4.2394  -14.8125 N   0  0  0  0  0  0  0  0  0  0  0  0
   21.0022   -2.0687  -13.9345 C   0  0  0  0  0  0  0  0  0  0  0  0
   19.8444   -2.1453  -13.4499 O   0  0  0  0  0  0  0  0  0  0  0  0
   21.7777   -0.9907  -13.5243 O   0  0  0  0  0  0  0  0  0  0  0  0
  2  3  1  0
  2  1  1  6
  4  3  1  0
  5  2  1  0
  5  6  2  0
  7  8  1  0
  9  8  1  1
  9 10  1  0
 10  5  1  0
 11  9  1  0
 11 17  1  0
 12 11  2  0
 14 13  1  6
 14 15  1  0
 14 16  1  0
 16 17  1  6
 16 18  1  0
 18 19  2  0
 18 20  1  0
M  END
$$$$
