QTM.pdb
     RDKit          3D

 25 24  0  0  1  0  0  0  0  0999 V2000
   11.9712  -23.0296   23.7802 N   0  0  0  0  0  0  0  0  0  0  0  0
   10.9694  -23.6946   23.0220 C   0  0  0  0  0  0  0  0  0  0  0  0
   11.2035  -24.8740   22.6721 O   0  0  0  0  0  0  0  0  0  0  0  0
    9.6819  -22.9950   22.6613 C   0  0  0  0  0  0  0  0  0  0  0  0
    9.7091  -21.6792   23.3412 C   0  0  0  0  0  0  0  0  0  0  0  0
    8.8388  -20.6061   22.7317 C   0  0  2  0  0  0  0  0  0  0  0  0
    8.2670  -21.1740   21.4883 N   0  0  0  0  0  0  0  0  0  0  0  0
    9.5402  -19.3768   22.3611 C   0  0  0  0  0  0  0  0  0  0  0  0
   10.7586  -19.4301   22.0441 O   0  0  0  0  0  0  0  0  0  0  0  0
    8.9034  -17.3234   19.4916 C   0  0  0  0  0  0  0  0  0  0  0  0
    8.8862  -16.3845   20.6533 C   0  0  1  0  0  0  0  0  0  0  0  0
    7.5471  -16.3325   21.1075 O   0  0  0  0  0  0  0  0  0  0  0  0
    9.6841  -16.9021   21.8306 C   0  0  2  0  0  0  0  0  0  0  0  0
    8.9682  -18.0758   22.3172 N   0  0  0  0  0  0  0  0  0  0  0  0
    9.7702  -15.8483   22.8677 C   0  0  0  0  0  0  0  0  0  0  0  0
   10.4775  -14.8231   22.7588 O   0  0  0  0  0  0  0  0  0  0  0  0
    6.4118  -10.8835   26.2228 C   0  0  0  0  0  0  0  0  0  0  0  0
    6.2303  -12.6382   26.6837 S   0  0  0  0  0  0  0  0  0  0  0  0
    7.8549  -13.4428   26.5193 C   0  0  0  0  0  0  0  0  0  0  0  0
    7.9091  -14.3642   25.3492 C   0  0  0  0  0  0  0  0  0  0  0  0
    9.2268  -15.0713   25.1586 C   0  0  2  0  0  0  0  0  0  0  0  0
    9.0119  -16.0026   24.0523 N   0  0  0  0  0  0  0  0  0  0  0  0
    9.5884  -15.7661   26.3957 C   0  0  0  0  0  0  0  0  0  0  0  0
   10.1054  -15.0044   27.4456 O   0  0  0  0  0  0  0  0  0  0  0  0
    9.4301  -17.0084   26.4878 O   0  0  0  0  0  0  0  0  0  0  0  0
  1  2  1  0
  2  4  1  0
  3  2  2  0
  4  5  1  0
  6  8  1  0
  6  7  1  6
  6  5  1  0
  8  9  2  0
 11 10  1  6
 11 12  1  0
 11 13  1  0
 13 15  1  0
 13 14  1  1
 14  8  1  0
 15 22  1  0
 15 16  2  0
 17 18  1  0
 19 18  1  0
 20 19  1  0
 21 20  1  1
 21 23  1  0
 22 21  1  0
 23 25  2  0
 23 24  1  0
M  END
$$$$
