QTM.pdb
     RDKit          3D

 25 24  0  0  1  0  0  0  0  0999 V2000
   -0.1912  -22.2337   20.2806 N   0  0  0  0  0  0  0  0  0  0  0  0
    0.2126  -21.0193   20.8993 C   0  0  0  0  0  0  0  0  0  0  0  0
   -0.3136  -19.9616   20.4839 O   0  0  0  0  0  0  0  0  0  0  0  0
    1.2343  -21.0206   22.0098 C   0  0  0  0  0  0  0  0  0  0  0  0
    1.2813  -19.6400   22.5448 C   0  0  0  0  0  0  0  0  0  0  0  0
    2.3691  -18.7547   21.9851 C   0  0  2  0  0  0  0  0  0  0  0  0
    2.7639  -19.3351   20.6801 N   0  0  0  0  0  0  0  0  0  0  0  0
    3.5795  -18.6695   22.8026 C   0  0  0  0  0  0  0  0  0  0  0  0
    3.4840  -18.7178   24.0581 O   0  0  0  0  0  0  0  0  0  0  0  0
    6.7448  -20.7200   22.4990 C   0  0  0  0  0  0  0  0  0  0  0  0
    7.1452  -19.2822   22.5621 C   0  0  1  0  0  0  0  0  0  0  0  0
    7.2646  -18.8397   21.2234 O   0  0  0  0  0  0  0  0  0  0  0  0
    6.0733  -18.4068   23.1747 C   0  0  2  0  0  0  0  0  0  0  0  0
    4.9063  -18.5344   22.3094 N   0  0  0  0  0  0  0  0  0  0  0  0
    6.5558  -17.0079   23.2351 C   0  0  0  0  0  0  0  0  0  0  0  0
    6.5557  -16.2306   22.2560 O   0  0  0  0  0  0  0  0  0  0  0  0
    7.2051  -11.9740   28.4604 C   0  0  0  0  0  0  0  0  0  0  0  0
    6.2571  -12.1112   26.9089 S   0  0  0  0  0  0  0  0  0  0  0  0
    7.2841  -12.9873   25.6878 C   0  0  0  0  0  0  0  0  0  0  0  0
    6.8075  -14.3789   25.4485 C   0  0  0  0  0  0  0  0  0  0  0  0
    7.6614  -15.1893   24.5069 C   0  0  2  0  0  0  0  0  0  0  0  0
    7.0462  -16.5150   24.4674 N   0  0  0  0  0  0  0  0  0  0  0  0
    9.0334  -15.2382   25.0160 C   0  0  0  0  0  0  0  0  0  0  0  0
    9.8452  -14.1202   24.8145 O   0  0  0  0  0  0  0  0  0  0  0  0
    9.4461  -16.2635   25.6121 O   0  0  0  0  0  0  0  0  0  0  0  0
  1  2  1  0
  2  4  1  0
  3  2  2  0
  4  5  1  0
  6  8  1  0
  6  7  1  6
  6  5  1  0
  8  9  2  0
 11 10  1  6
 11 12  1  0
 11 13  1  0
 13 15  1  0
 13 14  1  6
 14  8  1  0
 15 22  1  0
 15 16  2  0
 17 18  1  0
 19 18  1  0
 20 19  1  0
 21 20  1  1
 21 23  1  0
 22 21  1  0
 23 25  2  0
 23 24  1  0
M  END
$$$$
