QTM.pdb
     RDKit          3D

 25 24  0  0  1  0  0  0  0  0999 V2000
   15.7799  -18.3076   18.5704 N   0  0  0  0  0  0  0  0  0  0  0  0
   14.4393  -17.8615   18.7267 C   0  0  0  0  0  0  0  0  0  0  0  0
   14.2662  -16.7407   19.2575 O   0  0  0  0  0  0  0  0  0  0  0  0
   13.2827  -18.7149   18.2670 C   0  0  0  0  0  0  0  0  0  0  0  0
   12.0494  -17.9419   18.5422 C   0  0  0  0  0  0  0  0  0  0  0  0
   11.3732  -18.2302   19.8613 C   0  0  2  0  0  0  0  0  0  0  0  0
   10.4317  -19.3495   19.6238 N   0  0  0  0  0  0  0  0  0  0  0  0
   10.5940  -17.1215   20.4127 C   0  0  0  0  0  0  0  0  0  0  0  0
   10.9976  -15.9390   20.2496 O   0  0  0  0  0  0  0  0  0  0  0  0
    6.9685  -16.3203   19.8383 C   0  0  0  0  0  0  0  0  0  0  0  0
    7.1973  -16.3224   21.3145 C   0  0  1  0  0  0  0  0  0  0  0  0
    6.8996  -17.6304   21.7648 O   0  0  0  0  0  0  0  0  0  0  0  0
    8.6495  -16.0992   21.6778 C   0  0  2  0  0  0  0  0  0  0  0  0
    9.3789  -17.2425   21.1411 N   0  0  0  0  0  0  0  0  0  0  0  0
    8.7803  -16.0126   23.1504 C   0  0  0  0  0  0  0  0  0  0  0  0
    9.5136  -16.7653   23.8278 O   0  0  0  0  0  0  0  0  0  0  0  0
    7.1026  -10.6432   26.4555 C   0  0  0  0  0  0  0  0  0  0  0  0
    6.4028  -11.9293   27.5421 S   0  0  0  0  0  0  0  0  0  0  0  0
    7.2235  -13.5085   27.1596 C   0  0  0  0  0  0  0  0  0  0  0  0
    7.2950  -13.7631   25.6930 C   0  0  0  0  0  0  0  0  0  0  0  0
    8.1139  -14.9651   25.2965 C   0  0  2  0  0  0  0  0  0  0  0  0
    8.0369  -15.0243   23.8378 N   0  0  0  0  0  0  0  0  0  0  0  0
    7.5519  -16.1634   25.9227 C   0  0  0  0  0  0  0  0  0  0  0  0
    8.0547  -16.5470   27.1676 O   0  0  0  0  0  0  0  0  0  0  0  0
    6.6467  -16.8106   25.3408 O   0  0  0  0  0  0  0  0  0  0  0  0
  1  2  1  0
  2  4  1  0
  3  2  2  0
  4  5  1  0
  6  8  1  0
  6  7  1  6
  6  5  1  0
  8  9  2  0
 11 10  1  6
 11 12  1  0
 11 13  1  0
 13 15  1  0
 13 14  1  1
 14  8  1  0
 15 22  1  0
 15 16  2  0
 17 18  1  0
 19 18  1  0
 20 19  1  0
 21 20  1  1
 21 23  1  0
 22 21  1  0
 23 25  2  0
 23 24  1  0
M  END
$$$$
