QTM.pdb
     RDKit          3D

 25 24  0  0  1  0  0  0  0  0999 V2000
    8.1586  -13.0380   18.1966 N   0  0  0  0  0  0  0  0  0  0  0  0
    8.1828  -13.7630   16.9742 C   0  0  0  0  0  0  0  0  0  0  0  0
    7.3639  -13.4232   16.0898 O   0  0  0  0  0  0  0  0  0  0  0  0
    9.1606  -14.8932   16.7656 C   0  0  0  0  0  0  0  0  0  0  0  0
   10.0430  -14.9158   17.9552 C   0  0  0  0  0  0  0  0  0  0  0  0
   10.1495  -16.2420   18.6697 C   0  0  2  0  0  0  0  0  0  0  0  0
    9.6265  -17.2715   17.7411 N   0  0  0  0  0  0  0  0  0  0  0  0
    9.3736  -16.3428   19.9060 C   0  0  0  0  0  0  0  0  0  0  0  0
    8.1819  -15.9338   19.9248 O   0  0  0  0  0  0  0  0  0  0  0  0
    8.5636  -19.4284   21.6843 C   0  0  0  0  0  0  0  0  0  0  0  0
    9.1173  -18.4985   22.7139 C   0  0  1  0  0  0  0  0  0  0  0  0
   10.5090  -18.7479   22.7728 O   0  0  0  0  0  0  0  0  0  0  0  0
    8.9918  -17.0449   22.3118 C   0  0  2  0  0  0  0  0  0  0  0  0
    9.8409  -16.8774   21.1379 N   0  0  0  0  0  0  0  0  0  0  0  0
    9.4362  -16.1845   23.4323 C   0  0  0  0  0  0  0  0  0  0  0  0
   10.6131  -15.7891   23.5796 O   0  0  0  0  0  0  0  0  0  0  0  0
    6.5372  -11.0787   26.1770 C   0  0  0  0  0  0  0  0  0  0  0  0
    6.5945  -12.2600   27.5647 S   0  0  0  0  0  0  0  0  0  0  0  0
    7.9490  -13.4367   27.2575 C   0  0  0  0  0  0  0  0  0  0  0  0
    7.7620  -14.1878   25.9840 C   0  0  0  0  0  0  0  0  0  0  0  0
    8.9304  -15.0494   25.5777 C   0  0  2  0  0  0  0  0  0  0  0  0
    8.4808  -15.7821   24.3952 N   0  0  0  0  0  0  0  0  0  0  0  0
    9.2764  -15.9493   26.6798 C   0  0  0  0  0  0  0  0  0  0  0  0
    8.8690  -17.2816   26.5877 O   0  0  0  0  0  0  0  0  0  0  0  0
    9.9198  -15.5152   27.6669 O   0  0  0  0  0  0  0  0  0  0  0  0
  1  2  1  0
  2  4  1  0
  3  2  2  0
  4  5  1  0
  6  8  1  0
  6  7  1  6
  6  5  1  0
  8  9  2  0
 11 10  1  6
 11 12  1  0
 11 13  1  0
 13 15  1  0
 13 14  1  6
 14  8  1  0
 15 22  1  0
 15 16  2  0
 17 18  1  0
 19 18  1  0
 20 19  1  0
 21 20  1  1
 21 23  1  0
 22 21  1  0
 23 25  2  0
 23 24  1  0
M  END
$$$$
