QTM.pdb
     RDKit          3D

 25 24  0  0  1  0  0  0  0  0999 V2000
    7.7383  -22.8662   19.1778 N   0  0  0  0  0  0  0  0  0  0  0  0
    7.7500  -21.7092   18.3519 C   0  0  0  0  0  0  0  0  0  0  0  0
    8.1016  -21.8596   17.1595 O   0  0  0  0  0  0  0  0  0  0  0  0
    7.3526  -20.3621   18.9037 C   0  0  0  0  0  0  0  0  0  0  0  0
    8.6048  -19.6860   19.3151 C   0  0  0  0  0  0  0  0  0  0  0  0
    8.6468  -19.1910   20.7412 C   0  0  2  0  0  0  0  0  0  0  0  0
    7.2720  -19.3187   21.2790 N   0  0  0  0  0  0  0  0  0  0  0  0
    9.0428  -17.7914   20.8990 C   0  0  0  0  0  0  0  0  0  0  0  0
   10.1653  -17.4127   20.4696 O   0  0  0  0  0  0  0  0  0  0  0  0
    7.2780  -14.7623   19.5903 C   0  0  0  0  0  0  0  0  0  0  0  0
    7.5059  -14.5677   21.0537 C   0  0  1  0  0  0  0  0  0  0  0  0
    6.3705  -15.0981   21.7107 O   0  0  0  0  0  0  0  0  0  0  0  0
    8.6766  -15.3748   21.5719 C   0  0  2  0  0  0  0  0  0  0  0  0
    8.2618  -16.7716   21.5089 N   0  0  0  0  0  0  0  0  0  0  0  0
    8.9838  -14.9603   22.9601 C   0  0  0  0  0  0  0  0  0  0  0  0
    9.1944  -13.7759   23.3006 O   0  0  0  0  0  0  0  0  0  0  0  0
    6.5376  -11.0921   27.2367 C   0  0  0  0  0  0  0  0  0  0  0  0
    6.2894  -12.8265   26.7318 S   0  0  0  0  0  0  0  0  0  0  0  0
    7.8435  -13.4385   26.0081 C   0  0  0  0  0  0  0  0  0  0  0  0
    7.7573  -14.8768   25.6274 C   0  0  0  0  0  0  0  0  0  0  0  0
    9.0833  -15.5452   25.3674 C   0  0  2  0  0  0  0  0  0  0  0  0
    9.0439  -15.9550   23.9646 N   0  0  0  0  0  0  0  0  0  0  0  0
    9.2346  -16.6902   26.2675 C   0  0  0  0  0  0  0  0  0  0  0  0
    9.9803  -16.5101   27.4341 O   0  0  0  0  0  0  0  0  0  0  0  0
    8.7019  -17.7903   25.9795 O   0  0  0  0  0  0  0  0  0  0  0  0
  1  2  1  0
  2  4  1  0
  3  2  2  0
  4  5  1  0
  6  8  1  0
  6  7  1  6
  6  5  1  0
  8  9  2  0
 11 10  1  6
 11 12  1  0
 11 13  1  0
 13 15  1  0
 13 14  1  1
 14  8  1  0
 15 22  1  0
 15 16  2  0
 17 18  1  0
 19 18  1  0
 20 19  1  0
 21 20  1  1
 21 23  1  0
 22 21  1  0
 23 25  2  0
 23 24  1  0
M  END
$$$$
