QTM.pdb
     RDKit          3D

 25 24  0  0  1  0  0  0  0  0999 V2000
   17.6857  -14.4367   19.6898 N   0  0  0  0  0  0  0  0  0  0  0  0
   16.4574  -14.2674   18.9947 C   0  0  0  0  0  0  0  0  0  0  0  0
   16.2276  -13.1388   18.5033 O   0  0  0  0  0  0  0  0  0  0  0  0
   15.4806  -15.4100   18.8629 C   0  0  0  0  0  0  0  0  0  0  0  0
   14.4318  -15.1918   19.8860 C   0  0  0  0  0  0  0  0  0  0  0  0
   13.0241  -15.5475   19.4708 C   0  0  2  0  0  0  0  0  0  0  0  0
   12.5897  -14.5137   18.5022 N   0  0  0  0  0  0  0  0  0  0  0  0
   12.0433  -15.5600   20.5564 C   0  0  0  0  0  0  0  0  0  0  0  0
   11.5793  -14.4697   20.9850 O   0  0  0  0  0  0  0  0  0  0  0  0
    8.5819  -17.9782   23.1062 C   0  0  0  0  0  0  0  0  0  0  0  0
    9.6610  -17.8840   22.0775 C   0  0  1  0  0  0  0  0  0  0  0  0
    9.0149  -17.6738   20.8363 O   0  0  0  0  0  0  0  0  0  0  0  0
   10.5465  -16.6725   22.2736 C   0  0  2  0  0  0  0  0  0  0  0  0
   11.5364  -16.7202   21.2037 N   0  0  0  0  0  0  0  0  0  0  0  0
   11.1842  -16.7402   23.6086 C   0  0  0  0  0  0  0  0  0  0  0  0
   12.2239  -17.3914   23.8492 O   0  0  0  0  0  0  0  0  0  0  0  0
    8.8757  -12.9229   28.3431 C   0  0  0  0  0  0  0  0  0  0  0  0
   10.4965  -13.3885   29.0365 S   0  0  0  0  0  0  0  0  0  0  0  0
   11.0515  -14.9155   28.2156 C   0  0  0  0  0  0  0  0  0  0  0  0
   10.7114  -14.9282   26.7647 C   0  0  0  0  0  0  0  0  0  0  0  0
   11.1576  -16.1600   26.0189 C   0  0  2  0  0  0  0  0  0  0  0  0
   10.5895  -16.0300   24.6781 N   0  0  0  0  0  0  0  0  0  0  0  0
   10.6617  -17.3520   26.7096 C   0  0  0  0  0  0  0  0  0  0  0  0
    9.4004  -17.8349   26.3556 O   0  0  0  0  0  0  0  0  0  0  0  0
   11.3654  -17.9065   27.5895 O   0  0  0  0  0  0  0  0  0  0  0  0
  1  2  1  0
  2  4  1  0
  3  2  2  0
  4  5  1  0
  6  8  1  0
  6  7  1  6
  6  5  1  0
  8  9  2  0
 11 10  1  1
 11 12  1  0
 11 13  1  0
 13 15  1  0
 13 14  1  6
 14  8  1  0
 15 22  1  0
 15 16  2  0
 17 18  1  0
 19 18  1  0
 20 19  1  0
 21 20  1  1
 21 23  1  0
 22 21  1  0
 23 25  2  0
 23 24  1  0
M  END
$$$$
