QTM.pdb
     RDKit          3D

 25 24  0  0  1  0  0  0  0  0999 V2000
   15.3853  -13.8737   19.5781 N   0  0  0  0  0  0  0  0  0  0  0  0
   15.1946  -14.3278   18.2446 C   0  0  0  0  0  0  0  0  0  0  0  0
   16.1857  -14.2933   17.4800 O   0  0  0  0  0  0  0  0  0  0  0  0
   13.8474  -14.8279   17.7841 C   0  0  0  0  0  0  0  0  0  0  0  0
   13.1643  -15.3703   18.9813 C   0  0  0  0  0  0  0  0  0  0  0  0
   11.8056  -15.9843   18.7414 C   0  0  2  0  0  0  0  0  0  0  0  0
   11.4298  -15.6595   17.3453 N   0  0  0  0  0  0  0  0  0  0  0  0
   10.7372  -15.4790   19.6038 C   0  0  0  0  0  0  0  0  0  0  0  0
   10.3766  -14.2758   19.5035 O   0  0  0  0  0  0  0  0  0  0  0  0
    7.2912  -16.7909   19.8149 C   0  0  0  0  0  0  0  0  0  0  0  0
    7.7922  -16.6910   21.2187 C   0  0  1  0  0  0  0  0  0  0  0  0
    8.3610  -17.9481   21.5322 O   0  0  0  0  0  0  0  0  0  0  0  0
    8.9243  -15.6969   21.3623 C   0  0  2  0  0  0  0  0  0  0  0  0
   10.0329  -16.2339   20.5815 N   0  0  0  0  0  0  0  0  0  0  0  0
    9.2815  -15.5617   22.7932 C   0  0  0  0  0  0  0  0  0  0  0  0
   10.3103  -16.0575   23.3019 O   0  0  0  0  0  0  0  0  0  0  0  0
    5.3287  -12.0876   26.4777 C   0  0  0  0  0  0  0  0  0  0  0  0
    6.7313  -12.1573   27.6406 S   0  0  0  0  0  0  0  0  0  0  0  0
    7.8773  -13.4540   27.0760 C   0  0  0  0  0  0  0  0  0  0  0  0
    7.7404  -13.7279   25.6175 C   0  0  0  0  0  0  0  0  0  0  0  0
    8.7616  -14.6820   25.0522 C   0  0  2  0  0  0  0  0  0  0  0  0
    8.4146  -14.8310   23.6399 N   0  0  0  0  0  0  0  0  0  0  0  0
    8.6865  -15.9554   25.7710 C   0  0  0  0  0  0  0  0  0  0  0  0
    9.4707  -16.1064   26.9164 O   0  0  0  0  0  0  0  0  0  0  0  0
    7.9337  -16.8694   25.3528 O   0  0  0  0  0  0  0  0  0  0  0  0
  1  2  1  0
  2  4  1  0
  3  2  2  0
  4  5  1  0
  6  8  1  0
  6  7  1  6
  6  5  1  0
  8  9  2  0
 11 10  1  6
 11 12  1  0
 11 13  1  0
 13 15  1  0
 13 14  1  6
 14  8  1  0
 15 22  1  0
 15 16  2  0
 17 18  1  0
 19 18  1  0
 20 19  1  0
 21 20  1  1
 21 23  1  0
 22 21  1  0
 23 25  2  0
 23 24  1  0
M  END
$$$$
