FFY.pdb
     RDKit          3D

 35 37  0  0  1  0  0  0  0  0999 V2000
   26.3285  -19.6918  -19.3005 N   0  0  0  0  0  0  0  0  0  0  0  0
   26.3583  -18.8410  -18.1300 C   0  0  1  0  0  0  0  0  0  0  0  0
   25.3851  -17.7061  -18.3613 C   0  0  0  0  0  0  0  0  0  0  0  0
   26.0676  -16.6918  -19.2041 C   0  0  0  0  0  0  0  0  0  0  0  0
   26.9979  -15.8395  -18.6492 C   0  0  0  0  0  0  0  0  0  0  0  0
   27.6293  -14.8949  -19.4473 C   0  0  0  0  0  0  0  0  0  0  0  0
   27.3199  -14.8141  -20.8013 C   0  0  0  0  0  0  0  0  0  0  0  0
   26.3928  -15.6596  -21.3666 C   0  0  0  0  0  0  0  0  0  0  0  0
   25.7789  -16.5867  -20.5625 C   0  0  0  0  0  0  0  0  0  0  0  0
   25.9438  -19.5902  -16.9210 C   0  0  0  0  0  0  0  0  0  0  0  0
   25.0899  -20.4867  -16.9799 O   0  0  0  0  0  0  0  0  0  0  0  0
   26.5444  -19.2676  -15.6653 N   0  0  0  0  0  0  0  0  0  0  0  0
   26.1423  -19.9573  -14.4280 C   0  0  1  0  0  0  0  0  0  0  0  0
   27.1178  -19.6645  -13.3281 C   0  0  0  0  0  0  0  0  0  0  0  0
   26.7232  -20.2340  -12.0426 C   0  0  0  0  0  0  0  0  0  0  0  0
   26.1337  -19.3840  -11.1036 C   0  0  0  0  0  0  0  0  0  0  0  0
   25.7317  -19.8797   -9.8848 C   0  0  0  0  0  0  0  0  0  0  0  0
   25.9044  -21.2122   -9.5775 C   0  0  0  0  0  0  0  0  0  0  0  0
   26.4843  -22.0437  -10.5041 C   0  0  0  0  0  0  0  0  0  0  0  0
   26.8860  -21.5455  -11.7240 C   0  0  0  0  0  0  0  0  0  0  0  0
   24.8081  -19.4552  -14.0569 C   0  0  0  0  0  0  0  0  0  0  0  0
   24.5256  -18.2302  -14.0125 O   0  0  0  0  0  0  0  0  0  0  0  0
   16.7040  -17.1991  -13.2973 O   0  0  0  0  0  0  0  0  0  0  0  0
   17.9923  -17.6456  -13.5561 C   0  0  0  0  0  0  0  0  0  0  0  0
   19.0529  -16.8290  -13.2241 C   0  0  0  0  0  0  0  0  0  0  0  0
   20.3337  -17.2536  -13.4724 C   0  0  0  0  0  0  0  0  0  0  0  0
   20.5913  -18.4875  -14.0509 C   0  0  0  0  0  0  0  0  0  0  0  0
   21.9525  -18.9447  -14.3231 C   0  0  0  0  0  0  0  0  0  0  0  0
   22.5138  -19.8523  -13.2493 C   0  0  2  0  0  0  0  0  0  0  0  0
   23.7798  -20.3713  -13.7311 N   0  0  0  0  0  0  0  0  0  0  0  0
   21.6484  -20.9848  -12.9075 C   0  0  0  0  0  0  0  0  0  0  0  0
   21.7652  -22.1755  -13.5887 O   0  0  0  0  0  0  0  0  0  0  0  0
   19.5183  -19.2864  -14.3743 C   0  0  0  0  0  0  0  0  0  0  0  0
   18.2053  -18.8801  -14.1330 C   0  0  0  0  0  0  0  0  0  0  0  0
   20.7964  -20.8881  -11.9982 O   0  0  0  0  0  0  0  0  0  0  0  0
  2  1  1  6
  2  3  1  0
  3  4  1  0
  4  9  1  0
  4  5  2  0
  5  6  1  0
  6  7  2  0
  8  7  1  0
  9  8  2  0
 10 12  1  0
 10  2  1  0
 11 10  2  0
 13 12  1  0
 13 21  1  0
 13 14  1  1
 15 20  1  0
 15 14  1  0
 16 15  2  0
 17 18  2  0
 17 16  1  0
 18 19  1  0
 19 20  2  0
 21 22  2  0
 23 24  1  0
 24 25  2  0
 24 34  1  0
 25 26  1  0
 26 27  2  0
 27 28  1  0
 29 31  1  0
 29 28  1  6
 30 21  1  0
 30 29  1  0
 31 32  1  0
 33 27  1  0
 34 33  2  0
 35 31  2  0
M  END
$$$$
