FFY.pdb
     RDKit          3D

 35 37  0  0  1  0  0  0  0  0999 V2000
   28.2801  -21.8806  -13.2998 N   0  0  0  0  0  0  0  0  0  0  0  0
   27.6165  -20.6921  -12.8077 C   0  0  1  0  0  0  0  0  0  0  0  0
   26.6146  -20.2578  -13.8546 C   0  0  0  0  0  0  0  0  0  0  0  0
   27.2409  -19.1765  -14.6568 C   0  0  0  0  0  0  0  0  0  0  0  0
   27.9135  -19.4763  -15.8219 C   0  0  0  0  0  0  0  0  0  0  0  0
   28.4953  -18.4568  -16.5634 C   0  0  0  0  0  0  0  0  0  0  0  0
   28.3962  -17.1396  -16.1268 C   0  0  0  0  0  0  0  0  0  0  0  0
   27.7272  -16.8280  -14.9652 C   0  0  0  0  0  0  0  0  0  0  0  0
   27.1586  -17.8485  -14.2455 C   0  0  0  0  0  0  0  0  0  0  0  0
   26.8982  -20.9731  -11.5428 C   0  0  0  0  0  0  0  0  0  0  0  0
   26.2719  -22.0299  -11.3787 O   0  0  0  0  0  0  0  0  0  0  0  0
   26.9323  -20.0018  -10.4954 N   0  0  0  0  0  0  0  0  0  0  0  0
   26.0506  -20.1148   -9.3215 C   0  0  1  0  0  0  0  0  0  0  0  0
   26.4171  -19.0867   -8.2940 C   0  0  0  0  0  0  0  0  0  0  0  0
   27.2261  -19.6256   -7.2042 C   0  0  0  0  0  0  0  0  0  0  0  0
   27.7297  -18.7295   -6.2581 C   0  0  0  0  0  0  0  0  0  0  0  0
   28.4840  -19.1936   -5.2053 C   0  0  0  0  0  0  0  0  0  0  0  0
   28.7502  -20.5394   -5.0721 C   0  0  0  0  0  0  0  0  0  0  0  0
   28.2527  -21.4162   -6.0048 C   0  0  0  0  0  0  0  0  0  0  0  0
   27.4975  -20.9496   -7.0582 C   0  0  0  0  0  0  0  0  0  0  0  0
   24.6703  -19.8873   -9.7831 C   0  0  0  0  0  0  0  0  0  0  0  0
   24.3766  -19.0546  -10.6790 O   0  0  0  0  0  0  0  0  0  0  0  0
   17.9991  -22.2361  -14.3455 O   0  0  0  0  0  0  0  0  0  0  0  0
   19.1474  -22.0188  -13.5970 C   0  0  0  0  0  0  0  0  0  0  0  0
   19.1817  -20.9393  -12.7394 C   0  0  0  0  0  0  0  0  0  0  0  0
   20.3085  -20.7086  -11.9913 C   0  0  0  0  0  0  0  0  0  0  0  0
   21.4186  -21.5356  -12.0751 C   0  0  0  0  0  0  0  0  0  0  0  0
   22.6243  -21.2936  -11.2853 C   0  0  0  0  0  0  0  0  0  0  0  0
   22.3469  -20.6972   -9.9218 C   0  0  2  0  0  0  0  0  0  0  0  0
   23.6083  -20.6257   -9.2091 N   0  0  0  0  0  0  0  0  0  0  0  0
   21.3993  -21.4673   -9.1110 C   0  0  0  0  0  0  0  0  0  0  0  0
   21.8005  -22.6329   -8.4979 O   0  0  0  0  0  0  0  0  0  0  0  0
   21.3631  -22.6069  -12.9372 C   0  0  0  0  0  0  0  0  0  0  0  0
   20.2302  -22.8655  -13.7100 C   0  0  0  0  0  0  0  0  0  0  0  0
   20.2198  -21.0804   -8.9643 O   0  0  0  0  0  0  0  0  0  0  0  0
  2  1  1  6
  2  3  1  0
  3  4  1  0
  4  9  1  0
  4  5  2  0
  5  6  1  0
  6  7  2  0
  8  7  1  0
  9  8  2  0
 10 12  1  0
 10  2  1  0
 11 10  2  0
 13 12  1  0
 13 21  1  0
 13 14  1  1
 15 20  1  0
 15 14  1  0
 16 15  2  0
 17 18  2  0
 17 16  1  0
 18 19  1  0
 19 20  2  0
 21 22  2  0
 23 24  1  0
 24 25  2  0
 24 34  1  0
 25 26  1  0
 26 27  2  0
 27 28  1  0
 29 31  1  0
 29 28  1  6
 30 21  1  0
 30 29  1  0
 31 32  1  0
 33 27  1  0
 34 33  2  0
 35 31  2  0
M  END
$$$$
