FFY.pdb
     RDKit          3D

 35 37  0  0  1  0  0  0  0  0999 V2000
   27.7729  -21.7600  -14.1675 N   0  0  0  0  0  0  0  0  0  0  0  0
   27.7022  -20.6427  -13.2502 C   0  0  1  0  0  0  0  0  0  0  0  0
   26.5768  -19.7417  -13.7085 C   0  0  0  0  0  0  0  0  0  0  0  0
   27.1056  -18.8761  -14.7931 C   0  0  0  0  0  0  0  0  0  0  0  0
   26.7919  -19.1411  -16.1088 C   0  0  0  0  0  0  0  0  0  0  0  0
   27.2924  -18.3248  -17.1142 C   0  0  0  0  0  0  0  0  0  0  0  0
   28.1069  -17.2451  -16.7885 C   0  0  0  0  0  0  0  0  0  0  0  0
   28.4269  -16.9705  -15.4784 C   0  0  0  0  0  0  0  0  0  0  0  0
   27.9232  -17.7880  -14.4982 C   0  0  0  0  0  0  0  0  0  0  0  0
   27.4153  -21.1068  -11.8728 C   0  0  0  0  0  0  0  0  0  0  0  0
   26.6931  -22.0919  -11.6622 O   0  0  0  0  0  0  0  0  0  0  0  0
   27.9857  -20.3999  -10.7698 N   0  0  0  0  0  0  0  0  0  0  0  0
   27.6692  -20.7709   -9.3804 C   0  0  1  0  0  0  0  0  0  0  0  0
   28.6958  -20.2081   -8.4444 C   0  0  0  0  0  0  0  0  0  0  0  0
   28.2938  -20.2746   -7.0421 C   0  0  0  0  0  0  0  0  0  0  0  0
   27.6524  -19.1622   -6.4917 C   0  0  0  0  0  0  0  0  0  0  0  0
   27.2416  -19.1855   -5.1789 C   0  0  0  0  0  0  0  0  0  0  0  0
   27.4565  -20.2993   -4.3959 C   0  0  0  0  0  0  0  0  0  0  0  0
   28.0873  -21.3903   -4.9417 C   0  0  0  0  0  0  0  0  0  0  0  0
   28.4977  -21.3652   -6.2566 C   0  0  0  0  0  0  0  0  0  0  0  0
   26.3452  -20.2078   -9.0643 C   0  0  0  0  0  0  0  0  0  0  0  0
   26.0892  -18.9784   -9.1367 O   0  0  0  0  0  0  0  0  0  0  0  0
   21.4791  -23.2099  -13.5838 O   0  0  0  0  0  0  0  0  0  0  0  0
   22.0030  -22.3665  -12.6140 C   0  0  0  0  0  0  0  0  0  0  0  0
   21.1345  -21.7424  -11.7433 C   0  0  0  0  0  0  0  0  0  0  0  0
   21.6340  -20.9052  -10.7779 C   0  0  0  0  0  0  0  0  0  0  0  0
   22.9950  -20.6687  -10.6540 C   0  0  0  0  0  0  0  0  0  0  0  0
   23.5343  -19.7743   -9.6316 C   0  0  0  0  0  0  0  0  0  0  0  0
   23.9946  -20.4911   -8.3802 C   0  0  2  0  0  0  0  0  0  0  0  0
   25.2967  -21.0670   -8.6580 N   0  0  0  0  0  0  0  0  0  0  0  0
   23.0983  -21.5632   -7.9380 C   0  0  0  0  0  0  0  0  0  0  0  0
   21.7740  -21.2940   -7.6754 O   0  0  0  0  0  0  0  0  0  0  0  0
   23.8437  -21.3015  -11.5334 C   0  0  0  0  0  0  0  0  0  0  0  0
   23.3634  -22.1582  -12.5247 C   0  0  0  0  0  0  0  0  0  0  0  0
   23.5194  -22.7312   -7.7935 O   0  0  0  0  0  0  0  0  0  0  0  0
  2  1  1  6
  2  3  1  0
  3  4  1  0
  4  9  1  0
  4  5  2  0
  5  6  1  0
  6  7  2  0
  8  7  1  0
  9  8  2  0
 10 12  1  0
 10  2  1  0
 11 10  2  0
 13 12  1  0
 13 21  1  0
 13 14  1  1
 15 20  1  0
 15 14  1  0
 16 15  2  0
 17 18  2  0
 17 16  1  0
 18 19  1  0
 19 20  2  0
 21 22  2  0
 23 24  1  0
 24 25  2  0
 24 34  1  0
 25 26  1  0
 26 27  2  0
 27 28  1  0
 29 31  1  0
 29 28  1  6
 30 21  1  0
 30 29  1  0
 31 32  1  0
 33 27  1  0
 34 33  2  0
 35 31  2  0
M  END
$$$$
