FFY.pdb
     RDKit          3D

 35 37  0  0  1  0  0  0  0  0999 V2000
   19.9710   -2.4999  -18.9446 N   0  0  0  0  0  0  0  0  0  0  0  0
   20.6826   -2.3798  -17.6900 C   0  0  1  0  0  0  0  0  0  0  0  0
   20.1551   -1.1542  -16.9773 C   0  0  0  0  0  0  0  0  0  0  0  0
   20.5963    0.0382  -17.7444 C   0  0  0  0  0  0  0  0  0  0  0  0
   19.7394    0.6467  -18.6362 C   0  0  0  0  0  0  0  0  0  0  0  0
   20.1633    1.7609  -19.3480 C   0  0  0  0  0  0  0  0  0  0  0  0
   21.4492    2.2565  -19.1573 C   0  0  0  0  0  0  0  0  0  0  0  0
   22.3137    1.6574  -18.2697 C   0  0  0  0  0  0  0  0  0  0  0  0
   21.8774    0.5573  -17.5752 C   0  0  0  0  0  0  0  0  0  0  0  0
   20.4526   -3.5683  -16.8358 C   0  0  0  0  0  0  0  0  0  0  0  0
   19.3987   -4.2169  -16.9048 O   0  0  0  0  0  0  0  0  0  0  0  0
   21.4703   -3.9691  -15.9165 N   0  0  0  0  0  0  0  0  0  0  0  0
   21.3280   -5.1902  -15.1061 C   0  0  1  0  0  0  0  0  0  0  0  0
   22.6764   -5.7531  -14.7713 C   0  0  0  0  0  0  0  0  0  0  0  0
   22.6084   -6.9662  -13.9613 C   0  0  0  0  0  0  0  0  0  0  0  0
   22.5522   -6.8237  -12.5727 C   0  0  0  0  0  0  0  0  0  0  0  0
   22.4715   -7.9382  -11.7702 C   0  0  0  0  0  0  0  0  0  0  0  0
   22.4453   -9.2007  -12.3228 C   0  0  0  0  0  0  0  0  0  0  0  0
   22.5006   -9.3354  -13.6884 C   0  0  0  0  0  0  0  0  0  0  0  0
   22.5812   -8.2182  -14.4904 C   0  0  0  0  0  0  0  0  0  0  0  0
   20.6224   -4.8180  -13.8678 C   0  0  0  0  0  0  0  0  0  0  0  0
   20.6875   -3.6681  -13.3620 O   0  0  0  0  0  0  0  0  0  0  0  0
   14.1012   -3.2443   -8.6160 O   0  0  0  0  0  0  0  0  0  0  0  0
   15.0460   -3.5665   -9.5802 C   0  0  0  0  0  0  0  0  0  0  0  0
   15.4181   -2.5983  -10.4889 C   0  0  0  0  0  0  0  0  0  0  0  0
   16.3508   -2.8984  -11.4493 C   0  0  0  0  0  0  0  0  0  0  0  0
   16.9319   -4.1551  -11.5308 C   0  0  0  0  0  0  0  0  0  0  0  0
   17.9224   -4.4839  -12.5540 C   0  0  0  0  0  0  0  0  0  0  0  0
   19.0506   -5.3572  -12.0478 C   0  0  2  0  0  0  0  0  0  0  0  0
   19.8289   -5.7788  -13.1970 N   0  0  0  0  0  0  0  0  0  0  0  0
   18.6069   -6.5524  -11.3246 C   0  0  0  0  0  0  0  0  0  0  0  0
   18.3981   -7.7331  -12.0012 O   0  0  0  0  0  0  0  0  0  0  0  0
   16.5460   -5.1063  -10.6142 C   0  0  0  0  0  0  0  0  0  0  0  0
   15.5998   -4.8288   -9.6268 C   0  0  0  0  0  0  0  0  0  0  0  0
   18.4124   -6.5187  -10.0904 O   0  0  0  0  0  0  0  0  0  0  0  0
  2  1  1  6
  2  3  1  0
  3  4  1  0
  4  9  1  0
  4  5  2  0
  5  6  1  0
  6  7  2  0
  8  7  1  0
  9  8  2  0
 10 12  1  0
 10  2  1  0
 11 10  2  0
 13 12  1  0
 13 21  1  0
 13 14  1  1
 15 20  1  0
 15 14  1  0
 16 15  2  0
 17 18  2  0
 17 16  1  0
 18 19  1  0
 19 20  2  0
 21 22  2  0
 23 24  1  0
 24 25  2  0
 24 34  1  0
 25 26  1  0
 26 27  2  0
 27 28  1  0
 29 31  1  0
 29 28  1  6
 30 21  1  0
 30 29  1  0
 31 32  1  0
 33 27  1  0
 34 33  2  0
 35 31  2  0
M  END
$$$$
