FFY.pdb
     RDKit          3D

 35 37  0  0  1  0  0  0  0  0999 V2000
   25.9608  -11.0193  -18.8288 N   0  0  0  0  0  0  0  0  0  0  0  0
   25.1783  -10.5509  -17.7049 C   0  0  1  0  0  0  0  0  0  0  0  0
   26.1298   -9.9173  -16.7141 C   0  0  0  0  0  0  0  0  0  0  0  0
   27.0338  -10.9833  -16.2124 C   0  0  0  0  0  0  0  0  0  0  0  0
   26.6006  -11.8625  -15.2434 C   0  0  0  0  0  0  0  0  0  0  0  0
   27.4550  -12.8550  -14.7821 C   0  0  0  0  0  0  0  0  0  0  0  0
   28.7423  -12.9563  -15.2998 C   0  0  0  0  0  0  0  0  0  0  0  0
   29.1860  -12.0842  -16.2676 C   0  0  0  0  0  0  0  0  0  0  0  0
   28.3278  -11.1099  -16.7114 C   0  0  0  0  0  0  0  0  0  0  0  0
   24.1883   -9.5365  -18.1360 C   0  0  0  0  0  0  0  0  0  0  0  0
   24.2022   -9.0701  -19.2843 O   0  0  0  0  0  0  0  0  0  0  0  0
   23.2007   -9.0914  -17.2043 N   0  0  0  0  0  0  0  0  0  0  0  0
   22.1087   -8.1955  -17.6202 C   0  0  1  0  0  0  0  0  0  0  0  0
   21.3107   -8.8242  -18.7225 C   0  0  0  0  0  0  0  0  0  0  0  0
   20.1779   -8.0079  -19.1503 C   0  0  0  0  0  0  0  0  0  0  0  0
   20.4038   -6.6507  -19.3928 C   0  0  0  0  0  0  0  0  0  0  0  0
   19.3697   -5.8463  -19.8126 C   0  0  0  0  0  0  0  0  0  0  0  0
   18.1067   -6.3661  -19.9979 C   0  0  0  0  0  0  0  0  0  0  0  0
   17.8898   -7.7009  -19.7583 C   0  0  0  0  0  0  0  0  0  0  0  0
   18.9266   -8.5050  -19.3381 C   0  0  0  0  0  0  0  0  0  0  0  0
   21.2476   -7.9750  -16.4456 C   0  0  0  0  0  0  0  0  0  0  0  0
   21.0651   -8.8467  -15.5572 O   0  0  0  0  0  0  0  0  0  0  0  0
   17.7561   -5.2916   -9.2028 O   0  0  0  0  0  0  0  0  0  0  0  0
   18.4438   -5.6462  -10.3550 C   0  0  0  0  0  0  0  0  0  0  0  0
   18.8366   -4.6486  -11.2224 C   0  0  0  0  0  0  0  0  0  0  0  0
   19.5174   -4.9800  -12.3665 C   0  0  0  0  0  0  0  0  0  0  0  0
   19.8225   -6.2973  -12.6752 C   0  0  0  0  0  0  0  0  0  0  0  0
   20.5429   -6.6588  -13.8944 C   0  0  0  0  0  0  0  0  0  0  0  0
   19.7003   -6.5620  -15.1483 C   0  0  2  0  0  0  0  0  0  0  0  0
   20.5841   -6.7353  -16.2854 N   0  0  0  0  0  0  0  0  0  0  0  0
   18.9939   -5.2867  -15.3003 C   0  0  0  0  0  0  0  0  0  0  0  0
   19.5617   -4.2630  -16.0248 O   0  0  0  0  0  0  0  0  0  0  0  0
   19.4210   -7.2769  -11.7958 C   0  0  0  0  0  0  0  0  0  0  0  0
   18.7273   -6.9686  -10.6249 C   0  0  0  0  0  0  0  0  0  0  0  0
   17.8722   -5.1098  -14.7778 O   0  0  0  0  0  0  0  0  0  0  0  0
  2  1  1  6
  2  3  1  0
  3  4  1  0
  4  9  1  0
  4  5  2  0
  5  6  1  0
  6  7  2  0
  8  7  1  0
  9  8  2  0
 10 12  1  0
 10  2  1  0
 11 10  2  0
 13 12  1  0
 13 21  1  0
 13 14  1  6
 15 20  1  0
 15 14  1  0
 16 15  2  0
 17 18  2  0
 17 16  1  0
 18 19  1  0
 19 20  2  0
 21 22  2  0
 23 24  1  0
 24 25  2  0
 24 34  1  0
 25 26  1  0
 26 27  2  0
 27 28  1  0
 29 31  1  0
 29 28  1  1
 30 21  1  0
 30 29  1  0
 31 32  1  0
 33 27  1  0
 34 33  2  0
 35 31  2  0
M  END
$$$$
