FFY.pdb
     RDKit          3D

 35 37  0  0  1  0  0  0  0  0999 V2000
   27.6892  -21.4389  -18.7087 N   0  0  0  0  0  0  0  0  0  0  0  0
   27.3002  -20.3372  -17.8543 C   0  0  1  0  0  0  0  0  0  0  0  0
   26.2678  -19.5199  -18.5990 C   0  0  0  0  0  0  0  0  0  0  0  0
   26.9681  -18.7937  -19.6886 C   0  0  0  0  0  0  0  0  0  0  0  0
   27.7327  -17.6828  -19.4037 C   0  0  0  0  0  0  0  0  0  0  0  0
   28.3826  -17.0119  -20.4310 C   0  0  0  0  0  0  0  0  0  0  0  0
   28.2588  -17.4642  -21.7407 C   0  0  0  0  0  0  0  0  0  0  0  0
   27.4983  -18.5721  -22.0375 C   0  0  0  0  0  0  0  0  0  0  0  0
   26.8632  -19.2224  -21.0095 C   0  0  0  0  0  0  0  0  0  0  0  0
   26.7018  -20.8323  -16.5926 C   0  0  0  0  0  0  0  0  0  0  0  0
   25.9517  -21.8188  -16.5790 O   0  0  0  0  0  0  0  0  0  0  0  0
   26.9998  -20.1540  -15.3708 N   0  0  0  0  0  0  0  0  0  0  0  0
   26.3798  -20.5646  -14.0999 C   0  0  1  0  0  0  0  0  0  0  0  0
   27.1950  -20.0753  -12.9409 C   0  0  0  0  0  0  0  0  0  0  0  0
   26.5966  -20.3850  -11.6453 C   0  0  0  0  0  0  0  0  0  0  0  0
   26.9270  -21.6030  -11.0462 C   0  0  0  0  0  0  0  0  0  0  0  0
   26.3995  -21.9304   -9.8185 C   0  0  0  0  0  0  0  0  0  0  0  0
   25.5443  -21.0662   -9.1690 C   0  0  0  0  0  0  0  0  0  0  0  0
   25.2228  -19.8700   -9.7620 C   0  0  0  0  0  0  0  0  0  0  0  0
   25.7521  -19.5439  -10.9914 C   0  0  0  0  0  0  0  0  0  0  0  0
   25.0352  -19.9650  -14.0512 C   0  0  0  0  0  0  0  0  0  0  0  0
   24.8304  -18.7313  -14.1862 O   0  0  0  0  0  0  0  0  0  0  0  0
   17.0342  -17.6343  -15.6085 O   0  0  0  0  0  0  0  0  0  0  0  0
   18.3274  -18.1234  -15.4875 C   0  0  0  0  0  0  0  0  0  0  0  0
   19.3449  -17.2358  -15.2066 C   0  0  0  0  0  0  0  0  0  0  0  0
   20.6298  -17.7009  -15.0832 C   0  0  0  0  0  0  0  0  0  0  0  0
   20.9338  -19.0457  -15.2342 C   0  0  0  0  0  0  0  0  0  0  0  0
   22.3005  -19.5480  -15.1093 C   0  0  0  0  0  0  0  0  0  0  0  0
   22.5965  -20.1729  -13.7625 C   0  0  2  0  0  0  0  0  0  0  0  0
   23.9057  -20.7922  -13.8443 N   0  0  0  0  0  0  0  0  0  0  0  0
   21.6273  -21.1908  -13.3468 C   0  0  0  0  0  0  0  0  0  0  0  0
   20.5247  -20.8341  -12.6036 O   0  0  0  0  0  0  0  0  0  0  0  0
   19.9033  -19.9139  -15.5143 C   0  0  0  0  0  0  0  0  0  0  0  0
   18.5873  -19.4686  -15.6452 C   0  0  0  0  0  0  0  0  0  0  0  0
   21.7856  -22.3909  -13.6583 O   0  0  0  0  0  0  0  0  0  0  0  0
  2  1  1  6
  2  3  1  0
  3  4  1  0
  4  9  1  0
  4  5  2  0
  5  6  1  0
  6  7  2  0
  8  7  1  0
  9  8  2  0
 10 12  1  0
 10  2  1  0
 11 10  2  0
 13 12  1  0
 13 21  1  0
 13 14  1  1
 15 20  1  0
 15 14  1  0
 16 15  2  0
 17 18  2  0
 17 16  1  0
 18 19  1  0
 19 20  2  0
 21 22  2  0
 23 24  1  0
 24 25  2  0
 24 34  1  0
 25 26  1  0
 26 27  2  0
 27 28  1  0
 29 31  1  0
 29 28  1  6
 30 21  1  0
 30 29  1  0
 31 32  1  0
 33 27  1  0
 34 33  2  0
 35 31  2  0
M  END
$$$$
