FFY.pdb
     RDKit          3D

 35 37  0  0  1  0  0  0  0  0999 V2000
   27.1788  -15.6512  -24.9133 N   0  0  0  0  0  0  0  0  0  0  0  0
   25.9270  -16.0922  -25.4908 C   0  0  1  0  0  0  0  0  0  0  0  0
   26.0939  -17.5386  -25.9013 C   0  0  0  0  0  0  0  0  0  0  0  0
   26.9562  -17.5675  -27.1099 C   0  0  0  0  0  0  0  0  0  0  0  0
   28.2702  -17.9730  -27.0164 C   0  0  0  0  0  0  0  0  0  0  0  0
   29.0668  -17.9957  -28.1533 C   0  0  0  0  0  0  0  0  0  0  0  0
   28.5349  -17.6094  -29.3794 C   0  0  0  0  0  0  0  0  0  0  0  0
   27.2244  -17.2027  -29.4852 C   0  0  0  0  0  0  0  0  0  0  0  0
   26.4522  -17.1867  -28.3510 C   0  0  0  0  0  0  0  0  0  0  0  0
   24.8267  -15.9972  -24.5033 C   0  0  0  0  0  0  0  0  0  0  0  0
   24.9938  -16.3230  -23.3192 O   0  0  0  0  0  0  0  0  0  0  0  0
   23.5499  -15.5196  -24.9314 N   0  0  0  0  0  0  0  0  0  0  0  0
   22.4225  -15.4085  -23.9907 C   0  0  1  0  0  0  0  0  0  0  0  0
   21.8915  -14.0068  -23.9775 C   0  0  0  0  0  0  0  0  0  0  0  0
   21.4812  -13.5345  -25.2970 C   0  0  0  0  0  0  0  0  0  0  0  0
   22.4510  -12.9455  -26.1120 C   0  0  0  0  0  0  0  0  0  0  0  0
   22.1138  -12.5000  -27.3692 C   0  0  0  0  0  0  0  0  0  0  0  0
   20.8236  -12.6286  -27.8368 C   0  0  0  0  0  0  0  0  0  0  0  0
   19.8740  -13.2086  -27.0318 C   0  0  0  0  0  0  0  0  0  0  0  0
   20.2135  -13.6542  -25.7733 C   0  0  0  0  0  0  0  0  0  0  0  0
   21.3726  -16.3343  -24.4494 C   0  0  0  0  0  0  0  0  0  0  0  0
   21.1448  -16.5629  -25.6652 O   0  0  0  0  0  0  0  0  0  0  0  0
   16.5578  -22.8460  -26.7059 O   0  0  0  0  0  0  0  0  0  0  0  0
   17.4508  -21.8896  -26.2432 C   0  0  0  0  0  0  0  0  0  0  0  0
   17.3483  -20.6023  -26.7270 C   0  0  0  0  0  0  0  0  0  0  0  0
   18.2223  -19.6433  -26.2811 C   0  0  0  0  0  0  0  0  0  0  0  0
   19.2105  -19.9355  -25.3528 C   0  0  0  0  0  0  0  0  0  0  0  0
   20.1485  -18.9207  -24.8768 C   0  0  0  0  0  0  0  0  0  0  0  0
   19.5133  -17.8816  -23.9776 C   0  0  2  0  0  0  0  0  0  0  0  0
   20.5697  -17.0099  -23.4998 N   0  0  0  0  0  0  0  0  0  0  0  0
   18.8120  -18.4391  -22.8175 C   0  0  0  0  0  0  0  0  0  0  0  0
   17.7254  -19.2651  -22.9968 O   0  0  0  0  0  0  0  0  0  0  0  0
   19.2951  -21.2264  -24.8834 C   0  0  0  0  0  0  0  0  0  0  0  0
   18.4194  -22.2217  -25.3193 C   0  0  0  0  0  0  0  0  0  0  0  0
   19.1871  -18.1751  -21.6548 O   0  0  0  0  0  0  0  0  0  0  0  0
  2  1  1  1
  2  3  1  0
  3  4  1  0
  4  9  1  0
  4  5  2  0
  5  6  1  0
  6  7  2  0
  8  7  1  0
  9  8  2  0
 10 12  1  0
 10  2  1  0
 11 10  2  0
 13 12  1  0
 13 21  1  0
 13 14  1  6
 15 20  1  0
 15 14  1  0
 16 15  2  0
 17 18  2  0
 17 16  1  0
 18 19  1  0
 19 20  2  0
 21 22  2  0
 23 24  1  0
 24 25  2  0
 24 34  1  0
 25 26  1  0
 26 27  2  0
 27 28  1  0
 29 31  1  0
 29 28  1  1
 30 21  1  0
 30 29  1  0
 31 32  1  0
 33 27  1  0
 34 33  2  0
 35 31  2  0
M  END
$$$$
