FFY.pdb
     RDKit          3D

 35 37  0  0  1  0  0  0  0  0999 V2000
   14.5345  -12.7949    7.7550 N   0  0  0  0  0  0  0  0  0  0  0  0
   15.6681  -12.8899    6.8601 C   0  0  1  0  0  0  0  0  0  0  0  0
   16.8838  -12.3798    7.6019 C   0  0  0  0  0  0  0  0  0  0  0  0
   17.9954  -12.2696    6.6235 C   0  0  0  0  0  0  0  0  0  0  0  0
   19.1478  -13.0059    6.7954 C   0  0  0  0  0  0  0  0  0  0  0  0
   20.1805  -12.8943    5.8741 C   0  0  0  0  0  0  0  0  0  0  0  0
   20.0466  -12.0407    4.7837 C   0  0  0  0  0  0  0  0  0  0  0  0
   18.9008  -11.3005    4.6016 C   0  0  0  0  0  0  0  0  0  0  0  0
   17.8908  -11.4237    5.5222 C   0  0  0  0  0  0  0  0  0  0  0  0
   15.9065  -14.2952    6.4563 C   0  0  0  0  0  0  0  0  0  0  0  0
   15.8304  -15.2226    7.2750 O   0  0  0  0  0  0  0  0  0  0  0  0
   16.2304  -14.5799    5.0940 N   0  0  0  0  0  0  0  0  0  0  0  0
   16.4274  -15.9634    4.6301 C   0  0  1  0  0  0  0  0  0  0  0  0
   16.4779  -16.0083    3.1326 C   0  0  0  0  0  0  0  0  0  0  0  0
   16.5977  -17.3633    2.6014 C   0  0  0  0  0  0  0  0  0  0  0  0
   17.8478  -17.7740    2.1319 C   0  0  0  0  0  0  0  0  0  0  0  0
   18.0117  -19.0471    1.6370 C   0  0  0  0  0  0  0  0  0  0  0  0
   16.9515  -19.9271    1.5987 C   0  0  0  0  0  0  0  0  0  0  0  0
   15.7247  -19.5187    2.0616 C   0  0  0  0  0  0  0  0  0  0  0  0
   15.5626  -18.2434    2.5569 C   0  0  0  0  0  0  0  0  0  0  0  0
   17.7068  -16.4369    5.1858 C   0  0  0  0  0  0  0  0  0  0  0  0
   18.7755  -15.7790    5.1005 O   0  0  0  0  0  0  0  0  0  0  0  0
   23.6257  -18.5148   10.8730 O   0  0  0  0  0  0  0  0  0  0  0  0
   22.5609  -18.1505   10.0608 C   0  0  0  0  0  0  0  0  0  0  0  0
   22.7280  -18.1982    8.6927 C   0  0  0  0  0  0  0  0  0  0  0  0
   21.6864  -17.8419    7.8738 C   0  0  0  0  0  0  0  0  0  0  0  0
   20.4647  -17.4332    8.3876 C   0  0  0  0  0  0  0  0  0  0  0  0
   19.3522  -17.0472    7.5219 C   0  0  0  0  0  0  0  0  0  0  0  0
   19.0112  -18.0845    6.4733 C   0  0  2  0  0  0  0  0  0  0  0  0
   17.7636  -17.6851    5.8504 N   0  0  0  0  0  0  0  0  0  0  0  0
   18.8518  -19.4424    7.0015 C   0  0  0  0  0  0  0  0  0  0  0  0
   19.9151  -20.3169    6.9951 O   0  0  0  0  0  0  0  0  0  0  0  0
   20.3197  -17.3928    9.7556 C   0  0  0  0  0  0  0  0  0  0  0  0
   21.3620  -17.7497   10.6121 C   0  0  0  0  0  0  0  0  0  0  0  0
   17.7551  -19.8254    7.4629 O   0  0  0  0  0  0  0  0  0  0  0  0
  2  1  1  1
  2  3  1  0
  3  4  1  0
  4  9  1  0
  4  5  2  0
  5  6  1  0
  6  7  2  0
  8  7  1  0
  9  8  2  0
 10 12  1  0
 10  2  1  0
 11 10  2  0
 13 12  1  0
 13 21  1  0
 13 14  1  6
 15 20  1  0
 15 14  1  0
 16 15  2  0
 17 18  2  0
 17 16  1  0
 18 19  1  0
 19 20  2  0
 21 22  2  0
 23 24  1  0
 24 25  2  0
 24 34  1  0
 25 26  1  0
 26 27  2  0
 27 28  1  0
 29 31  1  0
 29 28  1  1
 30 21  1  0
 30 29  1  0
 31 32  1  0
 33 27  1  0
 34 33  2  0
 35 31  2  0
M  END
$$$$
