MIC.pdb
     RDKit          3D

 23 22  0  0  1  0  0  0  0  0999 V2000
   10.8739  -14.3586   28.4895 C   0  0  0  0  0  0  0  0  0  0  0  0
   11.3252  -16.0848   28.4301 S   0  0  0  0  0  0  0  0  0  0  0  0
   10.0584  -17.2467   28.0268 C   0  0  0  0  0  0  0  0  0  0  0  0
    8.6815  -17.0341   28.4944 C   0  0  0  0  0  0  0  0  0  0  0  0
    7.5872  -17.6614   27.7182 C   0  0  2  0  0  0  0  0  0  0  0  0
    7.6885  -19.0832   27.5625 N   0  0  0  0  0  0  0  0  0  0  0  0
    7.4131  -16.9888   26.3855 C   0  0  0  0  0  0  0  0  0  0  0  0
    7.1104  -17.6367   25.3567 O   0  0  0  0  0  0  0  0  0  0  0  0
    5.7848  -11.9069   26.3520 C   0  0  0  0  0  0  0  0  0  0  0  0
    5.9469  -13.2203   25.6499 C   0  0  0  0  0  0  0  0  0  0  0  0
    7.3144  -13.4945   25.1104 C   0  0  2  0  0  0  0  0  0  0  0  0
    7.4518  -12.7217   23.8166 C   0  0  0  0  0  0  0  0  0  0  0  0
    7.5806  -14.9553   24.9398 C   0  0  2  0  0  0  0  0  0  0  0  0
    7.5880  -15.6113   26.2611 N   0  0  0  0  0  0  0  0  0  0  0  0
    8.8954  -15.3044   24.3587 C   0  0  0  0  0  0  0  0  0  0  0  0
    9.9734  -14.8803   24.9269 O   0  0  0  0  0  0  0  0  0  0  0  0
    9.1401  -16.0846   23.2073 N   0  0  0  0  0  0  0  0  0  0  0  0
   10.4690  -16.2817   22.6515 C   0  0  1  0  0  0  0  0  0  0  0  0
   10.5946  -17.7688   22.2906 C   0  0  0  0  0  0  0  0  0  0  0  0
   10.3381  -18.8143   23.7461 S   0  0  0  0  0  0  0  0  0  0  0  0
   10.6975  -15.5264   21.4199 C   0  0  0  0  0  0  0  0  0  0  0  0
   11.9666  -15.4049   20.9042 O   0  0  0  0  0  0  0  0  0  0  0  0
    9.7463  -14.9870   20.8269 O   0  0  0  0  0  0  0  0  0  0  0  0
  2  1  1  0
  3  2  1  0
  4  3  1  0
  5  4  1  0
  5  6  1  6
  7 14  1  0
  7  5  1  0
  8  7  2  0
  9 10  1  0
 11 13  1  0
 11 10  1  0
 11 12  1  6
 13 14  1  1
 15 13  1  0
 16 15  2  0
 17 15  1  0
 18 21  1  0
 18 17  1  0
 18 19  1  6
 20 19  1  0
 21 22  1  0
 23 21  2  0
M  END
$$$$
