MIC.pdb
     RDKit          3D

 23 22  0  0  1  0  0  0  0  0999 V2000
    7.9664  -11.0266   27.6066 C   0  0  0  0  0  0  0  0  0  0  0  0
    6.2084  -11.3250   27.5208 S   0  0  0  0  0  0  0  0  0  0  0  0
    5.6687  -12.7990   26.7123 C   0  0  0  0  0  0  0  0  0  0  0  0
    6.6488  -13.7251   26.1279 C   0  0  0  0  0  0  0  0  0  0  0  0
    6.1299  -14.8948   25.3823 C   0  0  2  0  0  0  0  0  0  0  0  0
    5.1818  -15.6999   26.0956 N   0  0  0  0  0  0  0  0  0  0  0  0
    7.2527  -15.7388   24.8478 C   0  0  0  0  0  0  0  0  0  0  0  0
    7.5179  -16.8635   25.3322 O   0  0  0  0  0  0  0  0  0  0  0  0
    8.4774  -15.3514   19.5739 C   0  0  0  0  0  0  0  0  0  0  0  0
    8.2702  -15.7830   20.9934 C   0  0  0  0  0  0  0  0  0  0  0  0
    9.4731  -15.6824   21.8762 C   0  0  2  0  0  0  0  0  0  0  0  0
   10.5617  -16.5287   21.2529 C   0  0  0  0  0  0  0  0  0  0  0  0
    9.1803  -16.0702   23.2897 C   0  0  2  0  0  0  0  0  0  0  0  0
    8.0362  -15.2837   23.7883 N   0  0  0  0  0  0  0  0  0  0  0  0
   10.2569  -15.7961   24.2664 C   0  0  0  0  0  0  0  0  0  0  0  0
   11.1742  -14.9366   23.9756 O   0  0  0  0  0  0  0  0  0  0  0  0
   10.4198  -16.3773   25.5431 N   0  0  0  0  0  0  0  0  0  0  0  0
   11.5820  -16.1338   26.3820 C   0  0  1  0  0  0  0  0  0  0  0  0
   11.0700  -15.5686   27.7146 C   0  0  0  0  0  0  0  0  0  0  0  0
    9.7833  -14.3249   27.4412 S   0  0  0  0  0  0  0  0  0  0  0  0
   12.3311  -17.3498   26.6978 C   0  0  0  0  0  0  0  0  0  0  0  0
   13.4403  -17.2922   27.5088 O   0  0  0  0  0  0  0  0  0  0  0  0
   11.9721  -18.4477   26.2362 O   0  0  0  0  0  0  0  0  0  0  0  0
  2  1  1  0
  3  2  1  0
  4  3  1  0
  5  4  1  0
  5  6  1  1
  7 14  1  0
  7  5  1  0
  8  7  2  0
  9 10  1  0
 11 13  1  0
 11 10  1  0
 11 12  1  6
 13 14  1  1
 15 13  1  0
 16 15  2  0
 17 15  1  0
 18 21  1  0
 18 17  1  0
 18 19  1  1
 20 19  1  0
 21 22  1  0
 23 21  2  0
M  END
$$$$
