MIC.pdb
     RDKit          3D

 23 22  0  0  1  0  0  0  0  0999 V2000
    8.2765  -20.1278   29.4134 C   0  0  0  0  0  0  0  0  0  0  0  0
    7.9099  -21.2289   28.0569 S   0  0  0  0  0  0  0  0  0  0  0  0
    6.9478  -20.5882   26.7221 C   0  0  0  0  0  0  0  0  0  0  0  0
    6.5609  -19.1706   26.7011 C   0  0  0  0  0  0  0  0  0  0  0  0
    5.7855  -18.6868   25.5356 C   0  0  2  0  0  0  0  0  0  0  0  0
    5.3984  -19.7006   24.5984 N   0  0  0  0  0  0  0  0  0  0  0  0
    6.4974  -17.5603   24.8406 C   0  0  0  0  0  0  0  0  0  0  0  0
    6.8147  -17.6303   23.6305 O   0  0  0  0  0  0  0  0  0  0  0  0
    5.5366  -12.6100   26.5938 C   0  0  0  0  0  0  0  0  0  0  0  0
    5.9548  -13.6031   25.5530 C   0  0  0  0  0  0  0  0  0  0  0  0
    7.3837  -14.0389   25.6200 C   0  0  2  0  0  0  0  0  0  0  0  0
    8.2266  -12.9050   25.0777 C   0  0  0  0  0  0  0  0  0  0  0  0
    7.6235  -15.3285   24.9035 C   0  0  2  0  0  0  0  0  0  0  0  0
    6.8269  -16.3973   25.5352 N   0  0  0  0  0  0  0  0  0  0  0  0
    9.0106  -15.8400   24.9497 C   0  0  0  0  0  0  0  0  0  0  0  0
    9.5415  -16.1332   26.0886 O   0  0  0  0  0  0  0  0  0  0  0  0
    9.8744  -16.0661   23.8556 N   0  0  0  0  0  0  0  0  0  0  0  0
   11.2162  -16.6057   24.0037 C   0  0  1  0  0  0  0  0  0  0  0  0
   11.3861  -17.6994   22.9395 C   0  0  0  0  0  0  0  0  0  0  0  0
   10.0885  -18.9534   23.0838 S   0  0  0  0  0  0  0  0  0  0  0  0
   12.2663  -15.6159   23.7649 C   0  0  0  0  0  0  0  0  0  0  0  0
   13.5854  -15.9338   23.9888 O   0  0  0  0  0  0  0  0  0  0  0  0
   11.9764  -14.4771   23.3568 O   0  0  0  0  0  0  0  0  0  0  0  0
  2  1  1  0
  3  2  1  0
  4  3  1  0
  5  4  1  0
  5  6  1  6
  7 14  1  0
  7  5  1  0
  8  7  2  0
  9 10  1  0
 11 13  1  0
 11 10  1  0
 11 12  1  6
 13 14  1  1
 15 13  1  0
 16 15  2  0
 17 15  1  0
 18 21  1  0
 18 17  1  0
 18 19  1  6
 20 19  1  0
 21 22  1  0
 23 21  2  0
M  END
$$$$
