MIC.pdb
     RDKit          3D

 23 22  0  0  1  0  0  0  0  0999 V2000
   10.5672  -16.0856   30.4934 C   0  0  0  0  0  0  0  0  0  0  0  0
   10.2991  -17.8499   30.4450 S   0  0  0  0  0  0  0  0  0  0  0  0
    9.0427  -18.4555   29.3622 C   0  0  0  0  0  0  0  0  0  0  0  0
    8.6086  -17.6544   28.2092 C   0  0  0  0  0  0  0  0  0  0  0  0
    7.4432  -18.1394   27.4346 C   0  0  2  0  0  0  0  0  0  0  0  0
    7.4667  -19.5357   27.1092 N   0  0  0  0  0  0  0  0  0  0  0  0
    7.2268  -17.3070   26.2021 C   0  0  0  0  0  0  0  0  0  0  0  0
    6.8935  -17.8233   25.1102 O   0  0  0  0  0  0  0  0  0  0  0  0
    6.2586  -11.3926   24.5935 C   0  0  0  0  0  0  0  0  0  0  0  0
    6.6465  -12.8016   24.2638 C   0  0  0  0  0  0  0  0  0  0  0  0
    6.8413  -13.7049   25.4395 C   0  0  2  0  0  0  0  0  0  0  0  0
    7.8699  -13.0565   26.3404 C   0  0  0  0  0  0  0  0  0  0  0  0
    7.2209  -15.0937   25.0383 C   0  0  2  0  0  0  0  0  0  0  0  0
    7.3954  -15.9238   26.2452 N   0  0  0  0  0  0  0  0  0  0  0  0
    8.5088  -15.2256   24.3229 C   0  0  0  0  0  0  0  0  0  0  0  0
    9.6100  -14.9731   24.9463 O   0  0  0  0  0  0  0  0  0  0  0  0
    8.7036  -15.6159   22.9798 N   0  0  0  0  0  0  0  0  0  0  0  0
   10.0202  -15.7783   22.3849 C   0  0  1  0  0  0  0  0  0  0  0  0
   10.0127  -17.1107   21.6218 C   0  0  0  0  0  0  0  0  0  0  0  0
    9.5624  -18.4823   22.7141 S   0  0  0  0  0  0  0  0  0  0  0  0
   10.3472  -14.7355   21.4127 C   0  0  0  0  0  0  0  0  0  0  0  0
   11.6214  -14.6326   20.9056 O   0  0  0  0  0  0  0  0  0  0  0  0
    9.4760  -13.9320   21.0350 O   0  0  0  0  0  0  0  0  0  0  0  0
  2  1  1  0
  3  2  1  0
  4  3  1  0
  5  4  1  0
  5  6  1  6
  7 14  1  0
  7  5  1  0
  8  7  2  0
  9 10  1  0
 11 13  1  0
 11 10  1  0
 11 12  1  1
 13 14  1  1
 15 13  1  0
 16 15  2  0
 17 15  1  0
 18 21  1  0
 18 17  1  0
 18 19  1  6
 20 19  1  0
 21 22  1  0
 23 21  2  0
M  END
$$$$
