QNC.pdb
     RDKit          3D

 24 23  0  0  1  0  0  0  0  0999 V2000
    8.2444  -15.4736   16.2049 N   0  0  0  0  0  0  0  0  0  0  0  0
    8.1092  -14.1010   15.9052 C   0  0  0  0  0  0  0  0  0  0  0  0
    8.3573  -13.6980   14.7545 O   0  0  0  0  0  0  0  0  0  0  0  0
    7.6779  -13.1564   16.9484 C   0  0  0  0  0  0  0  0  0  0  0  0
    7.3420  -13.9096   18.1925 C   0  0  0  0  0  0  0  0  0  0  0  0
    8.1985  -13.4800   19.3746 C   0  0  2  0  0  0  0  0  0  0  0  0
    9.5864  -13.3583   18.9843 N   0  0  0  0  0  0  0  0  0  0  0  0
    8.0780  -14.5230   20.3965 C   0  0  0  0  0  0  0  0  0  0  0  0
    6.9577  -14.7833   20.8859 O   0  0  0  0  0  0  0  0  0  0  0  0
    8.2978  -18.6812   20.4382 N   0  0  0  0  0  0  0  0  0  0  0  0
    9.6491  -18.2684   20.6045 C   0  0  0  0  0  0  0  0  0  0  0  0
   10.5183  -18.6417   19.7797 O   0  0  0  0  0  0  0  0  0  0  0  0
   10.0743  -17.4011   21.7318 C   0  0  0  0  0  0  0  0  0  0  0  0
    9.0696  -16.2564   21.9170 C   0  0  2  0  0  0  0  0  0  0  0  0
    9.2198  -15.2733   20.8676 N   0  0  0  0  0  0  0  0  0  0  0  0
    9.3505  -15.6734   23.2579 C   0  0  0  0  0  0  0  0  0  0  0  0
   10.4881  -15.2299   23.5567 O   0  0  0  0  0  0  0  0  0  0  0  0
    8.3653  -15.5820   24.2722 N   0  0  0  0  0  0  0  0  0  0  0  0
    8.5536  -15.1022   25.5948 C   0  0  1  0  0  0  0  0  0  0  0  0
    7.3952  -14.3598   26.1809 C   0  0  0  0  0  0  0  0  0  0  0  0
    6.7214  -13.1153   25.0625 S   0  0  0  0  0  0  0  0  0  0  0  0
    8.9550  -16.1577   26.5470 C   0  0  0  0  0  0  0  0  0  0  0  0
    9.3286  -15.8367   27.8344 O   0  0  0  0  0  0  0  0  0  0  0  0
    8.9596  -17.3555   26.1931 O   0  0  0  0  0  0  0  0  0  0  0  0
  2  1  1  0
  2  3  2  0
  4  2  1  0
  5  4  1  0
  6  5  1  0
  6  7  1  6
  8  6  1  0
  8  9  2  0
 10 11  1  0
 11 13  1  0
 11 12  2  0
 14 13  1  6
 14 15  1  0
 14 16  1  0
 15  8  1  0
 16 17  2  0
 16 18  1  0
 18 19  1  0
 19 22  1  0
 19 20  1  1
 21 20  1  0
 22 24  2  0
 22 23  1  0
M  END
$$$$
