QNC.pdb
     RDKit          3D

 24 23  0  0  1  0  0  0  0  0999 V2000
    7.5798  -14.6921   15.0702 N   0  0  0  0  0  0  0  0  0  0  0  0
    8.3578  -13.7614   15.7919 C   0  0  0  0  0  0  0  0  0  0  0  0
    8.7514  -12.7244   15.2283 O   0  0  0  0  0  0  0  0  0  0  0  0
    8.6989  -14.0190   17.2004 C   0  0  0  0  0  0  0  0  0  0  0  0
    8.1023  -15.3192   17.6264 C   0  0  0  0  0  0  0  0  0  0  0  0
    8.5126  -15.7053   19.0400 C   0  0  2  0  0  0  0  0  0  0  0  0
    8.5181  -14.5465   19.9064 N   0  0  0  0  0  0  0  0  0  0  0  0
    9.8700  -16.2512   18.9614 C   0  0  0  0  0  0  0  0  0  0  0  0
   10.4497  -16.3113   17.8557 O   0  0  0  0  0  0  0  0  0  0  0  0
   13.6674  -16.1871   18.7713 N   0  0  0  0  0  0  0  0  0  0  0  0
   13.0248  -14.9243   18.8998 C   0  0  0  0  0  0  0  0  0  0  0  0
   13.3938  -13.9639   18.1812 O   0  0  0  0  0  0  0  0  0  0  0  0
   11.9195  -14.6980   19.8647 C   0  0  0  0  0  0  0  0  0  0  0  0
   11.6736  -15.9715   20.6843 C   0  0  2  0  0  0  0  0  0  0  0  0
   10.5749  -16.7295   20.1287 N   0  0  0  0  0  0  0  0  0  0  0  0
   11.3804  -15.5191   22.0721 C   0  0  0  0  0  0  0  0  0  0  0  0
   12.2360  -14.9045   22.7578 O   0  0  0  0  0  0  0  0  0  0  0  0
   10.1325  -15.7496   22.7026 N   0  0  0  0  0  0  0  0  0  0  0  0
    9.7798  -15.4051   24.0337 C   0  0  1  0  0  0  0  0  0  0  0  0
    8.4642  -14.7117   24.1918 C   0  0  0  0  0  0  0  0  0  0  0  0
    7.9928  -13.7609   22.7333 S   0  0  0  0  0  0  0  0  0  0  0  0
    9.8107  -16.5540   24.9617 C   0  0  0  0  0  0  0  0  0  0  0  0
   10.0614  -17.8266   24.4952 O   0  0  0  0  0  0  0  0  0  0  0  0
    9.6091  -16.3822   26.1822 O   0  0  0  0  0  0  0  0  0  0  0  0
  2  1  1  0
  2  3  2  0
  4  2  1  0
  5  4  1  0
  6  5  1  0
  6  7  1  1
  8  6  1  0
  8  9  2  0
 10 11  1  0
 11 13  1  0
 11 12  2  0
 14 13  1  6
 14 15  1  0
 14 16  1  0
 15  8  1  0
 16 17  2  0
 16 18  1  0
 18 19  1  0
 19 22  1  0
 19 20  1  6
 21 20  1  0
 22 24  2  0
 22 23  1  0
M  END
$$$$
