QNC.pdb
     RDKit          3D

 24 23  0  0  1  0  0  0  0  0999 V2000
    7.5606  -12.2477   17.8379 N   0  0  0  0  0  0  0  0  0  0  0  0
    7.7072  -13.5704   17.3674 C   0  0  0  0  0  0  0  0  0  0  0  0
    7.5132  -13.8172   16.1634 O   0  0  0  0  0  0  0  0  0  0  0  0
    8.0867  -14.6469   18.2967 C   0  0  0  0  0  0  0  0  0  0  0  0
    8.1425  -14.1064   19.6869 C   0  0  0  0  0  0  0  0  0  0  0  0
    9.1421  -14.8554   20.5561 C   0  0  2  0  0  0  0  0  0  0  0  0
    9.4140  -16.1673   20.0098 N   0  0  0  0  0  0  0  0  0  0  0  0
    8.5349  -15.0048   21.8812 C   0  0  0  0  0  0  0  0  0  0  0  0
    8.1250  -13.9939   22.4915 O   0  0  0  0  0  0  0  0  0  0  0  0
    6.3176  -16.7618   26.1511 N   0  0  0  0  0  0  0  0  0  0  0  0
    6.6882  -17.9292   25.4274 C   0  0  0  0  0  0  0  0  0  0  0  0
    6.3808  -19.0608   25.8748 O   0  0  0  0  0  0  0  0  0  0  0  0
    7.4345  -17.8574   24.1460 C   0  0  0  0  0  0  0  0  0  0  0  0
    7.7919  -16.3988   23.8316 C   0  0  2  0  0  0  0  0  0  0  0  0
    8.3892  -16.2932   22.5192 N   0  0  0  0  0  0  0  0  0  0  0  0
    8.7351  -15.9656   24.8990 C   0  0  0  0  0  0  0  0  0  0  0  0
    9.9490  -16.2914   24.8756 O   0  0  0  0  0  0  0  0  0  0  0  0
    8.3304  -15.1674   25.9976 N   0  0  0  0  0  0  0  0  0  0  0  0
    9.1737  -14.6007   26.9888 C   0  0  1  0  0  0  0  0  0  0  0  0
    8.6164  -13.4115   27.7044 C   0  0  0  0  0  0  0  0  0  0  0  0
    7.6147  -12.3571   26.6377 S   0  0  0  0  0  0  0  0  0  0  0  0
    9.6248  -15.5785   28.0000 C   0  0  0  0  0  0  0  0  0  0  0  0
   10.4936  -15.2022   29.0018 O   0  0  0  0  0  0  0  0  0  0  0  0
    9.2216  -16.7598   27.9564 O   0  0  0  0  0  0  0  0  0  0  0  0
  2  1  1  0
  2  3  2  0
  4  2  1  0
  5  4  1  0
  6  5  1  0
  6  7  1  6
  8  6  1  0
  8  9  2  0
 10 11  1  0
 11 13  1  0
 11 12  2  0
 14 13  1  1
 14 15  1  0
 14 16  1  0
 15  8  1  0
 16 17  2  0
 16 18  1  0
 18 19  1  0
 19 22  1  0
 19 20  1  1
 21 20  1  0
 22 24  2  0
 22 23  1  0
M  END
$$$$
