QNC.pdb
     RDKit          3D

 24 23  0  0  1  0  0  0  0  0999 V2000
    8.9790  -13.6898   16.3691 N   0  0  0  0  0  0  0  0  0  0  0  0
    8.0988  -14.4836   17.1354 C   0  0  0  0  0  0  0  0  0  0  0  0
    8.0145  -15.7031   16.9036 O   0  0  0  0  0  0  0  0  0  0  0  0
    7.2883  -13.8700   18.2000 C   0  0  0  0  0  0  0  0  0  0  0  0
    8.1863  -13.1858   19.1763 C   0  0  0  0  0  0  0  0  0  0  0  0
    9.0597  -14.1689   19.9420 C   0  0  2  0  0  0  0  0  0  0  0  0
    9.2156  -15.4013   19.2001 N   0  0  0  0  0  0  0  0  0  0  0  0
    8.3799  -14.4547   21.2081 C   0  0  0  0  0  0  0  0  0  0  0  0
    7.4161  -13.7444   21.5670 O   0  0  0  0  0  0  0  0  0  0  0  0
    5.3412  -17.7522   23.3038 N   0  0  0  0  0  0  0  0  0  0  0  0
    6.6370  -17.7037   22.7185 C   0  0  0  0  0  0  0  0  0  0  0  0
    6.7849  -18.0128   21.5112 O   0  0  0  0  0  0  0  0  0  0  0  0
    7.8359  -17.2956   23.4931 C   0  0  0  0  0  0  0  0  0  0  0  0
    8.0878  -15.7930   23.3112 C   0  0  2  0  0  0  0  0  0  0  0  0
    8.7858  -15.5410   22.0705 N   0  0  0  0  0  0  0  0  0  0  0  0
    8.8914  -15.3636   24.4887 C   0  0  0  0  0  0  0  0  0  0  0  0
   10.1036  -15.6749   24.6061 O   0  0  0  0  0  0  0  0  0  0  0  0
    8.3481  -14.5855   25.5410 N   0  0  0  0  0  0  0  0  0  0  0  0
    9.0081  -14.2005   26.7372 C   0  0  1  0  0  0  0  0  0  0  0  0
    8.3765  -13.0700   27.4853 C   0  0  0  0  0  0  0  0  0  0  0  0
    6.5875  -12.9972   27.2668 S   0  0  0  0  0  0  0  0  0  0  0  0
    9.2109  -15.3208   27.6785 C   0  0  0  0  0  0  0  0  0  0  0  0
   10.0575  -15.1863   28.7579 O   0  0  0  0  0  0  0  0  0  0  0  0
    8.6149  -16.4044   27.5043 O   0  0  0  0  0  0  0  0  0  0  0  0
  2  1  1  0
  2  3  2  0
  4  2  1  0
  5  4  1  0
  6  5  1  0
  6  7  1  6
  8  6  1  0
  8  9  2  0
 10 11  1  0
 11 13  1  0
 11 12  2  0
 14 13  1  1
 14 15  1  0
 14 16  1  0
 15  8  1  0
 16 17  2  0
 16 18  1  0
 18 19  1  0
 19 22  1  0
 19 20  1  1
 21 20  1  0
 22 24  2  0
 22 23  1  0
M  END
$$$$
