QNC.pdb
     RDKit          3D

 24 23  0  0  1  0  0  0  0  0999 V2000
    7.4593  -12.6266   19.3675 N   0  0  0  0  0  0  0  0  0  0  0  0
    7.9124  -13.5234   18.3762 C   0  0  0  0  0  0  0  0  0  0  0  0
    7.2735  -13.6366   17.3145 O   0  0  0  0  0  0  0  0  0  0  0  0
    9.1317  -14.3170   18.6000 C   0  0  0  0  0  0  0  0  0  0  0  0
    9.7757  -13.8888   19.8767 C   0  0  0  0  0  0  0  0  0  0  0  0
   10.0059  -15.0564   20.8252 C   0  0  2  0  0  0  0  0  0  0  0  0
   10.0723  -16.3039   20.0953 N   0  0  0  0  0  0  0  0  0  0  0  0
    8.8644  -15.0984   21.7428 C   0  0  0  0  0  0  0  0  0  0  0  0
    7.7098  -15.2468   21.2877 O   0  0  0  0  0  0  0  0  0  0  0  0
    6.3881  -18.2929   25.6646 N   0  0  0  0  0  0  0  0  0  0  0  0
    6.4634  -17.0870   24.9135 C   0  0  0  0  0  0  0  0  0  0  0  0
    5.5397  -16.2420   25.0014 O   0  0  0  0  0  0  0  0  0  0  0  0
    7.6091  -16.7874   24.0182 C   0  0  0  0  0  0  0  0  0  0  0  0
    7.9283  -15.2873   24.0639 C   0  0  2  0  0  0  0  0  0  0  0  0
    9.0234  -14.9732   23.1737 N   0  0  0  0  0  0  0  0  0  0  0  0
    8.2689  -14.9806   25.4805 C   0  0  0  0  0  0  0  0  0  0  0  0
    7.4940  -14.3159   26.2138 O   0  0  0  0  0  0  0  0  0  0  0  0
    9.4744  -15.4131   26.0867 N   0  0  0  0  0  0  0  0  0  0  0  0
    9.9668  -15.0285   27.3612 C   0  0  1  0  0  0  0  0  0  0  0  0
    8.9237  -14.7139   28.3858 C   0  0  0  0  0  0  0  0  0  0  0  0
    8.1779  -13.0885   28.1511 S   0  0  0  0  0  0  0  0  0  0  0  0
   10.9059  -16.0084   27.9442 C   0  0  0  0  0  0  0  0  0  0  0  0
   11.5610  -15.7359   29.1259 O   0  0  0  0  0  0  0  0  0  0  0  0
   11.1158  -17.0973   27.3695 O   0  0  0  0  0  0  0  0  0  0  0  0
  2  1  1  0
  2  3  2  0
  4  2  1  0
  5  4  1  0
  6  5  1  0
  6  7  1  6
  8  6  1  0
  8  9  2  0
 10 11  1  0
 11 13  1  0
 11 12  2  0
 14 13  1  1
 14 15  1  0
 14 16  1  0
 15  8  1  0
 16 17  2  0
 16 18  1  0
 18 19  1  0
 19 22  1  0
 19 20  1  1
 21 20  1  0
 22 24  2  0
 22 23  1  0
M  END
$$$$
