CKT.pdb
     RDKit          3D

 23 22  0  0  1  0  0  0  0  0999 V2000
    5.1562  -18.7568   20.2025 N   0  0  0  0  0  0  0  0  0  0  0  0
    6.3882  -18.1381   20.6830 C   0  0  1  0  0  0  0  0  0  0  0  0
    6.6381  -16.8383   19.9420 C   0  0  0  0  0  0  0  0  0  0  0  0
    7.6547  -17.0524   18.4825 S   0  0  0  0  0  0  0  0  0  0  0  0
    6.2260  -17.8363   22.1239 C   0  0  0  0  0  0  0  0  0  0  0  0
    5.1104  -17.3863   22.5174 O   0  0  0  0  0  0  0  0  0  0  0  0
    7.2248  -18.0154   23.0921 N   0  0  0  0  0  0  0  0  0  0  0  0
    6.9329  -17.6557   24.4931 C   0  0  1  0  0  0  0  0  0  0  0  0
    7.4463  -18.8496   25.2706 C   0  0  0  0  0  0  0  0  0  0  0  0
    7.4296  -18.7342   26.7420 C   0  0  0  0  0  0  0  0  0  0  0  0
    7.9562  -20.0594   27.3208 C   0  0  0  0  0  0  0  0  0  0  0  0
    8.0894  -20.0430   28.8039 C   0  0  0  0  0  0  0  0  0  0  0  0
    8.6400  -21.3640   29.1730 N   0  0  0  0  0  0  0  0  0  0  0  0
    7.6927  -16.4336   24.8198 C   0  0  0  0  0  0  0  0  0  0  0  0
    8.8584  -16.3136   24.3513 O   0  0  0  0  0  0  0  0  0  0  0  0
    6.9905  -12.5954   24.4812 C   0  0  0  0  0  0  0  0  0  0  0  0
    7.3076  -12.9712   25.9137 C   0  0  1  0  0  0  0  0  0  0  0  0
    6.0911  -13.1197   26.5780 O   0  0  0  0  0  0  0  0  0  0  0  0
    8.0992  -14.2514   25.9237 C   0  0  2  0  0  0  0  0  0  0  0  0
    7.2111  -15.3701   25.6237 N   0  0  0  0  0  0  0  0  0  0  0  0
    8.6776  -14.4410   27.2754 C   0  0  0  0  0  0  0  0  0  0  0  0
    8.3538  -15.4192   27.9790 O   0  0  0  0  0  0  0  0  0  0  0  0
    9.5950  -13.5461   27.8087 O   0  0  0  0  0  0  0  0  0  0  0  0
  2  1  1  6
  2  5  1  0
  2  3  1  0
  4  3  1  0
  5  6  2  0
  7  8  1  0
  7  5  1  0
  9 10  1  0
  8  9  1  1
 10 11  1  0
 11 12  1  0
 13 12  1  0
 14 15  2  0
 14  8  1  0
 17 16  1  6
 17 19  1  0
 18 17  1  0
 19 20  1  1
 19 21  1  0
 20 14  1  0
 21 22  2  0
 21 23  1  0
M  END
$$$$
