CKT.pdb
     RDKit          3D

 23 22  0  0  1  0  0  0  0  0999 V2000
    7.3396  -15.1917   18.7718 N   0  0  0  0  0  0  0  0  0  0  0  0
    8.3278  -14.7901   19.7686 C   0  0  1  0  0  0  0  0  0  0  0  0
    8.5347  -13.2883   19.7167 C   0  0  0  0  0  0  0  0  0  0  0  0
    8.4875  -12.6353   18.0492 S   0  0  0  0  0  0  0  0  0  0  0  0
    7.8094  -15.1492   21.1087 C   0  0  0  0  0  0  0  0  0  0  0  0
    6.5607  -15.0793   21.3038 O   0  0  0  0  0  0  0  0  0  0  0  0
    8.6061  -15.5655   22.1852 N   0  0  0  0  0  0  0  0  0  0  0  0
    7.9495  -15.9846   23.4385 C   0  0  1  0  0  0  0  0  0  0  0  0
    8.5282  -17.3617   23.6881 C   0  0  0  0  0  0  0  0  0  0  0  0
    8.1493  -18.0156   24.9560 C   0  0  0  0  0  0  0  0  0  0  0  0
    8.9264  -19.3406   25.0490 C   0  0  0  0  0  0  0  0  0  0  0  0
    8.6463  -20.1016   26.2980 C   0  0  0  0  0  0  0  0  0  0  0  0
    7.7804  -21.2299   25.8960 N   0  0  0  0  0  0  0  0  0  0  0  0
    8.3403  -15.0362   24.4993 C   0  0  0  0  0  0  0  0  0  0  0  0
    9.5547  -14.7030   24.5829 O   0  0  0  0  0  0  0  0  0  0  0  0
    6.6322  -11.6054   25.7325 C   0  0  0  0  0  0  0  0  0  0  0  0
    6.8924  -12.5832   26.8593 C   0  0  1  0  0  0  0  0  0  0  0  0
    5.6944  -13.2510   27.1083 O   0  0  0  0  0  0  0  0  0  0  0  0
    7.9778  -13.5389   26.4416 C   0  0  2  0  0  0  0  0  0  0  0  0
    7.4502  -14.4604   25.4401 N   0  0  0  0  0  0  0  0  0  0  0  0
    8.4126  -14.3117   27.6296 C   0  0  0  0  0  0  0  0  0  0  0  0
    8.2522  -15.5479   27.6833 O   0  0  0  0  0  0  0  0  0  0  0  0
    9.0105  -13.6970   28.7212 O   0  0  0  0  0  0  0  0  0  0  0  0
  2  1  1  6
  2  5  1  0
  2  3  1  0
  4  3  1  0
  5  6  2  0
  7  8  1  0
  7  5  1  0
  9 10  1  0
  8  9  1  1
 10 11  1  0
 11 12  1  0
 13 12  1  0
 14 15  2  0
 14  8  1  0
 17 16  1  6
 17 19  1  0
 18 17  1  0
 19 20  1  6
 19 21  1  0
 20 14  1  0
 21 22  2  0
 21 23  1  0
M  END
$$$$
