CKT.pdb
     RDKit          3D

 23 22  0  0  1  0  0  0  0  0999 V2000
    8.8659  -15.6577   18.8444 N   0  0  0  0  0  0  0  0  0  0  0  0
    7.8014  -15.7323   19.8408 C   0  0  1  0  0  0  0  0  0  0  0  0
    7.2872  -17.1557   19.9436 C   0  0  0  0  0  0  0  0  0  0  0  0
    8.5821  -18.3403   20.3033 S   0  0  0  0  0  0  0  0  0  0  0  0
    8.3637  -15.3376   21.1529 C   0  0  0  0  0  0  0  0  0  0  0  0
    9.6197  -15.3843   21.3022 O   0  0  0  0  0  0  0  0  0  0  0  0
    7.6012  -14.9113   22.2500 N   0  0  0  0  0  0  0  0  0  0  0  0
    8.2960  -14.5018   23.4857 C   0  0  1  0  0  0  0  0  0  0  0  0
    7.2611  -13.6583   24.2008 C   0  0  0  0  0  0  0  0  0  0  0  0
    7.6288  -13.1605   25.5409 C   0  0  0  0  0  0  0  0  0  0  0  0
    6.4663  -12.2909   26.0515 C   0  0  0  0  0  0  0  0  0  0  0  0
    6.6731  -11.7852   27.4369 C   0  0  0  0  0  0  0  0  0  0  0  0
    5.4589  -11.0101   27.7676 N   0  0  0  0  0  0  0  0  0  0  0  0
    8.6214  -15.7195   24.2531 C   0  0  0  0  0  0  0  0  0  0  0  0
    7.6830  -16.5152   24.5339 O   0  0  0  0  0  0  0  0  0  0  0  0
   10.8037  -18.6059   23.5839 C   0  0  0  0  0  0  0  0  0  0  0  0
   11.2005  -18.1072   24.9577 C   0  0  1  0  0  0  0  0  0  0  0  0
   12.3674  -17.3605   24.8022 O   0  0  0  0  0  0  0  0  0  0  0  0
   10.0831  -17.2700   25.5199 C   0  0  2  0  0  0  0  0  0  0  0  0
    9.9187  -16.0726   24.7017 N   0  0  0  0  0  0  0  0  0  0  0  0
   10.4404  -16.8676   26.9012 C   0  0  0  0  0  0  0  0  0  0  0  0
   10.6059  -15.6665   27.1958 O   0  0  0  0  0  0  0  0  0  0  0  0
   10.6040  -17.8023   27.9144 O   0  0  0  0  0  0  0  0  0  0  0  0
  2  1  1  6
  2  5  1  0
  2  3  1  0
  4  3  1  0
  5  6  2  0
  7  8  1  0
  7  5  1  0
  9 10  1  0
  8  9  1  1
 10 11  1  0
 11 12  1  0
 13 12  1  0
 14 15  2  0
 14  8  1  0
 17 16  1  6
 17 19  1  0
 18 17  1  0
 19 20  1  6
 19 21  1  0
 20 14  1  0
 21 22  2  0
 21 23  1  0
M  END
$$$$
