CKT.pdb
     RDKit          3D

 23 22  0  0  1  0  0  0  0  0999 V2000
    4.4848  -20.3470   19.4870 N   0  0  0  0  0  0  0  0  0  0  0  0
    5.8207  -20.4280   20.0706 C   0  0  1  0  0  0  0  0  0  0  0  0
    6.6519  -19.2387   19.6282 C   0  0  0  0  0  0  0  0  0  0  0  0
    6.8888  -19.1752   17.8536 S   0  0  0  0  0  0  0  0  0  0  0  0
    5.6876  -20.3886   21.5451 C   0  0  0  0  0  0  0  0  0  0  0  0
    4.7898  -19.6486   22.0436 O   0  0  0  0  0  0  0  0  0  0  0  0
    6.4881  -21.1176   22.4365 N   0  0  0  0  0  0  0  0  0  0  0  0
    6.2157  -21.0200   23.8834 C   0  0  1  0  0  0  0  0  0  0  0  0
    6.3732  -22.4482   24.3620 C   0  0  0  0  0  0  0  0  0  0  0  0
    6.2773  -22.6694   25.8182 C   0  0  0  0  0  0  0  0  0  0  0  0
    6.5081  -24.1684   26.0794 C   0  0  0  0  0  0  0  0  0  0  0  0
    6.4048  -24.5385   27.5181 C   0  0  0  0  0  0  0  0  0  0  0  0
    6.6079  -26.0014   27.5727 N   0  0  0  0  0  0  0  0  0  0  0  0
    7.2345  -20.1363   24.4824 C   0  0  0  0  0  0  0  0  0  0  0  0
    8.4176  -20.2122   24.0499 O   0  0  0  0  0  0  0  0  0  0  0  0
    7.6661  -16.4552   24.5328 C   0  0  0  0  0  0  0  0  0  0  0  0
    7.6908  -16.9281   25.9713 C   0  0  1  0  0  0  0  0  0  0  0  0
    6.4093  -16.7411   26.4871 O   0  0  0  0  0  0  0  0  0  0  0  0
    8.0911  -18.3787   26.0064 C   0  0  2  0  0  0  0  0  0  0  0  0
    6.9868  -19.1960   25.5137 N   0  0  0  0  0  0  0  0  0  0  0  0
    8.3847  -18.7560   27.4096 C   0  0  0  0  0  0  0  0  0  0  0  0
    7.7190  -19.6388   27.9880 O   0  0  0  0  0  0  0  0  0  0  0  0
    9.4031  -18.1483   28.1310 O   0  0  0  0  0  0  0  0  0  0  0  0
  2  1  1  6
  2  5  1  0
  2  3  1  0
  4  3  1  0
  5  6  2  0
  7  8  1  0
  7  5  1  0
  9 10  1  0
  8  9  1  1
 10 11  1  0
 11 12  1  0
 13 12  1  0
 14 15  2  0
 14  8  1  0
 17 16  1  6
 17 19  1  0
 18 17  1  0
 19 20  1  1
 19 21  1  0
 20 14  1  0
 21 22  2  0
 21 23  1  0
M  END
$$$$
