CKT.pdb
     RDKit          3D

 23 22  0  0  1  0  0  0  0  0999 V2000
    7.0179  -15.8874   19.0002 N   0  0  0  0  0  0  0  0  0  0  0  0
    7.8061  -15.0942   19.9390 C   0  0  1  0  0  0  0  0  0  0  0  0
    7.6225  -13.6165   19.6498 C   0  0  0  0  0  0  0  0  0  0  0  0
    8.7573  -13.0032   18.4067 S   0  0  0  0  0  0  0  0  0  0  0  0
    7.3159  -15.3717   21.3087 C   0  0  0  0  0  0  0  0  0  0  0  0
    6.0707  -15.2977   21.5233 O   0  0  0  0  0  0  0  0  0  0  0  0
    8.1360  -15.7146   22.3935 N   0  0  0  0  0  0  0  0  0  0  0  0
    7.5111  -15.9864   23.7023 C   0  0  1  0  0  0  0  0  0  0  0  0
    7.9836  -17.3884   24.0265 C   0  0  0  0  0  0  0  0  0  0  0  0
    7.6528  -17.9008   25.3706 C   0  0  0  0  0  0  0  0  0  0  0  0
    8.1254  -19.3636   25.4424 C   0  0  0  0  0  0  0  0  0  0  0  0
    7.8719  -20.0004   26.7645 C   0  0  0  0  0  0  0  0  0  0  0  0
    8.3667  -21.3879   26.6441 N   0  0  0  0  0  0  0  0  0  0  0  0
    8.0337  -15.0047   24.6720 C   0  0  0  0  0  0  0  0  0  0  0  0
    9.2449  -14.6623   24.5792 O   0  0  0  0  0  0  0  0  0  0  0  0
    6.7147  -11.4743   25.9453 C   0  0  0  0  0  0  0  0  0  0  0  0
    6.9596  -12.4420   27.0843 C   0  0  1  0  0  0  0  0  0  0  0  0
    5.7279  -13.0023   27.4190 O   0  0  0  0  0  0  0  0  0  0  0  0
    7.9381  -13.4940   26.6354 C   0  0  2  0  0  0  0  0  0  0  0  0
    7.2748  -14.4059   25.7087 N   0  0  0  0  0  0  0  0  0  0  0  0
    8.3933  -14.2562   27.8226 C   0  0  0  0  0  0  0  0  0  0  0  0
    8.2309  -15.4914   27.8915 O   0  0  0  0  0  0  0  0  0  0  0  0
    9.0132  -13.6324   28.8966 O   0  0  0  0  0  0  0  0  0  0  0  0
  2  1  1  6
  2  5  1  0
  2  3  1  0
  4  3  1  0
  5  6  2  0
  7  8  1  0
  7  5  1  0
  9 10  1  0
  8  9  1  1
 10 11  1  0
 11 12  1  0
 13 12  1  0
 14 15  2  0
 14  8  1  0
 17 16  1  6
 17 19  1  0
 18 17  1  0
 19 20  1  6
 19 21  1  0
 20 14  1  0
 21 22  2  0
 21 23  1  0
M  END
$$$$
