CKT.pdb
     RDKit          3D

 23 22  0  0  1  0  0  0  0  0999 V2000
    7.1391  -15.1356   18.7985 N   0  0  0  0  0  0  0  0  0  0  0  0
    8.0499  -14.5379   19.7706 C   0  0  1  0  0  0  0  0  0  0  0  0
    7.9509  -13.0254   19.7111 C   0  0  0  0  0  0  0  0  0  0  0  0
    8.6808  -12.3369   18.2270 S   0  0  0  0  0  0  0  0  0  0  0  0
    7.6451  -14.9846   21.1234 C   0  0  0  0  0  0  0  0  0  0  0  0
    6.4082  -15.0649   21.3800 O   0  0  0  0  0  0  0  0  0  0  0  0
    8.5381  -15.3293   22.1484 N   0  0  0  0  0  0  0  0  0  0  0  0
    8.0001  -15.8713   23.4110 C   0  0  1  0  0  0  0  0  0  0  0  0
    8.6663  -17.2273   23.5168 C   0  0  0  0  0  0  0  0  0  0  0  0
    8.1719  -18.2771   22.6047 C   0  0  0  0  0  0  0  0  0  0  0  0
    7.6285  -19.4289   23.4687 C   0  0  0  0  0  0  0  0  0  0  0  0
    6.9487  -20.4903   22.6757 C   0  0  0  0  0  0  0  0  0  0  0  0
    6.4592  -21.4773   23.6609 N   0  0  0  0  0  0  0  0  0  0  0  0
    8.4199  -14.9783   24.5082 C   0  0  0  0  0  0  0  0  0  0  0  0
    9.5989  -14.5285   24.4923 O   0  0  0  0  0  0  0  0  0  0  0  0
    6.6274  -11.7874   25.9555 C   0  0  0  0  0  0  0  0  0  0  0  0
    7.0113  -12.7496   27.0601 C   0  0  1  0  0  0  0  0  0  0  0  0
    5.8713  -13.4863   27.3775 O   0  0  0  0  0  0  0  0  0  0  0  0
    8.1233  -13.6399   26.5738 C   0  0  2  0  0  0  0  0  0  0  0  0
    7.5944  -14.5781   25.5887 N   0  0  0  0  0  0  0  0  0  0  0  0
    8.6611  -14.4003   27.7271 C   0  0  0  0  0  0  0  0  0  0  0  0
    8.6188  -15.6472   27.7477 O   0  0  0  0  0  0  0  0  0  0  0  0
    9.2287  -13.7621   28.8213 O   0  0  0  0  0  0  0  0  0  0  0  0
  2  1  1  6
  2  5  1  0
  2  3  1  0
  4  3  1  0
  5  6  2  0
  7  8  1  0
  7  5  1  0
  9 10  1  0
  8  9  1  1
 10 11  1  0
 11 12  1  0
 13 12  1  0
 14 15  2  0
 14  8  1  0
 17 16  1  6
 17 19  1  0
 18 17  1  0
 19 20  1  6
 19 21  1  0
 20 14  1  0
 21 22  2  0
 21 23  1  0
M  END
$$$$
