RQN.pdb
     RDKit          3D

 29 28  0  0  1  0  0  0  0  0999 V2000
    8.3591  -14.7020   16.5267 N   0  0  0  0  0  0  0  0  0  0  0  0
    7.9009  -13.4974   17.1165 C   0  0  0  0  0  0  0  0  0  0  0  0
    7.9729  -12.3996   16.4157 N   0  0  0  0  0  0  0  0  0  0  0  0
    7.3929  -13.5443   18.4164 N   0  0  0  0  0  0  0  0  0  0  0  0
    8.2837  -13.8555   19.5499 C   0  0  0  0  0  0  0  0  0  0  0  0
    9.0841  -15.0808   19.2140 C   0  0  0  0  0  0  0  0  0  0  0  0
   10.1003  -15.5188   20.2054 C   0  0  0  0  0  0  0  0  0  0  0  0
    9.5340  -16.4462   21.2157 C   0  0  2  0  0  0  0  0  0  0  0  0
    8.1101  -16.5354   21.1544 N   0  0  0  0  0  0  0  0  0  0  0  0
    9.9198  -16.0590   22.6068 C   0  0  0  0  0  0  0  0  0  0  0  0
   11.1151  -15.7744   22.9037 O   0  0  0  0  0  0  0  0  0  0  0  0
    7.6538  -11.5012   16.7973 N   0  0  0  0  0  0  0  0  0  0  0  0
    6.3192  -11.6076   25.5422 C   0  0  0  0  0  0  0  0  0  0  0  0
    6.6090  -12.9890   25.6754 O   0  0  0  0  0  0  0  0  0  0  0  0
    5.7097  -13.6921   26.2668 C   0  0  0  0  0  0  0  0  0  0  0  0
    7.8501  -13.6103   25.1708 C   0  0  0  0  0  0  0  0  0  0  0  0
    8.1362  -14.9906   25.6352 C   0  0  2  0  0  0  0  0  0  0  0  0
    9.3009  -15.7201   25.0309 N   0  0  0  0  0  0  0  0  0  0  0  0
    8.9304  -16.0104   23.6045 C   0  0  0  0  0  0  0  0  0  0  0  0
    9.6070  -16.9659   25.7106 O   0  0  0  0  0  0  0  0  0  0  0  0
    8.8796  -18.0175   25.6019 N   0  0  0  0  0  0  0  0  0  0  0  0
   12.3585  -21.5633   27.0233 C   0  0  0  0  0  0  0  0  0  0  0  0
   12.6376  -20.2873   27.5813 O   0  0  0  0  0  0  0  0  0  0  0  0
   13.0972  -20.2558   28.7580 C   0  0  0  0  0  0  0  0  0  0  0  0
   12.3992  -19.0190   26.8099 C   0  0  1  0  0  0  0  0  0  0  0  0
   11.0843  -18.4311   27.1403 N   0  0  0  0  0  0  0  0  0  0  0  0
   10.7250  -17.1972   26.5707 C   0  0  0  0  0  0  0  0  0  0  0  0
   10.9739  -18.3275   28.6212 O   0  0  0  0  0  0  0  0  0  0  0  0
   10.7517  -19.4373   29.4231 O   0  0  0  0  0  0  0  0  0  0  0  0
  2  1  1  0
  2  3  2  0
  4  5  1  0
  4  2  1  0
  6  5  1  0
  7  6  1  0
  8 10  1  0
  8  7  1  0
  8  9  1  1
 10 11  2  0
 13 14  2  0
 13 12  1  0
 15 13  1  0
 16 15  1  0
 17 16  1  6
 17 19  1  0
 18 10  1  0
 18 17  1  0
 19 20  2  0
 22 21  1  0
 22 24  1  0
 23 22  2  0
 25 24  1  6
 25 27  1  0
 26 19  1  0
 26 25  1  0
 27 28  1  0
 29 27  2  0
M  END
$$$$
