RQN.pdb
     RDKit          3D

 29 28  0  0  1  0  0  0  0  0999 V2000
    8.0336  -12.3247   18.8531 N   0  0  0  0  0  0  0  0  0  0  0  0
    9.2434  -12.9443   18.4517 C   0  0  0  0  0  0  0  0  0  0  0  0
   10.3565  -12.2802   18.5989 N   0  0  0  0  0  0  0  0  0  0  0  0
    9.1860  -14.2349   17.9215 N   0  0  0  0  0  0  0  0  0  0  0  0
    7.8977  -14.9491   17.8466 C   0  0  0  0  0  0  0  0  0  0  0  0
    7.6763  -15.6842   19.1372 C   0  0  0  0  0  0  0  0  0  0  0  0
    8.7119  -16.6700   19.5412 C   0  0  0  0  0  0  0  0  0  0  0  0
    8.4054  -17.3002   20.8491 C   0  0  2  0  0  0  0  0  0  0  0  0
    7.0086  -17.5211   21.0477 N   0  0  0  0  0  0  0  0  0  0  0  0
    8.9189  -16.4878   21.9938 C   0  0  0  0  0  0  0  0  0  0  0  0
   10.1398  -16.1726   22.0824 O   0  0  0  0  0  0  0  0  0  0  0  0
   11.2550  -12.6700   18.2901 N   0  0  0  0  0  0  0  0  0  0  0  0
    5.2946  -12.8232   25.7975 C   0  0  0  0  0  0  0  0  0  0  0  0
    6.6050  -12.7558   26.3343 O   0  0  0  0  0  0  0  0  0  0  0  0
    6.7895  -11.8646   27.2425 C   0  0  0  0  0  0  0  0  0  0  0  0
    7.7048  -13.6430   25.9050 C   0  0  0  0  0  0  0  0  0  0  0  0
    7.4308  -14.5225   24.7413 C   0  0  2  0  0  0  0  0  0  0  0  0
    8.5317  -15.4150   24.2462 N   0  0  0  0  0  0  0  0  0  0  0  0
    8.0229  -16.0661   22.9917 C   0  0  0  0  0  0  0  0  0  0  0  0
    8.9056  -16.4416   25.2022 O   0  0  0  0  0  0  0  0  0  0  0  0
    8.5639  -17.6719   25.0751 N   0  0  0  0  0  0  0  0  0  0  0  0
   11.6134  -19.2409   25.3254 C   0  0  0  0  0  0  0  0  0  0  0  0
   12.4437  -18.0885   25.3161 O   0  0  0  0  0  0  0  0  0  0  0  0
   13.5119  -18.1477   24.6435 C   0  0  0  0  0  0  0  0  0  0  0  0
   12.0744  -16.8432   26.0731 C   0  0  2  0  0  0  0  0  0  0  0  0
   10.7895  -17.0103   26.7836 N   0  0  0  0  0  0  0  0  0  0  0  0
    9.6830  -16.2405   26.3848 C   0  0  0  0  0  0  0  0  0  0  0  0
   11.0248  -16.7969   28.2380 O   0  0  0  0  0  0  0  0  0  0  0  0
   11.1496  -17.8540   29.1273 O   0  0  0  0  0  0  0  0  0  0  0  0
  2  1  1  0
  2  3  2  0
  4  5  1  0
  4  2  1  0
  6  5  1  0
  7  6  1  0
  8 10  1  0
  8  7  1  0
  8  9  1  1
 10 11  2  0
 13 14  2  0
 13 12  1  0
 15 13  1  0
 16 15  1  0
 17 16  1  6
 17 19  1  0
 18 10  1  0
 18 17  1  0
 19 20  2  0
 22 21  1  0
 22 24  1  0
 23 22  2  0
 25 24  1  6
 25 27  1  0
 26 19  1  0
 26 25  1  0
 27 28  1  0
 29 27  2  0
M  END
$$$$
