RQN.pdb
     RDKit          3D

 29 28  0  0  1  0  0  0  0  0999 V2000
    6.7881  -12.6543   18.5943 N   0  0  0  0  0  0  0  0  0  0  0  0
    6.7654  -13.5145   17.4682 C   0  0  0  0  0  0  0  0  0  0  0  0
    6.9848  -12.9974   16.2908 N   0  0  0  0  0  0  0  0  0  0  0  0
    6.5123  -14.8724   17.6731 N   0  0  0  0  0  0  0  0  0  0  0  0
    7.5988  -15.7725   18.1030 C   0  0  0  0  0  0  0  0  0  0  0  0
    8.0648  -15.3513   19.4670 C   0  0  0  0  0  0  0  0  0  0  0  0
    9.0838  -16.2065   20.1285 C   0  0  0  0  0  0  0  0  0  0  0  0
   10.3629  -16.2369   19.3771 C   0  0  2  0  0  0  0  0  0  0  0  0
   10.3015  -17.0497   18.2047 N   0  0  0  0  0  0  0  0  0  0  0  0
   11.4959  -16.7203   20.2238 C   0  0  0  0  0  0  0  0  0  0  0  0
   11.9015  -17.9159   20.1611 O   0  0  0  0  0  0  0  0  0  0  0  0
    6.9373  -13.5698   15.4396 N   0  0  0  0  0  0  0  0  0  0  0  0
   16.7676  -13.8857   20.6380 C   0  0  0  0  0  0  0  0  0  0  0  0
   16.8329  -14.6505   21.8300 O   0  0  0  0  0  0  0  0  0  0  0  0
   17.9662  -14.6398   22.4371 C   0  0  0  0  0  0  0  0  0  0  0  0
   15.6890  -15.4134   22.3687 C   0  0  0  0  0  0  0  0  0  0  0  0
   14.3929  -15.2499   21.6642 C   0  0  1  0  0  0  0  0  0  0  0  0
   13.3105  -16.2589   21.9174 N   0  0  0  0  0  0  0  0  0  0  0  0
   12.1225  -15.8242   21.1075 C   0  0  0  0  0  0  0  0  0  0  0  0
   12.9314  -16.3483   23.3159 O   0  0  0  0  0  0  0  0  0  0  0  0
   13.2387  -15.4520   24.1813 N   0  0  0  0  0  0  0  0  0  0  0  0
   11.5913  -21.6240   24.1186 C   0  0  0  0  0  0  0  0  0  0  0  0
   12.0134  -20.5762   23.2575 O   0  0  0  0  0  0  0  0  0  0  0  0
   11.3830  -20.4264   22.1726 C   0  0  0  0  0  0  0  0  0  0  0  0
   13.1635  -19.6761   23.6143 C   0  0  2  0  0  0  0  0  0  0  0  0
   12.7259  -18.5719   24.4935 N   0  0  0  0  0  0  0  0  0  0  0  0
   12.1854  -17.4106   23.9145 C   0  0  0  0  0  0  0  0  0  0  0  0
   13.8669  -18.1867   25.3686 O   0  0  0  0  0  0  0  0  0  0  0  0
   13.7936  -18.2634   26.7516 O   0  0  0  0  0  0  0  0  0  0  0  0
  2  1  1  0
  2  3  2  0
  4  5  1  0
  4  2  1  0
  6  5  1  0
  7  6  1  0
  8 10  1  0
  8  7  1  0
  8  9  1  6
 10 11  2  0
 13 14  2  0
 13 12  1  0
 15 13  1  0
 16 15  1  0
 17 16  1  6
 17 19  1  0
 18 10  1  0
 18 17  1  0
 19 20  2  0
 22 21  1  0
 22 24  1  0
 23 22  2  0
 25 24  1  1
 25 27  1  0
 26 19  1  0
 26 25  1  0
 27 28  1  0
 29 27  2  0
M  END
$$$$
