RQN.pdb
     RDKit          3D

 29 28  0  0  1  0  0  0  0  0999 V2000
    9.5002  -14.8001   15.4152 N   0  0  0  0  0  0  0  0  0  0  0  0
    8.2158  -14.6565   14.8334 C   0  0  0  0  0  0  0  0  0  0  0  0
    7.9992  -15.2057   13.6702 N   0  0  0  0  0  0  0  0  0  0  0  0
    7.2449  -13.9375   15.5336 N   0  0  0  0  0  0  0  0  0  0  0  0
    7.5858  -13.2782   16.8082 C   0  0  0  0  0  0  0  0  0  0  0  0
    7.7457  -14.3291   17.8689 C   0  0  0  0  0  0  0  0  0  0  0  0
    8.0206  -13.8596   19.2514 C   0  0  0  0  0  0  0  0  0  0  0  0
    8.1740  -14.9856   20.2053 C   0  0  2  0  0  0  0  0  0  0  0  0
    6.9403  -15.6451   20.4923 N   0  0  0  0  0  0  0  0  0  0  0  0
    8.7806  -14.5432   21.4977 C   0  0  0  0  0  0  0  0  0  0  0  0
   10.0240  -14.3434   21.6074 O   0  0  0  0  0  0  0  0  0  0  0  0
    7.0621  -15.2135   13.2502 N   0  0  0  0  0  0  0  0  0  0  0  0
    5.1085  -18.5137   23.1705 C   0  0  0  0  0  0  0  0  0  0  0  0
    5.9450  -18.4997   24.3150 O   0  0  0  0  0  0  0  0  0  0  0  0
    5.7711  -19.4671   25.1437 C   0  0  0  0  0  0  0  0  0  0  0  0
    6.9643  -17.4601   24.5628 C   0  0  0  0  0  0  0  0  0  0  0  0
    7.0316  -16.3505   23.5794 C   0  0  1  0  0  0  0  0  0  0  0  0
    8.0384  -15.2594   23.8021 N   0  0  0  0  0  0  0  0  0  0  0  0
    7.9485  -14.3453   22.6135 C   0  0  0  0  0  0  0  0  0  0  0  0
    9.3974  -15.7551   23.9249 O   0  0  0  0  0  0  0  0  0  0  0  0
    9.9827  -15.9151   25.0556 N   0  0  0  0  0  0  0  0  0  0  0  0
   11.2562  -18.7777   24.8164 C   0  0  0  0  0  0  0  0  0  0  0  0
   11.5708  -19.1172   23.4735 O   0  0  0  0  0  0  0  0  0  0  0  0
   11.6969  -20.3442   23.1989 C   0  0  0  0  0  0  0  0  0  0  0  0
   11.7486  -18.0653   22.4141 C   0  0  2  0  0  0  0  0  0  0  0  0
   11.5264  -16.7111   22.9622 N   0  0  0  0  0  0  0  0  0  0  0  0
   10.2540  -16.1258   22.8423 C   0  0  0  0  0  0  0  0  0  0  0  0
   12.5363  -15.7920   22.3696 O   0  0  0  0  0  0  0  0  0  0  0  0
   13.8936  -16.0777   22.3883 O   0  0  0  0  0  0  0  0  0  0  0  0
  2  1  1  0
  2  3  2  0
  4  5  1  0
  4  2  1  0
  6  5  1  0
  7  6  1  0
  8 10  1  0
  8  7  1  0
  8  9  1  1
 10 11  2  0
 13 14  2  0
 13 12  1  0
 15 13  1  0
 16 15  1  0
 17 16  1  1
 17 19  1  0
 18 10  1  0
 18 17  1  0
 19 20  2  0
 22 21  1  0
 22 24  1  0
 23 22  2  0
 25 24  1  1
 25 27  1  0
 26 19  1  0
 26 25  1  0
 27 28  1  0
 29 27  2  0
M  END
$$$$
