RQN.pdb
     RDKit          3D

 29 28  0  0  1  0  0  0  0  0999 V2000
    6.3138  -13.3777   20.0510 N   0  0  0  0  0  0  0  0  0  0  0  0
    6.9137  -13.1420   18.7887 C   0  0  0  0  0  0  0  0  0  0  0  0
    6.1381  -12.8575   17.7792 N   0  0  0  0  0  0  0  0  0  0  0  0
    8.3041  -13.2230   18.6873 N   0  0  0  0  0  0  0  0  0  0  0  0
    9.1065  -13.6748   19.8394 C   0  0  0  0  0  0  0  0  0  0  0  0
    9.8275  -14.9368   19.4617 C   0  0  0  0  0  0  0  0  0  0  0  0
   10.9756  -14.8071   18.5277 C   0  0  0  0  0  0  0  0  0  0  0  0
   11.6639  -16.1022   18.3028 C   0  0  2  0  0  0  0  0  0  0  0  0
   10.8168  -17.2298   18.5261 N   0  0  0  0  0  0  0  0  0  0  0  0
   12.8751  -16.2476   19.1665 C   0  0  0  0  0  0  0  0  0  0  0  0
   13.1785  -17.3554   19.6943 O   0  0  0  0  0  0  0  0  0  0  0  0
    6.5222  -12.6944   16.8408 N   0  0  0  0  0  0  0  0  0  0  0  0
   18.3231  -14.4755   19.4534 C   0  0  0  0  0  0  0  0  0  0  0  0
   17.4885  -13.6796   18.6287 O   0  0  0  0  0  0  0  0  0  0  0  0
   18.0250  -13.2517   17.5415 C   0  0  0  0  0  0  0  0  0  0  0  0
   16.0882  -13.3530   18.9654 C   0  0  0  0  0  0  0  0  0  0  0  0
   15.5729  -13.8902   20.2495 C   0  0  2  0  0  0  0  0  0  0  0  0
   14.9239  -15.2439   20.2478 N   0  0  0  0  0  0  0  0  0  0  0  0
   13.6930  -15.1271   19.3947 C   0  0  0  0  0  0  0  0  0  0  0  0
   14.5471  -15.6961   21.5749 O   0  0  0  0  0  0  0  0  0  0  0  0
   15.4051  -15.9696   22.4891 N   0  0  0  0  0  0  0  0  0  0  0  0
   10.5553  -17.7108   25.6043 C   0  0  0  0  0  0  0  0  0  0  0  0
   11.2386  -16.5352   25.1937 O   0  0  0  0  0  0  0  0  0  0  0  0
   11.6920  -15.7803   26.1001 C   0  0  0  0  0  0  0  0  0  0  0  0
   11.4203  -16.1944   23.7407 C   0  0  2  0  0  0  0  0  0  0  0  0
   12.8430  -16.2669   23.3480 N   0  0  0  0  0  0  0  0  0  0  0  0
   13.2114  -15.8961   22.0430 C   0  0  0  0  0  0  0  0  0  0  0  0
   13.3345  -17.6469   23.6127 O   0  0  0  0  0  0  0  0  0  0  0  0
   14.0217  -17.9747   24.7721 O   0  0  0  0  0  0  0  0  0  0  0  0
  2  1  1  0
  2  3  2  0
  4  5  1  0
  4  2  1  0
  6  5  1  0
  7  6  1  0
  8 10  1  0
  8  7  1  0
  8  9  1  1
 10 11  2  0
 13 14  2  0
 13 12  1  0
 15 13  1  0
 16 15  1  0
 17 16  1  6
 17 19  1  0
 18 10  1  0
 18 17  1  0
 19 20  2  0
 22 21  1  0
 22 24  1  0
 23 22  2  0
 25 24  1  1
 25 27  1  0
 26 19  1  0
 26 25  1  0
 27 28  1  0
 29 27  2  0
M  END
$$$$
