RQN.pdb
     RDKit          3D

 29 28  0  0  1  0  0  0  0  0999 V2000
    9.9021  -15.1896   16.1592 N   0  0  0  0  0  0  0  0  0  0  0  0
    8.8352  -15.0307   15.2398 C   0  0  0  0  0  0  0  0  0  0  0  0
    9.0968  -15.1317   13.9658 N   0  0  0  0  0  0  0  0  0  0  0  0
    7.5570  -14.7767   15.7413 N   0  0  0  0  0  0  0  0  0  0  0  0
    7.3334  -14.7002   17.1972 C   0  0  0  0  0  0  0  0  0  0  0  0
    7.8757  -13.3941   17.7021 C   0  0  0  0  0  0  0  0  0  0  0  0
    7.8108  -13.1547   19.1669 C   0  0  0  0  0  0  0  0  0  0  0  0
    7.7917  -14.4203   19.9411 C   0  0  2  0  0  0  0  0  0  0  0  0
    6.4726  -14.9250   20.1517 N   0  0  0  0  0  0  0  0  0  0  0  0
    8.4540  -14.2699   21.2726 C   0  0  0  0  0  0  0  0  0  0  0  0
    9.6903  -14.0248   21.3692 O   0  0  0  0  0  0  0  0  0  0  0  0
    8.3486  -15.0979   13.2633 N   0  0  0  0  0  0  0  0  0  0  0  0
    5.1937  -12.8121   26.7088 C   0  0  0  0  0  0  0  0  0  0  0  0
    6.5887  -12.8235   26.9612 O   0  0  0  0  0  0  0  0  0  0  0  0
    6.9806  -12.1090   27.9556 C   0  0  0  0  0  0  0  0  0  0  0  0
    7.5527  -13.6016   26.1573 C   0  0  0  0  0  0  0  0  0  0  0  0
    7.2283  -13.7756   24.7195 C   0  0  1  0  0  0  0  0  0  0  0  0
    8.3156  -14.2378   23.7932 N   0  0  0  0  0  0  0  0  0  0  0  0
    7.6834  -14.4039   22.4408 C   0  0  0  0  0  0  0  0  0  0  0  0
    8.9143  -15.4959   24.2012 O   0  0  0  0  0  0  0  0  0  0  0  0
    8.2914  -16.6165   24.1443 N   0  0  0  0  0  0  0  0  0  0  0  0
   12.7015  -19.2829   23.7381 C   0  0  0  0  0  0  0  0  0  0  0  0
   12.7543  -18.4563   24.8920 O   0  0  0  0  0  0  0  0  0  0  0  0
   13.1813  -18.9777   25.9609 C   0  0  0  0  0  0  0  0  0  0  0  0
   12.3216  -17.0170   24.8526 C   0  0  1  0  0  0  0  0  0  0  0  0
   10.8568  -16.8944   25.0038 N   0  0  0  0  0  0  0  0  0  0  0  0
   10.2398  -15.6664   24.7084 C   0  0  0  0  0  0  0  0  0  0  0  0
   10.4918  -17.2947   26.3904 O   0  0  0  0  0  0  0  0  0  0  0  0
   10.1553  -18.6003   26.7161 O   0  0  0  0  0  0  0  0  0  0  0  0
  2  1  1  0
  2  3  2  0
  4  5  1  0
  4  2  1  0
  6  5  1  0
  7  6  1  0
  8 10  1  0
  8  7  1  0
  8  9  1  1
 10 11  2  0
 13 14  2  0
 13 12  1  0
 15 13  1  0
 16 15  1  0
 17 16  1  6
 17 19  1  0
 18 10  1  0
 18 17  1  0
 19 20  2  0
 22 21  1  0
 22 24  1  0
 23 22  2  0
 25 24  1  6
 25 27  1  0
 26 19  1  0
 26 25  1  0
 27 28  1  0
 29 27  2  0
M  END
$$$$
