RQN.pdb
     RDKit          3D

 29 28  0  0  1  0  0  0  0  0999 V2000
    9.7138  -19.0815   11.2101 N   0  0  0  0  0  0  0  0  0  0  0  0
    8.6713  -18.1599   10.9409 C   0  0  0  0  0  0  0  0  0  0  0  0
    8.6686  -17.5489    9.7883 N   0  0  0  0  0  0  0  0  0  0  0  0
    7.6972  -17.9526   11.9197 N   0  0  0  0  0  0  0  0  0  0  0  0
    7.8562  -18.5448   13.2611 C   0  0  0  0  0  0  0  0  0  0  0  0
    8.8387  -17.7193   14.0411 C   0  0  0  0  0  0  0  0  0  0  0  0
    8.2821  -16.6916   14.9583 C   0  0  0  0  0  0  0  0  0  0  0  0
    8.4139  -17.0824   16.3836 C   0  0  2  0  0  0  0  0  0  0  0  0
    7.2001  -17.5926   16.9362 N   0  0  0  0  0  0  0  0  0  0  0  0
    8.8736  -15.9427   17.2344 C   0  0  0  0  0  0  0  0  0  0  0  0
    9.9789  -15.3671   17.0231 O   0  0  0  0  0  0  0  0  0  0  0  0
    7.9175  -16.8975    9.5316 N   0  0  0  0  0  0  0  0  0  0  0  0
    6.6868  -14.5806   22.4667 C   0  0  0  0  0  0  0  0  0  0  0  0
    7.2401  -13.2917   22.2604 O   0  0  0  0  0  0  0  0  0  0  0  0
    7.3426  -12.5553   23.3092 C   0  0  0  0  0  0  0  0  0  0  0  0
    7.6865  -12.8017   20.9407 C   0  0  0  0  0  0  0  0  0  0  0  0
    7.4706  -13.7117   19.7883 C   0  0  1  0  0  0  0  0  0  0  0  0
    8.6070  -14.5887   19.3486 N   0  0  0  0  0  0  0  0  0  0  0  0
    8.0572  -15.5032   18.2912 C   0  0  0  0  0  0  0  0  0  0  0  0
    9.1636  -15.3834   20.4285 O   0  0  0  0  0  0  0  0  0  0  0  0
    8.6053  -16.4517   20.8688 N   0  0  0  0  0  0  0  0  0  0  0  0
   11.7572  -15.7355   24.9202 C   0  0  0  0  0  0  0  0  0  0  0  0
   10.4085  -16.1168   24.6891 O   0  0  0  0  0  0  0  0  0  0  0  0
    9.6989  -16.3831   25.7002 C   0  0  0  0  0  0  0  0  0  0  0  0
    9.8392  -16.2027   23.3003 C   0  0  2  0  0  0  0  0  0  0  0  0
   10.8255  -15.7667   22.2899 N   0  0  0  0  0  0  0  0  0  0  0  0
   10.3737  -15.1032   21.1359 C   0  0  0  0  0  0  0  0  0  0  0  0
   11.6331  -16.9482   21.8802 O   0  0  0  0  0  0  0  0  0  0  0  0
   11.5914  -17.4583   20.5910 O   0  0  0  0  0  0  0  0  0  0  0  0
  2  1  1  0
  2  3  2  0
  4  5  1  0
  4  2  1  0
  6  5  1  0
  7  6  1  0
  8 10  1  0
  8  7  1  0
  8  9  1  1
 10 11  2  0
 13 14  2  0
 13 12  1  0
 15 13  1  0
 16 15  1  0
 17 16  1  6
 17 19  1  0
 18 10  1  0
 18 17  1  0
 19 20  2  0
 22 21  1  0
 22 24  1  0
 23 22  2  0
 25 24  1  1
 25 27  1  0
 26 19  1  0
 26 25  1  0
 27 28  1  0
 29 27  2  0
M  END
$$$$
