RQN.pdb
     RDKit          3D

 29 28  0  0  1  0  0  0  0  0999 V2000
    7.6079  -14.0318   17.0104 N   0  0  0  0  0  0  0  0  0  0  0  0
    8.2731  -13.1115   17.8584 C   0  0  0  0  0  0  0  0  0  0  0  0
    8.2412  -11.8460   17.5433 N   0  0  0  0  0  0  0  0  0  0  0  0
    8.9272  -13.6026   18.9902 N   0  0  0  0  0  0  0  0  0  0  0  0
    8.5847  -14.9336   19.5255 C   0  0  0  0  0  0  0  0  0  0  0  0
    9.5001  -15.2430   20.6750 C   0  0  0  0  0  0  0  0  0  0  0  0
   10.2694  -16.5121   20.6055 C   0  0  0  0  0  0  0  0  0  0  0  0
    9.9691  -17.4124   21.7460 C   0  0  2  0  0  0  0  0  0  0  0  0
    8.6434  -17.9414   21.7046 N   0  0  0  0  0  0  0  0  0  0  0  0
   10.1602  -16.7290   23.0616 C   0  0  0  0  0  0  0  0  0  0  0  0
   11.3077  -16.3834   23.4637 O   0  0  0  0  0  0  0  0  0  0  0  0
    8.8203  -11.1581   18.0391 N   0  0  0  0  0  0  0  0  0  0  0  0
    6.1316  -12.6205   25.5299 C   0  0  0  0  0  0  0  0  0  0  0  0
    7.1647  -12.7544   26.4915 O   0  0  0  0  0  0  0  0  0  0  0  0
    7.2212  -11.8275   27.3808 C   0  0  0  0  0  0  0  0  0  0  0  0
    8.1231  -13.8779   26.5023 C   0  0  0  0  0  0  0  0  0  0  0  0
    8.2013  -14.6939   25.2650 C   0  0  1  0  0  0  0  0  0  0  0  0
    9.2010  -15.8125   25.2096 N   0  0  0  0  0  0  0  0  0  0  0  0
    9.0382  -16.4656   23.8667 C   0  0  0  0  0  0  0  0  0  0  0  0
    9.0049  -16.8034   26.2524 O   0  0  0  0  0  0  0  0  0  0  0  0
    8.0132  -17.6176   26.2642 N   0  0  0  0  0  0  0  0  0  0  0  0
   11.7051  -21.2589   26.8820 C   0  0  0  0  0  0  0  0  0  0  0  0
   12.1820  -19.9820   27.2816 O   0  0  0  0  0  0  0  0  0  0  0  0
   13.1516  -19.9514   28.0915 C   0  0  0  0  0  0  0  0  0  0  0  0
   11.5642  -18.7118   26.7665 C   0  0  1  0  0  0  0  0  0  0  0  0
   10.5319  -18.2045   27.6941 N   0  0  0  0  0  0  0  0  0  0  0  0
    9.8581  -17.0114   27.3802 C   0  0  0  0  0  0  0  0  0  0  0  0
   11.1388  -18.0724   29.0470 O   0  0  0  0  0  0  0  0  0  0  0  0
   10.8933  -18.9901   30.0577 O   0  0  0  0  0  0  0  0  0  0  0  0
  2  1  1  0
  2  3  2  0
  4  5  1  0
  4  2  1  0
  6  5  1  0
  7  6  1  0
  8 10  1  0
  8  7  1  0
  8  9  1  6
 10 11  2  0
 13 14  2  0
 13 12  1  0
 15 13  1  0
 16 15  1  0
 17 16  1  6
 17 19  1  0
 18 10  1  0
 18 17  1  0
 19 20  2  0
 22 21  1  0
 22 24  1  0
 23 22  2  0
 25 24  1  6
 25 27  1  0
 26 19  1  0
 26 25  1  0
 27 28  1  0
 29 27  2  0
M  END
$$$$
