RQN.pdb
     RDKit          3D

 29 28  0  0  1  0  0  0  0  0999 V2000
    6.8892  -15.1885   14.0591 N   0  0  0  0  0  0  0  0  0  0  0  0
    7.9103  -14.4334   14.6884 C   0  0  0  0  0  0  0  0  0  0  0  0
    7.9039  -13.1378   14.5365 N   0  0  0  0  0  0  0  0  0  0  0  0
    8.8708  -15.1114   15.4418 N   0  0  0  0  0  0  0  0  0  0  0  0
    9.1537  -14.6966   16.8287 C   0  0  0  0  0  0  0  0  0  0  0  0
    7.8518  -14.4461   17.5339 C   0  0  0  0  0  0  0  0  0  0  0  0
    7.9226  -13.8807   18.9060 C   0  0  0  0  0  0  0  0  0  0  0  0
    8.7782  -14.6951   19.8040 C   0  0  2  0  0  0  0  0  0  0  0  0
    8.3183  -16.0397   19.9438 N   0  0  0  0  0  0  0  0  0  0  0  0
    8.8875  -14.0929   21.1676 C   0  0  0  0  0  0  0  0  0  0  0  0
    9.1823  -12.8742   21.3278 O   0  0  0  0  0  0  0  0  0  0  0  0
    8.5743  -12.5392   15.0331 N   0  0  0  0  0  0  0  0  0  0  0  0
    7.4110  -14.4182   27.4748 C   0  0  0  0  0  0  0  0  0  0  0  0
    6.5071  -14.7405   26.4313 O   0  0  0  0  0  0  0  0  0  0  0  0
    5.7771  -15.7803   26.6282 C   0  0  0  0  0  0  0  0  0  0  0  0
    6.3833  -13.9483   25.1911 C   0  0  0  0  0  0  0  0  0  0  0  0
    6.9551  -14.5499   23.9607 C   0  0  2  0  0  0  0  0  0  0  0  0
    8.3959  -14.2795   23.6369 N   0  0  0  0  0  0  0  0  0  0  0  0
    8.6566  -14.9011   22.2946 C   0  0  0  0  0  0  0  0  0  0  0  0
    9.3134  -14.8405   24.6122 O   0  0  0  0  0  0  0  0  0  0  0  0
    9.1519  -14.7100   25.8786 N   0  0  0  0  0  0  0  0  0  0  0  0
    8.0575  -19.1975   26.1817 C   0  0  0  0  0  0  0  0  0  0  0  0
    9.1275  -18.2938   25.9449 O   0  0  0  0  0  0  0  0  0  0  0  0
    9.7555  -17.8604   26.9522 C   0  0  0  0  0  0  0  0  0  0  0  0
    9.5052  -17.8646   24.5544 C   0  0  2  0  0  0  0  0  0  0  0  0
   10.6771  -16.9646   24.5721 N   0  0  0  0  0  0  0  0  0  0  0  0
   10.4908  -15.5950   24.3162 C   0  0  0  0  0  0  0  0  0  0  0  0
   11.6937  -17.4971   23.6239 O   0  0  0  0  0  0  0  0  0  0  0  0
   11.6455  -17.2280   22.2640 O   0  0  0  0  0  0  0  0  0  0  0  0
  2  1  1  0
  2  3  2  0
  4  5  1  0
  4  2  1  0
  6  5  1  0
  7  6  1  0
  8 10  1  0
  8  7  1  0
  8  9  1  1
 10 11  2  0
 13 14  2  0
 13 12  1  0
 15 13  1  0
 16 15  1  0
 17 16  1  6
 17 19  1  0
 18 10  1  0
 18 17  1  0
 19 20  2  0
 22 21  1  0
 22 24  1  0
 23 22  2  0
 25 24  1  1
 25 27  1  0
 26 19  1  0
 26 25  1  0
 27 28  1  0
 29 27  2  0
M  END
$$$$
