RQN.pdb
     RDKit          3D

 29 28  0  0  1  0  0  0  0  0999 V2000
    8.2529  -13.9702   12.4315 N   0  0  0  0  0  0  0  0  0  0  0  0
    7.6308  -14.3230   13.6551 C   0  0  0  0  0  0  0  0  0  0  0  0
    6.3351  -14.4730   13.6691 N   0  0  0  0  0  0  0  0  0  0  0  0
    8.4339  -14.4955   14.7844 N   0  0  0  0  0  0  0  0  0  0  0  0
    8.7617  -13.3429   15.6443 C   0  0  0  0  0  0  0  0  0  0  0  0
    7.7803  -13.2920   16.7798 C   0  0  0  0  0  0  0  0  0  0  0  0
    8.3350  -13.3444   18.1571 C   0  0  0  0  0  0  0  0  0  0  0  0
    9.0842  -14.5995   18.4119 C   0  0  2  0  0  0  0  0  0  0  0  0
    8.2387  -15.6869   18.7885 N   0  0  0  0  0  0  0  0  0  0  0  0
   10.1224  -14.4239   19.4728 C   0  0  0  0  0  0  0  0  0  0  0  0
   11.0331  -13.5539   19.3655 O   0  0  0  0  0  0  0  0  0  0  0  0
    5.8470  -14.8175   14.5043 N   0  0  0  0  0  0  0  0  0  0  0  0
    9.9916  -17.8323   24.9775 C   0  0  0  0  0  0  0  0  0  0  0  0
   11.1666  -17.0434   25.0590 O   0  0  0  0  0  0  0  0  0  0  0  0
   11.8437  -17.1634   26.1454 C   0  0  0  0  0  0  0  0  0  0  0  0
   11.6142  -16.1398   23.9800 C   0  0  0  0  0  0  0  0  0  0  0  0
   10.7298  -16.0369   22.7926 C   0  0  1  0  0  0  0  0  0  0  0  0
   11.1500  -15.1389   21.6652 N   0  0  0  0  0  0  0  0  0  0  0  0
   10.0827  -15.2446   20.6136 C   0  0  0  0  0  0  0  0  0  0  0  0
   12.4300  -15.5095   21.0891 O   0  0  0  0  0  0  0  0  0  0  0  0
   12.6355  -16.6368   20.5114 N   0  0  0  0  0  0  0  0  0  0  0  0
   14.1201  -15.0074   17.8599 C   0  0  0  0  0  0  0  0  0  0  0  0
   14.9534  -13.9992   18.4138 O   0  0  0  0  0  0  0  0  0  0  0  0
   15.1005  -12.9361   17.7468 C   0  0  0  0  0  0  0  0  0  0  0  0
   15.6371  -14.1809   19.7404 C   0  0  2  0  0  0  0  0  0  0  0  0
   14.8749  -15.0970   20.6141 N   0  0  0  0  0  0  0  0  0  0  0  0
   13.6091  -14.7014   21.0802 C   0  0  0  0  0  0  0  0  0  0  0  0
   15.7277  -15.4522   21.7814 O   0  0  0  0  0  0  0  0  0  0  0  0
   16.9889  -16.0096   21.6302 O   0  0  0  0  0  0  0  0  0  0  0  0
  2  1  1  0
  2  3  2  0
  4  5  1  0
  4  2  1  0
  6  5  1  0
  7  6  1  0
  8 10  1  0
  8  7  1  0
  8  9  1  1
 10 11  2  0
 13 14  2  0
 13 12  1  0
 15 13  1  0
 16 15  1  0
 17 16  1  1
 17 19  1  0
 18 10  1  0
 18 17  1  0
 19 20  2  0
 22 21  1  0
 22 24  1  0
 23 22  2  0
 25 24  1  6
 25 27  1  0
 26 19  1  0
 26 25  1  0
 27 28  1  0
 29 27  2  0
M  END
$$$$
