RQN.pdb
     RDKit          3D

 29 28  0  0  1  0  0  0  0  0999 V2000
    6.0888  -22.6873   25.7716 N   0  0  0  0  0  0  0  0  0  0  0  0
    5.2136  -22.8279   24.6657 C   0  0  0  0  0  0  0  0  0  0  0  0
    4.3658  -23.8193   24.6705 N   0  0  0  0  0  0  0  0  0  0  0  0
    5.2992  -21.8984   23.6271 N   0  0  0  0  0  0  0  0  0  0  0  0
    6.3463  -20.8598   23.6459 C   0  0  0  0  0  0  0  0  0  0  0  0
    6.2190  -20.0219   22.4063 C   0  0  0  0  0  0  0  0  0  0  0  0
    5.7069  -18.6374   22.5742 C   0  0  0  0  0  0  0  0  0  0  0  0
    6.4346  -17.6638   21.7233 C   0  0  2  0  0  0  0  0  0  0  0  0
    7.1259  -18.2807   20.6367 N   0  0  0  0  0  0  0  0  0  0  0  0
    7.4199  -16.8618   22.5108 C   0  0  0  0  0  0  0  0  0  0  0  0
    8.6352  -16.7930   22.1701 O   0  0  0  0  0  0  0  0  0  0  0  0
    3.6785  -23.9370   23.9167 N   0  0  0  0  0  0  0  0  0  0  0  0
    5.4100  -12.4468   26.7218 C   0  0  0  0  0  0  0  0  0  0  0  0
    6.8225  -12.3256   26.7145 O   0  0  0  0  0  0  0  0  0  0  0  0
    7.3025  -11.3632   27.4189 C   0  0  0  0  0  0  0  0  0  0  0  0
    7.7114  -13.2350   25.9635 C   0  0  0  0  0  0  0  0  0  0  0  0
    7.0510  -14.3023   25.1713 C   0  0  2  0  0  0  0  0  0  0  0  0
    7.9147  -15.2485   24.3886 N   0  0  0  0  0  0  0  0  0  0  0  0
    6.9832  -16.1698   23.6539 C   0  0  0  0  0  0  0  0  0  0  0  0
    8.8040  -16.0327   25.2262 O   0  0  0  0  0  0  0  0  0  0  0  0
    9.8326  -15.5351   25.8102 N   0  0  0  0  0  0  0  0  0  0  0  0
   11.4693  -19.1164   23.4185 C   0  0  0  0  0  0  0  0  0  0  0  0
   10.7922  -19.4287   24.6275 O   0  0  0  0  0  0  0  0  0  0  0  0
   10.1145  -20.4950   24.6549 C   0  0  0  0  0  0  0  0  0  0  0  0
   10.8730  -18.5324   25.8319 C   0  0  2  0  0  0  0  0  0  0  0  0
    9.5264  -18.1846   26.3312 N   0  0  0  0  0  0  0  0  0  0  0  0
    8.6696  -17.4263   25.5145 C   0  0  0  0  0  0  0  0  0  0  0  0
    9.6741  -17.4966   27.6429 O   0  0  0  0  0  0  0  0  0  0  0  0
   10.4127  -18.0424   28.6824 O   0  0  0  0  0  0  0  0  0  0  0  0
  2  1  1  0
  2  3  2  0
  4  5  1  0
  4  2  1  0
  6  5  1  0
  7  6  1  0
  8 10  1  0
  8  7  1  0
  8  9  1  6
 10 11  2  0
 13 14  2  0
 13 12  1  0
 15 13  1  0
 16 15  1  0
 17 16  1  6
 17 19  1  0
 18 10  1  0
 18 17  1  0
 19 20  2  0
 22 21  1  0
 22 24  1  0
 23 22  2  0
 25 24  1  6
 25 27  1  0
 26 19  1  0
 26 25  1  0
 27 28  1  0
 29 27  2  0
M  END
$$$$
