LGN.pdb
     RDKit          3D

 21 20  0  0  1  0  0  0  0  0999 V2000
    8.6245  -11.9234   18.9425 C   0  0  0  0  0  0  0  0  0  0  0  0
    7.7707  -13.1548   18.9185 C   0  0  2  0  0  0  0  0  0  0  0  0
    6.3018  -12.8573   18.8818 C   0  0  0  0  0  0  0  0  0  0  0  0
    8.0768  -14.0230   20.1378 C   0  0  0  0  0  0  0  0  0  0  0  0
    9.5952  -14.2411   20.1059 C   0  0  2  0  0  0  0  0  0  0  0  0
    9.9380  -14.6024   18.7686 N   0  0  0  0  0  0  0  0  0  0  0  0
    9.8880  -15.3090   21.0902 C   0  0  0  0  0  0  0  0  0  0  0  0
    9.6316  -15.1890   22.3131 O   0  0  0  0  0  0  0  0  0  0  0  0
   10.4933  -16.5653   20.6920 N   0  0  0  0  0  0  0  0  0  0  0  0
   10.8267  -17.5463   21.6931 C   0  0  0  0  0  0  0  0  0  0  0  0
   12.1721  -17.4087   22.2245 C   0  0  0  0  0  0  0  0  0  0  0  0
   12.6341  -18.3529   22.9408 O   0  0  0  0  0  0  0  0  0  0  0  0
   14.8038  -14.3844   19.5333 N   0  0  0  0  0  0  0  0  0  0  0  0
   15.2932  -15.4044   20.4169 C   0  0  0  0  0  0  0  0  0  0  0  0
   15.8259  -16.4406   19.9484 O   0  0  0  0  0  0  0  0  0  0  0  0
   15.1624  -15.2197   21.8777 C   0  0  0  0  0  0  0  0  0  0  0  0
   14.3612  -16.3095   22.5372 C   0  0  2  0  0  0  0  0  0  0  0  0
   12.9933  -16.3027   21.9988 N   0  0  0  0  0  0  0  0  0  0  0  0
   14.2801  -16.1343   23.9988 C   0  0  0  0  0  0  0  0  0  0  0  0
   13.1962  -15.9078   24.6049 O   0  0  0  0  0  0  0  0  0  0  0  0
   15.4361  -16.2190   24.7559 O   0  0  0  0  0  0  0  0  0  0  0  0
  2  3  1  1
  2  4  1  0
  2  1  1  0
  5  4  1  0
  5  7  1  0
  5  6  1  6
  7  8  2  0
  9 10  1  0
  9  7  1  0
 10 11  1  0
 11 18  1  0
 11 12  2  0
 13 14  1  0
 14 15  2  0
 17 16  1  6
 16 14  1  0
 17 19  1  0
 18 17  1  0
 19 21  1  0
 20 19  2  0
M  END
$$$$
