LGN.pdb
     RDKit          3D

 21 20  0  0  1  0  0  0  0  0999 V2000
    6.9163  -12.4595   27.9056 C   0  0  0  0  0  0  0  0  0  0  0  0
    6.7344  -12.4428   26.4181 C   0  0  2  0  0  0  0  0  0  0  0  0
    5.9177  -11.2827   25.9335 C   0  0  0  0  0  0  0  0  0  0  0  0
    6.0787  -13.7446   25.9602 C   0  0  0  0  0  0  0  0  0  0  0  0
    7.1825  -14.8062   26.0539 C   0  0  2  0  0  0  0  0  0  0  0  0
    8.3757  -14.1346   26.4561 N   0  0  0  0  0  0  0  0  0  0  0  0
    7.2871  -15.4245   24.7116 C   0  0  0  0  0  0  0  0  0  0  0  0
    6.4217  -16.2152   24.2630 O   0  0  0  0  0  0  0  0  0  0  0  0
    8.4065  -15.1479   23.8320 N   0  0  0  0  0  0  0  0  0  0  0  0
    8.5702  -15.9132   22.6224 C   0  0  0  0  0  0  0  0  0  0  0  0
    9.7434  -16.7706   22.6246 C   0  0  0  0  0  0  0  0  0  0  0  0
    9.9411  -17.5202   21.6161 O   0  0  0  0  0  0  0  0  0  0  0  0
   14.6112  -18.3074   22.0821 N   0  0  0  0  0  0  0  0  0  0  0  0
   13.8723  -17.0883   22.2503 C   0  0  0  0  0  0  0  0  0  0  0  0
   13.8927  -16.2108   21.3521 O   0  0  0  0  0  0  0  0  0  0  0  0
   13.0914  -16.8805   23.4881 C   0  0  0  0  0  0  0  0  0  0  0  0
   11.8371  -17.7106   23.5364 C   0  0  2  0  0  0  0  0  0  0  0  0
   10.6711  -16.8248   23.6663 N   0  0  0  0  0  0  0  0  0  0  0  0
   11.8320  -18.6461   24.6758 C   0  0  0  0  0  0  0  0  0  0  0  0
   10.9692  -18.6034   25.5964 O   0  0  0  0  0  0  0  0  0  0  0  0
   12.8110  -19.6217   24.7550 O   0  0  0  0  0  0  0  0  0  0  0  0
  2  3  1  1
  2  4  1  0
  2  1  1  0
  5  4  1  0
  5  7  1  0
  5  6  1  6
  7  8  2  0
  9 10  1  0
  9  7  1  0
 10 11  1  0
 11 18  1  0
 11 12  2  0
 13 14  1  0
 14 15  2  0
 17 16  1  1
 16 14  1  0
 17 19  1  0
 18 17  1  0
 19 21  1  0
 20 19  2  0
M  END
$$$$
