LGN.pdb
     RDKit          3D

 21 20  0  0  1  0  0  0  0  0999 V2000
    7.5776  -13.4341   18.0581 C   0  0  0  0  0  0  0  0  0  0  0  0
    7.1624  -13.4288   19.4981 C   0  0  2  0  0  0  0  0  0  0  0  0
    7.0397  -12.0503   20.0747 C   0  0  0  0  0  0  0  0  0  0  0  0
    8.1599  -14.2338   20.3294 C   0  0  0  0  0  0  0  0  0  0  0  0
    8.1365  -15.6460   19.7299 C   0  0  2  0  0  0  0  0  0  0  0  0
    6.8333  -16.1782   19.9639 N   0  0  0  0  0  0  0  0  0  0  0  0
    9.2079  -16.4101   20.4106 C   0  0  0  0  0  0  0  0  0  0  0  0
    9.0762  -16.8706   21.5708 O   0  0  0  0  0  0  0  0  0  0  0  0
   10.4815  -16.6715   19.7680 N   0  0  0  0  0  0  0  0  0  0  0  0
   11.4796  -17.4531   20.4525 C   0  0  0  0  0  0  0  0  0  0  0  0
   12.2035  -16.7158   21.4742 C   0  0  0  0  0  0  0  0  0  0  0  0
   12.5705  -15.5268   21.2099 O   0  0  0  0  0  0  0  0  0  0  0  0
   12.8577  -17.8693   26.7473 N   0  0  0  0  0  0  0  0  0  0  0  0
   12.1154  -17.4477   25.5933 C   0  0  0  0  0  0  0  0  0  0  0  0
   11.1673  -18.1502   25.1636 O   0  0  0  0  0  0  0  0  0  0  0  0
   12.4798  -16.1826   24.9212 C   0  0  0  0  0  0  0  0  0  0  0  0
   13.2878  -16.3951   23.6695 C   0  0  2  0  0  0  0  0  0  0  0  0
   12.5233  -17.2301   22.7318 N   0  0  0  0  0  0  0  0  0  0  0  0
   14.5708  -17.0682   23.9426 C   0  0  0  0  0  0  0  0  0  0  0  0
   14.8278  -18.2414   23.5540 O   0  0  0  0  0  0  0  0  0  0  0  0
   15.5489  -16.3969   24.6563 O   0  0  0  0  0  0  0  0  0  0  0  0
  2  3  1  1
  2  4  1  0
  2  1  1  0
  5  4  1  0
  5  7  1  0
  5  6  1  1
  7  8  2  0
  9 10  1  0
  9  7  1  0
 10 11  1  0
 11 18  1  0
 11 12  2  0
 13 14  1  0
 14 15  2  0
 17 16  1  1
 16 14  1  0
 17 19  1  0
 18 17  1  0
 19 21  1  0
 20 19  2  0
M  END
$$$$
