LGN.pdb
     RDKit          3D

 21 20  0  0  1  0  0  0  0  0999 V2000
    9.0828  -19.5438   20.0953 C   0  0  0  0  0  0  0  0  0  0  0  0
    7.6664  -19.0688   19.9765 C   0  0  2  0  0  0  0  0  0  0  0  0
    7.0366  -19.4059   18.6584 C   0  0  0  0  0  0  0  0  0  0  0  0
    7.6056  -17.5573   20.1900 C   0  0  0  0  0  0  0  0  0  0  0  0
    8.1293  -17.3305   21.6143 C   0  0  2  0  0  0  0  0  0  0  0  0
    7.1713  -17.8971   22.5074 N   0  0  0  0  0  0  0  0  0  0  0  0
    8.2827  -15.8660   21.7784 C   0  0  0  0  0  0  0  0  0  0  0  0
    9.3455  -15.2622   21.4933 O   0  0  0  0  0  0  0  0  0  0  0  0
    7.2025  -15.0400   22.2825 N   0  0  0  0  0  0  0  0  0  0  0  0
    7.3955  -13.6190   22.4217 C   0  0  0  0  0  0  0  0  0  0  0  0
    7.8058  -13.2102   23.7544 C   0  0  0  0  0  0  0  0  0  0  0  0
    8.0136  -11.9732   23.9656 O   0  0  0  0  0  0  0  0  0  0  0  0
    5.1448  -12.5843   26.5627 N   0  0  0  0  0  0  0  0  0  0  0  0
    6.5295  -12.3258   26.8388 C   0  0  0  0  0  0  0  0  0  0  0  0
    6.9583  -11.1456   26.8560 O   0  0  0  0  0  0  0  0  0  0  0  0
    7.4391  -13.4612   27.1013 C   0  0  0  0  0  0  0  0  0  0  0  0
    8.5410  -13.5773   26.0831 C   0  0  2  0  0  0  0  0  0  0  0  0
    7.9873  -14.0910   24.8220 N   0  0  0  0  0  0  0  0  0  0  0  0
    9.6102  -14.4928   26.5217 C   0  0  0  0  0  0  0  0  0  0  0  0
   10.3234  -14.2786   27.5410 O   0  0  0  0  0  0  0  0  0  0  0  0
    9.8561  -15.6444   25.7936 O   0  0  0  0  0  0  0  0  0  0  0  0
  2  3  1  6
  2  4  1  0
  2  1  1  0
  5  4  1  0
  5  7  1  0
  5  6  1  1
  7  8  2  0
  9 10  1  0
  9  7  1  0
 10 11  1  0
 11 18  1  0
 11 12  2  0
 13 14  1  0
 14 15  2  0
 17 16  1  1
 16 14  1  0
 17 19  1  0
 18 17  1  0
 19 21  1  0
 20 19  2  0
M  END
$$$$
