LGN.pdb
     RDKit          3D

 21 20  0  0  1  0  0  0  0  0999 V2000
    5.8802  -11.4427   27.2504 C   0  0  0  0  0  0  0  0  0  0  0  0
    6.8330  -12.1012   26.2993 C   0  0  2  0  0  0  0  0  0  0  0  0
    7.0092  -11.3440   25.0174 C   0  0  0  0  0  0  0  0  0  0  0  0
    6.3563  -13.5180   25.9840 C   0  0  0  0  0  0  0  0  0  0  0  0
    7.5713  -14.2238   25.3676 C   0  0  2  0  0  0  0  0  0  0  0  0
    7.5067  -14.0131   23.9577 N   0  0  0  0  0  0  0  0  0  0  0  0
    7.4663  -15.6519   25.7479 C   0  0  0  0  0  0  0  0  0  0  0  0
    7.6302  -16.0507   26.9267 O   0  0  0  0  0  0  0  0  0  0  0  0
    7.1654  -16.6793   24.7696 N   0  0  0  0  0  0  0  0  0  0  0  0
    7.1266  -18.0615   25.1745 C   0  0  0  0  0  0  0  0  0  0  0  0
    8.4317  -18.6994   25.2101 C   0  0  0  0  0  0  0  0  0  0  0  0
    8.4970  -19.9119   25.5891 O   0  0  0  0  0  0  0  0  0  0  0  0
   10.9323  -18.2759   21.8039 N   0  0  0  0  0  0  0  0  0  0  0  0
   11.3934  -17.4582   22.8898 C   0  0  0  0  0  0  0  0  0  0  0  0
   11.3379  -16.2066   22.8030 O   0  0  0  0  0  0  0  0  0  0  0  0
   11.9317  -18.1054   24.1050 C   0  0  0  0  0  0  0  0  0  0  0  0
   10.8782  -18.8287   24.8997 C   0  0  2  0  0  0  0  0  0  0  0  0
    9.6229  -18.0650   24.8538 N   0  0  0  0  0  0  0  0  0  0  0  0
   11.2630  -18.9945   26.3132 C   0  0  0  0  0  0  0  0  0  0  0  0
   10.9497  -18.1660   27.2127 O   0  0  0  0  0  0  0  0  0  0  0  0
   12.0017  -20.1038   26.6880 O   0  0  0  0  0  0  0  0  0  0  0  0
  2  3  1  6
  2  4  1  0
  2  1  1  0
  5  4  1  0
  5  7  1  0
  5  6  1  6
  7  8  2  0
  9 10  1  0
  9  7  1  0
 10 11  1  0
 11 18  1  0
 11 12  2  0
 13 14  1  0
 14 15  2  0
 17 16  1  6
 16 14  1  0
 17 19  1  0
 18 17  1  0
 19 21  1  0
 20 19  2  0
M  END
$$$$
