LGN.pdb
     RDKit          3D

 21 20  0  0  1  0  0  0  0  0999 V2000
    5.3632  -12.3960   25.7805 C   0  0  0  0  0  0  0  0  0  0  0  0
    6.5420  -13.1642   26.2964 C   0  0  2  0  0  0  0  0  0  0  0  0
    7.1408  -12.5697   27.5357 C   0  0  0  0  0  0  0  0  0  0  0  0
    7.6163  -13.2563   25.2141 C   0  0  0  0  0  0  0  0  0  0  0  0
    7.2362  -14.4819   24.3727 C   0  0  2  0  0  0  0  0  0  0  0  0
    6.6281  -15.4234   25.2560 N   0  0  0  0  0  0  0  0  0  0  0  0
    8.4918  -14.9812   23.7650 C   0  0  0  0  0  0  0  0  0  0  0  0
    9.3828  -14.2126   23.3282 O   0  0  0  0  0  0  0  0  0  0  0  0
    8.7643  -16.4000   23.6396 N   0  0  0  0  0  0  0  0  0  0  0  0
   10.0453  -16.8405   23.1489 C   0  0  0  0  0  0  0  0  0  0  0  0
   10.8638  -17.4985   24.1532 C   0  0  0  0  0  0  0  0  0  0  0  0
   12.1230  -17.5293   23.9754 O   0  0  0  0  0  0  0  0  0  0  0  0
   11.9895  -16.9683   29.0486 N   0  0  0  0  0  0  0  0  0  0  0  0
   11.0753  -16.0779   28.3914 C   0  0  0  0  0  0  0  0  0  0  0  0
   10.7120  -15.0178   28.9584 O   0  0  0  0  0  0  0  0  0  0  0  0
   10.5699  -16.4233   27.0459 C   0  0  0  0  0  0  0  0  0  0  0  0
   10.9802  -17.8012   26.6013 C   0  0  2  0  0  0  0  0  0  0  0  0
   10.3553  -18.1013   25.3050 N   0  0  0  0  0  0  0  0  0  0  0  0
   10.5684  -18.8417   27.5612 C   0  0  0  0  0  0  0  0  0  0  0  0
    9.3815  -19.2617   27.6525 O   0  0  0  0  0  0  0  0  0  0  0  0
   11.5142  -19.3936   28.4083 O   0  0  0  0  0  0  0  0  0  0  0  0
  2  3  1  1
  2  4  1  0
  2  1  1  0
  5  4  1  0
  5  7  1  0
  5  6  1  1
  7  8  2  0
  9 10  1  0
  9  7  1  0
 10 11  1  0
 11 18  1  0
 11 12  2  0
 13 14  1  0
 14 15  2  0
 17 16  1  1
 16 14  1  0
 17 19  1  0
 18 17  1  0
 19 21  1  0
 20 19  2  0
M  END
$$$$
