LGN.pdb
     RDKit          3D

 21 20  0  0  1  0  0  0  0  0999 V2000
    8.2093  -13.5830   19.1982 C   0  0  0  0  0  0  0  0  0  0  0  0
    7.6763  -13.5594   20.5988 C   0  0  2  0  0  0  0  0  0  0  0  0
    7.8606  -12.2373   21.2811 C   0  0  0  0  0  0  0  0  0  0  0  0
    8.3492  -14.6511   21.4292 C   0  0  0  0  0  0  0  0  0  0  0  0
    8.0320  -15.9639   20.7011 C   0  0  2  0  0  0  0  0  0  0  0  0
    6.6112  -16.0932   20.6717 N   0  0  0  0  0  0  0  0  0  0  0  0
    8.6986  -17.0423   21.4679 C   0  0  0  0  0  0  0  0  0  0  0  0
    8.3804  -17.3276   22.6481 O   0  0  0  0  0  0  0  0  0  0  0  0
    9.7666  -17.8365   20.8921 N   0  0  0  0  0  0  0  0  0  0  0  0
   10.3624  -18.8980   21.6629 C   0  0  0  0  0  0  0  0  0  0  0  0
   11.5414  -18.4914   22.4086 C   0  0  0  0  0  0  0  0  0  0  0  0
   12.1071  -19.3531   23.1539 O   0  0  0  0  0  0  0  0  0  0  0  0
   16.0413  -16.5094   23.7000 N   0  0  0  0  0  0  0  0  0  0  0  0
   15.4485  -15.5715   22.7893 C   0  0  0  0  0  0  0  0  0  0  0  0
   16.1142  -14.5915   22.3730 O   0  0  0  0  0  0  0  0  0  0  0  0
   14.0514  -15.7736   22.3503 C   0  0  0  0  0  0  0  0  0  0  0  0
   13.4068  -16.9780   22.9815 C   0  0  2  0  0  0  0  0  0  0  0  0
   12.0954  -17.2110   22.3595 N   0  0  0  0  0  0  0  0  0  0  0  0
   13.2028  -16.8047   24.4314 C   0  0  0  0  0  0  0  0  0  0  0  0
   12.2297  -16.1638   24.9169 O   0  0  0  0  0  0  0  0  0  0  0  0
   14.1107  -17.3642   25.3142 O   0  0  0  0  0  0  0  0  0  0  0  0
  2  3  1  1
  2  4  1  0
  2  1  1  0
  5  4  1  0
  5  7  1  0
  5  6  1  1
  7  8  2  0
  9 10  1  0
  9  7  1  0
 10 11  1  0
 11 18  1  0
 11 12  2  0
 13 14  1  0
 14 15  2  0
 17 16  1  6
 16 14  1  0
 17 19  1  0
 18 17  1  0
 19 21  1  0
 20 19  2  0
M  END
$$$$
