LGN.pdb
     RDKit          3D

 21 20  0  0  1  0  0  0  0  0999 V2000
    5.7295  -12.3469   26.5266 C   0  0  0  0  0  0  0  0  0  0  0  0
    7.0673  -12.9239   26.8780 C   0  0  2  0  0  0  0  0  0  0  0  0
    7.9378  -11.9767   27.6479 C   0  0  0  0  0  0  0  0  0  0  0  0
    7.7967  -13.3559   25.6070 C   0  0  0  0  0  0  0  0  0  0  0  0
    6.8705  -14.3814   24.9401 C   0  0  2  0  0  0  0  0  0  0  0  0
    6.6116  -15.4008   25.9045 N   0  0  0  0  0  0  0  0  0  0  0  0
    7.5876  -14.8810   23.7437 C   0  0  0  0  0  0  0  0  0  0  0  0
    8.0516  -14.1139   22.8652 O   0  0  0  0  0  0  0  0  0  0  0  0
    7.7957  -16.2984   23.5184 N   0  0  0  0  0  0  0  0  0  0  0  0
    8.4233  -16.7433   22.3003 C   0  0  0  0  0  0  0  0  0  0  0  0
    9.8699  -16.8474   22.3895 C   0  0  0  0  0  0  0  0  0  0  0  0
   10.4984  -17.3413   21.4000 O   0  0  0  0  0  0  0  0  0  0  0  0
   14.7595  -17.2723   23.7842 N   0  0  0  0  0  0  0  0  0  0  0  0
   14.3327  -15.9028   23.7329 C   0  0  0  0  0  0  0  0  0  0  0  0
   15.1819  -14.9777   23.7505 O   0  0  0  0  0  0  0  0  0  0  0  0
   12.8882  -15.5974   23.6596 C   0  0  0  0  0  0  0  0  0  0  0  0
   12.0309  -16.8318   23.5846 C   0  0  2  0  0  0  0  0  0  0  0  0
   10.6172  -16.4388   23.4955 N   0  0  0  0  0  0  0  0  0  0  0  0
   12.1935  -17.6955   24.7683 C   0  0  0  0  0  0  0  0  0  0  0  0
   12.9328  -18.7187   24.7763 O   0  0  0  0  0  0  0  0  0  0  0  0
   11.5114  -17.3842   25.9321 O   0  0  0  0  0  0  0  0  0  0  0  0
  2  3  1  6
  2  4  1  0
  2  1  1  0
  5  4  1  0
  5  7  1  0
  5  6  1  1
  7  8  2  0
  9 10  1  0
  9  7  1  0
 10 11  1  0
 11 18  1  0
 11 12  2  0
 13 14  1  0
 14 15  2  0
 17 16  1  1
 16 14  1  0
 17 19  1  0
 18 17  1  0
 19 21  1  0
 20 19  2  0
M  END
$$$$
