LGN.pdb
     RDKit          3D

 21 20  0  0  1  0  0  0  0  0999 V2000
    8.7131  -12.1090   19.6477 C   0  0  0  0  0  0  0  0  0  0  0  0
    8.3800  -13.5134   19.2444 C   0  0  2  0  0  0  0  0  0  0  0  0
    6.9084  -13.7994   19.2523 C   0  0  0  0  0  0  0  0  0  0  0  0
    9.0884  -14.5015   20.1697 C   0  0  0  0  0  0  0  0  0  0  0  0
   10.5678  -14.0957   20.1352 C   0  0  2  0  0  0  0  0  0  0  0  0
   11.0387  -14.3434   18.8111 N   0  0  0  0  0  0  0  0  0  0  0  0
   11.2537  -14.9171   21.1599 C   0  0  0  0  0  0  0  0  0  0  0  0
   11.9650  -15.9084   20.8654 O   0  0  0  0  0  0  0  0  0  0  0  0
   11.1403  -14.6188   22.5745 N   0  0  0  0  0  0  0  0  0  0  0  0
   11.9193  -15.3682   23.5270 C   0  0  0  0  0  0  0  0  0  0  0  0
   11.4537  -16.7306   23.7236 C   0  0  0  0  0  0  0  0  0  0  0  0
   10.2462  -17.0008   23.4286 O   0  0  0  0  0  0  0  0  0  0  0  0
   14.7281  -19.9610   22.7412 N   0  0  0  0  0  0  0  0  0  0  0  0
   13.2946  -19.9617   22.8166 C   0  0  0  0  0  0  0  0  0  0  0  0
   12.6096  -19.7950   21.7773 O   0  0  0  0  0  0  0  0  0  0  0  0
   12.6390  -20.1602   24.1265 C   0  0  0  0  0  0  0  0  0  0  0  0
   11.6398  -19.0830   24.4515 C   0  0  2  0  0  0  0  0  0  0  0  0
   12.2493  -17.7660   24.2171 N   0  0  0  0  0  0  0  0  0  0  0  0
   11.1965  -19.1402   25.8564 C   0  0  0  0  0  0  0  0  0  0  0  0
   11.3178  -18.1704   26.6554 O   0  0  0  0  0  0  0  0  0  0  0  0
   10.6189  -20.3029   26.3371 O   0  0  0  0  0  0  0  0  0  0  0  0
  2  3  1  1
  2  4  1  0
  2  1  1  0
  5  4  1  0
  5  7  1  0
  5  6  1  6
  7  8  2  0
  9 10  1  0
  9  7  1  0
 10 11  1  0
 11 18  1  0
 11 12  2  0
 13 14  1  0
 14 15  2  0
 17 16  1  1
 16 14  1  0
 17 19  1  0
 18 17  1  0
 19 21  1  0
 20 19  2  0
M  END
$$$$
