LGN.pdb
     RDKit          3D

 21 20  0  0  1  0  0  0  0  0999 V2000
    9.1216  -12.7397   19.6534 C   0  0  0  0  0  0  0  0  0  0  0  0
    7.8534  -13.3309   19.1164 C   0  0  2  0  0  0  0  0  0  0  0  0
    6.9353  -12.3130   18.5094 C   0  0  0  0  0  0  0  0  0  0  0  0
    7.1147  -14.0735   20.2286 C   0  0  0  0  0  0  0  0  0  0  0  0
    8.1710  -14.9745   20.8817 C   0  0  2  0  0  0  0  0  0  0  0  0
    8.2169  -16.1826   20.1237 N   0  0  0  0  0  0  0  0  0  0  0  0
    7.7380  -15.1831   22.2832 C   0  0  0  0  0  0  0  0  0  0  0  0
    7.6277  -14.2395   23.1035 O   0  0  0  0  0  0  0  0  0  0  0  0
    7.4142  -16.5024   22.7908 N   0  0  0  0  0  0  0  0  0  0  0  0
    6.9742  -16.6548   24.1542 C   0  0  0  0  0  0  0  0  0  0  0  0
    7.9922  -16.3308   25.1391 C   0  0  0  0  0  0  0  0  0  0  0  0
    9.1927  -16.1977   24.7402 O   0  0  0  0  0  0  0  0  0  0  0  0
    6.3886  -13.0324   27.3163 N   0  0  0  0  0  0  0  0  0  0  0  0
    7.7866  -13.3582   27.3172 C   0  0  0  0  0  0  0  0  0  0  0  0
    8.5862  -12.7026   26.6045 O   0  0  0  0  0  0  0  0  0  0  0  0
    8.2700  -14.4697   28.1634 C   0  0  0  0  0  0  0  0  0  0  0  0
    8.8030  -15.6272   27.3631 C   0  0  2  0  0  0  0  0  0  0  0  0
    7.7365  -16.1554   26.5002 N   0  0  0  0  0  0  0  0  0  0  0  0
    9.2835  -16.7243   28.2228 C   0  0  0  0  0  0  0  0  0  0  0  0
    8.7632  -17.8745   28.2246 O   0  0  0  0  0  0  0  0  0  0  0  0
   10.3531  -16.4996   29.0725 O   0  0  0  0  0  0  0  0  0  0  0  0
  2  3  1  1
  2  4  1  0
  2  1  1  0
  5  4  1  0
  5  7  1  0
  5  6  1  6
  7  8  2  0
  9 10  1  0
  9  7  1  0
 10 11  1  0
 11 18  1  0
 11 12  2  0
 13 14  1  0
 14 15  2  0
 17 16  1  1
 16 14  1  0
 17 19  1  0
 18 17  1  0
 19 21  1  0
 20 19  2  0
M  END
$$$$
