HCW.pdb
     RDKit          3D

 31 33  0  0  1  0  0  0  0  0999 V2000
   26.5000  -35.5640   -6.6546 N   0  0  0  0  0  0  0  0  0  0  0  0
   26.2616  -34.2716   -6.0691 C   0  0  1  0  0  0  0  0  0  0  0  0
   25.7114  -33.3526   -7.1318 C   0  0  0  0  0  0  0  0  0  0  0  0
   26.7056  -33.0430   -8.1772 C   0  0  0  0  0  0  0  0  0  0  0  0
   28.0138  -33.4708   -8.1294 C   0  0  0  0  0  0  0  0  0  0  0  0
   28.6491  -33.0276   -9.2182 N   0  0  0  0  0  0  0  0  0  0  0  0
   27.7553  -32.3367   -9.9314 C   0  0  0  0  0  0  0  0  0  0  0  0
   26.5756  -32.3419   -9.3068 N   0  0  0  0  0  0  0  0  0  0  0  0
   25.3995  -34.3444   -4.8684 C   0  0  0  0  0  0  0  0  0  0  0  0
   24.3914  -35.0961   -4.8512 O   0  0  0  0  0  0  0  0  0  0  0  0
   25.6555  -33.5839   -3.6874 N   0  0  0  0  0  0  0  0  0  0  0  0
   24.8503  -33.6050   -2.5131 C   0  0  1  0  0  0  0  0  0  0  0  0
   25.5339  -34.2840   -1.3395 C   0  0  0  0  0  0  0  0  0  0  0  0
   26.2204  -35.8842   -1.8087 S   0  0  0  0  0  0  0  0  0  0  0  0
   24.4389  -32.2506   -2.0610 C   0  0  0  0  0  0  0  0  0  0  0  0
   25.3055  -31.3489   -1.9147 O   0  0  0  0  0  0  0  0  0  0  0  0
   23.0917  -31.9156   -1.7802 N   0  0  0  0  0  0  0  0  0  0  0  0
   22.6633  -30.6293   -1.2530 C   0  0  1  0  0  0  0  0  0  0  0  0
   21.2356  -30.3409   -1.6760 C   0  0  0  0  0  0  0  0  0  0  0  0
   20.8182  -29.0087   -1.1730 C   0  0  0  0  0  0  0  0  0  0  0  0
   21.0087  -27.7987   -1.7889 C   0  0  0  0  0  0  0  0  0  0  0  0
   20.4900  -26.8450   -1.0097 N   0  0  0  0  0  0  0  0  0  0  0  0
   19.9511  -27.3725    0.1207 C   0  0  0  0  0  0  0  0  0  0  0  0
   19.3146  -26.8185    1.2073 C   0  0  0  0  0  0  0  0  0  0  0  0
   18.8708  -27.6327    2.2191 C   0  0  0  0  0  0  0  0  0  0  0  0
   19.0880  -28.9926    2.0961 C   0  0  0  0  0  0  0  0  0  0  0  0
   19.7211  -29.5731    1.0212 C   0  0  0  0  0  0  0  0  0  0  0  0
   20.1570  -28.7315    0.0187 C   0  0  0  0  0  0  0  0  0  0  0  0
   22.6891  -30.7214    0.2245 C   0  0  0  0  0  0  0  0  0  0  0  0
   23.1611  -29.6889    1.0124 O   0  0  0  0  0  0  0  0  0  0  0  0
   22.2743  -31.7591    0.7897 O   0  0  0  0  0  0  0  0  0  0  0  0
  2  1  1  6
  2  9  1  0
  2  3  1  0
  3  4  1  0
  4  8  1  0
  5  6  1  0
  5  4  2  0
  6  7  1  0
  7  8  2  0
  9 10  2  0
 11 12  1  0
 11  9  1  0
 12 15  1  0
 12 13  1  1
 14 13  1  0
 15 17  1  0
 16 15  2  0
 17 18  1  0
 18 19  1  6
 19 20  1  0
 20 28  1  0
 20 21  2  0
 21 22  1  0
 23 22  1  0
 23 24  2  0
 25 24  1  0
 26 25  2  0
 27 28  2  0
 27 26  1  0
 28 23  1  0
 29 30  1  0
 29 18  1  0
 31 29  2  0
M  END
$$$$
