HCW.pdb
     RDKit          3D

 31 33  0  0  1  0  0  0  0  0999 V2000
   18.6297  -12.7941  -18.6903 N   0  0  0  0  0  0  0  0  0  0  0  0
   17.9480  -11.6510  -18.1443 C   0  0  1  0  0  0  0  0  0  0  0  0
   17.2997  -12.0504  -16.8416 C   0  0  0  0  0  0  0  0  0  0  0  0
   16.1446  -12.9467  -17.0399 C   0  0  0  0  0  0  0  0  0  0  0  0
   16.1852  -14.3011  -16.7935 C   0  0  0  0  0  0  0  0  0  0  0  0
   14.9861  -14.8224  -17.0687 N   0  0  0  0  0  0  0  0  0  0  0  0
   14.2122  -13.8135  -17.4789 C   0  0  0  0  0  0  0  0  0  0  0  0
   14.9074  -12.6742  -17.4639 N   0  0  0  0  0  0  0  0  0  0  0  0
   18.8351  -10.4741  -18.0088 C   0  0  0  0  0  0  0  0  0  0  0  0
   20.0187  -10.6103  -17.6062 O   0  0  0  0  0  0  0  0  0  0  0  0
   18.4095   -9.1472  -18.3197 N   0  0  0  0  0  0  0  0  0  0  0  0
   19.2417   -7.9924  -18.2760 C   0  0  1  0  0  0  0  0  0  0  0  0
   18.8134   -6.9174  -19.2592 C   0  0  0  0  0  0  0  0  0  0  0  0
   19.9746   -5.5379  -19.2791 S   0  0  0  0  0  0  0  0  0  0  0  0
   19.2995   -7.3630  -16.9313 C   0  0  0  0  0  0  0  0  0  0  0  0
   18.2415   -7.2066  -16.2667 O   0  0  0  0  0  0  0  0  0  0  0  0
   20.5113   -6.9204  -16.3467 N   0  0  0  0  0  0  0  0  0  0  0  0
   20.5984   -6.2452  -15.0612 C   0  0  1  0  0  0  0  0  0  0  0  0
   21.6912   -6.8709  -14.2157 C   0  0  0  0  0  0  0  0  0  0  0  0
   21.1967   -7.0950  -12.8346 C   0  0  0  0  0  0  0  0  0  0  0  0
   20.8959   -8.2992  -12.2524 C   0  0  0  0  0  0  0  0  0  0  0  0
   20.4819   -8.0692  -11.0027 N   0  0  0  0  0  0  0  0  0  0  0  0
   20.4926   -6.7407  -10.7177 C   0  0  0  0  0  0  0  0  0  0  0  0
   20.1634   -6.0161   -9.5956 C   0  0  0  0  0  0  0  0  0  0  0  0
   20.2821   -4.6488   -9.6140 C   0  0  0  0  0  0  0  0  0  0  0  0
   20.7341   -4.0555  -10.7782 C   0  0  0  0  0  0  0  0  0  0  0  0
   21.0702   -4.7553  -11.9141 C   0  0  0  0  0  0  0  0  0  0  0  0
   20.9414   -6.1282  -11.8680 C   0  0  0  0  0  0  0  0  0  0  0  0
   20.9759   -4.8372  -15.3211 C   0  0  0  0  0  0  0  0  0  0  0  0
   20.5340   -3.8026  -14.5186 O   0  0  0  0  0  0  0  0  0  0  0  0
   21.7163   -4.5617  -16.2928 O   0  0  0  0  0  0  0  0  0  0  0  0
  2  1  1  1
  2  9  1  0
  2  3  1  0
  3  4  1  0
  4  8  1  0
  5  6  1  0
  5  4  2  0
  6  7  1  0
  7  8  2  0
  9 10  2  0
 11 12  1  0
 11  9  1  0
 12 15  1  0
 12 13  1  6
 14 13  1  0
 15 17  1  0
 16 15  2  0
 17 18  1  0
 18 19  1  1
 19 20  1  0
 20 28  1  0
 20 21  2  0
 21 22  1  0
 23 22  1  0
 23 24  2  0
 25 24  1  0
 26 25  2  0
 27 28  2  0
 27 26  1  0
 28 23  1  0
 29 30  1  0
 29 18  1  0
 31 29  2  0
M  END
$$$$
