HCW.pdb
     RDKit          3D

 31 33  0  0  1  0  0  0  0  0999 V2000
   28.1605  -25.6623  -18.2938 N   0  0  0  0  0  0  0  0  0  0  0  0
   26.9486  -25.5523  -17.5262 C   0  0  1  0  0  0  0  0  0  0  0  0
   27.0773  -26.4109  -16.2923 C   0  0  0  0  0  0  0  0  0  0  0  0
   27.0699  -27.8525  -16.6069 C   0  0  0  0  0  0  0  0  0  0  0  0
   26.8474  -28.3510  -17.8712 C   0  0  0  0  0  0  0  0  0  0  0  0
   26.9066  -29.6850  -17.8219 N   0  0  0  0  0  0  0  0  0  0  0  0
   27.1609  -30.0127  -16.5520 C   0  0  0  0  0  0  0  0  0  0  0  0
   27.2612  -28.9076  -15.8102 N   0  0  0  0  0  0  0  0  0  0  0  0
   26.6003  -24.1477  -17.2164 C   0  0  0  0  0  0  0  0  0  0  0  0
   27.4916  -23.2610  -17.1863 O   0  0  0  0  0  0  0  0  0  0  0  0
   25.2641  -23.7269  -16.9404 N   0  0  0  0  0  0  0  0  0  0  0  0
   24.8652  -22.3805  -16.7045 C   0  0  1  0  0  0  0  0  0  0  0  0
   24.4100  -21.6689  -17.9664 C   0  0  0  0  0  0  0  0  0  0  0  0
   23.1390  -22.6087  -18.8344 S   0  0  0  0  0  0  0  0  0  0  0  0
   23.7678  -22.2606  -15.7099 C   0  0  0  0  0  0  0  0  0  0  0  0
   22.9643  -23.2161  -15.5453 O   0  0  0  0  0  0  0  0  0  0  0  0
   23.5757  -21.1004  -14.9206 N   0  0  0  0  0  0  0  0  0  0  0  0
   22.5547  -20.9726  -13.8923 C   0  0  1  0  0  0  0  0  0  0  0  0
   22.8019  -19.7269  -13.0631 C   0  0  0  0  0  0  0  0  0  0  0  0
   23.9462  -19.9491  -12.1448 C   0  0  0  0  0  0  0  0  0  0  0  0
   25.2783  -19.8177  -12.4414 C   0  0  0  0  0  0  0  0  0  0  0  0
   25.9832  -20.1089  -11.3441 N   0  0  0  0  0  0  0  0  0  0  0  0
   25.1673  -20.4353  -10.3077 C   0  0  0  0  0  0  0  0  0  0  0  0
   25.4038  -20.8025   -9.0031 C   0  0  0  0  0  0  0  0  0  0  0  0
   24.3445  -21.0777   -8.1749 C   0  0  0  0  0  0  0  0  0  0  0  0
   23.0698  -20.9710   -8.6997 C   0  0  0  0  0  0  0  0  0  0  0  0
   22.8046  -20.6060   -9.9995 C   0  0  0  0  0  0  0  0  0  0  0  0
   23.8877  -20.3352  -10.8100 C   0  0  0  0  0  0  0  0  0  0  0  0
   21.2509  -20.8118  -14.5753 C   0  0  0  0  0  0  0  0  0  0  0  0
   20.0523  -20.9232  -13.8966 O   0  0  0  0  0  0  0  0  0  0  0  0
   21.2186  -20.5677  -15.8032 O   0  0  0  0  0  0  0  0  0  0  0  0
  2  1  1  1
  2  9  1  0
  2  3  1  0
  3  4  1  0
  4  8  1  0
  5  6  1  0
  5  4  2  0
  6  7  1  0
  7  8  2  0
  9 10  2  0
 11 12  1  0
 11  9  1  0
 12 15  1  0
 12 13  1  6
 14 13  1  0
 15 17  1  0
 16 15  2  0
 17 18  1  0
 18 19  1  6
 19 20  1  0
 20 28  1  0
 20 21  2  0
 21 22  1  0
 23 22  1  0
 23 24  2  0
 25 24  1  0
 26 25  2  0
 27 28  2  0
 27 26  1  0
 28 23  1  0
 29 30  1  0
 29 18  1  0
 31 29  2  0
M  END
$$$$
