HCW.pdb
     RDKit          3D

 31 33  0  0  1  0  0  0  0  0999 V2000
   16.8803  -12.1815  -15.6259 N   0  0  0  0  0  0  0  0  0  0  0  0
   17.0152  -10.7509  -15.6975 C   0  0  1  0  0  0  0  0  0  0  0  0
   16.0130  -10.1225  -14.7609 C   0  0  0  0  0  0  0  0  0  0  0  0
   14.6198  -10.3999  -15.1595 C   0  0  0  0  0  0  0  0  0  0  0  0
   14.1086  -10.0830  -16.3984 C   0  0  0  0  0  0  0  0  0  0  0  0
   12.8282  -10.4626  -16.4431 N   0  0  0  0  0  0  0  0  0  0  0  0
   12.5456  -11.0055  -15.2556 C   0  0  0  0  0  0  0  0  0  0  0  0
   13.6263  -10.9710  -14.4729 N   0  0  0  0  0  0  0  0  0  0  0  0
   18.4017  -10.2997  -15.4442 C   0  0  0  0  0  0  0  0  0  0  0  0
   19.1153  -10.8808  -14.5870 O   0  0  0  0  0  0  0  0  0  0  0  0
   18.9963   -9.2047  -16.1413 N   0  0  0  0  0  0  0  0  0  0  0  0
   20.3171   -8.7193  -15.9230 C   0  0  1  0  0  0  0  0  0  0  0  0
   21.1971   -8.8247  -17.1559 C   0  0  0  0  0  0  0  0  0  0  0  0
   22.9215   -8.4631  -16.7713 S   0  0  0  0  0  0  0  0  0  0  0  0
   20.3537   -7.3033  -15.4741 C   0  0  0  0  0  0  0  0  0  0  0  0
   19.5925   -6.4560  -16.0110 O   0  0  0  0  0  0  0  0  0  0  0  0
   21.2207   -6.8487  -14.4506 N   0  0  0  0  0  0  0  0  0  0  0  0
   21.2847   -5.4713  -13.9871 C   0  0  1  0  0  0  0  0  0  0  0  0
   21.5759   -5.4342  -12.4991 C   0  0  0  0  0  0  0  0  0  0  0  0
   20.3581   -5.8034  -11.7357 C   0  0  0  0  0  0  0  0  0  0  0  0
   20.1813   -6.9158  -10.9541 C   0  0  0  0  0  0  0  0  0  0  0  0
   18.9466   -6.8783  -10.4441 N   0  0  0  0  0  0  0  0  0  0  0  0
   18.2772   -5.7704  -10.8572 C   0  0  0  0  0  0  0  0  0  0  0  0
   17.0110   -5.2904  -10.6144 C   0  0  0  0  0  0  0  0  0  0  0  0
   16.6126   -4.1102  -11.1907 C   0  0  0  0  0  0  0  0  0  0  0  0
   17.5173   -3.4494  -12.0009 C   0  0  0  0  0  0  0  0  0  0  0  0
   18.7890   -3.9061  -12.2607 C   0  0  0  0  0  0  0  0  0  0  0  0
   19.1633   -5.0948  -11.6686 C   0  0  0  0  0  0  0  0  0  0  0  0
   22.4134   -4.8167  -14.6869 C   0  0  0  0  0  0  0  0  0  0  0  0
   22.6678   -3.4646  -14.5568 O   0  0  0  0  0  0  0  0  0  0  0  0
   23.1672   -5.4958  -15.4210 O   0  0  0  0  0  0  0  0  0  0  0  0
  2  1  1  1
  2  9  1  0
  2  3  1  0
  3  4  1  0
  4  8  1  0
  5  6  1  0
  5  4  2  0
  6  7  1  0
  7  8  2  0
  9 10  2  0
 11 12  1  0
 11  9  1  0
 12 15  1  0
 12 13  1  6
 14 13  1  0
 15 17  1  0
 16 15  2  0
 17 18  1  0
 18 19  1  1
 19 20  1  0
 20 28  1  0
 20 21  2  0
 21 22  1  0
 23 22  1  0
 23 24  2  0
 25 24  1  0
 26 25  2  0
 27 28  2  0
 27 26  1  0
 28 23  1  0
 29 30  1  0
 29 18  1  0
 31 29  2  0
M  END
$$$$
