HCW.pdb
     RDKit          3D

 31 33  0  0  1  0  0  0  0  0999 V2000
   25.3811  -18.5439  -16.5040 N   0  0  0  0  0  0  0  0  0  0  0  0
   25.4333  -18.3649  -15.0774 C   0  0  1  0  0  0  0  0  0  0  0  0
   24.1608  -17.6908  -14.6270 C   0  0  0  0  0  0  0  0  0  0  0  0
   24.0268  -16.3242  -15.1671 C   0  0  0  0  0  0  0  0  0  0  0  0
   24.9832  -15.3471  -15.0022 C   0  0  0  0  0  0  0  0  0  0  0  0
   24.5640  -14.2316  -15.6067 N   0  0  0  0  0  0  0  0  0  0  0  0
   23.3696  -14.5068  -16.1382 C   0  0  0  0  0  0  0  0  0  0  0  0
   23.0378  -15.7728  -15.8759 N   0  0  0  0  0  0  0  0  0  0  0  0
   25.7004  -19.6301  -14.3575 C   0  0  0  0  0  0  0  0  0  0  0  0
   25.0046  -20.6527  -14.5847 O   0  0  0  0  0  0  0  0  0  0  0  0
   26.7388  -19.7608  -13.3862 N   0  0  0  0  0  0  0  0  0  0  0  0
   26.9167  -20.8834  -12.5285 C   0  0  1  0  0  0  0  0  0  0  0  0
   28.3398  -21.4132  -12.5354 C   0  0  0  0  0  0  0  0  0  0  0  0
   29.1959  -20.9910  -14.0654 S   0  0  0  0  0  0  0  0  0  0  0  0
   26.5571  -20.6026  -11.1144 C   0  0  0  0  0  0  0  0  0  0  0  0
   26.6811  -19.4363  -10.6562 O   0  0  0  0  0  0  0  0  0  0  0  0
   26.0714  -21.6025  -10.2368 N   0  0  0  0  0  0  0  0  0  0  0  0
   25.6971  -21.3614   -8.8519 C   0  0  1  0  0  0  0  0  0  0  0  0
   26.3003  -20.0568   -8.3675 C   0  0  0  0  0  0  0  0  0  0  0  0
   27.6333  -20.3083   -7.7656 C   0  0  0  0  0  0  0  0  0  0  0  0
   28.7078  -20.9121   -8.3661 C   0  0  0  0  0  0  0  0  0  0  0  0
   29.7140  -20.9478   -7.4873 N   0  0  0  0  0  0  0  0  0  0  0  0
   29.3540  -20.3847   -6.3042 C   0  0  0  0  0  0  0  0  0  0  0  0
   30.0182  -20.1850   -5.1161 C   0  0  0  0  0  0  0  0  0  0  0  0
   29.3703  -19.5711   -4.0735 C   0  0  0  0  0  0  0  0  0  0  0  0
   28.0599  -19.1764   -4.2702 C   0  0  0  0  0  0  0  0  0  0  0  0
   27.3719  -19.3633   -5.4470 C   0  0  0  0  0  0  0  0  0  0  0  0
   28.0471  -19.9829   -6.4784 C   0  0  0  0  0  0  0  0  0  0  0  0
   24.2235  -21.2250   -8.8050 C   0  0  0  0  0  0  0  0  0  0  0  0
   23.4754  -20.9890   -9.9427 O   0  0  0  0  0  0  0  0  0  0  0  0
   23.6250  -21.3240   -7.7095 O   0  0  0  0  0  0  0  0  0  0  0  0
  2  1  1  6
  2  9  1  0
  2  3  1  0
  3  4  1  0
  4  8  1  0
  5  6  1  0
  5  4  2  0
  6  7  1  0
  7  8  2  0
  9 10  2  0
 11 12  1  0
 11  9  1  0
 12 15  1  0
 12 13  1  1
 14 13  1  0
 15 17  1  0
 16 15  2  0
 17 18  1  0
 18 19  1  6
 19 20  1  0
 20 28  1  0
 20 21  2  0
 21 22  1  0
 23 22  1  0
 23 24  2  0
 25 24  1  0
 26 25  2  0
 27 28  2  0
 27 26  1  0
 28 23  1  0
 29 30  1  0
 29 18  1  0
 31 29  2  0
M  END
$$$$
