HCW.pdb
     RDKit          3D

 31 33  0  0  1  0  0  0  0  0999 V2000
   24.0901  -20.6188  -14.7432 N   0  0  0  0  0  0  0  0  0  0  0  0
   23.8472  -19.3577  -14.0945 C   0  0  1  0  0  0  0  0  0  0  0  0
   22.7659  -18.6250  -14.8497 C   0  0  0  0  0  0  0  0  0  0  0  0
   23.0763  -18.4890  -16.2857 C   0  0  0  0  0  0  0  0  0  0  0  0
   22.5359  -19.3009  -17.2581 C   0  0  0  0  0  0  0  0  0  0  0  0
   23.0131  -18.9210  -18.4469 N   0  0  0  0  0  0  0  0  0  0  0  0
   23.8353  -17.8924  -18.2212 C   0  0  0  0  0  0  0  0  0  0  0  0
   23.8784  -17.6251  -16.9141 N   0  0  0  0  0  0  0  0  0  0  0  0
   23.5408  -19.5114  -12.6548 C   0  0  0  0  0  0  0  0  0  0  0  0
   22.4080  -19.1993  -12.2066 O   0  0  0  0  0  0  0  0  0  0  0  0
   24.4904  -20.0111  -11.7128 N   0  0  0  0  0  0  0  0  0  0  0  0
   24.2287  -20.2340  -10.3309 C   0  0  1  0  0  0  0  0  0  0  0  0
   23.1568  -21.2831  -10.0938 C   0  0  0  0  0  0  0  0  0  0  0  0
   23.1120  -21.8055   -8.3684 S   0  0  0  0  0  0  0  0  0  0  0  0
   25.4327  -20.6526   -9.5672 C   0  0  0  0  0  0  0  0  0  0  0  0
   26.0891  -21.6618   -9.9362 O   0  0  0  0  0  0  0  0  0  0  0  0
   25.8890  -19.9584   -8.4201 N   0  0  0  0  0  0  0  0  0  0  0  0
   27.0278  -20.3720   -7.6150 C   0  0  1  0  0  0  0  0  0  0  0  0
   27.8608  -19.1646   -7.2295 C   0  0  0  0  0  0  0  0  0  0  0  0
   29.0483  -19.5967   -6.4515 C   0  0  0  0  0  0  0  0  0  0  0  0
   30.1474  -20.2636   -6.9279 C   0  0  0  0  0  0  0  0  0  0  0  0
   30.9882  -20.4679   -5.9095 N   0  0  0  0  0  0  0  0  0  0  0  0
   30.4917  -19.9582   -4.7519 C   0  0  0  0  0  0  0  0  0  0  0  0
   30.9673  -19.9158   -3.4617 C   0  0  0  0  0  0  0  0  0  0  0  0
   30.2156  -19.3154   -2.4828 C   0  0  0  0  0  0  0  0  0  0  0  0
   28.9967  -18.7732   -2.8459 C   0  0  0  0  0  0  0  0  0  0  0  0
   28.4971  -18.8012   -4.1276 C   0  0  0  0  0  0  0  0  0  0  0  0
   29.2732  -19.4108   -5.0917 C   0  0  0  0  0  0  0  0  0  0  0  0
   26.4991  -20.9748   -6.3702 C   0  0  0  0  0  0  0  0  0  0  0  0
   27.2480  -21.8508   -5.6077 O   0  0  0  0  0  0  0  0  0  0  0  0
   25.3415  -20.6916   -5.9857 O   0  0  0  0  0  0  0  0  0  0  0  0
  2  1  1  6
  2  9  1  0
  2  3  1  0
  3  4  1  0
  4  8  1  0
  5  6  1  0
  5  4  2  0
  6  7  1  0
  7  8  2  0
  9 10  2  0
 11 12  1  0
 11  9  1  0
 12 15  1  0
 12 13  1  6
 14 13  1  0
 15 17  1  0
 16 15  2  0
 17 18  1  0
 18 19  1  1
 19 20  1  0
 20 28  1  0
 20 21  2  0
 21 22  1  0
 23 22  1  0
 23 24  2  0
 25 24  1  0
 26 25  2  0
 27 28  2  0
 27 26  1  0
 28 23  1  0
 29 30  1  0
 29 18  1  0
 31 29  2  0
M  END
$$$$
