HCW.pdb
     RDKit          3D

 31 33  0  0  1  0  0  0  0  0999 V2000
   23.8544  -22.0073  -20.0154 N   0  0  0  0  0  0  0  0  0  0  0  0
   24.1918  -21.0055  -19.0394 C   0  0  1  0  0  0  0  0  0  0  0  0
   22.9595  -20.1888  -18.7378 C   0  0  0  0  0  0  0  0  0  0  0  0
   22.5712  -19.3195  -19.8650 C   0  0  0  0  0  0  0  0  0  0  0  0
   23.3289  -18.2531  -20.2956 C   0  0  0  0  0  0  0  0  0  0  0  0
   22.7072  -17.6752  -21.3275 N   0  0  0  0  0  0  0  0  0  0  0  0
   21.5836  -18.3669  -21.5369 C   0  0  0  0  0  0  0  0  0  0  0  0
   21.4946  -19.3646  -20.6547 N   0  0  0  0  0  0  0  0  0  0  0  0
   24.8106  -21.5834  -17.8256 C   0  0  0  0  0  0  0  0  0  0  0  0
   24.3872  -22.6669  -17.3475 O   0  0  0  0  0  0  0  0  0  0  0  0
   25.8986  -20.9600  -17.1426 N   0  0  0  0  0  0  0  0  0  0  0  0
   26.5811  -21.5116  -16.0212 C   0  0  1  0  0  0  0  0  0  0  0  0
   28.0843  -21.3062  -16.0843 C   0  0  0  0  0  0  0  0  0  0  0  0
   28.5181  -19.5584  -15.9911 S   0  0  0  0  0  0  0  0  0  0  0  0
   26.1144  -20.9605  -14.7226 C   0  0  0  0  0  0  0  0  0  0  0  0
   25.3836  -19.9353  -14.7036 O   0  0  0  0  0  0  0  0  0  0  0  0
   26.4578  -21.5429  -13.4781 N   0  0  0  0  0  0  0  0  0  0  0  0
   26.3053  -20.8753  -12.1947 C   0  0  1  0  0  0  0  0  0  0  0  0
   26.8370  -21.7570  -11.0810 C   0  0  0  0  0  0  0  0  0  0  0  0
   26.6672  -21.0774   -9.7728 C   0  0  0  0  0  0  0  0  0  0  0  0
   25.4872  -20.6876   -9.1937 C   0  0  0  0  0  0  0  0  0  0  0  0
   25.7658  -20.1104   -8.0211 N   0  0  0  0  0  0  0  0  0  0  0  0
   27.1039  -20.0964   -7.7854 C   0  0  0  0  0  0  0  0  0  0  0  0
   27.8717  -19.6257   -6.7454 C   0  0  0  0  0  0  0  0  0  0  0  0
   29.2366  -19.7602   -6.7969 C   0  0  0  0  0  0  0  0  0  0  0  0
   29.7836  -20.3722   -7.9095 C   0  0  0  0  0  0  0  0  0  0  0  0
   29.0401  -20.8519   -8.9632 C   0  0  0  0  0  0  0  0  0  0  0  0
   27.6707  -20.7035   -8.8854 C   0  0  0  0  0  0  0  0  0  0  0  0
   27.1278  -19.6446  -12.2310 C   0  0  0  0  0  0  0  0  0  0  0  0
   26.6374  -18.4257  -11.8029 O   0  0  0  0  0  0  0  0  0  0  0  0
   28.3033  -19.6954  -12.6598 O   0  0  0  0  0  0  0  0  0  0  0  0
  2  1  1  6
  2  9  1  0
  2  3  1  0
  3  4  1  0
  4  8  1  0
  5  6  1  0
  5  4  2  0
  6  7  1  0
  7  8  2  0
  9 10  2  0
 11 12  1  0
 11  9  1  0
 12 15  1  0
 12 13  1  6
 14 13  1  0
 15 17  1  0
 16 15  2  0
 17 18  1  0
 18 19  1  1
 19 20  1  0
 20 28  1  0
 20 21  2  0
 21 22  1  0
 23 22  1  0
 23 24  2  0
 25 24  1  0
 26 25  2  0
 27 28  2  0
 27 26  1  0
 28 23  1  0
 29 30  1  0
 29 18  1  0
 31 29  2  0
M  END
$$$$
