GNN.pdb
     RDKit          3D

 21 20  0  0  1  0  0  0  0  0999 V2000
    4.8574  -21.1276   17.6989 N   0  0  0  0  0  0  0  0  0  0  0  0
    5.4159  -19.7984   17.5164 C   0  0  0  0  0  0  0  0  0  0  0  0
    6.8592  -19.8439   17.1770 C   0  0  0  0  0  0  0  0  0  0  0  0
    7.4538  -20.9249   17.3786 O   0  0  0  0  0  0  0  0  0  0  0  0
    7.9811  -17.0068   13.4142 N   0  0  0  0  0  0  0  0  0  0  0  0
    8.7278  -18.0853   14.0038 C   0  0  0  0  0  0  0  0  0  0  0  0
    8.7849  -19.1839   13.3888 O   0  0  0  0  0  0  0  0  0  0  0  0
    9.3806  -17.8214   15.3029 C   0  0  0  0  0  0  0  0  0  0  0  0
    8.9598  -18.7820   16.3892 C   0  0  2  0  0  0  0  0  0  0  0  0
    7.5526  -18.7258   16.6470 N   0  0  0  0  0  0  0  0  0  0  0  0
    9.7922  -18.5695   17.5828 C   0  0  0  0  0  0  0  0  0  0  0  0
    9.7281  -17.4714   18.1776 O   0  0  0  0  0  0  0  0  0  0  0  0
   10.9686  -20.0783   23.0639 N   0  0  0  0  0  0  0  0  0  0  0  0
   11.3671  -19.5791   21.8074 C   0  0  0  0  0  0  0  0  0  0  0  0
   12.1411  -18.5767   21.8169 O   0  0  0  0  0  0  0  0  0  0  0  0
   10.9737  -20.1113   20.4888 C   0  0  0  0  0  0  0  0  0  0  0  0
   11.4703  -19.2690   19.3387 C   0  0  2  0  0  0  0  0  0  0  0  0
   10.6877  -19.5296   18.1363 N   0  0  0  0  0  0  0  0  0  0  0  0
   12.8601  -19.6500   19.0290 C   0  0  0  0  0  0  0  0  0  0  0  0
   13.2719  -20.8556   18.4946 O   0  0  0  0  0  0  0  0  0  0  0  0
   13.7771  -18.7888   19.2746 O   0  0  0  0  0  0  0  0  0  0  0  0
  1  2  1  0
  2  3  1  0
  3  4  2  0
  5  6  1  0
  6  8  1  0
  7  6  2  0
  9  8  1  6
 10  9  1  0
 10  3  1  0
 11  9  1  0
 11 18  1  0
 12 11  2  0
 13 14  1  0
 14 16  1  0
 14 15  2  0
 17 16  1  1
 17 18  1  0
 17 19  1  0
 19 21  2  0
 19 20  1  0
M  END
$$$$
