GNN.pdb
     RDKit          3D

 21 20  0  0  1  0  0  0  0  0999 V2000
   14.0425  -19.1599   15.6342 N   0  0  0  0  0  0  0  0  0  0  0  0
   14.4077  -19.8706   16.8482 C   0  0  0  0  0  0  0  0  0  0  0  0
   14.1415  -19.0652   18.0651 C   0  0  0  0  0  0  0  0  0  0  0  0
   14.1338  -17.8223   17.9302 O   0  0  0  0  0  0  0  0  0  0  0  0
   10.4901  -20.3956   20.3888 N   0  0  0  0  0  0  0  0  0  0  0  0
   11.2066  -19.2247   20.8175 C   0  0  0  0  0  0  0  0  0  0  0  0
   10.6449  -18.1018   20.7068 O   0  0  0  0  0  0  0  0  0  0  0  0
   12.5648  -19.4280   21.3628 C   0  0  0  0  0  0  0  0  0  0  0  0
   13.6522  -18.8502   20.4889 C   0  0  2  0  0  0  0  0  0  0  0  0
   13.9034  -19.6559   19.3324 N   0  0  0  0  0  0  0  0  0  0  0  0
   14.8490  -18.5876   21.3023 C   0  0  0  0  0  0  0  0  0  0  0  0
   15.7863  -19.4152   21.2845 O   0  0  0  0  0  0  0  0  0  0  0  0
   18.6439  -16.1453   24.2099 N   0  0  0  0  0  0  0  0  0  0  0  0
   17.9215  -15.3345   23.3114 C   0  0  0  0  0  0  0  0  0  0  0  0
   18.3390  -14.1486   23.1591 O   0  0  0  0  0  0  0  0  0  0  0  0
   16.7334  -15.7334   22.5329 C   0  0  0  0  0  0  0  0  0  0  0  0
   16.3076  -17.1583   22.7916 C   0  0  2  0  0  0  0  0  0  0  0  0
   15.0401  -17.4435   22.1296 N   0  0  0  0  0  0  0  0  0  0  0  0
   16.0789  -17.3367   24.2368 C   0  0  0  0  0  0  0  0  0  0  0  0
   14.8594  -17.5662   24.8438 O   0  0  0  0  0  0  0  0  0  0  0  0
   17.1007  -17.2752   25.0082 O   0  0  0  0  0  0  0  0  0  0  0  0
  1  2  1  0
  2  3  1  0
  3  4  2  0
  5  6  1  0
  6  8  1  0
  7  6  2  0
  9  8  1  1
 10  9  1  0
 10  3  1  0
 11  9  1  0
 11 18  1  0
 12 11  2  0
 13 14  1  0
 14 16  1  0
 14 15  2  0
 17 16  1  1
 17 18  1  0
 17 19  1  0
 19 21  2  0
 19 20  1  0
M  END
$$$$
