GNN.pdb
     RDKit          3D

 21 20  0  0  1  0  0  0  0  0999 V2000
    7.1180  -12.8572   20.3666 N   0  0  0  0  0  0  0  0  0  0  0  0
    7.8019  -13.5195   19.2685 C   0  0  0  0  0  0  0  0  0  0  0  0
    8.0830  -14.9448   19.5677 C   0  0  0  0  0  0  0  0  0  0  0  0
    7.7891  -15.3509   20.7130 O   0  0  0  0  0  0  0  0  0  0  0  0
    7.9797  -17.6108   15.5580 N   0  0  0  0  0  0  0  0  0  0  0  0
    7.9165  -18.1525   16.8887 C   0  0  0  0  0  0  0  0  0  0  0  0
    6.8391  -18.6827   17.2716 O   0  0  0  0  0  0  0  0  0  0  0  0
    9.1348  -18.0457   17.7181 C   0  0  0  0  0  0  0  0  0  0  0  0
    8.9485  -17.1864   18.9456 C   0  0  2  0  0  0  0  0  0  0  0  0
    8.6573  -15.8243   18.6146 N   0  0  0  0  0  0  0  0  0  0  0  0
   10.1059  -17.3472   19.8385 C   0  0  0  0  0  0  0  0  0  0  0  0
   11.2265  -16.9460   19.4549 O   0  0  0  0  0  0  0  0  0  0  0  0
    9.3933  -15.4795   23.7621 N   0  0  0  0  0  0  0  0  0  0  0  0
   10.6296  -16.0915   23.4726 C   0  0  0  0  0  0  0  0  0  0  0  0
   11.6082  -15.3162   23.2601 O   0  0  0  0  0  0  0  0  0  0  0  0
   10.8926  -17.5413   23.3967 C   0  0  0  0  0  0  0  0  0  0  0  0
   11.2327  -18.0086   22.0022 C   0  0  2  0  0  0  0  0  0  0  0  0
   10.0620  -17.9342   21.1360 N   0  0  0  0  0  0  0  0  0  0  0  0
   11.6299  -19.4272   22.0543 C   0  0  0  0  0  0  0  0  0  0  0  0
   10.9716  -20.4779   21.4452 O   0  0  0  0  0  0  0  0  0  0  0  0
   12.6825  -19.7212   22.7241 O   0  0  0  0  0  0  0  0  0  0  0  0
  1  2  1  0
  2  3  1  0
  3  4  2  0
  5  6  1  0
  6  8  1  0
  7  6  2  0
  9  8  1  6
 10  9  1  0
 10  3  1  0
 11  9  1  0
 11 18  1  0
 12 11  2  0
 13 14  1  0
 14 16  1  0
 14 15  2  0
 17 16  1  1
 17 18  1  0
 17 19  1  0
 19 21  2  0
 19 20  1  0
M  END
$$$$
