GNN.pdb
     RDKit          3D

 21 20  0  0  1  0  0  0  0  0999 V2000
    7.1318  -19.5717   19.0118 N   0  0  0  0  0  0  0  0  0  0  0  0
    6.8099  -18.3356   19.7052 C   0  0  0  0  0  0  0  0  0  0  0  0
    7.9446  -17.3804   19.6939 C   0  0  0  0  0  0  0  0  0  0  0  0
    9.0498  -17.8195   19.3084 O   0  0  0  0  0  0  0  0  0  0  0  0
    6.6064  -12.3959   19.0948 N   0  0  0  0  0  0  0  0  0  0  0  0
    7.6840  -13.3261   18.8908 C   0  0  0  0  0  0  0  0  0  0  0  0
    7.8754  -13.7798   17.7306 O   0  0  0  0  0  0  0  0  0  0  0  0
    8.4968  -13.6849   20.0715 C   0  0  0  0  0  0  0  0  0  0  0  0
    8.9234  -15.1333   20.0855 C   0  0  2  0  0  0  0  0  0  0  0  0
    7.8053  -16.0275   20.0965 N   0  0  0  0  0  0  0  0  0  0  0  0
    9.8736  -15.3553   21.1858 C   0  0  0  0  0  0  0  0  0  0  0  0
   10.9067  -14.6531   21.2442 O   0  0  0  0  0  0  0  0  0  0  0  0
   11.8982  -16.0221   26.4093 N   0  0  0  0  0  0  0  0  0  0  0  0
   11.0008  -16.8550   25.7110 C   0  0  0  0  0  0  0  0  0  0  0  0
   10.9782  -18.0742   26.0530 O   0  0  0  0  0  0  0  0  0  0  0  0
   10.0876  -16.4445   24.6273 C   0  0  0  0  0  0  0  0  0  0  0  0
   10.7178  -16.5304   23.2583 C   0  0  2  0  0  0  0  0  0  0  0  0
    9.7165  -16.3243   22.2184 N   0  0  0  0  0  0  0  0  0  0  0  0
   11.2574  -17.8880   23.0619 C   0  0  0  0  0  0  0  0  0  0  0  0
   12.4867  -18.3441   23.4968 O   0  0  0  0  0  0  0  0  0  0  0  0
   10.5243  -18.7291   22.4310 O   0  0  0  0  0  0  0  0  0  0  0  0
  1  2  1  0
  2  3  1  0
  3  4  2  0
  5  6  1  0
  6  8  1  0
  7  6  2  0
  9  8  1  1
 10  9  1  0
 10  3  1  0
 11  9  1  0
 11 18  1  0
 12 11  2  0
 13 14  1  0
 14 16  1  0
 14 15  2  0
 17 16  1  1
 17 18  1  0
 17 19  1  0
 19 21  2  0
 19 20  1  0
M  END
$$$$
