GNN.pdb
     RDKit          3D

 21 20  0  0  1  0  0  0  0  0999 V2000
    8.3902  -12.6342   18.1347 N   0  0  0  0  0  0  0  0  0  0  0  0
    7.8637  -13.8327   18.7662 C   0  0  0  0  0  0  0  0  0  0  0  0
    8.2749  -13.9383   20.1875 C   0  0  0  0  0  0  0  0  0  0  0  0
    9.4242  -13.5389   20.4749 O   0  0  0  0  0  0  0  0  0  0  0  0
    6.5008  -16.0031   25.7132 N   0  0  0  0  0  0  0  0  0  0  0  0
    7.2037  -15.0485   24.8991 C   0  0  0  0  0  0  0  0  0  0  0  0
    8.1546  -14.4022   25.4156 O   0  0  0  0  0  0  0  0  0  0  0  0
    6.7532  -14.8948   23.5002 C   0  0  0  0  0  0  0  0  0  0  0  0
    7.8862  -14.6615   22.5298 C   0  0  2  0  0  0  0  0  0  0  0  0
    7.4206  -14.4636   21.1905 N   0  0  0  0  0  0  0  0  0  0  0  0
    8.8766  -15.7407   22.6619 C   0  0  0  0  0  0  0  0  0  0  0  0
    8.6618  -16.8324   22.0911 O   0  0  0  0  0  0  0  0  0  0  0  0
   13.6929  -18.0434   21.6713 N   0  0  0  0  0  0  0  0  0  0  0  0
   13.4979  -17.0834   22.6847 C   0  0  0  0  0  0  0  0  0  0  0  0
   14.3515  -17.0674   23.6201 O   0  0  0  0  0  0  0  0  0  0  0  0
   12.4021  -16.0983   22.7587 C   0  0  0  0  0  0  0  0  0  0  0  0
   11.1289  -16.6715   23.3324 C   0  0  2  0  0  0  0  0  0  0  0  0
   10.0911  -15.6494   23.4013 N   0  0  0  0  0  0  0  0  0  0  0  0
   11.3809  -17.1115   24.7164 C   0  0  0  0  0  0  0  0  0  0  0  0
   10.7477  -16.6352   25.8481 O   0  0  0  0  0  0  0  0  0  0  0  0
   12.2674  -18.0199   24.8949 O   0  0  0  0  0  0  0  0  0  0  0  0
  1  2  1  0
  2  3  1  0
  3  4  2  0
  5  6  1  0
  6  8  1  0
  7  6  2  0
  9  8  1  1
 10  9  1  0
 10  3  1  0
 11  9  1  0
 11 18  1  0
 12 11  2  0
 13 14  1  0
 14 16  1  0
 14 15  2  0
 17 16  1  1
 17 18  1  0
 17 19  1  0
 19 21  2  0
 19 20  1  0
M  END
$$$$
