GNN.pdb
     RDKit          3D

 21 20  0  0  1  0  0  0  0  0999 V2000
    7.3374  -12.5023   19.3113 N   0  0  0  0  0  0  0  0  0  0  0  0
    7.3833  -13.8787   18.8470 C   0  0  0  0  0  0  0  0  0  0  0  0
    7.0728  -14.8417   19.9317 C   0  0  0  0  0  0  0  0  0  0  0  0
    7.2088  -14.4343   21.1057 O   0  0  0  0  0  0  0  0  0  0  0  0
    3.8833  -16.6193   21.4449 N   0  0  0  0  0  0  0  0  0  0  0  0
    4.0985  -17.8716   20.7715 C   0  0  0  0  0  0  0  0  0  0  0  0
    3.1041  -18.6136   20.5494 O   0  0  0  0  0  0  0  0  0  0  0  0
    5.4867  -18.1991   20.3853 C   0  0  0  0  0  0  0  0  0  0  0  0
    6.4760  -17.1132   20.7346 C   0  0  2  0  0  0  0  0  0  0  0  0
    6.6397  -16.1672   19.6725 N   0  0  0  0  0  0  0  0  0  0  0  0
    7.7354  -17.7228   21.1876 C   0  0  0  0  0  0  0  0  0  0  0  0
    8.6307  -17.9580   20.3468 O   0  0  0  0  0  0  0  0  0  0  0  0
   11.1603  -15.2381   24.8939 N   0  0  0  0  0  0  0  0  0  0  0  0
   10.9557  -16.0393   23.7524 C   0  0  0  0  0  0  0  0  0  0  0  0
   11.9905  -16.5368   23.2181 O   0  0  0  0  0  0  0  0  0  0  0  0
    9.6582  -16.3548   23.1251 C   0  0  0  0  0  0  0  0  0  0  0  0
    9.3369  -17.8297   23.1401 C   0  0  2  0  0  0  0  0  0  0  0  0
    8.0336  -18.0773   22.5350 N   0  0  0  0  0  0  0  0  0  0  0  0
    9.2473  -18.2878   24.5383 C   0  0  0  0  0  0  0  0  0  0  0  0
   10.2788  -18.8233   25.2852 O   0  0  0  0  0  0  0  0  0  0  0  0
    8.1113  -18.1826   25.1224 O   0  0  0  0  0  0  0  0  0  0  0  0
  1  2  1  0
  2  3  1  0
  3  4  2  0
  5  6  1  0
  6  8  1  0
  7  6  2  0
  9  8  1  6
 10  9  1  0
 10  3  1  0
 11  9  1  0
 11 18  1  0
 12 11  2  0
 13 14  1  0
 14 16  1  0
 14 15  2  0
 17 16  1  1
 17 18  1  0
 17 19  1  0
 19 21  2  0
 19 20  1  0
M  END
$$$$
