GNN.pdb
     RDKit          3D

 21 20  0  0  1  0  0  0  0  0999 V2000
    6.7520  -19.7523   18.7445 N   0  0  0  0  0  0  0  0  0  0  0  0
    6.3532  -18.4830   19.3294 C   0  0  0  0  0  0  0  0  0  0  0  0
    7.3169  -17.3997   19.0163 C   0  0  0  0  0  0  0  0  0  0  0  0
    8.3969  -17.7392   18.4860 O   0  0  0  0  0  0  0  0  0  0  0  0
    9.6808  -13.0510   18.1713 N   0  0  0  0  0  0  0  0  0  0  0  0
    8.4373  -12.5989   18.7347 C   0  0  0  0  0  0  0  0  0  0  0  0
    8.2273  -11.3585   18.8110 O   0  0  0  0  0  0  0  0  0  0  0  0
    7.4865  -13.6354   19.1877 C   0  0  0  0  0  0  0  0  0  0  0  0
    8.0556  -15.0330   19.1331 C   0  0  2  0  0  0  0  0  0  0  0  0
    7.0466  -16.0357   19.2958 N   0  0  0  0  0  0  0  0  0  0  0  0
    9.1683  -15.1483   20.0878 C   0  0  0  0  0  0  0  0  0  0  0  0
   10.1990  -14.4653   19.9011 O   0  0  0  0  0  0  0  0  0  0  0  0
   12.0608  -15.4450   24.7787 N   0  0  0  0  0  0  0  0  0  0  0  0
   10.9728  -16.3050   24.5270 C   0  0  0  0  0  0  0  0  0  0  0  0
   10.9411  -17.3849   25.1878 O   0  0  0  0  0  0  0  0  0  0  0  0
    9.8713  -16.0680   23.5745 C   0  0  0  0  0  0  0  0  0  0  0  0
   10.3215  -16.0825   22.1337 C   0  0  2  0  0  0  0  0  0  0  0  0
    9.1754  -15.9906   21.2369 N   0  0  0  0  0  0  0  0  0  0  0  0
   10.9787  -17.3708   21.8486 C   0  0  0  0  0  0  0  0  0  0  0  0
   10.5036  -18.3556   21.0043 O   0  0  0  0  0  0  0  0  0  0  0  0
   12.0946  -17.6064   22.4336 O   0  0  0  0  0  0  0  0  0  0  0  0
  1  2  1  0
  2  3  1  0
  3  4  2  0
  5  6  1  0
  6  8  1  0
  7  6  2  0
  9  8  1  1
 10  9  1  0
 10  3  1  0
 11  9  1  0
 11 18  1  0
 12 11  2  0
 13 14  1  0
 14 16  1  0
 14 15  2  0
 17 16  1  1
 17 18  1  0
 17 19  1  0
 19 21  2  0
 19 20  1  0
M  END
$$$$
