GPN.pdb
     RDKit          3D

 20 20  0  0  1  0  0  0  0  0999 V2000
   28.4436  -18.0520  -16.6922 N   0  0  0  0  0  0  0  0  0  0  0  0
   28.9333  -18.2968  -15.3119 C   0  0  0  0  0  0  0  0  0  0  0  0
   28.1132  -19.3458  -14.6989 C   0  0  0  0  0  0  0  0  0  0  0  0
   26.8850  -19.3597  -15.0712 O   0  0  0  0  0  0  0  0  0  0  0  0
   28.5102  -20.3131  -13.7672 N   0  0  0  0  0  0  0  0  0  0  0  0
   29.8157  -21.0349  -14.0014 C   0  0  0  0  0  0  0  0  0  0  0  0
   30.4448  -20.8325  -12.6464 C   0  0  0  0  0  0  0  0  0  0  0  0
   29.2946  -20.8485  -11.6694 C   0  0  0  0  0  0  0  0  0  0  0  0
   28.0553  -20.9420  -12.5973 C   0  0  1  0  0  0  0  0  0  0  0  0
   26.8789  -20.5245  -11.8759 C   0  0  0  0  0  0  0  0  0  0  0  0
   26.8339  -19.2874  -11.5179 O   0  0  0  0  0  0  0  0  0  0  0  0
   23.3918  -19.5615  -12.8325 N   0  0  0  0  0  0  0  0  0  0  0  0
   22.7460  -20.6969  -12.2296 C   0  0  0  0  0  0  0  0  0  0  0  0
   21.6450  -21.0285  -12.7763 O   0  0  0  0  0  0  0  0  0  0  0  0
   23.3441  -21.3850  -11.0802 C   0  0  0  0  0  0  0  0  0  0  0  0
   24.6552  -20.7234  -10.7007 C   0  0  2  0  0  0  0  0  0  0  0  0
   25.7470  -21.2707  -11.5025 N   0  0  0  0  0  0  0  0  0  0  0  0
   24.9409  -20.7356   -9.2734 C   0  0  0  0  0  0  0  0  0  0  0  0
   24.5220  -19.6868   -8.4600 O   0  0  0  0  0  0  0  0  0  0  0  0
   25.5640  -21.6632   -8.7076 O   0  0  0  0  0  0  0  0  0  0  0  0
  2  1  1  0
  3  4  2  0
  3  2  1  0
  5  3  1  0
  6  5  1  0
  7  8  1  0
  7  6  1  0
  8  9  1  0
  9 10  1  1
  9  5  1  0
 10 11  2  0
 12 13  1  0
 13 14  2  0
 13 15  1  0
 16 15  1  1
 17 10  1  0
 17 16  1  0
 18 19  1  0
 18 16  1  0
 20 18  2  0
M  END
$$$$
