GPN.pdb
     RDKit          3D

 20 20  0  0  1  0  0  0  0  0999 V2000
   28.8846  -23.0365  -16.8288 N   0  0  0  0  0  0  0  0  0  0  0  0
   28.3760  -21.6542  -17.0169 C   0  0  0  0  0  0  0  0  0  0  0  0
   27.4437  -21.3419  -15.9297 C   0  0  0  0  0  0  0  0  0  0  0  0
   26.7249  -22.3283  -15.5327 O   0  0  0  0  0  0  0  0  0  0  0  0
   27.2495  -20.1109  -15.2907 N   0  0  0  0  0  0  0  0  0  0  0  0
   28.4584  -19.2443  -15.0304 C   0  0  0  0  0  0  0  0  0  0  0  0
   27.9532  -17.9505  -15.6163 C   0  0  0  0  0  0  0  0  0  0  0  0
   26.4688  -17.9451  -15.3437 C   0  0  0  0  0  0  0  0  0  0  0  0
   26.2297  -19.3403  -14.7099 C   0  0  1  0  0  0  0  0  0  0  0  0
   24.8306  -19.6774  -14.7970 C   0  0  0  0  0  0  0  0  0  0  0  0
   24.3759  -19.9413  -15.9735 O   0  0  0  0  0  0  0  0  0  0  0  0
   20.2474  -22.6590  -13.0185 N   0  0  0  0  0  0  0  0  0  0  0  0
   20.5568  -21.2586  -12.9058 C   0  0  0  0  0  0  0  0  0  0  0  0
   19.5489  -20.4869  -13.0041 O   0  0  0  0  0  0  0  0  0  0  0  0
   21.9355  -20.8031  -12.6955 C   0  0  0  0  0  0  0  0  0  0  0  0
   22.5150  -20.2775  -13.9949 C   0  0  2  0  0  0  0  0  0  0  0  0
   23.8684  -19.7727  -13.7760 N   0  0  0  0  0  0  0  0  0  0  0  0
   21.6614  -19.3240  -14.6887 C   0  0  0  0  0  0  0  0  0  0  0  0
   20.7332  -19.7608  -15.6294 O   0  0  0  0  0  0  0  0  0  0  0  0
   21.7102  -18.0887  -14.4878 O   0  0  0  0  0  0  0  0  0  0  0  0
  2  1  1  0
  3  4  2  0
  3  2  1  0
  5  3  1  0
  6  5  1  0
  7  8  1  0
  7  6  1  0
  8  9  1  0
  9 10  1  6
  9  5  1  0
 10 11  2  0
 12 13  1  0
 13 14  2  0
 13 15  1  0
 16 15  1  1
 17 10  1  0
 17 16  1  0
 18 19  1  0
 18 16  1  0
 20 18  2  0
M  END
$$$$
