GPN.pdb
     RDKit          3D

 20 20  0  0  1  0  0  0  0  0999 V2000
   27.4277  -21.3375  -14.9799 N   0  0  0  0  0  0  0  0  0  0  0  0
   27.0446  -20.5573  -13.7758 C   0  0  0  0  0  0  0  0  0  0  0  0
   25.8323  -21.1449  -13.1982 C   0  0  0  0  0  0  0  0  0  0  0  0
   25.0048  -21.6278  -14.0522 O   0  0  0  0  0  0  0  0  0  0  0  0
   25.4801  -21.2332  -11.8456 N   0  0  0  0  0  0  0  0  0  0  0  0
   26.5795  -21.4629  -10.8363 C   0  0  0  0  0  0  0  0  0  0  0  0
   26.2551  -20.3480   -9.8747 C   0  0  0  0  0  0  0  0  0  0  0  0
   24.7518  -20.2186   -9.9109 C   0  0  0  0  0  0  0  0  0  0  0  0
   24.3458  -21.2256  -11.0185 C   0  0  1  0  0  0  0  0  0  0  0  0
   23.0192  -20.9157  -11.4907 C   0  0  0  0  0  0  0  0  0  0  0  0
   22.4184  -19.9340  -10.9112 O   0  0  0  0  0  0  0  0  0  0  0  0
   20.0785  -19.2937  -15.3105 N   0  0  0  0  0  0  0  0  0  0  0  0
   21.4619  -18.9597  -15.1001 C   0  0  0  0  0  0  0  0  0  0  0  0
   21.8764  -17.9730  -15.7899 O   0  0  0  0  0  0  0  0  0  0  0  0
   22.2891  -19.7216  -14.1579 C   0  0  0  0  0  0  0  0  0  0  0  0
   21.4496  -20.7752  -13.4609 C   0  0  2  0  0  0  0  0  0  0  0  0
   22.2681  -21.5253  -12.5112 N   0  0  0  0  0  0  0  0  0  0  0  0
   20.6990  -21.6360  -14.3634 C   0  0  0  0  0  0  0  0  0  0  0  0
   19.3225  -21.4842  -14.5030 O   0  0  0  0  0  0  0  0  0  0  0  0
   21.2309  -22.5400  -15.0482 O   0  0  0  0  0  0  0  0  0  0  0  0
  2  1  1  0
  3  4  2  0
  3  2  1  0
  5  3  1  0
  6  5  1  0
  7  8  1  0
  7  6  1  0
  8  9  1  0
  9 10  1  6
  9  5  1  0
 10 11  2  0
 12 13  1  0
 13 14  2  0
 13 15  1  0
 16 15  1  6
 17 10  1  0
 17 16  1  0
 18 19  1  0
 18 16  1  0
 20 18  2  0
M  END
$$$$
