GPN.pdb
     RDKit          3D

 20 20  0  0  1  0  0  0  0  0999 V2000
   28.1414  -20.4761  -15.6908 N   0  0  0  0  0  0  0  0  0  0  0  0
   27.5580  -19.9027  -14.4514 C   0  0  0  0  0  0  0  0  0  0  0  0
   26.2981  -20.5926  -14.1594 C   0  0  0  0  0  0  0  0  0  0  0  0
   25.5165  -20.7419  -15.1664 O   0  0  0  0  0  0  0  0  0  0  0  0
   25.8577  -21.0936  -12.9279 N   0  0  0  0  0  0  0  0  0  0  0  0
   26.8683  -21.7647  -12.0288 C   0  0  0  0  0  0  0  0  0  0  0  0
   26.5881  -21.0113  -10.7535 C   0  0  0  0  0  0  0  0  0  0  0  0
   25.1077  -20.7191  -10.7832 C   0  0  0  0  0  0  0  0  0  0  0  0
   24.6804  -21.2453  -12.1782 C   0  0  1  0  0  0  0  0  0  0  0  0
   23.4185  -20.6560  -12.5512 C   0  0  0  0  0  0  0  0  0  0  0  0
   23.3711  -19.3685  -12.5755 O   0  0  0  0  0  0  0  0  0  0  0  0
   20.4831  -17.8974  -15.7255 N   0  0  0  0  0  0  0  0  0  0  0  0
   20.5229  -19.3305  -15.6064 C   0  0  0  0  0  0  0  0  0  0  0  0
   19.5430  -19.9320  -16.1535 O   0  0  0  0  0  0  0  0  0  0  0  0
   21.6221  -20.0008  -14.9029 C   0  0  0  0  0  0  0  0  0  0  0  0
   21.1235  -20.5894  -13.5970 C   0  0  2  0  0  0  0  0  0  0  0  0
   22.2103  -21.2809  -12.9077 N   0  0  0  0  0  0  0  0  0  0  0  0
   19.9261  -21.4070  -13.7273 C   0  0  0  0  0  0  0  0  0  0  0  0
   18.6717  -20.8725  -13.4482 O   0  0  0  0  0  0  0  0  0  0  0  0
   19.9518  -22.6065  -14.0869 O   0  0  0  0  0  0  0  0  0  0  0  0
  2  1  1  0
  3  4  2  0
  3  2  1  0
  5  3  1  0
  6  5  1  0
  7  8  1  0
  7  6  1  0
  8  9  1  0
  9 10  1  6
  9  5  1  0
 10 11  2  0
 12 13  1  0
 13 14  2  0
 13 15  1  0
 16 15  1  6
 17 10  1  0
 17 16  1  0
 18 19  1  0
 18 16  1  0
 20 18  2  0
M  END
$$$$
