GPN.pdb
     RDKit          3D

 20 20  0  0  1  0  0  0  0  0999 V2000
   19.7410  -17.4375   11.1562 N   0  0  0  0  0  0  0  0  0  0  0  0
   19.7757  -18.5572   10.1815 C   0  0  0  0  0  0  0  0  0  0  0  0
   19.8396  -18.0019    8.8264 C   0  0  0  0  0  0  0  0  0  0  0  0
   19.3085  -16.8414    8.6913 O   0  0  0  0  0  0  0  0  0  0  0  0
   20.4001  -18.5859    7.6835 N   0  0  0  0  0  0  0  0  0  0  0  0
   21.6546  -19.4104    7.8466 C   0  0  0  0  0  0  0  0  0  0  0  0
   21.2172  -20.6544    7.1159 C   0  0  0  0  0  0  0  0  0  0  0  0
   20.3107  -20.1673    6.0120 C   0  0  0  0  0  0  0  0  0  0  0  0
   20.2118  -18.6453    6.2935 C   0  0  1  0  0  0  0  0  0  0  0  0
   19.0553  -18.1041    5.6238 C   0  0  0  0  0  0  0  0  0  0  0  0
   17.9084  -18.3922    6.1357 O   0  0  0  0  0  0  0  0  0  0  0  0
   15.4316  -15.6105    3.0073 N   0  0  0  0  0  0  0  0  0  0  0  0
   16.6329  -14.8207    2.9581 C   0  0  0  0  0  0  0  0  0  0  0  0
   16.4852  -13.6691    2.4354 O   0  0  0  0  0  0  0  0  0  0  0  0
   17.9019  -15.3408    3.4794 C   0  0  0  0  0  0  0  0  0  0  0  0
   17.7278  -16.7757    3.9391 C   0  0  2  0  0  0  0  0  0  0  0  0
   18.9842  -17.2877    4.4811 N   0  0  0  0  0  0  0  0  0  0  0  0
   17.1422  -17.6576    2.9399 C   0  0  0  0  0  0  0  0  0  0  0  0
   17.8934  -18.6855    2.3775 O   0  0  0  0  0  0  0  0  0  0  0  0
   15.9615  -17.5470    2.5366 O   0  0  0  0  0  0  0  0  0  0  0  0
  2  1  1  0
  3  4  2  0
  3  2  1  0
  5  3  1  0
  6  5  1  0
  7  8  1  0
  7  6  1  0
  8  9  1  0
  9 10  1  1
  9  5  1  0
 10 11  2  0
 12 13  1  0
 13 14  2  0
 13 15  1  0
 16 15  1  6
 17 10  1  0
 17 16  1  0
 18 19  1  0
 18 16  1  0
 20 18  2  0
M  END
$$$$
