GPN.pdb
     RDKit          3D

 20 20  0  0  1  0  0  0  0  0999 V2000
   25.4231  -24.4562  -15.2542 N   0  0  0  0  0  0  0  0  0  0  0  0
   24.7343  -23.1619  -15.4895 C   0  0  0  0  0  0  0  0  0  0  0  0
   23.6325  -23.0322  -14.5314 C   0  0  0  0  0  0  0  0  0  0  0  0
   23.2303  -24.1367  -14.0161 O   0  0  0  0  0  0  0  0  0  0  0  0
   22.9787  -21.8619  -14.1263 N   0  0  0  0  0  0  0  0  0  0  0  0
   23.7803  -20.5838  -14.0607 C   0  0  0  0  0  0  0  0  0  0  0  0
   22.8684  -19.6908  -14.8629 C   0  0  0  0  0  0  0  0  0  0  0  0
   21.4718  -20.1753  -14.5590 C   0  0  0  0  0  0  0  0  0  0  0  0
   21.7249  -21.4226  -13.6725 C   0  0  1  0  0  0  0  0  0  0  0  0
   20.5472  -22.2542  -13.6609 C   0  0  0  0  0  0  0  0  0  0  0  0
   20.6574  -23.4130  -14.2138 O   0  0  0  0  0  0  0  0  0  0  0  0
   18.7662  -26.2787  -10.8962 N   0  0  0  0  0  0  0  0  0  0  0  0
   18.1938  -24.9891  -11.1770 C   0  0  0  0  0  0  0  0  0  0  0  0
   16.9260  -24.9410  -11.0707 O   0  0  0  0  0  0  0  0  0  0  0  0
   19.0407  -23.8512  -11.5518 C   0  0  0  0  0  0  0  0  0  0  0  0
   18.3748  -23.0453  -12.6507 C   0  0  2  0  0  0  0  0  0  0  0  0
   19.2745  -21.9951  -13.1219 N   0  0  0  0  0  0  0  0  0  0  0  0
   17.0518  -22.5443  -12.3080 C   0  0  0  0  0  0  0  0  0  0  0  0
   16.9088  -21.4402  -11.4728 O   0  0  0  0  0  0  0  0  0  0  0  0
   15.9926  -23.0625  -12.7307 O   0  0  0  0  0  0  0  0  0  0  0  0
  2  1  1  0
  3  4  2  0
  3  2  1  0
  5  3  1  0
  6  5  1  0
  7  8  1  0
  7  6  1  0
  8  9  1  0
  9 10  1  6
  9  5  1  0
 10 11  2  0
 12 13  1  0
 13 14  2  0
 13 15  1  0
 16 15  1  1
 17 10  1  0
 17 16  1  0
 18 19  1  0
 18 16  1  0
 20 18  2  0
M  END
$$$$
