GPN.pdb
     RDKit          3D

 20 20  0  0  1  0  0  0  0  0999 V2000
   30.8793  -22.0360  -10.8233 N   0  0  0  0  0  0  0  0  0  0  0  0
   30.3617  -20.9328   -9.9746 C   0  0  0  0  0  0  0  0  0  0  0  0
   28.9409  -21.1714   -9.7044 C   0  0  0  0  0  0  0  0  0  0  0  0
   28.2857  -21.6954  -10.6756 O   0  0  0  0  0  0  0  0  0  0  0  0
   28.2307  -20.8933   -8.5299 N   0  0  0  0  0  0  0  0  0  0  0  0
   28.9253  -21.1143   -7.2075 C   0  0  0  0  0  0  0  0  0  0  0  0
   28.6512  -19.7763   -6.5693 C   0  0  0  0  0  0  0  0  0  0  0  0
   27.2963  -19.3602   -7.0879 C   0  0  0  0  0  0  0  0  0  0  0  0
   26.9576  -20.4808   -8.1053 C   0  0  1  0  0  0  0  0  0  0  0  0
   25.9291  -20.0217   -9.0053 C   0  0  0  0  0  0  0  0  0  0  0  0
   26.1880  -18.9516   -9.6749 O   0  0  0  0  0  0  0  0  0  0  0  0
   23.1096  -20.3005  -13.1602 N   0  0  0  0  0  0  0  0  0  0  0  0
   24.3636  -20.9805  -12.9742 C   0  0  0  0  0  0  0  0  0  0  0  0
   24.8893  -21.4191  -14.0477 O   0  0  0  0  0  0  0  0  0  0  0  0
   24.9507  -21.1327  -11.6383 C   0  0  0  0  0  0  0  0  0  0  0  0
   24.0344  -20.5244  -10.5937 C   0  0  2  0  0  0  0  0  0  0  0  0
   24.6658  -20.5763   -9.2772 N   0  0  0  0  0  0  0  0  0  0  0  0
   22.6832  -21.0659  -10.5943 C   0  0  0  0  0  0  0  0  0  0  0  0
   21.6246  -20.3232  -11.1089 O   0  0  0  0  0  0  0  0  0  0  0  0
   22.3996  -22.1996  -10.1436 O   0  0  0  0  0  0  0  0  0  0  0  0
  2  1  1  0
  3  4  2  0
  3  2  1  0
  5  3  1  0
  6  5  1  0
  7  8  1  0
  7  6  1  0
  8  9  1  0
  9 10  1  6
  9  5  1  0
 10 11  2  0
 12 13  1  0
 13 14  2  0
 13 15  1  0
 16 15  1  6
 17 10  1  0
 17 16  1  0
 18 19  1  0
 18 16  1  0
 20 18  2  0
M  END
$$$$
