GPN.pdb
     RDKit          3D

 20 20  0  0  1  0  0  0  0  0999 V2000
   27.9585  -19.1836  -15.4221 N   0  0  0  0  0  0  0  0  0  0  0  0
   27.4481  -19.1054  -14.0299 C   0  0  0  0  0  0  0  0  0  0  0  0
   26.2718  -19.9716  -13.9086 C   0  0  0  0  0  0  0  0  0  0  0  0
   25.4832  -19.9587  -14.9211 O   0  0  0  0  0  0  0  0  0  0  0  0
   25.9161  -20.7926  -12.8312 N   0  0  0  0  0  0  0  0  0  0  0  0
   27.0014  -21.6033  -12.1641 C   0  0  0  0  0  0  0  0  0  0  0  0
   26.7414  -21.2137  -10.7312 C   0  0  0  0  0  0  0  0  0  0  0  0
   25.2479  -21.0170  -10.6390 C   0  0  0  0  0  0  0  0  0  0  0  0
   24.7846  -21.2015  -12.1076 C   0  0  1  0  0  0  0  0  0  0  0  0
   23.4774  -20.6178  -12.2790 C   0  0  0  0  0  0  0  0  0  0  0  0
   23.3534  -19.3795  -11.9448 O   0  0  0  0  0  0  0  0  0  0  0  0
   22.7341  -19.9994  -16.1528 N   0  0  0  0  0  0  0  0  0  0  0  0
   21.4865  -19.9963  -15.4366 C   0  0  0  0  0  0  0  0  0  0  0  0
   20.5261  -20.5654  -16.0490 O   0  0  0  0  0  0  0  0  0  0  0  0
   21.3765  -19.3761  -14.1116 C   0  0  0  0  0  0  0  0  0  0  0  0
   21.0866  -20.4334  -13.0634 C   0  0  2  0  0  0  0  0  0  0  0  0
   22.2959  -21.1996  -12.7718 N   0  0  0  0  0  0  0  0  0  0  0  0
   19.9411  -21.2789  -13.3668 C   0  0  0  0  0  0  0  0  0  0  0  0
   20.1196  -22.6203  -13.6921 O   0  0  0  0  0  0  0  0  0  0  0  0
   18.7600  -20.8621  -13.3550 O   0  0  0  0  0  0  0  0  0  0  0  0
  2  1  1  0
  3  4  2  0
  3  2  1  0
  5  3  1  0
  6  5  1  0
  7  8  1  0
  7  6  1  0
  8  9  1  0
  9 10  1  6
  9  5  1  0
 10 11  2  0
 12 13  1  0
 13 14  2  0
 13 15  1  0
 16 15  1  6
 17 10  1  0
 17 16  1  0
 18 19  1  0
 18 16  1  0
 20 18  2  0
M  END
$$$$
