ESH.pdb
     RDKit          3D

 26 26  0  0  1  0  0  0  0  0999 V2000
    7.4110  -16.1750   17.2689 N   0  0  0  0  0  0  0  0  0  0  0  0
    8.5068  -17.1510   17.1352 C   0  0  1  0  0  0  0  0  0  0  0  0
    8.5155  -17.5514   15.6863 C   0  0  0  0  0  0  0  0  0  0  0  0
    9.1776  -16.5751   14.7797 C   0  0  0  0  0  0  0  0  0  0  0  0
    9.0870  -17.1048   13.3720 C   0  0  0  0  0  0  0  0  0  0  0  0
    8.1822  -17.9165   13.0439 O   0  0  0  0  0  0  0  0  0  0  0  0
    9.7644  -16.5968   17.6268 C   0  0  0  0  0  0  0  0  0  0  0  0
   10.8088  -17.2781   17.5793 O   0  0  0  0  0  0  0  0  0  0  0  0
    9.9898  -16.7220   12.3899 O   0  0  0  0  0  0  0  0  0  0  0  0
   10.2352  -12.6041   19.2081 O   0  0  0  0  0  0  0  0  0  0  0  0
   11.1107  -13.3039   18.3941 C   0  0  0  0  0  0  0  0  0  0  0  0
   11.0786  -14.7936   18.6555 C   0  0  2  0  0  0  0  0  0  0  0  0
    9.8262  -15.2931   18.1607 N   0  0  0  0  0  0  0  0  0  0  0  0
   11.2997  -15.1117   20.0848 C   0  0  0  0  0  0  0  0  0  0  0  0
   10.2959  -15.1760   20.8401 O   0  0  0  0  0  0  0  0  0  0  0  0
   12.5795  -15.3487   20.6536 N   0  0  0  0  0  0  0  0  0  0  0  0
   12.7432  -15.7669   22.0551 C   0  0  1  0  0  0  0  0  0  0  0  0
   11.9792  -17.0616   22.1959 C   0  0  0  0  0  0  0  0  0  0  0  0
   12.1353  -17.5904   23.5754 C   0  0  0  0  0  0  0  0  0  0  0  0
   12.7418  -16.9204   24.6412 C   0  0  0  0  0  0  0  0  0  0  0  0
   12.7096  -17.6904   25.7422 N   0  0  0  0  0  0  0  0  0  0  0  0
   12.0947  -18.8309   25.3884 C   0  0  0  0  0  0  0  0  0  0  0  0
   11.7467  -18.7779   24.0878 N   0  0  0  0  0  0  0  0  0  0  0  0
   14.1748  -15.8902   22.4013 C   0  0  0  0  0  0  0  0  0  0  0  0
   14.6159  -15.3710   23.4506 O   0  0  0  0  0  0  0  0  0  0  0  0
   15.0449  -16.5732   21.5832 O   0  0  0  0  0  0  0  0  0  0  0  0
  2  1  1  6
  2  7  1  0
  3  2  1  0
  4  3  1  0
  4  5  1  0
  5  9  1  0
  6  5  2  0
  7 13  1  0
  7  8  2  0
 10 11  1  0
 12 11  1  1
 12 14  1  0
 13 12  1  0
 14 15  2  0
 16 14  1  0
 16 17  1  0
 17 24  1  0
 17 18  1  6
 19 18  1  0
 20 19  2  0
 21 22  1  0
 21 20  1  0
 22 23  2  0
 23 19  1  0
 24 26  1  0
 25 24  2  0
M  END
$$$$
