ESH.pdb
     RDKit          3D

 26 26  0  0  1  0  0  0  0  0999 V2000
    8.7583  -17.0607   21.4139 N   0  0  0  0  0  0  0  0  0  0  0  0
    9.3058  -18.0356   22.3736 C   0  0  1  0  0  0  0  0  0  0  0  0
   10.7957  -18.0028   22.1760 C   0  0  0  0  0  0  0  0  0  0  0  0
   11.3135  -16.7360   21.5925 C   0  0  0  0  0  0  0  0  0  0  0  0
   12.7991  -16.8852   21.3889 C   0  0  0  0  0  0  0  0  0  0  0  0
   13.6088  -16.6105   22.3131 O   0  0  0  0  0  0  0  0  0  0  0  0
    8.8598  -17.7405   23.7317 C   0  0  0  0  0  0  0  0  0  0  0  0
    8.6170  -16.5637   24.0682 O   0  0  0  0  0  0  0  0  0  0  0  0
   13.3287  -17.3276   20.1848 O   0  0  0  0  0  0  0  0  0  0  0  0
    8.2986  -20.7332   26.7369 O   0  0  0  0  0  0  0  0  0  0  0  0
    7.4903  -19.6243   26.5479 C   0  0  0  0  0  0  0  0  0  0  0  0
    8.2555  -18.4354   26.0096 C   0  0  2  0  0  0  0  0  0  0  0  0
    8.6952  -18.7681   24.6834 N   0  0  0  0  0  0  0  0  0  0  0  0
    9.3694  -18.0413   26.9023 C   0  0  0  0  0  0  0  0  0  0  0  0
   10.5380  -18.3702   26.5730 O   0  0  0  0  0  0  0  0  0  0  0  0
    9.1959  -17.3132   28.1095 N   0  0  0  0  0  0  0  0  0  0  0  0
   10.3332  -16.9509   28.9705 C   0  0  1  0  0  0  0  0  0  0  0  0
    9.9621  -15.6403   29.6219 C   0  0  0  0  0  0  0  0  0  0  0  0
    9.5409  -14.6643   28.5841 C   0  0  0  0  0  0  0  0  0  0  0  0
   10.3983  -13.8981   27.7900 C   0  0  0  0  0  0  0  0  0  0  0  0
    9.6806  -13.1231   26.9593 N   0  0  0  0  0  0  0  0  0  0  0  0
    8.3890  -13.3876   27.2163 C   0  0  0  0  0  0  0  0  0  0  0  0
    8.2975  -14.3128   28.1916 N   0  0  0  0  0  0  0  0  0  0  0  0
   10.6193  -18.0280   29.9413 C   0  0  0  0  0  0  0  0  0  0  0  0
   11.5645  -17.9100   30.7524 O   0  0  0  0  0  0  0  0  0  0  0  0
    9.8580  -19.1735   29.9728 O   0  0  0  0  0  0  0  0  0  0  0  0
  2  1  1  6
  2  7  1  0
  3  2  1  0
  4  3  1  0
  4  5  1  0
  5  9  1  0
  6  5  2  0
  7 13  1  0
  7  8  2  0
 10 11  1  0
 12 11  1  1
 12 14  1  0
 13 12  1  0
 14 15  2  0
 16 14  1  0
 16 17  1  0
 17 24  1  0
 17 18  1  1
 19 18  1  0
 20 19  2  0
 21 22  1  0
 21 20  1  0
 22 23  2  0
 23 19  1  0
 24 26  1  0
 25 24  2  0
M  END
$$$$
