ESH.pdb
     RDKit          3D

 26 26  0  0  1  0  0  0  0  0999 V2000
    9.4072  -17.9181   18.4608 N   0  0  0  0  0  0  0  0  0  0  0  0
    9.6966  -18.3192   19.8488 C   0  0  1  0  0  0  0  0  0  0  0  0
   11.1656  -18.0666   20.0435 C   0  0  0  0  0  0  0  0  0  0  0  0
   11.4873  -16.7764   20.7110 C   0  0  0  0  0  0  0  0  0  0  0  0
   12.9757  -16.7243   20.9401 C   0  0  0  0  0  0  0  0  0  0  0  0
   13.4562  -16.8498   22.0971 O   0  0  0  0  0  0  0  0  0  0  0  0
    8.8238  -17.6217   20.7881 C   0  0  0  0  0  0  0  0  0  0  0  0
    7.7208  -17.1800   20.4067 O   0  0  0  0  0  0  0  0  0  0  0  0
   13.8680  -16.5373   19.8937 O   0  0  0  0  0  0  0  0  0  0  0  0
    6.7439  -19.2301   24.0969 O   0  0  0  0  0  0  0  0  0  0  0  0
    7.6322  -18.9548   23.0702 C   0  0  0  0  0  0  0  0  0  0  0  0
    8.2163  -17.5626   23.1681 C   0  0  2  0  0  0  0  0  0  0  0  0
    9.2037  -17.4338   22.1330 N   0  0  0  0  0  0  0  0  0  0  0  0
    8.7582  -17.2812   24.5173 C   0  0  0  0  0  0  0  0  0  0  0  0
    9.9746  -17.5206   24.7296 O   0  0  0  0  0  0  0  0  0  0  0  0
    7.9844  -16.7563   25.5866 N   0  0  0  0  0  0  0  0  0  0  0  0
    8.5788  -16.4393   26.8952 C   0  0  1  0  0  0  0  0  0  0  0  0
    7.5937  -15.5313   27.5915 C   0  0  0  0  0  0  0  0  0  0  0  0
    7.4268  -14.2779   26.8117 C   0  0  0  0  0  0  0  0  0  0  0  0
    8.3280  -13.2103   26.7821 C   0  0  0  0  0  0  0  0  0  0  0  0
    7.8624  -12.2420   25.9749 N   0  0  0  0  0  0  0  0  0  0  0  0
    6.6863  -12.6808   25.4969 C   0  0  0  0  0  0  0  0  0  0  0  0
    6.4182  -13.9035   25.9955 N   0  0  0  0  0  0  0  0  0  0  0  0
    8.8723  -17.6753   27.6505 C   0  0  0  0  0  0  0  0  0  0  0  0
    8.4818  -18.7836   27.2210 O   0  0  0  0  0  0  0  0  0  0  0  0
    9.5756  -17.6329   28.8322 O   0  0  0  0  0  0  0  0  0  0  0  0
  2  1  1  6
  2  7  1  0
  3  2  1  0
  4  3  1  0
  4  5  1  0
  5  9  1  0
  6  5  2  0
  7 13  1  0
  7  8  2  0
 10 11  1  0
 12 11  1  1
 12 14  1  0
 13 12  1  0
 14 15  2  0
 16 14  1  0
 16 17  1  0
 17 24  1  0
 17 18  1  1
 19 18  1  0
 20 19  2  0
 21 22  1  0
 21 20  1  0
 22 23  2  0
 23 19  1  0
 24 26  1  0
 25 24  2  0
M  END
$$$$
