ESH.pdb
     RDKit          3D

 26 26  0  0  1  0  0  0  0  0999 V2000
    9.5538  -19.0527   18.9464 N   0  0  0  0  0  0  0  0  0  0  0  0
   10.5217  -17.9678   19.1859 C   0  0  1  0  0  0  0  0  0  0  0  0
   10.9019  -17.4586   17.8236 C   0  0  0  0  0  0  0  0  0  0  0  0
   10.5198  -18.3559   16.7001 C   0  0  0  0  0  0  0  0  0  0  0  0
   10.9542  -17.7066   15.4116 C   0  0  0  0  0  0  0  0  0  0  0  0
   11.5511  -16.5981   15.4157 O   0  0  0  0  0  0  0  0  0  0  0  0
    9.9674  -16.9607   20.0853 C   0  0  0  0  0  0  0  0  0  0  0  0
   10.6237  -15.9342   20.3551 O   0  0  0  0  0  0  0  0  0  0  0  0
   10.7154  -18.3001   14.1799 O   0  0  0  0  0  0  0  0  0  0  0  0
    6.2241  -17.4108   22.0813 O   0  0  0  0  0  0  0  0  0  0  0  0
    6.6785  -16.2154   21.5489 C   0  0  0  0  0  0  0  0  0  0  0  0
    8.1881  -16.1162   21.5543 C   0  0  2  0  0  0  0  0  0  0  0  0
    8.6914  -17.1238   20.6631 N   0  0  0  0  0  0  0  0  0  0  0  0
    8.7472  -16.2270   22.9212 C   0  0  0  0  0  0  0  0  0  0  0  0
    9.3140  -17.3023   23.2447 O   0  0  0  0  0  0  0  0  0  0  0  0
    8.6810  -15.1896   23.8892 N   0  0  0  0  0  0  0  0  0  0  0  0
    9.1872  -15.3699   25.2594 C   0  0  1  0  0  0  0  0  0  0  0  0
    8.8715  -14.0883   25.9925 C   0  0  0  0  0  0  0  0  0  0  0  0
    9.3148  -14.1953   27.4064 C   0  0  0  0  0  0  0  0  0  0  0  0
    9.9486  -15.3006   27.9804 C   0  0  0  0  0  0  0  0  0  0  0  0
   10.2084  -15.0561   29.2760 N   0  0  0  0  0  0  0  0  0  0  0  0
    9.7500  -13.8187   29.5269 C   0  0  0  0  0  0  0  0  0  0  0  0
    9.2118  -13.2954   28.4080 N   0  0  0  0  0  0  0  0  0  0  0  0
    8.5880  -16.5669   25.8860 C   0  0  0  0  0  0  0  0  0  0  0  0
    7.3816  -16.8392   25.6975 O   0  0  0  0  0  0  0  0  0  0  0  0
    9.3388  -17.3998   26.6831 O   0  0  0  0  0  0  0  0  0  0  0  0
  2  1  1  6
  2  7  1  0
  3  2  1  0
  4  3  1  0
  4  5  1  0
  5  9  1  0
  6  5  2  0
  7 13  1  0
  7  8  2  0
 10 11  1  0
 12 11  1  1
 12 14  1  0
 13 12  1  0
 14 15  2  0
 16 14  1  0
 16 17  1  0
 17 24  1  0
 17 18  1  1
 19 18  1  0
 20 19  2  0
 21 22  1  0
 21 20  1  0
 22 23  2  0
 23 19  1  0
 24 26  1  0
 25 24  2  0
M  END
$$$$
