ESH.pdb
     RDKit          3D

 26 26  0  0  1  0  0  0  0  0999 V2000
   11.0304  -18.7344   15.4527 N   0  0  0  0  0  0  0  0  0  0  0  0
   10.3230  -19.1217   16.6859 C   0  0  1  0  0  0  0  0  0  0  0  0
   10.1866  -20.6173   16.6196 C   0  0  0  0  0  0  0  0  0  0  0  0
   11.2352  -21.3666   17.3628 C   0  0  0  0  0  0  0  0  0  0  0  0
   10.9612  -22.8399   17.2047 C   0  0  0  0  0  0  0  0  0  0  0  0
   10.5713  -23.5331   18.1808 O   0  0  0  0  0  0  0  0  0  0  0  0
   11.0177  -18.6202   17.8675 C   0  0  0  0  0  0  0  0  0  0  0  0
   12.1964  -18.2205   17.7772 O   0  0  0  0  0  0  0  0  0  0  0  0
   11.1263  -23.4852   15.9872 O   0  0  0  0  0  0  0  0  0  0  0  0
    8.9613  -17.7825   21.4054 O   0  0  0  0  0  0  0  0  0  0  0  0
   10.0753  -17.0914   20.9578 C   0  0  0  0  0  0  0  0  0  0  0  0
   11.0621  -17.9864   20.2410 C   0  0  2  0  0  0  0  0  0  0  0  0
   10.3789  -18.5767   19.1240 N   0  0  0  0  0  0  0  0  0  0  0  0
   11.6584  -18.9941   21.1477 C   0  0  0  0  0  0  0  0  0  0  0  0
   11.1188  -20.1287   21.2101 O   0  0  0  0  0  0  0  0  0  0  0  0
   12.8046  -18.7548   21.9517 N   0  0  0  0  0  0  0  0  0  0  0  0
   13.2731  -19.7299   22.9495 C   0  0  1  0  0  0  0  0  0  0  0  0
   14.6933  -19.3383   23.2804 C   0  0  0  0  0  0  0  0  0  0  0  0
   15.6036  -19.7818   22.1934 C   0  0  0  0  0  0  0  0  0  0  0  0
   15.2499  -20.5997   21.1170 C   0  0  0  0  0  0  0  0  0  0  0  0
   16.3174  -20.8003   20.3257 N   0  0  0  0  0  0  0  0  0  0  0  0
   17.3348  -20.1242   20.8843 C   0  0  0  0  0  0  0  0  0  0  0  0
   16.9132  -19.5098   22.0069 N   0  0  0  0  0  0  0  0  0  0  0  0
   12.3796  -19.7454   24.1267 C   0  0  0  0  0  0  0  0  0  0  0  0
   11.5404  -18.8324   24.2923 O   0  0  0  0  0  0  0  0  0  0  0  0
   12.4516  -20.7562   25.0572 O   0  0  0  0  0  0  0  0  0  0  0  0
  2  1  1  6
  2  7  1  0
  3  2  1  0
  4  3  1  0
  4  5  1  0
  5  9  1  0
  6  5  2  0
  7 13  1  0
  7  8  2  0
 10 11  1  0
 12 11  1  1
 12 14  1  0
 13 12  1  0
 14 15  2  0
 16 14  1  0
 16 17  1  0
 17 24  1  0
 17 18  1  1
 19 18  1  0
 20 19  2  0
 21 22  1  0
 21 20  1  0
 22 23  2  0
 23 19  1  0
 24 26  1  0
 25 24  2  0
M  END
$$$$
