ESH.pdb
     RDKit          3D

 26 26  0  0  1  0  0  0  0  0999 V2000
   10.1873  -16.0731   17.9517 N   0  0  0  0  0  0  0  0  0  0  0  0
   10.1204  -17.0691   19.0355 C   0  0  1  0  0  0  0  0  0  0  0  0
   11.2482  -18.0276   18.7725 C   0  0  0  0  0  0  0  0  0  0  0  0
   11.5955  -18.1932   17.3354 C   0  0  0  0  0  0  0  0  0  0  0  0
   12.3716  -19.4759   17.1843 C   0  0  0  0  0  0  0  0  0  0  0  0
   12.0181  -20.5205   17.7920 O   0  0  0  0  0  0  0  0  0  0  0  0
   10.1562  -16.4226   20.3436 C   0  0  0  0  0  0  0  0  0  0  0  0
   11.2403  -16.2946   20.9483 O   0  0  0  0  0  0  0  0  0  0  0  0
   13.4971  -19.5558   16.3763 O   0  0  0  0  0  0  0  0  0  0  0  0
    6.6494  -15.5913   22.4976 O   0  0  0  0  0  0  0  0  0  0  0  0
    7.7185  -14.7123   22.5531 C   0  0  0  0  0  0  0  0  0  0  0  0
    9.0414  -15.3916   22.2752 C   0  0  2  0  0  0  0  0  0  0  0  0
    8.9790  -15.9336   20.9466 N   0  0  0  0  0  0  0  0  0  0  0  0
    9.3671  -16.4125   23.2974 C   0  0  0  0  0  0  0  0  0  0  0  0
    9.6190  -17.5818   22.9085 O   0  0  0  0  0  0  0  0  0  0  0  0
    9.4119  -16.1487   24.6925 N   0  0  0  0  0  0  0  0  0  0  0  0
   10.3206  -16.8755   25.5935 C   0  0  1  0  0  0  0  0  0  0  0  0
   11.7045  -16.7094   25.0128 C   0  0  0  0  0  0  0  0  0  0  0  0
   12.1277  -17.9712   24.3527 C   0  0  0  0  0  0  0  0  0  0  0  0
   11.3233  -19.0964   24.1535 C   0  0  0  0  0  0  0  0  0  0  0  0
   12.0261  -20.0549   23.5265 N   0  0  0  0  0  0  0  0  0  0  0  0
   13.2563  -19.5536   23.3280 C   0  0  0  0  0  0  0  0  0  0  0  0
   13.3247  -18.3019   23.8220 N   0  0  0  0  0  0  0  0  0  0  0  0
   10.2008  -16.3706   26.9773 C   0  0  0  0  0  0  0  0  0  0  0  0
    9.8794  -15.1799   27.1877 O   0  0  0  0  0  0  0  0  0  0  0  0
   10.4383  -17.1931   28.0543 O   0  0  0  0  0  0  0  0  0  0  0  0
  2  1  1  6
  2  7  1  0
  3  2  1  0
  4  3  1  0
  4  5  1  0
  5  9  1  0
  6  5  2  0
  7 13  1  0
  7  8  2  0
 10 11  1  0
 12 11  1  1
 12 14  1  0
 13 12  1  0
 14 15  2  0
 16 14  1  0
 16 17  1  0
 17 24  1  0
 17 18  1  6
 19 18  1  0
 20 19  2  0
 21 22  1  0
 21 20  1  0
 22 23  2  0
 23 19  1  0
 24 26  1  0
 25 24  2  0
M  END
$$$$
