ESH.pdb
     RDKit          3D

 26 26  0  0  1  0  0  0  0  0999 V2000
   10.8931  -16.1888   19.3964 N   0  0  0  0  0  0  0  0  0  0  0  0
    9.8221  -16.4399   20.3768 C   0  0  1  0  0  0  0  0  0  0  0  0
    9.3396  -17.8361   20.0980 C   0  0  0  0  0  0  0  0  0  0  0  0
   10.3747  -18.8918   20.2638 C   0  0  0  0  0  0  0  0  0  0  0  0
    9.7161  -20.2317   20.0600 C   0  0  0  0  0  0  0  0  0  0  0  0
    9.0106  -20.4568   19.0418 O   0  0  0  0  0  0  0  0  0  0  0  0
   10.2957  -16.2142   21.7388 C   0  0  0  0  0  0  0  0  0  0  0  0
   11.5074  -16.3417   22.0086 O   0  0  0  0  0  0  0  0  0  0  0  0
    9.8601  -21.2617   20.9790 O   0  0  0  0  0  0  0  0  0  0  0  0
    7.6434  -15.3556   24.8720 O   0  0  0  0  0  0  0  0  0  0  0  0
    8.9107  -14.7969   24.8443 C   0  0  0  0  0  0  0  0  0  0  0  0
    9.9070  -15.6587   24.1004 C   0  0  2  0  0  0  0  0  0  0  0  0
    9.4039  -15.8510   22.7690 N   0  0  0  0  0  0  0  0  0  0  0  0
   10.1724  -16.9344   24.8042 C   0  0  0  0  0  0  0  0  0  0  0  0
    9.4396  -17.9217   24.5387 O   0  0  0  0  0  0  0  0  0  0  0  0
   11.2066  -17.1089   25.7621 N   0  0  0  0  0  0  0  0  0  0  0  0
   11.3804  -18.3711   26.4989 C   0  0  1  0  0  0  0  0  0  0  0  0
   12.8669  -18.6338   26.5310 C   0  0  0  0  0  0  0  0  0  0  0  0
   13.3448  -18.9865   25.1693 C   0  0  0  0  0  0  0  0  0  0  0  0
   12.5988  -19.6465   24.1892 C   0  0  0  0  0  0  0  0  0  0  0  0
   13.3401  -19.8030   23.0793 N   0  0  0  0  0  0  0  0  0  0  0  0
   14.5372  -19.2541   23.3433 C   0  0  0  0  0  0  0  0  0  0  0  0
   14.5473  -18.7614   24.5973 N   0  0  0  0  0  0  0  0  0  0  0  0
   10.7716  -18.2814   27.8426 C   0  0  0  0  0  0  0  0  0  0  0  0
   10.2210  -17.2215   28.2151 O   0  0  0  0  0  0  0  0  0  0  0  0
   10.7974  -19.3532   28.7048 O   0  0  0  0  0  0  0  0  0  0  0  0
  2  1  1  6
  2  7  1  0
  3  2  1  0
  4  3  1  0
  4  5  1  0
  5  9  1  0
  6  5  2  0
  7 13  1  0
  7  8  2  0
 10 11  1  0
 12 11  1  1
 12 14  1  0
 13 12  1  0
 14 15  2  0
 16 14  1  0
 16 17  1  0
 17 24  1  0
 17 18  1  1
 19 18  1  0
 20 19  2  0
 21 22  1  0
 21 20  1  0
 22 23  2  0
 23 19  1  0
 24 26  1  0
 25 24  2  0
M  END
$$$$
