ESH.pdb
     RDKit          3D

 26 26  0  0  1  0  0  0  0  0999 V2000
    9.9520  -18.2081   18.9895 N   0  0  0  0  0  0  0  0  0  0  0  0
   10.1472  -18.9965   20.2189 C   0  0  1  0  0  0  0  0  0  0  0  0
   11.6173  -18.9136   20.5218 C   0  0  0  0  0  0  0  0  0  0  0  0
   12.0478  -17.6345   21.1478 C   0  0  0  0  0  0  0  0  0  0  0  0
   13.5159  -17.7399   21.4704 C   0  0  0  0  0  0  0  0  0  0  0  0
   14.1359  -16.7717   21.9835 O   0  0  0  0  0  0  0  0  0  0  0  0
    9.2724  -18.5247   21.2879 C   0  0  0  0  0  0  0  0  0  0  0  0
    8.7619  -17.3879   21.2222 O   0  0  0  0  0  0  0  0  0  0  0  0
   14.2363  -18.8987   21.2167 O   0  0  0  0  0  0  0  0  0  0  0  0
    7.9163  -21.0473   24.4544 O   0  0  0  0  0  0  0  0  0  0  0  0
    7.1795  -20.1162   23.7410 C   0  0  0  0  0  0  0  0  0  0  0  0
    7.9979  -18.9041   23.3539 C   0  0  2  0  0  0  0  0  0  0  0  0
    8.9879  -19.3347   22.4066 N   0  0  0  0  0  0  0  0  0  0  0  0
    8.5868  -18.2314   24.5346 C   0  0  0  0  0  0  0  0  0  0  0  0
    9.8342  -18.2854   24.6870 O   0  0  0  0  0  0  0  0  0  0  0  0
    7.8253  -17.5283   25.5058 N   0  0  0  0  0  0  0  0  0  0  0  0
    8.4491  -16.9140   26.6888 C   0  0  1  0  0  0  0  0  0  0  0  0
    7.4059  -15.9976   27.2818 C   0  0  0  0  0  0  0  0  0  0  0  0
    7.1567  -14.8577   26.3624 C   0  0  0  0  0  0  0  0  0  0  0  0
    7.9532  -14.5019   25.2707 C   0  0  0  0  0  0  0  0  0  0  0  0
    7.4352  -13.4227   24.6600 N   0  0  0  0  0  0  0  0  0  0  0  0
    6.3288  -13.0938   25.3470 C   0  0  0  0  0  0  0  0  0  0  0  0
    6.1552  -13.9517   26.3713 N   0  0  0  0  0  0  0  0  0  0  0  0
    8.9219  -17.9510   27.6298 C   0  0  0  0  0  0  0  0  0  0  0  0
    8.6083  -19.1496   27.4555 O   0  0  0  0  0  0  0  0  0  0  0  0
    9.7104  -17.6223   28.7083 O   0  0  0  0  0  0  0  0  0  0  0  0
  2  1  1  6
  2  7  1  0
  3  2  1  0
  4  3  1  0
  4  5  1  0
  5  9  1  0
  6  5  2  0
  7 13  1  0
  7  8  2  0
 10 11  1  0
 12 11  1  1
 12 14  1  0
 13 12  1  0
 14 15  2  0
 16 14  1  0
 16 17  1  0
 17 24  1  0
 17 18  1  1
 19 18  1  0
 20 19  2  0
 21 22  1  0
 21 20  1  0
 22 23  2  0
 23 19  1  0
 24 26  1  0
 25 24  2  0
M  END
$$$$
