ESH.pdb
     RDKit          3D

 26 26  0  0  1  0  0  0  0  0999 V2000
    9.2612  -15.1394   13.7569 N   0  0  0  0  0  0  0  0  0  0  0  0
    8.7252  -15.6154   15.0442 C   0  0  1  0  0  0  0  0  0  0  0  0
    8.9032  -17.1081   15.0278 C   0  0  0  0  0  0  0  0  0  0  0  0
   10.3078  -17.5604   14.8380 C   0  0  0  0  0  0  0  0  0  0  0  0
   10.3150  -19.0667   14.7986 C   0  0  0  0  0  0  0  0  0  0  0  0
   10.8873  -19.7340   15.6998 O   0  0  0  0  0  0  0  0  0  0  0  0
    9.3669  -14.9326   16.1633 C   0  0  0  0  0  0  0  0  0  0  0  0
   10.5811  -14.6494   16.1096 O   0  0  0  0  0  0  0  0  0  0  0  0
    9.6962  -19.7718   13.7758 O   0  0  0  0  0  0  0  0  0  0  0  0
    7.4676  -14.3500   19.8764 O   0  0  0  0  0  0  0  0  0  0  0  0
    8.2248  -13.3405   19.3053 C   0  0  0  0  0  0  0  0  0  0  0  0
    9.2958  -13.8736   18.3792 C   0  0  2  0  0  0  0  0  0  0  0  0
    8.6367  -14.5817   17.3175 N   0  0  0  0  0  0  0  0  0  0  0  0
   10.2866  -14.7074   19.0976 C   0  0  0  0  0  0  0  0  0  0  0  0
   10.1965  -15.9577   18.9929 O   0  0  0  0  0  0  0  0  0  0  0  0
   11.3335  -14.1781   19.8984 N   0  0  0  0  0  0  0  0  0  0  0  0
   12.2493  -15.0463   20.6558 C   0  0  1  0  0  0  0  0  0  0  0  0
   13.5495  -14.2864   20.7649 C   0  0  0  0  0  0  0  0  0  0  0  0
   14.3263  -14.4356   19.5075 C   0  0  0  0  0  0  0  0  0  0  0  0
   14.1598  -15.4513   18.5622 C   0  0  0  0  0  0  0  0  0  0  0  0
   15.0272  -15.2799   17.5502 N   0  0  0  0  0  0  0  0  0  0  0  0
   15.7352  -14.1762   17.8415 C   0  0  0  0  0  0  0  0  0  0  0  0
   15.3195  -13.6636   19.0162 N   0  0  0  0  0  0  0  0  0  0  0  0
   11.6677  -15.4046   21.9664 C   0  0  0  0  0  0  0  0  0  0  0  0
   12.3024  -16.1364   22.7582 O   0  0  0  0  0  0  0  0  0  0  0  0
   10.4261  -14.9442   22.3399 O   0  0  0  0  0  0  0  0  0  0  0  0
  2  1  1  6
  2  7  1  0
  3  2  1  0
  4  3  1  0
  4  5  1  0
  5  9  1  0
  6  5  2  0
  7 13  1  0
  7  8  2  0
 10 11  1  0
 12 11  1  1
 12 14  1  0
 13 12  1  0
 14 15  2  0
 16 14  1  0
 16 17  1  0
 17 24  1  0
 17 18  1  1
 19 18  1  0
 20 19  2  0
 21 22  1  0
 21 20  1  0
 22 23  2  0
 23 19  1  0
 24 26  1  0
 25 24  2  0
M  END
$$$$
