ESH.pdb
     RDKit          3D

 26 26  0  0  1  0  0  0  0  0999 V2000
   13.4608  -16.3154   15.4858 N   0  0  0  0  0  0  0  0  0  0  0  0
   13.8119  -16.9370   16.7748 C   0  0  1  0  0  0  0  0  0  0  0  0
   14.9320  -16.1037   17.3324 C   0  0  0  0  0  0  0  0  0  0  0  0
   14.9119  -14.6782   16.9073 C   0  0  0  0  0  0  0  0  0  0  0  0
   16.1226  -13.9968   17.4909 C   0  0  0  0  0  0  0  0  0  0  0  0
   16.0063  -13.1627   18.4268 O   0  0  0  0  0  0  0  0  0  0  0  0
   12.6406  -17.0486   17.6385 C   0  0  0  0  0  0  0  0  0  0  0  0
   11.6278  -16.3560   17.4111 O   0  0  0  0  0  0  0  0  0  0  0  0
   17.4027  -14.2596   17.0235 O   0  0  0  0  0  0  0  0  0  0  0  0
   12.4822  -19.6376   21.0147 O   0  0  0  0  0  0  0  0  0  0  0  0
   11.4328  -19.4456   20.1313 C   0  0  0  0  0  0  0  0  0  0  0  0
   11.4332  -18.0598   19.5244 C   0  0  2  0  0  0  0  0  0  0  0  0
   12.6279  -17.9323   18.7374 N   0  0  0  0  0  0  0  0  0  0  0  0
   11.3078  -17.0026   20.5538 C   0  0  0  0  0  0  0  0  0  0  0  0
   12.3550  -16.4203   20.9365 O   0  0  0  0  0  0  0  0  0  0  0  0
   10.0736  -16.6070   21.1350 N   0  0  0  0  0  0  0  0  0  0  0  0
   10.0025  -15.5835   22.1902 C   0  0  1  0  0  0  0  0  0  0  0  0
    8.6090  -15.0065   22.1182 C   0  0  0  0  0  0  0  0  0  0  0  0
    8.4523  -14.2253   20.8644 C   0  0  0  0  0  0  0  0  0  0  0  0
    9.4672  -13.9478   19.9447 C   0  0  0  0  0  0  0  0  0  0  0  0
    8.9756  -13.2190   18.9283 N   0  0  0  0  0  0  0  0  0  0  0  0
    7.6717  -13.0334   19.1917 C   0  0  0  0  0  0  0  0  0  0  0  0
    7.3502  -13.6352   20.3535 N   0  0  0  0  0  0  0  0  0  0  0  0
   10.3284  -16.1667   23.5085 C   0  0  0  0  0  0  0  0  0  0  0  0
   10.4252  -17.4069   23.6420 O   0  0  0  0  0  0  0  0  0  0  0  0
   10.5305  -15.3641   24.6075 O   0  0  0  0  0  0  0  0  0  0  0  0
  2  1  1  6
  2  7  1  0
  3  2  1  0
  4  3  1  0
  4  5  1  0
  5  9  1  0
  6  5  2  0
  7 13  1  0
  7  8  2  0
 10 11  1  0
 12 11  1  1
 12 14  1  0
 13 12  1  0
 14 15  2  0
 16 14  1  0
 16 17  1  0
 17 24  1  0
 17 18  1  1
 19 18  1  0
 20 19  2  0
 21 22  1  0
 21 20  1  0
 22 23  2  0
 23 19  1  0
 24 26  1  0
 25 24  2  0
M  END
$$$$
