ESH.pdb
     RDKit          3D

 26 26  0  0  1  0  0  0  0  0999 V2000
   14.2138  -19.6712   20.3128 N   0  0  0  0  0  0  0  0  0  0  0  0
   14.2867  -18.2093   20.1439 C   0  0  1  0  0  0  0  0  0  0  0  0
   14.4610  -17.9821   18.6681 C   0  0  0  0  0  0  0  0  0  0  0  0
   13.8866  -19.0505   17.8068 C   0  0  0  0  0  0  0  0  0  0  0  0
   14.0770  -18.6468   16.3675 C   0  0  0  0  0  0  0  0  0  0  0  0
   13.1155  -18.1983   15.6895 O   0  0  0  0  0  0  0  0  0  0  0  0
   13.1221  -17.5554   20.7325 C   0  0  0  0  0  0  0  0  0  0  0  0
   12.9922  -16.3171   20.6503 O   0  0  0  0  0  0  0  0  0  0  0  0
   15.3093  -18.7526   15.7380 O   0  0  0  0  0  0  0  0  0  0  0  0
    9.8836  -19.6683   22.5516 O   0  0  0  0  0  0  0  0  0  0  0  0
    9.7969  -18.4843   21.8379 C   0  0  0  0  0  0  0  0  0  0  0  0
   11.0231  -17.6147   22.0084 C   0  0  2  0  0  0  0  0  0  0  0  0
   12.1285  -18.3010   21.4000 N   0  0  0  0  0  0  0  0  0  0  0  0
   11.2695  -17.2741   23.4284 C   0  0  0  0  0  0  0  0  0  0  0  0
   12.1861  -17.8862   24.0346 O   0  0  0  0  0  0  0  0  0  0  0  0
   10.5311  -16.2962   24.1468 N   0  0  0  0  0  0  0  0  0  0  0  0
   10.7477  -16.0566   25.5826 C   0  0  1  0  0  0  0  0  0  0  0  0
    9.8605  -14.8913   25.9494 C   0  0  0  0  0  0  0  0  0  0  0  0
   10.0100  -14.5806   27.3944 C   0  0  0  0  0  0  0  0  0  0  0  0
   10.8180  -15.2756   28.2982 C   0  0  0  0  0  0  0  0  0  0  0  0
   10.7138  -14.7260   29.5201 N   0  0  0  0  0  0  0  0  0  0  0  0
    9.8561  -13.6992   29.4012 C   0  0  0  0  0  0  0  0  0  0  0  0
    9.4291  -13.6058   28.1267 N   0  0  0  0  0  0  0  0  0  0  0  0
   10.4656  -17.2778   26.3659 C   0  0  0  0  0  0  0  0  0  0  0  0
    9.5184  -18.0285   26.0426 O   0  0  0  0  0  0  0  0  0  0  0  0
   11.2327  -17.6117   27.4580 O   0  0  0  0  0  0  0  0  0  0  0  0
  2  1  1  6
  2  7  1  0
  3  2  1  0
  4  3  1  0
  4  5  1  0
  5  9  1  0
  6  5  2  0
  7 13  1  0
  7  8  2  0
 10 11  1  0
 12 11  1  1
 12 14  1  0
 13 12  1  0
 14 15  2  0
 16 14  1  0
 16 17  1  0
 17 24  1  0
 17 18  1  1
 19 18  1  0
 20 19  2  0
 21 22  1  0
 21 20  1  0
 22 23  2  0
 23 19  1  0
 24 26  1  0
 25 24  2  0
M  END
$$$$
