RAI.pdb
     RDKit          3D

 25 24  0  0  1  0  0  0  0  0999 V2000
   11.4035  -23.0877   20.0278 N   0  0  0  0  0  0  0  0  0  0  0  0
   10.4810  -22.3646   19.2087 C   0  0  0  0  0  0  0  0  0  0  0  0
   10.1192  -22.8037   18.0469 N   0  0  0  0  0  0  0  0  0  0  0  0
    9.9275  -21.1325   19.6460 N   0  0  0  0  0  0  0  0  0  0  0  0
   10.3222  -20.5837   20.9145 C   0  0  0  0  0  0  0  0  0  0  0  0
   11.3689  -19.4891   20.7180 C   0  0  0  0  0  0  0  0  0  0  0  0
   10.7472  -18.2079   21.2404 C   0  0  0  0  0  0  0  0  0  0  0  0
   10.4144  -17.2640   20.1072 C   0  0  2  0  0  0  0  0  0  0  0  0
   11.6894  -16.8019   19.5647 N   0  0  0  0  0  0  0  0  0  0  0  0
    9.7454  -16.0693   20.7277 C   0  0  0  0  0  0  0  0  0  0  0  0
   10.4123  -15.0527   21.0667 O   0  0  0  0  0  0  0  0  0  0  0  0
    9.4432  -22.2976   17.4484 C   0  0  0  0  0  0  0  0  0  0  0  0
    6.2634  -14.7935   21.3134 C   0  0  1  0  0  0  0  0  0  0  0  0
    7.7379  -14.9110   21.6215 N   0  0  0  0  0  0  0  0  0  0  0  0
    8.3538  -16.0249   20.9596 C   0  0  0  0  0  0  0  0  0  0  0  0
    8.0143  -14.9849   23.0569 O   0  0  0  0  0  0  0  0  0  0  0  0
    8.7564  -15.8953   23.5002 C   0  0  0  0  0  0  0  0  0  0  0  0
    6.0613  -10.9541   26.0711 C   0  0  0  0  0  0  0  0  0  0  0  0
    7.2815  -11.8038   25.7943 C   0  0  2  0  0  0  0  0  0  0  0  0
    7.0647  -13.2220   26.2774 C   0  0  0  0  0  0  0  0  0  0  0  0
    7.5141  -13.3219   27.7112 C   0  0  2  0  0  0  0  0  0  0  0  0
    7.7549  -14.2326   25.4222 N   0  0  0  0  0  0  0  0  0  0  0  0
    7.4917  -14.0775   24.0193 C   0  0  0  0  0  0  0  0  0  0  0  0
    7.4243  -15.6224   25.8860 O   0  0  0  0  0  0  0  0  0  0  0  0
    8.0822  -16.1801   26.8175 O   0  0  0  0  0  0  0  0  0  0  0  0
  2  1  1  0
  2  3  2  0
  4  2  1  0
  5  4  1  0
  6  5  1  0
  7  6  1  0
  8  7  1  0
  8  9  1  1
 10  8  1  0
 10 14  1  0
 11 10  2  0
 13 14  1  0
 13 12  1  6
 15 13  1  0
 15 16  2  0
 18 19  1  0
 18 17  1  0
 19 21  1  0
 19 20  1  6
 21 22  1  6
 21 23  1  0
 22 15  1  0
 23 24  2  0
 23 25  1  0
M  END
$$$$
