RAI.pdb
     RDKit          3D

 25 24  0  0  1  0  0  0  0  0999 V2000
    8.1664  -13.0445   16.9326 N   0  0  0  0  0  0  0  0  0  0  0  0
    8.8408  -13.2367   18.1789 C   0  0  0  0  0  0  0  0  0  0  0  0
    9.2298  -12.2352   18.8994 N   0  0  0  0  0  0  0  0  0  0  0  0
    9.1077  -14.5416   18.6704 N   0  0  0  0  0  0  0  0  0  0  0  0
    8.3658  -15.0462   19.7933 C   0  0  0  0  0  0  0  0  0  0  0  0
    6.8708  -15.0576   19.4814 C   0  0  0  0  0  0  0  0  0  0  0  0
    6.1782  -15.5487   20.7384 C   0  0  0  0  0  0  0  0  0  0  0  0
    6.6270  -16.9476   21.0949 C   0  0  2  0  0  0  0  0  0  0  0  0
    5.5975  -17.8539   20.5924 N   0  0  0  0  0  0  0  0  0  0  0  0
    6.5940  -17.0386   22.5951 C   0  0  0  0  0  0  0  0  0  0  0  0
    5.5911  -16.6400   23.2497 O   0  0  0  0  0  0  0  0  0  0  0  0
    9.7635  -12.3578   19.7777 C   0  0  0  0  0  0  0  0  0  0  0  0
    7.9668  -19.1302   25.2051 C   0  0  1  0  0  0  0  0  0  0  0  0
    7.5907  -17.7358   24.7611 N   0  0  0  0  0  0  0  0  0  0  0  0
    7.6707  -17.5683   23.3385 C   0  0  0  0  0  0  0  0  0  0  0  0
    8.3846  -16.6966   25.4184 O   0  0  0  0  0  0  0  0  0  0  0  0
    9.3990  -16.2327   24.8423 C   0  0  0  0  0  0  0  0  0  0  0  0
    6.2016  -12.5122   27.8874 C   0  0  0  0  0  0  0  0  0  0  0  0
    7.1436  -13.3830   27.0861 C   0  0  2  0  0  0  0  0  0  0  0  0
    8.1359  -14.0739   27.9969 C   0  0  0  0  0  0  0  0  0  0  0  0
    9.0508  -13.0381   28.5951 C   0  0  2  0  0  0  0  0  0  0  0  0
    8.9109  -15.1417   27.2980 N   0  0  0  0  0  0  0  0  0  0  0  0
    8.0876  -16.1539   26.6990 C   0  0  0  0  0  0  0  0  0  0  0  0
    9.9234  -15.7460   28.2285 O   0  0  0  0  0  0  0  0  0  0  0  0
    9.6491  -16.7717   28.9244 O   0  0  0  0  0  0  0  0  0  0  0  0
  2  1  1  0
  2  3  2  0
  4  2  1  0
  5  4  1  0
  6  5  1  0
  7  6  1  0
  8  7  1  0
  8  9  1  6
 10  8  1  0
 10 14  1  0
 11 10  2  0
 13 14  1  0
 13 12  1  6
 15 13  1  0
 15 16  2  0
 18 19  1  0
 18 17  1  0
 19 21  1  0
 19 20  1  1
 21 22  1  6
 21 23  1  0
 22 15  1  0
 23 24  2  0
 23 25  1  0
M  END
$$$$
