RAI.pdb
     RDKit          3D

 25 24  0  0  1  0  0  0  0  0999 V2000
    8.5656  -15.5616   15.1285 N   0  0  0  0  0  0  0  0  0  0  0  0
    7.9516  -14.5902   15.9796 C   0  0  0  0  0  0  0  0  0  0  0  0
    7.9927  -13.3268   15.7045 N   0  0  0  0  0  0  0  0  0  0  0  0
    7.2719  -14.9824   17.1628 N   0  0  0  0  0  0  0  0  0  0  0  0
    6.8334  -13.9828   18.0979 C   0  0  0  0  0  0  0  0  0  0  0  0
    8.0291  -13.3809   18.8330 C   0  0  0  0  0  0  0  0  0  0  0  0
    7.8369  -13.7131   20.3005 C   0  0  0  0  0  0  0  0  0  0  0  0
    9.0244  -14.4734   20.8457 C   0  0  2  0  0  0  0  0  0  0  0  0
    9.1711  -15.6651   20.0136 N   0  0  0  0  0  0  0  0  0  0  0  0
    8.6366  -14.9454   22.2193 C   0  0  0  0  0  0  0  0  0  0  0  0
    8.3134  -14.1250   23.1225 O   0  0  0  0  0  0  0  0  0  0  0  0
    7.5491  -12.6128   16.3085 C   0  0  0  0  0  0  0  0  0  0  0  0
    7.9504  -18.2344   23.9358 C   0  0  2  0  0  0  0  0  0  0  0  0
    8.2360  -16.7519   23.8766 N   0  0  0  0  0  0  0  0  0  0  0  0
    8.6148  -16.3140   22.5640 C   0  0  0  0  0  0  0  0  0  0  0  0
    9.2521  -16.3300   24.8419 O   0  0  0  0  0  0  0  0  0  0  0  0
   10.4221  -16.0979   24.4504 C   0  0  0  0  0  0  0  0  0  0  0  0
    8.7260  -12.2058   27.8908 C   0  0  0  0  0  0  0  0  0  0  0  0
    9.2720  -13.3372   27.0483 C   0  0  2  0  0  0  0  0  0  0  0  0
    9.6730  -14.5070   27.9215 C   0  0  0  0  0  0  0  0  0  0  0  0
   10.8019  -14.0783   28.8213 C   0  0  2  0  0  0  0  0  0  0  0  0
   10.0426  -15.7165   27.1281 N   0  0  0  0  0  0  0  0  0  0  0  0
    9.0102  -16.1568   26.2327 C   0  0  0  0  0  0  0  0  0  0  0  0
   10.4790  -16.8265   28.0410 O   0  0  0  0  0  0  0  0  0  0  0  0
   11.6499  -16.8551   28.5306 O   0  0  0  0  0  0  0  0  0  0  0  0
  2  1  1  0
  2  3  2  0
  4  2  1  0
  5  4  1  0
  6  5  1  0
  7  6  1  0
  8  7  1  0
  8  9  1  6
 10  8  1  0
 10 14  1  0
 11 10  2  0
 13 14  1  0
 13 12  1  6
 15 13  1  0
 15 16  2  0
 18 19  1  0
 18 17  1  0
 19 21  1  0
 19 20  1  1
 21 22  1  6
 21 23  1  0
 22 15  1  0
 23 24  2  0
 23 25  1  0
M  END
$$$$
