RAI.pdb
     RDKit          3D

 25 24  0  0  1  0  0  0  0  0999 V2000
   10.3046  -13.3424   19.0270 N   0  0  0  0  0  0  0  0  0  0  0  0
    9.1968  -13.5842   18.1557 C   0  0  0  0  0  0  0  0  0  0  0  0
    8.5798  -12.6153   17.5606 N   0  0  0  0  0  0  0  0  0  0  0  0
    8.7341  -14.9043   17.9129 N   0  0  0  0  0  0  0  0  0  0  0  0
    7.9865  -15.5957   18.9273 C   0  0  0  0  0  0  0  0  0  0  0  0
    6.9351  -14.6707   19.5367 C   0  0  0  0  0  0  0  0  0  0  0  0
    6.1426  -15.5153   20.5163 C   0  0  0  0  0  0  0  0  0  0  0  0
    6.9159  -16.7507   20.9182 C   0  0  2  0  0  0  0  0  0  0  0  0
    6.2062  -17.8898   20.3414 N   0  0  0  0  0  0  0  0  0  0  0  0
    6.7891  -16.8682   22.4115 C   0  0  0  0  0  0  0  0  0  0  0  0
    5.7391  -16.4991   23.0068 O   0  0  0  0  0  0  0  0  0  0  0  0
    7.8236  -12.7785   16.8729 C   0  0  0  0  0  0  0  0  0  0  0  0
    8.0421  -18.8843   25.1463 C   0  0  1  0  0  0  0  0  0  0  0  0
    7.6892  -17.5063   24.6371 N   0  0  0  0  0  0  0  0  0  0  0  0
    7.8261  -17.3912   23.2136 C   0  0  0  0  0  0  0  0  0  0  0  0
    8.4605  -16.4456   25.2870 O   0  0  0  0  0  0  0  0  0  0  0  0
    9.5052  -16.0137   24.7407 C   0  0  0  0  0  0  0  0  0  0  0  0
    6.7084  -11.7803   26.7764 C   0  0  0  0  0  0  0  0  0  0  0  0
    7.5644  -12.9451   26.3311 C   0  0  2  0  0  0  0  0  0  0  0  0
    8.2241  -13.6079   27.5215 C   0  0  0  0  0  0  0  0  0  0  0  0
    9.1501  -12.6185   28.1784 C   0  0  2  0  0  0  0  0  0  0  0  0
    8.9452  -14.8627   27.1544 N   0  0  0  0  0  0  0  0  0  0  0  0
    8.1083  -15.8468   26.5280 C   0  0  0  0  0  0  0  0  0  0  0  0
    9.6473  -15.4316   28.3542 O   0  0  0  0  0  0  0  0  0  0  0  0
    9.1089  -16.3344   29.0660 O   0  0  0  0  0  0  0  0  0  0  0  0
  2  1  1  0
  2  3  2  0
  4  2  1  0
  5  4  1  0
  6  5  1  0
  7  6  1  0
  8  7  1  0
  8  9  1  6
 10  8  1  0
 10 14  1  0
 11 10  2  0
 13 14  1  0
 13 12  1  6
 15 13  1  0
 15 16  2  0
 18 19  1  0
 18 17  1  0
 19 21  1  0
 19 20  1  1
 21 22  1  6
 21 23  1  0
 22 15  1  0
 23 24  2  0
 23 25  1  0
M  END
$$$$
