RAI.pdb
     RDKit          3D

 25 24  0  0  1  0  0  0  0  0999 V2000
    8.9308  -15.5994   15.1868 N   0  0  0  0  0  0  0  0  0  0  0  0
    8.6562  -14.3637   15.8520 C   0  0  0  0  0  0  0  0  0  0  0  0
    7.8555  -13.4843   15.3429 N   0  0  0  0  0  0  0  0  0  0  0  0
    9.2569  -14.0586   17.1016 N   0  0  0  0  0  0  0  0  0  0  0  0
    8.4500  -14.0204   18.2905 C   0  0  0  0  0  0  0  0  0  0  0  0
    7.0955  -14.6784   18.0353 C   0  0  0  0  0  0  0  0  0  0  0  0
    6.7578  -15.4570   19.2925 C   0  0  0  0  0  0  0  0  0  0  0  0
    7.9940  -15.7046   20.1269 C   0  0  2  0  0  0  0  0  0  0  0  0
    8.4509  -17.0531   19.8008 N   0  0  0  0  0  0  0  0  0  0  0  0
    7.5442  -15.7312   21.5611 C   0  0  0  0  0  0  0  0  0  0  0  0
    7.0395  -14.7097   22.1043 O   0  0  0  0  0  0  0  0  0  0  0  0
    7.5976  -12.6145   15.8412 C   0  0  0  0  0  0  0  0  0  0  0  0
    7.3170  -18.2654   24.3609 C   0  0  2  0  0  0  0  0  0  0  0  0
    7.2632  -16.8885   23.7411 N   0  0  0  0  0  0  0  0  0  0  0  0
    7.6624  -16.8867   22.3631 C   0  0  0  0  0  0  0  0  0  0  0  0
    8.0550  -15.9023   24.4779 O   0  0  0  0  0  0  0  0  0  0  0  0
    9.2485  -15.6935   24.1492 C   0  0  0  0  0  0  0  0  0  0  0  0
    6.0878  -11.4208   27.5311 C   0  0  0  0  0  0  0  0  0  0  0  0
    6.4483  -12.8184   27.0788 C   0  0  2  0  0  0  0  0  0  0  0  0
    7.7617  -12.8132   26.3261 C   0  0  0  0  0  0  0  0  0  0  0  0
    7.5351  -12.2316   24.9556 C   0  0  1  0  0  0  0  0  0  0  0  0
    8.3821  -14.1687   26.2429 N   0  0  0  0  0  0  0  0  0  0  0  0
    7.5628  -15.1379   25.5715 C   0  0  0  0  0  0  0  0  0  0  0  0
    8.7778  -14.6467   27.6107 O   0  0  0  0  0  0  0  0  0  0  0  0
    8.2362  -15.6688   28.1337 O   0  0  0  0  0  0  0  0  0  0  0  0
  2  1  1  0
  2  3  2  0
  4  2  1  0
  5  4  1  0
  6  5  1  0
  7  6  1  0
  8  7  1  0
  8  9  1  6
 10  8  1  0
 10 14  1  0
 11 10  2  0
 13 14  1  0
 13 12  1  6
 15 13  1  0
 15 16  2  0
 18 19  1  0
 18 17  1  0
 19 21  1  0
 19 20  1  1
 21 22  1  6
 21 23  1  0
 22 15  1  0
 23 24  2  0
 23 25  1  0
M  END
$$$$
