RAI.pdb
     RDKit          3D

 25 24  0  0  1  0  0  0  0  0999 V2000
    8.3182  -11.5986   19.0330 N   0  0  0  0  0  0  0  0  0  0  0  0
    8.5631  -12.9120   18.5231 C   0  0  0  0  0  0  0  0  0  0  0  0
    8.7156  -13.1289   17.2569 N   0  0  0  0  0  0  0  0  0  0  0  0
    8.6476  -14.0292   19.3951 N   0  0  0  0  0  0  0  0  0  0  0  0
    7.7987  -15.1687   19.1785 C   0  0  0  0  0  0  0  0  0  0  0  0
    6.4137  -14.9207   19.7721 C   0  0  0  0  0  0  0  0  0  0  0  0
    6.5066  -15.2961   21.2389 C   0  0  0  0  0  0  0  0  0  0  0  0
    6.7875  -16.7722   21.4053 C   0  0  2  0  0  0  0  0  0  0  0  0
    5.6398  -17.4787   20.8419 N   0  0  0  0  0  0  0  0  0  0  0  0
    6.7848  -17.0446   22.8837 C   0  0  0  0  0  0  0  0  0  0  0  0
    5.7864  -16.7511   23.5980 O   0  0  0  0  0  0  0  0  0  0  0  0
    8.9124  -14.0706   16.8751 C   0  0  0  0  0  0  0  0  0  0  0  0
    8.2937  -19.2557   25.3342 C   0  0  1  0  0  0  0  0  0  0  0  0
    7.8888  -17.8494   24.9584 N   0  0  0  0  0  0  0  0  0  0  0  0
    7.8861  -17.6355   23.5398 C   0  0  0  0  0  0  0  0  0  0  0  0
    8.7166  -16.8284   25.6024 O   0  0  0  0  0  0  0  0  0  0  0  0
    9.7264  -16.3807   25.0058 C   0  0  0  0  0  0  0  0  0  0  0  0
    7.3911  -12.2078   26.9573 C   0  0  0  0  0  0  0  0  0  0  0  0
    8.3900  -13.2890   26.6097 C   0  0  2  0  0  0  0  0  0  0  0  0
    8.7998  -14.0551   27.8494 C   0  0  0  0  0  0  0  0  0  0  0  0
    9.7641  -13.2149   28.6444 C   0  0  2  0  0  0  0  0  0  0  0  0
    9.3818  -15.3930   27.5324 N   0  0  0  0  0  0  0  0  0  0  0  0
    8.4585  -16.2866   26.8918 C   0  0  0  0  0  0  0  0  0  0  0  0
    9.9687  -16.0132   28.7680 O   0  0  0  0  0  0  0  0  0  0  0  0
   11.0111  -15.5361   29.3133 O   0  0  0  0  0  0  0  0  0  0  0  0
  2  1  1  0
  2  3  2  0
  4  2  1  0
  5  4  1  0
  6  5  1  0
  7  6  1  0
  8  7  1  0
  8  9  1  6
 10  8  1  0
 10 14  1  0
 11 10  2  0
 13 14  1  0
 13 12  1  6
 15 13  1  0
 15 16  2  0
 18 19  1  0
 18 17  1  0
 19 21  1  0
 19 20  1  1
 21 22  1  6
 21 23  1  0
 22 15  1  0
 23 24  2  0
 23 25  1  0
M  END
$$$$
