RAI.pdb
     RDKit          3D

 25 24  0  0  1  0  0  0  0  0999 V2000
   12.7446  -20.1769   19.8196 N   0  0  0  0  0  0  0  0  0  0  0  0
   13.1689  -19.5103   18.6277 C   0  0  0  0  0  0  0  0  0  0  0  0
   13.8817  -20.1134   17.7322 N   0  0  0  0  0  0  0  0  0  0  0  0
   12.8200  -18.1556   18.3858 N   0  0  0  0  0  0  0  0  0  0  0  0
   11.9905  -17.4539   19.3267 C   0  0  0  0  0  0  0  0  0  0  0  0
   10.5931  -18.0689   19.3661 C   0  0  0  0  0  0  0  0  0  0  0  0
    9.7662  -17.1867   20.2820 C   0  0  0  0  0  0  0  0  0  0  0  0
    8.3588  -17.7199   20.4249 C   0  0  2  0  0  0  0  0  0  0  0  0
    7.6562  -17.3708   19.1926 N   0  0  0  0  0  0  0  0  0  0  0  0
    7.7137  -16.9343   21.5324 C   0  0  0  0  0  0  0  0  0  0  0  0
    7.5226  -15.6914   21.4233 O   0  0  0  0  0  0  0  0  0  0  0  0
   14.2743  -19.6203   16.9113 C   0  0  0  0  0  0  0  0  0  0  0  0
    6.1459  -17.6101   24.9014 C   0  0  1  0  0  0  0  0  0  0  0  0
    6.8034  -16.7625   23.8373 N   0  0  0  0  0  0  0  0  0  0  0  0
    7.2942  -17.5403   22.7362 C   0  0  0  0  0  0  0  0  0  0  0  0
    7.8849  -15.9281   24.3633 O   0  0  0  0  0  0  0  0  0  0  0  0
    8.3703  -15.0175   23.6483 C   0  0  0  0  0  0  0  0  0  0  0  0
    6.9970  -11.8384   25.4414 C   0  0  0  0  0  0  0  0  0  0  0  0
    7.8960  -13.0350   25.2228 C   0  0  2  0  0  0  0  0  0  0  0  0
    8.0872  -13.8014   26.5142 C   0  0  0  0  0  0  0  0  0  0  0  0
    8.5661  -12.8499   27.5787 C   0  0  2  0  0  0  0  0  0  0  0  0
    9.0190  -14.9583   26.3636 N   0  0  0  0  0  0  0  0  0  0  0  0
    8.4465  -16.0725   25.6619 C   0  0  0  0  0  0  0  0  0  0  0  0
    9.5524  -15.3770   27.7037 O   0  0  0  0  0  0  0  0  0  0  0  0
    8.8460  -16.0554   28.5114 O   0  0  0  0  0  0  0  0  0  0  0  0
  2  1  1  0
  2  3  2  0
  4  2  1  0
  5  4  1  0
  6  5  1  0
  7  6  1  0
  8  7  1  0
  8  9  1  6
 10  8  1  0
 10 14  1  0
 11 10  2  0
 13 14  1  0
 13 12  1  6
 15 13  1  0
 15 16  2  0
 18 19  1  0
 18 17  1  0
 19 21  1  0
 19 20  1  1
 21 22  1  6
 21 23  1  0
 22 15  1  0
 23 24  2  0
 23 25  1  0
M  END
$$$$
