RAI.pdb
     RDKit          3D

 25 24  0  0  1  0  0  0  0  0999 V2000
   11.7753  -22.7173   20.3947 N   0  0  0  0  0  0  0  0  0  0  0  0
   11.5137  -22.0736   19.1449 C   0  0  0  0  0  0  0  0  0  0  0  0
   12.1289  -22.4229   18.0618 N   0  0  0  0  0  0  0  0  0  0  0  0
   10.5637  -21.0228   19.0501 N   0  0  0  0  0  0  0  0  0  0  0  0
   10.5381  -19.9922   20.0517 C   0  0  0  0  0  0  0  0  0  0  0  0
   11.9327  -19.3986   20.2399 C   0  0  0  0  0  0  0  0  0  0  0  0
   11.7905  -18.2997   21.2758 C   0  0  0  0  0  0  0  0  0  0  0  0
   10.7247  -17.3066   20.8717 C   0  0  2  0  0  0  0  0  0  0  0  0
   11.4032  -16.2528   20.1213 N   0  0  0  0  0  0  0  0  0  0  0  0
   10.2185  -16.6813   22.1416 C   0  0  0  0  0  0  0  0  0  0  0  0
   10.8121  -15.6978   22.6648 O   0  0  0  0  0  0  0  0  0  0  0  0
   11.9285  -21.9870   17.1447 C   0  0  0  0  0  0  0  0  0  0  0  0
    7.0551  -16.8383   24.1694 C   0  0  1  0  0  0  0  0  0  0  0  0
    8.4925  -16.4496   23.9130 N   0  0  0  0  0  0  0  0  0  0  0  0
    9.0672  -17.1572   22.8052 C   0  0  0  0  0  0  0  0  0  0  0  0
    9.3450  -16.6160   25.0911 O   0  0  0  0  0  0  0  0  0  0  0  0
   10.2894  -17.4427   25.0623 C   0  0  0  0  0  0  0  0  0  0  0  0
    9.6081  -12.6341   29.0102 C   0  0  0  0  0  0  0  0  0  0  0  0
    9.9491  -13.6375   27.9311 C   0  0  2  0  0  0  0  0  0  0  0  0
    9.9205  -15.0463   28.4844 C   0  0  0  0  0  0  0  0  0  0  0  0
   10.9980  -15.1815   29.5278 C   0  0  2  0  0  0  0  0  0  0  0  0
   10.0635  -16.0847   27.4211 N   0  0  0  0  0  0  0  0  0  0  0  0
    9.1822  -15.8918   26.3043 C   0  0  0  0  0  0  0  0  0  0  0  0
    9.9038  -17.4581   28.0077 O   0  0  0  0  0  0  0  0  0  0  0  0
    8.7656  -18.0156   28.0797 O   0  0  0  0  0  0  0  0  0  0  0  0
  2  1  1  0
  2  3  2  0
  4  2  1  0
  5  4  1  0
  6  5  1  0
  7  6  1  0
  8  7  1  0
  8  9  1  6
 10  8  1  0
 10 14  1  0
 11 10  2  0
 13 14  1  0
 13 12  1  6
 15 13  1  0
 15 16  2  0
 18 19  1  0
 18 17  1  0
 19 21  1  0
 19 20  1  1
 21 22  1  6
 21 23  1  0
 22 15  1  0
 23 24  2  0
 23 25  1  0
M  END
$$$$
