DNH.pdb
     RDKit          3D

 27 27  0  0  1  0  0  0  0  0999 V2000
   10.4338  -18.7438   20.9390 N   0  0  0  0  0  0  0  0  0  0  0  0
   11.4408  -17.7479   21.1297 C   0  0  1  0  0  0  0  0  0  0  0  0
   12.1613  -17.4273   19.8100 C   0  0  0  0  0  0  0  0  0  0  0  0
   13.0080  -18.5675   19.4010 C   0  0  0  0  0  0  0  0  0  0  0  0
   12.5008  -19.7180   19.3609 O   0  0  0  0  0  0  0  0  0  0  0  0
   10.8708  -16.4401   21.5770 C   0  0  0  0  0  0  0  0  0  0  0  0
   11.6464  -15.4705   21.7942 O   0  0  0  0  0  0  0  0  0  0  0  0
   14.3324  -18.4482   19.0570 O   0  0  0  0  0  0  0  0  0  0  0  0
    6.1820  -16.3295   20.1376 N   0  0  0  0  0  0  0  0  0  0  0  0
    7.1431  -15.2648   20.4192 C   0  0  0  0  0  0  0  0  0  0  0  0
    7.5527  -14.6568   19.4122 O   0  0  0  0  0  0  0  0  0  0  0  0
    7.4680  -15.0835   21.8161 C   0  0  0  0  0  0  0  0  0  0  0  0
    8.9005  -14.9622   22.2223 C   0  0  2  0  0  0  0  0  0  0  0  0
    9.5001  -16.2471   21.7656 N   0  0  0  0  0  0  0  0  0  0  0  0
    9.1181  -14.9285   23.6840 C   0  0  0  0  0  0  0  0  0  0  0  0
    9.3569  -13.7771   24.2077 O   0  0  0  0  0  0  0  0  0  0  0  0
    9.0904  -16.0053   24.5721 N   0  0  0  0  0  0  0  0  0  0  0  0
    9.0218  -15.8120   26.0343 C   0  0  1  0  0  0  0  0  0  0  0  0
    7.6052  -15.5739   26.4406 C   0  0  0  0  0  0  0  0  0  0  0  0
    7.2893  -14.1482   26.6357 C   0  0  0  0  0  0  0  0  0  0  0  0
    8.1429  -13.0459   26.6181 C   0  0  0  0  0  0  0  0  0  0  0  0
    7.4420  -11.9217   26.8425 N   0  0  0  0  0  0  0  0  0  0  0  0
    6.1573  -12.2885   27.0026 C   0  0  0  0  0  0  0  0  0  0  0  0
    6.0723  -13.6274   26.8772 N   0  0  0  0  0  0  0  0  0  0  0  0
    9.5778  -16.9725   26.7436 C   0  0  0  0  0  0  0  0  0  0  0  0
    9.9489  -18.0094   26.1440 O   0  0  0  0  0  0  0  0  0  0  0  0
    9.6950  -16.9165   28.1231 O   0  0  0  0  0  0  0  0  0  0  0  0
  2  1  1  6
  2  3  1  0
  4  3  1  0
  4  5  2  0
  6  2  1  0
  7  6  2  0
  8  4  1  0
 10  9  1  0
 11 10  2  0
 12 10  1  0
 13 12  1  1
 13 14  1  0
 14  6  1  0
 15 13  1  0
 15 16  2  0
 17 15  1  0
 18 17  1  0
 18 19  1  1
 19 20  1  0
 20 21  2  0
 21 22  1  0
 23 22  1  0
 24 20  1  0
 24 23  2  0
 25 18  1  0
 26 25  2  0
 27 25  1  0
M  END
$$$$
