DNH.pdb
     RDKit          3D

 27 27  0  0  1  0  0  0  0  0999 V2000
   14.5724  -15.9634   19.7270 N   0  0  0  0  0  0  0  0  0  0  0  0
   13.4843  -15.0495   19.8782 C   0  0  1  0  0  0  0  0  0  0  0  0
   12.8657  -14.6928   18.5167 C   0  0  0  0  0  0  0  0  0  0  0  0
   13.8876  -14.0926   17.6337 C   0  0  0  0  0  0  0  0  0  0  0  0
   15.0583  -13.9462   18.0701 O   0  0  0  0  0  0  0  0  0  0  0  0
   12.3553  -15.6336   20.6653 C   0  0  0  0  0  0  0  0  0  0  0  0
   11.2959  -14.9669   20.8134 O   0  0  0  0  0  0  0  0  0  0  0  0
   13.6357  -13.6789   16.3483 O   0  0  0  0  0  0  0  0  0  0  0  0
    9.6815  -20.5641   22.0748 N   0  0  0  0  0  0  0  0  0  0  0  0
   10.8207  -19.9055   22.7111 C   0  0  0  0  0  0  0  0  0  0  0  0
   11.0126  -20.2334   23.8974 O   0  0  0  0  0  0  0  0  0  0  0  0
   11.5446  -18.9797   21.8693 C   0  0  0  0  0  0  0  0  0  0  0  0
   11.3225  -17.5121   22.0391 C   0  0  2  0  0  0  0  0  0  0  0  0
   12.4275  -16.9009   21.2490 N   0  0  0  0  0  0  0  0  0  0  0  0
   11.5147  -17.0232   23.4207 C   0  0  0  0  0  0  0  0  0  0  0  0
   12.5443  -16.2808   23.6346 O   0  0  0  0  0  0  0  0  0  0  0  0
   10.7027  -17.2688   24.5296 N   0  0  0  0  0  0  0  0  0  0  0  0
   10.8570  -16.5211   25.7933 C   0  0  1  0  0  0  0  0  0  0  0  0
    9.8444  -15.4257   25.8522 C   0  0  0  0  0  0  0  0  0  0  0  0
    9.8756  -14.6744   27.1191 C   0  0  0  0  0  0  0  0  0  0  0  0
   10.6881  -14.8634   28.2362 C   0  0  0  0  0  0  0  0  0  0  0  0
   10.3873  -13.9545   29.1791 N   0  0  0  0  0  0  0  0  0  0  0  0
    9.3977  -13.1901   28.6822 C   0  0  0  0  0  0  0  0  0  0  0  0
    9.0949  -13.6277   27.4443 N   0  0  0  0  0  0  0  0  0  0  0  0
   10.7232  -17.4152   26.9516 C   0  0  0  0  0  0  0  0  0  0  0  0
   11.0944  -17.0813   28.1020 O   0  0  0  0  0  0  0  0  0  0  0  0
   10.1671  -18.6704   26.7636 O   0  0  0  0  0  0  0  0  0  0  0  0
  2  1  1  6
  2  3  1  0
  4  3  1  0
  4  5  2  0
  6  2  1  0
  7  6  2  0
  8  4  1  0
 10  9  1  0
 11 10  2  0
 12 10  1  0
 13 12  1  1
 13 14  1  0
 14  6  1  0
 15 13  1  0
 15 16  2  0
 17 15  1  0
 18 17  1  0
 18 19  1  1
 19 20  1  0
 20 21  2  0
 21 22  1  0
 23 22  1  0
 24 20  1  0
 24 23  2  0
 25 18  1  0
 26 25  2  0
 27 25  1  0
M  END
$$$$
