DNH.pdb
     RDKit          3D

 27 27  0  0  1  0  0  0  0  0999 V2000
    8.7283  -12.5683   19.0581 N   0  0  0  0  0  0  0  0  0  0  0  0
    7.6079  -13.4503   18.9629 C   0  0  1  0  0  0  0  0  0  0  0  0
    7.6134  -14.2125   17.6277 C   0  0  0  0  0  0  0  0  0  0  0  0
    9.0020  -14.4409   17.1765 C   0  0  0  0  0  0  0  0  0  0  0  0
    9.9445  -14.2472   17.9868 O   0  0  0  0  0  0  0  0  0  0  0  0
    7.6338  -14.5186   20.0085 C   0  0  0  0  0  0  0  0  0  0  0  0
    6.7693  -14.5059   20.9257 O   0  0  0  0  0  0  0  0  0  0  0  0
    9.3328  -14.8572   15.9099 O   0  0  0  0  0  0  0  0  0  0  0  0
   10.8008  -19.6892   20.5370 N   0  0  0  0  0  0  0  0  0  0  0  0
    9.6501  -18.9473   21.0485 C   0  0  0  0  0  0  0  0  0  0  0  0
    9.1064  -19.4575   22.0464 O   0  0  0  0  0  0  0  0  0  0  0  0
    9.3223  -17.7423   20.3202 C   0  0  0  0  0  0  0  0  0  0  0  0
    8.6381  -16.6220   21.0332 C   0  0  2  0  0  0  0  0  0  0  0  0
    8.5865  -15.5405   20.0102 N   0  0  0  0  0  0  0  0  0  0  0  0
    9.4096  -16.0560   22.1599 C   0  0  0  0  0  0  0  0  0  0  0  0
    9.7514  -14.8187   22.0643 O   0  0  0  0  0  0  0  0  0  0  0  0
    9.8107  -16.7080   23.3274 N   0  0  0  0  0  0  0  0  0  0  0  0
    9.4657  -16.1949   24.6682 C   0  0  1  0  0  0  0  0  0  0  0  0
    7.9825  -16.0772   24.7913 C   0  0  0  0  0  0  0  0  0  0  0  0
    7.5158  -14.6820   24.8685 C   0  0  0  0  0  0  0  0  0  0  0  0
    8.2543  -13.5009   24.8088 C   0  0  0  0  0  0  0  0  0  0  0  0
    7.4336  -12.4427   24.9201 N   0  0  0  0  0  0  0  0  0  0  0  0
    6.1857  -12.9291   25.0496 C   0  0  0  0  0  0  0  0  0  0  0  0
    6.2419  -14.2749   25.0178 N   0  0  0  0  0  0  0  0  0  0  0  0
   10.0066  -17.0677   25.7192 C   0  0  0  0  0  0  0  0  0  0  0  0
   10.2995  -16.6393   26.8607 O   0  0  0  0  0  0  0  0  0  0  0  0
   10.1987  -18.4105   25.4365 O   0  0  0  0  0  0  0  0  0  0  0  0
  2  1  1  6
  2  3  1  0
  4  3  1  0
  4  5  2  0
  6  2  1  0
  7  6  2  0
  8  4  1  0
 10  9  1  0
 11 10  2  0
 12 10  1  0
 13 12  1  6
 13 14  1  0
 14  6  1  0
 15 13  1  0
 15 16  2  0
 17 15  1  0
 18 17  1  0
 18 19  1  6
 19 20  1  0
 20 21  2  0
 21 22  1  0
 23 22  1  0
 24 20  1  0
 24 23  2  0
 25 18  1  0
 26 25  2  0
 27 25  1  0
M  END
$$$$
