DNH.pdb
     RDKit          3D

 27 27  0  0  1  0  0  0  0  0999 V2000
    7.8490  -17.5072   14.9220 N   0  0  0  0  0  0  0  0  0  0  0  0
    8.9735  -17.8043   15.7522 C   0  0  1  0  0  0  0  0  0  0  0  0
   10.1124  -16.7967   15.5256 C   0  0  0  0  0  0  0  0  0  0  0  0
   10.5982  -16.8808   14.1323 C   0  0  0  0  0  0  0  0  0  0  0  0
   10.9375  -18.0017   13.6732 O   0  0  0  0  0  0  0  0  0  0  0  0
    8.6522  -17.6909   17.2080 C   0  0  0  0  0  0  0  0  0  0  0  0
    7.8485  -16.8005   17.5954 O   0  0  0  0  0  0  0  0  0  0  0  0
   10.7037  -15.7966   13.2956 O   0  0  0  0  0  0  0  0  0  0  0  0
    8.1347  -19.2172   22.2230 N   0  0  0  0  0  0  0  0  0  0  0  0
    8.4319  -20.3342   21.3284 C   0  0  0  0  0  0  0  0  0  0  0  0
    8.3562  -21.4582   21.8600 O   0  0  0  0  0  0  0  0  0  0  0  0
    8.7665  -19.9633   19.9719 C   0  0  0  0  0  0  0  0  0  0  0  0
    8.8440  -18.5162   19.6090 C   0  0  2  0  0  0  0  0  0  0  0  0
    9.2119  -18.5402   18.1657 N   0  0  0  0  0  0  0  0  0  0  0  0
    9.9368  -17.7786   20.2774 C   0  0  0  0  0  0  0  0  0  0  0  0
   11.1295  -17.9896   19.8415 O   0  0  0  0  0  0  0  0  0  0  0  0
    9.8277  -16.8690   21.3309 N   0  0  0  0  0  0  0  0  0  0  0  0
   11.0012  -16.1562   21.8738 C   0  0  1  0  0  0  0  0  0  0  0  0
   10.7380  -14.6867   21.8713 C   0  0  0  0  0  0  0  0  0  0  0  0
   10.4980  -14.1426   20.5234 C   0  0  0  0  0  0  0  0  0  0  0  0
   11.4146  -13.8545   19.5132 C   0  0  0  0  0  0  0  0  0  0  0  0
   10.7717  -13.3697   18.4374 N   0  0  0  0  0  0  0  0  0  0  0  0
    9.4619  -13.3440   18.7449 C   0  0  0  0  0  0  0  0  0  0  0  0
    9.3042  -13.8096   19.9994 N   0  0  0  0  0  0  0  0  0  0  0  0
   11.3187  -16.6248   23.2298 C   0  0  0  0  0  0  0  0  0  0  0  0
   10.5820  -17.4273   23.8508 O   0  0  0  0  0  0  0  0  0  0  0  0
   12.4730  -16.1624   23.8411 O   0  0  0  0  0  0  0  0  0  0  0  0
  2  1  1  6
  2  3  1  0
  4  3  1  0
  4  5  2  0
  6  2  1  0
  7  6  2  0
  8  4  1  0
 10  9  1  0
 11 10  2  0
 12 10  1  0
 13 12  1  1
 13 14  1  0
 14  6  1  0
 15 13  1  0
 15 16  2  0
 17 15  1  0
 18 17  1  0
 18 19  1  1
 19 20  1  0
 20 21  2  0
 21 22  1  0
 23 22  1  0
 24 20  1  0
 24 23  2  0
 25 18  1  0
 26 25  2  0
 27 25  1  0
M  END
$$$$
