DNH.pdb
     RDKit          3D

 27 27  0  0  1  0  0  0  0  0999 V2000
   15.1207  -14.4757   15.2557 N   0  0  0  0  0  0  0  0  0  0  0  0
   15.6904  -14.0529   16.4961 C   0  0  1  0  0  0  0  0  0  0  0  0
   16.3392  -12.6654   16.3646 C   0  0  0  0  0  0  0  0  0  0  0  0
   17.7589  -12.8008   15.9768 C   0  0  0  0  0  0  0  0  0  0  0  0
   18.2649  -13.9507   15.9132 O   0  0  0  0  0  0  0  0  0  0  0  0
   14.6618  -13.8894   17.5688 C   0  0  0  0  0  0  0  0  0  0  0  0
   13.8721  -12.9081   17.5225 O   0  0  0  0  0  0  0  0  0  0  0  0
   18.5719  -11.7349   15.6774 O   0  0  0  0  0  0  0  0  0  0  0  0
   10.2112  -15.7796   18.6546 N   0  0  0  0  0  0  0  0  0  0  0  0
   11.3308  -16.6225   18.2396 C   0  0  0  0  0  0  0  0  0  0  0  0
   11.0535  -17.8311   18.1206 O   0  0  0  0  0  0  0  0  0  0  0  0
   12.5808  -15.9264   18.0328 C   0  0  0  0  0  0  0  0  0  0  0  0
   13.2326  -15.2383   19.1876 C   0  0  2  0  0  0  0  0  0  0  0  0
   14.5390  -14.7890   18.6306 N   0  0  0  0  0  0  0  0  0  0  0  0
   13.5759  -16.1319   20.3140 C   0  0  0  0  0  0  0  0  0  0  0  0
   13.4181  -17.3947   20.1205 O   0  0  0  0  0  0  0  0  0  0  0  0
   14.0595  -15.7663   21.5716 N   0  0  0  0  0  0  0  0  0  0  0  0
   13.3196  -16.0694   22.8128 C   0  0  1  0  0  0  0  0  0  0  0  0
   11.8715  -15.7629   22.6184 C   0  0  0  0  0  0  0  0  0  0  0  0
   11.0447  -16.1006   23.7900 C   0  0  0  0  0  0  0  0  0  0  0  0
   11.4369  -16.6007   25.0310 C   0  0  0  0  0  0  0  0  0  0  0  0
   10.3600  -16.7698   25.8166 N   0  0  0  0  0  0  0  0  0  0  0  0
    9.2890  -16.3862   25.0979 C   0  0  0  0  0  0  0  0  0  0  0  0
    9.7071  -15.9853   23.8814 N   0  0  0  0  0  0  0  0  0  0  0  0
   13.5055  -17.4732   23.2049 C   0  0  0  0  0  0  0  0  0  0  0  0
   13.8997  -17.8026   24.3489 O   0  0  0  0  0  0  0  0  0  0  0  0
   13.2351  -18.4656   22.2765 O   0  0  0  0  0  0  0  0  0  0  0  0
  2  1  1  6
  2  3  1  0
  4  3  1  0
  4  5  2  0
  6  2  1  0
  7  6  2  0
  8  4  1  0
 10  9  1  0
 11 10  2  0
 12 10  1  0
 13 12  1  6
 13 14  1  0
 14  6  1  0
 15 13  1  0
 15 16  2  0
 17 15  1  0
 18 17  1  0
 18 19  1  6
 19 20  1  0
 20 21  2  0
 21 22  1  0
 23 22  1  0
 24 20  1  0
 24 23  2  0
 25 18  1  0
 26 25  2  0
 27 25  1  0
M  END
$$$$
