DNH.pdb
     RDKit          3D

 27 27  0  0  1  0  0  0  0  0999 V2000
   12.3589  -16.6888   17.2467 N   0  0  0  0  0  0  0  0  0  0  0  0
   12.9823  -15.4693   17.6546 C   0  0  1  0  0  0  0  0  0  0  0  0
   13.3085  -14.5806   16.4433 C   0  0  0  0  0  0  0  0  0  0  0  0
   13.8973  -15.3932   15.3582 C   0  0  0  0  0  0  0  0  0  0  0  0
   14.1542  -16.6051   15.5769 O   0  0  0  0  0  0  0  0  0  0  0  0
   12.0871  -14.6304   18.5092 C   0  0  0  0  0  0  0  0  0  0  0  0
   12.5155  -13.5352   18.9630 O   0  0  0  0  0  0  0  0  0  0  0  0
   14.1856  -14.9013   14.1086 O   0  0  0  0  0  0  0  0  0  0  0  0
    7.7927  -14.5329   16.7916 N   0  0  0  0  0  0  0  0  0  0  0  0
    8.5644  -13.7115   17.7223 C   0  0  0  0  0  0  0  0  0  0  0  0
    9.0861  -12.7017   17.2125 O   0  0  0  0  0  0  0  0  0  0  0  0
    8.6028  -14.1962   19.0837 C   0  0  0  0  0  0  0  0  0  0  0  0
    9.9157  -14.2802   19.7916 C   0  0  2  0  0  0  0  0  0  0  0  0
   10.7824  -15.0146   18.8281 N   0  0  0  0  0  0  0  0  0  0  0  0
    9.8969  -15.1135   21.0123 C   0  0  0  0  0  0  0  0  0  0  0  0
    8.8007  -15.7366   21.2716 O   0  0  0  0  0  0  0  0  0  0  0  0
   10.9370  -15.3107   21.9226 N   0  0  0  0  0  0  0  0  0  0  0  0
   10.9256  -16.4215   22.8951 C   0  0  1  0  0  0  0  0  0  0  0  0
   10.8709  -17.7230   22.1660 C   0  0  0  0  0  0  0  0  0  0  0  0
    9.5029  -18.1206   21.7905 C   0  0  0  0  0  0  0  0  0  0  0  0
    8.2932  -17.4846   22.0662 C   0  0  0  0  0  0  0  0  0  0  0  0
    7.2768  -18.1873   21.5381 N   0  0  0  0  0  0  0  0  0  0  0  0
    7.8179  -19.2594   20.9312 C   0  0  0  0  0  0  0  0  0  0  0  0
    9.1555  -19.2135   21.0864 N   0  0  0  0  0  0  0  0  0  0  0  0
   12.1048  -16.3651   23.7698 C   0  0  0  0  0  0  0  0  0  0  0  0
   12.0202  -16.4744   25.0162 O   0  0  0  0  0  0  0  0  0  0  0  0
   13.3526  -16.1849   23.1950 O   0  0  0  0  0  0  0  0  0  0  0  0
  2  1  1  6
  2  3  1  0
  4  3  1  0
  4  5  2  0
  6  2  1  0
  7  6  2  0
  8  4  1  0
 10  9  1  0
 11 10  2  0
 12 10  1  0
 13 12  1  6
 13 14  1  0
 14  6  1  0
 15 13  1  0
 15 16  2  0
 17 15  1  0
 18 17  1  0
 18 19  1  6
 19 20  1  0
 20 21  2  0
 21 22  1  0
 23 22  1  0
 24 20  1  0
 24 23  2  0
 25 18  1  0
 26 25  2  0
 27 25  1  0
M  END
$$$$
