DNH.pdb
     RDKit          3D

 27 27  0  0  1  0  0  0  0  0999 V2000
    8.6635  -18.1536   20.2734 N   0  0  0  0  0  0  0  0  0  0  0  0
    7.6516  -17.1525   20.1475 C   0  0  1  0  0  0  0  0  0  0  0  0
    6.6689  -17.4958   19.0161 C   0  0  0  0  0  0  0  0  0  0  0  0
    7.3772  -17.5345   17.7195 C   0  0  0  0  0  0  0  0  0  0  0  0
    8.6207  -17.3456   17.6999 O   0  0  0  0  0  0  0  0  0  0  0  0
    6.7985  -17.0482   21.3709 C   0  0  0  0  0  0  0  0  0  0  0  0
    5.5792  -16.7523   21.2500 O   0  0  0  0  0  0  0  0  0  0  0  0
    6.7540  -17.7670   16.5177 O   0  0  0  0  0  0  0  0  0  0  0  0
    6.9907  -21.0664   24.8304 N   0  0  0  0  0  0  0  0  0  0  0  0
    6.0560  -20.5661   23.8242 C   0  0  0  0  0  0  0  0  0  0  0  0
    4.9719  -21.1777   23.7743 O   0  0  0  0  0  0  0  0  0  0  0  0
    6.5323  -19.4447   23.0462 C   0  0  0  0  0  0  0  0  0  0  0  0
    6.6142  -18.0962   23.6840 C   0  0  2  0  0  0  0  0  0  0  0  0
    7.3027  -17.2677   22.6551 N   0  0  0  0  0  0  0  0  0  0  0  0
    7.4850  -18.0389   24.8770 C   0  0  0  0  0  0  0  0  0  0  0  0
    7.0664  -18.6502   25.9296 O   0  0  0  0  0  0  0  0  0  0  0  0
    8.7201  -17.3992   24.9974 N   0  0  0  0  0  0  0  0  0  0  0  0
    9.0881  -16.6288   26.2019 C   0  0  1  0  0  0  0  0  0  0  0  0
    7.9468  -15.7542   26.6033 C   0  0  0  0  0  0  0  0  0  0  0  0
    7.6085  -14.7402   25.5896 C   0  0  0  0  0  0  0  0  0  0  0  0
    8.2478  -14.4507   24.3849 C   0  0  0  0  0  0  0  0  0  0  0  0
    7.6108  -13.4465   23.7592 N   0  0  0  0  0  0  0  0  0  0  0  0
    6.5771  -13.0915   24.5442 C   0  0  0  0  0  0  0  0  0  0  0  0
    6.5813  -13.8725   25.6421 N   0  0  0  0  0  0  0  0  0  0  0  0
    9.4678  -17.5253   27.3024 C   0  0  0  0  0  0  0  0  0  0  0  0
    9.8171  -17.0945   28.4271 O   0  0  0  0  0  0  0  0  0  0  0  0
    9.4380  -18.8938   27.0874 O   0  0  0  0  0  0  0  0  0  0  0  0
  2  1  1  1
  2  3  1  0
  4  3  1  0
  4  5  2  0
  6  2  1  0
  7  6  2  0
  8  4  1  0
 10  9  1  0
 11 10  2  0
 12 10  1  0
 13 12  1  6
 13 14  1  0
 14  6  1  0
 15 13  1  0
 15 16  2  0
 17 15  1  0
 18 17  1  0
 18 19  1  1
 19 20  1  0
 20 21  2  0
 21 22  1  0
 23 22  1  0
 24 20  1  0
 24 23  2  0
 25 18  1  0
 26 25  2  0
 27 25  1  0
M  END
$$$$
