DNH.pdb
     RDKit          3D

 27 27  0  0  1  0  0  0  0  0999 V2000
   12.9750  -16.7312   17.8515 N   0  0  0  0  0  0  0  0  0  0  0  0
   13.2776  -15.3413   17.9876 C   0  0  1  0  0  0  0  0  0  0  0  0
   13.0959  -14.6004   16.6528 C   0  0  0  0  0  0  0  0  0  0  0  0
   14.0829  -15.0819   15.6638 C   0  0  0  0  0  0  0  0  0  0  0  0
   13.7296  -15.2059   14.4629 O   0  0  0  0  0  0  0  0  0  0  0  0
   12.3520  -14.6471   18.9346 C   0  0  0  0  0  0  0  0  0  0  0  0
   12.7515  -13.6206   19.5474 O   0  0  0  0  0  0  0  0  0  0  0  0
   15.3799  -15.4069   15.9780 O   0  0  0  0  0  0  0  0  0  0  0  0
    9.1628  -12.6129   18.4369 N   0  0  0  0  0  0  0  0  0  0  0  0
    8.2869  -13.7552   18.6908 C   0  0  0  0  0  0  0  0  0  0  0  0
    7.2227  -13.7463   18.0435 O   0  0  0  0  0  0  0  0  0  0  0  0
    8.7888  -14.7136   19.6497 C   0  0  0  0  0  0  0  0  0  0  0  0
   10.1572  -14.5275   20.2196 C   0  0  2  0  0  0  0  0  0  0  0  0
   11.0495  -15.0943   19.1702 N   0  0  0  0  0  0  0  0  0  0  0  0
   10.4253  -15.3280   21.4330 C   0  0  0  0  0  0  0  0  0  0  0  0
    9.7371  -15.0387   22.4816 O   0  0  0  0  0  0  0  0  0  0  0  0
   11.3406  -16.3724   21.5767 N   0  0  0  0  0  0  0  0  0  0  0  0
   11.5592  -17.0486   22.8709 C   0  0  1  0  0  0  0  0  0  0  0  0
   11.6748  -18.5208   22.6518 C   0  0  0  0  0  0  0  0  0  0  0  0
   10.4392  -19.1281   22.1276 C   0  0  0  0  0  0  0  0  0  0  0  0
    9.1977  -18.5382   21.8935 C   0  0  0  0  0  0  0  0  0  0  0  0
    8.3406  -19.4536   21.4106 N   0  0  0  0  0  0  0  0  0  0  0  0
    9.0144  -20.6159   21.3332 C   0  0  0  0  0  0  0  0  0  0  0  0
   10.2744  -20.4135   21.7653 N   0  0  0  0  0  0  0  0  0  0  0  0
   12.7593  -16.5270   23.5393 C   0  0  0  0  0  0  0  0  0  0  0  0
   13.1037  -16.9011   24.6855 O   0  0  0  0  0  0  0  0  0  0  0  0
   13.5357  -15.5891   22.8777 O   0  0  0  0  0  0  0  0  0  0  0  0
  2  1  1  6
  2  3  1  0
  4  3  1  0
  4  5  2  0
  6  2  1  0
  7  6  2  0
  8  4  1  0
 10  9  1  0
 11 10  2  0
 12 10  1  0
 13 12  1  6
 13 14  1  0
 14  6  1  0
 15 13  1  0
 15 16  2  0
 17 15  1  0
 18 17  1  0
 18 19  1  6
 19 20  1  0
 20 21  2  0
 21 22  1  0
 23 22  1  0
 24 20  1  0
 24 23  2  0
 25 18  1  0
 26 25  2  0
 27 25  1  0
M  END
$$$$
