DNH.pdb
     RDKit          3D

 27 27  0  0  1  0  0  0  0  0999 V2000
   12.3917  -16.2234   17.4713 N   0  0  0  0  0  0  0  0  0  0  0  0
   13.1094  -15.4567   18.4404 C   0  0  1  0  0  0  0  0  0  0  0  0
   13.7993  -14.2463   17.7903 C   0  0  0  0  0  0  0  0  0  0  0  0
   14.7728  -14.6989   16.7745 C   0  0  0  0  0  0  0  0  0  0  0  0
   14.8770  -14.0515   15.7010 O   0  0  0  0  0  0  0  0  0  0  0  0
   12.2103  -14.8668   19.4791 C   0  0  0  0  0  0  0  0  0  0  0  0
   12.6855  -14.0550   20.3182 O   0  0  0  0  0  0  0  0  0  0  0  0
   15.5823  -15.7975   16.9314 O   0  0  0  0  0  0  0  0  0  0  0  0
    8.8881  -12.1691   18.5860 N   0  0  0  0  0  0  0  0  0  0  0  0
    8.8224  -13.6278   18.5193 C   0  0  0  0  0  0  0  0  0  0  0  0
    8.8841  -14.0972   17.3671 O   0  0  0  0  0  0  0  0  0  0  0  0
    8.6960  -14.2965   19.7947 C   0  0  0  0  0  0  0  0  0  0  0  0
    9.9280  -14.6117   20.5787 C   0  0  2  0  0  0  0  0  0  0  0  0
   10.8515  -15.1817   19.5583 N   0  0  0  0  0  0  0  0  0  0  0  0
    9.7525  -15.6798   21.5853 C   0  0  0  0  0  0  0  0  0  0  0  0
    9.0418  -16.6944   21.2355 O   0  0  0  0  0  0  0  0  0  0  0  0
   10.2742  -15.7215   22.8796 N   0  0  0  0  0  0  0  0  0  0  0  0
   10.5498  -16.9964   23.5714 C   0  0  1  0  0  0  0  0  0  0  0  0
   11.5108  -17.8049   22.7643 C   0  0  0  0  0  0  0  0  0  0  0  0
   11.8330  -19.1052   23.3773 C   0  0  0  0  0  0  0  0  0  0  0  0
   11.3550  -19.6637   24.5620 C   0  0  0  0  0  0  0  0  0  0  0  0
   11.9093  -20.8727   24.7535 N   0  0  0  0  0  0  0  0  0  0  0  0
   12.7318  -21.0939   23.7117 C   0  0  0  0  0  0  0  0  0  0  0  0
   12.6814  -20.0283   22.8886 N   0  0  0  0  0  0  0  0  0  0  0  0
   11.0778  -16.7572   24.9216 C   0  0  0  0  0  0  0  0  0  0  0  0
   10.8341  -17.5258   25.8820 O   0  0  0  0  0  0  0  0  0  0  0  0
   11.8724  -15.6430   25.1384 O   0  0  0  0  0  0  0  0  0  0  0  0
  2  1  1  6
  2  3  1  0
  4  3  1  0
  4  5  2  0
  6  2  1  0
  7  6  2  0
  8  4  1  0
 10  9  1  0
 11 10  2  0
 12 10  1  0
 13 12  1  6
 13 14  1  0
 14  6  1  0
 15 13  1  0
 15 16  2  0
 17 15  1  0
 18 17  1  0
 18 19  1  6
 19 20  1  0
 20 21  2  0
 21 22  1  0
 23 22  1  0
 24 20  1  0
 24 23  2  0
 25 18  1  0
 26 25  2  0
 27 25  1  0
M  END
$$$$
