DNH.pdb
     RDKit          3D

 27 27  0  0  1  0  0  0  0  0999 V2000
   10.4181  -18.4994    8.4599 N   0  0  0  0  0  0  0  0  0  0  0  0
   11.5828  -18.3063    9.2650 C   0  0  1  0  0  0  0  0  0  0  0  0
   11.9587  -16.8179    9.3495 C   0  0  0  0  0  0  0  0  0  0  0  0
   12.2775  -16.2952    8.0044 C   0  0  0  0  0  0  0  0  0  0  0  0
   11.7478  -15.2176    7.6294 O   0  0  0  0  0  0  0  0  0  0  0  0
   11.3693  -18.7237   10.6847 C   0  0  0  0  0  0  0  0  0  0  0  0
   10.5349  -18.0986   11.3932 O   0  0  0  0  0  0  0  0  0  0  0  0
   13.1277  -16.9211    7.1257 O   0  0  0  0  0  0  0  0  0  0  0  0
   12.3965  -23.9473   13.4057 N   0  0  0  0  0  0  0  0  0  0  0  0
   11.6756  -22.6844   13.5536 C   0  0  0  0  0  0  0  0  0  0  0  0
   11.1079  -22.5373   14.6525 O   0  0  0  0  0  0  0  0  0  0  0  0
   11.7326  -21.8061   12.4068 C   0  0  0  0  0  0  0  0  0  0  0  0
   11.7698  -20.3280   12.6208 C   0  0  2  0  0  0  0  0  0  0  0  0
   12.0636  -19.7889   11.2636 N   0  0  0  0  0  0  0  0  0  0  0  0
   12.8843  -19.8642   13.4739 C   0  0  0  0  0  0  0  0  0  0  0  0
   14.0008  -19.6153   12.8837 O   0  0  0  0  0  0  0  0  0  0  0  0
   12.8683  -19.6577   14.8546 N   0  0  0  0  0  0  0  0  0  0  0  0
   14.0653  -19.2070   15.5922 C   0  0  1  0  0  0  0  0  0  0  0  0
   13.6476  -18.3958   16.7737 C   0  0  0  0  0  0  0  0  0  0  0  0
   12.6501  -19.0737   17.6197 C   0  0  0  0  0  0  0  0  0  0  0  0
   11.2583  -19.0283   17.5499 C   0  0  0  0  0  0  0  0  0  0  0  0
   10.7270  -19.7966   18.5158 N   0  0  0  0  0  0  0  0  0  0  0  0
   11.7558  -20.3305   19.1994 C   0  0  0  0  0  0  0  0  0  0  0  0
   12.9083  -19.8923   18.6560 N   0  0  0  0  0  0  0  0  0  0  0  0
   14.8851  -20.3520   16.0117 C   0  0  0  0  0  0  0  0  0  0  0  0
   14.5087  -21.5380   15.8564 O   0  0  0  0  0  0  0  0  0  0  0  0
   16.1165  -20.1100   16.5990 O   0  0  0  0  0  0  0  0  0  0  0  0
  2  1  1  6
  2  3  1  0
  4  3  1  0
  4  5  2  0
  6  2  1  0
  7  6  2  0
  8  4  1  0
 10  9  1  0
 11 10  2  0
 12 10  1  0
 13 12  1  6
 13 14  1  0
 14  6  1  0
 15 13  1  0
 15 16  2  0
 17 15  1  0
 18 17  1  0
 18 19  1  1
 19 20  1  0
 20 21  2  0
 21 22  1  0
 23 22  1  0
 24 20  1  0
 24 23  2  0
 25 18  1  0
 26 25  2  0
 27 25  1  0
M  END
$$$$
