DNH.pdb
     RDKit          3D

 27 27  0  0  1  0  0  0  0  0999 V2000
   12.8793  -18.0692   14.3351 N   0  0  0  0  0  0  0  0  0  0  0  0
   11.8276  -17.2226   14.8035 C   0  0  1  0  0  0  0  0  0  0  0  0
   10.7051  -17.1029   13.7598 C   0  0  0  0  0  0  0  0  0  0  0  0
   11.2804  -16.9688   12.4051 C   0  0  0  0  0  0  0  0  0  0  0  0
   12.3745  -16.3640   12.2661 O   0  0  0  0  0  0  0  0  0  0  0  0
   11.1551  -17.7706   16.0212 C   0  0  0  0  0  0  0  0  0  0  0  0
    9.8959  -17.7891   16.0755 O   0  0  0  0  0  0  0  0  0  0  0  0
   10.6869  -17.4703   11.2723 O   0  0  0  0  0  0  0  0  0  0  0  0
   12.6123  -21.6508   20.2160 N   0  0  0  0  0  0  0  0  0  0  0  0
   11.4650  -21.0671   19.5237 C   0  0  0  0  0  0  0  0  0  0  0  0
   10.3579  -21.3755   20.0042 O   0  0  0  0  0  0  0  0  0  0  0  0
   11.7912  -20.2266   18.3937 C   0  0  0  0  0  0  0  0  0  0  0  0
   11.2349  -18.8415   18.3297 C   0  0  2  0  0  0  0  0  0  0  0  0
   11.8726  -18.2680   17.1118 N   0  0  0  0  0  0  0  0  0  0  0  0
   11.6578  -17.9636   19.4411 C   0  0  0  0  0  0  0  0  0  0  0  0
   11.5421  -18.4394   20.6316 O   0  0  0  0  0  0  0  0  0  0  0  0
   12.1768  -16.6705   19.3522 N   0  0  0  0  0  0  0  0  0  0  0  0
   11.3781  -15.4807   19.7078 C   0  0  1  0  0  0  0  0  0  0  0  0
   10.0853  -15.5060   18.9618 C   0  0  0  0  0  0  0  0  0  0  0  0
    9.2341  -14.3353   19.2364 C   0  0  0  0  0  0  0  0  0  0  0  0
    9.4965  -13.2225   20.0343 C   0  0  0  0  0  0  0  0  0  0  0  0
    8.4456  -12.3853   20.0107 N   0  0  0  0  0  0  0  0  0  0  0  0
    7.5188  -12.9454   19.2119 C   0  0  0  0  0  0  0  0  0  0  0  0
    7.9986  -14.1166   18.7499 N   0  0  0  0  0  0  0  0  0  0  0  0
   11.1409  -15.4219   21.1567 C   0  0  0  0  0  0  0  0  0  0  0  0
   10.6865  -16.3970   21.8012 O   0  0  0  0  0  0  0  0  0  0  0  0
   11.4302  -14.2470   21.8319 O   0  0  0  0  0  0  0  0  0  0  0  0
  2  1  1  6
  2  3  1  0
  4  3  1  0
  4  5  2  0
  6  2  1  0
  7  6  2  0
  8  4  1  0
 10  9  1  0
 11 10  2  0
 12 10  1  0
 13 12  1  1
 13 14  1  0
 14  6  1  0
 15 13  1  0
 15 16  2  0
 17 15  1  0
 18 17  1  0
 18 19  1  6
 19 20  1  0
 20 21  2  0
 21 22  1  0
 23 22  1  0
 24 20  1  0
 24 23  2  0
 25 18  1  0
 26 25  2  0
 27 25  1  0
M  END
$$$$
