FPD.pdb
     RDKit          3D

 27 28  0  0  1  0  0  0  0  0999 V2000
   28.3266  -20.5794   -9.0676 N   0  0  0  0  0  0  0  0  0  0  0  0
   26.9120  -20.5458   -8.9278 C   0  0  1  0  0  0  0  0  0  0  0  0
   26.5396  -19.6331   -7.7824 C   0  0  0  0  0  0  0  0  0  0  0  0
   27.4947  -19.7359   -6.6767 C   0  0  0  0  0  0  0  0  0  0  0  0
   28.4661  -18.7827   -6.4540 C   0  0  0  0  0  0  0  0  0  0  0  0
   29.3687  -18.9170   -5.3903 C   0  0  0  0  0  0  0  0  0  0  0  0
   29.3124  -19.9943   -4.5439 C   0  0  0  0  0  0  0  0  0  0  0  0
   28.3565  -20.9540   -4.7443 C   0  0  0  0  0  0  0  0  0  0  0  0
   27.4850  -20.8034   -5.7893 C   0  0  0  0  0  0  0  0  0  0  0  0
   26.1547  -20.2018  -10.1383 C   0  0  0  0  0  0  0  0  0  0  0  0
   25.7603  -19.0147  -10.2706 O   0  0  0  0  0  0  0  0  0  0  0  0
   25.8569  -21.1507  -11.1482 N   0  0  0  0  0  0  0  0  0  0  0  0
   26.1793  -22.5434  -11.1067 C   0  0  0  0  0  0  0  0  0  0  0  0
   25.6188  -23.1848  -12.3646 C   0  0  0  0  0  0  0  0  0  0  0  0
   25.4193  -22.0303  -13.3302 C   0  0  0  0  0  0  0  0  0  0  0  0
   25.1684  -20.8755  -12.4019 C   0  0  1  0  0  0  0  0  0  0  0  0
   23.7283  -20.6074  -12.1860 C   0  0  0  0  0  0  0  0  0  0  0  0
   23.1819  -21.1788  -11.2077 O   0  0  0  0  0  0  0  0  0  0  0  0
   22.9337  -19.7695  -12.9858 N   0  0  0  0  0  0  0  0  0  0  0  0
   21.5542  -19.4387  -12.7699 C   0  0  1  0  0  0  0  0  0  0  0  0
   21.2015  -18.1986  -13.5330 C   0  0  0  0  0  0  0  0  0  0  0  0
   19.8087  -17.7509  -13.3345 C   0  0  0  0  0  0  0  0  0  0  0  0
   19.0910  -18.2426  -12.4080 O   0  0  0  0  0  0  0  0  0  0  0  0
   20.6464  -20.5707  -13.1053 C   0  0  0  0  0  0  0  0  0  0  0  0
   19.7101  -20.8315  -12.3298 O   0  0  0  0  0  0  0  0  0  0  0  0
   19.1908  -16.7883  -14.1177 O   0  0  0  0  0  0  0  0  0  0  0  0
   20.8804  -21.2896  -14.2688 O   0  0  0  0  0  0  0  0  0  0  0  0
  2  1  1  6
  3  2  1  0
  4  9  1  0
  4  3  1  0
  5  4  2  0
  6  7  2  0
  6  5  1  0
  7  8  1  0
  8  9  2  0
 10  2  1  0
 11 10  2  0
 12 13  1  0
 12 10  1  0
 14 13  1  0
 15 16  1  0
 15 14  1  0
 16 12  1  0
 17 18  2  0
 16 17  1  1
 19 17  1  0
 20 21  1  6
 20 19  1  0
 22 26  1  0
 22 21  1  0
 23 22  2  0
 24 20  1  0
 25 24  2  0
 27 24  1  0
M  END
$$$$
