FPD.pdb
     RDKit          3D

 27 28  0  0  1  0  0  0  0  0999 V2000
   14.8953  -14.8340    5.1754 N   0  0  0  0  0  0  0  0  0  0  0  0
   16.0520  -15.5043    4.6913 C   0  0  1  0  0  0  0  0  0  0  0  0
   17.2343  -15.1703    5.5715 C   0  0  0  0  0  0  0  0  0  0  0  0
   18.0463  -14.0934    5.0002 C   0  0  0  0  0  0  0  0  0  0  0  0
   18.3692  -14.0484    3.6602 C   0  0  0  0  0  0  0  0  0  0  0  0
   19.1548  -13.0065    3.1490 C   0  0  0  0  0  0  0  0  0  0  0  0
   19.6229  -12.0064    3.9618 C   0  0  0  0  0  0  0  0  0  0  0  0
   19.3155  -12.0289    5.2959 C   0  0  0  0  0  0  0  0  0  0  0  0
   18.5469  -13.0557    5.7746 C   0  0  0  0  0  0  0  0  0  0  0  0
   15.9259  -16.9568    4.5139 C   0  0  0  0  0  0  0  0  0  0  0  0
   15.3155  -17.6090    5.3993 O   0  0  0  0  0  0  0  0  0  0  0  0
   16.4630  -17.6386    3.3933 N   0  0  0  0  0  0  0  0  0  0  0  0
   17.0616  -17.0232    2.2494 C   0  0  0  0  0  0  0  0  0  0  0  0
   17.5512  -18.1311    1.3324 C   0  0  0  0  0  0  0  0  0  0  0  0
   16.7666  -19.3592    1.7581 C   0  0  0  0  0  0  0  0  0  0  0  0
   16.5027  -19.0832    3.2115 C   0  0  1  0  0  0  0  0  0  0  0  0
   17.4916  -19.7194    4.1114 C   0  0  0  0  0  0  0  0  0  0  0  0
   18.1258  -18.9612    4.8892 O   0  0  0  0  0  0  0  0  0  0  0  0
   17.7717  -21.0950    4.1605 N   0  0  0  0  0  0  0  0  0  0  0  0
   18.0603  -21.8671    5.3351 C   0  0  1  0  0  0  0  0  0  0  0  0
   16.9878  -21.6570    6.3600 C   0  0  0  0  0  0  0  0  0  0  0  0
   17.2911  -22.2582    7.6738 C   0  0  0  0  0  0  0  0  0  0  0  0
   18.4842  -22.5544    7.9962 O   0  0  0  0  0  0  0  0  0  0  0  0
   18.2526  -23.3109    5.0246 C   0  0  0  0  0  0  0  0  0  0  0  0
   17.3245  -23.9293    4.4748 O   0  0  0  0  0  0  0  0  0  0  0  0
   16.3293  -22.5395    8.6317 O   0  0  0  0  0  0  0  0  0  0  0  0
   19.4587  -23.9092    5.3605 O   0  0  0  0  0  0  0  0  0  0  0  0
  2  1  1  1
  3  2  1  0
  4  9  1  0
  4  3  1  0
  5  4  2  0
  6  7  2  0
  6  5  1  0
  7  8  1  0
  8  9  2  0
 10  2  1  0
 11 10  2  0
 12 13  1  0
 12 10  1  0
 14 13  1  0
 15 16  1  0
 15 14  1  0
 16 12  1  0
 17 18  2  0
 16 17  1  1
 19 17  1  0
 20 21  1  1
 20 19  1  0
 22 26  1  0
 22 21  1  0
 23 22  2  0
 24 20  1  0
 25 24  2  0
 27 24  1  0
M  END
$$$$
