FPD.pdb
     RDKit          3D

 27 28  0  0  1  0  0  0  0  0999 V2000
   27.5487  -16.5429  -13.4746 N   0  0  0  0  0  0  0  0  0  0  0  0
   27.2534  -17.7544  -12.7915 C   0  0  1  0  0  0  0  0  0  0  0  0
   26.2074  -17.4946  -11.7322 C   0  0  0  0  0  0  0  0  0  0  0  0
   26.2498  -18.5037  -10.6715 C   0  0  0  0  0  0  0  0  0  0  0  0
   25.5217  -19.6729  -10.7402 C   0  0  0  0  0  0  0  0  0  0  0  0
   25.5805  -20.6135   -9.7029 C   0  0  0  0  0  0  0  0  0  0  0  0
   26.3600  -20.4002   -8.5952 C   0  0  0  0  0  0  0  0  0  0  0  0
   27.0925  -19.2470   -8.5040 C   0  0  0  0  0  0  0  0  0  0  0  0
   27.0204  -18.3415   -9.5283 C   0  0  0  0  0  0  0  0  0  0  0  0
   26.8698  -18.8920  -13.6376 C   0  0  0  0  0  0  0  0  0  0  0  0
   25.8872  -18.7488  -14.4097 O   0  0  0  0  0  0  0  0  0  0  0  0
   27.5603  -20.1296  -13.6122 N   0  0  0  0  0  0  0  0  0  0  0  0
   28.6858  -20.4412  -12.7866 C   0  0  0  0  0  0  0  0  0  0  0  0
   29.0592  -21.8913  -13.0432 C   0  0  0  0  0  0  0  0  0  0  0  0
   28.4324  -22.2191  -14.3865 C   0  0  0  0  0  0  0  0  0  0  0  0
   27.2435  -21.3006  -14.4186 C   0  0  1  0  0  0  0  0  0  0  0  0
   25.9941  -21.9532  -13.9655 C   0  0  0  0  0  0  0  0  0  0  0  0
   25.6951  -21.8312  -12.7498 O   0  0  0  0  0  0  0  0  0  0  0  0
   25.1254  -22.6923  -14.7854 N   0  0  0  0  0  0  0  0  0  0  0  0
   23.8106  -23.1530  -14.4415 C   0  0  1  0  0  0  0  0  0  0  0  0
   22.9813  -22.0069  -13.9482 C   0  0  0  0  0  0  0  0  0  0  0  0
   21.5592  -22.3444  -13.7406 C   0  0  0  0  0  0  0  0  0  0  0  0
   21.2048  -23.5317  -13.4577 O   0  0  0  0  0  0  0  0  0  0  0  0
   23.1520  -23.8655  -15.5714 C   0  0  0  0  0  0  0  0  0  0  0  0
   23.2820  -23.4067  -16.7198 O   0  0  0  0  0  0  0  0  0  0  0  0
   20.5279  -21.4227  -13.8346 O   0  0  0  0  0  0  0  0  0  0  0  0
   22.4199  -25.0122  -15.2990 O   0  0  0  0  0  0  0  0  0  0  0  0
  2  1  1  6
  3  2  1  0
  4  9  1  0
  4  3  1  0
  5  4  2  0
  6  7  2  0
  6  5  1  0
  7  8  1  0
  8  9  2  0
 10  2  1  0
 11 10  2  0
 12 13  1  0
 12 10  1  0
 14 13  1  0
 15 16  1  0
 15 14  1  0
 16 12  1  0
 17 18  2  0
 16 17  1  1
 19 17  1  0
 20 21  1  6
 20 19  1  0
 22 26  1  0
 22 21  1  0
 23 22  2  0
 24 20  1  0
 25 24  2  0
 27 24  1  0
M  END
$$$$
