FPD.pdb
     RDKit          3D

 27 28  0  0  1  0  0  0  0  0999 V2000
   20.5211  -11.9379  -18.7579 N   0  0  0  0  0  0  0  0  0  0  0  0
   19.5381  -11.1321  -18.1207 C   0  0  1  0  0  0  0  0  0  0  0  0
   19.2976  -11.6434  -16.7190 C   0  0  0  0  0  0  0  0  0  0  0  0
   18.9080  -13.0553  -16.7180 C   0  0  0  0  0  0  0  0  0  0  0  0
   17.6765  -13.4779  -17.1726 C   0  0  0  0  0  0  0  0  0  0  0  0
   17.3343  -14.8368  -17.1501 C   0  0  0  0  0  0  0  0  0  0  0  0
   18.2093  -15.7811  -16.6781 C   0  0  0  0  0  0  0  0  0  0  0  0
   19.4383  -15.3862  -16.2215 C   0  0  0  0  0  0  0  0  0  0  0  0
   19.7523  -14.0540  -16.2523 C   0  0  0  0  0  0  0  0  0  0  0  0
   19.7987   -9.6867  -18.1127 C   0  0  0  0  0  0  0  0  0  0  0  0
   20.9795   -9.3007  -17.9159 O   0  0  0  0  0  0  0  0  0  0  0  0
   18.7770   -8.7255  -18.3159 N   0  0  0  0  0  0  0  0  0  0  0  0
   17.4032   -9.0125  -18.5912 C   0  0  0  0  0  0  0  0  0  0  0  0
   16.6624   -7.6886  -18.6728 C   0  0  0  0  0  0  0  0  0  0  0  0
   17.7450   -6.6561  -18.9314 C   0  0  0  0  0  0  0  0  0  0  0  0
   18.9455   -7.2792  -18.2767 C   0  0  1  0  0  0  0  0  0  0  0  0
   19.1707   -6.7934  -16.8963 C   0  0  0  0  0  0  0  0  0  0  0  0
   19.1744   -7.6564  -15.9812 O   0  0  0  0  0  0  0  0  0  0  0  0
   19.3788   -5.4518  -16.5357 N   0  0  0  0  0  0  0  0  0  0  0  0
   19.8577   -4.9708  -15.2715 C   0  0  1  0  0  0  0  0  0  0  0  0
   21.1564   -5.6360  -14.9314 C   0  0  0  0  0  0  0  0  0  0  0  0
   21.7580   -5.1615  -13.6695 C   0  0  0  0  0  0  0  0  0  0  0  0
   21.0321   -4.7037  -12.7321 O   0  0  0  0  0  0  0  0  0  0  0  0
   19.9731   -3.4863  -15.2428 C   0  0  0  0  0  0  0  0  0  0  0  0
   19.5026   -2.8724  -14.2693 O   0  0  0  0  0  0  0  0  0  0  0  0
   23.1203   -5.1766  -13.4131 O   0  0  0  0  0  0  0  0  0  0  0  0
   20.6004   -2.8467  -16.3024 O   0  0  0  0  0  0  0  0  0  0  0  0
  2  1  1  1
  3  2  1  0
  4  9  1  0
  4  3  1  0
  5  4  2  0
  6  7  2  0
  6  5  1  0
  7  8  1  0
  8  9  2  0
 10  2  1  0
 11 10  2  0
 12 13  1  0
 12 10  1  0
 14 13  1  0
 15 16  1  0
 15 14  1  0
 16 12  1  0
 17 18  2  0
 16 17  1  1
 19 17  1  0
 20 21  1  6
 20 19  1  0
 22 26  1  0
 22 21  1  0
 23 22  2  0
 24 20  1  0
 25 24  2  0
 27 24  1  0
M  END
$$$$
