FPD.pdb
     RDKit          3D

 27 28  0  0  1  0  0  0  0  0999 V2000
   27.1505  -20.9907  -15.4085 N   0  0  0  0  0  0  0  0  0  0  0  0
   26.3388  -20.3162  -14.4557 C   0  0  1  0  0  0  0  0  0  0  0  0
   25.6179  -19.1706  -15.1279 C   0  0  0  0  0  0  0  0  0  0  0  0
   26.5440  -18.1076  -15.5247 C   0  0  0  0  0  0  0  0  0  0  0  0
   26.9140  -17.0961  -14.6634 C   0  0  0  0  0  0  0  0  0  0  0  0
   27.7971  -16.0904  -15.0795 C   0  0  0  0  0  0  0  0  0  0  0  0
   28.3166  -16.0829  -16.3484 C   0  0  0  0  0  0  0  0  0  0  0  0
   27.9645  -17.0768  -17.2219 C   0  0  0  0  0  0  0  0  0  0  0  0
   27.1005  -18.0492  -16.7952 C   0  0  0  0  0  0  0  0  0  0  0  0
   25.3982  -21.1566  -13.7032 C   0  0  0  0  0  0  0  0  0  0  0  0
   24.9719  -22.2042  -14.2535 O   0  0  0  0  0  0  0  0  0  0  0  0
   24.9604  -20.8298  -12.3953 N   0  0  0  0  0  0  0  0  0  0  0  0
   25.5244  -19.8206  -11.5536 C   0  0  0  0  0  0  0  0  0  0  0  0
   24.7056  -19.7753  -10.2747 C   0  0  0  0  0  0  0  0  0  0  0  0
   23.9933  -21.1152  -10.2252 C   0  0  0  0  0  0  0  0  0  0  0  0
   23.8587  -21.4610  -11.6813 C   0  0  1  0  0  0  0  0  0  0  0  0
   22.5474  -21.0748  -12.2502 C   0  0  0  0  0  0  0  0  0  0  0  0
   22.4499  -19.9127  -12.7218 O   0  0  0  0  0  0  0  0  0  0  0  0
   21.4137  -21.9026  -12.3019 N   0  0  0  0  0  0  0  0  0  0  0  0
   20.1822  -21.6240  -12.9836 C   0  0  1  0  0  0  0  0  0  0  0  0
   19.5502  -22.9038  -13.4389 C   0  0  0  0  0  0  0  0  0  0  0  0
   18.2490  -22.7211  -14.1119 C   0  0  0  0  0  0  0  0  0  0  0  0
   17.2051  -22.4325  -13.4468 O   0  0  0  0  0  0  0  0  0  0  0  0
   19.2507  -20.8133  -12.1510 C   0  0  0  0  0  0  0  0  0  0  0  0
   19.4351  -20.7717  -10.9221 O   0  0  0  0  0  0  0  0  0  0  0  0
   18.0663  -22.8455  -15.4805 O   0  0  0  0  0  0  0  0  0  0  0  0
   18.2143  -20.1368  -12.7785 O   0  0  0  0  0  0  0  0  0  0  0  0
  2  1  1  6
  3  2  1  0
  4  9  1  0
  4  3  1  0
  5  4  2  0
  6  7  2  0
  6  5  1  0
  7  8  1  0
  8  9  2  0
 10  2  1  0
 11 10  2  0
 12 13  1  0
 12 10  1  0
 14 13  1  0
 15 16  1  0
 15 14  1  0
 16 12  1  0
 17 18  2  0
 16 17  1  6
 19 17  1  0
 20 21  1  1
 20 19  1  0
 22 26  1  0
 22 21  1  0
 23 22  2  0
 24 20  1  0
 25 24  2  0
 27 24  1  0
M  END
$$$$
