FPD.pdb
     RDKit          3D

 27 28  0  0  1  0  0  0  0  0999 V2000
   25.9105  -18.8439   -7.7415 N   0  0  0  0  0  0  0  0  0  0  0  0
   26.8393  -19.6276   -8.4796 C   0  0  1  0  0  0  0  0  0  0  0  0
   27.2159  -20.8521   -7.6779 C   0  0  0  0  0  0  0  0  0  0  0  0
   27.9697  -20.4985   -6.4729 C   0  0  0  0  0  0  0  0  0  0  0  0
   29.3485  -20.4978   -6.4427 C   0  0  0  0  0  0  0  0  0  0  0  0
   30.0374  -20.1611   -5.2696 C   0  0  0  0  0  0  0  0  0  0  0  0
   29.3644  -19.8241   -4.1235 C   0  0  0  0  0  0  0  0  0  0  0  0
   27.9951  -19.8173   -4.1286 C   0  0  0  0  0  0  0  0  0  0  0  0
   27.3419  -20.1494   -5.2850 C   0  0  0  0  0  0  0  0  0  0  0  0
   26.4286  -19.9990   -9.8399 C   0  0  0  0  0  0  0  0  0  0  0  0
   25.1974  -20.0464  -10.0928 O   0  0  0  0  0  0  0  0  0  0  0  0
   27.3614  -20.3025  -10.8631 N   0  0  0  0  0  0  0  0  0  0  0  0
   28.7314  -20.6616  -10.6645 C   0  0  0  0  0  0  0  0  0  0  0  0
   29.3329  -20.9591  -12.0274 C   0  0  0  0  0  0  0  0  0  0  0  0
   28.4057  -20.2750  -13.0160 C   0  0  0  0  0  0  0  0  0  0  0  0
   27.0882  -20.3053  -12.2938 C   0  0  1  0  0  0  0  0  0  0  0  0
   26.2390  -21.4535  -12.6849 C   0  0  0  0  0  0  0  0  0  0  0  0
   26.1564  -22.4064  -11.8680 O   0  0  0  0  0  0  0  0  0  0  0  0
   25.5248  -21.5568  -13.8901 N   0  0  0  0  0  0  0  0  0  0  0  0
   24.1255  -21.8405  -14.0328 C   0  0  1  0  0  0  0  0  0  0  0  0
   23.3304  -20.9584  -13.1194 C   0  0  0  0  0  0  0  0  0  0  0  0
   21.9677  -21.4559  -12.8453 C   0  0  0  0  0  0  0  0  0  0  0  0
   21.5568  -22.5464  -13.3526 O   0  0  0  0  0  0  0  0  0  0  0  0
   23.6707  -21.7254  -15.4463 C   0  0  0  0  0  0  0  0  0  0  0  0
   23.8770  -20.6593  -16.0520 O   0  0  0  0  0  0  0  0  0  0  0  0
   21.0550  -20.7948  -12.0380 O   0  0  0  0  0  0  0  0  0  0  0  0
   23.0351  -22.8111  -16.0316 O   0  0  0  0  0  0  0  0  0  0  0  0
  2  1  1  1
  3  2  1  0
  4  9  1  0
  4  3  1  0
  5  4  2  0
  6  7  2  0
  6  5  1  0
  7  8  1  0
  8  9  2  0
 10  2  1  0
 11 10  2  0
 12 13  1  0
 12 10  1  0
 14 13  1  0
 15 16  1  0
 15 14  1  0
 16 12  1  0
 17 18  2  0
 16 17  1  6
 19 17  1  0
 20 21  1  1
 20 19  1  0
 22 26  1  0
 22 21  1  0
 23 22  2  0
 24 20  1  0
 25 24  2  0
 27 24  1  0
M  END
$$$$
