NAK.pdb
     RDKit          3D

 23 22  0  0  1  0  0  0  0  0999 V2000
   13.4343  -18.8251   15.8969 N   0  0  0  0  0  0  0  0  0  0  0  0
   12.2146  -18.8823   16.6654 C   0  0  0  0  0  0  0  0  0  0  0  0
   11.4535  -19.8472   16.4281 O   0  0  0  0  0  0  0  0  0  0  0  0
   11.9823  -17.8142   17.6445 C   0  0  0  0  0  0  0  0  0  0  0  0
   12.0502  -18.3463   19.0744 C   0  0  2  0  0  0  0  0  0  0  0  0
   11.3025  -19.5400   19.2352 N   0  0  0  0  0  0  0  0  0  0  0  0
   11.7527  -17.2505   19.9903 C   0  0  0  0  0  0  0  0  0  0  0  0
   12.5247  -16.2344   19.9106 O   0  0  0  0  0  0  0  0  0  0  0  0
    9.1150  -16.0287   22.3954 C   0  0  0  0  0  0  0  0  0  0  0  0
   10.5220  -16.0633   21.8395 C   0  0  2  0  0  0  0  0  0  0  0  0
   10.7295  -17.1720   20.9437 N   0  0  0  0  0  0  0  0  0  0  0  0
   11.5412  -16.0212   22.9213 C   0  0  0  0  0  0  0  0  0  0  0  0
   11.5621  -15.0569   23.7289 O   0  0  0  0  0  0  0  0  0  0  0  0
   12.5204  -17.0243   23.1098 N   0  0  0  0  0  0  0  0  0  0  0  0
   13.4901  -16.9763   24.1929 C   0  0  1  0  0  0  0  0  0  0  0  0
   13.6130  -18.2463   24.9260 C   0  0  0  0  0  0  0  0  0  0  0  0
   12.4175  -18.4990   25.8006 C   0  0  0  0  0  0  0  0  0  0  0  0
   12.5471  -19.8936   26.4674 C   0  0  0  0  0  0  0  0  0  0  0  0
   11.3245  -20.1857   27.2910 C   0  0  0  0  0  0  0  0  0  0  0  0
   11.3869  -21.4947   27.9106 N   0  0  0  0  0  0  0  0  0  0  0  0
   14.7683  -16.4270   23.7075 C   0  0  0  0  0  0  0  0  0  0  0  0
   15.0296  -16.4961   22.4790 O   0  0  0  0  0  0  0  0  0  0  0  0
   15.7180  -15.8298   24.5019 O   0  0  0  0  0  0  0  0  0  0  0  0
  2  4  1  0
  2  1  1  0
  3  2  2  0
  5  6  1  6
  5  4  1  0
  7  8  2  0
  7  5  1  0
 10  9  1  1
 10 11  1  0
 10 12  1  0
 11  7  1  0
 12 14  1  0
 12 13  2  0
 14 15  1  0
 15 16  1  6
 15 21  1  0
 17 16  1  0
 18 17  1  0
 19 18  1  0
 20 19  1  0
 21 22  2  0
 21 23  1  0
M  END
$$$$
