NAK.pdb
     RDKit          3D

 23 22  0  0  1  0  0  0  0  0999 V2000
   10.0497  -18.6268   15.1467 N   0  0  0  0  0  0  0  0  0  0  0  0
    9.0503  -17.6123   15.3779 C   0  0  0  0  0  0  0  0  0  0  0  0
    8.1063  -17.5658   14.5573 O   0  0  0  0  0  0  0  0  0  0  0  0
    9.2318  -16.7380   16.5424 C   0  0  0  0  0  0  0  0  0  0  0  0
    8.6051  -17.3446   17.7960 C   0  0  2  0  0  0  0  0  0  0  0  0
    7.2252  -17.6198   17.6227 N   0  0  0  0  0  0  0  0  0  0  0  0
    8.9772  -16.5233   18.9429 C   0  0  0  0  0  0  0  0  0  0  0  0
   10.2093  -16.5677   19.2818 O   0  0  0  0  0  0  0  0  0  0  0  0
    7.5282  -14.0438   21.4214 C   0  0  0  0  0  0  0  0  0  0  0  0
    8.5635  -15.0320   20.9299 C   0  0  2  0  0  0  0  0  0  0  0  0
    8.1560  -15.6939   19.7173 N   0  0  0  0  0  0  0  0  0  0  0  0
    8.9477  -15.9989   21.9920 C   0  0  0  0  0  0  0  0  0  0  0  0
    8.2302  -17.0080   22.2137 O   0  0  0  0  0  0  0  0  0  0  0  0
   10.1028  -15.8562   22.7959 N   0  0  0  0  0  0  0  0  0  0  0  0
   10.4808  -16.8362   23.8020 C   0  0  1  0  0  0  0  0  0  0  0  0
   11.8474  -17.3542   23.6310 C   0  0  0  0  0  0  0  0  0  0  0  0
   12.1868  -18.3777   24.6777 C   0  0  0  0  0  0  0  0  0  0  0  0
   13.6455  -18.8646   24.4743 C   0  0  0  0  0  0  0  0  0  0  0  0
   13.9851  -19.9132   25.4959 C   0  0  0  0  0  0  0  0  0  0  0  0
   15.3315  -20.4223   25.3251 N   0  0  0  0  0  0  0  0  0  0  0  0
   10.1897  -16.3189   25.1507 C   0  0  0  0  0  0  0  0  0  0  0  0
   10.0033  -15.0837   25.2983 O   0  0  0  0  0  0  0  0  0  0  0  0
   10.1000  -17.0906   26.2848 O   0  0  0  0  0  0  0  0  0  0  0  0
  2  4  1  0
  2  1  1  0
  3  2  2  0
  5  6  1  6
  5  4  1  0
  7  8  2  0
  7  5  1  0
 10  9  1  1
 10 11  1  0
 10 12  1  0
 11  7  1  0
 12 14  1  0
 12 13  2  0
 14 15  1  0
 15 16  1  1
 15 21  1  0
 17 16  1  0
 18 17  1  0
 19 18  1  0
 20 19  1  0
 21 22  2  0
 21 23  1  0
M  END
$$$$
