NAK.pdb
     RDKit          3D

 23 22  0  0  1  0  0  0  0  0999 V2000
    7.7062  -17.2242   13.9152 N   0  0  0  0  0  0  0  0  0  0  0  0
    7.9362  -17.8513   15.1940 C   0  0  0  0  0  0  0  0  0  0  0  0
    7.5953  -19.0516   15.2931 O   0  0  0  0  0  0  0  0  0  0  0  0
    8.5425  -17.0314   16.2492 C   0  0  0  0  0  0  0  0  0  0  0  0
    8.6538  -15.5693   15.8224 C   0  0  2  0  0  0  0  0  0  0  0  0
    9.5277  -15.4010   14.7188 N   0  0  0  0  0  0  0  0  0  0  0  0
    8.9204  -14.7606   17.0070 C   0  0  0  0  0  0  0  0  0  0  0  0
   10.1430  -14.7029   17.3768 O   0  0  0  0  0  0  0  0  0  0  0  0
    7.1912  -12.4872   19.5030 C   0  0  0  0  0  0  0  0  0  0  0  0
    8.3342  -13.3456   19.0064 C   0  0  2  0  0  0  0  0  0  0  0  0
    8.0072  -14.0411   17.7881 N   0  0  0  0  0  0  0  0  0  0  0  0
    8.8261  -14.2698   20.0621 C   0  0  0  0  0  0  0  0  0  0  0  0
    9.2021  -13.8135   21.1725 O   0  0  0  0  0  0  0  0  0  0  0  0
    8.9024  -15.6725   19.8972 N   0  0  0  0  0  0  0  0  0  0  0  0
    9.4430  -16.5518   20.9220 C   0  0  1  0  0  0  0  0  0  0  0  0
    9.0968  -17.9678   20.7212 C   0  0  0  0  0  0  0  0  0  0  0  0
    9.7053  -18.8425   21.7809 C   0  0  0  0  0  0  0  0  0  0  0  0
    9.3496  -20.3256   21.4977 C   0  0  0  0  0  0  0  0  0  0  0  0
   10.0243  -21.2172   22.5016 C   0  0  0  0  0  0  0  0  0  0  0  0
    9.6903  -22.6133   22.2995 N   0  0  0  0  0  0  0  0  0  0  0  0
   10.8828  -16.2966   21.1036 C   0  0  0  0  0  0  0  0  0  0  0  0
   11.5898  -16.0669   20.0889 O   0  0  0  0  0  0  0  0  0  0  0  0
   11.5310  -16.2854   22.3158 O   0  0  0  0  0  0  0  0  0  0  0  0
  2  4  1  0
  2  1  1  0
  3  2  2  0
  5  6  1  6
  5  4  1  0
  7  8  2  0
  7  5  1  0
 10  9  1  1
 10 11  1  0
 10 12  1  0
 11  7  1  0
 12 14  1  0
 12 13  2  0
 14 15  1  0
 15 16  1  6
 15 21  1  0
 17 16  1  0
 18 17  1  0
 19 18  1  0
 20 19  1  0
 21 22  2  0
 21 23  1  0
M  END
$$$$
