NAK.pdb
     RDKit          3D

 23 22  0  0  1  0  0  0  0  0999 V2000
    6.3578  -17.7350   14.9509 N   0  0  0  0  0  0  0  0  0  0  0  0
    6.8020  -18.5074   16.0856 C   0  0  0  0  0  0  0  0  0  0  0  0
    6.5295  -19.7289   16.0667 O   0  0  0  0  0  0  0  0  0  0  0  0
    7.5250  -17.7959   17.1460 C   0  0  0  0  0  0  0  0  0  0  0  0
    7.6742  -16.3118   16.8178 C   0  0  2  0  0  0  0  0  0  0  0  0
    8.3598  -16.1025   15.5947 N   0  0  0  0  0  0  0  0  0  0  0  0
    8.1976  -15.6281   17.9954 C   0  0  0  0  0  0  0  0  0  0  0  0
    9.2818  -16.1038   18.4781 O   0  0  0  0  0  0  0  0  0  0  0  0
    7.3971  -12.7555   20.3481 C   0  0  0  0  0  0  0  0  0  0  0  0
    8.2153  -13.9288   19.8544 C   0  0  2  0  0  0  0  0  0  0  0  0
    7.6627  -14.5183   18.6620 N   0  0  0  0  0  0  0  0  0  0  0  0
    8.4332  -14.9362   20.9260 C   0  0  0  0  0  0  0  0  0  0  0  0
    7.5520  -15.8016   21.1648 O   0  0  0  0  0  0  0  0  0  0  0  0
    9.6020  -14.9890   21.7209 N   0  0  0  0  0  0  0  0  0  0  0  0
    9.9286  -16.1345   22.5556 C   0  0  1  0  0  0  0  0  0  0  0  0
   10.0238  -17.3973   21.8063 C   0  0  0  0  0  0  0  0  0  0  0  0
   10.3379  -18.5557   22.7106 C   0  0  0  0  0  0  0  0  0  0  0  0
   10.3968  -19.8634   21.8783 C   0  0  0  0  0  0  0  0  0  0  0  0
   10.6526  -21.0369   22.7814 C   0  0  0  0  0  0  0  0  0  0  0  0
   10.7747  -22.2766   22.0401 N   0  0  0  0  0  0  0  0  0  0  0  0
   11.1018  -15.8343   23.3951 C   0  0  0  0  0  0  0  0  0  0  0  0
   12.0030  -15.0889   22.9319 O   0  0  0  0  0  0  0  0  0  0  0  0
   11.2962  -16.3088   24.6705 O   0  0  0  0  0  0  0  0  0  0  0  0
  2  4  1  0
  2  1  1  0
  3  2  2  0
  5  6  1  6
  5  4  1  0
  7  8  2  0
  7  5  1  0
 10  9  1  1
 10 11  1  0
 10 12  1  0
 11  7  1  0
 12 14  1  0
 12 13  2  0
 14 15  1  0
 15 16  1  6
 15 21  1  0
 17 16  1  0
 18 17  1  0
 19 18  1  0
 20 19  1  0
 21 22  2  0
 21 23  1  0
M  END
$$$$
