NAK.pdb
     RDKit          3D

 23 22  0  0  1  0  0  0  0  0999 V2000
    6.1608  -20.6746   17.2881 N   0  0  0  0  0  0  0  0  0  0  0  0
    5.9517  -19.2579   17.4632 C   0  0  0  0  0  0  0  0  0  0  0  0
    5.0604  -18.7365   16.7558 O   0  0  0  0  0  0  0  0  0  0  0  0
    6.7954  -18.5667   18.4450 C   0  0  0  0  0  0  0  0  0  0  0  0
    7.3712  -17.2739   17.8710 C   0  0  2  0  0  0  0  0  0  0  0  0
    8.1291  -17.5036   16.6952 N   0  0  0  0  0  0  0  0  0  0  0  0
    8.0271  -16.5412   18.9487 C   0  0  0  0  0  0  0  0  0  0  0  0
    9.1894  -16.9600   19.2782 O   0  0  0  0  0  0  0  0  0  0  0  0
    7.5089  -13.5554   21.2380 C   0  0  0  0  0  0  0  0  0  0  0  0
    8.2725  -14.7443   20.6963 C   0  0  2  0  0  0  0  0  0  0  0  0
    7.5445  -15.4391   19.6658 N   0  0  0  0  0  0  0  0  0  0  0  0
    8.7097  -15.6584   21.7844 C   0  0  0  0  0  0  0  0  0  0  0  0
    7.9009  -16.4904   22.2702 O   0  0  0  0  0  0  0  0  0  0  0  0
   10.0156  -15.6557   22.3277 N   0  0  0  0  0  0  0  0  0  0  0  0
   10.4604  -16.6434   23.2984 C   0  0  1  0  0  0  0  0  0  0  0  0
   11.4836  -17.5613   22.7735 C   0  0  0  0  0  0  0  0  0  0  0  0
   11.8597  -18.6080   23.7840 C   0  0  0  0  0  0  0  0  0  0  0  0
   12.8993  -19.5784   23.1646 C   0  0  0  0  0  0  0  0  0  0  0  0
   13.2415  -20.6620   24.1479 C   0  0  0  0  0  0  0  0  0  0  0  0
   14.1544  -21.6376   23.5856 N   0  0  0  0  0  0  0  0  0  0  0  0
   10.8256  -15.9839   24.5645 C   0  0  0  0  0  0  0  0  0  0  0  0
   11.1754  -14.7759   24.5392 O   0  0  0  0  0  0  0  0  0  0  0  0
   10.8126  -16.5909   25.7978 O   0  0  0  0  0  0  0  0  0  0  0  0
  2  4  1  0
  2  1  1  0
  3  2  2  0
  5  6  1  6
  5  4  1  0
  7  8  2  0
  7  5  1  0
 10  9  1  1
 10 11  1  0
 10 12  1  0
 11  7  1  0
 12 14  1  0
 12 13  2  0
 14 15  1  0
 15 16  1  6
 15 21  1  0
 17 16  1  0
 18 17  1  0
 19 18  1  0
 20 19  1  0
 21 22  2  0
 21 23  1  0
M  END
$$$$
