NAK.pdb
     RDKit          3D

 23 22  0  0  1  0  0  0  0  0999 V2000
    2.9708  -19.7002   21.3962 N   0  0  0  0  0  0  0  0  0  0  0  0
    3.4755  -18.3737   21.6551 C   0  0  0  0  0  0  0  0  0  0  0  0
    2.6327  -17.4482   21.6505 O   0  0  0  0  0  0  0  0  0  0  0  0
    4.9161  -18.2343   21.8974 C   0  0  0  0  0  0  0  0  0  0  0  0
    5.5337  -17.1769   20.9847 C   0  0  2  0  0  0  0  0  0  0  0  0
    5.7332  -17.6607   19.6672 N   0  0  0  0  0  0  0  0  0  0  0  0
    6.6912  -16.6014   21.6609 C   0  0  0  0  0  0  0  0  0  0  0  0
    7.7768  -17.2710   21.5714 O   0  0  0  0  0  0  0  0  0  0  0  0
    7.7467  -13.5583   23.6681 C   0  0  0  0  0  0  0  0  0  0  0  0
    7.9210  -14.9582   23.1206 C   0  0  2  0  0  0  0  0  0  0  0  0
    6.7624  -15.4100   22.3939 N   0  0  0  0  0  0  0  0  0  0  0  0
    8.3228  -15.9175   24.1832 C   0  0  0  0  0  0  0  0  0  0  0  0
    7.4840  -16.2924   25.0425 O   0  0  0  0  0  0  0  0  0  0  0  0
    9.6264  -16.4543   24.2970 N   0  0  0  0  0  0  0  0  0  0  0  0
    9.9843  -17.4289   25.3157 C   0  0  1  0  0  0  0  0  0  0  0  0
   10.3217  -18.7522   24.7678 C   0  0  0  0  0  0  0  0  0  0  0  0
    9.2731  -19.7748   25.1042 C   0  0  0  0  0  0  0  0  0  0  0  0
    9.7048  -21.1608   24.5573 C   0  0  0  0  0  0  0  0  0  0  0  0
    8.6765  -22.1972   24.9129 C   0  0  0  0  0  0  0  0  0  0  0  0
    9.0015  -23.4972   24.3600 N   0  0  0  0  0  0  0  0  0  0  0  0
   11.0014  -16.8675   26.2221 C   0  0  0  0  0  0  0  0  0  0  0  0
   11.6331  -15.8410   25.8618 O   0  0  0  0  0  0  0  0  0  0  0  0
   11.3224  -17.3812   27.4560 O   0  0  0  0  0  0  0  0  0  0  0  0
  2  4  1  0
  2  1  1  0
  3  2  2  0
  5  6  1  6
  5  4  1  0
  7  8  2  0
  7  5  1  0
 10  9  1  1
 10 11  1  0
 10 12  1  0
 11  7  1  0
 12 14  1  0
 12 13  2  0
 14 15  1  0
 15 16  1  6
 15 21  1  0
 17 16  1  0
 18 17  1  0
 19 18  1  0
 20 19  1  0
 21 22  2  0
 21 23  1  0
M  END
$$$$
