RCE.pdb
     RDKit          3D

 27 26  0  0  1  0  0  0  0  0999 V2000
    8.7251  -12.8851   20.6420 N   0  0  0  0  0  0  0  0  0  0  0  0
    8.4949  -12.8220   19.2443 C   0  0  0  0  0  0  0  0  0  0  0  0
    8.1652  -11.7323   18.6688 N   0  0  0  0  0  0  0  0  0  0  0  0
    8.6342  -14.0055   18.4477 N   0  0  0  0  0  0  0  0  0  0  0  0
    8.1632  -15.2956   18.8940 C   0  0  0  0  0  0  0  0  0  0  0  0
    9.4269  -16.1076   19.2415 C   0  0  0  0  0  0  0  0  0  0  0  0
    9.8312  -15.8337   20.6520 C   0  0  0  0  0  0  0  0  0  0  0  0
    9.0189  -16.6498   21.6170 C   0  0  2  0  0  0  0  0  0  0  0  0
    7.5873  -16.5075   21.2373 N   0  0  0  0  0  0  0  0  0  0  0  0
    9.1758  -16.1869   23.0246 C   0  0  0  0  0  0  0  0  0  0  0  0
   10.3495  -16.0909   23.4566 O   0  0  0  0  0  0  0  0  0  0  0  0
    8.0136  -11.6700   17.6417 N   0  0  0  0  0  0  0  0  0  0  0  0
    8.0853  -15.8573   23.8675 C   0  0  1  0  0  0  0  0  0  0  0  0
    8.0959  -15.6810   25.2857 C   0  0  0  0  0  0  0  0  0  0  0  0
    7.1394  -14.6644   25.7829 S   0  0  0  0  0  0  0  0  0  0  0  0
    6.8859  -13.2629   24.6639 C   0  0  0  0  0  0  0  0  0  0  0  0
    8.2986  -16.8840   26.1028 O   0  0  0  0  0  0  0  0  0  0  0  0
    7.7060  -17.9955   25.9116 N   0  0  0  0  0  0  0  0  0  0  0  0
    9.2144  -16.9249   27.2225 C   0  0  1  0  0  0  0  0  0  0  0  0
   10.1322  -17.9743   27.4668 C   0  0  0  0  0  0  0  0  0  0  0  0
   10.9166  -18.5332   26.3500 C   0  0  0  0  0  0  0  0  0  0  0  0
   11.8358  -19.6778   26.7262 C   0  0  0  0  0  0  0  0  0  0  0  0
   11.4989  -20.9304   26.0359 O   0  0  0  0  0  0  0  0  0  0  0  0
   11.4756  -20.9417   24.7750 C   0  0  0  0  0  0  0  0  0  0  0  0
   10.9574  -17.7869   28.7161 O   0  0  0  0  0  0  0  0  0  0  0  0
   11.6874  -18.8231   29.2682 O   0  0  0  0  0  0  0  0  0  0  0  0
   11.2163  -22.0597   26.8022 O   0  0  0  0  0  0  0  0  0  0  0  0
  2  1  1  0
  2  4  1  0
  3  2  2  0
  5  6  1  0
  5  4  1  0
  7  8  1  0
  7  6  1  0
  8  9  1  6
 10  8  1  0
 10 11  2  0
 12 10  1  0
 13 16  1  0
 13 12  1  0
 13 14  1  1
 15 14  1  0
 16 18  1  0
 17 16  2  0
 18 19  1  0
 19 24  1  0
 19 20  1  1
 21 20  1  0
 22 26  1  0
 22 21  1  0
 23 22  2  0
 24 27  2  0
 24 25  1  0
M  END
$$$$
