RCE.pdb
     RDKit          3D

 27 26  0  0  1  0  0  0  0  0999 V2000
    7.0616  -15.0789   14.1366 N   0  0  0  0  0  0  0  0  0  0  0  0
    7.8376  -13.9245   14.4121 C   0  0  0  0  0  0  0  0  0  0  0  0
    8.2730  -13.1724   13.4784 N   0  0  0  0  0  0  0  0  0  0  0  0
    8.1457  -13.5837   15.7699 N   0  0  0  0  0  0  0  0  0  0  0  0
    8.3770  -14.5860   16.7834 C   0  0  0  0  0  0  0  0  0  0  0  0
    7.3916  -14.2651   17.9249 C   0  0  0  0  0  0  0  0  0  0  0  0
    8.1436  -14.0539   19.1968 C   0  0  0  0  0  0  0  0  0  0  0  0
    7.4049  -14.6386   20.3669 C   0  0  2  0  0  0  0  0  0  0  0  0
    5.9634  -14.3078   20.2035 N   0  0  0  0  0  0  0  0  0  0  0  0
    7.8669  -14.0780   21.6679 C   0  0  0  0  0  0  0  0  0  0  0  0
    8.2819  -12.8944   21.6536 O   0  0  0  0  0  0  0  0  0  0  0  0
    8.8656  -12.3386   13.6671 N   0  0  0  0  0  0  0  0  0  0  0  0
    7.8528  -14.8053   22.8841 C   0  0  1  0  0  0  0  0  0  0  0  0
    8.7415  -14.6718   23.9954 C   0  0  0  0  0  0  0  0  0  0  0  0
    8.1297  -14.0583   25.1975 S   0  0  0  0  0  0  0  0  0  0  0  0
    6.4515  -14.6343   25.5615 C   0  0  0  0  0  0  0  0  0  0  0  0
    9.7142  -15.7522   24.2012 O   0  0  0  0  0  0  0  0  0  0  0  0
    9.4764  -16.9871   23.9973 N   0  0  0  0  0  0  0  0  0  0  0  0
   11.0660  -15.5121   24.6586 C   0  0  1  0  0  0  0  0  0  0  0  0
   12.0959  -16.4829   24.6540 C   0  0  0  0  0  0  0  0  0  0  0  0
   13.4537  -16.1052   24.2200 C   0  0  0  0  0  0  0  0  0  0  0  0
   14.4449  -17.2498   24.1574 C   0  0  0  0  0  0  0  0  0  0  0  0
   15.7908  -16.8175   23.7569 O   0  0  0  0  0  0  0  0  0  0  0  0
   16.0442  -15.5829   23.7126 C   0  0  0  0  0  0  0  0  0  0  0  0
   12.1050  -17.3709   25.8740 O   0  0  0  0  0  0  0  0  0  0  0  0
   12.5051  -18.6927   25.8090 O   0  0  0  0  0  0  0  0  0  0  0  0
   16.7374  -17.7900   23.4395 O   0  0  0  0  0  0  0  0  0  0  0  0
  2  1  1  0
  2  4  1  0
  3  2  2  0
  5  6  1  0
  5  4  1  0
  7  8  1  0
  7  6  1  0
  8  9  1  6
 10  8  1  0
 10 11  2  0
 12 10  1  0
 13 16  1  0
 13 12  1  0
 13 14  1  1
 15 14  1  0
 16 18  1  0
 17 16  2  0
 18 19  1  0
 19 24  1  0
 19 20  1  1
 21 20  1  0
 22 26  1  0
 22 21  1  0
 23 22  2  0
 24 27  2  0
 24 25  1  0
M  END
$$$$
