RCE.pdb
     RDKit          3D

 27 26  0  0  1  0  0  0  0  0999 V2000
   11.5008  -13.1589   10.6984 N   0  0  0  0  0  0  0  0  0  0  0  0
   11.1592  -14.3654   11.3604 C   0  0  0  0  0  0  0  0  0  0  0  0
    9.9584  -14.7945   11.3922 N   0  0  0  0  0  0  0  0  0  0  0  0
   12.1806  -15.1310   12.0126 N   0  0  0  0  0  0  0  0  0  0  0  0
   11.8807  -16.0989   13.0415 C   0  0  0  0  0  0  0  0  0  0  0  0
   11.3453  -15.2879   14.2385 C   0  0  0  0  0  0  0  0  0  0  0  0
   11.0310  -16.2075   15.3713 C   0  0  0  0  0  0  0  0  0  0  0  0
    9.7374  -15.8283   16.0345 C   0  0  2  0  0  0  0  0  0  0  0  0
    9.0489  -14.8452   15.1552 N   0  0  0  0  0  0  0  0  0  0  0  0
    9.9466  -15.1951   17.3671 C   0  0  0  0  0  0  0  0  0  0  0  0
   11.0479  -14.6233   17.5503 O   0  0  0  0  0  0  0  0  0  0  0  0
    9.6942  -15.6707   11.8866 N   0  0  0  0  0  0  0  0  0  0  0  0
    8.9789  -15.2093   18.4023 C   0  0  1  0  0  0  0  0  0  0  0  0
    9.1283  -14.7513   19.7478 C   0  0  0  0  0  0  0  0  0  0  0  0
    7.9994  -13.9288   20.2427 S   0  0  0  0  0  0  0  0  0  0  0  0
    7.4569  -12.6341   19.0982 C   0  0  0  0  0  0  0  0  0  0  0  0
    9.7679  -15.6724   20.6956 O   0  0  0  0  0  0  0  0  0  0  0  0
    9.4608  -16.9019   20.8273 N   0  0  0  0  0  0  0  0  0  0  0  0
   10.8348  -15.2651   21.5844 C   0  0  1  0  0  0  0  0  0  0  0  0
   11.4346  -16.1064   22.5517 C   0  0  0  0  0  0  0  0  0  0  0  0
   12.8498  -15.9078   22.9155 C   0  0  0  0  0  0  0  0  0  0  0  0
   13.8270  -16.0240   21.7631 C   0  0  0  0  0  0  0  0  0  0  0  0
   15.2147  -15.7525   22.1622 O   0  0  0  0  0  0  0  0  0  0  0  0
   15.5113  -14.6015   22.5837 C   0  0  0  0  0  0  0  0  0  0  0  0
   10.5616  -16.3776   23.7523 O   0  0  0  0  0  0  0  0  0  0  0  0
    9.3621  -15.7171   23.9437 O   0  0  0  0  0  0  0  0  0  0  0  0
   16.1521  -16.7787   22.0586 O   0  0  0  0  0  0  0  0  0  0  0  0
  2  1  1  0
  2  4  1  0
  3  2  2  0
  5  6  1  0
  5  4  1  0
  7  8  1  0
  7  6  1  0
  8  9  1  6
 10  8  1  0
 10 11  2  0
 12 10  1  0
 13 16  1  0
 13 12  1  0
 13 14  1  1
 15 14  1  0
 16 18  1  0
 17 16  2  0
 18 19  1  0
 19 24  1  0
 19 20  1  1
 21 20  1  0
 22 26  1  0
 22 21  1  0
 23 22  2  0
 24 27  2  0
 24 25  1  0
M  END
$$$$
