WKA.pdb
     RDKit          3D

 29 30  0  0  1  0  0  0  0  0999 V2000
    6.9956  -17.7199   25.3773 N   0  0  0  0  0  0  0  0  0  0  0  0
    7.2094  -16.4783   24.6652 C   0  0  1  0  0  0  0  0  0  0  0  0
    8.3798  -15.7738   25.3384 C   0  0  0  0  0  0  0  0  0  0  0  0
    7.8755  -14.8965   26.4212 C   0  0  0  0  0  0  0  0  0  0  0  0
    7.7503  -15.2859   27.7391 C   0  0  0  0  0  0  0  0  0  0  0  0
    7.2631  -14.2274   28.4101 N   0  0  0  0  0  0  0  0  0  0  0  0
    7.0797  -13.1889   27.5548 C   0  0  0  0  0  0  0  0  0  0  0  0
    6.6127  -11.9093   27.7394 C   0  0  0  0  0  0  0  0  0  0  0  0
    6.5167  -11.0195   26.6922 C   0  0  0  0  0  0  0  0  0  0  0  0
    6.9008  -11.4218   25.4151 C   0  0  0  0  0  0  0  0  0  0  0  0
    7.3693  -12.7030   25.2253 C   0  0  0  0  0  0  0  0  0  0  0  0
    7.4591  -13.5834   26.2878 C   0  0  0  0  0  0  0  0  0  0  0  0
    7.5552  -16.7699   23.2520 C   0  0  0  0  0  0  0  0  0  0  0  0
    7.7770  -17.9966   22.9490 O   0  0  0  0  0  0  0  0  0  0  0  0
    7.6382  -15.7489   22.2796 N   0  0  0  0  0  0  0  0  0  0  0  0
    8.0420  -16.1218   20.9286 C   0  0  1  0  0  0  0  0  0  0  0  0
    7.7936  -15.0014   19.9508 C   0  0  0  0  0  0  0  0  0  0  0  0
    8.2787  -15.3195   18.5543 C   0  0  0  0  0  0  0  0  0  0  0  0
    7.3306  -16.3895   18.0118 C   0  0  0  0  0  0  0  0  0  0  0  0
    7.7209  -16.7518   16.5938 C   0  0  0  0  0  0  0  0  0  0  0  0
    6.8212  -17.7700   16.1072 N   0  0  0  0  0  0  0  0  0  0  0  0
    9.5048  -16.3737   20.9250 C   0  0  0  0  0  0  0  0  0  0  0  0
   10.0708  -16.8275   19.8936 O   0  0  0  0  0  0  0  0  0  0  0  0
   12.4781  -15.6739   23.1366 C   0  0  0  0  0  0  0  0  0  0  0  0
   11.7439  -16.3922   22.0339 C   0  0  2  0  0  0  0  0  0  0  0  0
   10.3332  -16.1281   22.0460 N   0  0  0  0  0  0  0  0  0  0  0  0
   11.9905  -17.8339   22.1431 C   0  0  0  0  0  0  0  0  0  0  0  0
   13.1635  -18.2742   22.0396 O   0  0  0  0  0  0  0  0  0  0  0  0
   10.9249  -18.6925   22.3592 O   0  0  0  0  0  0  0  0  0  0  0  0
  2  1  1  1
  2  3  1  0
  3  4  1  0
  4  5  2  0
  4 12  1  0
  5  6  1  0
  6  7  1  0
  7  8  2  0
  9  8  1  0
 10  9  2  0
 11 10  1  0
 12 11  2  0
 12  7  1  0
 13 15  1  0
 13  2  1  0
 14 13  2  0
 16 15  1  0
 16 17  1  6
 17 18  1  0
 19 18  1  0
 20 19  1  0
 20 21  1  0
 22 16  1  0
 23 22  2  0
 25 24  1  1
 25 27  1  0
 25 26  1  0
 26 22  1  0
 27 29  1  0
 28 27  2  0
M  END
$$$$
