WKA.pdb
     RDKit          3D

 29 30  0  0  1  0  0  0  0  0999 V2000
    6.5067  -18.5108   25.0158 N   0  0  0  0  0  0  0  0  0  0  0  0
    6.8601  -17.1211   24.8209 C   0  0  1  0  0  0  0  0  0  0  0  0
    7.8290  -16.7467   25.9347 C   0  0  0  0  0  0  0  0  0  0  0  0
    7.3009  -15.5808   26.6817 C   0  0  0  0  0  0  0  0  0  0  0  0
    6.4669  -15.6753   27.7771 C   0  0  0  0  0  0  0  0  0  0  0  0
    6.2056  -14.4172   28.1733 N   0  0  0  0  0  0  0  0  0  0  0  0
    6.8488  -13.5393   27.3615 C   0  0  0  0  0  0  0  0  0  0  0  0
    6.9053  -12.1660   27.3435 C   0  0  0  0  0  0  0  0  0  0  0  0
    7.6433  -11.4877   26.3986 C   0  0  0  0  0  0  0  0  0  0  0  0
    8.3503  -12.2065   25.4374 C   0  0  0  0  0  0  0  0  0  0  0  0
    8.2967  -13.5826   25.4514 C   0  0  0  0  0  0  0  0  0  0  0  0
    7.5507  -14.2475   26.4072 C   0  0  0  0  0  0  0  0  0  0  0  0
    7.5312  -16.9591   23.5075 C   0  0  0  0  0  0  0  0  0  0  0  0
    8.2933  -17.9164   23.1221 O   0  0  0  0  0  0  0  0  0  0  0  0
    7.3442  -15.8066   22.7127 N   0  0  0  0  0  0  0  0  0  0  0  0
    8.0574  -15.7282   21.4428 C   0  0  1  0  0  0  0  0  0  0  0  0
    7.7300  -14.4545   20.7053 C   0  0  0  0  0  0  0  0  0  0  0  0
    8.3834  -14.3772   19.3438 C   0  0  0  0  0  0  0  0  0  0  0  0
    7.7747  -13.1568   18.6523 C   0  0  0  0  0  0  0  0  0  0  0  0
    8.2749  -13.0712   17.2251 C   0  0  0  0  0  0  0  0  0  0  0  0
    7.9558  -14.3027   16.5435 N   0  0  0  0  0  0  0  0  0  0  0  0
    9.5152  -15.6969   21.7204 C   0  0  0  0  0  0  0  0  0  0  0  0
    9.9833  -14.9020   22.5801 O   0  0  0  0  0  0  0  0  0  0  0  0
   12.4727  -17.8293   21.5093 C   0  0  0  0  0  0  0  0  0  0  0  0
   11.8564  -16.4684   21.3118 C   0  0  2  0  0  0  0  0  0  0  0  0
   10.4454  -16.5324   21.0572 N   0  0  0  0  0  0  0  0  0  0  0  0
   12.5392  -15.7795   20.2116 C   0  0  0  0  0  0  0  0  0  0  0  0
   11.9204  -15.5502   19.1415 O   0  0  0  0  0  0  0  0  0  0  0  0
   13.8597  -15.3903   20.3671 O   0  0  0  0  0  0  0  0  0  0  0  0
  2  1  1  1
  2  3  1  0
  3  4  1  0
  4  5  2  0
  4 12  1  0
  5  6  1  0
  6  7  1  0
  7  8  2  0
  9  8  1  0
 10  9  2  0
 11 10  1  0
 12 11  2  0
 12  7  1  0
 13 15  1  0
 13  2  1  0
 14 13  2  0
 16 15  1  0
 16 17  1  1
 17 18  1  0
 19 18  1  0
 20 19  1  0
 20 21  1  0
 22 16  1  0
 23 22  2  0
 25 24  1  6
 25 27  1  0
 25 26  1  0
 26 22  1  0
 27 29  1  0
 28 27  2  0
M  END
$$$$
