WKA.pdb
     RDKit          3D

 29 30  0  0  1  0  0  0  0  0999 V2000
    6.5408  -18.2473   24.5228 N   0  0  0  0  0  0  0  0  0  0  0  0
    6.7978  -16.8616   24.1941 C   0  0  1  0  0  0  0  0  0  0  0  0
    7.6748  -16.2953   25.3029 C   0  0  0  0  0  0  0  0  0  0  0  0
    6.9684  -15.1786   25.9739 C   0  0  0  0  0  0  0  0  0  0  0  0
    5.8190  -15.3273   26.7230 C   0  0  0  0  0  0  0  0  0  0  0  0
    5.4824  -14.1015   27.1614 N   0  0  0  0  0  0  0  0  0  0  0  0
    6.3836  -13.1913   26.7110 C   0  0  0  0  0  0  0  0  0  0  0  0
    6.4865  -11.8306   26.8765 C   0  0  0  0  0  0  0  0  0  0  0  0
    7.5146  -11.1115   26.3078 C   0  0  0  0  0  0  0  0  0  0  0  0
    8.4743  -11.7749   25.5466 C   0  0  0  0  0  0  0  0  0  0  0  0
    8.3753  -13.1382   25.3780 C   0  0  0  0  0  0  0  0  0  0  0  0
    7.3366  -13.8446   25.9560 C   0  0  0  0  0  0  0  0  0  0  0  0
    7.5236  -16.7843   22.9022 C   0  0  0  0  0  0  0  0  0  0  0  0
    8.1780  -17.8266   22.5398 O   0  0  0  0  0  0  0  0  0  0  0  0
    7.4996  -15.6201   22.1030 N   0  0  0  0  0  0  0  0  0  0  0  0
    8.3927  -15.5623   20.9512 C   0  0  1  0  0  0  0  0  0  0  0  0
    8.1899  -14.2947   20.1605 C   0  0  0  0  0  0  0  0  0  0  0  0
    8.9752  -14.2741   18.8684 C   0  0  0  0  0  0  0  0  0  0  0  0
    8.1632  -13.4195   17.8946 C   0  0  0  0  0  0  0  0  0  0  0  0
    8.0593  -14.1220   16.5566 C   0  0  0  0  0  0  0  0  0  0  0  0
    7.2211  -13.3385   15.6813 N   0  0  0  0  0  0  0  0  0  0  0  0
    9.7940  -15.5397   21.4402 C   0  0  0  0  0  0  0  0  0  0  0  0
   10.4660  -14.4734   21.3998 O   0  0  0  0  0  0  0  0  0  0  0  0
   12.2773  -17.9580   22.9721 C   0  0  0  0  0  0  0  0  0  0  0  0
   11.8467  -16.6901   22.2806 C   0  0  2  0  0  0  0  0  0  0  0  0
   10.4461  -16.6799   21.9673 N   0  0  0  0  0  0  0  0  0  0  0  0
   12.6402  -16.5069   21.0608 C   0  0  0  0  0  0  0  0  0  0  0  0
   13.8398  -16.1409   21.1478 O   0  0  0  0  0  0  0  0  0  0  0  0
   12.0554  -16.7401   19.8267 O   0  0  0  0  0  0  0  0  0  0  0  0
  2  1  1  1
  2  3  1  0
  3  4  1  0
  4  5  2  0
  4 12  1  0
  5  6  1  0
  6  7  1  0
  7  8  2  0
  9  8  1  0
 10  9  2  0
 11 10  1  0
 12 11  2  0
 12  7  1  0
 13 15  1  0
 13  2  1  0
 14 13  2  0
 16 15  1  0
 16 17  1  1
 17 18  1  0
 19 18  1  0
 20 19  1  0
 20 21  1  0
 22 16  1  0
 23 22  2  0
 25 24  1  6
 25 27  1  0
 25 26  1  0
 26 22  1  0
 27 29  1  0
 28 27  2  0
M  END
$$$$
