WKA.pdb
     RDKit          3D

 29 30  0  0  1  0  0  0  0  0999 V2000
    6.5518  -18.1080   24.7335 N   0  0  0  0  0  0  0  0  0  0  0  0
    6.8455  -16.7754   24.2516 C   0  0  1  0  0  0  0  0  0  0  0  0
    7.7823  -16.1310   25.2648 C   0  0  0  0  0  0  0  0  0  0  0  0
    7.0699  -15.0465   25.9807 C   0  0  0  0  0  0  0  0  0  0  0  0
    5.9859  -15.2475   26.8107 C   0  0  0  0  0  0  0  0  0  0  0  0
    5.6197  -14.0371   27.2677 N   0  0  0  0  0  0  0  0  0  0  0  0
    6.4392  -13.0860   26.7508 C   0  0  0  0  0  0  0  0  0  0  0  0
    6.4845  -11.7207   26.9037 C   0  0  0  0  0  0  0  0  0  0  0  0
    7.4316  -10.9548   26.2603 C   0  0  0  0  0  0  0  0  0  0  0  0
    8.3669  -11.5745   25.4346 C   0  0  0  0  0  0  0  0  0  0  0  0
    8.3254  -12.9422   25.2783 C   0  0  0  0  0  0  0  0  0  0  0  0
    7.3678  -13.6959   25.9317 C   0  0  0  0  0  0  0  0  0  0  0  0
    7.5255  -16.8622   22.9356 C   0  0  0  0  0  0  0  0  0  0  0  0
    8.1998  -17.9276   22.6989 O   0  0  0  0  0  0  0  0  0  0  0  0
    7.4387  -15.8235   21.9826 N   0  0  0  0  0  0  0  0  0  0  0  0
    8.1295  -16.0027   20.7105 C   0  0  1  0  0  0  0  0  0  0  0  0
    7.8696  -14.8486   19.7757 C   0  0  0  0  0  0  0  0  0  0  0  0
    8.5558  -15.0081   18.4376 C   0  0  0  0  0  0  0  0  0  0  0  0
    8.0389  -13.8677   17.5598 C   0  0  0  0  0  0  0  0  0  0  0  0
    8.5950  -14.0050   16.1575 C   0  0  0  0  0  0  0  0  0  0  0  0
    8.1460  -12.8855   15.3652 N   0  0  0  0  0  0  0  0  0  0  0  0
    9.5916  -16.0235   20.9652 C   0  0  0  0  0  0  0  0  0  0  0  0
   10.1509  -15.0551   21.5478 O   0  0  0  0  0  0  0  0  0  0  0  0
   12.3677  -18.5365   20.9886 C   0  0  0  0  0  0  0  0  0  0  0  0
   11.8292  -17.1327   20.8848 C   0  0  2  0  0  0  0  0  0  0  0  0
   10.4268  -17.0999   20.5816 N   0  0  0  0  0  0  0  0  0  0  0  0
   12.5851  -16.3950   19.8673 C   0  0  0  0  0  0  0  0  0  0  0  0
   12.0719  -16.1889   18.7383 O   0  0  0  0  0  0  0  0  0  0  0  0
   13.8575  -15.9345   20.1650 O   0  0  0  0  0  0  0  0  0  0  0  0
  2  1  1  1
  2  3  1  0
  3  4  1  0
  4  5  2  0
  4 12  1  0
  5  6  1  0
  6  7  1  0
  7  8  2  0
  9  8  1  0
 10  9  2  0
 11 10  1  0
 12 11  2  0
 12  7  1  0
 13 15  1  0
 13  2  1  0
 14 13  2  0
 16 15  1  0
 16 17  1  6
 17 18  1  0
 19 18  1  0
 20 19  1  0
 20 21  1  0
 22 16  1  0
 23 22  2  0
 25 24  1  6
 25 27  1  0
 25 26  1  0
 26 22  1  0
 27 29  1  0
 28 27  2  0
M  END
$$$$
