WKA.pdb
     RDKit          3D

 29 30  0  0  1  0  0  0  0  0999 V2000
    6.1595  -18.2173   23.5218 N   0  0  0  0  0  0  0  0  0  0  0  0
    6.5459  -16.8246   23.5938 C   0  0  1  0  0  0  0  0  0  0  0  0
    7.2166  -16.6169   24.9452 C   0  0  0  0  0  0  0  0  0  0  0  0
    6.5891  -15.4682   25.6402 C   0  0  0  0  0  0  0  0  0  0  0  0
    5.3475  -15.5101   26.2409 C   0  0  0  0  0  0  0  0  0  0  0  0
    5.1266  -14.2881   26.7569 N   0  0  0  0  0  0  0  0  0  0  0  0
    6.1894  -13.4837   26.4984 C   0  0  0  0  0  0  0  0  0  0  0  0
    6.4520  -12.1699   26.8055 C   0  0  0  0  0  0  0  0  0  0  0  0
    7.6284  -11.5625   26.4253 C   0  0  0  0  0  0  0  0  0  0  0  0
    8.5765  -12.2933   25.7129 C   0  0  0  0  0  0  0  0  0  0  0  0
    8.3178  -13.6100   25.4028 C   0  0  0  0  0  0  0  0  0  0  0  0
    7.1315  -14.2041   25.7923 C   0  0  0  0  0  0  0  0  0  0  0  0
    7.5136  -16.5214   22.5105 C   0  0  0  0  0  0  0  0  0  0  0  0
    8.1381  -17.5157   21.9938 O   0  0  0  0  0  0  0  0  0  0  0  0
    7.7415  -15.2011   22.0635 N   0  0  0  0  0  0  0  0  0  0  0  0
    8.7049  -14.9999   20.9870 C   0  0  1  0  0  0  0  0  0  0  0  0
    8.7079  -13.5693   20.5112 C   0  0  0  0  0  0  0  0  0  0  0  0
    7.7784  -13.3352   19.3417 C   0  0  0  0  0  0  0  0  0  0  0  0
    8.4015  -14.0693   18.1539 C   0  0  0  0  0  0  0  0  0  0  0  0
    7.5456  -13.8714   16.9199 C   0  0  0  0  0  0  0  0  0  0  0  0
    8.1391  -14.5916   15.8191 N   0  0  0  0  0  0  0  0  0  0  0  0
   10.0654  -15.2770   21.5121 C   0  0  0  0  0  0  0  0  0  0  0  0
   11.0758  -15.1339   20.7714 O   0  0  0  0  0  0  0  0  0  0  0  0
   11.6961  -15.8604   24.8501 C   0  0  0  0  0  0  0  0  0  0  0  0
   11.6320  -15.9296   23.3460 C   0  0  2  0  0  0  0  0  0  0  0  0
   10.3081  -15.7069   22.8386 N   0  0  0  0  0  0  0  0  0  0  0  0
   12.1346  -17.2321   22.8965 C   0  0  0  0  0  0  0  0  0  0  0  0
   11.4046  -17.9697   22.1870 O   0  0  0  0  0  0  0  0  0  0  0  0
   13.4099  -17.6324   23.2611 O   0  0  0  0  0  0  0  0  0  0  0  0
  2  1  1  6
  2  3  1  0
  3  4  1  0
  4  5  2  0
  4 12  1  0
  5  6  1  0
  6  7  1  0
  7  8  2  0
  9  8  1  0
 10  9  2  0
 11 10  1  0
 12 11  2  0
 12  7  1  0
 13 15  1  0
 13  2  1  0
 14 13  2  0
 16 15  1  0
 16 17  1  1
 17 18  1  0
 19 18  1  0
 20 19  1  0
 20 21  1  0
 22 16  1  0
 23 22  2  0
 25 24  1  1
 25 27  1  0
 25 26  1  0
 26 22  1  0
 27 29  1  0
 28 27  2  0
M  END
$$$$
