WKA.pdb
     RDKit          3D

 29 30  0  0  1  0  0  0  0  0999 V2000
    5.9459  -17.5075   24.3783 N   0  0  0  0  0  0  0  0  0  0  0  0
    6.6106  -16.2611   24.0638 C   0  0  1  0  0  0  0  0  0  0  0  0
    7.7403  -16.0915   25.0709 C   0  0  0  0  0  0  0  0  0  0  0  0
    7.3172  -15.1558   26.1394 C   0  0  0  0  0  0  0  0  0  0  0  0
    6.7813  -15.5509   27.3481 C   0  0  0  0  0  0  0  0  0  0  0  0
    6.5246  -14.4282   28.0423 N   0  0  0  0  0  0  0  0  0  0  0  0
    6.8826  -13.3442   27.3072 C   0  0  0  0  0  0  0  0  0  0  0  0
    6.8248  -11.9944   27.5602 C   0  0  0  0  0  0  0  0  0  0  0  0
    7.2581  -11.0691   26.6363 C   0  0  0  0  0  0  0  0  0  0  0  0
    7.7675  -11.5075   25.4161 C   0  0  0  0  0  0  0  0  0  0  0  0
    7.8274  -12.8590   25.1582 C   0  0  0  0  0  0  0  0  0  0  0  0
    7.3879  -13.7742   26.0969 C   0  0  0  0  0  0  0  0  0  0  0  0
    7.1766  -16.3323   22.6940 C   0  0  0  0  0  0  0  0  0  0  0  0
    7.5133  -17.4931   22.2637 O   0  0  0  0  0  0  0  0  0  0  0  0
    7.3400  -15.1793   21.8948 N   0  0  0  0  0  0  0  0  0  0  0  0
    7.9394  -15.3410   20.5749 C   0  0  1  0  0  0  0  0  0  0  0  0
    7.9747  -14.0348   19.8227 C   0  0  0  0  0  0  0  0  0  0  0  0
    8.7268  -14.1285   18.5141 C   0  0  0  0  0  0  0  0  0  0  0  0
    7.6754  -13.9912   17.4124 C   0  0  0  0  0  0  0  0  0  0  0  0
    8.3259  -14.1656   16.0556 C   0  0  0  0  0  0  0  0  0  0  0  0
    7.3141  -14.0461   15.0335 N   0  0  0  0  0  0  0  0  0  0  0  0
    9.3493  -15.7725   20.7455 C   0  0  0  0  0  0  0  0  0  0  0  0
   10.1016  -15.1818   21.5672 O   0  0  0  0  0  0  0  0  0  0  0  0
   11.6368  -18.4789   19.4009 C   0  0  0  0  0  0  0  0  0  0  0  0
   11.2976  -17.2257   20.1664 C   0  0  2  0  0  0  0  0  0  0  0  0
    9.9225  -16.8428   20.0181 N   0  0  0  0  0  0  0  0  0  0  0  0
   12.1770  -16.1358   19.7306 C   0  0  0  0  0  0  0  0  0  0  0  0
   11.8656  -15.4493   18.7245 O   0  0  0  0  0  0  0  0  0  0  0  0
   13.3416  -15.8775   20.4353 O   0  0  0  0  0  0  0  0  0  0  0  0
  2  1  1  1
  2  3  1  0
  3  4  1  0
  4  5  2  0
  4 12  1  0
  5  6  1  0
  6  7  1  0
  7  8  2  0
  9  8  1  0
 10  9  2  0
 11 10  1  0
 12 11  2  0
 12  7  1  0
 13 15  1  0
 13  2  1  0
 14 13  2  0
 16 15  1  0
 16 17  1  1
 17 18  1  0
 19 18  1  0
 20 19  1  0
 20 21  1  0
 22 16  1  0
 23 22  2  0
 25 24  1  6
 25 27  1  0
 25 26  1  0
 26 22  1  0
 27 29  1  0
 28 27  2  0
M  END
$$$$
