WKA.pdb
     RDKit          3D

 29 30  0  0  1  0  0  0  0  0999 V2000
    6.2749  -18.4291   24.5465 N   0  0  0  0  0  0  0  0  0  0  0  0
    6.4862  -17.0026   24.4255 C   0  0  1  0  0  0  0  0  0  0  0  0
    7.2208  -16.5523   25.6812 C   0  0  0  0  0  0  0  0  0  0  0  0
    6.6244  -15.2908   26.1805 C   0  0  0  0  0  0  0  0  0  0  0  0
    5.3150  -15.1645   26.5976 C   0  0  0  0  0  0  0  0  0  0  0  0
    5.1510  -13.8837   26.9728 N   0  0  0  0  0  0  0  0  0  0  0  0
    6.3148  -13.2052   26.8040 C   0  0  0  0  0  0  0  0  0  0  0  0
    6.6649  -11.8962   27.0352 C   0  0  0  0  0  0  0  0  0  0  0  0
    7.9373  -11.4348   26.7791 C   0  0  0  0  0  0  0  0  0  0  0  0
    8.8944  -12.3119   26.2739 C   0  0  0  0  0  0  0  0  0  0  0  0
    8.5482  -13.6244   26.0406 C   0  0  0  0  0  0  0  0  0  0  0  0
    7.2662  -14.0708   26.3033 C   0  0  0  0  0  0  0  0  0  0  0  0
    7.3272  -16.7246   23.2349 C   0  0  0  0  0  0  0  0  0  0  0  0
    8.0931  -17.6710   22.8305 O   0  0  0  0  0  0  0  0  0  0  0  0
    7.2912  -15.4778   22.5724 N   0  0  0  0  0  0  0  0  0  0  0  0
    8.0942  -15.3213   21.3649 C   0  0  1  0  0  0  0  0  0  0  0  0
    8.0063  -13.9169   20.8236 C   0  0  0  0  0  0  0  0  0  0  0  0
    8.9722  -13.6613   19.6884 C   0  0  0  0  0  0  0  0  0  0  0  0
    8.1737  -13.8665   18.4007 C   0  0  0  0  0  0  0  0  0  0  0  0
    9.0967  -13.7763   17.2030 C   0  0  0  0  0  0  0  0  0  0  0  0
    8.3301  -14.0134   16.0035 N   0  0  0  0  0  0  0  0  0  0  0  0
    9.5185  -15.5561   21.7105 C   0  0  0  0  0  0  0  0  0  0  0  0
   10.0565  -14.9243   22.6600 O   0  0  0  0  0  0  0  0  0  0  0  0
   12.2023  -18.0646   20.9384 C   0  0  0  0  0  0  0  0  0  0  0  0
   11.7099  -16.7088   21.3749 C   0  0  2  0  0  0  0  0  0  0  0  0
   10.3396  -16.4770   21.0168 N   0  0  0  0  0  0  0  0  0  0  0  0
   12.5678  -15.6695   20.7960 C   0  0  0  0  0  0  0  0  0  0  0  0
   12.1282  -14.9460   19.8667 O   0  0  0  0  0  0  0  0  0  0  0  0
   13.8538  -15.4993   21.2825 O   0  0  0  0  0  0  0  0  0  0  0  0
  2  1  1  1
  2  3  1  0
  3  4  1  0
  4  5  2  0
  4 12  1  0
  5  6  1  0
  6  7  1  0
  7  8  2  0
  9  8  1  0
 10  9  2  0
 11 10  1  0
 12 11  2  0
 12  7  1  0
 13 15  1  0
 13  2  1  0
 14 13  2  0
 16 15  1  0
 16 17  1  1
 17 18  1  0
 19 18  1  0
 20 19  1  0
 20 21  1  0
 22 16  1  0
 23 22  2  0
 25 24  1  6
 25 27  1  0
 25 26  1  0
 26 22  1  0
 27 29  1  0
 28 27  2  0
M  END
$$$$
