WKA.pdb
     RDKit          3D

 29 30  0  0  1  0  0  0  0  0999 V2000
    6.5509  -17.5484   24.3733 N   0  0  0  0  0  0  0  0  0  0  0  0
    7.0957  -16.2835   23.9290 C   0  0  1  0  0  0  0  0  0  0  0  0
    7.8696  -15.6948   25.1011 C   0  0  0  0  0  0  0  0  0  0  0  0
    7.0303  -14.6908   25.7967 C   0  0  0  0  0  0  0  0  0  0  0  0
    5.9336  -15.0023   26.5742 C   0  0  0  0  0  0  0  0  0  0  0  0
    5.4387  -13.8374   27.0284 N   0  0  0  0  0  0  0  0  0  0  0  0
    6.1901  -12.8079   26.5603 C   0  0  0  0  0  0  0  0  0  0  0  0
    6.1038  -11.4467   26.7312 C   0  0  0  0  0  0  0  0  0  0  0  0
    7.0046  -10.5881   26.1404 C   0  0  0  0  0  0  0  0  0  0  0  0
    8.0280  -11.1073   25.3509 C   0  0  0  0  0  0  0  0  0  0  0  0
    8.1184  -12.4705   25.1767 C   0  0  0  0  0  0  0  0  0  0  0  0
    7.2057  -13.3181   25.7771 C   0  0  0  0  0  0  0  0  0  0  0  0
    8.0209  -16.5136   22.7919 C   0  0  0  0  0  0  0  0  0  0  0  0
    8.3198  -17.7318   22.5230 O   0  0  0  0  0  0  0  0  0  0  0  0
    8.5518  -15.4452   22.0359 N   0  0  0  0  0  0  0  0  0  0  0  0
    9.4222  -15.7691   20.9112 C   0  0  1  0  0  0  0  0  0  0  0  0
    9.5114  -14.6226   19.9362 C   0  0  0  0  0  0  0  0  0  0  0  0
    8.2589  -14.4568   19.1053 C   0  0  0  0  0  0  0  0  0  0  0  0
    8.7021  -13.7911   17.8021 C   0  0  0  0  0  0  0  0  0  0  0  0
    7.5022  -13.5656   16.9054 C   0  0  0  0  0  0  0  0  0  0  0  0
    7.9568  -13.0427   15.6394 N   0  0  0  0  0  0  0  0  0  0  0  0
   10.7953  -15.9978   21.4265 C   0  0  0  0  0  0  0  0  0  0  0  0
   11.7360  -16.2736   20.6333 O   0  0  0  0  0  0  0  0  0  0  0  0
   12.3684  -17.2806   24.4167 C   0  0  0  0  0  0  0  0  0  0  0  0
   12.4266  -16.2709   23.2994 C   0  0  2  0  0  0  0  0  0  0  0  0
   11.1266  -15.9233   22.8005 N   0  0  0  0  0  0  0  0  0  0  0  0
   13.2629  -16.7935   22.2138 C   0  0  0  0  0  0  0  0  0  0  0  0
   12.7607  -16.9819   21.0768 O   0  0  0  0  0  0  0  0  0  0  0  0
   14.5979  -17.0730   22.4570 O   0  0  0  0  0  0  0  0  0  0  0  0
  2  1  1  1
  2  3  1  0
  3  4  1  0
  4  5  2  0
  4 12  1  0
  5  6  1  0
  6  7  1  0
  7  8  2  0
  9  8  1  0
 10  9  2  0
 11 10  1  0
 12 11  2  0
 12  7  1  0
 13 15  1  0
 13  2  1  0
 14 13  2  0
 16 15  1  0
 16 17  1  6
 17 18  1  0
 19 18  1  0
 20 19  1  0
 20 21  1  0
 22 16  1  0
 23 22  2  0
 25 24  1  1
 25 27  1  0
 25 26  1  0
 26 22  1  0
 27 29  1  0
 28 27  2  0
M  END
$$$$
