SDD.pdb
     RDKit          3D

 23 22  0  0  1  0  0  0  0  0999 V2000
    5.1580  -21.1485   19.0229 O   0  0  0  0  0  0  0  0  0  0  0  0
    5.2355  -22.2860   19.8117 C   0  0  0  0  0  0  0  0  0  0  0  0
    6.0931  -21.9200   21.0165 C   0  0  2  0  0  0  0  0  0  0  0  0
    5.4722  -20.8291   21.6785 N   0  0  0  0  0  0  0  0  0  0  0  0
    7.5021  -21.6429   20.5753 C   0  0  0  0  0  0  0  0  0  0  0  0
    8.1851  -22.6200   20.2904 O   0  0  0  0  0  0  0  0  0  0  0  0
    8.0099  -20.3375   20.4926 N   0  0  0  0  0  0  0  0  0  0  0  0
    9.3003  -19.8610   20.1538 C   0  0  1  0  0  0  0  0  0  0  0  0
    9.4279  -18.7032   19.2233 C   0  0  0  0  0  0  0  0  0  0  0  0
   10.0822  -19.0023   17.9284 C   0  0  0  0  0  0  0  0  0  0  0  0
   10.7419  -20.0983   17.8032 O   0  0  0  0  0  0  0  0  0  0  0  0
   10.2690  -19.9107   21.2582 C   0  0  0  0  0  0  0  0  0  0  0  0
   11.2549  -19.0863   21.2512 O   0  0  0  0  0  0  0  0  0  0  0  0
   10.0101  -18.1450   16.8532 O   0  0  0  0  0  0  0  0  0  0  0  0
   10.2090  -20.8038   22.3483 N   0  0  0  0  0  0  0  0  0  0  0  0
   11.2347  -20.7543   23.4239 C   0  0  1  0  0  0  0  0  0  0  0  0
   10.5253  -20.1507   24.6069 C   0  0  0  0  0  0  0  0  0  0  0  0
   11.3480  -19.9957   25.8088 C   0  0  0  0  0  0  0  0  0  0  0  0
   12.5389  -20.3366   25.8435 O   0  0  0  0  0  0  0  0  0  0  0  0
   11.7278  -22.1246   23.6618 C   0  0  0  0  0  0  0  0  0  0  0  0
   10.9609  -23.2502   23.3302 O   0  0  0  0  0  0  0  0  0  0  0  0
   10.8030  -19.4514   26.9642 O   0  0  0  0  0  0  0  0  0  0  0  0
   12.8465  -22.3203   24.1667 O   0  0  0  0  0  0  0  0  0  0  0  0
  2  1  1  0
  3  4  1  6
  3  2  1  0
  5  3  1  0
  6  5  2  0
  7  5  1  0
  8 12  1  0
  8  7  1  0
  8  9  1  1
 10  9  1  0
 11 10  2  0
 12 15  1  0
 13 12  2  0
 14 10  1  0
 15 16  1  0
 16 17  1  1
 16 20  1  0
 17 18  1  0
 18 22  1  0
 19 18  2  0
 20 23  2  0
 20 21  1  0
M  END
$$$$
