SDD.pdb
     RDKit          3D

 23 22  0  0  1  0  0  0  0  0999 V2000
    9.2850  -14.5357   18.1226 O   0  0  0  0  0  0  0  0  0  0  0  0
    7.9147  -14.3303   18.1715 C   0  0  0  0  0  0  0  0  0  0  0  0
    7.6521  -13.4475   19.3850 C   0  0  2  0  0  0  0  0  0  0  0  0
    8.2217  -12.1733   19.1288 N   0  0  0  0  0  0  0  0  0  0  0  0
    8.1798  -14.1127   20.6243 C   0  0  0  0  0  0  0  0  0  0  0  0
    9.2677  -13.7209   21.0309 O   0  0  0  0  0  0  0  0  0  0  0  0
    7.4671  -15.1268   21.2821 N   0  0  0  0  0  0  0  0  0  0  0  0
    7.8184  -15.9474   22.3821 C   0  0  1  0  0  0  0  0  0  0  0  0
    6.7934  -16.8577   22.9680 C   0  0  0  0  0  0  0  0  0  0  0  0
    7.2595  -17.6862   24.1042 C   0  0  0  0  0  0  0  0  0  0  0  0
    6.4246  -17.9985   25.0301 O   0  0  0  0  0  0  0  0  0  0  0  0
    9.1907  -16.4712   22.3277 C   0  0  0  0  0  0  0  0  0  0  0  0
    9.4802  -17.3506   21.4364 O   0  0  0  0  0  0  0  0  0  0  0  0
    8.5585  -18.1323   24.2041 O   0  0  0  0  0  0  0  0  0  0  0  0
   10.2398  -16.0841   23.1876 N   0  0  0  0  0  0  0  0  0  0  0  0
   11.5752  -16.7309   23.0900 C   0  0  1  0  0  0  0  0  0  0  0  0
   12.4960  -15.6446   22.6009 C   0  0  0  0  0  0  0  0  0  0  0  0
   13.8892  -16.0540   22.4091 C   0  0  0  0  0  0  0  0  0  0  0  0
   14.2691  -17.2175   22.6028 O   0  0  0  0  0  0  0  0  0  0  0  0
   11.9348  -17.2617   24.4190 C   0  0  0  0  0  0  0  0  0  0  0  0
   13.0558  -18.0828   24.6045 O   0  0  0  0  0  0  0  0  0  0  0  0
   14.8396  -15.1294   21.9966 O   0  0  0  0  0  0  0  0  0  0  0  0
   11.2480  -16.9928   25.4194 O   0  0  0  0  0  0  0  0  0  0  0  0
  2  1  1  0
  3  4  1  6
  3  2  1  0
  5  3  1  0
  6  5  2  0
  7  5  1  0
  8 12  1  0
  8  7  1  0
  8  9  1  6
 10  9  1  0
 11 10  2  0
 12 15  1  0
 13 12  2  0
 14 10  1  0
 15 16  1  0
 16 17  1  1
 16 20  1  0
 17 18  1  0
 18 22  1  0
 19 18  2  0
 20 23  2  0
 20 21  1  0
M  END
$$$$
