SDD.pdb
     RDKit          3D

 23 22  0  0  1  0  0  0  0  0999 V2000
   12.0312  -20.9499   17.1061 O   0  0  0  0  0  0  0  0  0  0  0  0
   11.8932  -20.6035   18.4415 C   0  0  0  0  0  0  0  0  0  0  0  0
   10.7448  -19.6050   18.5134 C   0  0  2  0  0  0  0  0  0  0  0  0
   10.8811  -18.7044   17.4252 N   0  0  0  0  0  0  0  0  0  0  0  0
   10.7322  -18.9372   19.8590 C   0  0  0  0  0  0  0  0  0  0  0  0
   10.7256  -17.7115   19.8580 O   0  0  0  0  0  0  0  0  0  0  0  0
   10.7274  -19.6748   21.0527 N   0  0  0  0  0  0  0  0  0  0  0  0
   10.6914  -19.2553   22.4052 C   0  0  1  0  0  0  0  0  0  0  0  0
    9.4512  -19.4748   23.2029 C   0  0  0  0  0  0  0  0  0  0  0  0
    9.4842  -18.9378   24.5831 C   0  0  0  0  0  0  0  0  0  0  0  0
    9.5240  -19.7605   25.5699 O   0  0  0  0  0  0  0  0  0  0  0  0
   11.9608  -19.4337   23.1244 C   0  0  0  0  0  0  0  0  0  0  0  0
   12.4189  -20.6242   23.2807 O   0  0  0  0  0  0  0  0  0  0  0  0
    9.4716  -17.5862   24.8463 O   0  0  0  0  0  0  0  0  0  0  0  0
   12.7364  -18.3892   23.6695 N   0  0  0  0  0  0  0  0  0  0  0  0
   13.9221  -18.6895   24.5152 C   0  0  1  0  0  0  0  0  0  0  0  0
   14.8143  -17.4851   24.3716 C   0  0  0  0  0  0  0  0  0  0  0  0
   15.6117  -17.4485   23.1435 C   0  0  0  0  0  0  0  0  0  0  0  0
   16.7658  -16.9980   23.1176 O   0  0  0  0  0  0  0  0  0  0  0  0
   13.4616  -18.9273   25.8968 C   0  0  0  0  0  0  0  0  0  0  0  0
   14.2814  -19.5497   26.8485 O   0  0  0  0  0  0  0  0  0  0  0  0
   15.0836  -17.9279   21.9520 O   0  0  0  0  0  0  0  0  0  0  0  0
   12.3246  -18.5791   26.2581 O   0  0  0  0  0  0  0  0  0  0  0  0
  2  1  1  0
  3  4  1  6
  3  2  1  0
  5  3  1  0
  6  5  2  0
  7  5  1  0
  8 12  1  0
  8  7  1  0
  8  9  1  1
 10  9  1  0
 11 10  2  0
 12 15  1  0
 13 12  2  0
 14 10  1  0
 15 16  1  0
 16 17  1  1
 16 20  1  0
 17 18  1  0
 18 22  1  0
 19 18  2  0
 20 23  2  0
 20 21  1  0
M  END
$$$$
