SDD.pdb
     RDKit          3D

 23 22  0  0  1  0  0  0  0  0999 V2000
    6.4386  -18.0192   13.2788 O   0  0  0  0  0  0  0  0  0  0  0  0
    6.9183  -19.0380   14.0874 C   0  0  0  0  0  0  0  0  0  0  0  0
    7.4353  -18.3754   15.3581 C   0  0  2  0  0  0  0  0  0  0  0  0
    8.2648  -17.2889   14.9770 N   0  0  0  0  0  0  0  0  0  0  0  0
    8.1237  -19.3939   16.2215 C   0  0  0  0  0  0  0  0  0  0  0  0
    7.4922  -20.4154   16.4665 O   0  0  0  0  0  0  0  0  0  0  0  0
    9.4190  -19.1889   16.7205 N   0  0  0  0  0  0  0  0  0  0  0  0
   10.2391  -20.0016   17.5412 C   0  0  1  0  0  0  0  0  0  0  0  0
   11.7071  -20.0480   17.2852 C   0  0  0  0  0  0  0  0  0  0  0  0
   12.0972  -20.4565   15.9158 C   0  0  0  0  0  0  0  0  0  0  0  0
   12.9490  -21.4079   15.7694 O   0  0  0  0  0  0  0  0  0  0  0  0
    9.8290  -20.0391   18.9522 C   0  0  0  0  0  0  0  0  0  0  0  0
    9.7804  -18.9359   19.6098 O   0  0  0  0  0  0  0  0  0  0  0  0
   11.5800  -19.8505   14.7927 O   0  0  0  0  0  0  0  0  0  0  0  0
    9.4767  -21.2058   19.6624 N   0  0  0  0  0  0  0  0  0  0  0  0
    9.1004  -21.1321   21.0991 C   0  0  1  0  0  0  0  0  0  0  0  0
    8.2516  -22.3523   21.3394 C   0  0  0  0  0  0  0  0  0  0  0  0
    7.7760  -22.5142   22.7152 C   0  0  0  0  0  0  0  0  0  0  0  0
    8.0300  -21.6890   23.6041 O   0  0  0  0  0  0  0  0  0  0  0  0
   10.3365  -21.0995   21.9042 C   0  0  0  0  0  0  0  0  0  0  0  0
   11.5137  -21.7248   21.4701 O   0  0  0  0  0  0  0  0  0  0  0  0
    7.0122  -23.6197   23.0659 O   0  0  0  0  0  0  0  0  0  0  0  0
   10.3686  -20.5114   22.9986 O   0  0  0  0  0  0  0  0  0  0  0  0
  2  1  1  0
  3  4  1  6
  3  2  1  0
  5  3  1  0
  6  5  2  0
  7  5  1  0
  8 12  1  0
  8  7  1  0
  8  9  1  1
 10  9  1  0
 11 10  2  0
 12 15  1  0
 13 12  2  0
 14 10  1  0
 15 16  1  0
 16 17  1  1
 16 20  1  0
 17 18  1  0
 18 22  1  0
 19 18  2  0
 20 23  2  0
 20 21  1  0
M  END
$$$$
