SDD.pdb
     RDKit          3D

 23 22  0  0  1  0  0  0  0  0999 V2000
    8.9966  -16.3705   16.9038 O   0  0  0  0  0  0  0  0  0  0  0  0
    8.7131  -15.0696   16.5172 C   0  0  0  0  0  0  0  0  0  0  0  0
    8.1737  -14.3586   17.7519 C   0  0  2  0  0  0  0  0  0  0  0  0
    7.7166  -13.0761   17.3518 N   0  0  0  0  0  0  0  0  0  0  0  0
    9.2272  -14.3235   18.8222 C   0  0  0  0  0  0  0  0  0  0  0  0
   10.1550  -13.5419   18.6468 O   0  0  0  0  0  0  0  0  0  0  0  0
    9.1543  -15.1395   19.9613 N   0  0  0  0  0  0  0  0  0  0  0  0
   10.0706  -15.3387   21.0231 C   0  0  1  0  0  0  0  0  0  0  0  0
    9.5991  -15.9877   22.2797 C   0  0  0  0  0  0  0  0  0  0  0  0
   10.6092  -16.0836   23.3590 C   0  0  0  0  0  0  0  0  0  0  0  0
   11.4213  -17.0799   23.3643 O   0  0  0  0  0  0  0  0  0  0  0  0
   11.4298  -15.6892   20.5869 C   0  0  0  0  0  0  0  0  0  0  0  0
   11.6298  -16.8443   20.0601 O   0  0  0  0  0  0  0  0  0  0  0  0
   10.7075  -15.1424   24.3594 O   0  0  0  0  0  0  0  0  0  0  0  0
   12.5579  -14.8498   20.6989 N   0  0  0  0  0  0  0  0  0  0  0  0
   13.9073  -15.3407   20.3121 C   0  0  1  0  0  0  0  0  0  0  0  0
   14.5640  -14.1693   19.6311 C   0  0  0  0  0  0  0  0  0  0  0  0
   14.4457  -14.1562   18.1713 C   0  0  0  0  0  0  0  0  0  0  0  0
   14.0516  -15.1412   17.5309 O   0  0  0  0  0  0  0  0  0  0  0  0
   14.6076  -15.7893   21.5310 C   0  0  0  0  0  0  0  0  0  0  0  0
   15.8829  -16.3686   21.4754 O   0  0  0  0  0  0  0  0  0  0  0  0
   14.7790  -13.0157   17.4526 O   0  0  0  0  0  0  0  0  0  0  0  0
   14.0817  -15.6646   22.6502 O   0  0  0  0  0  0  0  0  0  0  0  0
  2  1  1  0
  3  4  1  6
  3  2  1  0
  5  3  1  0
  6  5  2  0
  7  5  1  0
  8 12  1  0
  8  7  1  0
  8  9  1  1
 10  9  1  0
 11 10  2  0
 12 15  1  0
 13 12  2  0
 14 10  1  0
 15 16  1  0
 16 17  1  1
 16 20  1  0
 17 18  1  0
 18 22  1  0
 19 18  2  0
 20 23  2  0
 20 21  1  0
M  END
$$$$
