SDD.pdb
     RDKit          3D

 23 22  0  0  1  0  0  0  0  0999 V2000
    8.1508  -13.7960   15.5016 O   0  0  0  0  0  0  0  0  0  0  0  0
    8.4881  -14.6854   16.5101 C   0  0  0  0  0  0  0  0  0  0  0  0
    7.6583  -14.2955   17.7269 C   0  0  2  0  0  0  0  0  0  0  0  0
    7.5168  -12.8835   17.7239 N   0  0  0  0  0  0  0  0  0  0  0  0
    8.2928  -14.8417   18.9741 C   0  0  0  0  0  0  0  0  0  0  0  0
    8.9538  -14.0521   19.6389 O   0  0  0  0  0  0  0  0  0  0  0  0
    8.1375  -16.1821   19.3591 N   0  0  0  0  0  0  0  0  0  0  0  0
    8.6327  -16.8910   20.4811 C   0  0  1  0  0  0  0  0  0  0  0  0
    7.9168  -18.1143   20.9433 C   0  0  0  0  0  0  0  0  0  0  0  0
    8.5601  -18.8371   22.0650 C   0  0  0  0  0  0  0  0  0  0  0  0
    8.6092  -18.2756   23.2202 O   0  0  0  0  0  0  0  0  0  0  0  0
   10.0994  -16.9302   20.5686 C   0  0  0  0  0  0  0  0  0  0  0  0
   10.7455  -17.6885   19.7567 O   0  0  0  0  0  0  0  0  0  0  0  0
    9.1100  -20.0904   21.9127 O   0  0  0  0  0  0  0  0  0  0  0  0
   10.8759  -16.1920   21.4861 N   0  0  0  0  0  0  0  0  0  0  0  0
   12.3433  -16.4122   21.5841 C   0  0  1  0  0  0  0  0  0  0  0  0
   12.9604  -15.1491   21.0447 C   0  0  0  0  0  0  0  0  0  0  0  0
   14.1438  -15.3483   20.2049 C   0  0  0  0  0  0  0  0  0  0  0  0
   14.3362  -16.3956   19.5711 O   0  0  0  0  0  0  0  0  0  0  0  0
   12.6811  -16.6839   22.9946 C   0  0  0  0  0  0  0  0  0  0  0  0
   13.8913  -17.2913   23.3571 O   0  0  0  0  0  0  0  0  0  0  0  0
   15.1002  -14.3475   20.0951 O   0  0  0  0  0  0  0  0  0  0  0  0
   11.8953  -16.3789   23.9079 O   0  0  0  0  0  0  0  0  0  0  0  0
  2  1  1  0
  3  4  1  1
  3  2  1  0
  5  3  1  0
  6  5  2  0
  7  5  1  0
  8 12  1  0
  8  7  1  0
  8  9  1  6
 10  9  1  0
 11 10  2  0
 12 15  1  0
 13 12  2  0
 14 10  1  0
 15 16  1  0
 16 17  1  1
 16 20  1  0
 17 18  1  0
 18 22  1  0
 19 18  2  0
 20 23  2  0
 20 21  1  0
M  END
$$$$
