SDD.pdb
     RDKit          3D

 23 22  0  0  1  0  0  0  0  0999 V2000
    8.4631  -11.5901   18.5540 O   0  0  0  0  0  0  0  0  0  0  0  0
    8.9602  -12.6151   19.3441 C   0  0  0  0  0  0  0  0  0  0  0  0
    8.1701  -13.8655   18.9789 C   0  0  2  0  0  0  0  0  0  0  0  0
    6.8276  -13.6701   19.3948 N   0  0  0  0  0  0  0  0  0  0  0  0
    8.8242  -15.0768   19.5804 C   0  0  0  0  0  0  0  0  0  0  0  0
    8.2484  -15.5890   20.5336 O   0  0  0  0  0  0  0  0  0  0  0  0
   10.0279  -15.5952   19.0792 N   0  0  0  0  0  0  0  0  0  0  0  0
   10.8120  -16.6979   19.4987 C   0  0  1  0  0  0  0  0  0  0  0  0
   11.5462  -17.4994   18.4783 C   0  0  0  0  0  0  0  0  0  0  0  0
   12.2377  -18.7022   18.9974 C   0  0  0  0  0  0  0  0  0  0  0  0
   11.5505  -19.5988   19.6106 O   0  0  0  0  0  0  0  0  0  0  0  0
   11.5061  -16.4906   20.7777 C   0  0  0  0  0  0  0  0  0  0  0  0
   12.3067  -15.4915   20.8899 O   0  0  0  0  0  0  0  0  0  0  0  0
   13.5932  -18.8927   18.8475 O   0  0  0  0  0  0  0  0  0  0  0  0
   11.3668  -17.3107   21.9168 N   0  0  0  0  0  0  0  0  0  0  0  0
   12.0117  -16.9347   23.2029 C   0  0  1  0  0  0  0  0  0  0  0  0
   11.1618  -17.5808   24.2647 C   0  0  0  0  0  0  0  0  0  0  0  0
   11.5659  -17.2905   25.6424 C   0  0  0  0  0  0  0  0  0  0  0  0
   12.5871  -16.6410   25.9090 O   0  0  0  0  0  0  0  0  0  0  0  0
   13.4066  -17.4153   23.1835 C   0  0  0  0  0  0  0  0  0  0  0  0
   14.4656  -16.6182   23.6400 O   0  0  0  0  0  0  0  0  0  0  0  0
   10.7989  -17.7451   26.7070 O   0  0  0  0  0  0  0  0  0  0  0  0
   13.6835  -18.5500   22.7586 O   0  0  0  0  0  0  0  0  0  0  0  0
  2  1  1  0
  3  4  1  1
  3  2  1  0
  5  3  1  0
  6  5  2  0
  7  5  1  0
  8 12  1  0
  8  7  1  0
  8  9  1  6
 10  9  1  0
 11 10  2  0
 12 15  1  0
 13 12  2  0
 14 10  1  0
 15 16  1  0
 16 17  1  1
 16 20  1  0
 17 18  1  0
 18 22  1  0
 19 18  2  0
 20 23  2  0
 20 21  1  0
M  END
$$$$
