SDD.pdb
     RDKit          3D

 23 22  0  0  1  0  0  0  0  0999 V2000
   11.1222  -20.1704   16.6580 O   0  0  0  0  0  0  0  0  0  0  0  0
    9.7703  -20.3899   16.4429 C   0  0  0  0  0  0  0  0  0  0  0  0
    9.0754  -19.0503   16.6524 C   0  0  2  0  0  0  0  0  0  0  0  0
    9.3591  -18.2314   15.5287 N   0  0  0  0  0  0  0  0  0  0  0  0
    9.5007  -18.4539   17.9639 C   0  0  0  0  0  0  0  0  0  0  0  0
   10.2911  -17.5189   17.9055 O   0  0  0  0  0  0  0  0  0  0  0  0
    9.0198  -18.9390   19.1896 N   0  0  0  0  0  0  0  0  0  0  0  0
    9.2347  -18.4908   20.5162 C   0  0  1  0  0  0  0  0  0  0  0  0
    8.1717  -18.7071   21.5389 C   0  0  0  0  0  0  0  0  0  0  0  0
    8.4928  -18.2134   22.8982 C   0  0  0  0  0  0  0  0  0  0  0  0
    8.5462  -16.9456   23.1030 O   0  0  0  0  0  0  0  0  0  0  0  0
   10.6200  -18.6392   20.9843 C   0  0  0  0  0  0  0  0  0  0  0  0
   11.1142  -19.8215   21.0833 O   0  0  0  0  0  0  0  0  0  0  0  0
    8.7383  -19.0663   23.9510 O   0  0  0  0  0  0  0  0  0  0  0  0
   11.4724  -17.5738   21.3422 N   0  0  0  0  0  0  0  0  0  0  0  0
   12.8081  -17.8413   21.9384 C   0  0  1  0  0  0  0  0  0  0  0  0
   13.6984  -16.7554   21.3949 C   0  0  0  0  0  0  0  0  0  0  0  0
   15.1240  -16.9189   21.6890 C   0  0  0  0  0  0  0  0  0  0  0  0
   15.6236  -16.5547   22.7630 O   0  0  0  0  0  0  0  0  0  0  0  0
   12.6756  -17.8220   23.4079 C   0  0  0  0  0  0  0  0  0  0  0  0
   13.6091  -18.4567   24.2390 O   0  0  0  0  0  0  0  0  0  0  0  0
   15.9696  -17.4983   20.7522 O   0  0  0  0  0  0  0  0  0  0  0  0
   11.7247  -17.2370   23.9540 O   0  0  0  0  0  0  0  0  0  0  0  0
  2  1  1  0
  3  4  1  6
  3  2  1  0
  5  3  1  0
  6  5  2  0
  7  5  1  0
  8 12  1  0
  8  7  1  0
  8  9  1  1
 10  9  1  0
 11 10  2  0
 12 15  1  0
 13 12  2  0
 14 10  1  0
 15 16  1  0
 16 17  1  1
 16 20  1  0
 17 18  1  0
 18 22  1  0
 19 18  2  0
 20 23  2  0
 20 21  1  0
M  END
$$$$
