SDD.pdb
     RDKit          3D

 23 22  0  0  1  0  0  0  0  0999 V2000
   14.8394  -19.6793   17.7981 O   0  0  0  0  0  0  0  0  0  0  0  0
   13.5202  -20.0948   17.8930 C   0  0  0  0  0  0  0  0  0  0  0  0
   12.6645  -18.8355   17.8390 C   0  0  2  0  0  0  0  0  0  0  0  0
   12.8671  -18.2244   16.5744 N   0  0  0  0  0  0  0  0  0  0  0  0
   12.9906  -17.9461   19.0049 C   0  0  0  0  0  0  0  0  0  0  0  0
   13.6781  -16.9608   18.7619 O   0  0  0  0  0  0  0  0  0  0  0  0
   12.5333  -18.2259   20.3016 N   0  0  0  0  0  0  0  0  0  0  0  0
   12.6662  -17.5012   21.5115 C   0  0  1  0  0  0  0  0  0  0  0  0
   11.4524  -17.2254   22.3321 C   0  0  0  0  0  0  0  0  0  0  0  0
   11.6873  -16.4326   23.5612 C   0  0  0  0  0  0  0  0  0  0  0  0
   12.4058  -15.3694   23.4878 O   0  0  0  0  0  0  0  0  0  0  0  0
   13.8962  -17.7988   22.2590 C   0  0  0  0  0  0  0  0  0  0  0  0
   14.1145  -19.0096   22.6303 O   0  0  0  0  0  0  0  0  0  0  0  0
   11.1639  -16.7966   24.7818 O   0  0  0  0  0  0  0  0  0  0  0  0
   14.8789  -16.8503   22.6119 N   0  0  0  0  0  0  0  0  0  0  0  0
   16.0562  -17.2489   23.4282 C   0  0  1  0  0  0  0  0  0  0  0  0
   17.0844  -16.1793   23.1715 C   0  0  0  0  0  0  0  0  0  0  0  0
   17.5708  -16.1070   21.7918 C   0  0  0  0  0  0  0  0  0  0  0  0
   17.6881  -17.1134   21.0784 O   0  0  0  0  0  0  0  0  0  0  0  0
   15.6352  -17.3427   24.8394 C   0  0  0  0  0  0  0  0  0  0  0  0
   16.5160  -17.7697   25.8428 O   0  0  0  0  0  0  0  0  0  0  0  0
   17.9202  -14.8831   21.2365 O   0  0  0  0  0  0  0  0  0  0  0  0
   14.4782  -17.0429   25.1802 O   0  0  0  0  0  0  0  0  0  0  0  0
  2  1  1  0
  3  4  1  6
  3  2  1  0
  5  3  1  0
  6  5  2  0
  7  5  1  0
  8 12  1  0
  8  7  1  0
  8  9  1  1
 10  9  1  0
 11 10  2  0
 12 15  1  0
 13 12  2  0
 14 10  1  0
 15 16  1  0
 16 17  1  1
 16 20  1  0
 17 18  1  0
 18 22  1  0
 19 18  2  0
 20 23  2  0
 20 21  1  0
M  END
$$$$
