SDD.pdb
     RDKit          3D

 23 22  0  0  1  0  0  0  0  0999 V2000
    7.3241  -15.1370   23.3375 O   0  0  0  0  0  0  0  0  0  0  0  0
    7.5830  -14.2085   22.3410 C   0  0  0  0  0  0  0  0  0  0  0  0
    7.8503  -15.0022   21.0684 C   0  0  2  0  0  0  0  0  0  0  0  0
    6.6450  -15.6542   20.6997 N   0  0  0  0  0  0  0  0  0  0  0  0
    9.0074  -15.9361   21.2823 C   0  0  0  0  0  0  0  0  0  0  0  0
    8.7261  -17.1041   21.5251 O   0  0  0  0  0  0  0  0  0  0  0  0
   10.3380  -15.4970   21.2079 N   0  0  0  0  0  0  0  0  0  0  0  0
   11.5586  -16.1920   21.3924 C   0  0  1  0  0  0  0  0  0  0  0  0
   12.8048  -15.6501   20.7792 C   0  0  0  0  0  0  0  0  0  0  0  0
   13.9362  -16.6031   20.7001 C   0  0  0  0  0  0  0  0  0  0  0  0
   13.7496  -17.7452   20.1407 O   0  0  0  0  0  0  0  0  0  0  0  0
   11.7068  -16.8055   22.7199 C   0  0  0  0  0  0  0  0  0  0  0  0
   12.7552  -17.5089   22.9604 O   0  0  0  0  0  0  0  0  0  0  0  0
   15.1820  -16.3086   21.2075 O   0  0  0  0  0  0  0  0  0  0  0  0
   10.7784  -16.6866   23.7751 N   0  0  0  0  0  0  0  0  0  0  0  0
   11.0195  -17.3676   25.0749 C   0  0  1  0  0  0  0  0  0  0  0  0
   10.0407  -16.7363   26.0293 C   0  0  0  0  0  0  0  0  0  0  0  0
   10.2715  -15.3160   26.3027 C   0  0  0  0  0  0  0  0  0  0  0  0
   11.2583  -14.7096   25.8623 O   0  0  0  0  0  0  0  0  0  0  0  0
   10.8165  -18.8170   24.8870 C   0  0  0  0  0  0  0  0  0  0  0  0
   11.1618  -19.7430   25.8811 O   0  0  0  0  0  0  0  0  0  0  0  0
    9.3713  -14.5978   27.0787 O   0  0  0  0  0  0  0  0  0  0  0  0
   10.3291  -19.2606   23.8332 O   0  0  0  0  0  0  0  0  0  0  0  0
  2  1  1  0
  3  4  1  1
  3  2  1  0
  5  3  1  0
  6  5  2  0
  7  5  1  0
  8 12  1  0
  8  7  1  0
  8  9  1  1
 10  9  1  0
 11 10  2  0
 12 15  1  0
 13 12  2  0
 14 10  1  0
 15 16  1  0
 16 17  1  1
 16 20  1  0
 17 18  1  0
 18 22  1  0
 19 18  2  0
 20 23  2  0
 20 21  1  0
M  END
$$$$
