CRA.pdb
     RDKit          3D

 23 22  0  0  1  0  0  0  0  0999 V2000
    7.1466  -14.9804   19.2489 N   0  0  0  0  0  0  0  0  0  0  0  0
    7.8741  -14.3828   20.3474 C   0  0  1  0  0  0  0  0  0  0  0  0
    7.6729  -12.8804   20.2806 C   0  0  0  0  0  0  0  0  0  0  0  0
    8.7743  -12.1429   19.0241 S   0  0  0  0  0  0  0  0  0  0  0  0
    7.4635  -14.9233   21.6670 C   0  0  0  0  0  0  0  0  0  0  0  0
    6.2376  -14.9931   21.9314 O   0  0  0  0  0  0  0  0  0  0  0  0
    5.4148  -21.5031   24.7128 N   0  0  0  0  0  0  0  0  0  0  0  0
    6.8292  -21.4868   24.7839 C   0  0  0  0  0  0  0  0  0  0  0  0
    7.5481  -22.5650   24.7092 N   0  0  0  0  0  0  0  0  0  0  0  0
    7.5862  -20.2702   24.9452 N   0  0  0  0  0  0  0  0  0  0  0  0
    6.9268  -19.0394   25.2473 C   0  0  0  0  0  0  0  0  0  0  0  0
    7.8927  -17.8727   25.4188 C   0  0  0  0  0  0  0  0  0  0  0  0
    8.1046  -17.2943   24.0478 C   0  0  0  0  0  0  0  0  0  0  0  0
    7.9820  -15.8120   23.9437 C   0  0  2  0  0  0  0  0  0  0  0  0
    8.4102  -15.3540   22.6167 N   0  0  0  0  0  0  0  0  0  0  0  0
    8.8224  -15.1533   24.9687 C   0  0  0  0  0  0  0  0  0  0  0  0
   10.0628  -15.2888   25.0061 O   0  0  0  0  0  0  0  0  0  0  0  0
    8.5824  -22.4368   24.7483 C   0  0  0  0  0  0  0  0  0  0  0  0
    8.3717  -12.4133   27.5078 C   0  0  1  0  0  0  0  0  0  0  0  0
    8.9462  -13.6919   26.9968 N   0  0  0  0  0  0  0  0  0  0  0  0
    8.2022  -14.3265   25.9624 C   0  0  0  0  0  0  0  0  0  0  0  0
    9.3599  -14.5917   28.1097 O   0  0  0  0  0  0  0  0  0  0  0  0
   10.2347  -14.1374   29.0724 O   0  0  0  0  0  0  0  0  0  0  0  0
  2  1  1  6
  2  3  1  0
  4  3  1  0
  5  2  1  0
  5  6  2  0
  7  8  1  0
  8  9  2  0
  8 10  1  0
 10 11  1  0
 11 12  1  0
 12 13  1  0
 14 13  1  6
 14 15  1  0
 15  5  1  0
 16 14  1  0
 16 20  1  0
 17 16  2  0
 19 18  1  6
 19 21  1  0
 20 19  1  0
 21 23  2  0
 21 22  1  0
M  END
$$$$
