CRA.pdb
     RDKit          3D

 23 22  0  0  1  0  0  0  0  0999 V2000
    7.6298  -15.0868   18.9322 N   0  0  0  0  0  0  0  0  0  0  0  0
    8.1366  -14.3061   20.0398 C   0  0  1  0  0  0  0  0  0  0  0  0
    7.5954  -12.8949   19.9050 C   0  0  0  0  0  0  0  0  0  0  0  0
    8.3737  -12.0442   18.4886 S   0  0  0  0  0  0  0  0  0  0  0  0
    7.7907  -14.8921   21.3585 C   0  0  0  0  0  0  0  0  0  0  0  0
    6.6256  -15.3268   21.5346 O   0  0  0  0  0  0  0  0  0  0  0  0
   11.0663  -18.2299   20.5793 N   0  0  0  0  0  0  0  0  0  0  0  0
   10.7739  -19.5345   21.0462 C   0  0  0  0  0  0  0  0  0  0  0  0
   10.6411  -20.5514   20.2504 N   0  0  0  0  0  0  0  0  0  0  0  0
   10.5997  -19.8397   22.4447 N   0  0  0  0  0  0  0  0  0  0  0  0
   10.3802  -18.7949   23.3940 C   0  0  0  0  0  0  0  0  0  0  0  0
    9.5507  -17.6455   22.8335 C   0  0  0  0  0  0  0  0  0  0  0  0
    9.2569  -16.7326   23.9909 C   0  0  0  0  0  0  0  0  0  0  0  0
    8.3706  -15.5715   23.6918 C   0  0  2  0  0  0  0  0  0  0  0  0
    8.7322  -14.9690   22.4032 N   0  0  0  0  0  0  0  0  0  0  0  0
    8.4950  -14.5437   24.7495 C   0  0  0  0  0  0  0  0  0  0  0  0
    9.5727  -13.9642   24.9970 O   0  0  0  0  0  0  0  0  0  0  0  0
   10.4661  -21.4748   20.7025 C   0  0  0  0  0  0  0  0  0  0  0  0
    6.1284  -12.5282   26.8825 C   0  0  1  0  0  0  0  0  0  0  0  0
    7.4033  -13.2460   26.5902 N   0  0  0  0  0  0  0  0  0  0  0  0
    7.3434  -14.1909   25.5274 C   0  0  0  0  0  0  0  0  0  0  0  0
    8.0489  -13.7480   27.8355 O   0  0  0  0  0  0  0  0  0  0  0  0
    8.3690  -12.8685   28.8467 O   0  0  0  0  0  0  0  0  0  0  0  0
  2  1  1  6
  2  3  1  0
  4  3  1  0
  5  2  1  0
  5  6  2  0
  7  8  1  0
  8  9  2  0
  8 10  1  0
 10 11  1  0
 11 12  1  0
 12 13  1  0
 14 13  1  1
 14 15  1  0
 15  5  1  0
 16 14  1  0
 16 20  1  0
 17 16  2  0
 19 18  1  6
 19 21  1  0
 20 19  1  0
 21 23  2  0
 21 22  1  0
M  END
$$$$
