CRA.pdb
     RDKit          3D

 23 22  0  0  1  0  0  0  0  0999 V2000
    5.0093  -13.6610   26.6517 N   0  0  0  0  0  0  0  0  0  0  0  0
    6.2801  -13.2240   26.1160 C   0  0  1  0  0  0  0  0  0  0  0  0
    7.3221  -13.3609   27.2105 C   0  0  0  0  0  0  0  0  0  0  0  0
    8.4049  -11.8907   27.2501 S   0  0  0  0  0  0  0  0  0  0  0  0
    6.6761  -13.9738   24.8983 C   0  0  0  0  0  0  0  0  0  0  0  0
    6.5661  -15.2250   24.9021 O   0  0  0  0  0  0  0  0  0  0  0  0
    8.5764  -13.1175   17.1764 N   0  0  0  0  0  0  0  0  0  0  0  0
    8.4039  -14.5215   17.2442 C   0  0  0  0  0  0  0  0  0  0  0  0
    8.9847  -15.3405   16.4215 N   0  0  0  0  0  0  0  0  0  0  0  0
    7.5683  -15.1560   18.2335 N   0  0  0  0  0  0  0  0  0  0  0  0
    7.1675  -14.4476   19.4076 C   0  0  0  0  0  0  0  0  0  0  0  0
    8.3420  -13.8461   20.1704 C   0  0  0  0  0  0  0  0  0  0  0  0
    7.7631  -13.2032   21.3996 C   0  0  0  0  0  0  0  0  0  0  0  0
    7.6334  -14.0870   22.5933 C   0  0  2  0  0  0  0  0  0  0  0  0
    7.1667  -13.3175   23.7527 N   0  0  0  0  0  0  0  0  0  0  0  0
    8.9394  -14.7003   22.9234 C   0  0  0  0  0  0  0  0  0  0  0  0
    9.6986  -14.2306   23.7960 O   0  0  0  0  0  0  0  0  0  0  0  0
    8.8537  -16.3580   16.6097 C   0  0  0  0  0  0  0  0  0  0  0  0
   10.5897  -17.0621   24.0015 C   0  0  1  0  0  0  0  0  0  0  0  0
   10.5338  -16.5994   22.5842 N   0  0  0  0  0  0  0  0  0  0  0  0
    9.3617  -15.8775   22.2223 C   0  0  0  0  0  0  0  0  0  0  0  0
   10.9158  -17.6840   21.6370 O   0  0  0  0  0  0  0  0  0  0  0  0
   12.1449  -18.2960   21.7518 O   0  0  0  0  0  0  0  0  0  0  0  0
  2  1  1  1
  2  3  1  0
  4  3  1  0
  5  2  1  0
  5  6  2  0
  7  8  1  0
  8  9  2  0
  8 10  1  0
 10 11  1  0
 11 12  1  0
 12 13  1  0
 14 13  1  6
 14 15  1  0
 15  5  1  0
 16 14  1  0
 16 20  1  0
 17 16  2  0
 19 18  1  1
 19 21  1  0
 20 19  1  0
 21 23  2  0
 21 22  1  0
M  END
$$$$
