CRA.pdb
     RDKit          3D

 23 22  0  0  1  0  0  0  0  0999 V2000
    6.9210  -19.1311   26.5641 N   0  0  0  0  0  0  0  0  0  0  0  0
    7.5363  -17.8438   26.3248 C   0  0  1  0  0  0  0  0  0  0  0  0
    8.7412  -17.7229   27.2391 C   0  0  0  0  0  0  0  0  0  0  0  0
    8.2096  -17.5411   28.9769 S   0  0  0  0  0  0  0  0  0  0  0  0
    7.9160  -17.6463   24.9040 C   0  0  0  0  0  0  0  0  0  0  0  0
    8.3241  -18.6372   24.2490 O   0  0  0  0  0  0  0  0  0  0  0  0
    7.7010  -15.3822   18.3944 N   0  0  0  0  0  0  0  0  0  0  0  0
    7.8660  -13.9944   18.1656 C   0  0  0  0  0  0  0  0  0  0  0  0
    8.3154  -13.5164   17.0456 N   0  0  0  0  0  0  0  0  0  0  0  0
    7.5478  -12.9987   19.1589 N   0  0  0  0  0  0  0  0  0  0  0  0
    7.3411  -13.3731   20.5220 C   0  0  0  0  0  0  0  0  0  0  0  0
    8.1205  -14.6205   20.9218 C   0  0  0  0  0  0  0  0  0  0  0  0
    7.6773  -14.9672   22.3156 C   0  0  0  0  0  0  0  0  0  0  0  0
    8.2789  -16.2004   22.8990 C   0  0  2  0  0  0  0  0  0  0  0  0
    7.8288  -16.3847   24.2838 N   0  0  0  0  0  0  0  0  0  0  0  0
    9.7560  -16.1072   22.8870 C   0  0  0  0  0  0  0  0  0  0  0  0
   10.4024  -15.5924   23.8227 O   0  0  0  0  0  0  0  0  0  0  0  0
    8.4455  -12.4825   17.0012 C   0  0  0  0  0  0  0  0  0  0  0  0
   12.3166  -17.7549   22.9647 C   0  0  2  0  0  0  0  0  0  0  0  0
   11.8803  -16.8968   21.8248 N   0  0  0  0  0  0  0  0  0  0  0  0
   10.4848  -16.6225   21.7649 C   0  0  0  0  0  0  0  0  0  0  0  0
   12.4839  -17.3440   20.5383 O   0  0  0  0  0  0  0  0  0  0  0  0
   13.8540  -17.4011   20.4048 O   0  0  0  0  0  0  0  0  0  0  0  0
  2  1  1  6
  2  3  1  0
  4  3  1  0
  5  2  1  0
  5  6  2  0
  7  8  1  0
  8  9  2  0
  8 10  1  0
 10 11  1  0
 11 12  1  0
 12 13  1  0
 14 13  1  1
 14 15  1  0
 15  5  1  0
 16 14  1  0
 16 20  1  0
 17 16  2  0
 19 18  1  1
 19 21  1  0
 20 19  1  0
 21 23  2  0
 21 22  1  0
M  END
$$$$
