CRA.pdb
     RDKit          3D

 23 22  0  0  1  0  0  0  0  0999 V2000
    7.6186  -14.9719   18.6936 N   0  0  0  0  0  0  0  0  0  0  0  0
    8.0024  -14.1985   19.8545 C   0  0  1  0  0  0  0  0  0  0  0  0
    7.4732  -12.7880   19.6738 C   0  0  0  0  0  0  0  0  0  0  0  0
    8.8220  -11.6561   19.1890 S   0  0  0  0  0  0  0  0  0  0  0  0
    7.5213  -14.7960   21.1247 C   0  0  0  0  0  0  0  0  0  0  0  0
    6.3186  -15.1492   21.2036 O   0  0  0  0  0  0  0  0  0  0  0  0
   11.3577  -19.5555   22.5233 N   0  0  0  0  0  0  0  0  0  0  0  0
   10.1945  -19.8122   21.7573 C   0  0  0  0  0  0  0  0  0  0  0  0
   10.2067  -19.8694   20.4606 N   0  0  0  0  0  0  0  0  0  0  0  0
    8.9012  -20.0312   22.3561 N   0  0  0  0  0  0  0  0  0  0  0  0
    8.4666  -19.2326   23.4581 C   0  0  0  0  0  0  0  0  0  0  0  0
    7.7507  -17.9587   23.0247 C   0  0  0  0  0  0  0  0  0  0  0  0
    8.3879  -16.8339   23.7917 C   0  0  0  0  0  0  0  0  0  0  0  0
    7.8539  -15.4712   23.5070 C   0  0  2  0  0  0  0  0  0  0  0  0
    8.3768  -14.9722   22.2297 N   0  0  0  0  0  0  0  0  0  0  0  0
    8.2449  -14.5310   24.5813 C   0  0  0  0  0  0  0  0  0  0  0  0
    9.4376  -14.2730   24.8444 O   0  0  0  0  0  0  0  0  0  0  0  0
    9.2971  -20.0827   19.9969 C   0  0  0  0  0  0  0  0  0  0  0  0
    6.4274  -12.0630   26.8118 C   0  0  2  0  0  0  0  0  0  0  0  0
    7.5323  -12.9836   26.4147 N   0  0  0  0  0  0  0  0  0  0  0  0
    7.2264  -13.8859   25.3573 C   0  0  0  0  0  0  0  0  0  0  0  0
    8.1787  -13.6099   27.6019 O   0  0  0  0  0  0  0  0  0  0  0  0
    8.7816  -12.8177   28.5544 O   0  0  0  0  0  0  0  0  0  0  0  0
  2  1  1  6
  2  3  1  0
  4  3  1  0
  5  2  1  0
  5  6  2  0
  7  8  1  0
  8  9  2  0
  8 10  1  0
 10 11  1  0
 11 12  1  0
 12 13  1  0
 14 13  1  1
 14 15  1  0
 15  5  1  0
 16 14  1  0
 16 20  1  0
 17 16  2  0
 19 18  1  6
 19 21  1  0
 20 19  1  0
 21 23  2  0
 21 22  1  0
M  END
$$$$
