CRA.pdb
     RDKit          3D

 23 22  0  0  1  0  0  0  0  0999 V2000
    7.8962  -25.8439   24.7549 N   0  0  0  0  0  0  0  0  0  0  0  0
    8.7864  -25.8571   25.8953 C   0  0  1  0  0  0  0  0  0  0  0  0
   10.2095  -25.9543   25.3779 C   0  0  0  0  0  0  0  0  0  0  0  0
   10.7675  -24.3389   24.7340 S   0  0  0  0  0  0  0  0  0  0  0  0
    8.6114  -24.6724   26.7715 C   0  0  0  0  0  0  0  0  0  0  0  0
    7.8550  -23.7471   26.3851 O   0  0  0  0  0  0  0  0  0  0  0  0
    7.1051  -26.5462   34.4561 N   0  0  0  0  0  0  0  0  0  0  0  0
    8.4490  -26.8487   34.1273 C   0  0  0  0  0  0  0  0  0  0  0  0
    9.1785  -27.6590   34.8316 N   0  0  0  0  0  0  0  0  0  0  0  0
    9.1167  -26.2808   32.9822 N   0  0  0  0  0  0  0  0  0  0  0  0
    8.4659  -25.2970   32.1763 C   0  0  0  0  0  0  0  0  0  0  0  0
    9.2664  -24.9191   30.9355 C   0  0  0  0  0  0  0  0  0  0  0  0
    8.4469  -23.8966   30.1990 C   0  0  0  0  0  0  0  0  0  0  0  0
    9.0103  -23.4276   28.9006 C   0  0  2  0  0  0  0  0  0  0  0  0
    9.2691  -24.5670   28.0125 N   0  0  0  0  0  0  0  0  0  0  0  0
   10.2798  -22.7001   29.1239 C   0  0  0  0  0  0  0  0  0  0  0  0
   11.3549  -23.2871   29.3645 O   0  0  0  0  0  0  0  0  0  0  0  0
   10.1484  -27.8285   34.4874 C   0  0  0  0  0  0  0  0  0  0  0  0
   11.3766  -19.0634   28.8696 C   0  0  1  0  0  0  0  0  0  0  0  0
   11.4823  -20.5076   29.2292 N   0  0  0  0  0  0  0  0  0  0  0  0
   10.2899  -21.2675   29.0654 C   0  0  0  0  0  0  0  0  0  0  0  0
   12.1692  -20.6991   30.5372 O   0  0  0  0  0  0  0  0  0  0  0  0
   13.4516  -20.2279   30.7158 O   0  0  0  0  0  0  0  0  0  0  0  0
  2  1  1  6
  2  3  1  0
  4  3  1  0
  5  2  1  0
  5  6  2  0
  7  8  1  0
  8  9  2  0
  8 10  1  0
 10 11  1  0
 11 12  1  0
 12 13  1  0
 14 13  1  1
 14 15  1  0
 15  5  1  0
 16 14  1  0
 16 20  1  0
 17 16  2  0
 19 18  1  6
 19 21  1  0
 20 19  1  0
 21 23  2  0
 21 22  1  0
M  END
$$$$
