CRA.pdb
     RDKit          3D

 23 22  0  0  1  0  0  0  0  0999 V2000
    5.0495  -13.3074   26.9862 N   0  0  0  0  0  0  0  0  0  0  0  0
    6.1676  -13.0540   26.1037 C   0  0  1  0  0  0  0  0  0  0  0  0
    7.1794  -12.2124   26.8588 C   0  0  0  0  0  0  0  0  0  0  0  0
    6.4731  -10.5791   27.2698 S   0  0  0  0  0  0  0  0  0  0  0  0
    6.7828  -14.3016   25.5869 C   0  0  0  0  0  0  0  0  0  0  0  0
    7.0240  -15.2313   26.3963 O   0  0  0  0  0  0  0  0  0  0  0  0
    9.3013  -15.0658   17.5798 N   0  0  0  0  0  0  0  0  0  0  0  0
    8.7440  -13.8226   17.9664 C   0  0  0  0  0  0  0  0  0  0  0  0
    8.8005  -12.7646   17.2165 N   0  0  0  0  0  0  0  0  0  0  0  0
    8.0678  -13.6309   19.2255 N   0  0  0  0  0  0  0  0  0  0  0  0
    7.7469  -14.7490   20.0550 C   0  0  0  0  0  0  0  0  0  0  0  0
    8.0731  -14.5130   21.5251 C   0  0  0  0  0  0  0  0  0  0  0  0
    7.6700  -15.7643   22.2537 C   0  0  0  0  0  0  0  0  0  0  0  0
    7.7291  -15.6953   23.7419 C   0  0  2  0  0  0  0  0  0  0  0  0
    7.0977  -14.4610   24.2234 N   0  0  0  0  0  0  0  0  0  0  0  0
    9.1355  -15.7216   24.2025 C   0  0  0  0  0  0  0  0  0  0  0  0
    9.7872  -14.6803   24.4247 O   0  0  0  0  0  0  0  0  0  0  0  0
    8.4426  -11.8791   17.6356 C   0  0  0  0  0  0  0  0  0  0  0  0
   10.7248  -16.6278   26.6562 C   0  0  2  0  0  0  0  0  0  0  0  0
   10.9120  -17.1294   25.2636 N   0  0  0  0  0  0  0  0  0  0  0  0
    9.7867  -16.9829   24.4044 C   0  0  0  0  0  0  0  0  0  0  0  0
   11.5384  -18.4810   25.2462 O   0  0  0  0  0  0  0  0  0  0  0  0
   12.7117  -18.7040   25.9332 O   0  0  0  0  0  0  0  0  0  0  0  0
  2  1  1  1
  2  3  1  0
  4  3  1  0
  5  2  1  0
  5  6  2  0
  7  8  1  0
  8  9  2  0
  8 10  1  0
 10 11  1  0
 11 12  1  0
 12 13  1  0
 14 13  1  6
 14 15  1  0
 15  5  1  0
 16 14  1  0
 16 20  1  0
 17 16  2  0
 19 18  1  6
 19 21  1  0
 20 19  1  0
 21 23  2  0
 21 22  1  0
M  END
$$$$
