CRA.pdb
     RDKit          3D

 23 22  0  0  1  0  0  0  0  0999 V2000
    7.7084  -15.6110   19.0851 N   0  0  0  0  0  0  0  0  0  0  0  0
    7.9903  -14.6595   20.1378 C   0  0  1  0  0  0  0  0  0  0  0  0
    7.4847  -13.3010   19.6894 C   0  0  0  0  0  0  0  0  0  0  0  0
    8.8692  -12.2664   19.0990 S   0  0  0  0  0  0  0  0  0  0  0  0
    7.3956  -15.0531   21.4391 C   0  0  0  0  0  0  0  0  0  0  0  0
    6.1468  -15.1610   21.5197 O   0  0  0  0  0  0  0  0  0  0  0  0
    5.7548  -20.3213   21.7152 N   0  0  0  0  0  0  0  0  0  0  0  0
    6.0185  -20.8755   22.9915 C   0  0  0  0  0  0  0  0  0  0  0  0
    6.1378  -22.1525   23.1911 N   0  0  0  0  0  0  0  0  0  0  0  0
    6.1762  -20.0655   24.1741 N   0  0  0  0  0  0  0  0  0  0  0  0
    6.0846  -18.6420   24.0966 C   0  0  0  0  0  0  0  0  0  0  0  0
    7.2777  -18.0058   23.3929 C   0  0  0  0  0  0  0  0  0  0  0  0
    7.7991  -16.9445   24.3209 C   0  0  0  0  0  0  0  0  0  0  0  0
    7.5793  -15.5361   23.8835 C   0  0  2  0  0  0  0  0  0  0  0  0
    8.1947  -15.3048   22.5713 N   0  0  0  0  0  0  0  0  0  0  0  0
    8.1730  -14.5958   24.8602 C   0  0  0  0  0  0  0  0  0  0  0  0
    9.4045  -14.5120   25.0461 O   0  0  0  0  0  0  0  0  0  0  0  0
    6.3298  -22.4532   24.1711 C   0  0  0  0  0  0  0  0  0  0  0  0
    6.8749  -11.8168   27.1028 C   0  0  1  0  0  0  0  0  0  0  0  0
    7.8077  -12.8928   26.6576 N   0  0  0  0  0  0  0  0  0  0  0  0
    7.3135  -13.7438   25.6291 C   0  0  0  0  0  0  0  0  0  0  0  0
    8.4189  -13.6037   27.8154 O   0  0  0  0  0  0  0  0  0  0  0  0
    9.1607  -12.9012   28.7399 O   0  0  0  0  0  0  0  0  0  0  0  0
  2  1  1  6
  2  3  1  0
  4  3  1  0
  5  2  1  0
  5  6  2  0
  7  8  1  0
  8  9  2  0
  8 10  1  0
 10 11  1  0
 11 12  1  0
 12 13  1  0
 14 13  1  1
 14 15  1  0
 15  5  1  0
 16 14  1  0
 16 20  1  0
 17 16  2  0
 19 18  1  6
 19 21  1  0
 20 19  1  0
 21 23  2  0
 21 22  1  0
M  END
$$$$
