MNH.pdb
     RDKit          3D

 27 27  0  0  1  0  0  0  0  0999 V2000
    8.4761  -12.0010   20.1995 C   0  0  0  0  0  0  0  0  0  0  0  0
    7.3045  -12.6253   18.9761 S   0  0  0  0  0  0  0  0  0  0  0  0
    8.2169  -13.5871   17.7085 C   0  0  0  0  0  0  0  0  0  0  0  0
    9.1395  -14.4977   18.4569 C   0  0  0  0  0  0  0  0  0  0  0  0
   10.0880  -15.2853   17.5877 C   0  0  2  0  0  0  0  0  0  0  0  0
    9.2403  -16.1263   16.7487 N   0  0  0  0  0  0  0  0  0  0  0  0
   10.9761  -16.0805   18.4402 C   0  0  0  0  0  0  0  0  0  0  0  0
   10.6658  -17.2488   18.7796 O   0  0  0  0  0  0  0  0  0  0  0  0
   15.0999  -13.6268   20.4624 N   0  0  0  0  0  0  0  0  0  0  0  0
   14.7620  -14.5882   19.5130 C   0  0  0  0  0  0  0  0  0  0  0  0
   14.6714  -14.1953   18.2999 O   0  0  0  0  0  0  0  0  0  0  0  0
   14.4957  -16.0111   19.7455 C   0  0  0  0  0  0  0  0  0  0  0  0
   13.0491  -16.3715   19.7998 C   0  0  2  0  0  0  0  0  0  0  0  0
   12.2354  -15.5765   18.9303 N   0  0  0  0  0  0  0  0  0  0  0  0
   12.5754  -16.3309   21.2132 C   0  0  0  0  0  0  0  0  0  0  0  0
   12.4791  -15.1981   21.7486 O   0  0  0  0  0  0  0  0  0  0  0  0
   12.2428  -17.4968   21.9422 N   0  0  0  0  0  0  0  0  0  0  0  0
   11.7581  -17.4359   23.3469 C   0  0  1  0  0  0  0  0  0  0  0  0
   10.3876  -17.9895   23.4378 C   0  0  0  0  0  0  0  0  0  0  0  0
    9.3008  -17.2590   22.7971 C   0  0  0  0  0  0  0  0  0  0  0  0
    9.0205  -15.9406   22.6620 C   0  0  0  0  0  0  0  0  0  0  0  0
    7.9045  -15.8447   21.9054 N   0  0  0  0  0  0  0  0  0  0  0  0
    7.5030  -17.0824   21.5775 C   0  0  0  0  0  0  0  0  0  0  0  0
    8.3330  -17.9618   22.1054 N   0  0  0  0  0  0  0  0  0  0  0  0
   12.7143  -18.2534   24.1517 C   0  0  0  0  0  0  0  0  0  0  0  0
   13.6749  -18.8176   23.6461 O   0  0  0  0  0  0  0  0  0  0  0  0
   12.5546  -18.4150   25.5430 O   0  0  0  0  0  0  0  0  0  0  0  0
  2  1  1  0
  3  2  1  0
  4  3  1  0
  4  5  1  0
  5  6  1  6
  7  5  1  0
  7  8  2  0
 10 12  1  0
 10  9  1  0
 11 10  2  0
 13 12  1  1
 13 14  1  0
 14  7  1  0
 15 13  1  0
 16 15  2  0
 17 15  1  0
 18 25  1  0
 18 17  1  0
 18 19  1  6
 20 19  1  0
 21 20  2  0
 22 23  1  0
 22 21  1  0
 23 24  2  0
 24 20  1  0
 25 27  1  0
 26 25  2  0
M  END
$$$$
