MNH.pdb
     RDKit          3D

 27 27  0  0  1  0  0  0  0  0999 V2000
    7.0656  -13.4409   26.9047 C   0  0  0  0  0  0  0  0  0  0  0  0
    6.8645  -11.9123   25.9654 S   0  0  0  0  0  0  0  0  0  0  0  0
    6.4626  -12.3269   24.2244 C   0  0  0  0  0  0  0  0  0  0  0  0
    6.8128  -13.7713   24.0459 C   0  0  0  0  0  0  0  0  0  0  0  0
    7.8941  -14.0353   23.0278 C   0  0  2  0  0  0  0  0  0  0  0  0
    7.3339  -13.6163   21.7471 N   0  0  0  0  0  0  0  0  0  0  0  0
    8.2288  -15.4621   23.0387 C   0  0  0  0  0  0  0  0  0  0  0  0
    7.4504  -16.3093   22.5361 O   0  0  0  0  0  0  0  0  0  0  0  0
   10.3824  -19.3804   20.6235 N   0  0  0  0  0  0  0  0  0  0  0  0
   10.9992  -18.1950   21.0160 C   0  0  0  0  0  0  0  0  0  0  0  0
   12.2634  -18.1171   20.8437 O   0  0  0  0  0  0  0  0  0  0  0  0
   10.3611  -17.0158   21.6091 C   0  0  0  0  0  0  0  0  0  0  0  0
   10.0886  -17.1266   23.0717 C   0  0  2  0  0  0  0  0  0  0  0  0
    9.4497  -15.9671   23.6170 N   0  0  0  0  0  0  0  0  0  0  0  0
   11.3484  -17.4708   23.7914 C   0  0  0  0  0  0  0  0  0  0  0  0
   12.3172  -16.6829   23.6511 O   0  0  0  0  0  0  0  0  0  0  0  0
   11.4760  -18.6237   24.6013 N   0  0  0  0  0  0  0  0  0  0  0  0
   11.6063  -18.5367   26.0803 C   0  0  1  0  0  0  0  0  0  0  0  0
   10.6410  -19.4512   26.7319 C   0  0  0  0  0  0  0  0  0  0  0  0
    9.2422  -19.0466   26.8032 C   0  0  0  0  0  0  0  0  0  0  0  0
    8.5716  -17.9448   26.3892 C   0  0  0  0  0  0  0  0  0  0  0  0
    7.2635  -18.1463   26.6637 N   0  0  0  0  0  0  0  0  0  0  0  0
    7.1280  -19.3525   27.2360 C   0  0  0  0  0  0  0  0  0  0  0  0
    8.3142  -19.9223   27.3331 N   0  0  0  0  0  0  0  0  0  0  0  0
   13.0104  -18.9349   26.3973 C   0  0  0  0  0  0  0  0  0  0  0  0
   13.8079  -19.2583   25.5278 O   0  0  0  0  0  0  0  0  0  0  0  0
   13.4875  -18.9571   27.7237 O   0  0  0  0  0  0  0  0  0  0  0  0
  2  1  1  0
  3  2  1  0
  4  3  1  0
  4  5  1  0
  5  6  1  6
  7  5  1  0
  7  8  2  0
 10 12  1  0
 10  9  1  0
 11 10  2  0
 13 12  1  6
 13 14  1  0
 14  7  1  0
 15 13  1  0
 16 15  2  0
 17 15  1  0
 18 25  1  0
 18 17  1  0
 18 19  1  1
 20 19  1  0
 21 20  2  0
 22 23  1  0
 22 21  1  0
 23 24  2  0
 24 20  1  0
 25 27  1  0
 26 25  2  0
M  END
$$$$
