MNH.pdb
     RDKit          3D

 27 27  0  0  1  0  0  0  0  0999 V2000
    9.9939  -11.7462   18.7845 C   0  0  0  0  0  0  0  0  0  0  0  0
    8.2985  -12.2513   18.4244 S   0  0  0  0  0  0  0  0  0  0  0  0
    8.3169  -13.9318   17.6893 C   0  0  0  0  0  0  0  0  0  0  0  0
    9.1454  -14.7799   18.6030 C   0  0  0  0  0  0  0  0  0  0  0  0
    9.4089  -16.1768   18.0981 C   0  0  2  0  0  0  0  0  0  0  0  0
    8.1368  -16.6406   17.5538 N   0  0  0  0  0  0  0  0  0  0  0  0
    9.8662  -17.0137   19.2110 C   0  0  0  0  0  0  0  0  0  0  0  0
    9.0554  -17.7174   19.8620 O   0  0  0  0  0  0  0  0  0  0  0  0
   13.1064  -20.8605   21.5273 N   0  0  0  0  0  0  0  0  0  0  0  0
   13.4880  -19.5296   21.3763 C   0  0  0  0  0  0  0  0  0  0  0  0
   14.3400  -19.0744   22.2134 O   0  0  0  0  0  0  0  0  0  0  0  0
   13.0219  -18.5818   20.3594 C   0  0  0  0  0  0  0  0  0  0  0  0
   11.6718  -18.0037   20.6216 C   0  0  2  0  0  0  0  0  0  0  0  0
   11.2490  -17.0764   19.6159 N   0  0  0  0  0  0  0  0  0  0  0  0
   11.6376  -17.4109   21.9894 C   0  0  0  0  0  0  0  0  0  0  0  0
   11.5927  -16.1573   22.0652 O   0  0  0  0  0  0  0  0  0  0  0  0
   11.6539  -18.1981   23.1648 N   0  0  0  0  0  0  0  0  0  0  0  0
   10.9378  -17.7832   24.4005 C   0  0  1  0  0  0  0  0  0  0  0  0
    9.4762  -17.7702   24.1629 C   0  0  0  0  0  0  0  0  0  0  0  0
    8.8720  -16.5574   23.6250 C   0  0  0  0  0  0  0  0  0  0  0  0
    9.3780  -15.3667   23.2235 C   0  0  0  0  0  0  0  0  0  0  0  0
    8.3466  -14.6342   22.7472 N   0  0  0  0  0  0  0  0  0  0  0  0
    7.2230  -15.3604   22.8512 C   0  0  0  0  0  0  0  0  0  0  0  0
    7.5122  -16.5337   23.3810 N   0  0  0  0  0  0  0  0  0  0  0  0
   11.2960  -18.7887   25.4451 C   0  0  0  0  0  0  0  0  0  0  0  0
   11.6271  -19.9319   25.1625 O   0  0  0  0  0  0  0  0  0  0  0  0
   11.2694  -18.4658   26.8171 O   0  0  0  0  0  0  0  0  0  0  0  0
  2  1  1  0
  3  2  1  0
  4  3  1  0
  4  5  1  0
  5  6  1  1
  7  5  1  0
  7  8  2  0
 10 12  1  0
 10  9  1  0
 11 10  2  0
 13 12  1  6
 13 14  1  0
 14  7  1  0
 15 13  1  0
 16 15  2  0
 17 15  1  0
 18 25  1  0
 18 17  1  0
 18 19  1  6
 20 19  1  0
 21 20  2  0
 22 23  1  0
 22 21  1  0
 23 24  2  0
 24 20  1  0
 25 27  1  0
 26 25  2  0
M  END
$$$$
