MNH.pdb
     RDKit          3D

 27 27  0  0  1  0  0  0  0  0999 V2000
    9.0089  -11.7148   19.6553 C   0  0  0  0  0  0  0  0  0  0  0  0
    7.7724  -12.7715   18.8718 S   0  0  0  0  0  0  0  0  0  0  0  0
    8.3930  -14.4973   18.8388 C   0  0  0  0  0  0  0  0  0  0  0  0
    9.3422  -14.5794   17.6843 C   0  0  0  0  0  0  0  0  0  0  0  0
   10.0478  -15.9052   17.5430 C   0  0  2  0  0  0  0  0  0  0  0  0
    9.1258  -16.8970   18.0869 N   0  0  0  0  0  0  0  0  0  0  0  0
   11.3087  -15.8624   18.2888 C   0  0  0  0  0  0  0  0  0  0  0  0
   12.4010  -15.6849   17.6958 O   0  0  0  0  0  0  0  0  0  0  0  0
   14.5892  -13.7633   18.0985 N   0  0  0  0  0  0  0  0  0  0  0  0
   14.3079  -14.7688   19.0202 C   0  0  0  0  0  0  0  0  0  0  0  0
   14.9253  -15.8781   18.8713 O   0  0  0  0  0  0  0  0  0  0  0  0
   13.3777  -14.7018   20.1515 C   0  0  0  0  0  0  0  0  0  0  0  0
   12.6217  -15.9618   20.4093 C   0  0  2  0  0  0  0  0  0  0  0  0
   11.3673  -16.0192   19.7213 N   0  0  0  0  0  0  0  0  0  0  0  0
   12.4716  -16.1643   21.8791 C   0  0  0  0  0  0  0  0  0  0  0  0
   13.0802  -15.3604   22.6291 O   0  0  0  0  0  0  0  0  0  0  0  0
   11.6873  -17.2039   22.4318 N   0  0  0  0  0  0  0  0  0  0  0  0
   11.4106  -17.2913   23.8905 C   0  0  1  0  0  0  0  0  0  0  0  0
    9.9506  -17.3540   24.1296 C   0  0  0  0  0  0  0  0  0  0  0  0
    9.1012  -16.3502   23.5003 C   0  0  0  0  0  0  0  0  0  0  0  0
    9.0798  -14.9962   23.5369 C   0  0  0  0  0  0  0  0  0  0  0  0
    8.1033  -14.5889   22.6957 N   0  0  0  0  0  0  0  0  0  0  0  0
    7.5322  -15.6725   22.1475 C   0  0  0  0  0  0  0  0  0  0  0  0
    8.1187  -16.7568   22.6180 N   0  0  0  0  0  0  0  0  0  0  0  0
   12.0796  -18.5392   24.3657 C   0  0  0  0  0  0  0  0  0  0  0  0
   12.5956  -19.3360   23.5942 O   0  0  0  0  0  0  0  0  0  0  0  0
   12.1489  -18.8608   25.7365 O   0  0  0  0  0  0  0  0  0  0  0  0
  2  1  1  0
  3  2  1  0
  4  3  1  0
  4  5  1  0
  5  6  1  1
  7  5  1  0
  7  8  2  0
 10 12  1  0
 10  9  1  0
 11 10  2  0
 13 12  1  1
 13 14  1  0
 14  7  1  0
 15 13  1  0
 16 15  2  0
 17 15  1  0
 18 25  1  0
 18 17  1  0
 18 19  1  6
 20 19  1  0
 21 20  2  0
 22 23  1  0
 22 21  1  0
 23 24  2  0
 24 20  1  0
 25 27  1  0
 26 25  2  0
M  END
$$$$
