MNH.pdb
     RDKit          3D

 27 27  0  0  1  0  0  0  0  0999 V2000
    9.1998  -11.8145   18.2860 C   0  0  0  0  0  0  0  0  0  0  0  0
    8.6653  -12.5658   19.8382 S   0  0  0  0  0  0  0  0  0  0  0  0
    7.8668  -14.1779   19.4802 C   0  0  0  0  0  0  0  0  0  0  0  0
    7.5442  -14.7897   20.8077 C   0  0  0  0  0  0  0  0  0  0  0  0
    6.9930  -16.1921   20.7368 C   0  0  2  0  0  0  0  0  0  0  0  0
    5.7510  -16.0845   19.9781 N   0  0  0  0  0  0  0  0  0  0  0  0
    6.7632  -16.6894   22.0961 C   0  0  0  0  0  0  0  0  0  0  0  0
    5.6655  -16.4971   22.6744 O   0  0  0  0  0  0  0  0  0  0  0  0
    6.4318  -19.1870   26.7101 N   0  0  0  0  0  0  0  0  0  0  0  0
    7.1764  -19.7816   25.6943 C   0  0  0  0  0  0  0  0  0  0  0  0
    7.7947  -20.8613   25.9875 O   0  0  0  0  0  0  0  0  0  0  0  0
    7.3346  -19.3087   24.3156 C   0  0  0  0  0  0  0  0  0  0  0  0
    7.5178  -17.8341   24.1819 C   0  0  2  0  0  0  0  0  0  0  0  0
    7.7664  -17.4152   22.8355 N   0  0  0  0  0  0  0  0  0  0  0  0
    8.5782  -17.3736   25.1237 C   0  0  0  0  0  0  0  0  0  0  0  0
    9.6623  -18.0092   25.1146 O   0  0  0  0  0  0  0  0  0  0  0  0
    8.4005  -16.2757   25.9979 N   0  0  0  0  0  0  0  0  0  0  0  0
    9.5124  -15.7433   26.8299 C   0  0  1  0  0  0  0  0  0  0  0  0
    9.0600  -14.5518   27.5837 C   0  0  0  0  0  0  0  0  0  0  0  0
    7.9146  -13.8050   27.0779 C   0  0  0  0  0  0  0  0  0  0  0  0
    7.2363  -13.8259   25.9055 C   0  0  0  0  0  0  0  0  0  0  0  0
    6.2098  -12.9542   26.0219 N   0  0  0  0  0  0  0  0  0  0  0  0
    6.2523  -12.4053   27.2456 C   0  0  0  0  0  0  0  0  0  0  0  0
    7.2778  -12.9040   27.9095 N   0  0  0  0  0  0  0  0  0  0  0  0
    9.8978  -16.8451   27.7616 C   0  0  0  0  0  0  0  0  0  0  0  0
    9.3179  -17.9222   27.7719 O   0  0  0  0  0  0  0  0  0  0  0  0
   10.9562  -16.6952   28.6807 O   0  0  0  0  0  0  0  0  0  0  0  0
  2  1  1  0
  3  2  1  0
  4  3  1  0
  4  5  1  0
  5  6  1  6
  7  5  1  0
  7  8  2  0
 10 12  1  0
 10  9  1  0
 11 10  2  0
 13 12  1  6
 13 14  1  0
 14  7  1  0
 15 13  1  0
 16 15  2  0
 17 15  1  0
 18 25  1  0
 18 17  1  0
 18 19  1  1
 20 19  1  0
 21 20  2  0
 22 23  1  0
 22 21  1  0
 23 24  2  0
 24 20  1  0
 25 27  1  0
 26 25  2  0
M  END
$$$$
