MLF.pdb
     RDKit          3D

 28 28  0  0  1  0  0  0  0  0999 V2000
    9.9197  -21.9894   16.0830 C   0  0  0  0  0  0  0  0  0  0  0  0
   10.3856  -20.4234   16.7881 S   0  0  0  0  0  0  0  0  0  0  0  0
    9.8299  -20.1482   18.4547 C   0  0  0  0  0  0  0  0  0  0  0  0
   10.1634  -18.8158   19.0316 C   0  0  0  0  0  0  0  0  0  0  0  0
    9.7033  -18.6842   20.4416 C   0  0  2  0  0  0  0  0  0  0  0  0
    8.2952  -18.9971   20.6067 N   0  0  0  0  0  0  0  0  0  0  0  0
    9.9852  -17.3071   20.9824 C   0  0  0  0  0  0  0  0  0  0  0  0
   11.1235  -16.7897   20.9289 O   0  0  0  0  0  0  0  0  0  0  0  0
    8.6233  -13.2649   19.5043 C   0  0  0  0  0  0  0  0  0  0  0  0
    7.6590  -13.9791   20.4151 C   0  0  2  0  0  0  0  0  0  0  0  0
    6.4236  -13.0655   20.5162 C   0  0  0  0  0  0  0  0  0  0  0  0
    8.1594  -14.1623   21.7987 C   0  0  0  0  0  0  0  0  0  0  0  0
    9.1929  -15.1950   22.0440 C   0  0  2  0  0  0  0  0  0  0  0  0
    8.9468  -16.5155   21.5918 N   0  0  0  0  0  0  0  0  0  0  0  0
    9.5274  -15.1547   23.5125 C   0  0  0  0  0  0  0  0  0  0  0  0
   10.3089  -14.2852   23.9739 O   0  0  0  0  0  0  0  0  0  0  0  0
    8.9744  -16.0919   24.4178 N   0  0  0  0  0  0  0  0  0  0  0  0
    9.3657  -16.1408   25.8358 C   0  0  1  0  0  0  0  0  0  0  0  0
    8.0833  -15.9464   26.6050 C   0  0  0  0  0  0  0  0  0  0  0  0
    7.6143  -14.5408   26.5682 C   0  0  0  0  0  0  0  0  0  0  0  0
    8.3943  -13.4985   27.0541 C   0  0  0  0  0  0  0  0  0  0  0  0
    7.9489  -12.1937   27.0054 C   0  0  0  0  0  0  0  0  0  0  0  0
    6.7222  -11.8527   26.4800 C   0  0  0  0  0  0  0  0  0  0  0  0
    5.9427  -12.8866   25.9957 C   0  0  0  0  0  0  0  0  0  0  0  0
    6.3810  -14.1918   26.0409 C   0  0  0  0  0  0  0  0  0  0  0  0
    9.9261  -17.4613   26.1870 C   0  0  0  0  0  0  0  0  0  0  0  0
   10.0154  -18.4077   25.1758 O   0  0  0  0  0  0  0  0  0  0  0  0
   10.3238  -17.7914   27.3176 O   0  0  0  0  0  0  0  0  0  0  0  0
  2  1  1  0
  3  4  1  0
  3  2  1  0
  5  4  1  0
  5  6  1  6
  7  8  2  0
  7  5  1  0
 10  9  1  6
 10 12  1  0
 11 10  1  0
 13 12  1  1
 13 14  1  0
 14  7  1  0
 15 13  1  0
 16 15  2  0
 17 15  1  0
 18 17  1  0
 18 19  1  1
 20 19  1  0
 20 21  2  0
 22 21  1  0
 23 22  2  0
 24 25  2  0
 24 23  1  0
 25 20  1  0
 26 27  1  0
 26 18  1  0
 28 26  2  0
M  END
$$$$
