MLF.pdb
     RDKit          3D

 28 28  0  0  1  0  0  0  0  0999 V2000
    8.4142  -11.6597   18.2282 C   0  0  0  0  0  0  0  0  0  0  0  0
    7.2305  -12.9194   17.8054 S   0  0  0  0  0  0  0  0  0  0  0  0
    7.2266  -14.3429   18.8710 C   0  0  0  0  0  0  0  0  0  0  0  0
    8.4471  -14.5242   19.7059 C   0  0  0  0  0  0  0  0  0  0  0  0
    8.4027  -15.7844   20.4977 C   0  0  2  0  0  0  0  0  0  0  0  0
    7.0948  -16.4145   20.4818 N   0  0  0  0  0  0  0  0  0  0  0  0
    8.8380  -15.5515   21.9206 C   0  0  0  0  0  0  0  0  0  0  0  0
   10.0004  -15.1906   22.2119 O   0  0  0  0  0  0  0  0  0  0  0  0
    7.2907  -12.5690   24.9604 C   0  0  0  0  0  0  0  0  0  0  0  0
    6.4723  -13.8318   25.0317 C   0  0  2  0  0  0  0  0  0  0  0  0
    5.5136  -13.6429   26.2219 C   0  0  0  0  0  0  0  0  0  0  0  0
    7.2666  -15.0496   25.3223 C   0  0  0  0  0  0  0  0  0  0  0  0
    8.3135  -15.4561   24.3561 C   0  0  2  0  0  0  0  0  0  0  0  0
    7.9268  -15.7359   23.0215 N   0  0  0  0  0  0  0  0  0  0  0  0
    9.0746  -16.5999   24.9745 C   0  0  0  0  0  0  0  0  0  0  0  0
    8.7632  -17.7922   24.7276 O   0  0  0  0  0  0  0  0  0  0  0  0
   10.1620  -16.3699   25.8511 N   0  0  0  0  0  0  0  0  0  0  0  0
   11.0471  -17.4537   26.3073 C   0  0  1  0  0  0  0  0  0  0  0  0
   12.1047  -16.7740   27.1402 C   0  0  0  0  0  0  0  0  0  0  0  0
   11.5204  -15.9031   28.1878 C   0  0  0  0  0  0  0  0  0  0  0  0
   11.0772  -14.6171   27.9037 C   0  0  0  0  0  0  0  0  0  0  0  0
   10.5271  -13.8206   28.8867 C   0  0  0  0  0  0  0  0  0  0  0  0
   10.3874  -14.2474   30.1888 C   0  0  0  0  0  0  0  0  0  0  0  0
   10.8274  -15.5261   30.4759 C   0  0  0  0  0  0  0  0  0  0  0  0
   11.3775  -16.3271   29.4995 C   0  0  0  0  0  0  0  0  0  0  0  0
   10.3182  -18.4090   27.1658 C   0  0  0  0  0  0  0  0  0  0  0  0
   10.9981  -19.5469   27.5772 O   0  0  0  0  0  0  0  0  0  0  0  0
    9.1433  -18.2737   27.5487 O   0  0  0  0  0  0  0  0  0  0  0  0
  2  1  1  0
  3  4  1  0
  3  2  1  0
  5  4  1  0
  5  6  1  1
  7  8  2  0
  7  5  1  0
 10  9  1  1
 10 12  1  0
 11 10  1  0
 13 12  1  1
 13 14  1  0
 14  7  1  0
 15 13  1  0
 16 15  2  0
 17 15  1  0
 18 17  1  0
 18 19  1  1
 20 19  1  0
 20 21  2  0
 22 21  1  0
 23 22  2  0
 24 25  2  0
 24 23  1  0
 25 20  1  0
 26 27  1  0
 26 18  1  0
 28 26  2  0
M  END
$$$$
