MLF.pdb
     RDKit          3D

 28 28  0  0  1  0  0  0  0  0999 V2000
    4.9039  -21.5687   16.9626 C   0  0  0  0  0  0  0  0  0  0  0  0
    6.4059  -20.7601   17.4693 S   0  0  0  0  0  0  0  0  0  0  0  0
    6.2213  -19.5715   18.7789 C   0  0  0  0  0  0  0  0  0  0  0  0
    7.4539  -18.8169   19.1405 C   0  0  0  0  0  0  0  0  0  0  0  0
    7.5650  -18.5948   20.6086 C   0  0  2  0  0  0  0  0  0  0  0  0
    6.2976  -18.2427   21.2231 N   0  0  0  0  0  0  0  0  0  0  0  0
    8.5941  -17.5419   20.9259 C   0  0  0  0  0  0  0  0  0  0  0  0
    9.8143  -17.7150   20.7081 O   0  0  0  0  0  0  0  0  0  0  0  0
    8.7932  -13.6408   18.9549 C   0  0  0  0  0  0  0  0  0  0  0  0
    8.0084  -13.5834   20.2395 C   0  0  2  0  0  0  0  0  0  0  0  0
    7.5165  -12.1296   20.3652 C   0  0  0  0  0  0  0  0  0  0  0  0
    8.8156  -13.8592   21.4523 C   0  0  0  0  0  0  0  0  0  0  0  0
    9.1758  -15.2639   21.7554 C   0  0  2  0  0  0  0  0  0  0  0  0
    8.2164  -16.2756   21.5004 N   0  0  0  0  0  0  0  0  0  0  0  0
    9.6723  -15.3027   23.1774 C   0  0  0  0  0  0  0  0  0  0  0  0
   10.6519  -14.6035   23.5393 O   0  0  0  0  0  0  0  0  0  0  0  0
    9.0537  -16.1253   24.1492 N   0  0  0  0  0  0  0  0  0  0  0  0
    9.5095  -16.1688   25.5479 C   0  0  1  0  0  0  0  0  0  0  0  0
    8.2495  -16.1117   26.3745 C   0  0  0  0  0  0  0  0  0  0  0  0
    7.6304  -14.7650   26.3618 C   0  0  0  0  0  0  0  0  0  0  0  0
    8.2630  -13.6660   26.9301 C   0  0  0  0  0  0  0  0  0  0  0  0
    7.6791  -12.4163   26.9033 C   0  0  0  0  0  0  0  0  0  0  0  0
    6.4523  -12.1882   26.3201 C   0  0  0  0  0  0  0  0  0  0  0  0
    5.8193  -13.2790   25.7537 C   0  0  0  0  0  0  0  0  0  0  0  0
    6.3964  -14.5297   25.7766 C   0  0  0  0  0  0  0  0  0  0  0  0
   10.2040  -17.4388   25.8411 C   0  0  0  0  0  0  0  0  0  0  0  0
   10.3133  -18.3610   24.8097 O   0  0  0  0  0  0  0  0  0  0  0  0
   10.6982  -17.7463   26.9395 O   0  0  0  0  0  0  0  0  0  0  0  0
  2  1  1  0
  3  4  1  0
  3  2  1  0
  5  4  1  0
  5  6  1  6
  7  8  2  0
  7  5  1  0
 10  9  1  6
 10 12  1  0
 11 10  1  0
 13 12  1  1
 13 14  1  0
 14  7  1  0
 15 13  1  0
 16 15  2  0
 17 15  1  0
 18 17  1  0
 18 19  1  1
 20 19  1  0
 20 21  2  0
 22 21  1  0
 23 22  2  0
 24 25  2  0
 24 23  1  0
 25 20  1  0
 26 27  1  0
 26 18  1  0
 28 26  2  0
M  END
$$$$
