MLF.pdb
     RDKit          3D

 28 28  0  0  1  0  0  0  0  0999 V2000
    8.5210  -11.2441   18.4457 C   0  0  0  0  0  0  0  0  0  0  0  0
    7.7594  -12.6322   17.6335 S   0  0  0  0  0  0  0  0  0  0  0  0
    7.7973  -14.1577   18.5464 C   0  0  0  0  0  0  0  0  0  0  0  0
    8.2952  -14.0566   19.9469 C   0  0  0  0  0  0  0  0  0  0  0  0
    8.3533  -15.3841   20.6185 C   0  0  2  0  0  0  0  0  0  0  0  0
    7.0564  -16.0314   20.7014 N   0  0  0  0  0  0  0  0  0  0  0  0
    8.9561  -15.2748   21.9945 C   0  0  0  0  0  0  0  0  0  0  0  0
   10.1843  -15.1143   22.1737 O   0  0  0  0  0  0  0  0  0  0  0  0
    7.0563  -12.1619   24.5930 C   0  0  0  0  0  0  0  0  0  0  0  0
    6.6284  -13.5580   24.9637 C   0  0  2  0  0  0  0  0  0  0  0  0
    5.6498  -13.3972   26.1417 C   0  0  0  0  0  0  0  0  0  0  0  0
    7.7335  -14.4181   25.4511 C   0  0  0  0  0  0  0  0  0  0  0  0
    8.6528  -15.0169   24.4556 C   0  0  2  0  0  0  0  0  0  0  0  0
    8.1378  -15.3508   23.1780 N   0  0  0  0  0  0  0  0  0  0  0  0
    9.3265  -16.1912   25.1168 C   0  0  0  0  0  0  0  0  0  0  0  0
    8.6723  -17.2154   25.4374 O   0  0  0  0  0  0  0  0  0  0  0  0
   10.7138  -16.1795   25.3978 N   0  0  0  0  0  0  0  0  0  0  0  0
   11.3615  -17.2260   26.2050 C   0  0  1  0  0  0  0  0  0  0  0  0
   10.4913  -17.3750   27.4276 C   0  0  0  0  0  0  0  0  0  0  0  0
   10.6468  -16.2406   28.3689 C   0  0  0  0  0  0  0  0  0  0  0  0
   11.4268  -16.3448   29.5143 C   0  0  0  0  0  0  0  0  0  0  0  0
   11.5699  -15.2779   30.3772 C   0  0  0  0  0  0  0  0  0  0  0  0
   10.9565  -14.0645   30.1572 C   0  0  0  0  0  0  0  0  0  0  0  0
   10.1793  -13.9566   29.0190 C   0  0  0  0  0  0  0  0  0  0  0  0
   10.0320  -15.0175   28.1528 C   0  0  0  0  0  0  0  0  0  0  0  0
   11.3819  -18.5155   25.4856 C   0  0  0  0  0  0  0  0  0  0  0  0
   10.7874  -18.5582   24.2322 O   0  0  0  0  0  0  0  0  0  0  0  0
   11.8899  -19.5657   25.9149 O   0  0  0  0  0  0  0  0  0  0  0  0
  2  1  1  0
  3  4  1  0
  3  2  1  0
  5  4  1  0
  5  6  1  1
  7  8  2  0
  7  5  1  0
 10  9  1  1
 10 12  1  0
 11 10  1  0
 13 12  1  1
 13 14  1  0
 14  7  1  0
 15 13  1  0
 16 15  2  0
 17 15  1  0
 18 17  1  0
 18 19  1  1
 20 19  1  0
 20 21  2  0
 22 21  1  0
 23 22  2  0
 24 25  2  0
 24 23  1  0
 25 20  1  0
 26 27  1  0
 26 18  1  0
 28 26  2  0
M  END
$$$$
