MLF.pdb
     RDKit          3D

 28 28  0  0  1  0  0  0  0  0999 V2000
    6.6258  -12.3555   26.3578 C   0  0  0  0  0  0  0  0  0  0  0  0
    6.4105  -13.8495   27.3004 S   0  0  0  0  0  0  0  0  0  0  0  0
    5.2997  -15.0410   26.5874 C   0  0  0  0  0  0  0  0  0  0  0  0
    5.4952  -15.3140   25.1359 C   0  0  0  0  0  0  0  0  0  0  0  0
    6.4023  -16.4709   24.9002 C   0  0  2  0  0  0  0  0  0  0  0  0
    7.4009  -16.6260   25.9426 N   0  0  0  0  0  0  0  0  0  0  0  0
    7.0789  -16.3705   23.5583 C   0  0  0  0  0  0  0  0  0  0  0  0
    6.8361  -17.1710   22.6274 O   0  0  0  0  0  0  0  0  0  0  0  0
    7.1680  -13.5713   20.3485 C   0  0  0  0  0  0  0  0  0  0  0  0
    8.3083  -13.2645   21.2839 C   0  0  2  0  0  0  0  0  0  0  0  0
    9.0343  -12.0505   20.6752 C   0  0  0  0  0  0  0  0  0  0  0  0
    9.3152  -14.3484   21.3835 C   0  0  0  0  0  0  0  0  0  0  0  0
    9.0297  -15.4964   22.2753 C   0  0  2  0  0  0  0  0  0  0  0  0
    8.0459  -15.3383   23.2834 N   0  0  0  0  0  0  0  0  0  0  0  0
   10.3461  -15.9637   22.8401 C   0  0  0  0  0  0  0  0  0  0  0  0
   11.4240  -15.7471   22.2313 O   0  0  0  0  0  0  0  0  0  0  0  0
   10.4116  -16.6598   24.0709 N   0  0  0  0  0  0  0  0  0  0  0  0
   11.6898  -16.9739   24.7295 C   0  0  1  0  0  0  0  0  0  0  0  0
   12.1854  -15.6581   25.2747 C   0  0  0  0  0  0  0  0  0  0  0  0
   11.2370  -15.0590   26.2436 C   0  0  0  0  0  0  0  0  0  0  0  0
   11.3251  -15.3179   27.6059 C   0  0  0  0  0  0  0  0  0  0  0  0
   10.4410  -14.7463   28.4976 C   0  0  0  0  0  0  0  0  0  0  0  0
    9.4334  -13.8979   28.0951 C   0  0  0  0  0  0  0  0  0  0  0  0
    9.3419  -13.6378   26.7405 C   0  0  0  0  0  0  0  0  0  0  0  0
   10.2212  -14.2048   25.8444 C   0  0  0  0  0  0  0  0  0  0  0  0
   11.4907  -17.9032   25.8599 C   0  0  0  0  0  0  0  0  0  0  0  0
   12.6174  -18.3053   26.5635 O   0  0  0  0  0  0  0  0  0  0  0  0
   10.3928  -18.3535   26.2303 O   0  0  0  0  0  0  0  0  0  0  0  0
  2  1  1  0
  3  4  1  0
  3  2  1  0
  5  4  1  0
  5  6  1  1
  7  8  2  0
  7  5  1  0
 10  9  1  6
 10 12  1  0
 11 10  1  0
 13 12  1  1
 13 14  1  0
 14  7  1  0
 15 13  1  0
 16 15  2  0
 17 15  1  0
 18 17  1  0
 18 19  1  1
 20 19  1  0
 20 21  2  0
 22 21  1  0
 23 22  2  0
 24 25  2  0
 24 23  1  0
 25 20  1  0
 26 27  1  0
 26 18  1  0
 28 26  2  0
M  END
$$$$
