MLF.pdb
     RDKit          3D

 28 28  0  0  1  0  0  0  0  0999 V2000
    9.4311  -18.1031   15.2890 C   0  0  0  0  0  0  0  0  0  0  0  0
    9.3515  -19.6907   16.0888 S   0  0  0  0  0  0  0  0  0  0  0  0
    9.2731  -19.6407   17.8646 C   0  0  0  0  0  0  0  0  0  0  0  0
    9.6396  -18.3381   18.4878 C   0  0  0  0  0  0  0  0  0  0  0  0
    9.5037  -18.3678   19.9702 C   0  0  2  0  0  0  0  0  0  0  0  0
    8.1656  -18.7240   20.4068 N   0  0  0  0  0  0  0  0  0  0  0  0
    9.9051  -17.0516   20.5825 C   0  0  0  0  0  0  0  0  0  0  0  0
   11.0834  -16.6313   20.5471 O   0  0  0  0  0  0  0  0  0  0  0  0
    9.2725  -12.8524   19.3836 C   0  0  0  0  0  0  0  0  0  0  0  0
    8.1226  -13.4442   20.1564 C   0  0  2  0  0  0  0  0  0  0  0  0
    7.0487  -12.3422   20.2188 C   0  0  0  0  0  0  0  0  0  0  0  0
    8.4528  -13.7877   21.5605 C   0  0  0  0  0  0  0  0  0  0  0  0
    9.3138  -14.9662   21.8144 C   0  0  2  0  0  0  0  0  0  0  0  0
    8.9411  -16.2087   21.2432 N   0  0  0  0  0  0  0  0  0  0  0  0
    9.5087  -15.0664   23.3050 C   0  0  0  0  0  0  0  0  0  0  0  0
   10.1384  -14.1803   23.9356 O   0  0  0  0  0  0  0  0  0  0  0  0
    8.9906  -16.1585   24.0417 N   0  0  0  0  0  0  0  0  0  0  0  0
    9.0909  -16.2361   25.5081 C   0  0  1  0  0  0  0  0  0  0  0  0
    7.6673  -16.1871   26.0031 C   0  0  0  0  0  0  0  0  0  0  0  0
    7.1509  -14.8004   26.0908 C   0  0  0  0  0  0  0  0  0  0  0  0
    5.9244  -14.4428   25.5443 C   0  0  0  0  0  0  0  0  0  0  0  0
    5.4520  -13.1503   25.6410 C   0  0  0  0  0  0  0  0  0  0  0  0
    6.1585  -12.1527   26.2758 C   0  0  0  0  0  0  0  0  0  0  0  0
    7.3794  -12.5041   26.8208 C   0  0  0  0  0  0  0  0  0  0  0  0
    7.8575  -13.7928   26.7281 C   0  0  0  0  0  0  0  0  0  0  0  0
    9.6897  -17.5176   25.9325 C   0  0  0  0  0  0  0  0  0  0  0  0
    9.8690  -17.7201   27.2938 O   0  0  0  0  0  0  0  0  0  0  0  0
   10.0459  -18.4290   25.1658 O   0  0  0  0  0  0  0  0  0  0  0  0
  2  1  1  0
  3  4  1  0
  3  2  1  0
  5  4  1  0
  5  6  1  6
  7  8  2  0
  7  5  1  0
 10  9  1  1
 10 12  1  0
 11 10  1  0
 13 12  1  1
 13 14  1  0
 14  7  1  0
 15 13  1  0
 16 15  2  0
 17 15  1  0
 18 17  1  0
 18 19  1  1
 20 19  1  0
 20 21  2  0
 22 21  1  0
 23 22  2  0
 24 25  2  0
 24 23  1  0
 25 20  1  0
 26 27  1  0
 26 18  1  0
 28 26  2  0
M  END
$$$$
