MLF.pdb
     RDKit          3D

 28 28  0  0  1  0  0  0  0  0999 V2000
    6.0177  -19.3159   27.2547 C   0  0  0  0  0  0  0  0  0  0  0  0
    5.5290  -20.6249   26.1528 S   0  0  0  0  0  0  0  0  0  0  0  0
    5.8967  -20.3459   24.4355 C   0  0  0  0  0  0  0  0  0  0  0  0
    6.6341  -19.0874   24.1324 C   0  0  0  0  0  0  0  0  0  0  0  0
    6.7425  -18.8399   22.6682 C   0  0  2  0  0  0  0  0  0  0  0  0
    6.9400  -20.0582   21.9035 N   0  0  0  0  0  0  0  0  0  0  0  0
    7.8449  -17.8612   22.3593 C   0  0  0  0  0  0  0  0  0  0  0  0
    9.0148  -18.2306   22.1120 O   0  0  0  0  0  0  0  0  0  0  0  0
    7.4412  -12.5792   19.9970 C   0  0  0  0  0  0  0  0  0  0  0  0
    7.7005  -14.0064   20.4037 C   0  0  2  0  0  0  0  0  0  0  0  0
    6.3141  -14.6644   20.5298 C   0  0  0  0  0  0  0  0  0  0  0  0
    8.3534  -14.1471   21.7275 C   0  0  0  0  0  0  0  0  0  0  0  0
    8.6617  -15.5097   22.2205 C   0  0  2  0  0  0  0  0  0  0  0  0
    7.5997  -16.4415   22.3345 N   0  0  0  0  0  0  0  0  0  0  0  0
    9.4203  -15.3579   23.5134 C   0  0  0  0  0  0  0  0  0  0  0  0
   10.4835  -14.6898   23.5644 O   0  0  0  0  0  0  0  0  0  0  0  0
    8.9617  -15.9609   24.7091 N   0  0  0  0  0  0  0  0  0  0  0  0
    9.6847  -15.8280   25.9843 C   0  0  1  0  0  0  0  0  0  0  0  0
    8.6216  -15.5237   27.0096 C   0  0  0  0  0  0  0  0  0  0  0  0
    8.0153  -14.1860   26.8096 C   0  0  0  0  0  0  0  0  0  0  0  0
    6.6895  -14.0366   26.4212 C   0  0  0  0  0  0  0  0  0  0  0  0
    6.1356  -12.7851   26.2473 C   0  0  0  0  0  0  0  0  0  0  0  0
    6.8543  -11.6269   26.4452 C   0  0  0  0  0  0  0  0  0  0  0  0
    8.1739  -11.7709   26.8314 C   0  0  0  0  0  0  0  0  0  0  0  0
    8.7336  -13.0173   27.0071 C   0  0  0  0  0  0  0  0  0  0  0  0
   10.3436  -17.0963   26.3561 C   0  0  0  0  0  0  0  0  0  0  0  0
   10.2071  -18.1676   25.4844 O   0  0  0  0  0  0  0  0  0  0  0  0
   11.0108  -17.2793   27.3888 O   0  0  0  0  0  0  0  0  0  0  0  0
  2  1  1  0
  3  4  1  0
  3  2  1  0
  5  4  1  0
  5  6  1  6
  7  8  2  0
  7  5  1  0
 10  9  1  1
 10 12  1  0
 11 10  1  0
 13 12  1  1
 13 14  1  0
 14  7  1  0
 15 13  1  0
 16 15  2  0
 17 15  1  0
 18 17  1  0
 18 19  1  1
 20 19  1  0
 20 21  2  0
 22 21  1  0
 23 22  2  0
 24 25  2  0
 24 23  1  0
 25 20  1  0
 26 27  1  0
 26 18  1  0
 28 26  2  0
M  END
$$$$
