MLF.pdb
     RDKit          3D

 28 28  0  0  1  0  0  0  0  0999 V2000
   12.7660  -21.7682   22.2970 C   0  0  0  0  0  0  0  0  0  0  0  0
   12.7462  -21.5861   20.5270 S   0  0  0  0  0  0  0  0  0  0  0  0
   12.5260  -19.9223   19.9394 C   0  0  0  0  0  0  0  0  0  0  0  0
   12.0375  -18.9430   20.9503 C   0  0  0  0  0  0  0  0  0  0  0  0
   11.8671  -17.5806   20.3744 C   0  0  2  0  0  0  0  0  0  0  0  0
   13.1247  -16.9780   19.9701 N   0  0  0  0  0  0  0  0  0  0  0  0
   11.1506  -16.6671   21.3340 C   0  0  0  0  0  0  0  0  0  0  0  0
   11.7560  -16.0241   22.2206 O   0  0  0  0  0  0  0  0  0  0  0  0
    8.3447  -12.8709   20.7591 C   0  0  0  0  0  0  0  0  0  0  0  0
    7.6697  -14.2050   20.5750 C   0  0  2  0  0  0  0  0  0  0  0  0
    6.1804  -13.8920   20.3393 C   0  0  0  0  0  0  0  0  0  0  0  0
    7.7299  -15.0814   21.7695 C   0  0  0  0  0  0  0  0  0  0  0  0
    9.0441  -15.6319   22.1748 C   0  0  2  0  0  0  0  0  0  0  0  0
    9.7218  -16.4910   21.2737 N   0  0  0  0  0  0  0  0  0  0  0  0
    8.8667  -16.2637   23.5311 C   0  0  0  0  0  0  0  0  0  0  0  0
    9.4983  -17.3032   23.8476 O   0  0  0  0  0  0  0  0  0  0  0  0
    7.9857  -15.7090   24.4902 N   0  0  0  0  0  0  0  0  0  0  0  0
    7.8520  -16.2618   25.8476 C   0  0  1  0  0  0  0  0  0  0  0  0
    6.6772  -15.5364   26.4541 C   0  0  0  0  0  0  0  0  0  0  0  0
    6.9076  -14.0752   26.5483 C   0  0  0  0  0  0  0  0  0  0  0  0
    8.0852  -13.5546   27.0710 C   0  0  0  0  0  0  0  0  0  0  0  0
    8.2901  -12.1923   27.1446 C   0  0  0  0  0  0  0  0  0  0  0  0
    7.3524  -11.2814   26.7106 C   0  0  0  0  0  0  0  0  0  0  0  0
    6.1792  -11.7950   26.1901 C   0  0  0  0  0  0  0  0  0  0  0  0
    5.9678  -13.1541   26.1134 C   0  0  0  0  0  0  0  0  0  0  0  0
    7.5395  -17.7046   25.8052 C   0  0  0  0  0  0  0  0  0  0  0  0
    7.1807  -18.2456   24.5785 O   0  0  0  0  0  0  0  0  0  0  0  0
    7.5726  -18.4723   26.7824 O   0  0  0  0  0  0  0  0  0  0  0  0
  2  1  1  0
  3  4  1  0
  3  2  1  0
  5  4  1  0
  5  6  1  1
  7  8  2  0
  7  5  1  0
 10  9  1  1
 10 12  1  0
 11 10  1  0
 13 12  1  6
 13 14  1  0
 14  7  1  0
 15 13  1  0
 16 15  2  0
 17 15  1  0
 18 17  1  0
 18 19  1  6
 20 19  1  0
 20 21  2  0
 22 21  1  0
 23 22  2  0
 24 25  2  0
 24 23  1  0
 25 20  1  0
 26 27  1  0
 26 18  1  0
 28 26  2  0
M  END
$$$$
