NVE.pdb
     RDKit          3D

 25 24  0  0  1  0  0  0  0  0999 V2000
   21.8185  -11.8930  -22.1922 N   0  0  0  0  0  0  0  0  0  0  0  0
   22.4141  -11.4180  -20.9965 C   0  0  0  0  0  0  0  0  0  0  0  0
   23.6540  -11.4732  -20.9116 O   0  0  0  0  0  0  0  0  0  0  0  0
   21.5799  -10.8887  -19.9198 C   0  0  0  0  0  0  0  0  0  0  0  0
   21.5236  -11.7398  -18.6854 C   0  0  2  0  0  0  0  0  0  0  0  0
   20.5119  -12.7571  -18.8503 N   0  0  0  0  0  0  0  0  0  0  0  0
   21.1945  -10.9657  -17.4495 C   0  0  0  0  0  0  0  0  0  0  0  0
   20.0206  -10.5585  -17.2809 O   0  0  0  0  0  0  0  0  0  0  0  0
   23.3392   -9.9165  -13.1956 C   0  0  0  0  0  0  0  0  0  0  0  0
   22.3754  -10.6684  -14.0752 C   0  0  2  0  0  0  0  0  0  0  0  0
   22.9849  -12.0275  -14.3673 C   0  0  0  0  0  0  0  0  0  0  0  0
   21.8675   -9.9705  -15.2651 C   0  0  2  0  0  0  0  0  0  0  0  0
   22.1734  -10.6920  -16.4826 N   0  0  0  0  0  0  0  0  0  0  0  0
   21.9857   -8.5282  -15.3708 C   0  0  0  0  0  0  0  0  0  0  0  0
   23.0251   -8.0667  -15.9724 O   0  0  0  0  0  0  0  0  0  0  0  0
   21.0931   -7.5816  -14.8918 N   0  0  0  0  0  0  0  0  0  0  0  0
   21.2769   -6.1397  -15.0023 C   0  0  1  0  0  0  0  0  0  0  0  0
   19.9861   -5.4540  -15.4059 C   0  0  0  0  0  0  0  0  0  0  0  0
   20.2526   -3.9733  -15.6131 C   0  0  0  0  0  0  0  0  0  0  0  0
   20.6775   -3.6825  -16.9965 C   0  0  0  0  0  0  0  0  0  0  0  0
   20.3472   -4.4385  -17.9384 O   0  0  0  0  0  0  0  0  0  0  0  0
   21.6538   -5.6340  -13.6665 C   0  0  0  0  0  0  0  0  0  0  0  0
   22.4289   -4.4987  -13.5547 O   0  0  0  0  0  0  0  0  0  0  0  0
   21.4572   -2.5722  -17.3413 O   0  0  0  0  0  0  0  0  0  0  0  0
   21.2783   -6.2240  -12.6314 O   0  0  0  0  0  0  0  0  0  0  0  0
  1  2  1  0
  2  4  1  0
  2  3  2  0
  5  7  1  0
  5  4  1  0
  5  6  1  6
  7  8  2  0
 10  9  1  6
 10 11  1  0
 10 12  1  0
 12 14  1  0
 12 13  1  6
 13  7  1  0
 14 15  2  0
 14 16  1  0
 16 17  1  0
 17 22  1  0
 17 18  1  1
 19 18  1  0
 20 19  1  0
 21 20  2  0
 22 23  1  0
 24 20  1  0
 25 22  2  0
M  END
$$$$
