NVE.pdb
     RDKit          3D

 25 24  0  0  1  0  0  0  0  0999 V2000
   22.2774  -11.0107  -14.3496 N   0  0  0  0  0  0  0  0  0  0  0  0
   22.3025   -9.6403  -13.9872 C   0  0  0  0  0  0  0  0  0  0  0  0
   23.0520   -9.3076  -13.0517 O   0  0  0  0  0  0  0  0  0  0  0  0
   21.4693   -8.6757  -14.7018 C   0  0  0  0  0  0  0  0  0  0  0  0
   20.5848   -9.2650  -15.7610 C   0  0  2  0  0  0  0  0  0  0  0  0
   21.4016   -9.7866  -16.8317 N   0  0  0  0  0  0  0  0  0  0  0  0
   19.6341   -8.2751  -16.3537 C   0  0  0  0  0  0  0  0  0  0  0  0
   19.9802   -7.6347  -17.3746 O   0  0  0  0  0  0  0  0  0  0  0  0
   15.1329   -6.8093  -17.3508 C   0  0  0  0  0  0  0  0  0  0  0  0
   16.1744   -7.7066  -16.7358 C   0  0  2  0  0  0  0  0  0  0  0  0
   15.5000   -8.5058  -15.6355 C   0  0  0  0  0  0  0  0  0  0  0  0
   17.4439   -7.0844  -16.3333 C   0  0  2  0  0  0  0  0  0  0  0  0
   18.3692   -8.0557  -15.7882 N   0  0  0  0  0  0  0  0  0  0  0  0
   17.4450   -5.8013  -15.6556 C   0  0  0  0  0  0  0  0  0  0  0  0
   17.4077   -5.8164  -14.3698 O   0  0  0  0  0  0  0  0  0  0  0  0
   17.4835   -4.5474  -16.2458 N   0  0  0  0  0  0  0  0  0  0  0  0
   17.5064   -3.2876  -15.5126 C   0  0  1  0  0  0  0  0  0  0  0  0
   17.6561   -2.1096  -16.4556 C   0  0  0  0  0  0  0  0  0  0  0  0
   17.7420   -0.8293  -15.6432 C   0  0  0  0  0  0  0  0  0  0  0  0
   17.8785    0.3591  -16.5081 C   0  0  0  0  0  0  0  0  0  0  0  0
   17.0653    0.5700  -17.4366 O   0  0  0  0  0  0  0  0  0  0  0  0
   16.2069   -3.1479  -14.8242 C   0  0  0  0  0  0  0  0  0  0  0  0
   15.0505   -3.5693  -15.4466 O   0  0  0  0  0  0  0  0  0  0  0  0
   18.8979    1.3059  -16.3541 O   0  0  0  0  0  0  0  0  0  0  0  0
   16.1408   -2.6505  -13.6803 O   0  0  0  0  0  0  0  0  0  0  0  0
  1  2  1  0
  2  4  1  0
  2  3  2  0
  5  7  1  0
  5  4  1  0
  5  6  1  6
  7  8  2  0
 10  9  1  1
 10 11  1  0
 10 12  1  0
 12 14  1  0
 12 13  1  1
 13  7  1  0
 14 15  2  0
 14 16  1  0
 16 17  1  0
 17 22  1  0
 17 18  1  6
 19 18  1  0
 20 19  1  0
 21 20  2  0
 22 23  1  0
 24 20  1  0
 25 22  2  0
M  END
$$$$
