NVE.pdb
     RDKit          3D

 25 24  0  0  1  0  0  0  0  0999 V2000
   20.7589  -13.5607  -20.5818 N   0  0  0  0  0  0  0  0  0  0  0  0
   20.1386  -12.3317  -20.2433 C   0  0  0  0  0  0  0  0  0  0  0  0
   19.2355  -11.9189  -20.9927 O   0  0  0  0  0  0  0  0  0  0  0  0
   20.5632  -11.5973  -19.0535 C   0  0  0  0  0  0  0  0  0  0  0  0
   21.6146  -12.2803  -18.2293 C   0  0  2  0  0  0  0  0  0  0  0  0
   21.0417  -13.4399  -17.5868 N   0  0  0  0  0  0  0  0  0  0  0  0
   22.1887  -11.4049  -17.1620 C   0  0  0  0  0  0  0  0  0  0  0  0
   21.4381  -10.9862  -16.2491 O   0  0  0  0  0  0  0  0  0  0  0  0
   26.2239   -9.7243  -14.8133 C   0  0  0  0  0  0  0  0  0  0  0  0
   25.5121  -10.5424  -15.8583 C   0  0  2  0  0  0  0  0  0  0  0  0
   26.4075  -10.6029  -17.0825 C   0  0  0  0  0  0  0  0  0  0  0  0
   24.1163  -10.1878  -16.1530 C   0  0  2  0  0  0  0  0  0  0  0  0
   23.5458  -11.0494  -17.1673 N   0  0  0  0  0  0  0  0  0  0  0  0
   23.7227   -8.7947  -16.2516 C   0  0  0  0  0  0  0  0  0  0  0  0
   24.0770   -8.1580  -17.3119 O   0  0  0  0  0  0  0  0  0  0  0  0
   22.9983   -8.0656  -15.3212 N   0  0  0  0  0  0  0  0  0  0  0  0
   22.7045   -6.6420  -15.4316 C   0  0  1  0  0  0  0  0  0  0  0  0
   21.3551   -6.4118  -16.0836 C   0  0  0  0  0  0  0  0  0  0  0  0
   20.2935   -7.1798  -15.3155 C   0  0  0  0  0  0  0  0  0  0  0  0
   18.9624   -7.0450  -15.9390 C   0  0  0  0  0  0  0  0  0  0  0  0
   18.4792   -7.9774  -16.6209 O   0  0  0  0  0  0  0  0  0  0  0  0
   22.6399   -6.0919  -14.0621 C   0  0  0  0  0  0  0  0  0  0  0  0
   22.5849   -6.9456  -12.9803 O   0  0  0  0  0  0  0  0  0  0  0  0
   18.1705   -5.8975  -15.8145 O   0  0  0  0  0  0  0  0  0  0  0  0
   22.6341   -4.8577  -13.8698 O   0  0  0  0  0  0  0  0  0  0  0  0
  1  2  1  0
  2  4  1  0
  2  3  2  0
  5  7  1  0
  5  4  1  0
  5  6  1  1
  7  8  2  0
 10  9  1  1
 10 11  1  0
 10 12  1  0
 12 14  1  0
 12 13  1  6
 13  7  1  0
 14 15  2  0
 14 16  1  0
 16 17  1  0
 17 22  1  0
 17 18  1  1
 19 18  1  0
 20 19  1  0
 21 20  2  0
 22 23  1  0
 24 20  1  0
 25 22  2  0
M  END
$$$$
