NVE.pdb
     RDKit          3D

 25 24  0  0  1  0  0  0  0  0999 V2000
   13.6360  -13.7455  -10.2529 N   0  0  0  0  0  0  0  0  0  0  0  0
   14.8945  -13.4891  -10.8532 C   0  0  0  0  0  0  0  0  0  0  0  0
   15.6472  -14.4606  -11.0460 O   0  0  0  0  0  0  0  0  0  0  0  0
   15.2687  -12.1255  -11.2219 C   0  0  0  0  0  0  0  0  0  0  0  0
   14.3414  -11.0571  -10.7218 C   0  0  2  0  0  0  0  0  0  0  0  0
   13.0543  -11.2023  -11.3603 N   0  0  0  0  0  0  0  0  0  0  0  0
   14.8333   -9.6725  -10.9974 C   0  0  0  0  0  0  0  0  0  0  0  0
   14.6287   -9.1673  -12.1266 O   0  0  0  0  0  0  0  0  0  0  0  0
   15.9694   -6.9259   -7.8074 C   0  0  0  0  0  0  0  0  0  0  0  0
   15.5262   -6.6548   -9.2210 C   0  0  2  0  0  0  0  0  0  0  0  0
   14.0233   -6.4436   -9.1983 C   0  0  0  0  0  0  0  0  0  0  0  0
   15.9853   -7.5884  -10.2595 C   0  0  2  0  0  0  0  0  0  0  0  0
   15.5144   -8.9359  -10.0167 N   0  0  0  0  0  0  0  0  0  0  0  0
   17.3416   -7.5041  -10.7683 C   0  0  0  0  0  0  0  0  0  0  0  0
   18.2594   -8.1043  -10.0957 O   0  0  0  0  0  0  0  0  0  0  0  0
   17.7629   -6.8429  -11.9117 N   0  0  0  0  0  0  0  0  0  0  0  0
   19.1257   -6.8695  -12.4288 C   0  0  1  0  0  0  0  0  0  0  0  0
   19.2287   -7.7610  -13.6510 C   0  0  0  0  0  0  0  0  0  0  0  0
   20.6240   -7.6410  -14.2386 C   0  0  0  0  0  0  0  0  0  0  0  0
   20.8222   -8.5673  -15.3707 C   0  0  0  0  0  0  0  0  0  0  0  0
   20.9191   -8.1336  -16.5414 O   0  0  0  0  0  0  0  0  0  0  0  0
   19.4716   -5.4954  -12.8464 C   0  0  0  0  0  0  0  0  0  0  0  0
   20.7929   -5.1023  -12.8902 O   0  0  0  0  0  0  0  0  0  0  0  0
   20.9129   -9.9557  -15.2179 O   0  0  0  0  0  0  0  0  0  0  0  0
   18.5790   -4.6804  -13.1617 O   0  0  0  0  0  0  0  0  0  0  0  0
  1  2  1  0
  2  4  1  0
  2  3  2  0
  5  7  1  0
  5  4  1  0
  5  6  1  6
  7  8  2  0
 10  9  1  1
 10 11  1  0
 10 12  1  0
 12 14  1  0
 12 13  1  1
 13  7  1  0
 14 15  2  0
 14 16  1  0
 16 17  1  0
 17 22  1  0
 17 18  1  6
 19 18  1  0
 20 19  1  0
 21 20  2  0
 22 23  1  0
 24 20  1  0
 25 22  2  0
M  END
$$$$
