NVE.pdb
     RDKit          3D

 25 24  0  0  1  0  0  0  0  0999 V2000
   18.0468  -14.8328  -19.2762 N   0  0  0  0  0  0  0  0  0  0  0  0
   17.6128  -13.4848  -19.2099 C   0  0  0  0  0  0  0  0  0  0  0  0
   16.7631  -13.1138  -20.0393 O   0  0  0  0  0  0  0  0  0  0  0  0
   18.1592  -12.5858  -18.1957 C   0  0  0  0  0  0  0  0  0  0  0  0
   19.2085  -13.1922  -17.3110 C   0  0  2  0  0  0  0  0  0  0  0  0
   18.5979  -14.1767  -16.4488 N   0  0  0  0  0  0  0  0  0  0  0  0
   19.8986  -12.1904  -16.4420 C   0  0  0  0  0  0  0  0  0  0  0  0
   19.2384  -11.5938  -15.5585 O   0  0  0  0  0  0  0  0  0  0  0  0
   24.1242  -10.4716  -14.5459 C   0  0  0  0  0  0  0  0  0  0  0  0
   23.2981  -11.3951  -15.4019 C   0  0  2  0  0  0  0  0  0  0  0  0
   24.1547  -11.8161  -16.5821 C   0  0  0  0  0  0  0  0  0  0  0  0
   21.9493  -10.9417  -15.7710 C   0  0  2  0  0  0  0  0  0  0  0  0
   21.2644  -11.9118  -16.5995 N   0  0  0  0  0  0  0  0  0  0  0  0
   21.7217   -9.5585  -16.1455 C   0  0  0  0  0  0  0  0  0  0  0  0
   21.9787   -9.2296  -17.3624 O   0  0  0  0  0  0  0  0  0  0  0  0
   21.2517   -8.5409  -15.3295 N   0  0  0  0  0  0  0  0  0  0  0  0
   21.0437   -7.1637  -15.7599 C   0  0  1  0  0  0  0  0  0  0  0  0
   19.5684   -6.8139  -15.7771 C   0  0  0  0  0  0  0  0  0  0  0  0
   19.4076   -5.3526  -16.1585 C   0  0  0  0  0  0  0  0  0  0  0  0
   17.9872   -4.9792  -16.3065 C   0  0  0  0  0  0  0  0  0  0  0  0
   17.4753   -4.8518  -17.4421 O   0  0  0  0  0  0  0  0  0  0  0  0
   21.7012   -6.2832  -14.7727 C   0  0  0  0  0  0  0  0  0  0  0  0
   21.9146   -6.7317  -13.4861 O   0  0  0  0  0  0  0  0  0  0  0  0
   17.1381   -4.7481  -15.2178 O   0  0  0  0  0  0  0  0  0  0  0  0
   22.0683   -5.1319  -15.0892 O   0  0  0  0  0  0  0  0  0  0  0  0
  1  2  1  0
  2  4  1  0
  2  3  2  0
  5  7  1  0
  5  4  1  0
  5  6  1  1
  7  8  2  0
 10  9  1  6
 10 11  1  0
 10 12  1  0
 12 14  1  0
 12 13  1  6
 13  7  1  0
 14 15  2  0
 14 16  1  0
 16 17  1  0
 17 22  1  0
 17 18  1  1
 19 18  1  0
 20 19  1  0
 21 20  2  0
 22 23  1  0
 24 20  1  0
 25 22  2  0
M  END
$$$$
