NVE.pdb
     RDKit          3D

 25 24  0  0  1  0  0  0  0  0999 V2000
   16.9682  -22.4426  -13.5649 N   0  0  0  0  0  0  0  0  0  0  0  0
   18.3217  -22.8301  -13.3980 C   0  0  0  0  0  0  0  0  0  0  0  0
   18.5461  -24.0144  -13.0904 O   0  0  0  0  0  0  0  0  0  0  0  0
   19.3938  -21.8550  -13.5860 C   0  0  0  0  0  0  0  0  0  0  0  0
   20.3831  -21.7766  -12.4606 C   0  0  2  0  0  0  0  0  0  0  0  0
   19.7337  -21.2385  -11.2883 N   0  0  0  0  0  0  0  0  0  0  0  0
   21.5599  -20.9076  -12.7690 C   0  0  0  0  0  0  0  0  0  0  0  0
   21.4378  -19.6630  -12.6789 O   0  0  0  0  0  0  0  0  0  0  0  0
   25.6929  -22.4505  -13.0482 C   0  0  0  0  0  0  0  0  0  0  0  0
   25.1310  -21.1038  -12.6758 C   0  0  2  0  0  0  0  0  0  0  0  0
   24.9617  -21.0782  -11.1676 C   0  0  0  0  0  0  0  0  0  0  0  0
   23.9515  -20.6392  -13.4199 C   0  0  2  0  0  0  0  0  0  0  0  0
   22.7899  -21.4618  -13.1537 N   0  0  0  0  0  0  0  0  0  0  0  0
   24.0826  -20.2060  -14.7985 C   0  0  0  0  0  0  0  0  0  0  0  0
   23.8750  -21.0867  -15.7131 O   0  0  0  0  0  0  0  0  0  0  0  0
   24.4090  -18.9347  -15.2449 N   0  0  0  0  0  0  0  0  0  0  0  0
   24.5345  -18.5563  -16.6472 C   0  0  1  0  0  0  0  0  0  0  0  0
   24.5225  -17.0487  -16.8092 C   0  0  0  0  0  0  0  0  0  0  0  0
   24.5625  -16.7066  -18.2883 C   0  0  0  0  0  0  0  0  0  0  0  0
   24.5851  -15.2476  -18.5118 C   0  0  0  0  0  0  0  0  0  0  0  0
   25.4978  -14.5412  -18.0262 O   0  0  0  0  0  0  0  0  0  0  0  0
   25.8423  -19.0478  -17.1269 C   0  0  0  0  0  0  0  0  0  0  0  0
   25.9603  -19.5528  -18.4049 O   0  0  0  0  0  0  0  0  0  0  0  0
   23.6147  -14.5720  -19.2611 O   0  0  0  0  0  0  0  0  0  0  0  0
   26.8480  -19.0122  -16.3869 O   0  0  0  0  0  0  0  0  0  0  0  0
  1  2  1  0
  2  4  1  0
  2  3  2  0
  5  7  1  0
  5  4  1  0
  5  6  1  1
  7  8  2  0
 10  9  1  6
 10 11  1  0
 10 12  1  0
 12 14  1  0
 12 13  1  6
 13  7  1  0
 14 15  2  0
 14 16  1  0
 16 17  1  0
 17 22  1  0
 17 18  1  1
 19 18  1  0
 20 19  1  0
 21 20  2  0
 22 23  1  0
 24 20  1  0
 25 22  2  0
M  END
$$$$
