NVE.pdb
     RDKit          3D

 25 24  0  0  1  0  0  0  0  0999 V2000
   16.3644  -12.5458  -17.3706 N   0  0  0  0  0  0  0  0  0  0  0  0
   16.7513  -12.9730  -16.0753 C   0  0  0  0  0  0  0  0  0  0  0  0
   16.0849  -13.8812  -15.5475 O   0  0  0  0  0  0  0  0  0  0  0  0
   17.8937  -12.3530  -15.4077 C   0  0  0  0  0  0  0  0  0  0  0  0
   18.5297  -11.2216  -16.1606 C   0  0  2  0  0  0  0  0  0  0  0  0
   19.3005  -11.7514  -17.2609 N   0  0  0  0  0  0  0  0  0  0  0  0
   19.4468  -10.3941  -15.3183 C   0  0  0  0  0  0  0  0  0  0  0  0
   19.0205   -9.9215  -14.2381 O   0  0  0  0  0  0  0  0  0  0  0  0
   23.8332  -10.1579  -15.9740 C   0  0  0  0  0  0  0  0  0  0  0  0
   22.9760  -10.0058  -14.7452 C   0  0  2  0  0  0  0  0  0  0  0  0
   22.9022  -11.3613  -14.0662 C   0  0  0  0  0  0  0  0  0  0  0  0
   21.6726   -9.3470  -14.9129 C   0  0  2  0  0  0  0  0  0  0  0  0
   20.7682  -10.1424  -15.7167 N   0  0  0  0  0  0  0  0  0  0  0  0
   21.6034   -7.9187  -15.1589 C   0  0  0  0  0  0  0  0  0  0  0  0
   21.7593   -7.5237  -16.3733 O   0  0  0  0  0  0  0  0  0  0  0  0
   21.3841   -6.9214  -14.2211 N   0  0  0  0  0  0  0  0  0  0  0  0
   21.3668   -5.4944  -14.5186 C   0  0  1  0  0  0  0  0  0  0  0  0
   19.9680   -4.9252  -14.3830 C   0  0  0  0  0  0  0  0  0  0  0  0
   19.2362   -5.0823  -15.7045 C   0  0  0  0  0  0  0  0  0  0  0  0
   17.8737   -4.5173  -15.6457 C   0  0  0  0  0  0  0  0  0  0  0  0
   17.4629   -3.9472  -14.6093 O   0  0  0  0  0  0  0  0  0  0  0  0
   22.2233   -4.8201  -13.5217 C   0  0  0  0  0  0  0  0  0  0  0  0
   22.7197   -5.5306  -12.4489 O   0  0  0  0  0  0  0  0  0  0  0  0
   16.9721   -4.5783  -16.7147 O   0  0  0  0  0  0  0  0  0  0  0  0
   22.5054   -3.6088  -13.6377 O   0  0  0  0  0  0  0  0  0  0  0  0
  1  2  1  0
  2  4  1  0
  2  3  2  0
  5  7  1  0
  5  4  1  0
  5  6  1  6
  7  8  2  0
 10  9  1  6
 10 11  1  0
 10 12  1  0
 12 14  1  0
 12 13  1  6
 13  7  1  0
 14 15  2  0
 14 16  1  0
 16 17  1  0
 17 22  1  0
 17 18  1  1
 19 18  1  0
 20 19  1  0
 21 20  2  0
 22 23  1  0
 24 20  1  0
 25 22  2  0
M  END
$$$$
