NVE.pdb
     RDKit          3D

 25 24  0  0  1  0  0  0  0  0999 V2000
   17.9985  -13.5278  -20.0109 N   0  0  0  0  0  0  0  0  0  0  0  0
   18.5978  -12.2451  -19.9387 C   0  0  0  0  0  0  0  0  0  0  0  0
   18.7100  -11.6034  -20.9984 O   0  0  0  0  0  0  0  0  0  0  0  0
   19.0580  -11.7202  -18.6549 C   0  0  0  0  0  0  0  0  0  0  0  0
   20.4773  -11.2334  -18.6417 C   0  0  2  0  0  0  0  0  0  0  0  0
   21.3705  -12.3558  -18.8096 N   0  0  0  0  0  0  0  0  0  0  0  0
   20.8512  -10.5394  -17.3715 C   0  0  0  0  0  0  0  0  0  0  0  0
   19.9428  -10.1604  -16.5948 O   0  0  0  0  0  0  0  0  0  0  0  0
   25.0331  -10.2503  -15.8959 C   0  0  0  0  0  0  0  0  0  0  0  0
   23.7171  -10.2563  -15.1637 C   0  0  2  0  0  0  0  0  0  0  0  0
   23.4483  -11.6809  -14.7143 C   0  0  0  0  0  0  0  0  0  0  0  0
   22.5757   -9.6115  -15.8286 C   0  0  2  0  0  0  0  0  0  0  0  0
   22.1945  -10.3093  -17.0388 N   0  0  0  0  0  0  0  0  0  0  0  0
   22.5047   -8.1648  -15.9169 C   0  0  0  0  0  0  0  0  0  0  0  0
   23.1198   -7.6055  -16.8987 O   0  0  0  0  0  0  0  0  0  0  0  0
   21.8397   -7.3090  -15.0524 N   0  0  0  0  0  0  0  0  0  0  0  0
   21.8473   -5.8550  -15.1581 C   0  0  1  0  0  0  0  0  0  0  0  0
   20.4789   -5.3285  -15.5446 C   0  0  0  0  0  0  0  0  0  0  0  0
   20.5617   -3.8250  -15.7428 C   0  0  0  0  0  0  0  0  0  0  0  0
   19.8003   -3.3870  -16.9292 C   0  0  0  0  0  0  0  0  0  0  0  0
   19.1167   -4.2043  -17.5868 O   0  0  0  0  0  0  0  0  0  0  0  0
   22.1756   -5.3121  -13.8241 C   0  0  0  0  0  0  0  0  0  0  0  0
   22.6292   -4.0153  -13.7022 O   0  0  0  0  0  0  0  0  0  0  0  0
   19.7902   -2.0646  -17.3879 O   0  0  0  0  0  0  0  0  0  0  0  0
   22.0475   -6.0153  -12.7997 O   0  0  0  0  0  0  0  0  0  0  0  0
  1  2  1  0
  2  4  1  0
  2  3  2  0
  5  7  1  0
  5  4  1  0
  5  6  1  1
  7  8  2  0
 10  9  1  6
 10 11  1  0
 10 12  1  0
 12 14  1  0
 12 13  1  6
 13  7  1  0
 14 15  2  0
 14 16  1  0
 16 17  1  0
 17 22  1  0
 17 18  1  1
 19 18  1  0
 20 19  1  0
 21 20  2  0
 22 23  1  0
 24 20  1  0
 25 22  2  0
M  END
$$$$
