NVE.pdb
     RDKit          3D

 25 24  0  0  1  0  0  0  0  0999 V2000
   18.5258  -22.7246  -11.6621 N   0  0  0  0  0  0  0  0  0  0  0  0
   18.8617  -22.4390  -13.0096 C   0  0  0  0  0  0  0  0  0  0  0  0
   18.1317  -22.9161  -13.8967 O   0  0  0  0  0  0  0  0  0  0  0  0
   20.0270  -21.6127  -13.3172 C   0  0  0  0  0  0  0  0  0  0  0  0
   20.8337  -21.1868  -12.1259 C   0  0  2  0  0  0  0  0  0  0  0  0
   20.1068  -20.1785  -11.3905 N   0  0  0  0  0  0  0  0  0  0  0  0
   22.1659  -20.6141  -12.4895 C   0  0  0  0  0  0  0  0  0  0  0  0
   22.2119  -19.5200  -13.1003 O   0  0  0  0  0  0  0  0  0  0  0  0
   26.0106  -22.2694  -10.9973 C   0  0  0  0  0  0  0  0  0  0  0  0
   25.6168  -20.8748  -11.4073 C   0  0  2  0  0  0  0  0  0  0  0  0
   25.2213  -20.1213  -10.1504 C   0  0  0  0  0  0  0  0  0  0  0  0
   24.6553  -20.7458  -12.5117 C   0  0  2  0  0  0  0  0  0  0  0  0
   23.3561  -21.2785  -12.1580 N   0  0  0  0  0  0  0  0  0  0  0  0
   25.0698  -21.0181  -13.8754 C   0  0  0  0  0  0  0  0  0  0  0  0
   25.0351  -22.2434  -14.2661 O   0  0  0  0  0  0  0  0  0  0  0  0
   25.5025  -20.0949  -14.8148 N   0  0  0  0  0  0  0  0  0  0  0  0
   25.2119  -20.1671  -16.2415 C   0  0  1  0  0  0  0  0  0  0  0  0
   23.7183  -20.1165  -16.4979 C   0  0  0  0  0  0  0  0  0  0  0  0
   23.4651  -20.2344  -17.9907 C   0  0  0  0  0  0  0  0  0  0  0  0
   22.7734  -21.4935  -18.3303 C   0  0  0  0  0  0  0  0  0  0  0  0
   21.5355  -21.6034  -18.1774 O   0  0  0  0  0  0  0  0  0  0  0  0
   25.8165  -18.9806  -16.8809 C   0  0  0  0  0  0  0  0  0  0  0  0
   25.7151  -17.7461  -16.2743 O   0  0  0  0  0  0  0  0  0  0  0  0
   23.4352  -22.6199  -18.8328 O   0  0  0  0  0  0  0  0  0  0  0  0
   26.4213  -19.0807  -17.9693 O   0  0  0  0  0  0  0  0  0  0  0  0
  1  2  1  0
  2  4  1  0
  2  3  2  0
  5  7  1  0
  5  4  1  0
  5  6  1  6
  7  8  2  0
 10  9  1  1
 10 11  1  0
 10 12  1  0
 12 14  1  0
 12 13  1  1
 13  7  1  0
 14 15  2  0
 14 16  1  0
 16 17  1  0
 17 22  1  0
 17 18  1  1
 19 18  1  0
 20 19  1  0
 21 20  2  0
 22 23  1  0
 24 20  1  0
 25 22  2  0
M  END
$$$$
