QRI.pdb
     RDKit          3D

 29 28  0  0  1  0  0  0  0  0999 V2000
   15.3494  -14.3130   18.5916 N   0  0  0  0  0  0  0  0  0  0  0  0
   13.9531  -14.1288   18.4255 C   0  0  0  0  0  0  0  0  0  0  0  0
   13.4882  -13.1620   17.7796 O   0  0  0  0  0  0  0  0  0  0  0  0
   12.9555  -15.0898   19.0195 C   0  0  0  0  0  0  0  0  0  0  0  0
   13.3428  -15.4856   20.3995 C   0  0  0  0  0  0  0  0  0  0  0  0
   12.3090  -16.2050   21.1988 C   0  0  2  0  0  0  0  0  0  0  0  0
   11.6889  -17.1774   20.2815 N   0  0  0  0  0  0  0  0  0  0  0  0
   11.2244  -15.3274   21.7250 C   0  0  0  0  0  0  0  0  0  0  0  0
   11.0374  -14.2067   21.1839 O   0  0  0  0  0  0  0  0  0  0  0  0
    8.1650  -12.3412   18.3956 N   0  0  0  0  0  0  0  0  0  0  0  0
    8.4594  -13.6672   17.9869 C   0  0  0  0  0  0  0  0  0  0  0  0
    9.3178  -13.8270   17.0478 N   0  0  0  0  0  0  0  0  0  0  0  0
    7.8587  -14.8192   18.5578 N   0  0  0  0  0  0  0  0  0  0  0  0
    7.0170  -14.7410   19.7319 C   0  0  0  0  0  0  0  0  0  0  0  0
    7.8558  -14.4334   20.9540 C   0  0  0  0  0  0  0  0  0  0  0  0
    8.2706  -15.7278   21.6144 C   0  0  0  0  0  0  0  0  0  0  0  0
    8.9772  -15.5318   22.9053 C   0  0  2  0  0  0  0  0  0  0  0  0
   10.4030  -15.7246   22.8123 N   0  0  0  0  0  0  0  0  0  0  0  0
    8.3496  -16.2029   24.0750 C   0  0  0  0  0  0  0  0  0  0  0  0
    8.2781  -17.4406   24.2325 O   0  0  0  0  0  0  0  0  0  0  0  0
    9.5937  -14.7515   16.6500 C   0  0  0  0  0  0  0  0  0  0  0  0
    6.1743  -12.1637   27.0559 C   0  0  0  0  0  0  0  0  0  0  0  0
    7.3118  -12.8949   26.3395 C   0  0  2  0  0  0  0  0  0  0  0  0
    7.7883  -14.0670   27.1350 C   0  0  0  0  0  0  0  0  0  0  0  0
    8.6093  -13.5598   28.3095 C   0  0  2  0  0  0  0  0  0  0  0  0
    8.6055  -14.9883   26.2676 N   0  0  0  0  0  0  0  0  0  0  0  0
    7.7863  -15.4003   25.0970 C   0  0  0  0  0  0  0  0  0  0  0  0
    8.9075  -16.2228   27.0056 O   0  0  0  0  0  0  0  0  0  0  0  0
    8.0815  -17.1771   26.9645 O   0  0  0  0  0  0  0  0  0  0  0  0
  2  1  1  0
  2  3  2  0
  4  2  1  0
  5  6  1  0
  5  4  1  0
  6  7  1  6
  8  9  2  0
  8  6  1  0
 10 11  1  0
 11 12  2  0
 13 11  1  0
 13 14  1  0
 15 14  1  0
 16 15  1  0
 17 16  1  6
 17 18  1  0
 18  8  1  0
 19 26  1  0
 19 17  1  0
 20 19  2  0
 22 21  1  0
 23 22  1  0
 23 25  1  0
 23 24  1  1
 25 26  1  6
 25 27  1  0
 27 29  1  0
 28 27  2  0
M  END
$$$$
