QRI.pdb
     RDKit          3D

 29 28  0  0  1  0  0  0  0  0999 V2000
    7.4165  -12.2699   16.6599 N   0  0  0  0  0  0  0  0  0  0  0  0
    7.6991  -13.6595   16.6558 C   0  0  0  0  0  0  0  0  0  0  0  0
    7.1768  -14.4358   15.8235 O   0  0  0  0  0  0  0  0  0  0  0  0
    8.6450  -14.2742   17.6554 C   0  0  0  0  0  0  0  0  0  0  0  0
    9.1345  -13.2620   18.6285 C   0  0  0  0  0  0  0  0  0  0  0  0
   10.0337  -13.7606   19.7093 C   0  0  2  0  0  0  0  0  0  0  0  0
   10.8264  -14.8487   19.1100 N   0  0  0  0  0  0  0  0  0  0  0  0
    9.3162  -14.3234   20.8891 C   0  0  0  0  0  0  0  0  0  0  0  0
    8.5050  -13.5889   21.5104 O   0  0  0  0  0  0  0  0  0  0  0  0
   11.1090  -20.1618   21.4137 N   0  0  0  0  0  0  0  0  0  0  0  0
   10.2868  -20.5350   20.3198 C   0  0  0  0  0  0  0  0  0  0  0  0
   10.8588  -21.0202   19.2797 N   0  0  0  0  0  0  0  0  0  0  0  0
    8.8740  -20.4010   20.3145 N   0  0  0  0  0  0  0  0  0  0  0  0
    8.1509  -19.8776   21.4530 C   0  0  0  0  0  0  0  0  0  0  0  0
    8.0714  -18.3681   21.3700 C   0  0  0  0  0  0  0  0  0  0  0  0
    8.9552  -17.7616   22.4352 C   0  0  0  0  0  0  0  0  0  0  0  0
    8.9057  -16.2781   22.4688 C   0  0  2  0  0  0  0  0  0  0  0  0
    9.5240  -15.6589   21.3230 N   0  0  0  0  0  0  0  0  0  0  0  0
    9.2870  -15.6646   23.7690 C   0  0  0  0  0  0  0  0  0  0  0  0
   10.4609  -15.4390   24.1334 O   0  0  0  0  0  0  0  0  0  0  0  0
   10.3549  -21.3503   18.4276 C   0  0  0  0  0  0  0  0  0  0  0  0
    5.8257  -12.0357   25.8294 C   0  0  0  0  0  0  0  0  0  0  0  0
    7.0968  -12.7952   25.4429 C   0  0  2  0  0  0  0  0  0  0  0  0
    7.4207  -13.8551   26.4456 C   0  0  0  0  0  0  0  0  0  0  0  0
    7.7172  -13.1911   27.7806 C   0  0  2  0  0  0  0  0  0  0  0  0
    8.5979  -14.6713   25.9796 N   0  0  0  0  0  0  0  0  0  0  0  0
    8.2612  -15.3011   24.6754 C   0  0  0  0  0  0  0  0  0  0  0  0
    8.8324  -15.7793   26.9162 O   0  0  0  0  0  0  0  0  0  0  0  0
    8.1689  -16.8451   26.7807 O   0  0  0  0  0  0  0  0  0  0  0  0
  2  1  1  0
  2  3  2  0
  4  2  1  0
  5  6  1  0
  5  4  1  0
  6  7  1  6
  8  9  2  0
  8  6  1  0
 10 11  1  0
 11 12  2  0
 13 11  1  0
 13 14  1  0
 15 14  1  0
 16 15  1  0
 17 16  1  1
 17 18  1  0
 18  8  1  0
 19 26  1  0
 19 17  1  0
 20 19  2  0
 22 21  1  0
 23 22  1  0
 23 25  1  0
 23 24  1  6
 25 26  1  6
 25 27  1  0
 27 29  1  0
 28 27  2  0
M  END
$$$$
