QRI.pdb
     RDKit          3D

 29 28  0  0  1  0  0  0  0  0999 V2000
    9.8540  -13.0368   17.4508 N   0  0  0  0  0  0  0  0  0  0  0  0
    8.7097  -13.6798   16.9141 C   0  0  0  0  0  0  0  0  0  0  0  0
    8.7838  -14.4315   15.9154 O   0  0  0  0  0  0  0  0  0  0  0  0
    7.3427  -13.4905   17.5202 C   0  0  0  0  0  0  0  0  0  0  0  0
    7.4071  -13.4837   19.0057 C   0  0  0  0  0  0  0  0  0  0  0  0
    8.1843  -14.5868   19.6416 C   0  0  2  0  0  0  0  0  0  0  0  0
    7.9158  -15.7911   18.8360 N   0  0  0  0  0  0  0  0  0  0  0  0
    7.7824  -14.8858   21.0461 C   0  0  0  0  0  0  0  0  0  0  0  0
    7.6145  -13.9273   21.8441 O   0  0  0  0  0  0  0  0  0  0  0  0
    6.5934  -19.6523   27.3905 N   0  0  0  0  0  0  0  0  0  0  0  0
    7.4720  -20.4708   26.6354 C   0  0  0  0  0  0  0  0  0  0  0  0
    8.3907  -21.1041   27.2673 N   0  0  0  0  0  0  0  0  0  0  0  0
    7.3893  -20.6257   25.2272 N   0  0  0  0  0  0  0  0  0  0  0  0
    6.3736  -19.9583   24.4424 C   0  0  0  0  0  0  0  0  0  0  0  0
    6.6400  -18.4685   24.4049 C   0  0  0  0  0  0  0  0  0  0  0  0
    7.0241  -18.0645   23.0003 C   0  0  0  0  0  0  0  0  0  0  0  0
    7.2589  -16.6063   22.8490 C   0  0  2  0  0  0  0  0  0  0  0  0
    7.5842  -16.2161   21.4997 N   0  0  0  0  0  0  0  0  0  0  0  0
    8.1374  -15.9992   23.8843 C   0  0  0  0  0  0  0  0  0  0  0  0
    9.3866  -16.0320   23.8672 O   0  0  0  0  0  0  0  0  0  0  0  0
    9.1012  -21.7209   26.8159 C   0  0  0  0  0  0  0  0  0  0  0  0
    5.6484  -11.9076   26.5583 C   0  0  0  0  0  0  0  0  0  0  0  0
    6.6966  -12.7183   25.7929 C   0  0  2  0  0  0  0  0  0  0  0  0
    7.4605  -13.6185   26.7092 C   0  0  0  0  0  0  0  0  0  0  0  0
    8.2652  -12.7641   27.6754 C   0  0  2  0  0  0  0  0  0  0  0  0
    8.3639  -14.5255   25.9153 N   0  0  0  0  0  0  0  0  0  0  0  0
    7.5359  -15.3294   24.9777 C   0  0  0  0  0  0  0  0  0  0  0  0
    9.0095  -15.4910   26.8159 O   0  0  0  0  0  0  0  0  0  0  0  0
    8.3830  -16.5386   27.1394 O   0  0  0  0  0  0  0  0  0  0  0  0
  2  1  1  0
  2  3  2  0
  4  2  1  0
  5  6  1  0
  5  4  1  0
  6  7  1  6
  8  9  2  0
  8  6  1  0
 10 11  1  0
 11 12  2  0
 13 11  1  0
 13 14  1  0
 15 14  1  0
 16 15  1  0
 17 16  1  6
 17 18  1  0
 18  8  1  0
 19 26  1  0
 19 17  1  0
 20 19  2  0
 22 21  1  0
 23 22  1  0
 23 25  1  0
 23 24  1  1
 25 26  1  6
 25 27  1  0
 27 29  1  0
 28 27  2  0
M  END
$$$$
