QRI.pdb
     RDKit          3D

 29 28  0  0  1  0  0  0  0  0999 V2000
    7.7227  -14.0464   15.7487 N   0  0  0  0  0  0  0  0  0  0  0  0
    7.3968  -13.1819   16.8245 C   0  0  0  0  0  0  0  0  0  0  0  0
    6.4731  -12.3409   16.7375 O   0  0  0  0  0  0  0  0  0  0  0  0
    8.1476  -13.2316   18.1305 C   0  0  0  0  0  0  0  0  0  0  0  0
    9.1026  -14.3708   18.1611 C   0  0  0  0  0  0  0  0  0  0  0  0
    9.8831  -14.5493   19.4198 C   0  0  2  0  0  0  0  0  0  0  0  0
   10.7097  -15.7526   19.2193 N   0  0  0  0  0  0  0  0  0  0  0  0
    9.0439  -14.7763   20.6313 C   0  0  0  0  0  0  0  0  0  0  0  0
    8.3846  -13.8121   21.0996 O   0  0  0  0  0  0  0  0  0  0  0  0
    8.4206  -20.2822   19.1002 N   0  0  0  0  0  0  0  0  0  0  0  0
    9.0654  -20.8184   20.2442 C   0  0  0  0  0  0  0  0  0  0  0  0
   10.1560  -21.4689   20.0662 N   0  0  0  0  0  0  0  0  0  0  0  0
    8.5714  -20.6746   21.5668 N   0  0  0  0  0  0  0  0  0  0  0  0
    7.3369  -19.9757   21.8507 C   0  0  0  0  0  0  0  0  0  0  0  0
    7.4858  -18.5042   21.5277 C   0  0  0  0  0  0  0  0  0  0  0  0
    8.0667  -17.7862   22.7239 C   0  0  0  0  0  0  0  0  0  0  0  0
    8.2800  -16.3349   22.4947 C   0  0  2  0  0  0  0  0  0  0  0  0
    8.9705  -16.0456   21.2626 N   0  0  0  0  0  0  0  0  0  0  0  0
    8.7938  -15.5807   23.6692 C   0  0  0  0  0  0  0  0  0  0  0  0
   10.0011  -15.3499   23.8952 O   0  0  0  0  0  0  0  0  0  0  0  0
   10.7092  -21.9160   20.8299 C   0  0  0  0  0  0  0  0  0  0  0  0
    5.8460  -11.5455   25.8646 C   0  0  0  0  0  0  0  0  0  0  0  0
    7.0035  -12.4366   25.4084 C   0  0  2  0  0  0  0  0  0  0  0  0
    7.2681  -13.5282   26.3943 C   0  0  0  0  0  0  0  0  0  0  0  0
    7.6859  -12.9033   27.7155 C   0  0  2  0  0  0  0  0  0  0  0  0
    8.3394  -14.4512   25.8751 N   0  0  0  0  0  0  0  0  0  0  0  0
    7.8650  -15.0778   24.6128 C   0  0  0  0  0  0  0  0  0  0  0  0
    8.5428  -15.5549   26.8239 O   0  0  0  0  0  0  0  0  0  0  0  0
    7.7866  -16.5641   26.7589 O   0  0  0  0  0  0  0  0  0  0  0  0
  2  1  1  0
  2  3  2  0
  4  2  1  0
  5  6  1  0
  5  4  1  0
  6  7  1  6
  8  9  2  0
  8  6  1  0
 10 11  1  0
 11 12  2  0
 13 11  1  0
 13 14  1  0
 15 14  1  0
 16 15  1  0
 17 16  1  1
 17 18  1  0
 18  8  1  0
 19 26  1  0
 19 17  1  0
 20 19  2  0
 22 21  1  0
 23 22  1  0
 23 25  1  0
 23 24  1  1
 25 26  1  6
 25 27  1  0
 27 29  1  0
 28 27  2  0
M  END
$$$$
