QRI.pdb
     RDKit          3D

 29 28  0  0  1  0  0  0  0  0999 V2000
    6.0866  -14.4111   15.6651 N   0  0  0  0  0  0  0  0  0  0  0  0
    7.3012  -14.2573   16.3805 C   0  0  0  0  0  0  0  0  0  0  0  0
    8.1540  -13.4002   16.0547 O   0  0  0  0  0  0  0  0  0  0  0  0
    7.6283  -15.1199   17.5725 C   0  0  0  0  0  0  0  0  0  0  0  0
    7.4438  -14.3740   18.8455 C   0  0  0  0  0  0  0  0  0  0  0  0
    8.5554  -14.4662   19.8361 C   0  0  2  0  0  0  0  0  0  0  0  0
    9.4213  -15.5659   19.3754 N   0  0  0  0  0  0  0  0  0  0  0  0
    8.1124  -14.7923   21.2220 C   0  0  0  0  0  0  0  0  0  0  0  0
    7.2487  -14.0586   21.7691 O   0  0  0  0  0  0  0  0  0  0  0  0
    5.7889  -22.0282   26.2570 N   0  0  0  0  0  0  0  0  0  0  0  0
    6.7510  -21.0725   26.6732 C   0  0  0  0  0  0  0  0  0  0  0  0
    6.8049  -20.7824   27.9210 N   0  0  0  0  0  0  0  0  0  0  0  0
    7.6514  -20.4243   25.7882 N   0  0  0  0  0  0  0  0  0  0  0  0
    7.2025  -19.7959   24.5649 C   0  0  0  0  0  0  0  0  0  0  0  0
    7.4532  -18.3041   24.6237 C   0  0  0  0  0  0  0  0  0  0  0  0
    7.9153  -17.8210   23.2684 C   0  0  0  0  0  0  0  0  0  0  0  0
    8.1929  -16.3631   23.2247 C   0  0  2  0  0  0  0  0  0  0  0  0
    8.6369  -15.9037   21.9323 N   0  0  0  0  0  0  0  0  0  0  0  0
    8.9956  -15.8406   24.3626 C   0  0  0  0  0  0  0  0  0  0  0  0
    9.7633  -16.5291   25.0685 O   0  0  0  0  0  0  0  0  0  0  0  0
    7.5086  -20.1417   28.3493 C   0  0  0  0  0  0  0  0  0  0  0  0
    6.0941  -11.5998   25.9269 C   0  0  0  0  0  0  0  0  0  0  0  0
    7.3784  -12.3169   25.5051 C   0  0  2  0  0  0  0  0  0  0  0  0
    7.8049  -13.3140   26.5336 C   0  0  0  0  0  0  0  0  0  0  0  0
    8.0183  -12.5931   27.8548 C   0  0  2  0  0  0  0  0  0  0  0  0
    9.0658  -14.0105   26.0930 N   0  0  0  0  0  0  0  0  0  0  0  0
    8.8988  -14.4653   24.6872 C   0  0  0  0  0  0  0  0  0  0  0  0
    9.2626  -15.2280   26.8922 O   0  0  0  0  0  0  0  0  0  0  0  0
    8.5581  -16.2453   26.6401 O   0  0  0  0  0  0  0  0  0  0  0  0
  2  1  1  0
  2  3  2  0
  4  2  1  0
  5  6  1  0
  5  4  1  0
  6  7  1  6
  8  9  2  0
  8  6  1  0
 10 11  1  0
 11 12  2  0
 13 11  1  0
 13 14  1  0
 15 14  1  0
 16 15  1  0
 17 16  1  6
 17 18  1  0
 18  8  1  0
 19 26  1  0
 19 17  1  0
 20 19  2  0
 22 21  1  0
 23 22  1  0
 23 25  1  0
 23 24  1  1
 25 26  1  6
 25 27  1  0
 27 29  1  0
 28 27  2  0
M  END
$$$$
