QRI.pdb
     RDKit          3D

 29 28  0  0  1  0  0  0  0  0999 V2000
   14.0265  -19.2080   19.4796 N   0  0  0  0  0  0  0  0  0  0  0  0
   13.9488  -20.2486   20.4398 C   0  0  0  0  0  0  0  0  0  0  0  0
   14.3196  -21.4157   20.1782 O   0  0  0  0  0  0  0  0  0  0  0  0
   13.4145  -20.0020   21.8274 C   0  0  0  0  0  0  0  0  0  0  0  0
   12.9779  -18.5905   21.9948 C   0  0  0  0  0  0  0  0  0  0  0  0
   11.8569  -18.3511   22.9494 C   0  0  2  0  0  0  0  0  0  0  0  0
   10.8151  -19.3363   22.6095 N   0  0  0  0  0  0  0  0  0  0  0  0
   11.2454  -16.9951   22.8450 C   0  0  0  0  0  0  0  0  0  0  0  0
   11.9420  -15.9925   23.1503 O   0  0  0  0  0  0  0  0  0  0  0  0
    7.6069  -14.0977   16.8430 N   0  0  0  0  0  0  0  0  0  0  0  0
    8.4555  -13.4749   17.7938 C   0  0  0  0  0  0  0  0  0  0  0  0
    9.3866  -12.7106   17.3543 N   0  0  0  0  0  0  0  0  0  0  0  0
    8.3301  -13.6511   19.1964 N   0  0  0  0  0  0  0  0  0  0  0  0
    7.0939  -14.0925   19.8046 C   0  0  0  0  0  0  0  0  0  0  0  0
    7.2904  -14.3001   21.2912 C   0  0  0  0  0  0  0  0  0  0  0  0
    7.9502  -15.6391   21.5262 C   0  0  0  0  0  0  0  0  0  0  0  0
    9.2381  -15.5420   22.2583 C   0  0  2  0  0  0  0  0  0  0  0  0
    9.9068  -16.8102   22.4107 N   0  0  0  0  0  0  0  0  0  0  0  0
    9.1961  -14.7257   23.5009 C   0  0  0  0  0  0  0  0  0  0  0  0
    9.4015  -13.4940   23.5515 O   0  0  0  0  0  0  0  0  0  0  0  0
   10.1005  -12.2429   17.9550 C   0  0  0  0  0  0  0  0  0  0  0  0
    6.5034  -11.5302   26.5511 C   0  0  0  0  0  0  0  0  0  0  0  0
    7.6696  -12.5022   26.7435 C   0  0  2  0  0  0  0  0  0  0  0  0
    7.5406  -13.6883   25.8433 C   0  0  0  0  0  0  0  0  0  0  0  0
    6.2715  -14.4422   26.2066 C   0  0  2  0  0  0  0  0  0  0  0  0
    8.7491  -14.5775   25.9761 N   0  0  0  0  0  0  0  0  0  0  0  0
    8.9033  -15.3703   24.7276 C   0  0  0  0  0  0  0  0  0  0  0  0
    8.5279  -15.5542   27.0517 O   0  0  0  0  0  0  0  0  0  0  0  0
    8.5303  -15.1551   28.2497 O   0  0  0  0  0  0  0  0  0  0  0  0
  2  1  1  0
  2  3  2  0
  4  2  1  0
  5  6  1  0
  5  4  1  0
  6  7  1  6
  8  9  2  0
  8  6  1  0
 10 11  1  0
 11 12  2  0
 13 11  1  0
 13 14  1  0
 15 14  1  0
 16 15  1  0
 17 16  1  1
 17 18  1  0
 18  8  1  0
 19 26  1  0
 19 17  1  0
 20 19  2  0
 22 21  1  0
 23 22  1  0
 23 25  1  0
 23 24  1  6
 25 26  1  1
 25 27  1  0
 27 29  1  0
 28 27  2  0
M  END
$$$$
