YFT.pdb
     RDKit          3D

 31 32  0  0  1  0  0  0  0  0999 V2000
   15.7769  -13.5495  -23.1309 O   0  0  0  0  0  0  0  0  0  0  0  0
   16.8120  -13.0198  -22.3955 C   0  0  0  0  0  0  0  0  0  0  0  0
   18.1054  -13.2800  -22.7530 C   0  0  0  0  0  0  0  0  0  0  0  0
   19.1304  -12.7470  -22.0128 C   0  0  0  0  0  0  0  0  0  0  0  0
   18.8904  -11.9444  -20.9018 C   0  0  0  0  0  0  0  0  0  0  0  0
   20.0025  -11.3769  -20.1115 C   0  0  0  0  0  0  0  0  0  0  0  0
   20.2122   -9.9503  -20.6062 C   0  0  2  0  0  0  0  0  0  0  0  0
   21.1425  -10.0324  -21.7130 N   0  0  0  0  0  0  0  0  0  0  0  0
   20.7605   -9.0689  -19.5801 C   0  0  0  0  0  0  0  0  0  0  0  0
   21.9968   -9.1061  -19.3812 O   0  0  0  0  0  0  0  0  0  0  0  0
   17.5909  -11.6824  -20.5420 C   0  0  0  0  0  0  0  0  0  0  0  0
   16.5416  -12.2230  -21.2929 C   0  0  0  0  0  0  0  0  0  0  0  0
   19.9043   -8.2101  -18.8481 N   0  0  0  0  0  0  0  0  0  0  0  0
   20.4896   -7.3486  -17.8515 C   0  0  1  0  0  0  0  0  0  0  0  0
   19.8333   -5.9996  -17.9104 C   0  0  0  0  0  0  0  0  0  0  0  0
   20.2180   -5.2594  -19.1247 C   0  0  0  0  0  0  0  0  0  0  0  0
   21.4044   -4.5665  -19.1429 C   0  0  0  0  0  0  0  0  0  0  0  0
   21.7383   -3.8794  -20.2800 C   0  0  0  0  0  0  0  0  0  0  0  0
   20.9203   -3.8728  -21.3817 C   0  0  0  0  0  0  0  0  0  0  0  0
   19.7273   -4.5610  -21.3828 C   0  0  0  0  0  0  0  0  0  0  0  0
   19.3978   -5.2563  -20.2207 C   0  0  0  0  0  0  0  0  0  0  0  0
   20.3201   -7.9932  -16.5144 C   0  0  0  0  0  0  0  0  0  0  0  0
   19.2224   -8.1725  -15.9410 O   0  0  0  0  0  0  0  0  0  0  0  0
   22.4763  -11.2171  -15.3158 C   0  0  0  0  0  0  0  0  0  0  0  0
   22.4512  -10.1269  -14.2878 C   0  0  1  0  0  0  0  0  0  0  0  0
   23.6494   -9.3924  -14.2820 O   0  0  0  0  0  0  0  0  0  0  0  0
   21.3025   -9.1699  -14.5397 C   0  0  2  0  0  0  0  0  0  0  0  0
   21.4798   -8.4594  -15.7937 N   0  0  0  0  0  0  0  0  0  0  0  0
   21.2345   -8.2140  -13.3997 C   0  0  0  0  0  0  0  0  0  0  0  0
   21.4223   -6.9868  -13.6341 O   0  0  0  0  0  0  0  0  0  0  0  0
   20.9775   -8.6266  -12.1252 O   0  0  0  0  0  0  0  0  0  0  0  0
  2 12  2  0
  2  1  1  0
  3  2  1  0
  4  5  1  0
  4  3  2  0
  5 11  2  0
  6  5  1  0
  6  7  1  0
  7  8  1  6
  9  7  1  0
  9 13  1  0
 10  9  2  0
 11 12  1  0
 13 14  1  0
 15 16  1  0
 14 15  1  1
 16 17  2  0
 17 18  1  0
 19 18  2  0
 20 19  1  0
 21 20  2  0
 21 16  1  0
 22 23  2  0
 22 14  1  0
 25 24  1  6
 25 27  1  0
 26 25  1  0
 27 28  1  6
 27 29  1  0
 28 22  1  0
 29 31  1  0
 30 29  2  0
M  END
$$$$
