YFT.pdb
     RDKit          3D

 31 32  0  0  1  0  0  0  0  0999 V2000
   29.4772  -16.4149  -22.8291 O   0  0  0  0  0  0  0  0  0  0  0  0
   29.4885  -17.6606  -22.2453 C   0  0  0  0  0  0  0  0  0  0  0  0
   30.2434  -18.6617  -22.7896 C   0  0  0  0  0  0  0  0  0  0  0  0
   30.2476  -19.9005  -22.1998 C   0  0  0  0  0  0  0  0  0  0  0  0
   29.5014  -20.1694  -21.0566 C   0  0  0  0  0  0  0  0  0  0  0  0
   29.5129  -21.5079  -20.4308 C   0  0  0  0  0  0  0  0  0  0  0  0
   30.2392  -21.3656  -19.0981 C   0  0  2  0  0  0  0  0  0  0  0  0
   31.6412  -21.1853  -19.4120 N   0  0  0  0  0  0  0  0  0  0  0  0
   30.0840  -22.5358  -18.2397 C   0  0  0  0  0  0  0  0  0  0  0  0
   31.0250  -23.3623  -18.2072 O   0  0  0  0  0  0  0  0  0  0  0  0
   28.7427  -19.1637  -20.5090 C   0  0  0  0  0  0  0  0  0  0  0  0
   28.7344  -17.8985  -21.1059 C   0  0  0  0  0  0  0  0  0  0  0  0
   28.9016  -22.7089  -17.4792 N   0  0  0  0  0  0  0  0  0  0  0  0
   28.8559  -23.7859  -16.5222 C   0  0  1  0  0  0  0  0  0  0  0  0
   28.1637  -23.3164  -15.2753 C   0  0  0  0  0  0  0  0  0  0  0  0
   29.0227  -22.4225  -14.4794 C   0  0  0  0  0  0  0  0  0  0  0  0
   28.6729  -21.1011  -14.3403 C   0  0  0  0  0  0  0  0  0  0  0  0
   29.4903  -20.2867  -13.6019 C   0  0  0  0  0  0  0  0  0  0  0  0
   30.6330  -20.7623  -13.0094 C   0  0  0  0  0  0  0  0  0  0  0  0
   31.0005  -22.0834  -13.1373 C   0  0  0  0  0  0  0  0  0  0  0  0
   30.1616  -22.9026  -13.8907 C   0  0  0  0  0  0  0  0  0  0  0  0
   28.1497  -24.9432  -17.1498 C   0  0  0  0  0  0  0  0  0  0  0  0
   27.1825  -24.8486  -17.9382 O   0  0  0  0  0  0  0  0  0  0  0  0
   30.0557  -28.3188  -18.4612 C   0  0  0  0  0  0  0  0  0  0  0  0
   28.8682  -28.6043  -17.5926 C   0  0  1  0  0  0  0  0  0  0  0  0
   29.2528  -28.9405  -16.2833 O   0  0  0  0  0  0  0  0  0  0  0  0
   27.9423  -27.4055  -17.5283 C   0  0  2  0  0  0  0  0  0  0  0  0
   28.5799  -26.2883  -16.8545 N   0  0  0  0  0  0  0  0  0  0  0  0
   26.7024  -27.8130  -16.8110 C   0  0  0  0  0  0  0  0  0  0  0  0
   25.9895  -28.7254  -17.3166 O   0  0  0  0  0  0  0  0  0  0  0  0
   26.3230  -27.2320  -15.6366 O   0  0  0  0  0  0  0  0  0  0  0  0
  2 12  2  0
  2  1  1  0
  3  2  1  0
  4  5  1  0
  4  3  2  0
  5 11  2  0
  6  5  1  0
  6  7  1  0
  7  8  1  6
  9  7  1  0
  9 13  1  0
 10  9  2  0
 11 12  1  0
 13 14  1  0
 15 16  1  0
 14 15  1  1
 16 17  2  0
 17 18  1  0
 19 18  2  0
 20 19  1  0
 21 20  2  0
 21 16  1  0
 22 23  2  0
 22 14  1  0
 25 24  1  6
 25 27  1  0
 26 25  1  0
 27 28  1  1
 27 29  1  0
 28 22  1  0
 29 31  1  0
 30 29  2  0
M  END
$$$$
