YFT.pdb
     RDKit          3D

 31 32  0  0  1  0  0  0  0  0999 V2000
   31.8530   -9.9320  -19.1632 O   0  0  0  0  0  0  0  0  0  0  0  0
   30.5484   -9.5051  -19.0715 C   0  0  0  0  0  0  0  0  0  0  0  0
   30.0940   -8.9459  -17.9099 C   0  0  0  0  0  0  0  0  0  0  0  0
   28.7911   -8.5236  -17.8288 C   0  0  0  0  0  0  0  0  0  0  0  0
   27.9131   -8.6484  -18.9010 C   0  0  0  0  0  0  0  0  0  0  0  0
   26.5116   -8.1909  -18.8016 C   0  0  0  0  0  0  0  0  0  0  0  0
   25.8145   -9.1169  -17.8115 C   0  0  2  0  0  0  0  0  0  0  0  0
   25.8584  -10.4438  -18.3899 N   0  0  0  0  0  0  0  0  0  0  0  0
   24.4249   -8.7434  -17.5671 C   0  0  0  0  0  0  0  0  0  0  0  0
   23.5375   -9.3510  -18.2097 O   0  0  0  0  0  0  0  0  0  0  0  0
   28.3691   -9.2101  -20.0687 C   0  0  0  0  0  0  0  0  0  0  0  0
   29.6965   -9.6427  -20.1574 C   0  0  0  0  0  0  0  0  0  0  0  0
   24.1154   -7.7263  -16.6310 N   0  0  0  0  0  0  0  0  0  0  0  0
   22.7284   -7.4707  -16.3329 C   0  0  1  0  0  0  0  0  0  0  0  0
   22.4839   -7.6913  -14.8682 C   0  0  0  0  0  0  0  0  0  0  0  0
   22.3834   -9.1246  -14.5427 C   0  0  0  0  0  0  0  0  0  0  0  0
   23.5063   -9.8018  -14.1320 C   0  0  0  0  0  0  0  0  0  0  0  0
   23.3910  -11.1355  -13.8417 C   0  0  0  0  0  0  0  0  0  0  0  0
   22.1923  -11.7941  -13.9530 C   0  0  0  0  0  0  0  0  0  0  0  0
   21.0559  -11.1329  -14.3632 C   0  0  0  0  0  0  0  0  0  0  0  0
   21.1849   -9.7764  -14.6558 C   0  0  0  0  0  0  0  0  0  0  0  0
   22.4086   -6.0713  -16.7470 C   0  0  0  0  0  0  0  0  0  0  0  0
   23.2077   -5.1097  -16.6947 O   0  0  0  0  0  0  0  0  0  0  0  0
   21.4749   -4.5433  -20.0259 C   0  0  0  0  0  0  0  0  0  0  0  0
   20.3258   -4.3329  -19.0871 C   0  0  1  0  0  0  0  0  0  0  0  0
   19.3200   -5.2964  -19.2750 O   0  0  0  0  0  0  0  0  0  0  0  0
   20.7860   -4.3943  -17.6438 C   0  0  2  0  0  0  0  0  0  0  0  0
   21.0935   -5.7581  -17.2509 N   0  0  0  0  0  0  0  0  0  0  0  0
   19.7060   -3.8317  -16.7865 C   0  0  0  0  0  0  0  0  0  0  0  0
   19.0855   -4.6144  -16.0128 O   0  0  0  0  0  0  0  0  0  0  0  0
   19.3752   -2.5087  -16.8163 O   0  0  0  0  0  0  0  0  0  0  0  0
  2 12  2  0
  2  1  1  0
  3  2  1  0
  4  5  1  0
  4  3  2  0
  5 11  2  0
  6  5  1  0
  6  7  1  0
  7  8  1  6
  9  7  1  0
  9 13  1  0
 10  9  2  0
 11 12  1  0
 13 14  1  0
 15 16  1  0
 14 15  1  1
 16 17  2  0
 17 18  1  0
 19 18  2  0
 20 19  1  0
 21 20  2  0
 21 16  1  0
 22 23  2  0
 22 14  1  0
 25 24  1  6
 25 27  1  0
 26 25  1  0
 27 28  1  1
 27 29  1  0
 28 22  1  0
 29 31  1  0
 30 29  2  0
M  END
$$$$
