YFT.pdb
     RDKit          3D

 31 32  0  0  1  0  0  0  0  0999 V2000
   27.0263  -19.5597  -22.8029 O   0  0  0  0  0  0  0  0  0  0  0  0
   26.4422  -20.7125  -22.3312 C   0  0  0  0  0  0  0  0  0  0  0  0
   26.6882  -21.9050  -22.9525 C   0  0  0  0  0  0  0  0  0  0  0  0
   26.1006  -23.0489  -22.4742 C   0  0  0  0  0  0  0  0  0  0  0  0
   25.2563  -23.0307  -21.3683 C   0  0  0  0  0  0  0  0  0  0  0  0
   24.6283  -24.2691  -20.8629 C   0  0  0  0  0  0  0  0  0  0  0  0
   25.5342  -24.8049  -19.7602 C   0  0  2  0  0  0  0  0  0  0  0  0
   26.6181  -25.5008  -20.4216 N   0  0  0  0  0  0  0  0  0  0  0  0
   24.8479  -25.7263  -18.8600 C   0  0  0  0  0  0  0  0  0  0  0  0
   24.6136  -26.8833  -19.2797 O   0  0  0  0  0  0  0  0  0  0  0  0
   25.0088  -21.8328  -20.7435 C   0  0  0  0  0  0  0  0  0  0  0  0
   25.6050  -20.6630  -21.2265 C   0  0  0  0  0  0  0  0  0  0  0  0
   24.4702  -25.3040  -17.5618 N   0  0  0  0  0  0  0  0  0  0  0  0
   23.7793  -26.2414  -16.7121 C   0  0  1  0  0  0  0  0  0  0  0  0
   24.5862  -26.4755  -15.4678 C   0  0  0  0  0  0  0  0  0  0  0  0
   25.7719  -27.3075  -15.7361 C   0  0  0  0  0  0  0  0  0  0  0  0
   25.6656  -28.6753  -15.6599 C   0  0  0  0  0  0  0  0  0  0  0  0
   26.7828  -29.4287  -15.9062 C   0  0  0  0  0  0  0  0  0  0  0  0
   27.9854  -28.8485  -16.2223 C   0  0  0  0  0  0  0  0  0  0  0  0
   28.1121  -27.4795  -16.3033 C   0  0  0  0  0  0  0  0  0  0  0  0
   26.9692  -26.7230  -16.0508 C   0  0  0  0  0  0  0  0  0  0  0  0
   22.4265  -25.6878  -16.4034 C   0  0  0  0  0  0  0  0  0  0  0  0
   22.2115  -24.5571  -15.9121 O   0  0  0  0  0  0  0  0  0  0  0  0
   18.8974  -28.0139  -17.2523 C   0  0  0  0  0  0  0  0  0  0  0  0
   18.8996  -26.5186  -17.3532 C   0  0  1  0  0  0  0  0  0  0  0  0
   17.6443  -25.9756  -17.0302 O   0  0  0  0  0  0  0  0  0  0  0  0
   19.9370  -25.9139  -16.4276 C   0  0  2  0  0  0  0  0  0  0  0  0
   21.2514  -26.4795  -16.6751 N   0  0  0  0  0  0  0  0  0  0  0  0
   19.5121  -26.1680  -15.0230 C   0  0  0  0  0  0  0  0  0  0  0  0
   20.1290  -27.0489  -14.3599 O   0  0  0  0  0  0  0  0  0  0  0  0
   18.4862  -25.4811  -14.4430 O   0  0  0  0  0  0  0  0  0  0  0  0
  2 12  2  0
  2  1  1  0
  3  2  1  0
  4  5  1  0
  4  3  2  0
  5 11  2  0
  6  5  1  0
  6  7  1  0
  7  8  1  6
  9  7  1  0
  9 13  1  0
 10  9  2  0
 11 12  1  0
 13 14  1  0
 15 16  1  0
 14 15  1  1
 16 17  2  0
 17 18  1  0
 19 18  2  0
 20 19  1  0
 21 20  2  0
 21 16  1  0
 22 23  2  0
 22 14  1  0
 25 24  1  1
 25 27  1  0
 26 25  1  0
 27 28  1  6
 27 29  1  0
 28 22  1  0
 29 31  1  0
 30 29  2  0
M  END
$$$$
