YFT.pdb
     RDKit          3D

 31 32  0  0  1  0  0  0  0  0999 V2000
   16.5243  -23.4582  -11.2708 O   0  0  0  0  0  0  0  0  0  0  0  0
   17.7738  -23.0938  -11.7166 C   0  0  0  0  0  0  0  0  0  0  0  0
   17.9062  -22.4186  -12.8977 C   0  0  0  0  0  0  0  0  0  0  0  0
   19.1567  -22.0599  -13.3334 C   0  0  0  0  0  0  0  0  0  0  0  0
   20.3015  -22.3653  -12.6038 C   0  0  0  0  0  0  0  0  0  0  0  0
   21.6434  -21.9748  -13.0838 C   0  0  0  0  0  0  0  0  0  0  0  0
   22.1796  -20.9402  -12.1010 C   0  0  2  0  0  0  0  0  0  0  0  0
   21.3489  -19.7636  -12.2499 N   0  0  0  0  0  0  0  0  0  0  0  0
   23.5715  -20.5830  -12.3567 C   0  0  0  0  0  0  0  0  0  0  0  0
   23.7948  -19.5094  -12.9625 O   0  0  0  0  0  0  0  0  0  0  0  0
   20.1692  -23.0437  -11.4168 C   0  0  0  0  0  0  0  0  0  0  0  0
   18.8967  -23.4121  -10.9673 C   0  0  0  0  0  0  0  0  0  0  0  0
   24.6162  -21.4367  -11.9249 N   0  0  0  0  0  0  0  0  0  0  0  0
   25.9767  -20.9907  -12.0924 C   0  0  1  0  0  0  0  0  0  0  0  0
   26.8071  -21.4785  -10.9407 C   0  0  0  0  0  0  0  0  0  0  0  0
   26.3677  -20.8888   -9.6642 C   0  0  0  0  0  0  0  0  0  0  0  0
   26.9932  -19.7594   -9.1939 C   0  0  0  0  0  0  0  0  0  0  0  0
   26.5730  -19.2327   -8.0012 C   0  0  0  0  0  0  0  0  0  0  0  0
   25.5548  -19.8057   -7.2817 C   0  0  0  0  0  0  0  0  0  0  0  0
   24.9157  -20.9378   -7.7362 C   0  0  0  0  0  0  0  0  0  0  0  0
   25.3514  -21.4651   -8.9505 C   0  0  0  0  0  0  0  0  0  0  0  0
   26.4822  -21.5041  -13.4012 C   0  0  0  0  0  0  0  0  0  0  0  0
   26.8006  -22.6928  -13.6282 O   0  0  0  0  0  0  0  0  0  0  0  0
   25.3747  -22.9032  -16.0903 C   0  0  0  0  0  0  0  0  0  0  0  0
   25.8984  -21.6040  -16.6230 C   0  0  1  0  0  0  0  0  0  0  0  0
   24.9076  -20.6072  -16.6239 O   0  0  0  0  0  0  0  0  0  0  0  0
   27.0724  -21.1133  -15.7987 C   0  0  2  0  0  0  0  0  0  0  0  0
   26.6307  -20.5987  -14.5147 N   0  0  0  0  0  0  0  0  0  0  0  0
   27.7760  -20.0547  -16.5747 C   0  0  0  0  0  0  0  0  0  0  0  0
   27.7709  -18.8754  -16.1213 O   0  0  0  0  0  0  0  0  0  0  0  0
   28.4174  -20.3245  -17.7479 O   0  0  0  0  0  0  0  0  0  0  0  0
  2 12  2  0
  2  1  1  0
  3  2  1  0
  4  5  1  0
  4  3  2  0
  5 11  2  0
  6  5  1  0
  6  7  1  0
  7  8  1  6
  9  7  1  0
  9 13  1  0
 10  9  2  0
 11 12  1  0
 13 14  1  0
 15 16  1  0
 14 15  1  1
 16 17  2  0
 17 18  1  0
 19 18  2  0
 20 19  1  0
 21 20  2  0
 21 16  1  0
 22 23  2  0
 22 14  1  0
 25 24  1  1
 25 27  1  0
 26 25  1  0
 27 28  1  1
 27 29  1  0
 28 22  1  0
 29 31  1  0
 30 29  2  0
M  END
$$$$
