YFT.pdb
     RDKit          3D

 31 32  0  0  1  0  0  0  0  0999 V2000
   22.2360  -13.2261  -25.2602 O   0  0  0  0  0  0  0  0  0  0  0  0
   21.8156  -12.4571  -24.1997 C   0  0  0  0  0  0  0  0  0  0  0  0
   20.4873  -12.4012  -23.8822 C   0  0  0  0  0  0  0  0  0  0  0  0
   20.0784  -11.6313  -22.8228 C   0  0  0  0  0  0  0  0  0  0  0  0
   20.9819  -10.9009  -22.0570 C   0  0  0  0  0  0  0  0  0  0  0  0
   20.5297  -10.0741  -20.9189 C   0  0  0  0  0  0  0  0  0  0  0  0
   20.9214  -10.8202  -19.6486 C   0  0  2  0  0  0  0  0  0  0  0  0
   20.1107  -12.0194  -19.6105 N   0  0  0  0  0  0  0  0  0  0  0  0
   20.6858  -10.0405  -18.4374 C   0  0  0  0  0  0  0  0  0  0  0  0
   19.5201  -10.0157  -17.9790 O   0  0  0  0  0  0  0  0  0  0  0  0
   22.3170  -10.9567  -22.3754 C   0  0  0  0  0  0  0  0  0  0  0  0
   22.7399  -11.7400  -23.4546 C   0  0  0  0  0  0  0  0  0  0  0  0
   21.7541   -9.3450  -17.8197 N   0  0  0  0  0  0  0  0  0  0  0  0
   21.4562   -8.4947  -16.6945 C   0  0  1  0  0  0  0  0  0  0  0  0
   22.6124   -8.5110  -15.7369 C   0  0  0  0  0  0  0  0  0  0  0  0
   22.3403   -7.6954  -14.5406 C   0  0  0  0  0  0  0  0  0  0  0  0
   22.6023   -6.3469  -14.5716 C   0  0  0  0  0  0  0  0  0  0  0  0
   22.3484   -5.6095  -13.4454 C   0  0  0  0  0  0  0  0  0  0  0  0
   21.8453   -6.1870  -12.3068 C   0  0  0  0  0  0  0  0  0  0  0  0
   21.5764   -7.5367  -12.2561 C   0  0  0  0  0  0  0  0  0  0  0  0
   21.8386   -8.2770  -13.4074 C   0  0  0  0  0  0  0  0  0  0  0  0
   21.1750   -7.1194  -17.2057 C   0  0  0  0  0  0  0  0  0  0  0  0
   21.8451   -6.5321  -18.0842 O   0  0  0  0  0  0  0  0  0  0  0  0
   18.1787   -5.6695  -18.9836 C   0  0  0  0  0  0  0  0  0  0  0  0
   18.3508   -4.9400  -17.6857 C   0  0  1  0  0  0  0  0  0  0  0  0
   17.4958   -5.4440  -16.6907 O   0  0  0  0  0  0  0  0  0  0  0  0
   19.7796   -5.0453  -17.1896 C   0  0  2  0  0  0  0  0  0  0  0  0
   20.0581   -6.3749  -16.6766 N   0  0  0  0  0  0  0  0  0  0  0  0
   19.9805   -4.0202  -16.1281 C   0  0  0  0  0  0  0  0  0  0  0  0
   19.9996   -2.8029  -16.4659 O   0  0  0  0  0  0  0  0  0  0  0  0
   20.1422   -4.3599  -14.8170 O   0  0  0  0  0  0  0  0  0  0  0  0
  2 12  2  0
  2  1  1  0
  3  2  1  0
  4  5  1  0
  4  3  2  0
  5 11  2  0
  6  5  1  0
  6  7  1  0
  7  8  1  1
  9  7  1  0
  9 13  1  0
 10  9  2  0
 11 12  1  0
 13 14  1  0
 15 16  1  0
 14 15  1  1
 16 17  2  0
 17 18  1  0
 19 18  2  0
 20 19  1  0
 21 20  2  0
 21 16  1  0
 22 23  2  0
 22 14  1  0
 25 24  1  6
 25 27  1  0
 26 25  1  0
 27 28  1  1
 27 29  1  0
 28 22  1  0
 29 31  1  0
 30 29  2  0
M  END
$$$$
