IMI.pdb
     RDKit          3D

 25 24  0  0  1  0  0  0  0  0999 V2000
   17.2196  -13.2992  -16.5344 C   0  0  0  0  0  0  0  0  0  0  0  0
   18.5019  -13.0521  -17.3114 C   0  0  0  0  0  0  0  0  0  0  0  0
   19.2854  -11.8828  -16.7562 C   0  0  2  0  0  0  0  0  0  0  0  0
   18.4892  -10.6609  -16.4960 C   0  0  0  0  0  0  0  0  0  0  0  0
   20.5020  -11.6869  -17.6459 C   0  0  2  0  0  0  0  0  0  0  0  0
   21.1959  -12.9907  -17.5841 N   0  0  0  0  0  0  0  0  0  0  0  0
   21.4150  -10.6643  -17.0221 C   0  0  0  0  0  0  0  0  0  0  0  0
   22.0055  -10.9799  -15.9790 O   0  0  0  0  0  0  0  0  0  0  0  0
   24.8135   -5.7449  -20.1136 C   0  0  0  0  0  0  0  0  0  0  0  0
   24.6170   -7.5179  -20.3855 S   0  0  0  0  0  0  0  0  0  0  0  0
   23.9109   -8.3630  -18.9424 C   0  0  0  0  0  0  0  0  0  0  0  0
   23.0204   -7.5046  -18.1368 C   0  0  0  0  0  0  0  0  0  0  0  0
   22.4149   -8.3559  -16.9953 C   0  0  2  0  0  0  0  0  0  0  0  0
   21.5901   -9.3838  -17.6128 N   0  0  0  0  0  0  0  0  0  0  0  0
   21.6368   -7.5806  -16.0496 C   0  0  0  0  0  0  0  0  0  0  0  0
   20.3665   -7.5508  -16.2201 O   0  0  0  0  0  0  0  0  0  0  0  0
   18.9608   -7.8963  -11.2891 C   0  0  0  0  0  0  0  0  0  0  0  0
   19.6032   -6.8163  -12.0987 C   0  0  0  0  0  0  0  0  0  0  0  0
   20.5916   -7.3400  -13.1091 C   0  0  2  0  0  0  0  0  0  0  0  0
   21.7151   -8.1050  -12.4205 C   0  0  0  0  0  0  0  0  0  0  0  0
   21.1352   -6.2460  -13.9641 C   0  0  2  0  0  0  0  0  0  0  0  0
   22.0794   -6.8338  -14.9417 N   0  0  0  0  0  0  0  0  0  0  0  0
   21.8170   -5.1494  -13.2321 C   0  0  0  0  0  0  0  0  0  0  0  0
   21.0906   -4.2686  -12.4759 O   0  0  0  0  0  0  0  0  0  0  0  0
   23.0857   -5.0043  -13.2928 O   0  0  0  0  0  0  0  0  0  0  0  0
  1  2  1  0
  3  2  1  0
  3  4  1  6
  5  3  1  0
  5  6  1  1
  7  8  2  0
  7  5  1  0
 10  9  1  0
 11 10  1  0
 12 11  1  0
 13 12  1  6
 13 14  1  0
 14  7  1  0
 15 13  1  0
 15 16  2  0
 18 17  1  0
 18 19  1  0
 19 20  1  1
 21 19  1  0
 21 22  1  6
 22 15  1  0
 23 21  1  0
 24 23  1  0
 25 23  2  0
M  END
$$$$
