IMI.pdb
     RDKit          3D

 25 24  0  0  1  0  0  0  0  0999 V2000
   27.9787  -19.9902   -5.9316 C   0  0  0  0  0  0  0  0  0  0  0  0
   26.5244  -19.6093   -6.1533 C   0  0  0  0  0  0  0  0  0  0  0  0
   25.8927  -20.4086   -7.2720 C   0  0  2  0  0  0  0  0  0  0  0  0
   25.8192  -21.8692   -7.0356 C   0  0  0  0  0  0  0  0  0  0  0  0
   26.5724  -19.9945   -8.5668 C   0  0  2  0  0  0  0  0  0  0  0  0
   26.2879  -18.5474   -8.6657 N   0  0  0  0  0  0  0  0  0  0  0  0
   25.8846  -20.6659   -9.7265 C   0  0  0  0  0  0  0  0  0  0  0  0
   26.2819  -21.7924  -10.0576 O   0  0  0  0  0  0  0  0  0  0  0  0
   19.6499  -21.6627  -11.2118 C   0  0  0  0  0  0  0  0  0  0  0  0
   20.3105  -21.0134  -12.7604 S   0  0  0  0  0  0  0  0  0  0  0  0
   22.1255  -20.9906  -12.7804 C   0  0  0  0  0  0  0  0  0  0  0  0
   22.7202  -20.4815  -11.5290 C   0  0  0  0  0  0  0  0  0  0  0  0
   24.2609  -20.5649  -11.6456 C   0  0  2  0  0  0  0  0  0  0  0  0
   24.8179  -20.0261  -10.4134 N   0  0  0  0  0  0  0  0  0  0  0  0
   24.7904  -19.8570  -12.7942 C   0  0  0  0  0  0  0  0  0  0  0  0
   24.7287  -18.5766  -12.7739 O   0  0  0  0  0  0  0  0  0  0  0  0
   29.6097  -20.4164  -13.4805 C   0  0  0  0  0  0  0  0  0  0  0  0
   28.2231  -19.8610  -13.5396 C   0  0  0  0  0  0  0  0  0  0  0  0
   27.5766  -20.0215  -14.8919 C   0  0  2  0  0  0  0  0  0  0  0  0
   28.3938  -19.3190  -15.9690 C   0  0  0  0  0  0  0  0  0  0  0  0
   26.1668  -19.5357  -14.8881 C   0  0  2  0  0  0  0  0  0  0  0  0
   25.3777  -20.3795  -13.9618 N   0  0  0  0  0  0  0  0  0  0  0  0
   25.4995  -19.5179  -16.2138 C   0  0  0  0  0  0  0  0  0  0  0  0
   24.8918  -20.6466  -16.6956 O   0  0  0  0  0  0  0  0  0  0  0  0
   25.4792  -18.4581  -16.9284 O   0  0  0  0  0  0  0  0  0  0  0  0
  1  2  1  0
  3  2  1  0
  3  4  1  1
  5  3  1  0
  5  6  1  6
  7  8  2  0
  7  5  1  0
 10  9  1  0
 11 10  1  0
 12 11  1  0
 13 12  1  1
 13 14  1  0
 14  7  1  0
 15 13  1  0
 15 16  2  0
 18 17  1  0
 18 19  1  0
 19 20  1  6
 21 19  1  0
 21 22  1  1
 22 15  1  0
 23 21  1  0
 24 23  1  0
 25 23  2  0
M  END
$$$$
