IMI.pdb
     RDKit          3D

 25 24  0  0  1  0  0  0  0  0999 V2000
   14.0922  -13.8877  -17.3280 C   0  0  0  0  0  0  0  0  0  0  0  0
   15.3129  -13.3594  -16.5931 C   0  0  0  0  0  0  0  0  0  0  0  0
   15.7835  -12.0350  -17.1536 C   0  0  2  0  0  0  0  0  0  0  0  0
   15.9720  -12.0068  -18.6228 C   0  0  0  0  0  0  0  0  0  0  0  0
   16.9881  -11.5976  -16.3366 C   0  0  2  0  0  0  0  0  0  0  0  0
   16.4575  -11.4839  -14.9617 N   0  0  0  0  0  0  0  0  0  0  0  0
   17.4082  -10.2175  -16.7695 C   0  0  0  0  0  0  0  0  0  0  0  0
   17.6568  -10.0418  -17.9711 O   0  0  0  0  0  0  0  0  0  0  0  0
   14.3227   -4.9350  -16.8011 C   0  0  0  0  0  0  0  0  0  0  0  0
   15.3216   -5.3861  -18.2346 S   0  0  0  0  0  0  0  0  0  0  0  0
   16.8006   -6.3327  -17.7744 C   0  0  0  0  0  0  0  0  0  0  0  0
   16.7044   -6.9617  -16.4424 C   0  0  0  0  0  0  0  0  0  0  0  0
   17.9659   -7.8281  -16.2138 C   0  0  2  0  0  0  0  0  0  0  0  0
   17.5141   -9.1572  -15.8295 N   0  0  0  0  0  0  0  0  0  0  0  0
   18.8620   -7.2868  -15.2114 C   0  0  0  0  0  0  0  0  0  0  0  0
   18.4398   -7.2581  -14.0012 O   0  0  0  0  0  0  0  0  0  0  0  0
   23.0453   -9.4513  -13.8769 C   0  0  0  0  0  0  0  0  0  0  0  0
   21.8406   -8.5758  -14.0066 C   0  0  0  0  0  0  0  0  0  0  0  0
   22.1789   -7.1091  -14.0885 C   0  0  2  0  0  0  0  0  0  0  0  0
   23.0050   -6.6764  -12.8836 C   0  0  0  0  0  0  0  0  0  0  0  0
   20.9543   -6.2696  -14.2267 C   0  0  2  0  0  0  0  0  0  0  0  0
   20.1623   -6.7725  -15.3723 N   0  0  0  0  0  0  0  0  0  0  0  0
   21.1994   -4.8170  -14.4085 C   0  0  0  0  0  0  0  0  0  0  0  0
   21.4307   -4.0152  -13.3227 O   0  0  0  0  0  0  0  0  0  0  0  0
   21.1982   -4.2880  -15.5722 O   0  0  0  0  0  0  0  0  0  0  0  0
  1  2  1  0
  3  2  1  0
  3  4  1  6
  5  3  1  0
  5  6  1  1
  7  8  2  0
  7  5  1  0
 10  9  1  0
 11 10  1  0
 12 11  1  0
 13 12  1  1
 13 14  1  0
 14  7  1  0
 15 13  1  0
 15 16  2  0
 18 17  1  0
 18 19  1  0
 19 20  1  1
 21 19  1  0
 21 22  1  6
 22 15  1  0
 23 21  1  0
 24 23  1  0
 25 23  2  0
M  END
$$$$
