IMI.pdb
     RDKit          3D

 25 24  0  0  1  0  0  0  0  0999 V2000
   28.1024  -17.6098  -19.4412 C   0  0  0  0  0  0  0  0  0  0  0  0
   28.5238  -18.3916  -18.2081 C   0  0  0  0  0  0  0  0  0  0  0  0
   27.4724  -18.3464  -17.1209 C   0  0  2  0  0  0  0  0  0  0  0  0
   26.9275  -16.9997  -16.8305 C   0  0  0  0  0  0  0  0  0  0  0  0
   28.0276  -19.0942  -15.9199 C   0  0  2  0  0  0  0  0  0  0  0  0
   28.4595  -20.3910  -16.4826 N   0  0  0  0  0  0  0  0  0  0  0  0
   26.9103  -19.3773  -14.9502 C   0  0  0  0  0  0  0  0  0  0  0  0
   26.4034  -18.4131  -14.3587 O   0  0  0  0  0  0  0  0  0  0  0  0
   23.6518  -25.4363  -14.1541 C   0  0  0  0  0  0  0  0  0  0  0  0
   22.5498  -24.0173  -13.9862 S   0  0  0  0  0  0  0  0  0  0  0  0
   23.4395  -22.5038  -13.5247 C   0  0  0  0  0  0  0  0  0  0  0  0
   24.5871  -22.2060  -14.4041 C   0  0  0  0  0  0  0  0  0  0  0  0
   25.3596  -21.0013  -13.8157 C   0  0  2  0  0  0  0  0  0  0  0  0
   26.4567  -20.7049  -14.7251 N   0  0  0  0  0  0  0  0  0  0  0  0
   25.8602  -21.2373  -12.4761 C   0  0  0  0  0  0  0  0  0  0  0  0
   26.8200  -22.0775  -12.3480 O   0  0  0  0  0  0  0  0  0  0  0  0
   27.3703  -18.5011   -8.0170 C   0  0  0  0  0  0  0  0  0  0  0  0
   26.3902  -19.1856   -8.9145 C   0  0  0  0  0  0  0  0  0  0  0  0
   26.7882  -20.5977   -9.2607 C   0  0  2  0  0  0  0  0  0  0  0  0
   28.0645  -20.6114  -10.0929 C   0  0  0  0  0  0  0  0  0  0  0  0
   25.6877  -21.3237   -9.9572 C   0  0  2  0  0  0  0  0  0  0  0  0
   25.4378  -20.6669  -11.2606 N   0  0  0  0  0  0  0  0  0  0  0  0
   24.4104  -21.4093   -9.2059 C   0  0  0  0  0  0  0  0  0  0  0  0
   24.3749  -21.9989   -7.9704 O   0  0  0  0  0  0  0  0  0  0  0  0
   23.3256  -20.9398   -9.6926 O   0  0  0  0  0  0  0  0  0  0  0  0
  1  2  1  0
  3  2  1  0
  3  4  1  1
  5  3  1  0
  5  6  1  6
  7  8  2  0
  7  5  1  0
 10  9  1  0
 11 10  1  0
 12 11  1  0
 13 12  1  6
 13 14  1  0
 14  7  1  0
 15 13  1  0
 15 16  2  0
 18 17  1  0
 18 19  1  0
 19 20  1  6
 21 19  1  0
 21 22  1  6
 22 15  1  0
 23 21  1  0
 24 23  1  0
 25 23  2  0
M  END
$$$$
