IMI.pdb
     RDKit          3D

 25 24  0  0  1  0  0  0  0  0999 V2000
   29.4817  -16.9912  -17.3243 C   0  0  0  0  0  0  0  0  0  0  0  0
   28.2254  -16.8000  -16.4910 C   0  0  0  0  0  0  0  0  0  0  0  0
   27.7606  -18.0944  -15.8601 C   0  0  2  0  0  0  0  0  0  0  0  0
   27.8354  -19.2838  -16.7402 C   0  0  0  0  0  0  0  0  0  0  0  0
   26.3992  -17.8334  -15.2367 C   0  0  2  0  0  0  0  0  0  0  0  0
   26.6527  -16.7267  -14.2902 N   0  0  0  0  0  0  0  0  0  0  0  0
   25.9866  -19.0321  -14.4233 C   0  0  0  0  0  0  0  0  0  0  0  0
   25.5628  -20.0240  -15.0341 O   0  0  0  0  0  0  0  0  0  0  0  0
   27.5912  -20.3483   -7.9843 C   0  0  0  0  0  0  0  0  0  0  0  0
   25.8406  -20.7590   -8.1353 S   0  0  0  0  0  0  0  0  0  0  0  0
   25.2978  -20.8401   -9.8657 C   0  0  0  0  0  0  0  0  0  0  0  0
   25.9400  -19.8308  -10.7305 C   0  0  0  0  0  0  0  0  0  0  0  0
   25.4468  -20.0396  -12.1822 C   0  0  2  0  0  0  0  0  0  0  0  0
   26.0819  -19.0212  -13.0056 N   0  0  0  0  0  0  0  0  0  0  0  0
   24.0050  -19.9737  -12.3153 C   0  0  0  0  0  0  0  0  0  0  0  0
   23.4674  -18.8098  -12.3050 O   0  0  0  0  0  0  0  0  0  0  0  0
   19.8479  -20.6028  -16.1418 C   0  0  0  0  0  0  0  0  0  0  0  0
   20.0508  -20.6084  -14.6608 C   0  0  0  0  0  0  0  0  0  0  0  0
   21.4928  -20.7874  -14.2598 C   0  0  2  0  0  0  0  0  0  0  0  0
   22.0690  -22.0605  -14.8669 C   0  0  0  0  0  0  0  0  0  0  0  0
   21.6560  -20.7801  -12.7777 C   0  0  2  0  0  0  0  0  0  0  0  0
   23.0806  -21.0256  -12.4570 N   0  0  0  0  0  0  0  0  0  0  0  0
   20.8187  -21.7615  -12.0435 C   0  0  0  0  0  0  0  0  0  0  0  0
   21.4046  -22.7929  -11.3592 O   0  0  0  0  0  0  0  0  0  0  0  0
   19.5439  -21.6664  -12.0358 O   0  0  0  0  0  0  0  0  0  0  0  0
  1  2  1  0
  3  2  1  0
  3  4  1  6
  5  3  1  0
  5  6  1  1
  7  8  2  0
  7  5  1  0
 10  9  1  0
 11 10  1  0
 12 11  1  0
 13 12  1  1
 13 14  1  0
 14  7  1  0
 15 13  1  0
 15 16  2  0
 18 17  1  0
 18 19  1  0
 19 20  1  1
 21 19  1  0
 21 22  1  6
 22 15  1  0
 23 21  1  0
 24 23  1  0
 25 23  2  0
M  END
$$$$
