IMI.pdb
     RDKit          3D

 25 24  0  0  1  0  0  0  0  0999 V2000
   26.0932  -15.4527  -17.3131 C   0  0  0  0  0  0  0  0  0  0  0  0
   27.2423  -16.4411  -17.2038 C   0  0  0  0  0  0  0  0  0  0  0  0
   27.0302  -17.4361  -16.0838 C   0  0  2  0  0  0  0  0  0  0  0  0
   26.7762  -16.8376  -14.7526 C   0  0  0  0  0  0  0  0  0  0  0  0
   28.1757  -18.4336  -16.1385 C   0  0  2  0  0  0  0  0  0  0  0  0
   28.0047  -19.0930  -17.4504 N   0  0  0  0  0  0  0  0  0  0  0  0
   27.9709  -19.4847  -15.0794 C   0  0  0  0  0  0  0  0  0  0  0  0
   27.0040  -20.2498  -15.2070 O   0  0  0  0  0  0  0  0  0  0  0  0
   32.6277  -22.3170  -10.7751 C   0  0  0  0  0  0  0  0  0  0  0  0
   31.2079  -21.6788   -9.8625 S   0  0  0  0  0  0  0  0  0  0  0  0
   29.7397  -21.4919  -10.9135 C   0  0  0  0  0  0  0  0  0  0  0  0
   29.9613  -20.6177  -12.0820 C   0  0  0  0  0  0  0  0  0  0  0  0
   28.6609  -20.5747  -12.9195 C   0  0  2  0  0  0  0  0  0  0  0  0
   28.8581  -19.5916  -13.9746 N   0  0  0  0  0  0  0  0  0  0  0  0
   27.4836  -20.2517  -12.1382 C   0  0  0  0  0  0  0  0  0  0  0  0
   27.4080  -19.0673  -11.6534 O   0  0  0  0  0  0  0  0  0  0  0  0
   21.5611  -20.0826  -11.7230 C   0  0  0  0  0  0  0  0  0  0  0  0
   22.8438  -20.0910  -10.9553 C   0  0  0  0  0  0  0  0  0  0  0  0
   24.0092  -20.6190  -11.7524 C   0  0  2  0  0  0  0  0  0  0  0  0
   23.7196  -22.0229  -12.2688 C   0  0  0  0  0  0  0  0  0  0  0  0
   25.2734  -20.5900  -10.9623 C   0  0  2  0  0  0  0  0  0  0  0  0
   26.3804  -21.0668  -11.8224 N   0  0  0  0  0  0  0  0  0  0  0  0
   25.2561  -21.3866   -9.7100 C   0  0  0  0  0  0  0  0  0  0  0  0
   24.5902  -20.9234   -8.6067 O   0  0  0  0  0  0  0  0  0  0  0  0
   25.8586  -22.5116   -9.6350 O   0  0  0  0  0  0  0  0  0  0  0  0
  1  2  1  0
  3  2  1  0
  3  4  1  1
  5  3  1  0
  5  6  1  6
  7  8  2  0
  7  5  1  0
 10  9  1  0
 11 10  1  0
 12 11  1  0
 13 12  1  1
 13 14  1  0
 14  7  1  0
 15 13  1  0
 15 16  2  0
 18 17  1  0
 18 19  1  0
 19 20  1  1
 21 19  1  0
 21 22  1  6
 22 15  1  0
 23 21  1  0
 24 23  1  0
 25 23  2  0
M  END
$$$$
