IMI.pdb
     RDKit          3D

 25 24  0  0  1  0  0  0  0  0999 V2000
   32.5376  -23.0273   -8.8645 C   0  0  0  0  0  0  0  0  0  0  0  0
   31.4319  -22.1747   -9.4643 C   0  0  0  0  0  0  0  0  0  0  0  0
   31.1442  -22.5480  -10.9022 C   0  0  2  0  0  0  0  0  0  0  0  0
   32.3300  -22.5882  -11.7893 C   0  0  0  0  0  0  0  0  0  0  0  0
   30.0047  -21.6642  -11.3823 C   0  0  2  0  0  0  0  0  0  0  0  0
   30.5731  -20.3006  -11.3330 N   0  0  0  0  0  0  0  0  0  0  0  0
   28.8796  -21.7163  -10.3824 C   0  0  0  0  0  0  0  0  0  0  0  0
   28.1257  -22.6998  -10.4147 O   0  0  0  0  0  0  0  0  0  0  0  0
   28.3682  -19.8244   -3.8596 C   0  0  0  0  0  0  0  0  0  0  0  0
   27.1214  -18.9426   -4.8210 S   0  0  0  0  0  0  0  0  0  0  0  0
   26.7615  -19.7618   -6.4004 C   0  0  0  0  0  0  0  0  0  0  0  0
   27.9149  -19.7950   -7.3210 C   0  0  0  0  0  0  0  0  0  0  0  0
   27.5220  -20.6125   -8.5747 C   0  0  2  0  0  0  0  0  0  0  0  0
   28.6931  -20.6721   -9.4370 N   0  0  0  0  0  0  0  0  0  0  0  0
   26.3910  -20.0583   -9.2919 C   0  0  0  0  0  0  0  0  0  0  0  0
   26.4708  -18.8314   -9.6554 O   0  0  0  0  0  0  0  0  0  0  0  0
   24.3102  -22.5325  -13.4355 C   0  0  0  0  0  0  0  0  0  0  0  0
   24.1364  -22.0018  -12.0489 C   0  0  0  0  0  0  0  0  0  0  0  0
   24.4114  -20.5237  -11.9402 C   0  0  2  0  0  0  0  0  0  0  0  0
   25.8167  -20.1974  -12.4303 C   0  0  0  0  0  0  0  0  0  0  0  0
   24.2007  -20.0263  -10.5504 C   0  0  2  0  0  0  0  0  0  0  0  0
   25.1838  -20.6825   -9.6585 N   0  0  0  0  0  0  0  0  0  0  0  0
   22.8367  -20.2343  -10.0032 C   0  0  0  0  0  0  0  0  0  0  0  0
   22.6553  -20.9747   -8.8655 O   0  0  0  0  0  0  0  0  0  0  0  0
   21.8112  -19.7323  -10.5781 O   0  0  0  0  0  0  0  0  0  0  0  0
  1  2  1  0
  3  2  1  0
  3  4  1  6
  5  3  1  0
  5  6  1  1
  7  8  2  0
  7  5  1  0
 10  9  1  0
 11 10  1  0
 12 11  1  0
 13 12  1  1
 13 14  1  0
 14  7  1  0
 15 13  1  0
 15 16  2  0
 18 17  1  0
 18 19  1  0
 19 20  1  1
 21 19  1  0
 21 22  1  1
 22 15  1  0
 23 21  1  0
 24 23  1  0
 25 23  2  0
M  END
$$$$
