IMF.pdb
     RDKit          3D

 28 28  0  0  1  0  0  0  0  0999 V2000
   27.0347  -15.1250  -18.8080 C   0  0  0  0  0  0  0  0  0  0  0  0
   27.5056  -16.4408  -18.1695 C   0  0  0  0  0  0  0  0  0  0  0  0
   26.9228  -16.5808  -16.8100 C   0  0  2  0  0  0  0  0  0  0  0  0
   27.1530  -15.3170  -15.9864 C   0  0  0  0  0  0  0  0  0  0  0  0
   27.2871  -17.8106  -16.0505 C   0  0  2  0  0  0  0  0  0  0  0  0
   27.0210  -18.9320  -16.9832 N   0  0  0  0  0  0  0  0  0  0  0  0
   26.4417  -18.0965  -14.8702 C   0  0  0  0  0  0  0  0  0  0  0  0
   26.6326  -17.5650  -13.7298 O   0  0  0  0  0  0  0  0  0  0  0  0
   20.6518  -21.4762  -15.2791 C   0  0  0  0  0  0  0  0  0  0  0  0
   20.6998  -20.9831  -13.5504 S   0  0  0  0  0  0  0  0  0  0  0  0
   22.2792  -20.2799  -13.0735 C   0  0  0  0  0  0  0  0  0  0  0  0
   23.1597  -19.8535  -14.1851 C   0  0  0  0  0  0  0  0  0  0  0  0
   24.5287  -19.3499  -13.8028 C   0  0  2  0  0  0  0  0  0  0  0  0
   25.3314  -19.0011  -14.9245 N   0  0  0  0  0  0  0  0  0  0  0  0
   25.1926  -20.3263  -12.8908 C   0  0  0  0  0  0  0  0  0  0  0  0
   26.0081  -21.1499  -13.3744 O   0  0  0  0  0  0  0  0  0  0  0  0
   24.9269  -20.3489  -11.4942 N   0  0  0  0  0  0  0  0  0  0  0  0
   25.5253  -21.2813  -10.5860 C   0  0  1  0  0  0  0  0  0  0  0  0
   26.9869  -21.0152  -10.4023 C   0  0  0  0  0  0  0  0  0  0  0  0
   27.3329  -20.2421   -9.2101 C   0  0  0  0  0  0  0  0  0  0  0  0
   28.1782  -20.7554   -8.2565 C   0  0  0  0  0  0  0  0  0  0  0  0
   28.5261  -20.0392   -7.1173 C   0  0  0  0  0  0  0  0  0  0  0  0
   28.0243  -18.7713   -6.9083 C   0  0  0  0  0  0  0  0  0  0  0  0
   27.1770  -18.2482   -7.8571 C   0  0  0  0  0  0  0  0  0  0  0  0
   26.8357  -18.9734   -8.9923 C   0  0  0  0  0  0  0  0  0  0  0  0
   24.7864  -21.2891   -9.3033 C   0  0  0  0  0  0  0  0  0  0  0  0
   25.1379  -22.1249   -8.2712 O   0  0  0  0  0  0  0  0  0  0  0  0
   23.8090  -20.5119   -9.1459 O   0  0  0  0  0  0  0  0  0  0  0  0
  2  1  1  0
  3  5  1  0
  3  2  1  0
  3  4  1  1
  5  7  1  0
  5  6  1  6
  7  8  2  0
  9 10  1  0
 10 11  1  0
 11 12  1  0
 13 12  1  6
 14 13  1  0
 14  7  1  0
 15 16  2  0
 15 13  1  0
 17 15  1  0
 18 17  1  0
 18 26  1  0
 18 19  1  1
 20 19  1  0
 20 25  2  0
 21 20  1  0
 22 21  2  0
 22 23  1  0
 23 24  2  0
 24 25  1  0
 26 28  2  0
 26 27  1  0
M  END
$$$$
