IMF.pdb
     RDKit          3D

 28 28  0  0  1  0  0  0  0  0999 V2000
   29.8202  -18.5407  -16.1368 C   0  0  0  0  0  0  0  0  0  0  0  0
   28.5023  -18.3260  -15.3767 C   0  0  0  0  0  0  0  0  0  0  0  0
   27.3882  -18.1306  -16.3402 C   0  0  2  0  0  0  0  0  0  0  0  0
   27.7028  -16.9984  -17.3136 C   0  0  0  0  0  0  0  0  0  0  0  0
   26.0205  -17.9997  -15.7620 C   0  0  2  0  0  0  0  0  0  0  0  0
   26.0936  -16.8230  -14.8630 N   0  0  0  0  0  0  0  0  0  0  0  0
   25.5968  -19.1145  -14.8861 C   0  0  0  0  0  0  0  0  0  0  0  0
   25.1306  -20.2123  -15.3299 O   0  0  0  0  0  0  0  0  0  0  0  0
   26.5103  -19.5215   -7.8993 C   0  0  0  0  0  0  0  0  0  0  0  0
   26.4412  -21.1181   -8.7241 S   0  0  0  0  0  0  0  0  0  0  0  0
   25.5121  -21.0670  -10.2573 C   0  0  0  0  0  0  0  0  0  0  0  0
   25.9718  -20.0787  -11.2597 C   0  0  0  0  0  0  0  0  0  0  0  0
   25.2361  -20.0646  -12.5759 C   0  0  2  0  0  0  0  0  0  0  0  0
   25.6832  -19.0412  -13.4574 N   0  0  0  0  0  0  0  0  0  0  0  0
   23.7643  -20.0253  -12.3346 C   0  0  0  0  0  0  0  0  0  0  0  0
   23.2843  -19.0750  -11.6685 O   0  0  0  0  0  0  0  0  0  0  0  0
   22.8946  -21.0317  -12.8367 N   0  0  0  0  0  0  0  0  0  0  0  0
   21.4658  -20.9584  -12.7604 C   0  0  1  0  0  0  0  0  0  0  0  0
   20.9440  -19.6877  -13.3554 C   0  0  0  0  0  0  0  0  0  0  0  0
   21.2114  -19.5141  -14.7826 C   0  0  0  0  0  0  0  0  0  0  0  0
   21.9797  -18.4688  -15.2350 C   0  0  0  0  0  0  0  0  0  0  0  0
   22.2522  -18.2846  -16.5854 C   0  0  0  0  0  0  0  0  0  0  0  0
   21.7505  -19.1605  -17.5256 C   0  0  0  0  0  0  0  0  0  0  0  0
   20.9800  -20.2104  -17.0831 C   0  0  0  0  0  0  0  0  0  0  0  0
   20.7137  -20.3849  -15.7305 C   0  0  0  0  0  0  0  0  0  0  0  0
   20.8602  -22.1611  -13.3751 C   0  0  0  0  0  0  0  0  0  0  0  0
   21.6286  -23.1469  -13.9451 O   0  0  0  0  0  0  0  0  0  0  0  0
   19.6084  -22.2918  -13.3794 O   0  0  0  0  0  0  0  0  0  0  0  0
  2  1  1  0
  3  5  1  0
  3  2  1  0
  3  4  1  1
  5  7  1  0
  5  6  1  1
  7  8  2  0
  9 10  1  0
 10 11  1  0
 11 12  1  0
 13 12  1  1
 14 13  1  0
 14  7  1  0
 15 16  2  0
 15 13  1  0
 17 15  1  0
 18 17  1  0
 18 26  1  0
 18 19  1  6
 20 19  1  0
 20 25  2  0
 21 20  1  0
 22 21  2  0
 22 23  1  0
 23 24  2  0
 24 25  1  0
 26 28  2  0
 26 27  1  0
M  END
$$$$
