IMF.pdb
     RDKit          3D

 28 28  0  0  1  0  0  0  0  0999 V2000
   21.2443  -20.4953  -16.1015 C   0  0  0  0  0  0  0  0  0  0  0  0
   22.7140  -20.2977  -16.5038 C   0  0  0  0  0  0  0  0  0  0  0  0
   23.6001  -21.0203  -15.5550 C   0  0  2  0  0  0  0  0  0  0  0  0
   23.3561  -22.5251  -15.6208 C   0  0  0  0  0  0  0  0  0  0  0  0
   23.6202  -20.5235  -14.1496 C   0  0  2  0  0  0  0  0  0  0  0  0
   24.0977  -19.1230  -14.2432 N   0  0  0  0  0  0  0  0  0  0  0  0
   24.5937  -21.1923  -13.2583 C   0  0  0  0  0  0  0  0  0  0  0  0
   25.1422  -22.3068  -13.5351 O   0  0  0  0  0  0  0  0  0  0  0  0
   31.5138  -22.2107  -11.2153 C   0  0  0  0  0  0  0  0  0  0  0  0
   30.1257  -21.6004  -12.1821 S   0  0  0  0  0  0  0  0  0  0  0  0
   28.5900  -21.5826  -11.2560 C   0  0  0  0  0  0  0  0  0  0  0  0
   27.4069  -21.0567  -11.9749 C   0  0  0  0  0  0  0  0  0  0  0  0
   26.0954  -21.0992  -11.2319 C   0  0  2  0  0  0  0  0  0  0  0  0
   24.9976  -20.6277  -12.0045 N   0  0  0  0  0  0  0  0  0  0  0  0
   26.2310  -20.3985   -9.9217 C   0  0  0  0  0  0  0  0  0  0  0  0
   26.0704  -19.1537   -9.8806 O   0  0  0  0  0  0  0  0  0  0  0  0
   26.5364  -21.1005   -8.7236 N   0  0  0  0  0  0  0  0  0  0  0  0
   26.7017  -20.4654   -7.4502 C   0  0  1  0  0  0  0  0  0  0  0  0
   27.1327  -21.4387   -6.3977 C   0  0  0  0  0  0  0  0  0  0  0  0
   27.7182  -20.8393   -5.1991 C   0  0  0  0  0  0  0  0  0  0  0  0
   29.0510  -20.5090   -5.1539 C   0  0  0  0  0  0  0  0  0  0  0  0
   29.6303  -19.9342   -4.0288 C   0  0  0  0  0  0  0  0  0  0  0  0
   28.8709  -19.6747   -2.9068 C   0  0  0  0  0  0  0  0  0  0  0  0
   27.5354  -20.0018   -2.9418 C   0  0  0  0  0  0  0  0  0  0  0  0
   26.9667  -20.5763   -4.0720 C   0  0  0  0  0  0  0  0  0  0  0  0
   27.6267  -19.3159   -7.5702 C   0  0  0  0  0  0  0  0  0  0  0  0
   27.3615  -18.1085   -6.9710 O   0  0  0  0  0  0  0  0  0  0  0  0
   28.6869  -19.4401   -8.2370 O   0  0  0  0  0  0  0  0  0  0  0  0
  2  1  1  0
  3  5  1  0
  3  2  1  0
  3  4  1  1
  5  7  1  0
  5  6  1  6
  7  8  2  0
  9 10  1  0
 10 11  1  0
 11 12  1  0
 13 12  1  6
 14 13  1  0
 14  7  1  0
 15 16  2  0
 15 13  1  0
 17 15  1  0
 18 17  1  0
 18 26  1  0
 18 19  1  1
 20 19  1  0
 20 25  2  0
 21 20  1  0
 22 21  2  0
 22 23  1  0
 23 24  2  0
 24 25  1  0
 26 28  2  0
 26 27  1  0
M  END
$$$$
