IMF.pdb
     RDKit          3D

 28 28  0  0  1  0  0  0  0  0999 V2000
   24.1906  -23.7646  -18.4067 C   0  0  0  0  0  0  0  0  0  0  0  0
   23.6589  -23.1166  -17.1189 C   0  0  0  0  0  0  0  0  0  0  0  0
   24.7574  -22.3981  -16.4228 C   0  0  2  0  0  0  0  0  0  0  0  0
   25.6472  -21.6650  -17.4223 C   0  0  0  0  0  0  0  0  0  0  0  0
   25.5578  -23.1884  -15.4446 C   0  0  2  0  0  0  0  0  0  0  0  0
   24.5704  -23.7024  -14.4653 N   0  0  0  0  0  0  0  0  0  0  0  0
   26.5157  -22.4042  -14.6341 C   0  0  0  0  0  0  0  0  0  0  0  0
   27.6848  -22.1009  -15.0352 O   0  0  0  0  0  0  0  0  0  0  0  0
   25.7992  -17.0228  -15.3708 C   0  0  0  0  0  0  0  0  0  0  0  0
   27.0403  -16.8230  -14.0848 S   0  0  0  0  0  0  0  0  0  0  0  0
   27.2038  -18.2764  -13.0468 C   0  0  0  0  0  0  0  0  0  0  0  0
   26.6762  -19.5388  -13.6135 C   0  0  0  0  0  0  0  0  0  0  0  0
   26.7718  -20.7611  -12.7356 C   0  0  2  0  0  0  0  0  0  0  0  0
   26.1942  -21.9206  -13.3239 N   0  0  0  0  0  0  0  0  0  0  0  0
   26.2229  -20.4581  -11.3817 C   0  0  0  0  0  0  0  0  0  0  0  0
   24.9853  -20.2880  -11.2535 O   0  0  0  0  0  0  0  0  0  0  0  0
   27.0611  -20.3570  -10.2378 N   0  0  0  0  0  0  0  0  0  0  0  0
   26.8370  -21.0800   -9.0214 C   0  0  1  0  0  0  0  0  0  0  0  0
   28.0991  -21.2423   -8.2331 C   0  0  0  0  0  0  0  0  0  0  0  0
   28.0849  -20.6313   -6.9045 C   0  0  0  0  0  0  0  0  0  0  0  0
   27.5313  -19.3899   -6.7040 C   0  0  0  0  0  0  0  0  0  0  0  0
   27.5012  -18.7899   -5.4507 C   0  0  0  0  0  0  0  0  0  0  0  0
   28.0353  -19.4342   -4.3541 C   0  0  0  0  0  0  0  0  0  0  0  0
   28.5920  -20.6775   -4.5441 C   0  0  0  0  0  0  0  0  0  0  0  0
   28.6168  -21.2680   -5.8017 C   0  0  0  0  0  0  0  0  0  0  0  0
   25.7592  -20.4361   -8.2371 C   0  0  0  0  0  0  0  0  0  0  0  0
   25.0507  -21.1233   -7.2815 O   0  0  0  0  0  0  0  0  0  0  0  0
   25.4784  -19.2270   -8.4451 O   0  0  0  0  0  0  0  0  0  0  0  0
  2  1  1  0
  3  5  1  0
  3  2  1  0
  3  4  1  6
  5  7  1  0
  5  6  1  1
  7  8  2  0
  9 10  1  0
 10 11  1  0
 11 12  1  0
 13 12  1  6
 14 13  1  0
 14  7  1  0
 15 16  2  0
 15 13  1  0
 17 15  1  0
 18 17  1  0
 18 26  1  0
 18 19  1  1
 20 19  1  0
 20 25  2  0
 21 20  1  0
 22 21  2  0
 22 23  1  0
 23 24  2  0
 24 25  1  0
 26 28  2  0
 26 27  1  0
M  END
$$$$
