IMF.pdb
     RDKit          3D

 28 28  0  0  1  0  0  0  0  0999 V2000
   22.8932  -16.8603  -16.9807 C   0  0  0  0  0  0  0  0  0  0  0  0
   23.4939  -16.7740  -15.5690 C   0  0  0  0  0  0  0  0  0  0  0  0
   23.8406  -18.1344  -15.0824 C   0  0  2  0  0  0  0  0  0  0  0  0
   22.6631  -19.0898  -15.2526 C   0  0  0  0  0  0  0  0  0  0  0  0
   24.4341  -18.2245  -13.7179 C   0  0  2  0  0  0  0  0  0  0  0  0
   25.6622  -17.3959  -13.7768 N   0  0  0  0  0  0  0  0  0  0  0  0
   24.9084  -19.5696  -13.3242 C   0  0  0  0  0  0  0  0  0  0  0  0
   24.1272  -20.5541  -13.1237 O   0  0  0  0  0  0  0  0  0  0  0  0
   29.9401  -23.4944  -15.3192 C   0  0  0  0  0  0  0  0  0  0  0  0
   28.8435  -22.3506  -16.1696 S   0  0  0  0  0  0  0  0  0  0  0  0
   27.5603  -21.6961  -15.1012 C   0  0  0  0  0  0  0  0  0  0  0  0
   27.8755  -21.6669  -13.6545 C   0  0  0  0  0  0  0  0  0  0  0  0
   26.7966  -21.1399  -12.7422 C   0  0  2  0  0  0  0  0  0  0  0  0
   26.2980  -19.8680  -13.1397 N   0  0  0  0  0  0  0  0  0  0  0  0
   27.2706  -21.1651  -11.3277 C   0  0  0  0  0  0  0  0  0  0  0  0
   28.5032  -21.2509  -11.1028 O   0  0  0  0  0  0  0  0  0  0  0  0
   26.3669  -21.0952  -10.2323 N   0  0  0  0  0  0  0  0  0  0  0  0
   26.7795  -21.0881   -8.8604 C   0  0  1  0  0  0  0  0  0  0  0  0
   27.7346  -19.9713   -8.5753 C   0  0  0  0  0  0  0  0  0  0  0  0
   28.1143  -19.8215   -7.1709 C   0  0  0  0  0  0  0  0  0  0  0  0
   29.1257  -20.5768   -6.6286 C   0  0  0  0  0  0  0  0  0  0  0  0
   29.5085  -20.4500   -5.2985 C   0  0  0  0  0  0  0  0  0  0  0  0
   28.8732  -19.5473   -4.4712 C   0  0  0  0  0  0  0  0  0  0  0  0
   27.8592  -18.7862   -5.0045 C   0  0  0  0  0  0  0  0  0  0  0  0
   27.4846  -18.9214   -6.3358 C   0  0  0  0  0  0  0  0  0  0  0  0
   25.5955  -21.0602   -7.9723 C   0  0  0  0  0  0  0  0  0  0  0  0
   24.3547  -20.6915   -8.4324 O   0  0  0  0  0  0  0  0  0  0  0  0
   25.7206  -21.3819   -6.7619 O   0  0  0  0  0  0  0  0  0  0  0  0
  2  1  1  0
  3  5  1  0
  3  2  1  0
  3  4  1  1
  5  7  1  0
  5  6  1  6
  7  8  2  0
  9 10  1  0
 10 11  1  0
 11 12  1  0
 13 12  1  6
 14 13  1  0
 14  7  1  0
 15 16  2  0
 15 13  1  0
 17 15  1  0
 18 17  1  0
 18 26  1  0
 18 19  1  6
 20 19  1  0
 20 25  2  0
 21 20  1  0
 22 21  2  0
 22 23  1  0
 23 24  2  0
 24 25  1  0
 26 28  2  0
 26 27  1  0
M  END
$$$$
