IMF.pdb
     RDKit          3D

 28 28  0  0  1  0  0  0  0  0999 V2000
   23.7719  -19.2657  -18.0233 C   0  0  0  0  0  0  0  0  0  0  0  0
   23.7705  -18.8159  -16.5541 C   0  0  0  0  0  0  0  0  0  0  0  0
   24.1183  -19.9611  -15.6737 C   0  0  2  0  0  0  0  0  0  0  0  0
   23.2963  -21.1948  -16.0353 C   0  0  0  0  0  0  0  0  0  0  0  0
   24.1106  -19.7015  -14.2058 C   0  0  2  0  0  0  0  0  0  0  0  0
   24.6668  -18.3355  -14.0536 N   0  0  0  0  0  0  0  0  0  0  0  0
   25.0111  -20.5633  -13.4083 C   0  0  0  0  0  0  0  0  0  0  0  0
   24.8232  -21.8122  -13.2510 O   0  0  0  0  0  0  0  0  0  0  0  0
   31.6048  -21.9369  -12.6439 C   0  0  0  0  0  0  0  0  0  0  0  0
   31.0021  -21.2029  -11.1168 S   0  0  0  0  0  0  0  0  0  0  0  0
   29.2268  -21.3673  -10.9218 C   0  0  0  0  0  0  0  0  0  0  0  0
   28.3978  -20.6759  -11.9356 C   0  0  0  0  0  0  0  0  0  0  0  0
   26.9035  -20.7556  -11.7496 C   0  0  2  0  0  0  0  0  0  0  0  0
   26.1757  -20.0510  -12.7486 N   0  0  0  0  0  0  0  0  0  0  0  0
   26.5416  -20.3416  -10.3626 C   0  0  0  0  0  0  0  0  0  0  0  0
   26.3996  -19.1192  -10.1124 O   0  0  0  0  0  0  0  0  0  0  0  0
   26.3546  -21.2911   -9.3210 N   0  0  0  0  0  0  0  0  0  0  0  0
   25.9802  -20.9405   -7.9833 C   0  0  1  0  0  0  0  0  0  0  0  0
   26.5870  -19.6387   -7.5616 C   0  0  0  0  0  0  0  0  0  0  0  0
   27.3742  -19.6899   -6.3302 C   0  0  0  0  0  0  0  0  0  0  0  0
   28.5274  -18.9550   -6.1982 C   0  0  0  0  0  0  0  0  0  0  0  0
   29.2905  -18.9827   -5.0369 C   0  0  0  0  0  0  0  0  0  0  0  0
   28.9053  -19.7621   -3.9658 C   0  0  0  0  0  0  0  0  0  0  0  0
   27.7522  -20.5018   -4.0877 C   0  0  0  0  0  0  0  0  0  0  0  0
   26.9970  -20.4666   -5.2536 C   0  0  0  0  0  0  0  0  0  0  0  0
   24.5061  -20.9473   -7.8484 C   0  0  0  0  0  0  0  0  0  0  0  0
   23.6802  -21.0515   -8.9412 O   0  0  0  0  0  0  0  0  0  0  0  0
   23.9876  -20.8560   -6.7051 O   0  0  0  0  0  0  0  0  0  0  0  0
  2  1  1  0
  3  5  1  0
  3  2  1  0
  3  4  1  1
  5  7  1  0
  5  6  1  6
  7  8  2  0
  9 10  1  0
 10 11  1  0
 11 12  1  0
 13 12  1  6
 14 13  1  0
 14  7  1  0
 15 16  2  0
 15 13  1  0
 17 15  1  0
 18 17  1  0
 18 26  1  0
 18 19  1  6
 20 19  1  0
 20 25  2  0
 21 20  1  0
 22 21  2  0
 22 23  1  0
 23 24  2  0
 24 25  1  0
 26 28  2  0
 26 27  1  0
M  END
$$$$
