NGT.pdb
     RDKit          3D

 20 19  0  0  1  0  0  0  0  0999 V2000
   14.0861  -19.9021   16.3181 N   0  0  0  0  0  0  0  0  0  0  0  0
   13.3179  -18.7863   16.7239 C   0  0  0  0  0  0  0  0  0  0  0  0
   12.5291  -18.2901   15.8790 O   0  0  0  0  0  0  0  0  0  0  0  0
   13.4491  -18.2251   18.1153 C   0  0  0  0  0  0  0  0  0  0  0  0
   12.2517  -18.6840   18.9577 C   0  0  2  0  0  0  0  0  0  0  0  0
   11.0700  -18.2347   18.2463 N   0  0  0  0  0  0  0  0  0  0  0  0
   12.3797  -17.9508   20.2682 C   0  0  0  0  0  0  0  0  0  0  0  0
   13.2787  -18.2577   21.1027 O   0  0  0  0  0  0  0  0  0  0  0  0
   11.5039  -16.8968   20.6133 N   0  0  0  0  0  0  0  0  0  0  0  0
   11.4818  -16.3795   21.9628 C   0  0  0  0  0  0  0  0  0  0  0  0
   10.2253  -15.7235   22.3117 C   0  0  0  0  0  0  0  0  0  0  0  0
   10.0714  -15.2131   23.4375 O   0  0  0  0  0  0  0  0  0  0  0  0
    8.3815  -12.8583   20.4185 C   0  0  0  0  0  0  0  0  0  0  0  0
    7.5179  -14.0566   20.5208 C   0  0  1  0  0  0  0  0  0  0  0  0
    7.4803  -14.7786   19.3238 O   0  0  0  0  0  0  0  0  0  0  0  0
    7.9075  -15.0165   21.6147 C   0  0  2  0  0  0  0  0  0  0  0  0
    9.1658  -15.6559   21.3832 N   0  0  0  0  0  0  0  0  0  0  0  0
    6.8491  -15.9979   21.9172 C   0  0  0  0  0  0  0  0  0  0  0  0
    5.5521  -15.6438   22.2325 O   0  0  0  0  0  0  0  0  0  0  0  0
    7.1242  -17.2181   21.8909 O   0  0  0  0  0  0  0  0  0  0  0  0
  2  1  1  0
  3  2  2  0
  4  2  1  0
  5  6  1  6
  5  4  1  0
  7  5  1  0
  8  7  2  0
  9  7  1  0
 10  9  1  0
 11 10  1  0
 11 17  1  0
 12 11  2  0
 14 13  1  6
 14 16  1  0
 15 14  1  0
 16 17  1  6
 16 18  1  0
 18 20  2  0
 18 19  1  0
M  END
$$$$
