NGT.pdb
     RDKit          3D

 20 19  0  0  1  0  0  0  0  0999 V2000
   10.9181  -21.5647   22.2969 N   0  0  0  0  0  0  0  0  0  0  0  0
   11.1798  -20.2009   22.0296 C   0  0  0  0  0  0  0  0  0  0  0  0
   12.1171  -19.9381   21.2330 O   0  0  0  0  0  0  0  0  0  0  0  0
   10.3609  -19.1170   22.6797 C   0  0  0  0  0  0  0  0  0  0  0  0
    9.5939  -18.3478   21.5963 C   0  0  2  0  0  0  0  0  0  0  0  0
   10.5556  -17.4436   20.9947 N   0  0  0  0  0  0  0  0  0  0  0  0
    8.5360  -17.5668   22.3327 C   0  0  0  0  0  0  0  0  0  0  0  0
    7.5451  -18.1478   22.8613 O   0  0  0  0  0  0  0  0  0  0  0  0
    8.6105  -16.1614   22.4603 N   0  0  0  0  0  0  0  0  0  0  0  0
    7.5735  -15.4369   23.1597 C   0  0  0  0  0  0  0  0  0  0  0  0
    8.0894  -14.5108   24.1633 C   0  0  0  0  0  0  0  0  0  0  0  0
    9.2778  -14.1395   24.1274 O   0  0  0  0  0  0  0  0  0  0  0  0
    6.1786  -11.1332   25.4918 C   0  0  0  0  0  0  0  0  0  0  0  0
    6.5287  -12.1115   26.5466 C   0  0  1  0  0  0  0  0  0  0  0  0
    5.4279  -12.8840   26.9304 O   0  0  0  0  0  0  0  0  0  0  0  0
    7.6387  -13.0603   26.1759 C   0  0  2  0  0  0  0  0  0  0  0  0
    7.2540  -14.0212   25.1889 N   0  0  0  0  0  0  0  0  0  0  0  0
    8.2534  -13.7068   27.3502 C   0  0  0  0  0  0  0  0  0  0  0  0
    8.3431  -15.0762   27.5037 O   0  0  0  0  0  0  0  0  0  0  0  0
    8.7227  -12.9917   28.2633 O   0  0  0  0  0  0  0  0  0  0  0  0
  2  1  1  0
  3  2  2  0
  4  2  1  0
  5  6  1  1
  5  4  1  0
  7  5  1  0
  8  7  2  0
  9  7  1  0
 10  9  1  0
 11 10  1  0
 11 17  1  0
 12 11  2  0
 14 13  1  6
 14 16  1  0
 15 14  1  0
 16 17  1  6
 16 18  1  0
 18 20  2  0
 18 19  1  0
M  END
$$$$
