NGT.pdb
     RDKit          3D

 20 19  0  0  1  0  0  0  0  0999 V2000
   12.2213  -19.2240   13.2376 N   0  0  0  0  0  0  0  0  0  0  0  0
   11.1100  -19.3282   14.1060 C   0  0  0  0  0  0  0  0  0  0  0  0
   10.4039  -20.3655   14.0183 O   0  0  0  0  0  0  0  0  0  0  0  0
   10.7964  -18.2334   15.0914 C   0  0  0  0  0  0  0  0  0  0  0  0
   10.8125  -18.8148   16.5111 C   0  0  2  0  0  0  0  0  0  0  0  0
    9.4215  -18.9582   16.8975 N   0  0  0  0  0  0  0  0  0  0  0  0
   11.4839  -17.7695   17.3643 C   0  0  0  0  0  0  0  0  0  0  0  0
   12.4412  -17.0764   16.9147 O   0  0  0  0  0  0  0  0  0  0  0  0
   11.0714  -17.5248   18.6936 N   0  0  0  0  0  0  0  0  0  0  0  0
   11.7206  -16.5019   19.4818 C   0  0  0  0  0  0  0  0  0  0  0  0
   11.0574  -16.2440   20.7564 C   0  0  0  0  0  0  0  0  0  0  0  0
   10.0583  -15.5020   20.8089 O   0  0  0  0  0  0  0  0  0  0  0  0
    9.2213  -18.5058   22.9827 C   0  0  0  0  0  0  0  0  0  0  0  0
   10.3518  -17.9656   23.7716 C   0  0  1  0  0  0  0  0  0  0  0  0
   11.4003  -18.8844   23.8810 O   0  0  0  0  0  0  0  0  0  0  0  0
   10.9307  -16.6818   23.2363 C   0  0  2  0  0  0  0  0  0  0  0  0
   11.5344  -16.8285   21.9481 N   0  0  0  0  0  0  0  0  0  0  0  0
   11.8438  -16.0255   24.1905 C   0  0  0  0  0  0  0  0  0  0  0  0
   11.4302  -15.4974   25.3976 O   0  0  0  0  0  0  0  0  0  0  0  0
   13.0589  -15.9343   23.9066 O   0  0  0  0  0  0  0  0  0  0  0  0
  2  1  1  0
  3  2  2  0
  4  2  1  0
  5  6  1  1
  5  4  1  0
  7  5  1  0
  8  7  2  0
  9  7  1  0
 10  9  1  0
 11 10  1  0
 11 17  1  0
 12 11  2  0
 14 13  1  6
 14 16  1  0
 15 14  1  0
 16 17  1  6
 16 18  1  0
 18 20  2  0
 18 19  1  0
M  END
$$$$
