NGT.pdb
     RDKit          3D

 20 19  0  0  1  0  0  0  0  0999 V2000
    8.2970  -13.1985   16.9766 N   0  0  0  0  0  0  0  0  0  0  0  0
    7.8966  -14.4972   17.3674 C   0  0  0  0  0  0  0  0  0  0  0  0
    8.0698  -15.4285   16.5398 O   0  0  0  0  0  0  0  0  0  0  0  0
    7.2885  -14.7410   18.7235 C   0  0  0  0  0  0  0  0  0  0  0  0
    8.4055  -14.7901   19.7741 C   0  0  2  0  0  0  0  0  0  0  0  0
    9.0861  -16.0551   19.5716 N   0  0  0  0  0  0  0  0  0  0  0  0
    7.7021  -14.7858   21.1069 C   0  0  0  0  0  0  0  0  0  0  0  0
    7.0774  -13.7637   21.5119 O   0  0  0  0  0  0  0  0  0  0  0  0
    7.7135  -15.9186   21.9516 N   0  0  0  0  0  0  0  0  0  0  0  0
    7.1368  -15.8471   23.2751 C   0  0  0  0  0  0  0  0  0  0  0  0
    7.8621  -14.9565   24.1761 C   0  0  0  0  0  0  0  0  0  0  0  0
    8.9891  -14.5264   23.8658 O   0  0  0  0  0  0  0  0  0  0  0  0
    6.4192  -11.6203   25.8243 C   0  0  0  0  0  0  0  0  0  0  0  0
    6.8708  -12.6120   26.8267 C   0  0  1  0  0  0  0  0  0  0  0  0
    5.8017  -13.3312   27.3702 O   0  0  0  0  0  0  0  0  0  0  0  0
    7.8714  -13.6126   26.3095 C   0  0  2  0  0  0  0  0  0  0  0  0
    7.3016  -14.5681   25.4107 N   0  0  0  0  0  0  0  0  0  0  0  0
    8.6312  -14.2705   27.3888 C   0  0  0  0  0  0  0  0  0  0  0  0
    8.6279  -15.6356   27.5972 O   0  0  0  0  0  0  0  0  0  0  0  0
    9.3192  -13.5699   28.1640 O   0  0  0  0  0  0  0  0  0  0  0  0
  2  1  1  0
  3  2  2  0
  4  2  1  0
  5  6  1  6
  5  4  1  0
  7  5  1  0
  8  7  2  0
  9  7  1  0
 10  9  1  0
 11 10  1  0
 11 17  1  0
 12 11  2  0
 14 13  1  6
 14 16  1  0
 15 14  1  0
 16 17  1  1
 16 18  1  0
 18 20  2  0
 18 19  1  0
M  END
$$$$
