NGT.pdb
     RDKit          3D

 20 19  0  0  1  0  0  0  0  0999 V2000
   10.0726  -13.0189   19.4578 N   0  0  0  0  0  0  0  0  0  0  0  0
    9.5652  -13.5345   18.2427 C   0  0  0  0  0  0  0  0  0  0  0  0
   10.3975  -13.8180   17.3432 O   0  0  0  0  0  0  0  0  0  0  0  0
    8.0849  -13.7312   18.0472 C   0  0  0  0  0  0  0  0  0  0  0  0
    7.3417  -13.2237   19.2897 C   0  0  2  0  0  0  0  0  0  0  0  0
    8.1509  -12.1444   19.8234 N   0  0  0  0  0  0  0  0  0  0  0  0
    7.3264  -14.3855   20.2495 C   0  0  0  0  0  0  0  0  0  0  0  0
    6.6834  -15.4418   19.9855 O   0  0  0  0  0  0  0  0  0  0  0  0
    8.0268  -14.3395   21.4760 N   0  0  0  0  0  0  0  0  0  0  0  0
    7.9943  -15.4693   22.3770 C   0  0  0  0  0  0  0  0  0  0  0  0
    9.2745  -16.1627   22.4836 C   0  0  0  0  0  0  0  0  0  0  0  0
    9.3959  -17.1518   23.2309 O   0  0  0  0  0  0  0  0  0  0  0  0
   11.4702  -16.6866   19.1745 C   0  0  0  0  0  0  0  0  0  0  0  0
   12.3137  -16.2801   20.3216 C   0  0  1  0  0  0  0  0  0  0  0  0
   12.7584  -14.9597   20.2025 O   0  0  0  0  0  0  0  0  0  0  0  0
   11.6466  -16.4122   21.6659 C   0  0  2  0  0  0  0  0  0  0  0  0
   10.3938  -15.7267   21.7445 N   0  0  0  0  0  0  0  0  0  0  0  0
   12.5359  -16.0443   22.7834 C   0  0  0  0  0  0  0  0  0  0  0  0
   12.2486  -15.0372   23.6834 O   0  0  0  0  0  0  0  0  0  0  0  0
   13.6099  -16.6673   22.9377 O   0  0  0  0  0  0  0  0  0  0  0  0
  2  1  1  0
  3  2  2  0
  4  2  1  0
  5  6  1  1
  5  4  1  0
  7  5  1  0
  8  7  2  0
  9  7  1  0
 10  9  1  0
 11 10  1  0
 11 17  1  0
 12 11  2  0
 14 13  1  6
 14 16  1  0
 15 14  1  0
 16 17  1  6
 16 18  1  0
 18 20  2  0
 18 19  1  0
M  END
$$$$
