NGT.pdb
     RDKit          3D

 20 19  0  0  1  0  0  0  0  0999 V2000
    9.5661  -17.9307   16.3571 N   0  0  0  0  0  0  0  0  0  0  0  0
   10.3428  -18.0512   17.5327 C   0  0  0  0  0  0  0  0  0  0  0  0
   11.1031  -19.0492   17.6228 O   0  0  0  0  0  0  0  0  0  0  0  0
   10.2531  -17.0183   18.6251 C   0  0  0  0  0  0  0  0  0  0  0  0
   10.1046  -17.7279   19.9772 C   0  0  2  0  0  0  0  0  0  0  0  0
    8.6783  -17.8912   20.1857 N   0  0  0  0  0  0  0  0  0  0  0  0
   10.6728  -16.7728   20.9951 C   0  0  0  0  0  0  0  0  0  0  0  0
   11.8867  -16.4212   20.9540 O   0  0  0  0  0  0  0  0  0  0  0  0
    9.8744  -16.2357   22.0301 N   0  0  0  0  0  0  0  0  0  0  0  0
   10.4687  -15.4053   23.0532 C   0  0  0  0  0  0  0  0  0  0  0  0
    9.8560  -15.5765   24.3670 C   0  0  0  0  0  0  0  0  0  0  0  0
    9.3802  -14.5981   24.9735 O   0  0  0  0  0  0  0  0  0  0  0  0
    6.8103  -16.7189   25.5033 C   0  0  0  0  0  0  0  0  0  0  0  0
    7.7760  -17.6655   26.1062 C   0  0  1  0  0  0  0  0  0  0  0  0
    7.8476  -18.8659   25.3923 O   0  0  0  0  0  0  0  0  0  0  0  0
    9.1790  -17.1314   26.2329 C   0  0  2  0  0  0  0  0  0  0  0  0
    9.7918  -16.8490   24.9718 N   0  0  0  0  0  0  0  0  0  0  0  0
   10.0403  -17.9826   27.0748 C   0  0  0  0  0  0  0  0  0  0  0  0
    9.7409  -18.3083   28.3829 O   0  0  0  0  0  0  0  0  0  0  0  0
   11.1003  -18.4411   26.5939 O   0  0  0  0  0  0  0  0  0  0  0  0
  2  1  1  0
  3  2  2  0
  4  2  1  0
  5  6  1  1
  5  4  1  0
  7  5  1  0
  8  7  2  0
  9  7  1  0
 10  9  1  0
 11 10  1  0
 11 17  1  0
 12 11  2  0
 14 13  1  6
 14 16  1  0
 15 14  1  0
 16 17  1  6
 16 18  1  0
 18 20  2  0
 18 19  1  0
M  END
$$$$
