FLK.pdb
     RDKit          3D

 29 29  0  0  1  0  0  0  0  0999 V2000
   22.3778  -18.7104  -18.8987 N   0  0  0  0  0  0  0  0  0  0  0  0
   22.7043  -18.1905  -17.5877 C   0  0  1  0  0  0  0  0  0  0  0  0
   21.3835  -18.0502  -16.8411 C   0  0  0  0  0  0  0  0  0  0  0  0
   20.6676  -16.8946  -17.4333 C   0  0  0  0  0  0  0  0  0  0  0  0
   19.5137  -17.0663  -18.1459 C   0  0  0  0  0  0  0  0  0  0  0  0
   18.8080  -16.0308  -18.7097 C   0  0  0  0  0  0  0  0  0  0  0  0
   19.3052  -14.7613  -18.5371 C   0  0  0  0  0  0  0  0  0  0  0  0
   20.4601  -14.5371  -17.8302 C   0  0  0  0  0  0  0  0  0  0  0  0
   21.1603  -15.6034  -17.2660 C   0  0  0  0  0  0  0  0  0  0  0  0
   23.6805  -18.9754  -16.8396 C   0  0  0  0  0  0  0  0  0  0  0  0
   23.4972  -20.2095  -16.7363 O   0  0  0  0  0  0  0  0  0  0  0  0
   29.1926  -17.7983  -16.4669 C   0  0  0  0  0  0  0  0  0  0  0  0
   27.9555  -18.6737  -16.5612 C   0  0  1  0  0  0  0  0  0  0  0  0
   28.2392  -20.0792  -16.9808 C   0  0  0  0  0  0  0  0  0  0  0  0
   27.0734  -18.5188  -15.3790 C   0  0  0  0  0  0  0  0  0  0  0  0
   25.7508  -19.2306  -15.4404 C   0  0  2  0  0  0  0  0  0  0  0  0
   24.8340  -18.4245  -16.2168 N   0  0  0  0  0  0  0  0  0  0  0  0
   25.1737  -19.3352  -14.0474 C   0  0  0  0  0  0  0  0  0  0  0  0
   24.7810  -18.3107  -13.4318 O   0  0  0  0  0  0  0  0  0  0  0  0
   25.0500  -20.5636  -13.3833 N   0  0  0  0  0  0  0  0  0  0  0  0
   24.3333  -20.6500  -12.0673 C   0  0  1  0  0  0  0  0  0  0  0  0
   22.9223  -20.9462  -12.3374 C   0  0  0  0  0  0  0  0  0  0  0  0
   21.9927  -21.0831  -11.2169 C   0  0  0  0  0  0  0  0  0  0  0  0
   20.5551  -21.3195  -11.3548 C   0  0  0  0  0  0  0  0  0  0  0  0
   19.7801  -21.5226  -10.0814 C   0  0  0  0  0  0  0  0  0  0  0  0
   18.3804  -21.7385  -10.2809 N   0  0  0  0  0  0  0  0  0  0  0  0
   25.0656  -21.6741  -11.3292 C   0  0  0  0  0  0  0  0  0  0  0  0
   25.6542  -22.5956  -12.0390 O   0  0  0  0  0  0  0  0  0  0  0  0
   25.2454  -21.8243   -9.9863 O   0  0  0  0  0  0  0  0  0  0  0  0
  2  1  1  6
  3  2  1  0
  3  4  1  0
  4  5  2  0
  5  6  1  0
  7  6  2  0
  8  7  1  0
  9  4  1  0
  9  8  2  0
 10 17  1  0
 10  2  1  0
 11 10  2  0
 13 12  1  1
 14 13  1  0
 16 15  1  1
 15 13  1  0
 16 17  1  0
 18 16  1  0
 19 18  2  0
 20 18  1  0
 21 20  1  0
 21 22  1  6
 22 23  1  0
 23 24  1  0
 24 25  1  0
 26 25  1  0
 27 29  1  0
 27 21  1  0
 28 27  2  0
M  END
$$$$
