FLK.pdb
     RDKit          3D

 29 29  0  0  1  0  0  0  0  0999 V2000
   27.9562  -20.9800  -17.7348 N   0  0  0  0  0  0  0  0  0  0  0  0
   27.8597  -20.0674  -16.6153 C   0  0  1  0  0  0  0  0  0  0  0  0
   26.6356  -19.1981  -16.8753 C   0  0  0  0  0  0  0  0  0  0  0  0
   27.0062  -18.2269  -17.9327 C   0  0  0  0  0  0  0  0  0  0  0  0
   27.8277  -17.1677  -17.6645 C   0  0  0  0  0  0  0  0  0  0  0  0
   28.2073  -16.2431  -18.6075 C   0  0  0  0  0  0  0  0  0  0  0  0
   27.7244  -16.4091  -19.8833 C   0  0  0  0  0  0  0  0  0  0  0  0
   26.8963  -17.4561  -20.2025 C   0  0  0  0  0  0  0  0  0  0  0  0
   26.5241  -18.3833  -19.2292 C   0  0  0  0  0  0  0  0  0  0  0  0
   27.8156  -20.7045  -15.3035 C   0  0  0  0  0  0  0  0  0  0  0  0
   27.0793  -21.7059  -15.1537 O   0  0  0  0  0  0  0  0  0  0  0  0
   29.6163  -22.5048  -10.5789 C   0  0  0  0  0  0  0  0  0  0  0  0
   29.7181  -20.9931  -10.6784 C   0  0  1  0  0  0  0  0  0  0  0  0
   30.7852  -20.4003   -9.8170 C   0  0  0  0  0  0  0  0  0  0  0  0
   29.6910  -20.5255  -12.0857 C   0  0  0  0  0  0  0  0  0  0  0  0
   28.4834  -20.9159  -12.8913 C   0  0  2  0  0  0  0  0  0  0  0  0
   28.5604  -20.2580  -14.1776 N   0  0  0  0  0  0  0  0  0  0  0  0
   27.2378  -20.4011  -12.2075 C   0  0  0  0  0  0  0  0  0  0  0  0
   26.9843  -19.1694  -12.1678 O   0  0  0  0  0  0  0  0  0  0  0  0
   26.3169  -21.2607  -11.5925 N   0  0  0  0  0  0  0  0  0  0  0  0
   25.0443  -20.7218  -11.0069 C   0  0  1  0  0  0  0  0  0  0  0  0
   23.9220  -21.4364  -11.6245 C   0  0  0  0  0  0  0  0  0  0  0  0
   22.5551  -21.1031  -11.2258 C   0  0  0  0  0  0  0  0  0  0  0  0
   21.5573  -20.4970  -12.1081 C   0  0  0  0  0  0  0  0  0  0  0  0
   20.1944  -20.2549  -11.5185 C   0  0  0  0  0  0  0  0  0  0  0  0
   19.2924  -19.5779  -12.3982 N   0  0  0  0  0  0  0  0  0  0  0  0
   25.2039  -20.9147   -9.5692 C   0  0  0  0  0  0  0  0  0  0  0  0
   25.6526  -22.0761   -9.1829 O   0  0  0  0  0  0  0  0  0  0  0  0
   24.9616  -20.0553   -8.5390 O   0  0  0  0  0  0  0  0  0  0  0  0
  2  1  1  6
  3  2  1  0
  3  4  1  0
  4  5  2  0
  5  6  1  0
  7  6  2  0
  8  7  1  0
  9  4  1  0
  9  8  2  0
 10 17  1  0
 10  2  1  0
 11 10  2  0
 13 12  1  6
 14 13  1  0
 16 15  1  1
 15 13  1  0
 16 17  1  0
 18 16  1  0
 19 18  2  0
 20 18  1  0
 21 20  1  0
 21 22  1  6
 22 23  1  0
 23 24  1  0
 24 25  1  0
 26 25  1  0
 27 29  1  0
 27 21  1  0
 28 27  2  0
M  END
$$$$
