FLK.pdb
     RDKit          3D

 29 29  0  0  1  0  0  0  0  0999 V2000
   28.8654  -18.5189  -13.8782 N   0  0  0  0  0  0  0  0  0  0  0  0
   27.4656  -18.6721  -13.5425 C   0  0  1  0  0  0  0  0  0  0  0  0
   26.7049  -18.6651  -14.8627 C   0  0  0  0  0  0  0  0  0  0  0  0
   26.8669  -17.3145  -15.4529 C   0  0  0  0  0  0  0  0  0  0  0  0
   27.1888  -17.1521  -16.7715 C   0  0  0  0  0  0  0  0  0  0  0  0
   27.3444  -15.9250  -17.3698 C   0  0  0  0  0  0  0  0  0  0  0  0
   27.1626  -14.8126  -16.5836 C   0  0  0  0  0  0  0  0  0  0  0  0
   26.8389  -14.9232  -15.2544 C   0  0  0  0  0  0  0  0  0  0  0  0
   26.6855  -16.1794  -14.6677 C   0  0  0  0  0  0  0  0  0  0  0  0
   27.1516  -19.8432  -12.7309 C   0  0  0  0  0  0  0  0  0  0  0  0
   27.3320  -20.9774  -13.2294 O   0  0  0  0  0  0  0  0  0  0  0  0
   27.3271  -19.1198   -7.3423 C   0  0  0  0  0  0  0  0  0  0  0  0
   27.5997  -19.8277   -8.6576 C   0  0  1  0  0  0  0  0  0  0  0  0
   28.8851  -20.5887   -8.6805 C   0  0  0  0  0  0  0  0  0  0  0  0
   26.4081  -20.5589   -9.1528 C   0  0  0  0  0  0  0  0  0  0  0  0
   26.4318  -20.9627  -10.6006 C   0  0  2  0  0  0  0  0  0  0  0  0
   26.6510  -19.7779  -11.4016 N   0  0  0  0  0  0  0  0  0  0  0  0
   25.0786  -21.5125  -10.9890 C   0  0  0  0  0  0  0  0  0  0  0  0
   24.5735  -22.4840  -10.3694 O   0  0  0  0  0  0  0  0  0  0  0  0
   24.3311  -20.9729  -12.0450 N   0  0  0  0  0  0  0  0  0  0  0  0
   23.0057  -21.5675  -12.4229 C   0  0  1  0  0  0  0  0  0  0  0  0
   21.9535  -20.6375  -11.9994 C   0  0  0  0  0  0  0  0  0  0  0  0
   20.5573  -20.9517  -12.2999 C   0  0  0  0  0  0  0  0  0  0  0  0
   19.7874  -22.0145  -11.6522 C   0  0  0  0  0  0  0  0  0  0  0  0
   18.4089  -22.2753  -12.1956 C   0  0  0  0  0  0  0  0  0  0  0  0
   17.7337  -23.3685  -11.5674 N   0  0  0  0  0  0  0  0  0  0  0  0
   23.1124  -21.7911  -13.8610 C   0  0  0  0  0  0  0  0  0  0  0  0
   24.0423  -21.1256  -14.4872 O   0  0  0  0  0  0  0  0  0  0  0  0
   22.3858  -22.6077  -14.6758 O   0  0  0  0  0  0  0  0  0  0  0  0
  2  1  1  6
  3  2  1  0
  3  4  1  0
  4  5  2  0
  5  6  1  0
  7  6  2  0
  8  7  1  0
  9  4  1  0
  9  8  2  0
 10 17  1  0
 10  2  1  0
 11 10  2  0
 13 12  1  1
 14 13  1  0
 16 15  1  1
 15 13  1  0
 16 17  1  0
 18 16  1  0
 19 18  2  0
 20 18  1  0
 21 20  1  0
 21 22  1  6
 22 23  1  0
 23 24  1  0
 24 25  1  0
 26 25  1  0
 27 29  1  0
 27 21  1  0
 28 27  2  0
M  END
$$$$
