FLK.pdb
     RDKit          3D

 29 29  0  0  1  0  0  0  0  0999 V2000
   17.2350  -28.5746   -9.9774 N   0  0  0  0  0  0  0  0  0  0  0  0
   18.1909  -28.3597   -8.9118 C   0  0  1  0  0  0  0  0  0  0  0  0
   18.7264  -26.9451   -9.0952 C   0  0  0  0  0  0  0  0  0  0  0  0
   19.5495  -26.9462  -10.3286 C   0  0  0  0  0  0  0  0  0  0  0  0
   20.7137  -27.6588  -10.4020 C   0  0  0  0  0  0  0  0  0  0  0  0
   21.5100  -27.6995  -11.5211 C   0  0  0  0  0  0  0  0  0  0  0  0
   21.0971  -26.9780  -12.6154 C   0  0  0  0  0  0  0  0  0  0  0  0
   19.9361  -26.2464  -12.5911 C   0  0  0  0  0  0  0  0  0  0  0  0
   19.1427  -26.2196  -11.4442 C   0  0  0  0  0  0  0  0  0  0  0  0
   17.6736  -28.5839   -7.5661 C   0  0  0  0  0  0  0  0  0  0  0  0
   16.5114  -28.1988   -7.3044 O   0  0  0  0  0  0  0  0  0  0  0  0
   19.4239  -32.8348   -4.1566 C   0  0  0  0  0  0  0  0  0  0  0  0
   18.5442  -31.8897   -4.9556 C   0  0  1  0  0  0  0  0  0  0  0  0
   17.1388  -32.3676   -5.1239 C   0  0  0  0  0  0  0  0  0  0  0  0
   18.6985  -30.4815   -4.5164 C   0  0  0  0  0  0  0  0  0  0  0  0
   17.8397  -29.4688   -5.2212 C   0  0  2  0  0  0  0  0  0  0  0  0
   18.4098  -29.2159   -6.5267 N   0  0  0  0  0  0  0  0  0  0  0  0
   17.8813  -28.1625   -4.4622 C   0  0  0  0  0  0  0  0  0  0  0  0
   18.9311  -27.4702   -4.4240 O   0  0  0  0  0  0  0  0  0  0  0  0
   16.7659  -27.6661   -3.7732 N   0  0  0  0  0  0  0  0  0  0  0  0
   16.8338  -26.3451   -3.0637 C   0  0  1  0  0  0  0  0  0  0  0  0
   15.4773  -25.7898   -3.0074 C   0  0  0  0  0  0  0  0  0  0  0  0
   15.2455  -24.5393   -2.2856 C   0  0  0  0  0  0  0  0  0  0  0  0
   13.9572  -23.8490   -2.2131 C   0  0  0  0  0  0  0  0  0  0  0  0
   13.9021  -22.6125   -1.3577 C   0  0  0  0  0  0  0  0  0  0  0  0
   12.6376  -21.9446   -1.3824 N   0  0  0  0  0  0  0  0  0  0  0  0
   17.4422  -26.6631   -1.7759 C   0  0  0  0  0  0  0  0  0  0  0  0
   17.1305  -27.8157   -1.2525 O   0  0  0  0  0  0  0  0  0  0  0  0
   18.3102  -25.9374   -1.0153 O   0  0  0  0  0  0  0  0  0  0  0  0
  2  1  1  6
  3  2  1  0
  3  4  1  0
  4  5  2  0
  5  6  1  0
  7  6  2  0
  8  7  1  0
  9  4  1  0
  9  8  2  0
 10 17  1  0
 10  2  1  0
 11 10  2  0
 13 12  1  1
 14 13  1  0
 16 15  1  1
 15 13  1  0
 16 17  1  0
 18 16  1  0
 19 18  2  0
 20 18  1  0
 21 20  1  0
 21 22  1  1
 22 23  1  0
 23 24  1  0
 24 25  1  0
 26 25  1  0
 27 29  1  0
 27 21  1  0
 28 27  2  0
M  END
$$$$
