FLK.pdb
     RDKit          3D

 29 29  0  0  1  0  0  0  0  0999 V2000
   28.5156  -20.4639  -14.0889 N   0  0  0  0  0  0  0  0  0  0  0  0
   27.4444  -19.8333  -13.3470 C   0  0  1  0  0  0  0  0  0  0  0  0
   26.4383  -19.3424  -14.3806 C   0  0  0  0  0  0  0  0  0  0  0  0
   27.0617  -18.1978  -15.0876 C   0  0  0  0  0  0  0  0  0  0  0  0
   27.6032  -18.3457  -16.3340 C   0  0  0  0  0  0  0  0  0  0  0  0
   28.1866  -17.3182  -17.0355 C   0  0  0  0  0  0  0  0  0  0  0  0
   28.2179  -16.0826  -16.4347 C   0  0  0  0  0  0  0  0  0  0  0  0
   27.6878  -15.8833  -15.1844 C   0  0  0  0  0  0  0  0  0  0  0  0
   27.1000  -16.9409  -14.4904 C   0  0  0  0  0  0  0  0  0  0  0  0
   26.8237  -20.6730  -12.3280 C   0  0  0  0  0  0  0  0  0  0  0  0
   26.6759  -21.8921  -12.5718 O   0  0  0  0  0  0  0  0  0  0  0  0
   27.1726  -19.4078   -6.9524 C   0  0  0  0  0  0  0  0  0  0  0  0
   27.1631  -20.2126   -8.2399 C   0  0  1  0  0  0  0  0  0  0  0  0
   28.0289  -21.4295   -8.1994 C   0  0  0  0  0  0  0  0  0  0  0  0
   25.7885  -20.4158   -8.7584 C   0  0  0  0  0  0  0  0  0  0  0  0
   25.6792  -21.0388  -10.1222 C   0  0  2  0  0  0  0  0  0  0  0  0
   26.3734  -20.1921  -11.0679 N   0  0  0  0  0  0  0  0  0  0  0  0
   24.2279  -21.0707  -10.5428 C   0  0  0  0  0  0  0  0  0  0  0  0
   23.3424  -21.5294   -9.7757 O   0  0  0  0  0  0  0  0  0  0  0  0
   23.8044  -20.5966  -11.7922 N   0  0  0  0  0  0  0  0  0  0  0  0
   22.3652  -20.7101  -12.2030 C   0  0  1  0  0  0  0  0  0  0  0  0
   22.0045  -19.4913  -12.9351 C   0  0  0  0  0  0  0  0  0  0  0  0
   20.6662  -19.3731  -13.5126 C   0  0  0  0  0  0  0  0  0  0  0  0
   20.2258  -18.2712  -14.3690 C   0  0  0  0  0  0  0  0  0  0  0  0
   18.8023  -18.3215  -14.8536 C   0  0  0  0  0  0  0  0  0  0  0  0
   18.3851  -17.1466  -15.5544 N   0  0  0  0  0  0  0  0  0  0  0  0
   22.3104  -21.9500  -12.9707 C   0  0  0  0  0  0  0  0  0  0  0  0
   23.4375  -22.3800  -13.4650 O   0  0  0  0  0  0  0  0  0  0  0  0
   21.2486  -22.7559  -13.2564 O   0  0  0  0  0  0  0  0  0  0  0  0
  2  1  1  6
  3  2  1  0
  3  4  1  0
  4  5  2  0
  5  6  1  0
  7  6  2  0
  8  7  1  0
  9  4  1  0
  9  8  2  0
 10 17  1  0
 10  2  1  0
 11 10  2  0
 13 12  1  1
 14 13  1  0
 16 15  1  1
 15 13  1  0
 16 17  1  0
 18 16  1  0
 19 18  2  0
 20 18  1  0
 21 20  1  0
 21 22  1  6
 22 23  1  0
 23 24  1  0
 24 25  1  0
 26 25  1  0
 27 29  1  0
 27 21  1  0
 28 27  2  0
M  END
$$$$
