FLK.pdb
     RDKit          3D

 29 29  0  0  1  0  0  0  0  0999 V2000
   19.6443  -23.0399  -20.1654 N   0  0  0  0  0  0  0  0  0  0  0  0
   19.5902  -21.6067  -20.3617 C   0  0  1  0  0  0  0  0  0  0  0  0
   18.4763  -21.3539  -21.3702 C   0  0  0  0  0  0  0  0  0  0  0  0
   18.9366  -21.8915  -22.6732 C   0  0  0  0  0  0  0  0  0  0  0  0
   20.0379  -21.3797  -23.3008 C   0  0  0  0  0  0  0  0  0  0  0  0
   20.5107  -21.8443  -24.5045 C   0  0  0  0  0  0  0  0  0  0  0  0
   19.8256  -22.8798  -25.0936 C   0  0  0  0  0  0  0  0  0  0  0  0
   18.7141  -23.4275  -24.5034 C   0  0  0  0  0  0  0  0  0  0  0  0
   18.2519  -22.9402  -23.2809 C   0  0  0  0  0  0  0  0  0  0  0  0
   19.4185  -20.8242  -19.1423 C   0  0  0  0  0  0  0  0  0  0  0  0
   18.7215  -21.3057  -18.2204 O   0  0  0  0  0  0  0  0  0  0  0  0
   21.6730  -18.8761  -15.4986 C   0  0  0  0  0  0  0  0  0  0  0  0
   21.3362  -17.5639  -16.1844 C   0  0  1  0  0  0  0  0  0  0  0  0
   22.3766  -16.5058  -16.0109 C   0  0  0  0  0  0  0  0  0  0  0  0
   20.8501  -17.7697  -17.5704 C   0  0  0  0  0  0  0  0  0  0  0  0
   19.7351  -18.7633  -17.7417 C   0  0  2  0  0  0  0  0  0  0  0  0
   19.9963  -19.5420  -18.9328 N   0  0  0  0  0  0  0  0  0  0  0  0
   18.4376  -18.0240  -17.9750 C   0  0  0  0  0  0  0  0  0  0  0  0
   18.2819  -17.2954  -18.9888 O   0  0  0  0  0  0  0  0  0  0  0  0
   17.3591  -18.1139  -17.0839 N   0  0  0  0  0  0  0  0  0  0  0  0
   16.1060  -17.3224  -17.3212 C   0  0  1  0  0  0  0  0  0  0  0  0
   14.9592  -18.1971  -17.0544 C   0  0  0  0  0  0  0  0  0  0  0  0
   13.6062  -17.6489  -17.1390 C   0  0  0  0  0  0  0  0  0  0  0  0
   12.3909  -18.3765  -16.7713 C   0  0  0  0  0  0  0  0  0  0  0  0
   11.0915  -17.6301  -16.9056 C   0  0  0  0  0  0  0  0  0  0  0  0
    9.9704  -18.3064  -16.3299 N   0  0  0  0  0  0  0  0  0  0  0  0
   16.2412  -16.1680  -16.4387 C   0  0  0  0  0  0  0  0  0  0  0  0
   15.5807  -15.0959  -16.7759 O   0  0  0  0  0  0  0  0  0  0  0  0
   16.9569  -16.0261  -15.2871 O   0  0  0  0  0  0  0  0  0  0  0  0
  2  1  1  1
  3  2  1  0
  3  4  1  0
  4  5  2  0
  5  6  1  0
  7  6  2  0
  8  7  1  0
  9  4  1  0
  9  8  2  0
 10 17  1  0
 10  2  1  0
 11 10  2  0
 13 12  1  6
 14 13  1  0
 16 15  1  6
 15 13  1  0
 16 17  1  0
 18 16  1  0
 19 18  2  0
 20 18  1  0
 21 20  1  0
 21 22  1  1
 22 23  1  0
 23 24  1  0
 24 25  1  0
 26 25  1  0
 27 29  1  0
 27 21  1  0
 28 27  2  0
M  END
$$$$
