LTT.pdb
     RDKit          3D

 23 22  0  0  1  0  0  0  0  0999 V2000
    9.5362  -12.8568   20.0665 C   0  0  0  0  0  0  0  0  0  0  0  0
    8.4158  -13.0652   19.0370 C   0  0  2  0  0  0  0  0  0  0  0  0
    7.4631  -11.9317   19.2261 C   0  0  0  0  0  0  0  0  0  0  0  0
    7.8483  -14.4251   19.3102 C   0  0  0  0  0  0  0  0  0  0  0  0
    8.8890  -15.4850   19.1105 C   0  0  2  0  0  0  0  0  0  0  0  0
    8.7677  -16.0063   17.7672 N   0  0  0  0  0  0  0  0  0  0  0  0
    8.6530  -16.5725   20.1216 C   0  0  0  0  0  0  0  0  0  0  0  0
    7.6178  -17.2835   20.0495 O   0  0  0  0  0  0  0  0  0  0  0  0
   10.0340  -19.4864   20.4247 C   0  0  0  0  0  0  0  0  0  0  0  0
   10.2646  -19.0004   21.8531 C   0  0  1  0  0  0  0  0  0  0  0  0
   11.5564  -18.5330   21.9944 O   0  0  0  0  0  0  0  0  0  0  0  0
    9.2654  -17.8922   22.1209 C   0  0  2  0  0  0  0  0  0  0  0  0
    9.5662  -16.8368   21.1755 N   0  0  0  0  0  0  0  0  0  0  0  0
    9.4511  -17.3282   23.4777 C   0  0  0  0  0  0  0  0  0  0  0  0
   10.2992  -16.4286   23.7355 O   0  0  0  0  0  0  0  0  0  0  0  0
    6.6260  -15.9354   25.5429 C   0  0  0  0  0  0  0  0  0  0  0  0
    7.3337  -16.9866   26.3357 C   0  0  1  0  0  0  0  0  0  0  0  0
    6.6300  -18.1836   26.2138 O   0  0  0  0  0  0  0  0  0  0  0  0
    8.7543  -17.2205   25.8758 C   0  0  2  0  0  0  0  0  0  0  0  0
    8.6596  -17.8016   24.5340 N   0  0  0  0  0  0  0  0  0  0  0  0
    9.5071  -18.1117   26.7555 C   0  0  0  0  0  0  0  0  0  0  0  0
    9.9428  -19.2052   26.3221 O   0  0  0  0  0  0  0  0  0  0  0  0
    9.7671  -17.7952   28.0775 O   0  0  0  0  0  0  0  0  0  0  0  0
  2  1  1  1
  3  2  1  0
  4  2  1  0
  5  6  1  6
  5  4  1  0
  7  5  1  0
  8  7  2  0
 10  9  1  6
 10 12  1  0
 11 10  1  0
 12 14  1  0
 12 13  1  6
 13  7  1  0
 14 20  1  0
 15 14  2  0
 17 18  1  0
 17 16  1  6
 19 17  1  0
 19 21  1  0
 19 20  1  6
 21 22  2  0
 21 23  1  0
M  END
$$$$
