LTT.pdb
     RDKit          3D

 23 22  0  0  1  0  0  0  0  0999 V2000
    7.0232  -12.1584   19.5530 C   0  0  0  0  0  0  0  0  0  0  0  0
    8.0048  -13.2278   20.0544 C   0  0  2  0  0  0  0  0  0  0  0  0
    9.3656  -12.6238   19.9479 C   0  0  0  0  0  0  0  0  0  0  0  0
    7.7765  -14.4358   19.1973 C   0  0  0  0  0  0  0  0  0  0  0  0
    8.5846  -15.5977   19.6908 C   0  0  2  0  0  0  0  0  0  0  0  0
    8.3120  -16.7422   18.8500 N   0  0  0  0  0  0  0  0  0  0  0  0
    8.1834  -15.8800   21.1121 C   0  0  0  0  0  0  0  0  0  0  0  0
    6.9924  -16.1831   21.3804 O   0  0  0  0  0  0  0  0  0  0  0  0
   11.0181  -16.9400   23.8231 C   0  0  0  0  0  0  0  0  0  0  0  0
    9.5708  -17.4222   23.8716 C   0  0  1  0  0  0  0  0  0  0  0  0
    9.2641  -17.8817   25.1373 O   0  0  0  0  0  0  0  0  0  0  0  0
    8.6890  -16.2447   23.5048 C   0  0  2  0  0  0  0  0  0  0  0  0
    9.1093  -15.8177   22.1860 N   0  0  0  0  0  0  0  0  0  0  0  0
    8.9159  -15.1065   24.4247 C   0  0  0  0  0  0  0  0  0  0  0  0
    9.8899  -14.3116   24.3039 O   0  0  0  0  0  0  0  0  0  0  0  0
    6.2947  -12.4250   25.3331 C   0  0  0  0  0  0  0  0  0  0  0  0
    6.7789  -13.1553   26.5442 C   0  0  1  0  0  0  0  0  0  0  0  0
    5.8974  -14.2007   26.8142 O   0  0  0  0  0  0  0  0  0  0  0  0
    8.1649  -13.7332   26.3737 C   0  0  2  0  0  0  0  0  0  0  0  0
    8.0205  -14.8863   25.4811 N   0  0  0  0  0  0  0  0  0  0  0  0
    8.7767  -14.1488   27.6337 C   0  0  0  0  0  0  0  0  0  0  0  0
    9.0175  -13.3019   28.5272 O   0  0  0  0  0  0  0  0  0  0  0  0
    9.1104  -15.4670   27.8913 O   0  0  0  0  0  0  0  0  0  0  0  0
  2  1  1  6
  3  2  1  0
  4  2  1  0
  5  6  1  6
  5  4  1  0
  7  5  1  0
  8  7  2  0
 10  9  1  1
 10 12  1  0
 11 10  1  0
 12 14  1  0
 12 13  1  6
 13  7  1  0
 14 20  1  0
 15 14  2  0
 17 18  1  0
 17 16  1  6
 19 17  1  0
 19 21  1  0
 19 20  1  6
 21 22  2  0
 21 23  1  0
M  END
$$$$
