LTT.pdb
     RDKit          3D

 23 22  0  0  1  0  0  0  0  0999 V2000
    9.6119  -13.0056   19.8790 C   0  0  0  0  0  0  0  0  0  0  0  0
    8.2306  -13.4283   19.3576 C   0  0  2  0  0  0  0  0  0  0  0  0
    7.4693  -12.1649   19.1294 C   0  0  0  0  0  0  0  0  0  0  0  0
    7.6542  -14.3387   20.3993 C   0  0  0  0  0  0  0  0  0  0  0  0
    8.5343  -15.5342   20.6058 C   0  0  2  0  0  0  0  0  0  0  0  0
    8.1033  -16.5868   19.7128 N   0  0  0  0  0  0  0  0  0  0  0  0
    8.4046  -15.9719   22.0384 C   0  0  0  0  0  0  0  0  0  0  0  0
    7.2659  -16.1763   22.5323 O   0  0  0  0  0  0  0  0  0  0  0  0
    9.5036  -18.9586   23.2553 C   0  0  0  0  0  0  0  0  0  0  0  0
   10.1305  -17.9980   24.2623 C   0  0  1  0  0  0  0  0  0  0  0  0
   11.4551  -17.7717   23.9435 O   0  0  0  0  0  0  0  0  0  0  0  0
    9.3412  -16.7049   24.2062 C   0  0  2  0  0  0  0  0  0  0  0  0
    9.5344  -16.1684   22.8746 N   0  0  0  0  0  0  0  0  0  0  0  0
    9.8849  -15.7109   25.1599 C   0  0  0  0  0  0  0  0  0  0  0  0
   10.8553  -14.9526   24.8803 O   0  0  0  0  0  0  0  0  0  0  0  0
    8.4670  -12.7665   26.9274 C   0  0  0  0  0  0  0  0  0  0  0  0
    8.8205  -13.8118   27.9358 C   0  0  1  0  0  0  0  0  0  0  0  0
    7.6825  -14.5693   28.2077 O   0  0  0  0  0  0  0  0  0  0  0  0
    9.9123  -14.7448   27.4652 C   0  0  2  0  0  0  0  0  0  0  0  0
    9.3095  -15.5926   26.4332 N   0  0  0  0  0  0  0  0  0  0  0  0
   10.4649  -15.5734   28.5343 C   0  0  0  0  0  0  0  0  0  0  0  0
   11.0151  -15.0383   29.5264 O   0  0  0  0  0  0  0  0  0  0  0  0
   10.4068  -16.9558   28.4999 O   0  0  0  0  0  0  0  0  0  0  0  0
  2  1  1  1
  3  2  1  0
  4  2  1  0
  5  6  1  6
  5  4  1  0
  7  5  1  0
  8  7  2  0
 10  9  1  6
 10 12  1  0
 11 10  1  0
 12 14  1  0
 12 13  1  6
 13  7  1  0
 14 20  1  0
 15 14  2  0
 17 18  1  0
 17 16  1  6
 19 17  1  0
 19 21  1  0
 19 20  1  6
 21 22  2  0
 21 23  1  0
M  END
$$$$
