LTT.pdb
     RDKit          3D

 23 22  0  0  1  0  0  0  0  0999 V2000
    9.6579  -12.8291   19.5208 C   0  0  0  0  0  0  0  0  0  0  0  0
    8.2356  -13.3554   19.2787 C   0  0  2  0  0  0  0  0  0  0  0  0
    7.3724  -12.1505   19.1020 C   0  0  0  0  0  0  0  0  0  0  0  0
    7.9010  -14.2089   20.4643 C   0  0  0  0  0  0  0  0  0  0  0  0
    8.8037  -15.4036   20.5304 C   0  0  2  0  0  0  0  0  0  0  0  0
    8.3560  -16.3770   19.5592 N   0  0  0  0  0  0  0  0  0  0  0  0
    8.7297  -15.9727   21.9201 C   0  0  0  0  0  0  0  0  0  0  0  0
    7.6201  -16.3251   22.3965 O   0  0  0  0  0  0  0  0  0  0  0  0
   10.0972  -18.9064   23.0967 C   0  0  0  0  0  0  0  0  0  0  0  0
   10.6268  -17.9070   24.1216 C   0  0  1  0  0  0  0  0  0  0  0  0
   11.9320  -17.5669   23.8247 O   0  0  0  0  0  0  0  0  0  0  0  0
    9.7323  -16.6842   24.0654 C   0  0  2  0  0  0  0  0  0  0  0  0
    9.8812  -16.1327   22.7343 N   0  0  0  0  0  0  0  0  0  0  0  0
   10.1903  -15.6488   25.0201 C   0  0  0  0  0  0  0  0  0  0  0  0
   11.1638  -14.8803   24.7824 O   0  0  0  0  0  0  0  0  0  0  0  0
    8.4389  -12.7071   26.3735 C   0  0  0  0  0  0  0  0  0  0  0  0
    8.7590  -13.6310   27.5042 C   0  0  1  0  0  0  0  0  0  0  0  0
    7.6569  -14.4536   27.7309 O   0  0  0  0  0  0  0  0  0  0  0  0
    9.9596  -14.5077   27.2321 C   0  0  2  0  0  0  0  0  0  0  0  0
    9.5259  -15.5011   26.2461 N   0  0  0  0  0  0  0  0  0  0  0  0
   10.4689  -15.1771   28.4268 C   0  0  0  0  0  0  0  0  0  0  0  0
   10.4771  -16.4297   28.4926 O   0  0  0  0  0  0  0  0  0  0  0  0
   10.9544  -14.4735   29.5152 O   0  0  0  0  0  0  0  0  0  0  0  0
  2  1  1  1
  3  2  1  0
  4  2  1  0
  5  6  1  6
  5  4  1  0
  7  5  1  0
  8  7  2  0
 10  9  1  6
 10 12  1  0
 11 10  1  0
 12 14  1  0
 12 13  1  6
 13  7  1  0
 14 20  1  0
 15 14  2  0
 17 18  1  0
 17 16  1  6
 19 17  1  0
 19 21  1  0
 19 20  1  6
 21 22  2  0
 21 23  1  0
M  END
$$$$
