LTT.pdb
     RDKit          3D

 23 22  0  0  1  0  0  0  0  0999 V2000
    9.5257  -12.9878   19.5067 C   0  0  0  0  0  0  0  0  0  0  0  0
    8.0395  -13.3724   19.4651 C   0  0  2  0  0  0  0  0  0  0  0  0
    7.2844  -12.0934   19.3167 C   0  0  0  0  0  0  0  0  0  0  0  0
    7.7699  -14.1267   20.7317 C   0  0  0  0  0  0  0  0  0  0  0  0
    8.6309  -15.3508   20.8145 C   0  0  2  0  0  0  0  0  0  0  0  0
    8.1184  -16.3410   19.8936 N   0  0  0  0  0  0  0  0  0  0  0  0
    8.5802  -15.8670   22.2258 C   0  0  0  0  0  0  0  0  0  0  0  0
    7.4699  -16.0818   22.7767 O   0  0  0  0  0  0  0  0  0  0  0  0
    9.8293  -18.9402   23.3666 C   0  0  0  0  0  0  0  0  0  0  0  0
   10.4769  -17.9433   24.3239 C   0  0  1  0  0  0  0  0  0  0  0  0
   11.7672  -17.6634   23.9188 O   0  0  0  0  0  0  0  0  0  0  0  0
    9.6299  -16.6860   24.3093 C   0  0  2  0  0  0  0  0  0  0  0  0
    9.7548  -16.1275   22.9786 N   0  0  0  0  0  0  0  0  0  0  0  0
   10.1607  -15.6789   25.2566 C   0  0  0  0  0  0  0  0  0  0  0  0
   11.1367  -14.9264   24.9807 O   0  0  0  0  0  0  0  0  0  0  0  0
    8.7049  -12.6627   26.7199 C   0  0  0  0  0  0  0  0  0  0  0  0
    8.9652  -13.6401   27.8205 C   0  0  1  0  0  0  0  0  0  0  0  0
    7.8058  -14.3825   28.0385 O   0  0  0  0  0  0  0  0  0  0  0  0
   10.0922  -14.5977   27.5092 C   0  0  2  0  0  0  0  0  0  0  0  0
    9.5661  -15.5409   26.5189 N   0  0  0  0  0  0  0  0  0  0  0  0
   10.5762  -15.3215   28.6825 C   0  0  0  0  0  0  0  0  0  0  0  0
   10.4402  -16.5663   28.7559 O   0  0  0  0  0  0  0  0  0  0  0  0
   11.1930  -14.6791   29.7420 O   0  0  0  0  0  0  0  0  0  0  0  0
  2  1  1  1
  3  2  1  0
  4  2  1  0
  5  6  1  6
  5  4  1  0
  7  5  1  0
  8  7  2  0
 10  9  1  6
 10 12  1  0
 11 10  1  0
 12 14  1  0
 12 13  1  6
 13  7  1  0
 14 20  1  0
 15 14  2  0
 17 18  1  0
 17 16  1  6
 19 17  1  0
 19 21  1  0
 19 20  1  6
 21 22  2  0
 21 23  1  0
M  END
$$$$
