LTT.pdb
     RDKit          3D

 23 22  0  0  1  0  0  0  0  0999 V2000
   -3.7138  -28.5220   26.5648 C   0  0  0  0  0  0  0  0  0  0  0  0
   -3.1276  -28.5910   27.9826 C   0  0  2  0  0  0  0  0  0  0  0  0
   -3.6981  -29.8206   28.6076 C   0  0  0  0  0  0  0  0  0  0  0  0
   -3.5050  -27.3040   28.6513 C   0  0  0  0  0  0  0  0  0  0  0  0
   -2.8811  -26.1369   27.9478 C   0  0  2  0  0  0  0  0  0  0  0  0
   -1.4473  -26.2021   28.1238 N   0  0  0  0  0  0  0  0  0  0  0  0
   -3.4299  -24.8747   28.5530 C   0  0  0  0  0  0  0  0  0  0  0  0
   -3.0472  -24.5066   29.6933 O   0  0  0  0  0  0  0  0  0  0  0  0
   -3.1453  -21.4562   27.6619 C   0  0  0  0  0  0  0  0  0  0  0  0
   -4.6486  -21.7192   27.6384 C   0  0  1  0  0  0  0  0  0  0  0  0
   -5.0628  -22.0001   26.3512 O   0  0  0  0  0  0  0  0  0  0  0  0
   -4.9161  -22.8986   28.5527 C   0  0  2  0  0  0  0  0  0  0  0  0
   -4.3807  -24.0641   27.8796 N   0  0  0  0  0  0  0  0  0  0  0  0
   -6.3709  -23.1206   28.7186 C   0  0  0  0  0  0  0  0  0  0  0  0
   -7.1136  -23.5252   27.7806 O   0  0  0  0  0  0  0  0  0  0  0  0
   -7.9881  -25.4955   30.8217 C   0  0  0  0  0  0  0  0  0  0  0  0
   -8.4977  -24.1601   31.2591 C   0  0  1  0  0  0  0  0  0  0  0  0
   -7.7508  -23.7379   32.3576 O   0  0  0  0  0  0  0  0  0  0  0  0
   -8.3977  -23.1050   30.1816 C   0  0  2  0  0  0  0  0  0  0  0  0
   -6.9667  -22.8764   29.9642 N   0  0  0  0  0  0  0  0  0  0  0  0
   -9.0568  -21.8507   30.5381 C   0  0  0  0  0  0  0  0  0  0  0  0
   -8.3750  -20.8231   30.7675 O   0  0  0  0  0  0  0  0  0  0  0  0
  -10.4332  -21.7436   30.6362 O   0  0  0  0  0  0  0  0  0  0  0  0
  2  1  1  6
  3  2  1  0
  4  2  1  0
  5  6  1  1
  5  4  1  0
  7  5  1  0
  8  7  2  0
 10  9  1  6
 10 12  1  0
 11 10  1  0
 12 14  1  0
 12 13  1  6
 13  7  1  0
 14 20  1  0
 15 14  2  0
 17 18  1  0
 17 16  1  6
 19 17  1  0
 19 21  1  0
 19 20  1  1
 21 22  2  0
 21 23  1  0
M  END
$$$$
