DAV.pdb
     RDKit          3D

 21 20  0  0  1  0  0  0  0  0999 V2000
   19.1456  -11.7191  -18.1383 N   0  0  0  0  0  0  0  0  0  0  0  0
   20.1321  -10.6865  -18.3277 C   0  0  1  0  0  0  0  0  0  0  0  0
   19.5915   -9.6279  -19.2635 C   0  0  0  0  0  0  0  0  0  0  0  0
   19.3491  -10.1632  -20.6187 C   0  0  0  0  0  0  0  0  0  0  0  0
   20.2790  -10.7856  -21.2087 O   0  0  0  0  0  0  0  0  0  0  0  0
   20.4857  -10.0119  -17.0557 C   0  0  0  0  0  0  0  0  0  0  0  0
   19.6024   -9.4312  -16.3692 O   0  0  0  0  0  0  0  0  0  0  0  0
   18.1401   -9.9939  -21.2366 O   0  0  0  0  0  0  0  0  0  0  0  0
   23.3835   -9.8964  -14.6494 C   0  0  0  0  0  0  0  0  0  0  0  0
   22.1289   -9.3372  -15.2532 C   0  0  2  0  0  0  0  0  0  0  0  0
   21.8069   -9.9682  -16.5270 N   0  0  0  0  0  0  0  0  0  0  0  0
   22.1887   -7.8536  -15.3922 C   0  0  0  0  0  0  0  0  0  0  0  0
   22.6971   -7.3527  -16.4267 O   0  0  0  0  0  0  0  0  0  0  0  0
   19.9519   -5.5030  -16.1596 C   0  0  0  0  0  0  0  0  0  0  0  0
   20.3939   -4.9806  -14.8329 C   0  0  1  0  0  0  0  0  0  0  0  0
   19.4643   -5.2663  -13.7033 C   0  0  0  0  0  0  0  0  0  0  0  0
   21.8119   -5.5007  -14.5768 C   0  0  2  0  0  0  0  0  0  0  0  0
   21.6994   -6.9469  -14.4133 N   0  0  0  0  0  0  0  0  0  0  0  0
   22.4602   -4.8607  -13.4325 C   0  0  0  0  0  0  0  0  0  0  0  0
   22.9529   -3.5778  -13.5811 O   0  0  0  0  0  0  0  0  0  0  0  0
   22.6081   -5.3951  -12.3034 O   0  0  0  0  0  0  0  0  0  0  0  0
  2  3  1  0
  2  1  1  1
  3  4  1  0
  4  5  2  0
  4  8  1  0
  6 11  1  0
  6  2  1  0
  7  6  2  0
 10 11  1  0
 10  9  1  6
 12 10  1  0
 12 18  1  0
 13 12  2  0
 15 14  1  6
 15 16  1  0
 17 18  1  1
 17 15  1  0
 19 17  1  0
 20 19  1  0
 21 19  2  0
M  END
$$$$
