DAV.pdb
     RDKit          3D

 21 20  0  0  1  0  0  0  0  0999 V2000
   16.3400  -10.0183  -16.1735 N   0  0  0  0  0  0  0  0  0  0  0  0
   17.2792   -9.4444  -15.2441 C   0  0  1  0  0  0  0  0  0  0  0  0
   17.8208   -8.1460  -15.8002 C   0  0  0  0  0  0  0  0  0  0  0  0
   18.6718   -8.3679  -16.9870 C   0  0  0  0  0  0  0  0  0  0  0  0
   18.2902   -7.9235  -18.1083 O   0  0  0  0  0  0  0  0  0  0  0  0
   16.6533   -9.1370  -13.9358 C   0  0  0  0  0  0  0  0  0  0  0  0
   15.6336   -8.3990  -13.8690 O   0  0  0  0  0  0  0  0  0  0  0  0
   19.8575   -9.0433  -16.8867 O   0  0  0  0  0  0  0  0  0  0  0  0
   16.8897  -10.3612  -10.3638 C   0  0  0  0  0  0  0  0  0  0  0  0
   16.4625   -9.3904  -11.4251 C   0  0  2  0  0  0  0  0  0  0  0  0
   17.1385   -9.6344  -12.6932 N   0  0  0  0  0  0  0  0  0  0  0  0
   16.6372   -7.9746  -10.9904 C   0  0  0  0  0  0  0  0  0  0  0  0
   17.6749   -7.3511  -11.3283 O   0  0  0  0  0  0  0  0  0  0  0  0
   14.0463   -5.3296  -11.4581 C   0  0  0  0  0  0  0  0  0  0  0  0
   14.4608   -5.2154  -10.0286 C   0  0  1  0  0  0  0  0  0  0  0  0
   13.4831   -5.7614   -9.0449 C   0  0  0  0  0  0  0  0  0  0  0  0
   15.8494   -5.8483   -9.8946 C   0  0  2  0  0  0  0  0  0  0  0  0
   15.6899   -7.2662  -10.2029 N   0  0  0  0  0  0  0  0  0  0  0  0
   16.4557   -5.6297   -8.5816 C   0  0  0  0  0  0  0  0  0  0  0  0
   16.8711   -4.3546   -8.2465 O   0  0  0  0  0  0  0  0  0  0  0  0
   16.6328   -6.5266   -7.7175 O   0  0  0  0  0  0  0  0  0  0  0  0
  2  3  1  0
  2  1  1  6
  3  4  1  0
  4  5  2  0
  4  8  1  0
  6 11  1  0
  6  2  1  0
  7  6  2  0
 10 11  1  0
 10  9  1  1
 12 10  1  0
 12 18  1  0
 13 12  2  0
 15 14  1  6
 15 16  1  0
 17 18  1  1
 17 15  1  0
 19 17  1  0
 20 19  1  0
 21 19  2  0
M  END
$$$$
