DAV.pdb
     RDKit          3D

 21 20  0  0  1  0  0  0  0  0999 V2000
   16.8450  -10.8247  -13.3101 N   0  0  0  0  0  0  0  0  0  0  0  0
   16.6284   -9.4066  -13.4422 C   0  0  1  0  0  0  0  0  0  0  0  0
   15.3574   -9.1538  -14.2227 C   0  0  0  0  0  0  0  0  0  0  0  0
   15.5059   -9.5133  -15.6477 C   0  0  0  0  0  0  0  0  0  0  0  0
   14.8938  -10.5272  -16.0924 O   0  0  0  0  0  0  0  0  0  0  0  0
   16.4783   -8.7397  -12.1266 C   0  0  0  0  0  0  0  0  0  0  0  0
   15.4056   -8.8425  -11.4729 O   0  0  0  0  0  0  0  0  0  0  0  0
   16.2917   -8.7678  -16.4837 O   0  0  0  0  0  0  0  0  0  0  0  0
   18.7089   -6.9470   -9.6382 C   0  0  0  0  0  0  0  0  0  0  0  0
   17.3872   -7.4202  -10.1678 C   0  0  2  0  0  0  0  0  0  0  0  0
   17.4999   -7.9566  -11.5184 N   0  0  0  0  0  0  0  0  0  0  0  0
   16.3449   -6.3556  -10.1012 C   0  0  0  0  0  0  0  0  0  0  0  0
   16.1033   -5.6666  -11.1241 O   0  0  0  0  0  0  0  0  0  0  0  0
   14.4378   -5.3985   -6.5027 C   0  0  0  0  0  0  0  0  0  0  0  0
   13.6424   -5.2976   -7.7619 C   0  0  1  0  0  0  0  0  0  0  0  0
   12.4904   -4.3535   -7.7040 C   0  0  0  0  0  0  0  0  0  0  0  0
   14.6139   -4.9747   -8.9015 C   0  0  2  0  0  0  0  0  0  0  0  0
   15.5893   -6.0602   -8.9344 N   0  0  0  0  0  0  0  0  0  0  0  0
   15.2463   -3.6632   -8.7625 C   0  0  0  0  0  0  0  0  0  0  0  0
   14.6457   -2.5704   -9.3589 O   0  0  0  0  0  0  0  0  0  0  0  0
   16.3132   -3.4469   -8.1321 O   0  0  0  0  0  0  0  0  0  0  0  0
  2  3  1  0
  2  1  1  1
  3  4  1  0
  4  5  2  0
  4  8  1  0
  6 11  1  0
  6  2  1  0
  7  6  2  0
 10 11  1  0
 10  9  1  6
 12 10  1  0
 12 18  1  0
 13 12  2  0
 15 14  1  1
 15 16  1  0
 17 18  1  1
 17 15  1  0
 19 17  1  0
 20 19  1  0
 21 19  2  0
M  END
$$$$
