DAV.pdb
     RDKit          3D

 21 20  0  0  1  0  0  0  0  0999 V2000
   17.2664  -12.0650  -14.5306 N   0  0  0  0  0  0  0  0  0  0  0  0
   16.5004  -10.8567  -14.7003 C   0  0  1  0  0  0  0  0  0  0  0  0
   15.0228  -11.1735  -14.6294 C   0  0  0  0  0  0  0  0  0  0  0  0
   14.5791  -11.9895  -15.7780 C   0  0  0  0  0  0  0  0  0  0  0  0
   14.8966  -11.6274  -16.9477 O   0  0  0  0  0  0  0  0  0  0  0  0
   16.7890   -9.8593  -13.6420 C   0  0  0  0  0  0  0  0  0  0  0  0
   16.8567  -10.2073  -12.4324 O   0  0  0  0  0  0  0  0  0  0  0  0
   13.8349  -13.1223  -15.5910 O   0  0  0  0  0  0  0  0  0  0  0  0
   17.9115   -6.2603  -13.3654 C   0  0  0  0  0  0  0  0  0  0  0  0
   17.2530   -7.5033  -12.8431 C   0  0  2  0  0  0  0  0  0  0  0  0
   17.0052   -8.4760  -13.9000 N   0  0  0  0  0  0  0  0  0  0  0  0
   16.0006   -7.1992  -12.0928 C   0  0  0  0  0  0  0  0  0  0  0  0
   14.9125   -7.1236  -12.7172 O   0  0  0  0  0  0  0  0  0  0  0  0
   15.9831   -6.6783   -7.9234 C   0  0  0  0  0  0  0  0  0  0  0  0
   14.7648   -7.1918   -8.6165 C   0  0  1  0  0  0  0  0  0  0  0  0
   13.4896   -7.0042   -7.8680 C   0  0  0  0  0  0  0  0  0  0  0  0
   14.7264   -6.5666  -10.0145 C   0  0  2  0  0  0  0  0  0  0  0  0
   15.9519   -6.9842  -10.6888 N   0  0  0  0  0  0  0  0  0  0  0  0
   14.5739   -5.1122   -9.9891 C   0  0  0  0  0  0  0  0  0  0  0  0
   13.3002   -4.5797   -9.9200 O   0  0  0  0  0  0  0  0  0  0  0  0
   15.5273   -4.2924  -10.0262 O   0  0  0  0  0  0  0  0  0  0  0  0
  2  3  1  0
  2  1  1  1
  3  4  1  0
  4  5  2  0
  4  8  1  0
  6 11  1  0
  6  2  1  0
  7  6  2  0
 10 11  1  0
 10  9  1  6
 12 10  1  0
 12 18  1  0
 13 12  2  0
 15 14  1  1
 15 16  1  0
 17 18  1  1
 17 15  1  0
 19 17  1  0
 20 19  1  0
 21 19  2  0
M  END
$$$$
