DAV.pdb
     RDKit          3D

 21 20  0  0  1  0  0  0  0  0999 V2000
   25.9747  -22.9384  -15.5094 N   0  0  0  0  0  0  0  0  0  0  0  0
   25.3841  -21.7237  -15.0082 C   0  0  1  0  0  0  0  0  0  0  0  0
   25.2179  -20.7316  -16.1380 C   0  0  0  0  0  0  0  0  0  0  0  0
   26.5185  -20.2252  -16.6216 C   0  0  0  0  0  0  0  0  0  0  0  0
   27.5806  -20.6330  -16.0684 O   0  0  0  0  0  0  0  0  0  0  0  0
   24.0416  -21.9555  -14.4234 C   0  0  0  0  0  0  0  0  0  0  0  0
   23.3362  -22.9298  -14.8001 O   0  0  0  0  0  0  0  0  0  0  0  0
   26.5854  -19.3278  -17.6523 O   0  0  0  0  0  0  0  0  0  0  0  0
   21.9394  -20.5506  -11.5885 C   0  0  0  0  0  0  0  0  0  0  0  0
   22.1922  -21.4295  -12.7779 C   0  0  2  0  0  0  0  0  0  0  0  0
   23.4626  -21.1234  -13.4237 N   0  0  0  0  0  0  0  0  0  0  0  0
   21.0693  -21.3801  -13.7581 C   0  0  0  0  0  0  0  0  0  0  0  0
   21.0479  -20.4689  -14.6234 O   0  0  0  0  0  0  0  0  0  0  0  0
   19.8437  -23.9355  -16.1078 C   0  0  0  0  0  0  0  0  0  0  0  0
   18.6396  -23.5722  -15.3037 C   0  0  1  0  0  0  0  0  0  0  0  0
   18.2442  -24.5758  -14.2751 C   0  0  0  0  0  0  0  0  0  0  0  0
   18.8792  -22.1806  -14.7096 C   0  0  2  0  0  0  0  0  0  0  0  0
   19.9979  -22.3135  -13.7813 N   0  0  0  0  0  0  0  0  0  0  0  0
   17.6905  -21.6167  -14.0706 C   0  0  0  0  0  0  0  0  0  0  0  0
   16.6833  -21.1114  -14.8712 O   0  0  0  0  0  0  0  0  0  0  0  0
   17.5089  -21.5536  -12.8274 O   0  0  0  0  0  0  0  0  0  0  0  0
  2  3  1  0
  2  1  1  6
  3  4  1  0
  4  5  2  0
  4  8  1  0
  6 11  1  0
  6  2  1  0
  7  6  2  0
 10 11  1  0
 10  9  1  1
 12 10  1  0
 12 18  1  0
 13 12  2  0
 15 14  1  1
 15 16  1  0
 17 18  1  1
 17 15  1  0
 19 17  1  0
 20 19  1  0
 21 19  2  0
M  END
$$$$
