DAV.pdb
     RDKit          3D

 21 20  0  0  1  0  0  0  0  0999 V2000
   16.7453  -12.0810  -14.1682 N   0  0  0  0  0  0  0  0  0  0  0  0
   16.1607  -10.7840  -14.3954 C   0  0  1  0  0  0  0  0  0  0  0  0
   14.6530  -10.8819  -14.3192 C   0  0  0  0  0  0  0  0  0  0  0  0
   14.0973  -11.6897  -15.4240 C   0  0  0  0  0  0  0  0  0  0  0  0
   13.4886  -12.7650  -15.1528 O   0  0  0  0  0  0  0  0  0  0  0  0
   16.5903   -9.7923  -13.3806 C   0  0  0  0  0  0  0  0  0  0  0  0
   16.5735  -10.0802  -12.1535 O   0  0  0  0  0  0  0  0  0  0  0  0
   14.2333  -11.2903  -16.7256 O   0  0  0  0  0  0  0  0  0  0  0  0
   18.1923   -6.3549  -13.2861 C   0  0  0  0  0  0  0  0  0  0  0  0
   17.4525   -7.5157  -12.6891 C   0  0  2  0  0  0  0  0  0  0  0  0
   17.0406   -8.4803  -13.7013 N   0  0  0  0  0  0  0  0  0  0  0  0
   16.2891   -7.0741  -11.8674 C   0  0  0  0  0  0  0  0  0  0  0  0
   15.1693   -6.9231  -12.4178 O   0  0  0  0  0  0  0  0  0  0  0  0
   14.0042   -6.4134   -7.6443 C   0  0  0  0  0  0  0  0  0  0  0  0
   15.0870   -7.0425   -8.4567 C   0  0  1  0  0  0  0  0  0  0  0  0
   14.9086   -8.4983   -8.7224 C   0  0  0  0  0  0  0  0  0  0  0  0
   15.2413   -6.2224   -9.7414 C   0  0  2  0  0  0  0  0  0  0  0  0
   16.3611   -6.8062  -10.4736 N   0  0  0  0  0  0  0  0  0  0  0  0
   15.4251   -4.7931   -9.4915 C   0  0  0  0  0  0  0  0  0  0  0  0
   16.7006   -4.2654   -9.5644 O   0  0  0  0  0  0  0  0  0  0  0  0
   14.4976   -3.9913   -9.2098 O   0  0  0  0  0  0  0  0  0  0  0  0
  2  3  1  0
  2  1  1  1
  3  4  1  0
  4  5  2  0
  4  8  1  0
  6 11  1  0
  6  2  1  0
  7  6  2  0
 10 11  1  0
 10  9  1  6
 12 10  1  0
 12 18  1  0
 13 12  2  0
 15 14  1  6
 15 16  1  0
 17 18  1  1
 17 15  1  0
 19 17  1  0
 20 19  1  0
 21 19  2  0
M  END
$$$$
