DAV.pdb
     RDKit          3D

 21 20  0  0  1  0  0  0  0  0999 V2000
   16.1002  -14.1323  -16.9813 N   0  0  0  0  0  0  0  0  0  0  0  0
   16.1114  -12.6976  -16.8508 C   0  0  1  0  0  0  0  0  0  0  0  0
   15.6108  -12.3048  -15.4783 C   0  0  0  0  0  0  0  0  0  0  0  0
   14.2027  -12.7006  -15.2719 C   0  0  0  0  0  0  0  0  0  0  0  0
   13.3204  -12.2693  -16.0693 O   0  0  0  0  0  0  0  0  0  0  0  0
   17.4743  -12.1338  -17.0014 C   0  0  0  0  0  0  0  0  0  0  0  0
   18.4593  -12.6724  -16.4284 O   0  0  0  0  0  0  0  0  0  0  0  0
   13.8466  -13.5210  -14.2365 O   0  0  0  0  0  0  0  0  0  0  0  0
   19.2133   -9.4267  -19.0124 C   0  0  0  0  0  0  0  0  0  0  0  0
   19.1105  -10.4223  -17.8945 C   0  0  2  0  0  0  0  0  0  0  0  0
   17.7680  -10.9781  -17.7792 N   0  0  0  0  0  0  0  0  0  0  0  0
   19.5658   -9.8515  -16.5942 C   0  0  0  0  0  0  0  0  0  0  0  0
   18.7148   -9.3858  -15.7952 O   0  0  0  0  0  0  0  0  0  0  0  0
   23.5132  -10.2002  -15.2140 C   0  0  0  0  0  0  0  0  0  0  0  0
   22.3603  -10.0330  -14.2807 C   0  0  1  0  0  0  0  0  0  0  0  0
   22.7223   -9.5702  -12.9109 C   0  0  0  0  0  0  0  0  0  0  0  0
   21.3384   -9.1177  -14.9625 C   0  0  2  0  0  0  0  0  0  0  0  0
   20.9264   -9.7968  -16.1873 N   0  0  0  0  0  0  0  0  0  0  0  0
   21.8533   -7.7729  -15.2188 C   0  0  0  0  0  0  0  0  0  0  0  0
   21.7770   -6.8300  -14.2110 O   0  0  0  0  0  0  0  0  0  0  0  0
   22.3691   -7.3994  -16.3037 O   0  0  0  0  0  0  0  0  0  0  0  0
  2  3  1  0
  2  1  1  1
  3  4  1  0
  4  5  2  0
  4  8  1  0
  6 11  1  0
  6  2  1  0
  7  6  2  0
 10 11  1  0
 10  9  1  6
 12 10  1  0
 12 18  1  0
 13 12  2  0
 15 14  1  6
 15 16  1  0
 17 18  1  6
 17 15  1  0
 19 17  1  0
 20 19  1  0
 21 19  2  0
M  END
$$$$
