DAV.pdb
     RDKit          3D

 21 20  0  0  1  0  0  0  0  0999 V2000
   24.6862  -19.8807  -15.5830 N   0  0  0  0  0  0  0  0  0  0  0  0
   23.8902  -20.2577  -14.4430 C   0  0  1  0  0  0  0  0  0  0  0  0
   22.9113  -21.3412  -14.8383 C   0  0  0  0  0  0  0  0  0  0  0  0
   22.3588  -21.1173  -16.1898 C   0  0  0  0  0  0  0  0  0  0  0  0
   21.7478  -20.0365  -16.4323 O   0  0  0  0  0  0  0  0  0  0  0  0
   24.7184  -20.7939  -13.3363 C   0  0  0  0  0  0  0  0  0  0  0  0
   24.1780  -21.3039  -12.3182 O   0  0  0  0  0  0  0  0  0  0  0  0
   22.4997  -22.0587  -17.1728 O   0  0  0  0  0  0  0  0  0  0  0  0
   28.4088  -21.2309  -12.5174 C   0  0  0  0  0  0  0  0  0  0  0  0
   26.9395  -21.2543  -12.2142 C   0  0  2  0  0  0  0  0  0  0  0  0
   26.1420  -20.7754  -13.3363 N   0  0  0  0  0  0  0  0  0  0  0  0
   26.6139  -20.5023  -10.9682 C   0  0  0  0  0  0  0  0  0  0  0  0
   26.3809  -19.2692  -11.0371 O   0  0  0  0  0  0  0  0  0  0  0  0
   25.8375  -22.4078   -7.3138 C   0  0  0  0  0  0  0  0  0  0  0  0
   25.2470  -21.0828   -7.6657 C   0  0  1  0  0  0  0  0  0  0  0  0
   24.7235  -20.3007   -6.5098 C   0  0  0  0  0  0  0  0  0  0  0  0
   26.2903  -20.3092   -8.4780 C   0  0  2  0  0  0  0  0  0  0  0  0
   26.5477  -21.0975   -9.6794 N   0  0  0  0  0  0  0  0  0  0  0  0
   27.5123  -20.0291   -7.7246 C   0  0  0  0  0  0  0  0  0  0  0  0
   27.5091  -18.9841   -6.8198 O   0  0  0  0  0  0  0  0  0  0  0  0
   28.5857  -20.6753   -7.8372 O   0  0  0  0  0  0  0  0  0  0  0  0
  2  3  1  0
  2  1  1  6
  3  4  1  0
  4  5  2  0
  4  8  1  0
  6 11  1  0
  6  2  1  0
  7  6  2  0
 10 11  1  0
 10  9  1  6
 12 10  1  0
 12 18  1  0
 13 12  2  0
 15 14  1  1
 15 16  1  0
 17 18  1  6
 17 15  1  0
 19 17  1  0
 20 19  1  0
 21 19  2  0
M  END
$$$$
