DAV.pdb
     RDKit          3D

 21 20  0  0  1  0  0  0  0  0999 V2000
   18.6243  -12.1461  -17.6857 N   0  0  0  0  0  0  0  0  0  0  0  0
   18.3427  -11.6645  -16.3575 C   0  0  1  0  0  0  0  0  0  0  0  0
   18.2416  -12.8319  -15.4007 C   0  0  0  0  0  0  0  0  0  0  0  0
   17.0341  -13.6453  -15.6506 C   0  0  0  0  0  0  0  0  0  0  0  0
   16.3808  -13.4628  -16.7184 O   0  0  0  0  0  0  0  0  0  0  0  0
   19.4102  -10.7695  -15.8501 C   0  0  0  0  0  0  0  0  0  0  0  0
   19.3680  -10.3226  -14.6722 O   0  0  0  0  0  0  0  0  0  0  0  0
   16.6190  -14.5851  -14.7470 O   0  0  0  0  0  0  0  0  0  0  0  0
   22.7135   -9.3344  -17.0746 C   0  0  0  0  0  0  0  0  0  0  0  0
   21.5762   -9.4863  -16.1078 C   0  0  2  0  0  0  0  0  0  0  0  0
   20.5298  -10.3579  -16.6273 N   0  0  0  0  0  0  0  0  0  0  0  0
   21.0160   -8.1682  -15.6923 C   0  0  0  0  0  0  0  0  0  0  0  0
   20.1128   -7.6374  -16.3865 O   0  0  0  0  0  0  0  0  0  0  0  0
   20.9781   -6.9946  -11.8852 C   0  0  0  0  0  0  0  0  0  0  0  0
   20.0650   -6.3838  -12.8960 C   0  0  1  0  0  0  0  0  0  0  0  0
   19.3570   -5.1535  -12.4415 C   0  0  0  0  0  0  0  0  0  0  0  0
   20.8729   -6.1607  -14.1783 C   0  0  2  0  0  0  0  0  0  0  0  0
   21.4428   -7.4552  -14.5394 N   0  0  0  0  0  0  0  0  0  0  0  0
   21.8941   -5.1228  -14.0401 C   0  0  0  0  0  0  0  0  0  0  0  0
   21.5463   -3.8107  -14.3013 O   0  0  0  0  0  0  0  0  0  0  0  0
   23.0859   -5.3333  -13.6967 O   0  0  0  0  0  0  0  0  0  0  0  0
  2  3  1  0
  2  1  1  6
  3  4  1  0
  4  5  2  0
  4  8  1  0
  6 11  1  0
  6  2  1  0
  7  6  2  0
 10 11  1  0
 10  9  1  6
 12 10  1  0
 12 18  1  0
 13 12  2  0
 15 14  1  1
 15 16  1  0
 17 18  1  1
 17 15  1  0
 19 17  1  0
 20 19  1  0
 21 19  2  0
M  END
$$$$
