EFE.pdb
     RDKit          3D

 30 30  0  0  1  0  0  0  0  0999 V2000
   28.9124  -20.5779  -14.6562 N   0  0  0  0  0  0  0  0  0  0  0  0
   28.0618  -19.5748  -13.9923 C   0  0  1  0  0  0  0  0  0  0  0  0
   27.5301  -18.6062  -14.9920 C   0  0  0  0  0  0  0  0  0  0  0  0
   28.5302  -18.3384  -16.0772 C   0  0  0  0  0  0  0  0  0  0  0  0
   28.0498  -17.3221  -17.0183 C   0  0  0  0  0  0  0  0  0  0  0  0
   28.8312  -16.5493  -17.6089 O   0  0  0  0  0  0  0  0  0  0  0  0
   26.9458  -20.3328  -13.3847 C   0  0  0  0  0  0  0  0  0  0  0  0
   26.4564  -21.3558  -13.8959 O   0  0  0  0  0  0  0  0  0  0  0  0
   26.6929  -17.2037  -17.2685 O   0  0  0  0  0  0  0  0  0  0  0  0
   26.3484  -19.9354  -12.1551 N   0  0  0  0  0  0  0  0  0  0  0  0
   25.3311  -20.6309  -11.4562 C   0  0  1  0  0  0  0  0  0  0  0  0
   25.3551  -20.6033   -9.9867 C   0  0  0  0  0  0  0  0  0  0  0  0
   26.6696  -20.7800   -9.3554 C   0  0  0  0  0  0  0  0  0  0  0  0
   27.7153  -21.4683   -9.9233 C   0  0  0  0  0  0  0  0  0  0  0  0
   28.9069  -21.5437   -9.2086 C   0  0  0  0  0  0  0  0  0  0  0  0
   29.0385  -20.9421   -7.9583 C   0  0  0  0  0  0  0  0  0  0  0  0
   27.9816  -20.2551   -7.4029 C   0  0  0  0  0  0  0  0  0  0  0  0
   26.7995  -20.1738   -8.0999 C   0  0  0  0  0  0  0  0  0  0  0  0
   23.9755  -20.4028  -12.0669 C   0  0  0  0  0  0  0  0  0  0  0  0
   23.6141  -19.2263  -12.2791 O   0  0  0  0  0  0  0  0  0  0  0  0
   23.1210  -21.4588  -12.4042 N   0  0  0  0  0  0  0  0  0  0  0  0
   21.8008  -21.2876  -13.0695 C   0  0  1  0  0  0  0  0  0  0  0  0
   21.3712  -22.5718  -13.6480 C   0  0  0  0  0  0  0  0  0  0  0  0
   20.0516  -22.6528  -14.3099 C   0  0  0  0  0  0  0  0  0  0  0  0
   19.5815  -23.9476  -14.8017 C   0  0  0  0  0  0  0  0  0  0  0  0
   18.7900  -24.6996  -14.1257 O   0  0  0  0  0  0  0  0  0  0  0  0
   20.9416  -20.7220  -12.0219 C   0  0  0  0  0  0  0  0  0  0  0  0
   21.0265  -21.0739  -10.8331 O   0  0  0  0  0  0  0  0  0  0  0  0
   19.9538  -24.4763  -16.0542 O   0  0  0  0  0  0  0  0  0  0  0  0
   19.9688  -19.7501  -12.2848 O   0  0  0  0  0  0  0  0  0  0  0  0
  2  7  1  0
  2  1  1  6
  3  4  1  0
  3  2  1  0
  4  5  1  0
  5  6  2  0
  5  9  1  0
  7  8  2  0
 10  7  1  0
 10 11  1  0
 11 12  1  1
 12 13  1  0
 13 18  2  0
 14 13  1  0
 14 15  2  0
 15 16  1  0
 16 17  2  0
 18 17  1  0
 19 21  1  0
 19 11  1  0
 20 19  2  0
 22 23  1  1
 22 27  1  0
 22 21  1  0
 24 25  1  0
 24 23  1  0
 25 29  1  0
 26 25  2  0
 27 30  1  0
 28 27  2  0
M  END
$$$$
