EFE.pdb
     RDKit          3D

 30 30  0  0  1  0  0  0  0  0999 V2000
   29.3314  -10.8080  -17.9774 N   0  0  0  0  0  0  0  0  0  0  0  0
   30.6397  -10.2740  -18.3939 C   0  0  1  0  0  0  0  0  0  0  0  0
   30.6685  -10.0724  -19.8700 C   0  0  0  0  0  0  0  0  0  0  0  0
   30.5016  -11.3713  -20.6011 C   0  0  0  0  0  0  0  0  0  0  0  0
   30.5069  -11.1799  -22.0545 C   0  0  0  0  0  0  0  0  0  0  0  0
   30.4299  -10.0463  -22.5700 O   0  0  0  0  0  0  0  0  0  0  0  0
   30.7795   -8.9713  -17.7065 C   0  0  0  0  0  0  0  0  0  0  0  0
   29.8118   -8.2495  -17.4067 O   0  0  0  0  0  0  0  0  0  0  0  0
   30.5982  -12.2789  -22.8923 O   0  0  0  0  0  0  0  0  0  0  0  0
   32.0511   -8.4490  -17.3363 N   0  0  0  0  0  0  0  0  0  0  0  0
   32.2923   -7.2049  -16.7031 C   0  0  1  0  0  0  0  0  0  0  0  0
   33.2735   -7.1613  -15.6095 C   0  0  0  0  0  0  0  0  0  0  0  0
   33.5168   -5.8436  -15.0077 C   0  0  0  0  0  0  0  0  0  0  0  0
   32.5703   -5.1173  -14.3249 C   0  0  0  0  0  0  0  0  0  0  0  0
   32.9510   -3.8858  -13.8006 C   0  0  0  0  0  0  0  0  0  0  0  0
   34.2484   -3.4025  -13.9608 C   0  0  0  0  0  0  0  0  0  0  0  0
   35.1859   -4.1426  -14.6470 C   0  0  0  0  0  0  0  0  0  0  0  0
   34.8213   -5.3608  -15.1692 C   0  0  0  0  0  0  0  0  0  0  0  0
   32.4104   -6.0833  -17.6983 C   0  0  0  0  0  0  0  0  0  0  0  0
   33.1192   -6.2646  -18.7105 O   0  0  0  0  0  0  0  0  0  0  0  0
   31.7527   -4.8598  -17.5264 N   0  0  0  0  0  0  0  0  0  0  0  0
   31.7779   -3.7494  -18.5169 C   0  0  1  0  0  0  0  0  0  0  0  0
   30.4207   -3.5296  -19.0442 C   0  0  0  0  0  0  0  0  0  0  0  0
   30.1959   -2.4286  -20.0051 C   0  0  0  0  0  0  0  0  0  0  0  0
   28.8386   -2.1706  -20.4853 C   0  0  0  0  0  0  0  0  0  0  0  0
   27.8043   -2.7366  -19.9763 O   0  0  0  0  0  0  0  0  0  0  0  0
   32.3847   -2.6300  -17.7858 C   0  0  0  0  0  0  0  0  0  0  0  0
   33.2602   -1.9059  -18.2896 O   0  0  0  0  0  0  0  0  0  0  0  0
   28.5517   -1.2815  -21.5408 O   0  0  0  0  0  0  0  0  0  0  0  0
   32.0233   -2.2988  -16.4744 O   0  0  0  0  0  0  0  0  0  0  0  0
  2  7  1  0
  2  1  1  6
  3  4  1  0
  3  2  1  0
  4  5  1  0
  5  6  2  0
  5  9  1  0
  7  8  2  0
 10  7  1  0
 10 11  1  0
 11 12  1  6
 12 13  1  0
 13 18  2  0
 14 13  1  0
 14 15  2  0
 15 16  1  0
 16 17  2  0
 18 17  1  0
 19 21  1  0
 19 11  1  0
 20 19  2  0
 22 23  1  1
 22 27  1  0
 22 21  1  0
 24 25  1  0
 24 23  1  0
 25 29  1  0
 26 25  2  0
 27 30  1  0
 28 27  2  0
M  END
$$$$
