EFE.pdb
     RDKit          3D

 30 30  0  0  1  0  0  0  0  0999 V2000
   28.2213  -23.1242  -16.9641 N   0  0  0  0  0  0  0  0  0  0  0  0
   27.5686  -21.8038  -16.9322 C   0  0  1  0  0  0  0  0  0  0  0  0
   26.6862  -21.6355  -18.1209 C   0  0  0  0  0  0  0  0  0  0  0  0
   27.4268  -21.0103  -19.2657 C   0  0  0  0  0  0  0  0  0  0  0  0
   27.7761  -19.6140  -18.9875 C   0  0  0  0  0  0  0  0  0  0  0  0
   28.9531  -19.2047  -19.0480 O   0  0  0  0  0  0  0  0  0  0  0  0
   26.7550  -21.7873  -15.6965 C   0  0  0  0  0  0  0  0  0  0  0  0
   26.2569  -22.8097  -15.1926 O   0  0  0  0  0  0  0  0  0  0  0  0
   26.7824  -18.7120  -18.6455 O   0  0  0  0  0  0  0  0  0  0  0  0
   26.4837  -20.5810  -14.9909 N   0  0  0  0  0  0  0  0  0  0  0  0
   25.7477  -20.4642  -13.7860 C   0  0  1  0  0  0  0  0  0  0  0  0
   26.2502  -19.5487  -12.7516 C   0  0  0  0  0  0  0  0  0  0  0  0
   26.7593  -20.1733  -11.5235 C   0  0  0  0  0  0  0  0  0  0  0  0
   26.0224  -20.3363  -10.3745 C   0  0  0  0  0  0  0  0  0  0  0  0
   26.6378  -20.9562   -9.2913 C   0  0  0  0  0  0  0  0  0  0  0  0
   27.9574  -21.3983   -9.3661 C   0  0  0  0  0  0  0  0  0  0  0  0
   28.6826  -21.2284  -10.5250 C   0  0  0  0  0  0  0  0  0  0  0  0
   28.0849  -20.6175  -11.6017 C   0  0  0  0  0  0  0  0  0  0  0  0
   24.2679  -20.3738  -14.0400 C   0  0  0  0  0  0  0  0  0  0  0  0
   23.8565  -19.4939  -14.8251 O   0  0  0  0  0  0  0  0  0  0  0  0
   23.3515  -21.2402  -13.4328 N   0  0  0  0  0  0  0  0  0  0  0  0
   21.8830  -21.2068  -13.6717 C   0  0  1  0  0  0  0  0  0  0  0  0
   21.2939  -22.5032  -13.2967 C   0  0  0  0  0  0  0  0  0  0  0  0
   19.8319  -22.6872  -13.4191 C   0  0  0  0  0  0  0  0  0  0  0  0
   19.2462  -23.9796  -13.0644 C   0  0  0  0  0  0  0  0  0  0  0  0
   19.7659  -25.0977  -13.4236 O   0  0  0  0  0  0  0  0  0  0  0  0
   21.4228  -20.0358  -12.9150 C   0  0  0  0  0  0  0  0  0  0  0  0
   20.4130  -19.3896  -13.2425 O   0  0  0  0  0  0  0  0  0  0  0  0
   18.0688  -24.1072  -12.3001 O   0  0  0  0  0  0  0  0  0  0  0  0
   22.0849  -19.5641  -11.7752 O   0  0  0  0  0  0  0  0  0  0  0  0
  2  7  1  0
  2  1  1  6
  3  4  1  0
  3  2  1  0
  4  5  1  0
  5  6  2  0
  5  9  1  0
  7  8  2  0
 10  7  1  0
 10 11  1  0
 11 12  1  6
 12 13  1  0
 13 18  2  0
 14 13  1  0
 14 15  2  0
 15 16  1  0
 16 17  2  0
 18 17  1  0
 19 21  1  0
 19 11  1  0
 20 19  2  0
 22 23  1  1
 22 27  1  0
 22 21  1  0
 24 25  1  0
 24 23  1  0
 25 29  1  0
 26 25  2  0
 27 30  1  0
 28 27  2  0
M  END
$$$$
