EFE.pdb
     RDKit          3D

 30 30  0  0  1  0  0  0  0  0999 V2000
   26.9314  -22.5261  -17.8356 N   0  0  0  0  0  0  0  0  0  0  0  0
   27.4407  -21.4167  -17.0107 C   0  0  1  0  0  0  0  0  0  0  0  0
   27.2525  -20.1190  -17.7182 C   0  0  0  0  0  0  0  0  0  0  0  0
   25.8921  -20.0311  -18.3437 C   0  0  0  0  0  0  0  0  0  0  0  0
   25.4085  -18.6482  -18.3976 C   0  0  0  0  0  0  0  0  0  0  0  0
   25.9713  -17.7803  -19.0952 O   0  0  0  0  0  0  0  0  0  0  0  0
   26.6335  -21.4342  -15.7708 C   0  0  0  0  0  0  0  0  0  0  0  0
   25.4751  -21.8841  -15.7158 O   0  0  0  0  0  0  0  0  0  0  0  0
   24.2973  -18.2793  -17.6581 O   0  0  0  0  0  0  0  0  0  0  0  0
   27.1370  -20.9294  -14.5386 N   0  0  0  0  0  0  0  0  0  0  0  0
   26.4306  -20.8584  -13.3126 C   0  0  1  0  0  0  0  0  0  0  0  0
   27.1802  -20.5034  -12.0990 C   0  0  0  0  0  0  0  0  0  0  0  0
   26.3936  -20.3707  -10.8656 C   0  0  0  0  0  0  0  0  0  0  0  0
   26.2188  -19.1912  -10.1816 C   0  0  0  0  0  0  0  0  0  0  0  0
   25.4370  -19.2180   -9.0307 C   0  0  0  0  0  0  0  0  0  0  0  0
   24.8494  -20.4003   -8.5842 C   0  0  0  0  0  0  0  0  0  0  0  0
   25.0333  -21.5742   -9.2812 C   0  0  0  0  0  0  0  0  0  0  0  0
   25.8035  -21.5596  -10.4198 C   0  0  0  0  0  0  0  0  0  0  0  0
   25.1119  -20.1513  -13.4660 C   0  0  0  0  0  0  0  0  0  0  0  0
   25.1039  -19.0297  -14.0154 O   0  0  0  0  0  0  0  0  0  0  0  0
   23.9084  -20.7102  -13.0205 N   0  0  0  0  0  0  0  0  0  0  0  0
   22.5808  -20.0499  -13.1486 C   0  0  1  0  0  0  0  0  0  0  0  0
   22.1378  -20.1039  -14.5519 C   0  0  0  0  0  0  0  0  0  0  0  0
   20.8298  -19.5164  -14.9126 C   0  0  0  0  0  0  0  0  0  0  0  0
   19.6123  -20.0831  -14.3331 C   0  0  0  0  0  0  0  0  0  0  0  0
   19.2849  -21.3163  -14.4784 O   0  0  0  0  0  0  0  0  0  0  0  0
   21.7375  -20.7467  -12.1693 C   0  0  0  0  0  0  0  0  0  0  0  0
   21.7841  -21.9785  -12.0116 O   0  0  0  0  0  0  0  0  0  0  0  0
   18.7005  -19.3281  -13.5679 O   0  0  0  0  0  0  0  0  0  0  0  0
   20.8239  -20.0774  -11.3462 O   0  0  0  0  0  0  0  0  0  0  0  0
  2  7  1  0
  2  1  1  6
  3  4  1  0
  3  2  1  0
  4  5  1  0
  5  6  2  0
  5  9  1  0
  7  8  2  0
 10  7  1  0
 10 11  1  0
 11 12  1  1
 12 13  1  0
 13 18  2  0
 14 13  1  0
 14 15  2  0
 15 16  1  0
 16 17  2  0
 18 17  1  0
 19 21  1  0
 19 11  1  0
 20 19  2  0
 22 23  1  6
 22 27  1  0
 22 21  1  0
 24 25  1  0
 24 23  1  0
 25 29  1  0
 26 25  2  0
 27 30  1  0
 28 27  2  0
M  END
$$$$
