EFE.pdb
     RDKit          3D

 30 30  0  0  1  0  0  0  0  0999 V2000
   18.9788  -12.9083  -18.4778 N   0  0  0  0  0  0  0  0  0  0  0  0
   20.0805  -11.9686  -18.7492 C   0  0  1  0  0  0  0  0  0  0  0  0
   19.9165  -11.3570  -20.0979 C   0  0  0  0  0  0  0  0  0  0  0  0
   20.3597  -12.2962  -21.1802 C   0  0  0  0  0  0  0  0  0  0  0  0
   21.8201  -12.3325  -21.3019 C   0  0  0  0  0  0  0  0  0  0  0  0
   22.4932  -13.2919  -20.8739 O   0  0  0  0  0  0  0  0  0  0  0  0
   19.9819  -10.9221  -17.7080 C   0  0  0  0  0  0  0  0  0  0  0  0
   18.9206  -10.6349  -17.1260 O   0  0  0  0  0  0  0  0  0  0  0  0
   22.4859  -11.2790  -21.9058 O   0  0  0  0  0  0  0  0  0  0  0  0
   21.1130  -10.1620  -17.2962 N   0  0  0  0  0  0  0  0  0  0  0  0
   21.1191   -9.1301  -16.3256 C   0  0  1  0  0  0  0  0  0  0  0  0
   22.1857   -9.1347  -15.3141 C   0  0  0  0  0  0  0  0  0  0  0  0
   22.1123   -8.0859  -14.2883 C   0  0  0  0  0  0  0  0  0  0  0  0
   21.5033   -8.2397  -13.0656 C   0  0  0  0  0  0  0  0  0  0  0  0
   21.5218   -7.1579  -12.1906 C   0  0  0  0  0  0  0  0  0  0  0  0
   22.1369   -5.9570  -12.5399 C   0  0  0  0  0  0  0  0  0  0  0  0
   22.7437   -5.8187  -13.7687 C   0  0  0  0  0  0  0  0  0  0  0  0
   22.7319   -6.8808  -14.6413 C   0  0  0  0  0  0  0  0  0  0  0  0
   20.8384   -7.7846  -16.9366 C   0  0  0  0  0  0  0  0  0  0  0  0
   21.5522   -7.4088  -17.8900 O   0  0  0  0  0  0  0  0  0  0  0  0
   19.8097   -6.9549  -16.4756 N   0  0  0  0  0  0  0  0  0  0  0  0
   19.4381   -5.6563  -17.1004 C   0  0  1  0  0  0  0  0  0  0  0  0
   17.9722   -5.5170  -17.1110 C   0  0  0  0  0  0  0  0  0  0  0  0
   17.3790   -4.2259  -17.5199 C   0  0  0  0  0  0  0  0  0  0  0  0
   15.9234   -4.0820  -17.5232 C   0  0  0  0  0  0  0  0  0  0  0  0
   15.1326   -5.0307  -17.1715 O   0  0  0  0  0  0  0  0  0  0  0  0
   20.1844   -4.6581  -16.3244 C   0  0  0  0  0  0  0  0  0  0  0  0
   20.9106   -3.8061  -16.8641 O   0  0  0  0  0  0  0  0  0  0  0  0
   15.2683   -2.8949  -17.9087 O   0  0  0  0  0  0  0  0  0  0  0  0
   20.1328   -4.5939  -14.9267 O   0  0  0  0  0  0  0  0  0  0  0  0
  2  7  1  0
  2  1  1  1
  3  4  1  0
  3  2  1  0
  4  5  1  0
  5  6  2  0
  5  9  1  0
  7  8  2  0
 10  7  1  0
 10 11  1  0
 11 12  1  6
 12 13  1  0
 13 18  2  0
 14 13  1  0
 14 15  2  0
 15 16  1  0
 16 17  2  0
 18 17  1  0
 19 21  1  0
 19 11  1  0
 20 19  2  0
 22 23  1  1
 22 27  1  0
 22 21  1  0
 24 25  1  0
 24 23  1  0
 25 29  1  0
 26 25  2  0
 27 30  1  0
 28 27  2  0
M  END
$$$$
