EFE.pdb
     RDKit          3D

 30 30  0  0  1  0  0  0  0  0999 V2000
   20.5686  -19.4415  -12.6455 N   0  0  0  0  0  0  0  0  0  0  0  0
   21.2598  -20.7421  -12.6783 C   0  0  1  0  0  0  0  0  0  0  0  0
   21.0712  -21.3933  -14.0051 C   0  0  0  0  0  0  0  0  0  0  0  0
   20.1248  -22.5534  -13.9135 C   0  0  0  0  0  0  0  0  0  0  0  0
   18.9472  -22.2296  -13.1026 C   0  0  0  0  0  0  0  0  0  0  0  0
   18.8094  -22.6606  -11.9398 O   0  0  0  0  0  0  0  0  0  0  0  0
   22.6928  -20.4413  -12.4658 C   0  0  0  0  0  0  0  0  0  0  0  0
   23.2600  -19.4436  -12.9456 O   0  0  0  0  0  0  0  0  0  0  0  0
   17.9506  -21.4247  -13.6286 O   0  0  0  0  0  0  0  0  0  0  0  0
   23.5311  -21.2871  -11.6856 N   0  0  0  0  0  0  0  0  0  0  0  0
   24.9025  -21.0737  -11.4016 C   0  0  1  0  0  0  0  0  0  0  0  0
   25.4715  -21.7130  -10.2065 C   0  0  0  0  0  0  0  0  0  0  0  0
   26.8269  -21.2918   -9.8280 C   0  0  0  0  0  0  0  0  0  0  0  0
   27.9758  -21.7455  -10.4313 C   0  0  0  0  0  0  0  0  0  0  0  0
   29.1908  -21.2480   -9.9703 C   0  0  0  0  0  0  0  0  0  0  0  0
   29.2441  -20.3202   -8.9317 C   0  0  0  0  0  0  0  0  0  0  0  0
   28.0838  -19.8745   -8.3378 C   0  0  0  0  0  0  0  0  0  0  0  0
   26.8775  -20.3590   -8.7850 C   0  0  0  0  0  0  0  0  0  0  0  0
   25.7538  -21.1810  -12.6371 C   0  0  0  0  0  0  0  0  0  0  0  0
   25.7821  -22.2736  -13.2413 O   0  0  0  0  0  0  0  0  0  0  0  0
   26.5014  -20.1028  -13.1249 N   0  0  0  0  0  0  0  0  0  0  0  0
   27.2020  -20.0960  -14.4378 C   0  0  1  0  0  0  0  0  0  0  0  0
   26.6372  -19.0372  -15.2913 C   0  0  0  0  0  0  0  0  0  0  0  0
   25.5742  -19.3877  -16.2573 C   0  0  0  0  0  0  0  0  0  0  0  0
   25.0783  -18.3598  -17.1722 C   0  0  0  0  0  0  0  0  0  0  0  0
   24.2182  -18.6083  -18.0928 O   0  0  0  0  0  0  0  0  0  0  0  0
   28.6216  -19.9651  -14.0864 C   0  0  0  0  0  0  0  0  0  0  0  0
   29.0141  -19.2055  -13.1846 O   0  0  0  0  0  0  0  0  0  0  0  0
   25.4987  -17.0154  -17.1200 O   0  0  0  0  0  0  0  0  0  0  0  0
   29.6312  -20.6829  -14.7388 O   0  0  0  0  0  0  0  0  0  0  0  0
  2  7  1  0
  2  1  1  6
  3  4  1  0
  3  2  1  0
  4  5  1  0
  5  6  2  0
  5  9  1  0
  7  8  2  0
 10  7  1  0
 10 11  1  0
 11 12  1  1
 12 13  1  0
 13 18  2  0
 14 13  1  0
 14 15  2  0
 15 16  1  0
 16 17  2  0
 18 17  1  0
 19 21  1  0
 19 11  1  0
 20 19  2  0
 22 23  1  6
 22 27  1  0
 22 21  1  0
 24 25  1  0
 24 23  1  0
 25 29  1  0
 26 25  2  0
 27 30  1  0
 28 27  2  0
M  END
$$$$
