EFE.pdb
     RDKit          3D

 30 30  0  0  1  0  0  0  0  0999 V2000
   25.0538  -34.1048  -12.6496 N   0  0  0  0  0  0  0  0  0  0  0  0
   24.2214  -34.6703  -11.5737 C   0  0  1  0  0  0  0  0  0  0  0  0
   24.6814  -36.0464  -11.2346 C   0  0  0  0  0  0  0  0  0  0  0  0
   23.8284  -37.0857  -11.8992 C   0  0  0  0  0  0  0  0  0  0  0  0
   22.5406  -37.2471  -11.2175 C   0  0  0  0  0  0  0  0  0  0  0  0
   21.4557  -37.1270  -11.8219 O   0  0  0  0  0  0  0  0  0  0  0  0
   24.4084  -33.7771  -10.4090 C   0  0  0  0  0  0  0  0  0  0  0  0
   25.4129  -33.0603  -10.2520 O   0  0  0  0  0  0  0  0  0  0  0  0
   22.5111  -37.5401   -9.8643 O   0  0  0  0  0  0  0  0  0  0  0  0
   23.4359  -33.6771   -9.3742 N   0  0  0  0  0  0  0  0  0  0  0  0
   23.4952  -32.8158   -8.2510 C   0  0  1  0  0  0  0  0  0  0  0  0
   22.4063  -31.8468   -8.0609 C   0  0  0  0  0  0  0  0  0  0  0  0
   22.2950  -30.7885   -9.0734 C   0  0  0  0  0  0  0  0  0  0  0  0
   23.0522  -29.6412   -9.0810 C   0  0  0  0  0  0  0  0  0  0  0  0
   22.8413  -28.7312  -10.1124 C   0  0  0  0  0  0  0  0  0  0  0  0
   21.8944  -28.9726  -11.1063 C   0  0  0  0  0  0  0  0  0  0  0  0
   21.1440  -30.1276  -11.0852 C   0  0  0  0  0  0  0  0  0  0  0  0
   21.3438  -31.0339  -10.0712 C   0  0  0  0  0  0  0  0  0  0  0  0
   23.9088  -33.5488   -7.0043 C   0  0  0  0  0  0  0  0  0  0  0  0
   23.2858  -34.5862   -6.6954 O   0  0  0  0  0  0  0  0  0  0  0  0
   24.9619  -33.1090   -6.1939 N   0  0  0  0  0  0  0  0  0  0  0  0
   25.3858  -33.7797   -4.9349 C   0  0  1  0  0  0  0  0  0  0  0  0
   26.5892  -33.1166   -4.4052 C   0  0  0  0  0  0  0  0  0  0  0  0
   27.1612  -33.5875   -3.1257 C   0  0  0  0  0  0  0  0  0  0  0  0
   28.3922  -34.3772   -3.1455 C   0  0  0  0  0  0  0  0  0  0  0  0
   28.6188  -35.3279   -2.3124 O   0  0  0  0  0  0  0  0  0  0  0  0
   24.1889  -33.7384   -4.0856 C   0  0  0  0  0  0  0  0  0  0  0  0
   23.7434  -34.7502   -3.5179 O   0  0  0  0  0  0  0  0  0  0  0  0
   29.4282  -34.1643   -4.0772 O   0  0  0  0  0  0  0  0  0  0  0  0
   23.4657  -32.5620   -3.8550 O   0  0  0  0  0  0  0  0  0  0  0  0
  2  7  1  0
  2  1  1  6
  3  4  1  0
  3  2  1  0
  4  5  1  0
  5  6  2  0
  5  9  1  0
  7  8  2  0
 10  7  1  0
 10 11  1  0
 11 12  1  1
 12 13  1  0
 13 18  2  0
 14 13  1  0
 14 15  2  0
 15 16  1  0
 16 17  2  0
 18 17  1  0
 19 21  1  0
 19 11  1  0
 20 19  2  0
 22 23  1  1
 22 27  1  0
 22 21  1  0
 24 25  1  0
 24 23  1  0
 25 29  1  0
 26 25  2  0
 27 30  1  0
 28 27  2  0
M  END
$$$$
