EFE.pdb
     RDKit          3D

 30 30  0  0  1  0  0  0  0  0999 V2000
   27.7212  -38.0221   -6.7840 N   0  0  0  0  0  0  0  0  0  0  0  0
   26.3566  -37.6692   -6.3556 C   0  0  1  0  0  0  0  0  0  0  0  0
   25.6602  -38.8687   -5.8112 C   0  0  0  0  0  0  0  0  0  0  0  0
   25.1300  -39.7381   -6.9125 C   0  0  0  0  0  0  0  0  0  0  0  0
   23.8221  -39.2755   -7.3864 C   0  0  0  0  0  0  0  0  0  0  0  0
   23.6571  -38.8400   -8.5438 O   0  0  0  0  0  0  0  0  0  0  0  0
   26.5192  -36.6562   -5.2895 C   0  0  0  0  0  0  0  0  0  0  0  0
   27.5138  -36.6020   -4.5443 O   0  0  0  0  0  0  0  0  0  0  0  0
   22.7295  -39.3160   -6.5364 O   0  0  0  0  0  0  0  0  0  0  0  0
   25.5326  -35.6602   -5.0417 N   0  0  0  0  0  0  0  0  0  0  0  0
   25.6002  -34.6422   -4.0587 C   0  0  1  0  0  0  0  0  0  0  0  0
   25.1851  -33.2837   -4.4366 C   0  0  0  0  0  0  0  0  0  0  0  0
   25.0013  -32.3307   -3.3341 C   0  0  0  0  0  0  0  0  0  0  0  0
   23.7782  -31.8938   -2.8838 C   0  0  0  0  0  0  0  0  0  0  0  0
   23.7609  -30.9952   -1.8213 C   0  0  0  0  0  0  0  0  0  0  0  0
   24.9431  -30.5515   -1.2314 C   0  0  0  0  0  0  0  0  0  0  0  0
   26.1610  -30.9993   -1.6935 C   0  0  0  0  0  0  0  0  0  0  0  0
   26.1904  -31.8873   -2.7425 C   0  0  0  0  0  0  0  0  0  0  0  0
   25.0772  -35.1120   -2.7289 C   0  0  0  0  0  0  0  0  0  0  0  0
   23.9800  -35.7080   -2.7034 O   0  0  0  0  0  0  0  0  0  0  0  0
   25.7792  -34.9068   -1.5355 N   0  0  0  0  0  0  0  0  0  0  0  0
   25.3274  -35.3948   -0.2041 C   0  0  1  0  0  0  0  0  0  0  0  0
   26.3985  -36.1919    0.4171 C   0  0  0  0  0  0  0  0  0  0  0  0
   26.1323  -36.8686    1.7044 C   0  0  0  0  0  0  0  0  0  0  0  0
   27.2063  -37.6288    2.3431 C   0  0  0  0  0  0  0  0  0  0  0  0
   27.6666  -37.3349    3.5054 O   0  0  0  0  0  0  0  0  0  0  0  0
   24.9233  -34.1755    0.5069 C   0  0  0  0  0  0  0  0  0  0  0  0
   25.4845  -33.0824    0.3205 O   0  0  0  0  0  0  0  0  0  0  0  0
   27.8227  -38.7443    1.7411 O   0  0  0  0  0  0  0  0  0  0  0  0
   23.8815  -34.1556    1.4420 O   0  0  0  0  0  0  0  0  0  0  0  0
  2  7  1  0
  2  1  1  1
  3  4  1  0
  3  2  1  0
  4  5  1  0
  5  6  2  0
  5  9  1  0
  7  8  2  0
 10  7  1  0
 10 11  1  0
 11 12  1  6
 12 13  1  0
 13 18  2  0
 14 13  1  0
 14 15  2  0
 15 16  1  0
 16 17  2  0
 18 17  1  0
 19 21  1  0
 19 11  1  0
 20 19  2  0
 22 23  1  1
 22 27  1  0
 22 21  1  0
 24 25  1  0
 24 23  1  0
 25 29  1  0
 26 25  2  0
 27 30  1  0
 28 27  2  0
M  END
$$$$
