SNQ.pdb
     RDKit          3D

 24 23  0  0  1  0  0  0  0  0999 V2000
   16.5154  -17.0580   16.0936 O   0  0  0  0  0  0  0  0  0  0  0  0
   16.8640  -18.4160   15.9661 C   0  0  0  0  0  0  0  0  0  0  0  0
   15.5766  -19.1873   15.9131 C   0  0  2  0  0  0  0  0  0  0  0  0
   14.7405  -18.5885   14.8821 N   0  0  0  0  0  0  0  0  0  0  0  0
   14.8224  -19.2101   17.1702 C   0  0  0  0  0  0  0  0  0  0  0  0
   13.6328  -18.8209   17.2915 O   0  0  0  0  0  0  0  0  0  0  0  0
   13.3014  -22.1940   21.6660 N   0  0  0  0  0  0  0  0  0  0  0  0
   14.4758  -21.4159   21.5450 C   0  0  0  0  0  0  0  0  0  0  0  0
   14.9547  -20.9532   22.6175 O   0  0  0  0  0  0  0  0  0  0  0  0
   15.1723  -21.1076   20.2977 C   0  0  0  0  0  0  0  0  0  0  0  0
   14.7394  -19.8399   19.6181 C   0  0  2  0  0  0  0  0  0  0  0  0
   15.4361  -19.7023   18.3812 N   0  0  0  0  0  0  0  0  0  0  0  0
   14.8368  -18.6456   20.4820 C   0  0  0  0  0  0  0  0  0  0  0  0
   15.8579  -17.9202   20.3740 O   0  0  0  0  0  0  0  0  0  0  0  0
   10.0522  -15.5373   22.6529 N   0  0  0  0  0  0  0  0  0  0  0  0
   10.7688  -15.7502   23.8805 C   0  0  0  0  0  0  0  0  0  0  0  0
   10.2620  -15.5239   25.0017 O   0  0  0  0  0  0  0  0  0  0  0  0
   12.1591  -16.2585   23.7640 C   0  0  0  0  0  0  0  0  0  0  0  0
   12.5058  -16.4510   22.3050 C   0  0  0  0  0  0  0  0  0  0  0  0
   13.9048  -16.9835   22.1273 C   0  0  2  0  0  0  0  0  0  0  0  0
   13.8559  -18.2585   21.4279 N   0  0  0  0  0  0  0  0  0  0  0  0
   14.4575  -17.1559   23.5142 C   0  0  0  0  0  0  0  0  0  0  0  0
   14.5473  -18.2574   24.0665 O   0  0  0  0  0  0  0  0  0  0  0  0
   14.8735  -16.0062   24.1681 O   0  0  0  0  0  0  0  0  0  0  0  0
  2  1  1  0
  2  3  1  0
  3  4  1  6
  5  3  1  0
  6  5  2  0
  7  8  1  0
  8  9  2  0
  8 10  1  0
 11 10  1  1
 11 12  1  0
 11 13  1  0
 12  5  1  0
 13 21  1  0
 13 14  2  0
 15 16  1  0
 16 18  1  0
 17 16  2  0
 19 18  1  0
 20 19  1  1
 21 20  1  0
 22 20  1  0
 22 24  1  0
 23 22  2  0
M  END
$$$$
