SNQ.pdb
     RDKit          3D

 24 23  0  0  1  0  0  0  0  0999 V2000
    9.1002  -16.1047   13.7236 O   0  0  0  0  0  0  0  0  0  0  0  0
   10.2074  -15.5889   14.4235 C   0  0  0  0  0  0  0  0  0  0  0  0
   10.0455  -16.0108   15.8555 C   0  0  2  0  0  0  0  0  0  0  0  0
    8.6493  -16.3708   16.0589 N   0  0  0  0  0  0  0  0  0  0  0  0
   10.4122  -14.9898   16.8417 C   0  0  0  0  0  0  0  0  0  0  0  0
   11.5323  -14.4203   16.8911 O   0  0  0  0  0  0  0  0  0  0  0  0
    6.3481  -13.4184   20.1204 N   0  0  0  0  0  0  0  0  0  0  0  0
    7.2426  -13.4022   19.0255 C   0  0  0  0  0  0  0  0  0  0  0  0
    6.8982  -14.0693   18.0106 O   0  0  0  0  0  0  0  0  0  0  0  0
    8.5155  -12.6863   18.9720 C   0  0  0  0  0  0  0  0  0  0  0  0
    9.7318  -13.5524   18.8081 C   0  0  2  0  0  0  0  0  0  0  0  0
    9.4635  -14.5712   17.8468 N   0  0  0  0  0  0  0  0  0  0  0  0
   10.2589  -14.0754   20.0852 C   0  0  0  0  0  0  0  0  0  0  0  0
   10.5224  -13.2512   20.9971 O   0  0  0  0  0  0  0  0  0  0  0  0
   15.7835  -14.9308   18.8530 N   0  0  0  0  0  0  0  0  0  0  0  0
   14.8864  -14.5910   19.9234 C   0  0  0  0  0  0  0  0  0  0  0  0
   15.2766  -14.0422   20.9777 O   0  0  0  0  0  0  0  0  0  0  0  0
   13.4527  -14.9227   19.7253 C   0  0  0  0  0  0  0  0  0  0  0  0
   12.7373  -14.8862   21.0569 C   0  0  0  0  0  0  0  0  0  0  0  0
   11.6328  -15.9096   21.1275 C   0  0  2  0  0  0  0  0  0  0  0  0
   10.4894  -15.4467   20.3555 N   0  0  0  0  0  0  0  0  0  0  0  0
   11.2799  -16.0328   22.5831 C   0  0  0  0  0  0  0  0  0  0  0  0
   10.1953  -15.6598   23.0426 O   0  0  0  0  0  0  0  0  0  0  0  0
   12.2385  -16.5940   23.4129 O   0  0  0  0  0  0  0  0  0  0  0  0
  2  1  1  0
  2  3  1  0
  3  4  1  6
  5  3  1  0
  6  5  2  0
  7  8  1  0
  8  9  2  0
  8 10  1  0
 11 10  1  1
 11 12  1  0
 11 13  1  0
 12  5  1  0
 13 21  1  0
 13 14  2  0
 15 16  1  0
 16 18  1  0
 17 16  2  0
 19 18  1  0
 20 19  1  1
 21 20  1  0
 22 20  1  0
 22 24  1  0
 23 22  2  0
M  END
$$$$
