SNQ.pdb
     RDKit          3D

 24 23  0  0  1  0  0  0  0  0999 V2000
    6.7967  -18.1012   18.4109 O   0  0  0  0  0  0  0  0  0  0  0  0
    7.5758  -19.0547   19.0933 C   0  0  0  0  0  0  0  0  0  0  0  0
    7.6901  -18.5799   20.5133 C   0  0  2  0  0  0  0  0  0  0  0  0
    6.3508  -18.2555   20.9839 N   0  0  0  0  0  0  0  0  0  0  0  0
    8.5475  -17.4053   20.7008 C   0  0  0  0  0  0  0  0  0  0  0  0
    9.7923  -17.3993   20.5226 O   0  0  0  0  0  0  0  0  0  0  0  0
    7.0598  -12.5730   18.8082 N   0  0  0  0  0  0  0  0  0  0  0  0
    7.8840  -13.5219   19.4558 C   0  0  0  0  0  0  0  0  0  0  0  0
    8.6333  -14.2139   18.7119 O   0  0  0  0  0  0  0  0  0  0  0  0
    7.9399  -13.7644   20.8959 C   0  0  0  0  0  0  0  0  0  0  0  0
    8.7475  -14.9600   21.3139 C   0  0  2  0  0  0  0  0  0  0  0  0
    7.9786  -16.1450   21.1170 N   0  0  0  0  0  0  0  0  0  0  0  0
    9.3090  -14.8448   22.6754 C   0  0  0  0  0  0  0  0  0  0  0  0
   10.4979  -14.4534   22.7928 O   0  0  0  0  0  0  0  0  0  0  0  0
    7.4589  -11.8283   27.2104 N   0  0  0  0  0  0  0  0  0  0  0  0
    6.5153  -12.8008   26.7311 C   0  0  0  0  0  0  0  0  0  0  0  0
    5.2809  -12.6727   26.8880 O   0  0  0  0  0  0  0  0  0  0  0  0
    7.0730  -13.9848   26.0297 C   0  0  0  0  0  0  0  0  0  0  0  0
    8.5716  -13.8341   25.8976 C   0  0  0  0  0  0  0  0  0  0  0  0
    9.1920  -15.0086   25.1849 C   0  0  2  0  0  0  0  0  0  0  0  0
    8.5985  -15.1458   23.8634 N   0  0  0  0  0  0  0  0  0  0  0  0
    8.8886  -16.2108   26.0341 C   0  0  0  0  0  0  0  0  0  0  0  0
    8.1310  -17.1153   25.6671 O   0  0  0  0  0  0  0  0  0  0  0  0
    9.5044  -16.2705   27.2750 O   0  0  0  0  0  0  0  0  0  0  0  0
  2  1  1  0
  2  3  1  0
  3  4  1  6
  5  3  1  0
  6  5  2  0
  7  8  1  0
  8  9  2  0
  8 10  1  0
 11 10  1  1
 11 12  1  0
 11 13  1  0
 12  5  1  0
 13 21  1  0
 13 14  2  0
 15 16  1  0
 16 18  1  0
 17 16  2  0
 19 18  1  0
 20 19  1  1
 21 20  1  0
 22 20  1  0
 22 24  1  0
 23 22  2  0
M  END
$$$$
