SNQ.pdb
     RDKit          3D

 24 23  0  0  1  0  0  0  0  0999 V2000
   10.8334  -17.9144   15.4943 O   0  0  0  0  0  0  0  0  0  0  0  0
    9.4886  -17.8611   15.0814 C   0  0  0  0  0  0  0  0  0  0  0  0
    9.2072  -16.4320   14.7162 C   0  0  2  0  0  0  0  0  0  0  0  0
    9.9667  -16.1216   13.5131 N   0  0  0  0  0  0  0  0  0  0  0  0
    9.5540  -15.4539   15.7519 C   0  0  0  0  0  0  0  0  0  0  0  0
   10.6058  -14.7648   15.7539 O   0  0  0  0  0  0  0  0  0  0  0  0
    7.7818  -11.7127   19.6036 N   0  0  0  0  0  0  0  0  0  0  0  0
    7.7579  -13.1130   19.7979 C   0  0  0  0  0  0  0  0  0  0  0  0
    7.8126  -13.5140   20.9937 O   0  0  0  0  0  0  0  0  0  0  0  0
    7.6758  -14.1213   18.7431 C   0  0  0  0  0  0  0  0  0  0  0  0
    8.8830  -14.2194   17.8547 C   0  0  2  0  0  0  0  0  0  0  0  0
    8.6656  -15.2254   16.8672 N   0  0  0  0  0  0  0  0  0  0  0  0
   10.1486  -14.3905   18.5973 C   0  0  0  0  0  0  0  0  0  0  0  0
   10.8535  -13.3706   18.8057 O   0  0  0  0  0  0  0  0  0  0  0  0
   15.7833  -15.4908   18.7120 N   0  0  0  0  0  0  0  0  0  0  0  0
   15.1662  -14.3647   19.3578 C   0  0  0  0  0  0  0  0  0  0  0  0
   15.5277  -13.1865   19.1428 O   0  0  0  0  0  0  0  0  0  0  0  0
   14.0632  -14.6597   20.3070 C   0  0  0  0  0  0  0  0  0  0  0  0
   12.7369  -14.5532   19.5889 C   0  0  0  0  0  0  0  0  0  0  0  0
   11.8502  -15.7391   19.8717 C   0  0  2  0  0  0  0  0  0  0  0  0
   10.6258  -15.6287   19.0932 N   0  0  0  0  0  0  0  0  0  0  0  0
   11.5534  -15.6878   21.3440 C   0  0  0  0  0  0  0  0  0  0  0  0
   11.8070  -16.6230   22.1107 O   0  0  0  0  0  0  0  0  0  0  0  0
   10.9703  -14.5248   21.8235 O   0  0  0  0  0  0  0  0  0  0  0  0
  2  1  1  0
  2  3  1  0
  3  4  1  6
  5  3  1  0
  6  5  2  0
  7  8  1  0
  8  9  2  0
  8 10  1  0
 11 10  1  1
 11 12  1  0
 11 13  1  0
 12  5  1  0
 13 21  1  0
 13 14  2  0
 15 16  1  0
 16 18  1  0
 17 16  2  0
 19 18  1  0
 20 19  1  6
 21 20  1  0
 22 20  1  0
 22 24  1  0
 23 22  2  0
M  END
$$$$
