SNQ.pdb
     RDKit          3D

 24 23  0  0  1  0  0  0  0  0999 V2000
   10.7496  -18.2965   13.5907 O   0  0  0  0  0  0  0  0  0  0  0  0
   11.3491  -17.7242   14.7287 C   0  0  0  0  0  0  0  0  0  0  0  0
   10.9846  -16.2675   14.7202 C   0  0  2  0  0  0  0  0  0  0  0  0
   11.8682  -15.5925   13.7799 N   0  0  0  0  0  0  0  0  0  0  0  0
   11.0911  -15.6003   16.0214 C   0  0  0  0  0  0  0  0  0  0  0  0
   12.1367  -15.0524   16.4547 O   0  0  0  0  0  0  0  0  0  0  0  0
    7.4341  -12.4261   18.4546 N   0  0  0  0  0  0  0  0  0  0  0  0
    7.7767  -13.7066   17.9626 C   0  0  0  0  0  0  0  0  0  0  0  0
    7.3571  -13.9938   16.8071 O   0  0  0  0  0  0  0  0  0  0  0  0
    8.5662  -14.7117   18.6712 C   0  0  0  0  0  0  0  0  0  0  0  0
    9.9730  -14.8885   18.1752 C   0  0  2  0  0  0  0  0  0  0  0  0
    9.9510  -15.5377   16.9054 N   0  0  0  0  0  0  0  0  0  0  0  0
   10.8645  -15.5444   19.1537 C   0  0  0  0  0  0  0  0  0  0  0  0
   10.6606  -16.7562   19.4189 O   0  0  0  0  0  0  0  0  0  0  0  0
   17.0674  -14.6209   20.9362 N   0  0  0  0  0  0  0  0  0  0  0  0
   16.2045  -14.3954   19.8090 C   0  0  0  0  0  0  0  0  0  0  0  0
   16.4687  -13.5578   18.9182 O   0  0  0  0  0  0  0  0  0  0  0  0
   14.9650  -15.2102   19.7419 C   0  0  0  0  0  0  0  0  0  0  0  0
   14.0869  -14.8926   20.9311 C   0  0  0  0  0  0  0  0  0  0  0  0
   12.7423  -15.5667   20.8305 C   0  0  2  0  0  0  0  0  0  0  0  0
   11.9379  -14.9007   19.8172 N   0  0  0  0  0  0  0  0  0  0  0  0
   12.1120  -15.4298   22.1878 C   0  0  0  0  0  0  0  0  0  0  0  0
   11.0888  -14.7662   22.3866 O   0  0  0  0  0  0  0  0  0  0  0  0
   12.7348  -16.0910   23.2353 O   0  0  0  0  0  0  0  0  0  0  0  0
  2  1  1  0
  2  3  1  0
  3  4  1  6
  5  3  1  0
  6  5  2  0
  7  8  1  0
  8  9  2  0
  8 10  1  0
 11 10  1  1
 11 12  1  0
 11 13  1  0
 12  5  1  0
 13 21  1  0
 13 14  2  0
 15 16  1  0
 16 18  1  0
 17 16  2  0
 19 18  1  0
 20 19  1  1
 21 20  1  0
 22 20  1  0
 22 24  1  0
 23 22  2  0
M  END
$$$$
