SNQ.pdb
     RDKit          3D

 24 23  0  0  1  0  0  0  0  0999 V2000
   10.0470  -13.0423   20.8668 O   0  0  0  0  0  0  0  0  0  0  0  0
    8.6781  -12.7388   20.7409 C   0  0  0  0  0  0  0  0  0  0  0  0
    8.0086  -13.9792   20.2229 C   0  0  2  0  0  0  0  0  0  0  0  0
    6.6035  -13.6677   20.0011 N   0  0  0  0  0  0  0  0  0  0  0  0
    8.0938  -15.1405   21.1137 C   0  0  0  0  0  0  0  0  0  0  0  0
    7.1758  -15.5083   21.8905 O   0  0  0  0  0  0  0  0  0  0  0  0
   11.2502  -20.3945   21.6551 N   0  0  0  0  0  0  0  0  0  0  0  0
   10.1270  -19.5370   21.7033 C   0  0  0  0  0  0  0  0  0  0  0  0
    9.1321  -19.9530   22.3597 O   0  0  0  0  0  0  0  0  0  0  0  0
   10.0241  -18.2263   21.0653 C   0  0  0  0  0  0  0  0  0  0  0  0
    9.4090  -17.1480   21.9112 C   0  0  2  0  0  0  0  0  0  0  0  0
    9.2875  -15.9527   21.1426 N   0  0  0  0  0  0  0  0  0  0  0  0
   10.0980  -16.9474   23.2024 C   0  0  0  0  0  0  0  0  0  0  0  0
   10.3118  -17.9567   23.9208 O   0  0  0  0  0  0  0  0  0  0  0  0
    8.1310  -13.7453   27.4232 N   0  0  0  0  0  0  0  0  0  0  0  0
    9.3014  -14.1663   28.1434 C   0  0  0  0  0  0  0  0  0  0  0  0
    9.4053  -14.0465   29.3843 O   0  0  0  0  0  0  0  0  0  0  0  0
   10.4022  -14.7595   27.3428 C   0  0  0  0  0  0  0  0  0  0  0  0
    9.9657  -14.8876   25.9009 C   0  0  0  0  0  0  0  0  0  0  0  0
   11.0379  -15.5114   25.0443 C   0  0  2  0  0  0  0  0  0  0  0  0
   10.5365  -15.6918   23.6903 N   0  0  0  0  0  0  0  0  0  0  0  0
   11.3506  -16.8372   25.6792 C   0  0  0  0  0  0  0  0  0  0  0  0
   10.6808  -17.8540   25.4696 O   0  0  0  0  0  0  0  0  0  0  0  0
   12.4448  -16.8798   26.5297 O   0  0  0  0  0  0  0  0  0  0  0  0
  2  1  1  0
  2  3  1  0
  3  4  1  1
  5  3  1  0
  6  5  2  0
  7  8  1  0
  8  9  2  0
  8 10  1  0
 11 10  1  6
 11 12  1  0
 11 13  1  0
 12  5  1  0
 13 21  1  0
 13 14  2  0
 15 16  1  0
 16 18  1  0
 17 16  2  0
 19 18  1  0
 20 19  1  1
 21 20  1  0
 22 20  1  0
 22 24  1  0
 23 22  2  0
M  END
$$$$
