SNQ.pdb
     RDKit          3D

 24 23  0  0  1  0  0  0  0  0999 V2000
   10.6021  -13.2989   19.4254 O   0  0  0  0  0  0  0  0  0  0  0  0
    9.7351  -13.8779   18.4793 C   0  0  0  0  0  0  0  0  0  0  0  0
    8.3369  -13.5687   18.9315 C   0  0  2  0  0  0  0  0  0  0  0  0
    8.1744  -12.1216   18.9192 N   0  0  0  0  0  0  0  0  0  0  0  0
    8.0007  -14.0643   20.2698 C   0  0  0  0  0  0  0  0  0  0  0  0
    7.8305  -13.3304   21.2766 O   0  0  0  0  0  0  0  0  0  0  0  0
    6.0660  -18.4518   19.6266 N   0  0  0  0  0  0  0  0  0  0  0  0
    6.0980  -17.7896   20.8755 C   0  0  0  0  0  0  0  0  0  0  0  0
    4.9850  -17.4201   21.3426 O   0  0  0  0  0  0  0  0  0  0  0  0
    7.2969  -17.5019   21.6601 C   0  0  0  0  0  0  0  0  0  0  0  0
    7.6381  -16.0457   21.7990 C   0  0  2  0  0  0  0  0  0  0  0  0
    7.8420  -15.4801   20.5056 N   0  0  0  0  0  0  0  0  0  0  0  0
    8.7526  -15.7884   22.7339 C   0  0  0  0  0  0  0  0  0  0  0  0
    9.7158  -15.0907   22.3267 O   0  0  0  0  0  0  0  0  0  0  0  0
    5.8779  -12.9130   25.8972 N   0  0  0  0  0  0  0  0  0  0  0  0
    7.0117  -12.6404   26.7375 C   0  0  0  0  0  0  0  0  0  0  0  0
    7.0003  -11.7446   27.6106 O   0  0  0  0  0  0  0  0  0  0  0  0
    8.2188  -13.4786   26.5248 C   0  0  0  0  0  0  0  0  0  0  0  0
    8.0098  -14.3687   25.3206 C   0  0  0  0  0  0  0  0  0  0  0  0
    9.0924  -15.4106   25.1996 C   0  0  2  0  0  0  0  0  0  0  0  0
    8.8123  -16.2749   24.0630 N   0  0  0  0  0  0  0  0  0  0  0  0
    9.0576  -16.1897   26.4843 C   0  0  0  0  0  0  0  0  0  0  0  0
    8.3862  -17.2173   26.6257 O   0  0  0  0  0  0  0  0  0  0  0  0
    9.8248  -15.7022   27.5314 O   0  0  0  0  0  0  0  0  0  0  0  0
  2  1  1  0
  2  3  1  0
  3  4  1  1
  5  3  1  0
  6  5  2  0
  7  8  1  0
  8  9  2  0
  8 10  1  0
 11 10  1  6
 11 12  1  0
 11 13  1  0
 12  5  1  0
 13 21  1  0
 13 14  2  0
 15 16  1  0
 16 18  1  0
 17 16  2  0
 19 18  1  0
 20 19  1  1
 21 20  1  0
 22 20  1  0
 22 24  1  0
 23 22  2  0
M  END
$$$$
