KPD.pdb
     RDKit          3D

 25 25  0  0  1  0  0  0  0  0999 V2000
   22.9263  -19.9586  -14.1584 N   0  0  0  0  0  0  0  0  0  0  0  0
   23.7047  -19.2457  -15.1194 C   0  0  1  0  0  0  0  0  0  0  0  0
   23.4174  -19.5738  -16.5585 C   0  0  0  0  0  0  0  0  0  0  0  0
   24.2419  -20.6398  -17.1633 C   0  0  0  0  0  0  0  0  0  0  0  0
   24.8024  -21.6889  -16.2949 C   0  0  0  0  0  0  0  0  0  0  0  0
   25.5483  -22.7971  -16.9537 C   0  0  0  0  0  0  0  0  0  0  0  0
   26.9261  -22.3719  -17.2314 N   0  0  0  0  0  0  0  0  0  0  0  0
   23.6935  -17.7757  -14.9231 C   0  0  0  0  0  0  0  0  0  0  0  0
   22.6732  -17.3120  -14.2925 O   0  0  0  0  0  0  0  0  0  0  0  0
   24.6630  -16.8579  -15.3464 N   0  0  0  0  0  0  0  0  0  0  0  0
   25.9200  -17.1467  -15.9727 C   0  0  0  0  0  0  0  0  0  0  0  0
   26.8169  -15.9778  -15.5916 C   0  0  0  0  0  0  0  0  0  0  0  0
   25.9509  -15.0219  -14.8073 C   0  0  0  0  0  0  0  0  0  0  0  0
   24.5683  -15.4231  -15.2177 C   0  0  1  0  0  0  0  0  0  0  0  0
   24.1902  -14.7401  -16.4491 C   0  0  0  0  0  0  0  0  0  0  0  0
   24.4224  -15.2502  -17.5619 O   0  0  0  0  0  0  0  0  0  0  0  0
   23.5513  -13.4793  -16.3932 N   0  0  0  0  0  0  0  0  0  0  0  0
   22.4825  -13.0781  -17.2864 C   0  0  1  0  0  0  0  0  0  0  0  0
   21.1071  -13.3584  -16.7252 C   0  0  0  0  0  0  0  0  0  0  0  0
   20.0171  -12.9841  -17.6237 C   0  0  0  0  0  0  0  0  0  0  0  0
   20.2740  -12.5097  -18.7498 O   0  0  0  0  0  0  0  0  0  0  0  0
   22.5684  -11.6369  -17.6238 C   0  0  0  0  0  0  0  0  0  0  0  0
   23.0743  -10.8473  -16.7886 O   0  0  0  0  0  0  0  0  0  0  0  0
   18.7027  -13.1497  -17.2374 O   0  0  0  0  0  0  0  0  0  0  0  0
   22.1174  -11.1106  -18.8171 O   0  0  0  0  0  0  0  0  0  0  0  0
  2  1  1  1
  2  3  1  0
  3  4  1  0
  4  5  1  0
  6  5  1  0
  6  7  1  0
  8  2  1  0
  9  8  2  0
 10  8  1  0
 10 14  1  0
 11 12  1  0
 11 10  1  0
 12 13  1  0
 13 14  1  0
 14 15  1  6
 15 16  2  0
 17 15  1  0
 18 17  1  0
 18 22  1  0
 18 19  1  1
 20 19  1  0
 21 20  2  0
 22 23  2  0
 22 25  1  0
 24 20  1  0
M  END
$$$$
