KPD.pdb
     RDKit          3D

 25 25  0  0  1  0  0  0  0  0999 V2000
   25.1429  -20.7789  -10.6567 N   0  0  0  0  0  0  0  0  0  0  0  0
   26.0578  -20.3879  -11.6803 C   0  0  1  0  0  0  0  0  0  0  0  0
   26.8538  -21.5036  -12.2990 C   0  0  0  0  0  0  0  0  0  0  0  0
   26.0767  -22.6222  -12.8706 C   0  0  0  0  0  0  0  0  0  0  0  0
   25.6915  -22.5720  -14.2912 C   0  0  0  0  0  0  0  0  0  0  0  0
   24.8962  -23.7123  -14.8258 C   0  0  0  0  0  0  0  0  0  0  0  0
   24.4891  -23.4290  -16.2079 N   0  0  0  0  0  0  0  0  0  0  0  0
   25.4434  -19.5546  -12.7422 C   0  0  0  0  0  0  0  0  0  0  0  0
   24.1909  -19.3053  -12.5911 O   0  0  0  0  0  0  0  0  0  0  0  0
   26.0764  -19.0212  -13.8718 N   0  0  0  0  0  0  0  0  0  0  0  0
   27.4104  -19.2839  -14.3272 C   0  0  0  0  0  0  0  0  0  0  0  0
   27.8124  -18.0268  -15.0849 C   0  0  0  0  0  0  0  0  0  0  0  0
   26.6007  -17.1265  -15.0783 C   0  0  0  0  0  0  0  0  0  0  0  0
   25.4849  -18.0840  -14.7971 C   0  0  1  0  0  0  0  0  0  0  0  0
   25.0161  -18.6898  -16.0377 C   0  0  0  0  0  0  0  0  0  0  0  0
   25.6389  -19.6303  -16.5667 O   0  0  0  0  0  0  0  0  0  0  0  0
   23.8395  -18.2111  -16.6601 N   0  0  0  0  0  0  0  0  0  0  0  0
   22.6166  -18.9814  -16.7702 C   0  0  1  0  0  0  0  0  0  0  0  0
   22.0988  -19.4621  -15.4338 C   0  0  0  0  0  0  0  0  0  0  0  0
   20.8722  -20.2510  -15.5267 C   0  0  0  0  0  0  0  0  0  0  0  0
   20.6744  -20.9789  -16.5219 O   0  0  0  0  0  0  0  0  0  0  0  0
   21.5443  -18.2061  -17.4391 C   0  0  0  0  0  0  0  0  0  0  0  0
   21.3100  -17.0351  -17.0511 O   0  0  0  0  0  0  0  0  0  0  0  0
   19.9274  -20.1978  -14.5224 O   0  0  0  0  0  0  0  0  0  0  0  0
   20.7816  -18.7066  -18.4747 O   0  0  0  0  0  0  0  0  0  0  0  0
  2  1  1  1
  2  3  1  0
  3  4  1  0
  4  5  1  0
  6  5  1  0
  6  7  1  0
  8  2  1  0
  9  8  2  0
 10  8  1  0
 10 14  1  0
 11 12  1  0
 11 10  1  0
 12 13  1  0
 13 14  1  0
 14 15  1  6
 15 16  2  0
 17 15  1  0
 18 17  1  0
 18 22  1  0
 18 19  1  1
 20 19  1  0
 21 20  2  0
 22 23  2  0
 22 25  1  0
 24 20  1  0
M  END
$$$$
