KPD.pdb
     RDKit          3D

 25 25  0  0  1  0  0  0  0  0999 V2000
   27.9189  -22.0816  -16.3156 N   0  0  0  0  0  0  0  0  0  0  0  0
   27.5168  -21.0627  -15.4003 C   0  0  1  0  0  0  0  0  0  0  0  0
   27.4303  -19.6748  -15.9725 C   0  0  0  0  0  0  0  0  0  0  0  0
   27.9825  -19.4916  -17.3302 C   0  0  0  0  0  0  0  0  0  0  0  0
   28.0516  -18.1338  -17.8962 C   0  0  0  0  0  0  0  0  0  0  0  0
   28.5591  -17.9977  -19.2899 C   0  0  0  0  0  0  0  0  0  0  0  0
   28.6585  -16.5765  -19.6455 N   0  0  0  0  0  0  0  0  0  0  0  0
   26.2724  -21.3838  -14.6600 C   0  0  0  0  0  0  0  0  0  0  0  0
   25.4037  -22.0699  -15.3145 O   0  0  0  0  0  0  0  0  0  0  0  0
   25.9529  -21.0231  -13.3451 N   0  0  0  0  0  0  0  0  0  0  0  0
   26.7258  -20.2077  -12.4542 C   0  0  0  0  0  0  0  0  0  0  0  0
   26.3394  -20.6867  -11.0623 C   0  0  0  0  0  0  0  0  0  0  0  0
   25.2681  -21.7317  -11.2596 C   0  0  0  0  0  0  0  0  0  0  0  0
   24.7619  -21.4238  -12.6343 C   0  0  1  0  0  0  0  0  0  0  0  0
   23.7320  -20.3935  -12.5729 C   0  0  0  0  0  0  0  0  0  0  0  0
   24.0220  -19.1891  -12.7057 O   0  0  0  0  0  0  0  0  0  0  0  0
   22.3809  -20.7534  -12.3587 N   0  0  0  0  0  0  0  0  0  0  0  0
   21.3079  -20.4383  -13.2809 C   0  0  1  0  0  0  0  0  0  0  0  0
   21.6076  -20.8588  -14.7017 C   0  0  0  0  0  0  0  0  0  0  0  0
   21.5910  -19.7543  -15.6585 C   0  0  0  0  0  0  0  0  0  0  0  0
   20.8165  -18.7907  -15.4831 O   0  0  0  0  0  0  0  0  0  0  0  0
   20.0310  -21.0657  -12.8637 C   0  0  0  0  0  0  0  0  0  0  0  0
   19.9010  -22.3097  -12.9758 O   0  0  0  0  0  0  0  0  0  0  0  0
   22.4249  -19.7674  -16.7578 O   0  0  0  0  0  0  0  0  0  0  0  0
   18.9666  -20.3499  -12.3548 O   0  0  0  0  0  0  0  0  0  0  0  0
  2  1  1  6
  2  3  1  0
  3  4  1  0
  4  5  1  0
  6  5  1  0
  6  7  1  0
  8  2  1  0
  9  8  2  0
 10  8  1  0
 10 14  1  0
 11 12  1  0
 11 10  1  0
 12 13  1  0
 13 14  1  0
 14 15  1  1
 15 16  2  0
 17 15  1  0
 18 17  1  0
 18 22  1  0
 18 19  1  6
 20 19  1  0
 21 20  2  0
 22 23  2  0
 22 25  1  0
 24 20  1  0
M  END
$$$$
