KPD.pdb
     RDKit          3D

 25 25  0  0  1  0  0  0  0  0999 V2000
   20.2362  -16.8383  -15.0096 N   0  0  0  0  0  0  0  0  0  0  0  0
   20.9037  -15.9348  -15.8904 C   0  0  1  0  0  0  0  0  0  0  0  0
   20.3247  -15.8321  -17.2744 C   0  0  0  0  0  0  0  0  0  0  0  0
   19.7529  -17.0722  -17.8376 C   0  0  0  0  0  0  0  0  0  0  0  0
   19.2140  -17.0522  -19.2081 C   0  0  0  0  0  0  0  0  0  0  0  0
   18.6410  -18.3211  -19.7372 C   0  0  0  0  0  0  0  0  0  0  0  0
   18.1028  -18.0987  -21.0852 N   0  0  0  0  0  0  0  0  0  0  0  0
   21.0961  -14.5794  -15.3200 C   0  0  0  0  0  0  0  0  0  0  0  0
   20.0727  -14.0845  -14.7189 O   0  0  0  0  0  0  0  0  0  0  0  0
   22.2573  -13.7980  -15.3681 N   0  0  0  0  0  0  0  0  0  0  0  0
   23.4714  -14.0859  -16.0744 C   0  0  0  0  0  0  0  0  0  0  0  0
   24.5558  -13.3696  -15.2827 C   0  0  0  0  0  0  0  0  0  0  0  0
   23.8468  -12.6245  -14.1777 C   0  0  0  0  0  0  0  0  0  0  0  0
   22.4440  -12.5357  -14.6927 C   0  0  1  0  0  0  0  0  0  0  0  0
   22.2978  -11.3716  -15.5583 C   0  0  0  0  0  0  0  0  0  0  0  0
   22.2005  -11.5001  -16.7938 O   0  0  0  0  0  0  0  0  0  0  0  0
   22.2659  -10.0724  -14.9999 N   0  0  0  0  0  0  0  0  0  0  0  0
   21.2436   -9.0906  -15.3035 C   0  0  1  0  0  0  0  0  0  0  0  0
   19.8449   -9.5848  -15.0126 C   0  0  0  0  0  0  0  0  0  0  0  0
   18.7977   -8.6268  -15.3606 C   0  0  0  0  0  0  0  0  0  0  0  0
   18.6748   -7.5728  -14.7023 O   0  0  0  0  0  0  0  0  0  0  0  0
   21.4622   -7.8293  -14.5554 C   0  0  0  0  0  0  0  0  0  0  0  0
   21.8500   -7.8906  -13.3627 O   0  0  0  0  0  0  0  0  0  0  0  0
   17.9403   -8.8775  -16.4123 O   0  0  0  0  0  0  0  0  0  0  0  0
   21.2599   -6.5791  -15.1037 O   0  0  0  0  0  0  0  0  0  0  0  0
  2  1  1  1
  2  3  1  0
  3  4  1  0
  4  5  1  0
  6  5  1  0
  6  7  1  0
  8  2  1  0
  9  8  2  0
 10  8  1  0
 10 14  1  0
 11 12  1  0
 11 10  1  0
 12 13  1  0
 13 14  1  0
 14 15  1  6
 15 16  2  0
 17 15  1  0
 18 17  1  0
 18 22  1  0
 18 19  1  1
 20 19  1  0
 21 20  2  0
 22 23  2  0
 22 25  1  0
 24 20  1  0
M  END
$$$$
