KPD.pdb
     RDKit          3D

 25 25  0  0  1  0  0  0  0  0999 V2000
   18.1472  -12.3628  -15.6888 N   0  0  0  0  0  0  0  0  0  0  0  0
   19.2224  -11.5510  -16.1607 C   0  0  1  0  0  0  0  0  0  0  0  0
   19.0085  -10.9082  -17.5032 C   0  0  0  0  0  0  0  0  0  0  0  0
   17.6522  -10.3877  -17.7703 C   0  0  0  0  0  0  0  0  0  0  0  0
   17.3794   -9.7335  -19.0612 C   0  0  0  0  0  0  0  0  0  0  0  0
   16.0062   -9.2007  -19.2823 C   0  0  0  0  0  0  0  0  0  0  0  0
   15.9008   -8.6470  -20.6382 N   0  0  0  0  0  0  0  0  0  0  0  0
   19.6778  -10.5360  -15.1800 C   0  0  0  0  0  0  0  0  0  0  0  0
   18.7666  -10.0812  -14.3948 O   0  0  0  0  0  0  0  0  0  0  0  0
   20.9750  -10.0318  -15.0243 N   0  0  0  0  0  0  0  0  0  0  0  0
   22.1385  -10.3716  -15.7904 C   0  0  0  0  0  0  0  0  0  0  0  0
   23.3054  -10.1343  -14.8427 C   0  0  0  0  0  0  0  0  0  0  0  0
   22.7091   -9.5756  -13.5734 C   0  0  0  0  0  0  0  0  0  0  0  0
   21.3816   -9.0612  -14.0360 C   0  0  1  0  0  0  0  0  0  0  0  0
   21.5198   -7.7061  -14.5561 C   0  0  0  0  0  0  0  0  0  0  0  0
   21.8764   -7.5048  -15.7328 O   0  0  0  0  0  0  0  0  0  0  0  0
   21.2492   -6.5957  -13.7226 N   0  0  0  0  0  0  0  0  0  0  0  0
   21.0174   -5.2538  -14.2194 C   0  0  1  0  0  0  0  0  0  0  0  0
   19.7598   -4.6267  -13.6623 C   0  0  0  0  0  0  0  0  0  0  0  0
   19.5569   -3.2417  -14.0817 C   0  0  0  0  0  0  0  0  0  0  0  0
   19.3486   -2.9799  -15.2848 O   0  0  0  0  0  0  0  0  0  0  0  0
   22.1614   -4.3589  -13.9214 C   0  0  0  0  0  0  0  0  0  0  0  0
   22.8170   -4.5429  -12.8664 O   0  0  0  0  0  0  0  0  0  0  0  0
   19.5947   -2.2173  -13.1578 O   0  0  0  0  0  0  0  0  0  0  0  0
   22.5482   -3.3239  -14.7483 O   0  0  0  0  0  0  0  0  0  0  0  0
  2  1  1  1
  2  3  1  0
  3  4  1  0
  4  5  1  0
  6  5  1  0
  6  7  1  0
  8  2  1  0
  9  8  2  0
 10  8  1  0
 10 14  1  0
 11 12  1  0
 11 10  1  0
 12 13  1  0
 13 14  1  0
 14 15  1  6
 15 16  2  0
 17 15  1  0
 18 17  1  0
 18 22  1  0
 18 19  1  1
 20 19  1  0
 21 20  2  0
 22 23  2  0
 22 25  1  0
 24 20  1  0
M  END
$$$$
