KPD.pdb
     RDKit          3D

 25 25  0  0  1  0  0  0  0  0999 V2000
   25.3144  -22.0561  -14.6047 N   0  0  0  0  0  0  0  0  0  0  0  0
   24.9280  -21.0193  -13.7028 C   0  0  1  0  0  0  0  0  0  0  0  0
   24.0627  -19.9387  -14.2899 C   0  0  0  0  0  0  0  0  0  0  0  0
   24.4985  -19.3853  -15.5883 C   0  0  0  0  0  0  0  0  0  0  0  0
   25.8386  -19.7247  -16.0958 C   0  0  0  0  0  0  0  0  0  0  0  0
   26.2597  -19.1071  -17.3842 C   0  0  0  0  0  0  0  0  0  0  0  0
   27.6439  -19.4903  -17.6895 N   0  0  0  0  0  0  0  0  0  0  0  0
   24.3283  -21.5193  -12.4418 C   0  0  0  0  0  0  0  0  0  0  0  0
   23.6642  -22.6157  -12.5446 O   0  0  0  0  0  0  0  0  0  0  0  0
   24.4101  -20.9302  -11.1739 N   0  0  0  0  0  0  0  0  0  0  0  0
   25.0924  -19.7201  -10.8190 C   0  0  0  0  0  0  0  0  0  0  0  0
   25.4604  -19.9021   -9.3535 C   0  0  0  0  0  0  0  0  0  0  0  0
   24.8681  -21.2253   -8.9326 C   0  0  0  0  0  0  0  0  0  0  0  0
   23.8121  -21.4539   -9.9688 C   0  0  1  0  0  0  0  0  0  0  0  0
   22.5742  -20.7877   -9.5820 C   0  0  0  0  0  0  0  0  0  0  0  0
   22.2901  -19.6575  -10.0229 O   0  0  0  0  0  0  0  0  0  0  0  0
   21.6752  -21.4224   -8.6932 N   0  0  0  0  0  0  0  0  0  0  0  0
   20.2476  -21.5186   -8.9249 C   0  0  1  0  0  0  0  0  0  0  0  0
   19.9065  -22.0606  -10.2942 C   0  0  0  0  0  0  0  0  0  0  0  0
   18.4711  -22.1275  -10.5602 C   0  0  0  0  0  0  0  0  0  0  0  0
   17.6651  -21.6084   -9.7601 O   0  0  0  0  0  0  0  0  0  0  0  0
   19.5875  -22.3682   -7.9046 C   0  0  0  0  0  0  0  0  0  0  0  0
   19.9691  -23.5564   -7.7654 O   0  0  0  0  0  0  0  0  0  0  0  0
   17.9969  -22.7619  -11.6902 O   0  0  0  0  0  0  0  0  0  0  0  0
   18.5660  -21.9201   -7.0922 O   0  0  0  0  0  0  0  0  0  0  0  0
  2  1  1  6
  2  3  1  0
  3  4  1  0
  4  5  1  0
  6  5  1  0
  6  7  1  0
  8  2  1  0
  9  8  2  0
 10  8  1  0
 10 14  1  0
 11 12  1  0
 11 10  1  0
 12 13  1  0
 13 14  1  0
 14 15  1  1
 15 16  2  0
 17 15  1  0
 18 17  1  0
 18 22  1  0
 18 19  1  6
 20 19  1  0
 21 20  2  0
 22 23  2  0
 22 25  1  0
 24 20  1  0
M  END
$$$$
