KPD.pdb
     RDKit          3D

 25 25  0  0  1  0  0  0  0  0999 V2000
   30.2733  -23.7209  -16.8934 N   0  0  0  0  0  0  0  0  0  0  0  0
   29.4222  -22.6611  -17.3294 C   0  0  1  0  0  0  0  0  0  0  0  0
   28.4190  -23.0290  -18.3875 C   0  0  0  0  0  0  0  0  0  0  0  0
   27.5769  -24.2099  -18.1077 C   0  0  0  0  0  0  0  0  0  0  0  0
   26.5269  -24.5828  -19.0707 C   0  0  0  0  0  0  0  0  0  0  0  0
   25.6393  -25.7229  -18.7088 C   0  0  0  0  0  0  0  0  0  0  0  0
   24.6704  -25.9593  -19.7865 N   0  0  0  0  0  0  0  0  0  0  0  0
   28.7483  -21.9433  -16.2202 C   0  0  0  0  0  0  0  0  0  0  0  0
   28.7342  -22.5611  -15.0925 O   0  0  0  0  0  0  0  0  0  0  0  0
   28.1373  -20.6843  -16.2746 N   0  0  0  0  0  0  0  0  0  0  0  0
   27.9168  -19.8735  -17.4364 C   0  0  0  0  0  0  0  0  0  0  0  0
   27.8975  -18.4455  -16.9105 C   0  0  0  0  0  0  0  0  0  0  0  0
   28.0341  -18.5481  -15.4106 C   0  0  0  0  0  0  0  0  0  0  0  0
   27.6141  -19.9594  -15.1410 C   0  0  1  0  0  0  0  0  0  0  0  0
   26.1645  -20.0363  -15.0046 C   0  0  0  0  0  0  0  0  0  0  0  0
   25.4433  -20.3193  -15.9804 O   0  0  0  0  0  0  0  0  0  0  0  0
   25.5560  -19.7871  -13.7522 N   0  0  0  0  0  0  0  0  0  0  0  0
   24.3272  -20.4191  -13.3142 C   0  0  1  0  0  0  0  0  0  0  0  0
   24.1717  -20.4297  -11.8106 C   0  0  0  0  0  0  0  0  0  0  0  0
   22.9215  -21.0316  -11.3521 C   0  0  0  0  0  0  0  0  0  0  0  0
   22.2202  -21.6913  -12.1472 O   0  0  0  0  0  0  0  0  0  0  0  0
   23.1371  -19.7617  -13.9058 C   0  0  0  0  0  0  0  0  0  0  0  0
   23.1623  -18.5212  -14.0988 O   0  0  0  0  0  0  0  0  0  0  0  0
   22.5071  -20.8760  -10.0451 O   0  0  0  0  0  0  0  0  0  0  0  0
   21.9916  -20.4456  -14.2586 O   0  0  0  0  0  0  0  0  0  0  0  0
  2  1  1  1
  2  3  1  0
  3  4  1  0
  4  5  1  0
  6  5  1  0
  6  7  1  0
  8  2  1  0
  9  8  2  0
 10  8  1  0
 10 14  1  0
 11 12  1  0
 11 10  1  0
 12 13  1  0
 13 14  1  0
 14 15  1  6
 15 16  2  0
 17 15  1  0
 18 17  1  0
 18 22  1  0
 18 19  1  1
 20 19  1  0
 21 20  2  0
 22 23  2  0
 22 25  1  0
 24 20  1  0
M  END
$$$$
