KPD.pdb
     RDKit          3D

 25 25  0  0  1  0  0  0  0  0999 V2000
   22.7709  -12.3970  -17.1599 N   0  0  0  0  0  0  0  0  0  0  0  0
   22.4630  -11.1375  -17.7570 C   0  0  1  0  0  0  0  0  0  0  0  0
   21.0363  -10.9607  -18.1981 C   0  0  0  0  0  0  0  0  0  0  0  0
   20.4076  -12.1223  -18.8593 C   0  0  0  0  0  0  0  0  0  0  0  0
   18.9909  -12.0398  -19.2531 C   0  0  0  0  0  0  0  0  0  0  0  0
   18.3887  -13.2392  -19.8992 C   0  0  0  0  0  0  0  0  0  0  0  0
   16.9806  -12.9751  -20.2216 N   0  0  0  0  0  0  0  0  0  0  0  0
   22.8901   -9.9726  -16.9447 C   0  0  0  0  0  0  0  0  0  0  0  0
   22.7098  -10.0895  -15.6768 O   0  0  0  0  0  0  0  0  0  0  0  0
   23.4594   -8.7802  -17.4088 N   0  0  0  0  0  0  0  0  0  0  0  0
   23.7919   -8.4438  -18.7624 C   0  0  0  0  0  0  0  0  0  0  0  0
   24.9383   -7.4503  -18.6409 C   0  0  0  0  0  0  0  0  0  0  0  0
   25.1372   -7.2166  -17.1629 C   0  0  0  0  0  0  0  0  0  0  0  0
   23.8273   -7.6533  -16.5848 C   0  0  1  0  0  0  0  0  0  0  0  0
   22.8697   -6.5543  -16.6198 C   0  0  0  0  0  0  0  0  0  0  0  0
   22.2132   -6.3092  -17.6500 O   0  0  0  0  0  0  0  0  0  0  0  0
   22.6752   -5.7467  -15.4749 N   0  0  0  0  0  0  0  0  0  0  0  0
   21.3912   -5.1983  -15.0854 C   0  0  1  0  0  0  0  0  0  0  0  0
   20.3320   -6.2584  -14.8861 C   0  0  0  0  0  0  0  0  0  0  0  0
   19.0349   -5.7249  -14.4758 C   0  0  0  0  0  0  0  0  0  0  0  0
   18.5972   -4.6802  -15.0015 O   0  0  0  0  0  0  0  0  0  0  0  0
   21.4966   -4.3986  -13.8413 C   0  0  0  0  0  0  0  0  0  0  0  0
   22.3628   -4.7142  -12.9887 O   0  0  0  0  0  0  0  0  0  0  0  0
   18.2876   -6.3664  -13.5092 O   0  0  0  0  0  0  0  0  0  0  0  0
   20.6861   -3.3161  -13.5663 O   0  0  0  0  0  0  0  0  0  0  0  0
  2  1  1  1
  2  3  1  0
  3  4  1  0
  4  5  1  0
  6  5  1  0
  6  7  1  0
  8  2  1  0
  9  8  2  0
 10  8  1  0
 10 14  1  0
 11 12  1  0
 11 10  1  0
 12 13  1  0
 13 14  1  0
 14 15  1  6
 15 16  2  0
 17 15  1  0
 18 17  1  0
 18 22  1  0
 18 19  1  1
 20 19  1  0
 21 20  2  0
 22 23  2  0
 22 25  1  0
 24 20  1  0
M  END
$$$$
