KPD.pdb
     RDKit          3D

 25 25  0  0  1  0  0  0  0  0999 V2000
   16.8756  -11.1161  -17.5643 N   0  0  0  0  0  0  0  0  0  0  0  0
   17.8547  -11.0410  -16.5282 C   0  0  1  0  0  0  0  0  0  0  0  0
   19.1672  -11.7113  -16.8269 C   0  0  0  0  0  0  0  0  0  0  0  0
   19.1093  -13.1552  -17.1331 C   0  0  0  0  0  0  0  0  0  0  0  0
   18.8502  -14.1074  -16.0399 C   0  0  0  0  0  0  0  0  0  0  0  0
   18.7748  -15.5523  -16.3936 C   0  0  0  0  0  0  0  0  0  0  0  0
   18.5648  -16.3504  -15.1791 N   0  0  0  0  0  0  0  0  0  0  0  0
   18.0909   -9.6642  -16.0301 C   0  0  0  0  0  0  0  0  0  0  0  0
   18.0238   -8.7377  -16.9194 O   0  0  0  0  0  0  0  0  0  0  0  0
   18.3740   -9.2772  -14.7143 N   0  0  0  0  0  0  0  0  0  0  0  0
   18.5950  -10.1317  -13.5843 C   0  0  0  0  0  0  0  0  0  0  0  0
   18.1683   -9.2994  -12.3838 C   0  0  0  0  0  0  0  0  0  0  0  0
   17.7925   -7.9416  -12.9259 C   0  0  0  0  0  0  0  0  0  0  0  0
   18.4900   -7.9151  -14.2502 C   0  0  1  0  0  0  0  0  0  0  0  0
   19.8650   -7.4585  -14.0864 C   0  0  0  0  0  0  0  0  0  0  0  0
   20.7652   -8.2476  -13.7410 O   0  0  0  0  0  0  0  0  0  0  0  0
   20.1942   -6.1026  -14.3187 N   0  0  0  0  0  0  0  0  0  0  0  0
   21.5502   -5.5903  -14.3084 C   0  0  1  0  0  0  0  0  0  0  0  0
   21.6964   -4.2905  -15.0663 C   0  0  0  0  0  0  0  0  0  0  0  0
   21.1937   -4.3485  -16.4372 C   0  0  0  0  0  0  0  0  0  0  0  0
   21.4956   -5.3132  -17.1704 O   0  0  0  0  0  0  0  0  0  0  0  0
   22.0438   -5.3867  -12.9252 C   0  0  0  0  0  0  0  0  0  0  0  0
   21.2284   -5.4598  -11.9731 O   0  0  0  0  0  0  0  0  0  0  0  0
   20.3870   -3.3435  -16.9306 O   0  0  0  0  0  0  0  0  0  0  0  0
   23.3634   -5.1178  -12.6243 O   0  0  0  0  0  0  0  0  0  0  0  0
  2  1  1  6
  2  3  1  0
  3  4  1  0
  4  5  1  0
  6  5  1  0
  6  7  1  0
  8  2  1  0
  9  8  2  0
 10  8  1  0
 10 14  1  0
 11 12  1  0
 11 10  1  0
 12 13  1  0
 13 14  1  0
 14 15  1  1
 15 16  2  0
 17 15  1  0
 18 17  1  0
 18 22  1  0
 18 19  1  6
 20 19  1  0
 21 20  2  0
 22 23  2  0
 22 25  1  0
 24 20  1  0
M  END
$$$$
