KPD.pdb
     RDKit          3D

 25 25  0  0  1  0  0  0  0  0999 V2000
   13.6238  -22.5102    0.3030 N   0  0  0  0  0  0  0  0  0  0  0  0
   13.9556  -21.3281    1.0310 C   0  0  1  0  0  0  0  0  0  0  0  0
   12.8012  -20.6318    1.6973 C   0  0  0  0  0  0  0  0  0  0  0  0
   11.7438  -20.1173    0.8034 C   0  0  0  0  0  0  0  0  0  0  0  0
   10.6270  -19.3528    1.3840 C   0  0  0  0  0  0  0  0  0  0  0  0
    9.5678  -18.8736    0.4528 C   0  0  0  0  0  0  0  0  0  0  0  0
    8.5506  -18.1244    1.2012 N   0  0  0  0  0  0  0  0  0  0  0  0
   15.0617  -21.5162    2.0009 C   0  0  0  0  0  0  0  0  0  0  0  0
   15.4782  -22.7255    2.1335 O   0  0  0  0  0  0  0  0  0  0  0  0
   15.6876  -20.5293    2.7726 N   0  0  0  0  0  0  0  0  0  0  0  0
   15.3541  -19.1364    2.8411 C   0  0  0  0  0  0  0  0  0  0  0  0
   16.6601  -18.4461    3.2067 C   0  0  0  0  0  0  0  0  0  0  0  0
   17.6745  -19.5456    3.4088 C   0  0  0  0  0  0  0  0  0  0  0  0
   16.8116  -20.7442    3.6528 C   0  0  1  0  0  0  0  0  0  0  0  0
   16.4535  -20.8284    5.0636 C   0  0  0  0  0  0  0  0  0  0  0  0
   15.4027  -20.3121    5.4898 O   0  0  0  0  0  0  0  0  0  0  0  0
   17.3033  -21.5021    5.9718 N   0  0  0  0  0  0  0  0  0  0  0  0
   16.9376  -21.8083    7.3407 C   0  0  1  0  0  0  0  0  0  0  0  0
   17.7289  -22.9586    7.9203 C   0  0  0  0  0  0  0  0  0  0  0  0
   17.5633  -24.2140    7.1908 C   0  0  0  0  0  0  0  0  0  0  0  0
   16.4302  -24.5592    6.7957 O   0  0  0  0  0  0  0  0  0  0  0  0
   17.1045  -20.6296    8.2244 C   0  0  0  0  0  0  0  0  0  0  0  0
   16.6457  -20.6770    9.3923 O   0  0  0  0  0  0  0  0  0  0  0  0
   18.6507  -25.0241    6.9349 O   0  0  0  0  0  0  0  0  0  0  0  0
   17.7423  -19.4714    7.8292 O   0  0  0  0  0  0  0  0  0  0  0  0
  2  1  1  1
  2  3  1  0
  3  4  1  0
  4  5  1  0
  6  5  1  0
  6  7  1  0
  8  2  1  0
  9  8  2  0
 10  8  1  0
 10 14  1  0
 11 12  1  0
 11 10  1  0
 12 13  1  0
 13 14  1  0
 14 15  1  1
 15 16  2  0
 17 15  1  0
 18 17  1  0
 18 22  1  0
 18 19  1  1
 20 19  1  0
 21 20  2  0
 22 23  2  0
 22 25  1  0
 24 20  1  0
M  END
$$$$
