ELF.pdb
     RDKit          3D

 29 29  0  0  1  0  0  0  0  0999 V2000
    7.7487  -18.6084   20.6427 N   0  0  0  0  0  0  0  0  0  0  0  0
    9.0975  -18.3926   20.1180 C   0  0  1  0  0  0  0  0  0  0  0  0
    9.1264  -18.4578   18.6352 C   0  0  0  0  0  0  0  0  0  0  0  0
    8.4489  -19.6904   18.1035 C   0  0  0  0  0  0  0  0  0  0  0  0
    8.7309  -19.8433   16.6350 C   0  0  0  0  0  0  0  0  0  0  0  0
    9.4980  -19.0179   16.0898 O   0  0  0  0  0  0  0  0  0  0  0  0
    9.6409  -17.1791   20.7365 C   0  0  0  0  0  0  0  0  0  0  0  0
   10.8659  -16.8887   20.6965 O   0  0  0  0  0  0  0  0  0  0  0  0
    8.1844  -20.8470   15.8684 O   0  0  0  0  0  0  0  0  0  0  0  0
    8.9510  -13.4461   19.4086 C   0  0  0  0  0  0  0  0  0  0  0  0
    7.7985  -13.7075   20.3953 C   0  0  2  0  0  0  0  0  0  0  0  0
    6.8095  -12.5790   20.2888 C   0  0  0  0  0  0  0  0  0  0  0  0
    8.4024  -13.8073   21.7679 C   0  0  0  0  0  0  0  0  0  0  0  0
    9.2127  -15.0120   21.9947 C   0  0  2  0  0  0  0  0  0  0  0  0
    8.7870  -16.2426   21.4327 N   0  0  0  0  0  0  0  0  0  0  0  0
    9.5069  -15.1776   23.4515 C   0  0  0  0  0  0  0  0  0  0  0  0
   10.2394  -14.3021   24.0159 O   0  0  0  0  0  0  0  0  0  0  0  0
    8.9982  -16.2598   24.1917 N   0  0  0  0  0  0  0  0  0  0  0  0
    9.3019  -16.3393   25.6191 C   0  0  1  0  0  0  0  0  0  0  0  0
    8.0570  -16.1753   26.4397 C   0  0  0  0  0  0  0  0  0  0  0  0
    7.6444  -14.7807   26.5122 C   0  0  0  0  0  0  0  0  0  0  0  0
    6.4130  -14.4058   25.9581 C   0  0  0  0  0  0  0  0  0  0  0  0
    5.9708  -13.1025   26.0218 C   0  0  0  0  0  0  0  0  0  0  0  0
    6.7216  -12.1263   26.6304 C   0  0  0  0  0  0  0  0  0  0  0  0
    7.9548  -12.4732   27.1920 C   0  0  0  0  0  0  0  0  0  0  0  0
    8.3957  -13.7775   27.1277 C   0  0  0  0  0  0  0  0  0  0  0  0
    9.8930  -17.6768   25.8557 C   0  0  0  0  0  0  0  0  0  0  0  0
   10.3832  -18.0896   27.0902 O   0  0  0  0  0  0  0  0  0  0  0  0
    9.9826  -18.5228   24.9235 O   0  0  0  0  0  0  0  0  0  0  0  0
  2  1  1  6
  2  3  1  0
  3  4  1  0
  4  5  1  0
  5  6  2  0
  5  9  1  0
  7  2  1  0
  8  7  2  0
 11 10  1  6
 11 13  1  0
 12 11  1  0
 14 13  1  1
 14 15  1  0
 15  7  1  0
 16 14  1  0
 16 17  2  0
 18 16  1  0
 19 18  1  0
 20 21  1  0
 19 20  1  1
 21 26  2  0
 22 21  1  0
 22 23  2  0
 23 24  1  0
 24 25  2  0
 26 25  1  0
 27 19  1  0
 28 27  1  0
 29 27  2  0
M  END
$$$$
