ELF.pdb
     RDKit          3D

 29 29  0  0  1  0  0  0  0  0999 V2000
    8.6229  -18.6744   20.3139 N   0  0  0  0  0  0  0  0  0  0  0  0
   10.0436  -18.3263   20.3521 C   0  0  1  0  0  0  0  0  0  0  0  0
   10.6838  -18.4870   19.0224 C   0  0  0  0  0  0  0  0  0  0  0  0
    9.9073  -17.8086   17.9279 C   0  0  0  0  0  0  0  0  0  0  0  0
   10.6703  -17.8750   16.6345 C   0  0  0  0  0  0  0  0  0  0  0  0
   11.9171  -17.9734   16.6863 O   0  0  0  0  0  0  0  0  0  0  0  0
   10.1769  -17.0152   20.9954 C   0  0  0  0  0  0  0  0  0  0  0  0
   11.2936  -16.4643   21.1851 O   0  0  0  0  0  0  0  0  0  0  0  0
   10.0594  -17.8326   15.4021 O   0  0  0  0  0  0  0  0  0  0  0  0
    9.0299  -13.0655   19.6460 C   0  0  0  0  0  0  0  0  0  0  0  0
    7.7949  -13.8256   20.1630 C   0  0  2  0  0  0  0  0  0  0  0  0
    6.5663  -13.0164   19.8487 C   0  0  0  0  0  0  0  0  0  0  0  0
    7.9822  -14.0252   21.6409 C   0  0  0  0  0  0  0  0  0  0  0  0
    9.0459  -14.9728   22.0012 C   0  0  2  0  0  0  0  0  0  0  0  0
    9.0183  -16.2793   21.4502 N   0  0  0  0  0  0  0  0  0  0  0  0
    9.2087  -15.0360   23.4864 C   0  0  0  0  0  0  0  0  0  0  0  0
    9.6573  -14.0039   24.0823 O   0  0  0  0  0  0  0  0  0  0  0  0
    8.8806  -16.1908   24.2191 N   0  0  0  0  0  0  0  0  0  0  0  0
    9.0401  -16.1700   25.6717 C   0  0  1  0  0  0  0  0  0  0  0  0
    7.7383  -15.8556   26.3473 C   0  0  0  0  0  0  0  0  0  0  0  0
    7.5080  -14.4197   26.4220 C   0  0  0  0  0  0  0  0  0  0  0  0
    6.2473  -13.9140   26.0774 C   0  0  0  0  0  0  0  0  0  0  0  0
    5.9760  -12.5653   26.1533 C   0  0  0  0  0  0  0  0  0  0  0  0
    6.9317  -11.6706   26.5692 C   0  0  0  0  0  0  0  0  0  0  0  0
    8.1988  -12.1485   26.9194 C   0  0  0  0  0  0  0  0  0  0  0  0
    8.4686  -13.4980   26.8431 C   0  0  0  0  0  0  0  0  0  0  0  0
    9.5050  -17.5192   26.0692 C   0  0  0  0  0  0  0  0  0  0  0  0
    9.8013  -18.5264   25.1568 O   0  0  0  0  0  0  0  0  0  0  0  0
    9.6549  -17.8239   27.2846 O   0  0  0  0  0  0  0  0  0  0  0  0
  2  1  1  6
  2  3  1  0
  3  4  1  0
  4  5  1  0
  5  6  2  0
  5  9  1  0
  7  2  1  0
  8  7  2  0
 11 10  1  1
 11 13  1  0
 12 11  1  0
 14 13  1  1
 14 15  1  0
 15  7  1  0
 16 14  1  0
 16 17  2  0
 18 16  1  0
 19 18  1  0
 20 21  1  0
 19 20  1  1
 21 26  2  0
 22 21  1  0
 22 23  2  0
 23 24  1  0
 24 25  2  0
 26 25  1  0
 27 19  1  0
 28 27  1  0
 29 27  2  0
M  END
$$$$
