ELF.pdb
     RDKit          3D

 29 29  0  0  1  0  0  0  0  0999 V2000
    9.5921  -18.9271   19.1244 N   0  0  0  0  0  0  0  0  0  0  0  0
    8.8444  -18.5217   20.3150 C   0  0  1  0  0  0  0  0  0  0  0  0
    8.7207  -19.6340   21.2904 C   0  0  0  0  0  0  0  0  0  0  0  0
    8.1252  -20.8704   20.6756 C   0  0  0  0  0  0  0  0  0  0  0  0
    7.8406  -21.8922   21.7407 C   0  0  0  0  0  0  0  0  0  0  0  0
    8.1347  -21.6118   22.9246 O   0  0  0  0  0  0  0  0  0  0  0  0
    9.4198  -17.2679   20.8124 C   0  0  0  0  0  0  0  0  0  0  0  0
   10.6595  -17.0451   20.8138 O   0  0  0  0  0  0  0  0  0  0  0  0
    7.2735  -23.1166   21.4706 O   0  0  0  0  0  0  0  0  0  0  0  0
    8.8678  -13.2253   19.2183 C   0  0  0  0  0  0  0  0  0  0  0  0
    7.7274  -13.6802   20.1470 C   0  0  2  0  0  0  0  0  0  0  0  0
    6.5958  -12.6952   20.0365 C   0  0  0  0  0  0  0  0  0  0  0  0
    8.2885  -13.7484   21.5396 C   0  0  0  0  0  0  0  0  0  0  0  0
    9.0515  -14.9692   21.8337 C   0  0  2  0  0  0  0  0  0  0  0  0
    8.5823  -16.2104   21.3332 N   0  0  0  0  0  0  0  0  0  0  0  0
    9.3324  -15.0700   23.2991 C   0  0  0  0  0  0  0  0  0  0  0  0
   10.0128  -14.1404   23.8419 O   0  0  0  0  0  0  0  0  0  0  0  0
    8.8668  -16.1501   24.0700 N   0  0  0  0  0  0  0  0  0  0  0  0
    9.1266  -16.1503   25.5082 C   0  0  1  0  0  0  0  0  0  0  0  0
    7.8566  -15.9473   26.2802 C   0  0  0  0  0  0  0  0  0  0  0  0
    7.4864  -14.5403   26.3399 C   0  0  0  0  0  0  0  0  0  0  0  0
    6.2097  -14.1538   25.9105 C   0  0  0  0  0  0  0  0  0  0  0  0
    5.8071  -12.8374   25.9685 C   0  0  0  0  0  0  0  0  0  0  0  0
    6.6431  -11.8592   26.4492 C   0  0  0  0  0  0  0  0  0  0  0  0
    7.9232  -12.2174   26.8847 C   0  0  0  0  0  0  0  0  0  0  0  0
    8.3244  -13.5348   26.8262 C   0  0  0  0  0  0  0  0  0  0  0  0
    9.7138  -17.4704   25.8356 C   0  0  0  0  0  0  0  0  0  0  0  0
   10.1599  -17.8157   27.1070 O   0  0  0  0  0  0  0  0  0  0  0  0
    9.8409  -18.3630   24.9526 O   0  0  0  0  0  0  0  0  0  0  0  0
  2  1  1  6
  2  3  1  0
  3  4  1  0
  4  5  1  0
  5  6  2  0
  5  9  1  0
  7  2  1  0
  8  7  2  0
 11 10  1  6
 11 13  1  0
 12 11  1  0
 14 13  1  1
 14 15  1  0
 15  7  1  0
 16 14  1  0
 16 17  2  0
 18 16  1  0
 19 18  1  0
 20 21  1  0
 19 20  1  1
 21 26  2  0
 22 21  1  0
 22 23  2  0
 23 24  1  0
 24 25  2  0
 26 25  1  0
 27 19  1  0
 28 27  1  0
 29 27  2  0
M  END
$$$$
