ELF.pdb
     RDKit          3D

 29 29  0  0  1  0  0  0  0  0999 V2000
   10.6792  -17.9116   19.3044 N   0  0  0  0  0  0  0  0  0  0  0  0
   11.6175  -17.6883   20.4047 C   0  0  1  0  0  0  0  0  0  0  0  0
   12.8826  -17.0730   19.9308 C   0  0  0  0  0  0  0  0  0  0  0  0
   13.6971  -18.0159   19.0889 C   0  0  0  0  0  0  0  0  0  0  0  0
   14.9695  -17.3482   18.6478 C   0  0  0  0  0  0  0  0  0  0  0  0
   14.9780  -16.7607   17.5426 O   0  0  0  0  0  0  0  0  0  0  0  0
   10.9053  -16.9897   21.4795 C   0  0  0  0  0  0  0  0  0  0  0  0
   11.4781  -16.6053   22.5334 O   0  0  0  0  0  0  0  0  0  0  0  0
   16.1194  -17.3555   19.4036 O   0  0  0  0  0  0  0  0  0  0  0  0
    8.4729  -13.2260   21.0084 C   0  0  0  0  0  0  0  0  0  0  0  0
    7.6046  -14.4407   20.6333 C   0  0  2  0  0  0  0  0  0  0  0  0
    6.2655  -13.9460   20.1590 C   0  0  0  0  0  0  0  0  0  0  0  0
    7.4914  -15.3020   21.8597 C   0  0  0  0  0  0  0  0  0  0  0  0
    8.7543  -15.9111   22.2995 C   0  0  2  0  0  0  0  0  0  0  0  0
    9.4912  -16.7033   21.3827 N   0  0  0  0  0  0  0  0  0  0  0  0
    8.5594  -16.6474   23.5864 C   0  0  0  0  0  0  0  0  0  0  0  0
    9.0724  -17.8079   23.6939 O   0  0  0  0  0  0  0  0  0  0  0  0
    7.8357  -16.0907   24.6561 N   0  0  0  0  0  0  0  0  0  0  0  0
    7.7215  -16.8517   25.8985 C   0  0  1  0  0  0  0  0  0  0  0  0
    7.0716  -16.0286   26.9710 C   0  0  0  0  0  0  0  0  0  0  0  0
    7.5717  -14.6610   26.9721 C   0  0  0  0  0  0  0  0  0  0  0  0
    6.8159  -13.6597   26.3476 C   0  0  0  0  0  0  0  0  0  0  0  0
    7.2380  -12.3481   26.3419 C   0  0  0  0  0  0  0  0  0  0  0  0
    8.4137  -11.9774   26.9479 C   0  0  0  0  0  0  0  0  0  0  0  0
    9.1876  -12.9569   27.5789 C   0  0  0  0  0  0  0  0  0  0  0  0
    8.7639  -14.2685   27.5839 C   0  0  0  0  0  0  0  0  0  0  0  0
    6.8894  -18.0395   25.5964 C   0  0  0  0  0  0  0  0  0  0  0  0
    6.7370  -19.1100   26.4713 O   0  0  0  0  0  0  0  0  0  0  0  0
    6.2672  -18.1370   24.5027 O   0  0  0  0  0  0  0  0  0  0  0  0
  2  1  1  6
  2  3  1  0
  3  4  1  0
  4  5  1  0
  5  6  2  0
  5  9  1  0
  7  2  1  0
  8  7  2  0
 11 10  1  1
 11 13  1  0
 12 11  1  0
 14 13  1  6
 14 15  1  0
 15  7  1  0
 16 14  1  0
 16 17  2  0
 18 16  1  0
 19 18  1  0
 20 21  1  0
 19 20  1  1
 21 26  2  0
 22 21  1  0
 22 23  2  0
 23 24  1  0
 24 25  2  0
 26 25  1  0
 27 19  1  0
 28 27  1  0
 29 27  2  0
M  END
$$$$
