ELF.pdb
     RDKit          3D

 29 29  0  0  1  0  0  0  0  0999 V2000
    8.9812  -16.5355   19.0109 N   0  0  0  0  0  0  0  0  0  0  0  0
    8.9347  -17.3892   20.1984 C   0  0  1  0  0  0  0  0  0  0  0  0
    9.8116  -18.5783   20.0541 C   0  0  0  0  0  0  0  0  0  0  0  0
    9.5066  -19.3664   18.8103 C   0  0  0  0  0  0  0  0  0  0  0  0
   10.3868  -20.5828   18.7397 C   0  0  0  0  0  0  0  0  0  0  0  0
   10.2469  -21.3599   17.7684 O   0  0  0  0  0  0  0  0  0  0  0  0
    9.1542  -16.5458   21.3778 C   0  0  0  0  0  0  0  0  0  0  0  0
   10.2517  -15.9708   21.6046 O   0  0  0  0  0  0  0  0  0  0  0  0
   11.3350  -20.8768   19.6926 O   0  0  0  0  0  0  0  0  0  0  0  0
    6.0416  -13.7717   26.0250 C   0  0  0  0  0  0  0  0  0  0  0  0
    7.3677  -14.0771   25.3050 C   0  0  2  0  0  0  0  0  0  0  0  0
    7.8729  -12.8101   24.6707 C   0  0  0  0  0  0  0  0  0  0  0  0
    7.0858  -15.1487   24.2897 C   0  0  0  0  0  0  0  0  0  0  0  0
    8.2739  -15.6594   23.5919 C   0  0  2  0  0  0  0  0  0  0  0  0
    8.1084  -16.3289   22.3526 N   0  0  0  0  0  0  0  0  0  0  0  0
    9.1133  -16.4786   24.5196 C   0  0  0  0  0  0  0  0  0  0  0  0
    8.9029  -17.7337   24.5641 O   0  0  0  0  0  0  0  0  0  0  0  0
   10.1095  -15.8981   25.3247 N   0  0  0  0  0  0  0  0  0  0  0  0
   10.9946  -16.7748   26.0889 C   0  0  1  0  0  0  0  0  0  0  0  0
   12.0317  -15.9779   26.8234 C   0  0  0  0  0  0  0  0  0  0  0  0
   11.4265  -15.0910   27.8071 C   0  0  0  0  0  0  0  0  0  0  0  0
   10.9749  -13.8289   27.3985 C   0  0  0  0  0  0  0  0  0  0  0  0
   10.3762  -12.9643   28.2887 C   0  0  0  0  0  0  0  0  0  0  0  0
   10.2016  -13.3099   29.6067 C   0  0  0  0  0  0  0  0  0  0  0  0
   10.6430  -14.5640   30.0412 C   0  0  0  0  0  0  0  0  0  0  0  0
   11.2415  -15.4279   29.1494 C   0  0  0  0  0  0  0  0  0  0  0  0
   10.1411  -17.5074   27.0529 C   0  0  0  0  0  0  0  0  0  0  0  0
   10.5785  -18.6110   27.7778 O   0  0  0  0  0  0  0  0  0  0  0  0
    8.9476  -17.1556   27.2635 O   0  0  0  0  0  0  0  0  0  0  0  0
  2  1  1  6
  2  3  1  0
  3  4  1  0
  4  5  1  0
  5  6  2  0
  5  9  1  0
  7  2  1  0
  8  7  2  0
 11 10  1  6
 11 13  1  0
 12 11  1  0
 14 13  1  1
 14 15  1  0
 15  7  1  0
 16 14  1  0
 16 17  2  0
 18 16  1  0
 19 18  1  0
 20 21  1  0
 19 20  1  1
 21 26  2  0
 22 21  1  0
 22 23  2  0
 23 24  1  0
 24 25  2  0
 26 25  1  0
 27 19  1  0
 28 27  1  0
 29 27  2  0
M  END
$$$$
