ELF.pdb
     RDKit          3D

 29 29  0  0  1  0  0  0  0  0999 V2000
    9.7866  -18.7039   19.9770 N   0  0  0  0  0  0  0  0  0  0  0  0
   11.0485  -17.9818   20.1418 C   0  0  1  0  0  0  0  0  0  0  0  0
   11.7551  -17.8093   18.8478 C   0  0  0  0  0  0  0  0  0  0  0  0
   12.7738  -18.8883   18.6040 C   0  0  0  0  0  0  0  0  0  0  0  0
   13.5018  -18.6307   17.3144 C   0  0  0  0  0  0  0  0  0  0  0  0
   13.0139  -19.0889   16.2567 O   0  0  0  0  0  0  0  0  0  0  0  0
   10.7823  -16.7653   20.9164 C   0  0  0  0  0  0  0  0  0  0  0  0
   11.6870  -15.9418   21.2163 O   0  0  0  0  0  0  0  0  0  0  0  0
   14.6760  -17.9162   17.2477 O   0  0  0  0  0  0  0  0  0  0  0  0
    8.9363  -13.1729   19.9557 C   0  0  0  0  0  0  0  0  0  0  0  0
    7.8629  -14.2213   20.3002 C   0  0  2  0  0  0  0  0  0  0  0  0
    6.5161  -13.6762   19.9103 C   0  0  0  0  0  0  0  0  0  0  0  0
    7.9623  -14.4913   21.7754 C   0  0  0  0  0  0  0  0  0  0  0  0
    9.1108  -15.3181   22.1710 C   0  0  2  0  0  0  0  0  0  0  0  0
    9.4508  -16.4456   21.3809 N   0  0  0  0  0  0  0  0  0  0  0  0
    9.0061  -15.7031   23.6122 C   0  0  0  0  0  0  0  0  0  0  0  0
    8.2236  -16.6597   23.9193 O   0  0  0  0  0  0  0  0  0  0  0  0
    9.7421  -15.0412   24.6112 N   0  0  0  0  0  0  0  0  0  0  0  0
    9.5533  -15.4410   26.0042 C   0  0  1  0  0  0  0  0  0  0  0  0
    8.0967  -15.4570   26.3624 C   0  0  0  0  0  0  0  0  0  0  0  0
    7.5406  -14.1118   26.3994 C   0  0  0  0  0  0  0  0  0  0  0  0
    6.3018  -13.8707   25.7902 C   0  0  0  0  0  0  0  0  0  0  0  0
    5.7259  -12.6194   25.8184 C   0  0  0  0  0  0  0  0  0  0  0  0
    6.3462  -11.5656   26.4444 C   0  0  0  0  0  0  0  0  0  0  0  0
    7.5836  -11.7786   27.0608 C   0  0  0  0  0  0  0  0  0  0  0  0
    8.1583  -13.0311   27.0319 C   0  0  0  0  0  0  0  0  0  0  0  0
   10.1238  -16.8014   26.1387 C   0  0  0  0  0  0  0  0  0  0  0  0
   10.6379  -17.5252   25.0679 O   0  0  0  0  0  0  0  0  0  0  0  0
   10.1682  -17.3806   27.2591 O   0  0  0  0  0  0  0  0  0  0  0  0
  2  1  1  6
  2  3  1  0
  3  4  1  0
  4  5  1  0
  5  6  2  0
  5  9  1  0
  7  2  1  0
  8  7  2  0
 11 10  1  1
 11 13  1  0
 12 11  1  0
 14 13  1  6
 14 15  1  0
 15  7  1  0
 16 14  1  0
 16 17  2  0
 18 16  1  0
 19 18  1  0
 20 21  1  0
 19 20  1  6
 21 26  2  0
 22 21  1  0
 22 23  2  0
 23 24  1  0
 24 25  2  0
 26 25  1  0
 27 19  1  0
 28 27  1  0
 29 27  2  0
M  END
$$$$
