ELF.pdb
     RDKit          3D

 29 29  0  0  1  0  0  0  0  0999 V2000
   12.2770  -17.0547   18.3849 N   0  0  0  0  0  0  0  0  0  0  0  0
   11.2869  -17.7401   19.2161 C   0  0  1  0  0  0  0  0  0  0  0  0
   11.6275  -19.1723   19.4069 C   0  0  0  0  0  0  0  0  0  0  0  0
   12.9409  -19.5374   18.7720 C   0  0  0  0  0  0  0  0  0  0  0  0
   12.9011  -20.9575   18.2810 C   0  0  0  0  0  0  0  0  0  0  0  0
   13.6899  -21.7838   18.7927 O   0  0  0  0  0  0  0  0  0  0  0  0
   11.0772  -16.9437   20.4295 C   0  0  0  0  0  0  0  0  0  0  0  0
   12.0314  -16.4897   21.1150 O   0  0  0  0  0  0  0  0  0  0  0  0
   12.0388  -21.3855   17.2976 O   0  0  0  0  0  0  0  0  0  0  0  0
    8.6807  -13.1259   21.1063 C   0  0  0  0  0  0  0  0  0  0  0  0
    7.7660  -14.3627   21.0458 C   0  0  2  0  0  0  0  0  0  0  0  0
    6.3346  -13.9057   21.1166 C   0  0  0  0  0  0  0  0  0  0  0  0
    8.1386  -15.2481   22.2017 C   0  0  0  0  0  0  0  0  0  0  0  0
    9.4522  -15.8951   22.0795 C   0  0  2  0  0  0  0  0  0  0  0  0
    9.7474  -16.6354   20.9064 N   0  0  0  0  0  0  0  0  0  0  0  0
    9.7499  -16.7084   23.2986 C   0  0  0  0  0  0  0  0  0  0  0  0
    9.6305  -17.9736   23.2161 O   0  0  0  0  0  0  0  0  0  0  0  0
   10.1515  -16.1119   24.5071 N   0  0  0  0  0  0  0  0  0  0  0  0
   10.5088  -16.9743   25.6316 C   0  0  1  0  0  0  0  0  0  0  0  0
   11.1907  -16.1881   26.7119 C   0  0  0  0  0  0  0  0  0  0  0  0
   10.3840  -15.0527   27.1370 C   0  0  0  0  0  0  0  0  0  0  0  0
    8.9928  -15.1993   27.2190 C   0  0  0  0  0  0  0  0  0  0  0  0
    8.1906  -14.1600   27.6369 C   0  0  0  0  0  0  0  0  0  0  0  0
    8.7271  -12.9449   27.9873 C   0  0  0  0  0  0  0  0  0  0  0  0
   10.1131  -12.7714   27.9150 C   0  0  0  0  0  0  0  0  0  0  0  0
   10.9143  -13.8122   27.4969 C   0  0  0  0  0  0  0  0  0  0  0  0
    9.2448  -17.5515   26.1451 C   0  0  0  0  0  0  0  0  0  0  0  0
    9.1959  -18.5345   27.1279 O   0  0  0  0  0  0  0  0  0  0  0  0
    8.1272  -17.1690   25.7011 O   0  0  0  0  0  0  0  0  0  0  0  0
  2  1  1  1
  2  3  1  0
  3  4  1  0
  4  5  1  0
  5  6  2  0
  5  9  1  0
  7  2  1  0
  8  7  2  0
 11 10  1  1
 11 13  1  0
 12 11  1  0
 14 13  1  6
 14 15  1  0
 15  7  1  0
 16 14  1  0
 16 17  2  0
 18 16  1  0
 19 18  1  0
 20 21  1  0
 19 20  1  1
 21 26  2  0
 22 21  1  0
 22 23  2  0
 23 24  1  0
 24 25  2  0
 26 25  1  0
 27 19  1  0
 28 27  1  0
 29 27  2  0
M  END
$$$$
