NWF.pdb
     RDKit          3D

 34 36  0  0  1  0  0  0  0  0999 V2000
   29.5017  -18.2251  -16.8936 N   0  0  0  0  0  0  0  0  0  0  0  0
   28.3467  -17.4015  -16.7613 C   0  0  0  0  0  0  0  0  0  0  0  0
   28.2114  -16.4477  -17.5640 O   0  0  0  0  0  0  0  0  0  0  0  0
   27.3151  -17.6296  -15.7236 C   0  0  0  0  0  0  0  0  0  0  0  0
   27.7236  -18.7728  -14.8654 C   0  0  2  0  0  0  0  0  0  0  0  0
   27.9090  -19.9452  -15.6609 N   0  0  0  0  0  0  0  0  0  0  0  0
   26.8595  -18.9842  -13.6883 C   0  0  0  0  0  0  0  0  0  0  0  0
   26.4642  -17.9680  -13.0506 O   0  0  0  0  0  0  0  0  0  0  0  0
   26.4365  -20.2409  -13.2140 N   0  0  0  0  0  0  0  0  0  0  0  0
   25.4418  -20.4199  -12.1685 C   0  0  1  0  0  0  0  0  0  0  0  0
   24.2443  -21.1536  -12.6255 C   0  0  0  0  0  0  0  0  0  0  0  0
   23.4497  -20.5236  -13.6961 C   0  0  0  0  0  0  0  0  0  0  0  0
   23.7467  -20.6893  -15.0739 C   0  0  0  0  0  0  0  0  0  0  0  0
   22.8287  -20.0441  -15.7975 N   0  0  0  0  0  0  0  0  0  0  0  0
   21.9279  -19.4497  -15.0049 C   0  0  0  0  0  0  0  0  0  0  0  0
   20.8098  -18.6685  -15.2606 C   0  0  0  0  0  0  0  0  0  0  0  0
   20.0908  -18.1917  -14.1896 C   0  0  0  0  0  0  0  0  0  0  0  0
   20.4616  -18.4751  -12.9022 C   0  0  0  0  0  0  0  0  0  0  0  0
   21.5714  -19.2512  -12.6402 C   0  0  0  0  0  0  0  0  0  0  0  0
   22.3180  -19.7497  -13.6917 C   0  0  0  0  0  0  0  0  0  0  0  0
   26.0490  -21.0056  -10.9752 C   0  0  0  0  0  0  0  0  0  0  0  0
   27.0537  -21.7528  -11.0822 O   0  0  0  0  0  0  0  0  0  0  0  0
   25.5356  -20.7570   -9.6727 N   0  0  0  0  0  0  0  0  0  0  0  0
   26.1672  -21.4121   -8.5381 C   0  0  1  0  0  0  0  0  0  0  0  0
   27.5573  -20.8397   -8.4036 C   0  0  0  0  0  0  0  0  0  0  0  0
   27.7740  -20.0742   -7.1576 C   0  0  0  0  0  0  0  0  0  0  0  0
   28.3651  -20.6239   -6.0418 C   0  0  0  0  0  0  0  0  0  0  0  0
   28.5725  -19.9115   -4.8866 C   0  0  0  0  0  0  0  0  0  0  0  0
   28.1747  -18.5881   -4.8324 C   0  0  0  0  0  0  0  0  0  0  0  0
   27.5815  -18.0387   -5.9534 C   0  0  0  0  0  0  0  0  0  0  0  0
   27.3704  -18.7485   -7.1169 C   0  0  0  0  0  0  0  0  0  0  0  0
   25.4056  -21.1743   -7.2884 C   0  0  0  0  0  0  0  0  0  0  0  0
   25.7118  -21.7532   -6.0708 O   0  0  0  0  0  0  0  0  0  0  0  0
   24.4180  -20.3985   -7.3379 O   0  0  0  0  0  0  0  0  0  0  0  0
  2  1  1  0
  2  3  2  0
  4  2  1  0
  5  7  1  0
  5  4  1  0
  5  6  1  6
  7  8  2  0
  9 10  1  0
  9  7  1  0
 10 11  1  6
 11 12  1  0
 12 20  1  0
 13 14  1  0
 13 12  2  0
 14 15  1  0
 15 20  2  0
 15 16  1  0
 16 17  2  0
 17 18  1  0
 19 18  2  0
 20 19  1  0
 21 10  1  0
 22 21  2  0
 23 21  1  0
 24 25  1  1
 24 23  1  0
 25 26  1  0
 26 27  2  0
 27 28  1  0
 29 28  2  0
 30 29  1  0
 31 26  1  0
 31 30  2  0
 32 24  1  0
 32 33  1  0
 34 32  2  0
M  END
$$$$
