NWF.pdb
     RDKit          3D

 34 36  0  0  1  0  0  0  0  0999 V2000
   21.5918  -16.4271  -16.9552 N   0  0  0  0  0  0  0  0  0  0  0  0
   21.3421  -17.7288  -16.4327 C   0  0  0  0  0  0  0  0  0  0  0  0
   20.1865  -18.1994  -16.5581 O   0  0  0  0  0  0  0  0  0  0  0  0
   22.3849  -18.5338  -15.7562 C   0  0  0  0  0  0  0  0  0  0  0  0
   23.5786  -18.6339  -16.6368 C   0  0  2  0  0  0  0  0  0  0  0  0
   23.2027  -19.1300  -17.9229 N   0  0  0  0  0  0  0  0  0  0  0  0
   24.7170  -19.3522  -16.0326 C   0  0  0  0  0  0  0  0  0  0  0  0
   24.7342  -20.6128  -16.1112 O   0  0  0  0  0  0  0  0  0  0  0  0
   25.7965  -18.7385  -15.3681 N   0  0  0  0  0  0  0  0  0  0  0  0
   26.8831  -19.4714  -14.7382 C   0  0  1  0  0  0  0  0  0  0  0  0
   28.2097  -19.1329  -15.2918 C   0  0  0  0  0  0  0  0  0  0  0  0
   28.5248  -19.6657  -16.6302 C   0  0  0  0  0  0  0  0  0  0  0  0
   28.4703  -18.8733  -17.8063 C   0  0  0  0  0  0  0  0  0  0  0  0
   28.8537  -19.6145  -18.8485 N   0  0  0  0  0  0  0  0  0  0  0  0
   29.1644  -20.8581  -18.4608 C   0  0  0  0  0  0  0  0  0  0  0  0
   29.5972  -21.9842  -19.1468 C   0  0  0  0  0  0  0  0  0  0  0  0
   29.8177  -23.1372  -18.4303 C   0  0  0  0  0  0  0  0  0  0  0  0
   29.6176  -23.1817  -17.0764 C   0  0  0  0  0  0  0  0  0  0  0  0
   29.1879  -22.0664  -16.3878 C   0  0  0  0  0  0  0  0  0  0  0  0
   28.9574  -20.8885  -17.0742 C   0  0  0  0  0  0  0  0  0  0  0  0
   26.8200  -19.3366  -13.2845 C   0  0  0  0  0  0  0  0  0  0  0  0
   26.9055  -18.2008  -12.7533 O   0  0  0  0  0  0  0  0  0  0  0  0
   26.6629  -20.4639  -12.4322 N   0  0  0  0  0  0  0  0  0  0  0  0
   26.5716  -20.2451  -10.9972 C   0  0  1  0  0  0  0  0  0  0  0  0
   25.3529  -19.3902  -10.7482 C   0  0  0  0  0  0  0  0  0  0  0  0
   24.0746  -20.0552  -11.0788 C   0  0  0  0  0  0  0  0  0  0  0  0
   23.3338  -20.7459  -10.1456 C   0  0  0  0  0  0  0  0  0  0  0  0
   22.1435  -21.3582  -10.4506 C   0  0  0  0  0  0  0  0  0  0  0  0
   21.6614  -21.2836  -11.7448 C   0  0  0  0  0  0  0  0  0  0  0  0
   22.4067  -20.5900  -12.6796 C   0  0  0  0  0  0  0  0  0  0  0  0
   23.6030  -19.9727  -12.3798 C   0  0  0  0  0  0  0  0  0  0  0  0
   26.4403  -21.5279  -10.2655 C   0  0  0  0  0  0  0  0  0  0  0  0
   26.3488  -21.6311   -8.8899 O   0  0  0  0  0  0  0  0  0  0  0  0
   26.4116  -22.5899  -10.9372 O   0  0  0  0  0  0  0  0  0  0  0  0
  2  1  1  0
  2  3  2  0
  4  2  1  0
  5  7  1  0
  5  4  1  0
  5  6  1  6
  7  8  2  0
  9 10  1  0
  9  7  1  0
 10 11  1  6
 11 12  1  0
 12 20  1  0
 13 14  1  0
 13 12  2  0
 14 15  1  0
 15 20  2  0
 15 16  1  0
 16 17  2  0
 17 18  1  0
 19 18  2  0
 20 19  1  0
 21 10  1  0
 22 21  2  0
 23 21  1  0
 24 25  1  6
 24 23  1  0
 25 26  1  0
 26 27  2  0
 27 28  1  0
 29 28  2  0
 30 29  1  0
 31 26  1  0
 31 30  2  0
 32 24  1  0
 32 33  1  0
 34 32  2  0
M  END
$$$$
