NWF.pdb
     RDKit          3D

 34 36  0  0  1  0  0  0  0  0999 V2000
   28.9738  -18.5954  -15.2109 N   0  0  0  0  0  0  0  0  0  0  0  0
   28.0952  -19.6140  -15.6804 C   0  0  0  0  0  0  0  0  0  0  0  0
   27.8014  -19.6191  -16.8994 O   0  0  0  0  0  0  0  0  0  0  0  0
   27.5251  -20.6521  -14.7913 C   0  0  0  0  0  0  0  0  0  0  0  0
   27.9732  -20.4057  -13.3953 C   0  0  2  0  0  0  0  0  0  0  0  0
   29.3039  -20.8922  -13.2112 N   0  0  0  0  0  0  0  0  0  0  0  0
   27.0237  -20.8683  -12.3651 C   0  0  0  0  0  0  0  0  0  0  0  0
   26.3555  -21.9145  -12.5989 O   0  0  0  0  0  0  0  0  0  0  0  0
   26.8002  -20.2301  -11.1297 N   0  0  0  0  0  0  0  0  0  0  0  0
   25.8002  -20.6587  -10.1650 C   0  0  1  0  0  0  0  0  0  0  0  0
   26.0402  -20.1316   -8.8065 C   0  0  0  0  0  0  0  0  0  0  0  0
   27.3469  -20.4407   -8.1971 C   0  0  0  0  0  0  0  0  0  0  0  0
   28.4312  -20.9827   -8.9351 C   0  0  0  0  0  0  0  0  0  0  0  0
   29.4879  -21.1063   -8.1284 N   0  0  0  0  0  0  0  0  0  0  0  0
   29.1952  -20.6860   -6.8912 C   0  0  0  0  0  0  0  0  0  0  0  0
   29.9286  -20.6192   -5.7149 C   0  0  0  0  0  0  0  0  0  0  0  0
   29.3069  -20.1353   -4.5876 C   0  0  0  0  0  0  0  0  0  0  0  0
   27.9996  -19.7288   -4.6163 C   0  0  0  0  0  0  0  0  0  0  0  0
   27.2645  -19.7919   -5.7817 C   0  0  0  0  0  0  0  0  0  0  0  0
   27.8564  -20.2712   -6.9357 C   0  0  0  0  0  0  0  0  0  0  0  0
   24.4543  -20.3741  -10.6581 C   0  0  0  0  0  0  0  0  0  0  0  0
   24.0184  -19.1953  -10.6537 O   0  0  0  0  0  0  0  0  0  0  0  0
   23.6030  -21.4005  -11.1518 N   0  0  0  0  0  0  0  0  0  0  0  0
   22.2679  -21.0413  -11.6032 C   0  0  1  0  0  0  0  0  0  0  0  0
   22.2127  -21.2905  -13.0908 C   0  0  0  0  0  0  0  0  0  0  0  0
   22.6588  -20.1431  -13.9093 C   0  0  0  0  0  0  0  0  0  0  0  0
   21.9892  -18.9397  -13.9282 C   0  0  0  0  0  0  0  0  0  0  0  0
   22.4067  -17.8717  -14.6832 C   0  0  0  0  0  0  0  0  0  0  0  0
   23.5442  -18.0007  -15.4591 C   0  0  0  0  0  0  0  0  0  0  0  0
   24.2143  -19.2094  -15.4387 C   0  0  0  0  0  0  0  0  0  0  0  0
   23.8005  -20.2860  -14.6825 C   0  0  0  0  0  0  0  0  0  0  0  0
   21.2332  -21.8554  -10.9213 C   0  0  0  0  0  0  0  0  0  0  0  0
   19.8755  -21.6050  -10.9946 O   0  0  0  0  0  0  0  0  0  0  0  0
   21.6132  -22.8349  -10.2315 O   0  0  0  0  0  0  0  0  0  0  0  0
  2  1  1  0
  2  3  2  0
  4  2  1  0
  5  7  1  0
  5  4  1  0
  5  6  1  1
  7  8  2  0
  9 10  1  0
  9  7  1  0
 10 11  1  1
 11 12  1  0
 12 20  1  0
 13 14  1  0
 13 12  2  0
 14 15  1  0
 15 20  2  0
 15 16  1  0
 16 17  2  0
 17 18  1  0
 19 18  2  0
 20 19  1  0
 21 10  1  0
 22 21  2  0
 23 21  1  0
 24 25  1  6
 24 23  1  0
 25 26  1  0
 26 27  2  0
 27 28  1  0
 29 28  2  0
 30 29  1  0
 31 26  1  0
 31 30  2  0
 32 24  1  0
 32 33  1  0
 34 32  2  0
M  END
$$$$
