NWF.pdb
     RDKit          3D

 34 36  0  0  1  0  0  0  0  0999 V2000
   29.5852  -23.7804  -18.4624 N   0  0  0  0  0  0  0  0  0  0  0  0
   30.5083  -22.8444  -17.9131 C   0  0  0  0  0  0  0  0  0  0  0  0
   31.7324  -23.0881  -18.0337 O   0  0  0  0  0  0  0  0  0  0  0  0
   30.0783  -21.6113  -17.2148 C   0  0  0  0  0  0  0  0  0  0  0  0
   28.5930  -21.5606  -17.1737 C   0  0  2  0  0  0  0  0  0  0  0  0
   28.0778  -21.1590  -18.4445 N   0  0  0  0  0  0  0  0  0  0  0  0
   28.0455  -20.7905  -16.0405 C   0  0  0  0  0  0  0  0  0  0  0  0
   28.5928  -19.6898  -15.7497 O   0  0  0  0  0  0  0  0  0  0  0  0
   26.9509  -21.1888  -15.2489 N   0  0  0  0  0  0  0  0  0  0  0  0
   26.3779  -20.3744  -14.1892 C   0  0  1  0  0  0  0  0  0  0  0  0
   25.1442  -19.6732  -14.5982 C   0  0  0  0  0  0  0  0  0  0  0  0
   25.2768  -18.6701  -15.6709 C   0  0  0  0  0  0  0  0  0  0  0  0
   24.6851  -18.8295  -16.9510 C   0  0  0  0  0  0  0  0  0  0  0  0
   24.9365  -17.7428  -17.6849 N   0  0  0  0  0  0  0  0  0  0  0  0
   25.6602  -16.8554  -16.9907 C   0  0  0  0  0  0  0  0  0  0  0  0
   26.1757  -15.6044  -17.2996 C   0  0  0  0  0  0  0  0  0  0  0  0
   26.9053  -14.9462  -16.3374 C   0  0  0  0  0  0  0  0  0  0  0  0
   27.1223  -15.5030  -15.1053 C   0  0  0  0  0  0  0  0  0  0  0  0
   26.6128  -16.7457  -14.7910 C   0  0  0  0  0  0  0  0  0  0  0  0
   25.8728  -17.4369  -15.7324 C   0  0  0  0  0  0  0  0  0  0  0  0
   26.2094  -21.1613  -12.9694 C   0  0  0  0  0  0  0  0  0  0  0  0
   26.5193  -22.3792  -12.9580 O   0  0  0  0  0  0  0  0  0  0  0  0
   25.6978  -20.5897  -11.7721 N   0  0  0  0  0  0  0  0  0  0  0  0
   25.5382  -21.4433  -10.6054 C   0  0  1  0  0  0  0  0  0  0  0  0
   26.9129  -21.9199  -10.2040 C   0  0  0  0  0  0  0  0  0  0  0  0
   27.5044  -21.1679   -9.0770 C   0  0  0  0  0  0  0  0  0  0  0  0
   26.7554  -20.3647   -8.2460 C   0  0  0  0  0  0  0  0  0  0  0  0
   27.3030  -19.6712   -7.1952 C   0  0  0  0  0  0  0  0  0  0  0  0
   28.6607  -19.7775   -6.9544 C   0  0  0  0  0  0  0  0  0  0  0  0
   29.4104  -20.5840   -7.7899 C   0  0  0  0  0  0  0  0  0  0  0  0
   28.8666  -21.2833   -8.8469 C   0  0  0  0  0  0  0  0  0  0  0  0
   24.9171  -20.7043   -9.4801 C   0  0  0  0  0  0  0  0  0  0  0  0
   24.4439  -21.3013   -8.3264 O   0  0  0  0  0  0  0  0  0  0  0  0
   24.8124  -19.4558   -9.5806 O   0  0  0  0  0  0  0  0  0  0  0  0
  2  1  1  0
  2  3  2  0
  4  2  1  0
  5  7  1  0
  5  4  1  0
  5  6  1  6
  7  8  2  0
  9 10  1  0
  9  7  1  0
 10 11  1  6
 11 12  1  0
 12 20  1  0
 13 14  1  0
 13 12  2  0
 14 15  1  0
 15 20  2  0
 15 16  1  0
 16 17  2  0
 17 18  1  0
 19 18  2  0
 20 19  1  0
 21 10  1  0
 22 21  2  0
 23 21  1  0
 24 25  1  1
 24 23  1  0
 25 26  1  0
 26 27  2  0
 27 28  1  0
 29 28  2  0
 30 29  1  0
 31 26  1  0
 31 30  2  0
 32 24  1  0
 32 33  1  0
 34 32  2  0
M  END
$$$$
