NWF.pdb
     RDKit          3D

 34 36  0  0  1  0  0  0  0  0999 V2000
   29.0256  -23.9312  -18.7343 N   0  0  0  0  0  0  0  0  0  0  0  0
   29.7742  -22.7235  -18.6297 C   0  0  0  0  0  0  0  0  0  0  0  0
   30.7841  -22.5941  -19.3617 O   0  0  0  0  0  0  0  0  0  0  0  0
   29.4061  -21.6312  -17.6999 C   0  0  0  0  0  0  0  0  0  0  0  0
   28.1933  -22.0232  -16.9345 C   0  0  2  0  0  0  0  0  0  0  0  0
   27.0179  -21.7530  -17.7007 N   0  0  0  0  0  0  0  0  0  0  0  0
   28.1444  -21.4845  -15.5618 C   0  0  0  0  0  0  0  0  0  0  0  0
   29.0328  -21.8570  -14.7448 O   0  0  0  0  0  0  0  0  0  0  0  0
   27.1764  -20.5796  -15.0848 N   0  0  0  0  0  0  0  0  0  0  0  0
   27.2338  -19.9458  -13.7773 C   0  0  1  0  0  0  0  0  0  0  0  0
   26.8933  -18.5092  -13.8128 C   0  0  0  0  0  0  0  0  0  0  0  0
   26.5837  -17.9341  -15.1349 C   0  0  0  0  0  0  0  0  0  0  0  0
   25.2609  -17.6358  -15.5537 C   0  0  0  0  0  0  0  0  0  0  0  0
   25.3032  -17.0838  -16.7686 N   0  0  0  0  0  0  0  0  0  0  0  0
   26.5655  -16.9873  -17.2050 C   0  0  0  0  0  0  0  0  0  0  0  0
   27.1281  -16.5069  -18.3792 C   0  0  0  0  0  0  0  0  0  0  0  0
   28.4950  -16.5678  -18.5177 C   0  0  0  0  0  0  0  0  0  0  0  0
   29.2870  -17.0873  -17.5288 C   0  0  0  0  0  0  0  0  0  0  0  0
   28.7351  -17.5663  -16.3589 C   0  0  0  0  0  0  0  0  0  0  0  0
   27.3645  -17.5201  -16.1830 C   0  0  0  0  0  0  0  0  0  0  0  0
   26.4406  -20.6964  -12.8063 C   0  0  0  0  0  0  0  0  0  0  0  0
   25.5404  -21.4801  -13.1999 O   0  0  0  0  0  0  0  0  0  0  0  0
   26.6532  -20.5708  -11.4060 N   0  0  0  0  0  0  0  0  0  0  0  0
   25.7388  -21.2466  -10.4990 C   0  0  1  0  0  0  0  0  0  0  0  0
   26.5754  -21.9928   -9.4884 C   0  0  0  0  0  0  0  0  0  0  0  0
   27.3485  -21.1160   -8.5835 C   0  0  0  0  0  0  0  0  0  0  0  0
   26.7557  -20.1532   -7.7971 C   0  0  0  0  0  0  0  0  0  0  0  0
   27.4725  -19.3429   -6.9516 C   0  0  0  0  0  0  0  0  0  0  0  0
   28.8455  -19.4926   -6.8807 C   0  0  0  0  0  0  0  0  0  0  0  0
   29.4382  -20.4593   -7.6710 C   0  0  0  0  0  0  0  0  0  0  0  0
   28.7241  -21.2765   -8.5222 C   0  0  0  0  0  0  0  0  0  0  0  0
   24.8595  -20.2774   -9.8019 C   0  0  0  0  0  0  0  0  0  0  0  0
   23.7710  -20.6341   -9.0279 O   0  0  0  0  0  0  0  0  0  0  0  0
   25.1184  -19.0533   -9.9226 O   0  0  0  0  0  0  0  0  0  0  0  0
  2  1  1  0
  2  3  2  0
  4  2  1  0
  5  7  1  0
  5  4  1  0
  5  6  1  6
  7  8  2  0
  9 10  1  0
  9  7  1  0
 10 11  1  6
 11 12  1  0
 12 20  1  0
 13 14  1  0
 13 12  2  0
 14 15  1  0
 15 20  2  0
 15 16  1  0
 16 17  2  0
 17 18  1  0
 19 18  2  0
 20 19  1  0
 21 10  1  0
 22 21  2  0
 23 21  1  0
 24 25  1  1
 24 23  1  0
 25 26  1  0
 26 27  2  0
 27 28  1  0
 29 28  2  0
 30 29  1  0
 31 26  1  0
 31 30  2  0
 32 24  1  0
 32 33  1  0
 34 32  2  0
M  END
$$$$
