NWF.pdb
     RDKit          3D

 34 36  0  0  1  0  0  0  0  0999 V2000
   29.7631  -19.0510  -16.5130 N   0  0  0  0  0  0  0  0  0  0  0  0
   28.4426  -19.5133  -16.7821 C   0  0  0  0  0  0  0  0  0  0  0  0
   28.0565  -19.5236  -17.9751 O   0  0  0  0  0  0  0  0  0  0  0  0
   27.5234  -19.9755  -15.7170 C   0  0  0  0  0  0  0  0  0  0  0  0
   28.1592  -21.0907  -14.9669 C   0  0  2  0  0  0  0  0  0  0  0  0
   28.2831  -22.2413  -15.8049 N   0  0  0  0  0  0  0  0  0  0  0  0
   27.5363  -21.3723  -13.6594 C   0  0  0  0  0  0  0  0  0  0  0  0
   26.4996  -22.0937  -13.6376 O   0  0  0  0  0  0  0  0  0  0  0  0
   28.0097  -20.8960  -12.4215 N   0  0  0  0  0  0  0  0  0  0  0  0
   27.2527  -20.9682  -11.1820 C   0  0  1  0  0  0  0  0  0  0  0  0
   28.0102  -20.4853  -10.0099 C   0  0  0  0  0  0  0  0  0  0  0  0
   27.2767  -20.4078   -8.7330 C   0  0  0  0  0  0  0  0  0  0  0  0
   25.8627  -20.4969   -8.6512 C   0  0  0  0  0  0  0  0  0  0  0  0
   25.4969  -20.4440   -7.3682 N   0  0  0  0  0  0  0  0  0  0  0  0
   26.5666  -20.3239   -6.5718 C   0  0  0  0  0  0  0  0  0  0  0  0
   26.7169  -20.2212   -5.1960 C   0  0  0  0  0  0  0  0  0  0  0  0
   27.9888  -20.0935   -4.6885 C   0  0  0  0  0  0  0  0  0  0  0  0
   29.0828  -20.0671   -5.5116 C   0  0  0  0  0  0  0  0  0  0  0  0
   28.9413  -20.1691   -6.8799 C   0  0  0  0  0  0  0  0  0  0  0  0
   27.6782  -20.3005   -7.4265 C   0  0  0  0  0  0  0  0  0  0  0  0
   25.9552  -20.3128  -11.3325 C   0  0  0  0  0  0  0  0  0  0  0  0
   25.8932  -19.1247  -11.7373 O   0  0  0  0  0  0  0  0  0  0  0  0
   24.7370  -20.9819  -11.0322 N   0  0  0  0  0  0  0  0  0  0  0  0
   23.4918  -20.4190  -11.5302 C   0  0  1  0  0  0  0  0  0  0  0  0
   23.5443  -20.4718  -13.0377 C   0  0  0  0  0  0  0  0  0  0  0  0
   23.5279  -19.1435  -13.6865 C   0  0  0  0  0  0  0  0  0  0  0  0
   24.6777  -18.4931  -14.0757 C   0  0  0  0  0  0  0  0  0  0  0  0
   24.6627  -17.2624  -14.6841 C   0  0  0  0  0  0  0  0  0  0  0  0
   23.4485  -16.6435  -14.9192 C   0  0  0  0  0  0  0  0  0  0  0  0
   22.2959  -17.2981  -14.5275 C   0  0  0  0  0  0  0  0  0  0  0  0
   22.3039  -18.5344  -13.9161 C   0  0  0  0  0  0  0  0  0  0  0  0
   22.3218  -21.1887  -11.0435 C   0  0  0  0  0  0  0  0  0  0  0  0
   22.4109  -22.3861  -10.3583 O   0  0  0  0  0  0  0  0  0  0  0  0
   21.1755  -20.7249  -11.2686 O   0  0  0  0  0  0  0  0  0  0  0  0
  2  1  1  0
  2  3  2  0
  4  2  1  0
  5  7  1  0
  5  4  1  0
  5  6  1  6
  7  8  2  0
  9 10  1  0
  9  7  1  0
 10 11  1  1
 11 12  1  0
 12 20  1  0
 13 14  1  0
 13 12  2  0
 14 15  1  0
 15 20  2  0
 15 16  1  0
 16 17  2  0
 17 18  1  0
 19 18  2  0
 20 19  1  0
 21 10  1  0
 22 21  2  0
 23 21  1  0
 24 25  1  6
 24 23  1  0
 25 26  1  0
 26 27  2  0
 27 28  1  0
 29 28  2  0
 30 29  1  0
 31 26  1  0
 31 30  2  0
 32 24  1  0
 32 33  1  0
 34 32  2  0
M  END
$$$$
