NWF.pdb
     RDKit          3D

 34 36  0  0  1  0  0  0  0  0999 V2000
   27.5841  -20.2610  -18.1102 N   0  0  0  0  0  0  0  0  0  0  0  0
   28.3461  -21.4133  -17.7621 C   0  0  0  0  0  0  0  0  0  0  0  0
   29.0284  -21.9590  -18.6615 O   0  0  0  0  0  0  0  0  0  0  0  0
   28.3601  -21.9809  -16.3943 C   0  0  0  0  0  0  0  0  0  0  0  0
   27.4654  -21.1788  -15.5187 C   0  0  2  0  0  0  0  0  0  0  0  0
   27.8688  -19.8081  -15.5247 N   0  0  0  0  0  0  0  0  0  0  0  0
   27.2832  -21.7385  -14.1657 C   0  0  0  0  0  0  0  0  0  0  0  0
   28.3083  -22.1345  -13.5429 O   0  0  0  0  0  0  0  0  0  0  0  0
   26.0452  -21.8682  -13.5069 N   0  0  0  0  0  0  0  0  0  0  0  0
   25.8373  -21.5527  -12.1027 C   0  0  1  0  0  0  0  0  0  0  0  0
   26.9350  -20.7568  -11.5174 C   0  0  0  0  0  0  0  0  0  0  0  0
   26.7978  -20.3821  -10.0979 C   0  0  0  0  0  0  0  0  0  0  0  0
   25.5888  -19.8833   -9.5470 C   0  0  0  0  0  0  0  0  0  0  0  0
   25.7576  -19.6818   -8.2379 N   0  0  0  0  0  0  0  0  0  0  0  0
   27.0003  -20.0091   -7.8613 C   0  0  0  0  0  0  0  0  0  0  0  0
   27.6610  -19.9736   -6.6414 C   0  0  0  0  0  0  0  0  0  0  0  0
   28.9750  -20.3776   -6.6016 C   0  0  0  0  0  0  0  0  0  0  0  0
   29.6217  -20.8043   -7.7307 C   0  0  0  0  0  0  0  0  0  0  0  0
   28.9714  -20.8427   -8.9466 C   0  0  0  0  0  0  0  0  0  0  0  0
   27.6494  -20.4458   -9.0252 C   0  0  0  0  0  0  0  0  0  0  0  0
   24.5227  -20.9473  -11.9005 C   0  0  0  0  0  0  0  0  0  0  0  0
   24.4189  -19.7043  -11.7470 O   0  0  0  0  0  0  0  0  0  0  0  0
   23.3339  -21.7269  -11.8701 N   0  0  0  0  0  0  0  0  0  0  0  0
   22.2042  -21.3066  -12.6839 C   0  0  1  0  0  0  0  0  0  0  0  0
   22.6787  -21.2425  -14.1153 C   0  0  0  0  0  0  0  0  0  0  0  0
   22.8065  -19.8683  -14.6451 C   0  0  0  0  0  0  0  0  0  0  0  0
   22.1620  -18.7911  -14.0783 C   0  0  0  0  0  0  0  0  0  0  0  0
   22.2854  -17.5137  -14.5660 C   0  0  0  0  0  0  0  0  0  0  0  0
   23.0869  -17.2904  -15.6707 C   0  0  0  0  0  0  0  0  0  0  0  0
   23.7325  -18.3729  -16.2379 C   0  0  0  0  0  0  0  0  0  0  0  0
   23.6130  -19.6585  -15.7530 C   0  0  0  0  0  0  0  0  0  0  0  0
   21.0770  -22.2635  -12.5735 C   0  0  0  0  0  0  0  0  0  0  0  0
   21.2228  -23.6014  -12.2568 O   0  0  0  0  0  0  0  0  0  0  0  0
   19.9148  -21.8327  -12.7820 O   0  0  0  0  0  0  0  0  0  0  0  0
  2  1  1  0
  2  3  2  0
  4  2  1  0
  5  7  1  0
  5  4  1  0
  5  6  1  1
  7  8  2  0
  9 10  1  0
  9  7  1  0
 10 11  1  6
 11 12  1  0
 12 20  1  0
 13 14  1  0
 13 12  2  0
 14 15  1  0
 15 20  2  0
 15 16  1  0
 16 17  2  0
 17 18  1  0
 19 18  2  0
 20 19  1  0
 21 10  1  0
 22 21  2  0
 23 21  1  0
 24 25  1  6
 24 23  1  0
 25 26  1  0
 26 27  2  0
 27 28  1  0
 29 28  2  0
 30 29  1  0
 31 26  1  0
 31 30  2  0
 32 24  1  0
 32 33  1  0
 34 32  2  0
M  END
$$$$
