NWF.pdb
     RDKit          3D

 34 36  0  0  1  0  0  0  0  0999 V2000
   29.2267  -20.2839  -20.2210 N   0  0  0  0  0  0  0  0  0  0  0  0
   29.8510  -20.7115  -19.0138 C   0  0  0  0  0  0  0  0  0  0  0  0
   30.6607  -21.6668  -19.0788 O   0  0  0  0  0  0  0  0  0  0  0  0
   29.5808  -20.0760  -17.7038 C   0  0  0  0  0  0  0  0  0  0  0  0
   28.4861  -19.0814  -17.8550 C   0  0  2  0  0  0  0  0  0  0  0  0
   28.9799  -17.8958  -18.4812 N   0  0  0  0  0  0  0  0  0  0  0  0
   27.7256  -18.8265  -16.6166 C   0  0  0  0  0  0  0  0  0  0  0  0
   28.3432  -18.3368  -15.6295 O   0  0  0  0  0  0  0  0  0  0  0  0
   26.3526  -19.0887  -16.4453 N   0  0  0  0  0  0  0  0  0  0  0  0
   25.6195  -18.8048  -15.2219 C   0  0  1  0  0  0  0  0  0  0  0  0
   24.5081  -17.8523  -15.4185 C   0  0  0  0  0  0  0  0  0  0  0  0
   24.8770  -16.4557  -15.7146 C   0  0  0  0  0  0  0  0  0  0  0  0
   25.4287  -15.5825  -14.7413 C   0  0  0  0  0  0  0  0  0  0  0  0
   25.7031  -14.4087  -15.3154 N   0  0  0  0  0  0  0  0  0  0  0  0
   25.3744  -14.4242  -16.6134 C   0  0  0  0  0  0  0  0  0  0  0  0
   25.4509  -13.4736  -17.6216 C   0  0  0  0  0  0  0  0  0  0  0  0
   25.0037  -13.8183  -18.8756 C   0  0  0  0  0  0  0  0  0  0  0  0
   24.4946  -15.0636  -19.1310 C   0  0  0  0  0  0  0  0  0  0  0  0
   24.4157  -16.0137  -18.1341 C   0  0  0  0  0  0  0  0  0  0  0  0
   24.8574  -15.7040  -16.8611 C   0  0  0  0  0  0  0  0  0  0  0  0
   25.1998  -20.0455  -14.5738 C   0  0  0  0  0  0  0  0  0  0  0  0
   24.7843  -21.0084  -15.2664 O   0  0  0  0  0  0  0  0  0  0  0  0
   25.2447  -20.2071  -13.1618 N   0  0  0  0  0  0  0  0  0  0  0  0
   24.8102  -21.4724  -12.5912 C   0  0  1  0  0  0  0  0  0  0  0  0
   25.8866  -21.9301  -11.6372 C   0  0  0  0  0  0  0  0  0  0  0  0
   26.0263  -21.0797  -10.4361 C   0  0  0  0  0  0  0  0  0  0  0  0
   26.8823  -20.0020  -10.3848 C   0  0  0  0  0  0  0  0  0  0  0  0
   27.0077  -19.2081   -9.2717 C   0  0  0  0  0  0  0  0  0  0  0  0
   26.2477  -19.4948   -8.1524 C   0  0  0  0  0  0  0  0  0  0  0  0
   25.3895  -20.5769   -8.2062 C   0  0  0  0  0  0  0  0  0  0  0  0
   25.2587  -21.3783   -9.3210 C   0  0  0  0  0  0  0  0  0  0  0  0
   23.5279  -21.3209  -11.8624 C   0  0  0  0  0  0  0  0  0  0  0  0
   22.7101  -22.3760  -11.5027 O   0  0  0  0  0  0  0  0  0  0  0  0
   23.1591  -20.1600  -11.5526 O   0  0  0  0  0  0  0  0  0  0  0  0
  2  1  1  0
  2  3  2  0
  4  2  1  0
  5  7  1  0
  5  4  1  0
  5  6  1  1
  7  8  2  0
  9 10  1  0
  9  7  1  0
 10 11  1  6
 11 12  1  0
 12 20  1  0
 13 14  1  0
 13 12  2  0
 14 15  1  0
 15 20  2  0
 15 16  1  0
 16 17  2  0
 17 18  1  0
 19 18  2  0
 20 19  1  0
 21 10  1  0
 22 21  2  0
 23 21  1  0
 24 25  1  1
 24 23  1  0
 25 26  1  0
 26 27  2  0
 27 28  1  0
 29 28  2  0
 30 29  1  0
 31 26  1  0
 31 30  2  0
 32 24  1  0
 32 33  1  0
 34 32  2  0
M  END
$$$$
