NWF.pdb
     RDKit          3D

 34 36  0  0  1  0  0  0  0  0999 V2000
   29.1102  -20.5866  -18.8759 N   0  0  0  0  0  0  0  0  0  0  0  0
   28.9985  -19.1713  -18.7568 C   0  0  0  0  0  0  0  0  0  0  0  0
   29.9144  -18.4675  -19.2449 O   0  0  0  0  0  0  0  0  0  0  0  0
   27.8546  -18.5119  -18.0861 C   0  0  0  0  0  0  0  0  0  0  0  0
   26.9162  -19.5480  -17.5797 C   0  0  2  0  0  0  0  0  0  0  0  0
   26.4293  -20.3438  -18.6620 N   0  0  0  0  0  0  0  0  0  0  0  0
   25.8521  -19.0231  -16.7027 C   0  0  0  0  0  0  0  0  0  0  0  0
   26.1929  -18.3260  -15.7060 O   0  0  0  0  0  0  0  0  0  0  0  0
   24.4732  -19.2398  -16.8898 N   0  0  0  0  0  0  0  0  0  0  0  0
   23.4359  -18.5704  -16.1214 C   0  0  1  0  0  0  0  0  0  0  0  0
   22.7500  -17.5033  -16.8776 C   0  0  0  0  0  0  0  0  0  0  0  0
   23.5678  -16.3424  -17.2751 C   0  0  0  0  0  0  0  0  0  0  0  0
   23.7860  -15.9828  -18.6305 C   0  0  0  0  0  0  0  0  0  0  0  0
   24.5194  -14.8678  -18.6722 N   0  0  0  0  0  0  0  0  0  0  0  0
   24.8157  -14.4453  -17.4365 C   0  0  0  0  0  0  0  0  0  0  0  0
   25.5437  -13.3674  -16.9528 C   0  0  0  0  0  0  0  0  0  0  0  0
   25.6698  -13.2267  -15.5905 C   0  0  0  0  0  0  0  0  0  0  0  0
   25.0961  -14.1219  -14.7276 C   0  0  0  0  0  0  0  0  0  0  0  0
   24.3707  -15.1954  -15.2010 C   0  0  0  0  0  0  0  0  0  0  0  0
   24.2208  -15.3686  -16.5645 C   0  0  0  0  0  0  0  0  0  0  0  0
   22.5123  -19.5453  -15.5450 C   0  0  0  0  0  0  0  0  0  0  0  0
   22.3907  -20.6822  -16.0667 O   0  0  0  0  0  0  0  0  0  0  0  0
   21.7310  -19.2500  -14.3943 N   0  0  0  0  0  0  0  0  0  0  0  0
   20.7935  -20.2522  -13.9127 C   0  0  1  0  0  0  0  0  0  0  0  0
   21.1878  -20.5949  -12.4966 C   0  0  0  0  0  0  0  0  0  0  0  0
   20.2648  -21.5356  -11.8268 C   0  0  0  0  0  0  0  0  0  0  0  0
   20.2986  -22.8943  -12.0497 C   0  0  0  0  0  0  0  0  0  0  0  0
   19.4460  -23.7691  -11.4230 C   0  0  0  0  0  0  0  0  0  0  0  0
   18.5123  -23.2747  -10.5305 C   0  0  0  0  0  0  0  0  0  0  0  0
   18.4801  -21.9108  -10.3086 C   0  0  0  0  0  0  0  0  0  0  0  0
   19.3337  -21.0267  -10.9346 C   0  0  0  0  0  0  0  0  0  0  0  0
   19.4021  -19.7405  -13.9342 C   0  0  0  0  0  0  0  0  0  0  0  0
   18.2846  -20.5368  -14.1030 O   0  0  0  0  0  0  0  0  0  0  0  0
   19.2260  -18.5042  -13.7913 O   0  0  0  0  0  0  0  0  0  0  0  0
  2  1  1  0
  2  3  2  0
  4  2  1  0
  5  7  1  0
  5  4  1  0
  5  6  1  6
  7  8  2  0
  9 10  1  0
  9  7  1  0
 10 11  1  6
 11 12  1  0
 12 20  1  0
 13 14  1  0
 13 12  2  0
 14 15  1  0
 15 20  2  0
 15 16  1  0
 16 17  2  0
 17 18  1  0
 19 18  2  0
 20 19  1  0
 21 10  1  0
 22 21  2  0
 23 21  1  0
 24 25  1  1
 24 23  1  0
 25 26  1  0
 26 27  2  0
 27 28  1  0
 29 28  2  0
 30 29  1  0
 31 26  1  0
 31 30  2  0
 32 24  1  0
 32 33  1  0
 34 32  2  0
M  END
$$$$
