QGW.pdb
     RDKit          3D

 28 29  0  0  1  0  0  0  0  0999 V2000
    8.4176  -19.7746   16.1430 N   0  0  0  0  0  0  0  0  0  0  0  0
    8.0012  -18.8274   17.1251 C   0  0  0  0  0  0  0  0  0  0  0  0
    6.9079  -18.2231   16.9902 O   0  0  0  0  0  0  0  0  0  0  0  0
    8.8584  -18.5632   18.3005 C   0  0  0  0  0  0  0  0  0  0  0  0
    8.7880  -19.5460   19.4006 C   0  0  0  0  0  0  0  0  0  0  0  0
    8.5845  -19.0280   20.7805 C   0  0  2  0  0  0  0  0  0  0  0  0
    7.2564  -18.9360   21.2524 N   0  0  0  0  0  0  0  0  0  0  0  0
    9.4143  -17.8017   21.0192 C   0  0  0  0  0  0  0  0  0  0  0  0
   10.5858  -17.8252   20.5719 O   0  0  0  0  0  0  0  0  0  0  0  0
    8.9781  -16.6502   21.6970 N   0  0  0  0  0  0  0  0  0  0  0  0
    9.8150  -15.4964   21.9443 C   0  0  0  0  0  0  0  0  0  0  0  0
   10.3640  -15.4953   23.3283 C   0  0  0  0  0  0  0  0  0  0  0  0
   11.3496  -14.7721   23.6221 O   0  0  0  0  0  0  0  0  0  0  0  0
    9.7750  -16.3139   24.3257 N   0  0  0  0  0  0  0  0  0  0  0  0
   10.3565  -16.4737   25.6580 C   0  0  1  0  0  0  0  0  0  0  0  0
    9.7299  -15.4141   26.5141 C   0  0  0  0  0  0  0  0  0  0  0  0
    8.3641  -15.0187   26.2059 C   0  0  0  0  0  0  0  0  0  0  0  0
    7.3876  -15.9349   25.7851 C   0  0  0  0  0  0  0  0  0  0  0  0
    6.2495  -15.2701   25.5453 N   0  0  0  0  0  0  0  0  0  0  0  0
    6.4107  -13.9626   25.7829 C   0  0  0  0  0  0  0  0  0  0  0  0
    5.5502  -12.8733   25.7036 C   0  0  0  0  0  0  0  0  0  0  0  0
    5.9811  -11.6069   26.0335 C   0  0  0  0  0  0  0  0  0  0  0  0
    7.2935  -11.4671   26.4428 C   0  0  0  0  0  0  0  0  0  0  0  0
    8.1568  -12.5354   26.5256 C   0  0  0  0  0  0  0  0  0  0  0  0
    7.7175  -13.8094   26.1912 C   0  0  0  0  0  0  0  0  0  0  0  0
   10.1635  -17.8009   26.2055 C   0  0  0  0  0  0  0  0  0  0  0  0
    9.4043  -18.7224   25.4538 O   0  0  0  0  0  0  0  0  0  0  0  0
   10.6150  -18.1926   27.2877 O   0  0  0  0  0  0  0  0  0  0  0  0
  2  1  1  0
  3  2  2  0
  4  2  1  0
  5  4  1  0
  6  5  1  0
  6  7  1  6
  8  6  1  0
  8  9  2  0
 10  8  1  0
 11 10  1  0
 11 12  1  0
 12 14  1  0
 13 12  2  0
 14 15  1  0
 15 26  1  0
 16 17  1  0
 15 16  1  1
 17 18  2  0
 19 18  1  0
 20 19  1  0
 21 20  2  0
 22 21  1  0
 23 22  2  0
 23 24  1  0
 24 25  2  0
 25 20  1  0
 25 17  1  0
 26 28  2  0
 26 27  1  0
M  END
$$$$
