QGW.pdb
     RDKit          3D

 28 29  0  0  1  0  0  0  0  0999 V2000
    6.6865  -20.1048   18.0249 N   0  0  0  0  0  0  0  0  0  0  0  0
    5.6598  -19.1320   18.2107 C   0  0  0  0  0  0  0  0  0  0  0  0
    4.4583  -19.4422   18.0131 O   0  0  0  0  0  0  0  0  0  0  0  0
    6.0149  -17.7620   18.6386 C   0  0  0  0  0  0  0  0  0  0  0  0
    7.4547  -17.4755   18.8004 C   0  0  0  0  0  0  0  0  0  0  0  0
    8.1172  -17.9389   20.0495 C   0  0  2  0  0  0  0  0  0  0  0  0
    7.2857  -18.3787   21.1032 N   0  0  0  0  0  0  0  0  0  0  0  0
    9.1970  -16.9857   20.4676 C   0  0  0  0  0  0  0  0  0  0  0  0
    9.8004  -16.3873   19.5452 O   0  0  0  0  0  0  0  0  0  0  0  0
    9.5725  -16.7222   21.7962 N   0  0  0  0  0  0  0  0  0  0  0  0
   10.6774  -15.8645   22.1652 C   0  0  0  0  0  0  0  0  0  0  0  0
   10.9781  -15.9423   23.6214 C   0  0  0  0  0  0  0  0  0  0  0  0
   11.9213  -15.2724   24.1137 O   0  0  0  0  0  0  0  0  0  0  0  0
   10.1985  -16.7761   24.4632 N   0  0  0  0  0  0  0  0  0  0  0  0
   10.4161  -16.8620   25.9067 C   0  0  1  0  0  0  0  0  0  0  0  0
   10.0480  -15.5188   26.4625 C   0  0  0  0  0  0  0  0  0  0  0  0
    8.6602  -15.0979   26.3454 C   0  0  0  0  0  0  0  0  0  0  0  0
    7.6453  -15.9546   25.8913 C   0  0  0  0  0  0  0  0  0  0  0  0
    6.4915  -15.2745   25.8589 N   0  0  0  0  0  0  0  0  0  0  0  0
    6.6786  -14.0131   26.2662 C   0  0  0  0  0  0  0  0  0  0  0  0
    5.8178  -12.9330   26.4267 C   0  0  0  0  0  0  0  0  0  0  0  0
    6.2820  -11.7227   26.8933 C   0  0  0  0  0  0  0  0  0  0  0  0
    7.6278  -11.6290   27.1923 C   0  0  0  0  0  0  0  0  0  0  0  0
    8.4918  -12.6887   27.0380 C   0  0  0  0  0  0  0  0  0  0  0  0
    8.0189  -13.9061   26.5666 C   0  0  0  0  0  0  0  0  0  0  0  0
    9.6667  -17.9333   26.5305 C   0  0  0  0  0  0  0  0  0  0  0  0
    8.8294  -18.7191   25.7107 O   0  0  0  0  0  0  0  0  0  0  0  0
    9.7032  -18.2153   27.7336 O   0  0  0  0  0  0  0  0  0  0  0  0
  2  1  1  0
  3  2  2  0
  4  2  1  0
  5  4  1  0
  6  5  1  0
  6  7  1  1
  8  6  1  0
  8  9  2  0
 10  8  1  0
 11 10  1  0
 11 12  1  0
 12 14  1  0
 13 12  2  0
 14 15  1  0
 15 26  1  0
 16 17  1  0
 15 16  1  1
 17 18  2  0
 19 18  1  0
 20 19  1  0
 21 20  2  0
 22 21  1  0
 23 22  2  0
 23 24  1  0
 24 25  2  0
 25 20  1  0
 25 17  1  0
 26 28  2  0
 26 27  1  0
M  END
$$$$
