QGW.pdb
     RDKit          3D

 28 29  0  0  1  0  0  0  0  0999 V2000
    8.1784  -12.3698   17.3693 N   0  0  0  0  0  0  0  0  0  0  0  0
    8.1927  -13.5824   16.6179 C   0  0  0  0  0  0  0  0  0  0  0  0
    7.6646  -13.6207   15.4784 O   0  0  0  0  0  0  0  0  0  0  0  0
    8.8327  -14.7893   17.1834 C   0  0  0  0  0  0  0  0  0  0  0  0
    8.4696  -15.1375   18.5719 C   0  0  0  0  0  0  0  0  0  0  0  0
    9.5644  -15.5476   19.4924 C   0  0  2  0  0  0  0  0  0  0  0  0
   10.5931  -16.3565   18.9611 N   0  0  0  0  0  0  0  0  0  0  0  0
    9.0112  -16.0270   20.8014 C   0  0  0  0  0  0  0  0  0  0  0  0
    8.2211  -15.2514   21.3906 O   0  0  0  0  0  0  0  0  0  0  0  0
    9.3117  -17.2618   21.4019 N   0  0  0  0  0  0  0  0  0  0  0  0
    8.8332  -17.6589   22.7081 C   0  0  0  0  0  0  0  0  0  0  0  0
    9.5078  -16.9037   23.7997 C   0  0  0  0  0  0  0  0  0  0  0  0
   10.4342  -16.0954   23.5367 O   0  0  0  0  0  0  0  0  0  0  0  0
    9.1067  -17.0937   25.1467 N   0  0  0  0  0  0  0  0  0  0  0  0
    9.8625  -16.5555   26.2770 C   0  0  1  0  0  0  0  0  0  0  0  0
    8.8488  -15.9623   27.2093 C   0  0  0  0  0  0  0  0  0  0  0  0
    7.7751  -15.1738   26.6244 C   0  0  0  0  0  0  0  0  0  0  0  0
    6.6968  -15.7543   25.9385 C   0  0  0  0  0  0  0  0  0  0  0  0
    5.8981  -14.7776   25.4880 N   0  0  0  0  0  0  0  0  0  0  0  0
    6.3815  -13.5785   25.8351 C   0  0  0  0  0  0  0  0  0  0  0  0
    5.9287  -12.2800   25.6293 C   0  0  0  0  0  0  0  0  0  0  0  0
    6.6278  -11.2010   26.1245 C   0  0  0  0  0  0  0  0  0  0  0  0
    7.7879  -11.4623   26.8282 C   0  0  0  0  0  0  0  0  0  0  0  0
    8.2489  -12.7415   27.0392 C   0  0  0  0  0  0  0  0  0  0  0  0
    7.5409  -13.8253   26.5372 C   0  0  0  0  0  0  0  0  0  0  0  0
   10.6884  -17.5493   26.9317 C   0  0  0  0  0  0  0  0  0  0  0  0
   10.5793  -18.8882   26.5002 O   0  0  0  0  0  0  0  0  0  0  0  0
   11.4873  -17.3149   27.8456 O   0  0  0  0  0  0  0  0  0  0  0  0
  2  1  1  0
  3  2  2  0
  4  2  1  0
  5  4  1  0
  6  5  1  0
  6  7  1  6
  8  6  1  0
  8  9  2  0
 10  8  1  0
 11 10  1  0
 11 12  1  0
 12 14  1  0
 13 12  2  0
 14 15  1  0
 15 26  1  0
 16 17  1  0
 15 16  1  1
 17 18  2  0
 19 18  1  0
 20 19  1  0
 21 20  2  0
 22 21  1  0
 23 22  2  0
 23 24  1  0
 24 25  2  0
 25 20  1  0
 25 17  1  0
 26 28  2  0
 26 27  1  0
M  END
$$$$
