QGW.pdb
     RDKit          3D

 28 29  0  0  1  0  0  0  0  0999 V2000
    7.0324  -13.3679   17.9310 N   0  0  0  0  0  0  0  0  0  0  0  0
    8.2220  -13.1796   18.6955 C   0  0  0  0  0  0  0  0  0  0  0  0
    9.1447  -12.4516   18.2512 O   0  0  0  0  0  0  0  0  0  0  0  0
    8.3621  -13.8405   20.0107 C   0  0  0  0  0  0  0  0  0  0  0  0
    7.1905  -14.5985   20.4945 C   0  0  0  0  0  0  0  0  0  0  0  0
    7.2993  -15.2731   21.8162 C   0  0  2  0  0  0  0  0  0  0  0  0
    7.6508  -14.4754   22.9275 N   0  0  0  0  0  0  0  0  0  0  0  0
    8.0727  -16.5529   21.7015 C   0  0  0  0  0  0  0  0  0  0  0  0
    8.1477  -17.0584   20.5561 O   0  0  0  0  0  0  0  0  0  0  0  0
    8.7067  -17.2124   22.7685 N   0  0  0  0  0  0  0  0  0  0  0  0
   10.1296  -17.4672   22.8256 C   0  0  0  0  0  0  0  0  0  0  0  0
   10.6684  -17.3007   24.2037 C   0  0  0  0  0  0  0  0  0  0  0  0
   11.8559  -17.6196   24.4662 O   0  0  0  0  0  0  0  0  0  0  0  0
    9.8407  -16.7793   25.2307 N   0  0  0  0  0  0  0  0  0  0  0  0
   10.2548  -16.7414   26.6328 C   0  0  1  0  0  0  0  0  0  0  0  0
    9.5634  -15.5562   27.2377 C   0  0  0  0  0  0  0  0  0  0  0  0
    8.2935  -15.1476   26.6570 C   0  0  0  0  0  0  0  0  0  0  0  0
    7.2955  -16.0664   26.2967 C   0  0  0  0  0  0  0  0  0  0  0  0
    6.2676  -15.3957   25.7597 N   0  0  0  0  0  0  0  0  0  0  0  0
    6.5225  -14.0817   25.7420 C   0  0  0  0  0  0  0  0  0  0  0  0
    5.7889  -12.9811   25.3130 C   0  0  0  0  0  0  0  0  0  0  0  0
    6.2940  -11.7050   25.4327 C   0  0  0  0  0  0  0  0  0  0  0  0
    7.5499  -11.5668   25.9923 C   0  0  0  0  0  0  0  0  0  0  0  0
    8.2879  -12.6463   26.4207 C   0  0  0  0  0  0  0  0  0  0  0  0
    7.7743  -13.9304   26.2970 C   0  0  0  0  0  0  0  0  0  0  0  0
    9.9577  -17.9672   27.3453 C   0  0  0  0  0  0  0  0  0  0  0  0
   10.4683  -18.1126   28.6525 O   0  0  0  0  0  0  0  0  0  0  0  0
    9.2872  -18.9030   26.8947 O   0  0  0  0  0  0  0  0  0  0  0  0
  2  1  1  0
  3  2  2  0
  4  2  1  0
  5  4  1  0
  6  5  1  0
  6  7  1  1
  8  6  1  0
  8  9  2  0
 10  8  1  0
 11 10  1  0
 11 12  1  0
 12 14  1  0
 13 12  2  0
 14 15  1  0
 15 26  1  0
 16 17  1  0
 15 16  1  1
 17 18  2  0
 19 18  1  0
 20 19  1  0
 21 20  2  0
 22 21  1  0
 23 22  2  0
 23 24  1  0
 24 25  2  0
 25 20  1  0
 25 17  1  0
 26 28  2  0
 26 27  1  0
M  END
$$$$
