QGW.pdb
     RDKit          3D

 28 29  0  0  1  0  0  0  0  0999 V2000
    9.1965  -12.7083   18.9601 N   0  0  0  0  0  0  0  0  0  0  0  0
    8.0304  -13.5105   18.7819 C   0  0  0  0  0  0  0  0  0  0  0  0
    7.8368  -14.1025   17.6907 O   0  0  0  0  0  0  0  0  0  0  0  0
    7.0553  -13.6441   19.8854 C   0  0  0  0  0  0  0  0  0  0  0  0
    6.4988  -14.9932   20.1120 C   0  0  0  0  0  0  0  0  0  0  0  0
    7.4548  -16.0997   20.3874 C   0  0  2  0  0  0  0  0  0  0  0  0
    6.9473  -17.4177   20.3723 N   0  0  0  0  0  0  0  0  0  0  0  0
    8.3160  -15.7798   21.5728 C   0  0  0  0  0  0  0  0  0  0  0  0
    7.7344  -15.2837   22.5671 O   0  0  0  0  0  0  0  0  0  0  0  0
    9.7034  -15.9933   21.6448 N   0  0  0  0  0  0  0  0  0  0  0  0
   10.6161  -15.1219   22.3523 C   0  0  0  0  0  0  0  0  0  0  0  0
   10.6854  -15.4508   23.8029 C   0  0  0  0  0  0  0  0  0  0  0  0
   11.5354  -14.8931   24.5425 O   0  0  0  0  0  0  0  0  0  0  0  0
    9.7889  -16.3989   24.3588 N   0  0  0  0  0  0  0  0  0  0  0  0
    9.7824  -16.7366   25.7817 C   0  0  1  0  0  0  0  0  0  0  0  0
    8.3399  -16.8564   26.1731 C   0  0  0  0  0  0  0  0  0  0  0  0
    7.4711  -15.7214   25.9014 C   0  0  0  0  0  0  0  0  0  0  0  0
    6.2626  -15.8447   25.1981 C   0  0  0  0  0  0  0  0  0  0  0  0
    5.7104  -14.6301   25.0764 N   0  0  0  0  0  0  0  0  0  0  0  0
    6.4812  -13.7037   25.6591 C   0  0  0  0  0  0  0  0  0  0  0  0
    6.3504  -12.3287   25.8198 C   0  0  0  0  0  0  0  0  0  0  0  0
    7.3060  -11.6022   26.4960 C   0  0  0  0  0  0  0  0  0  0  0  0
    8.3903  -12.2925   27.0031 C   0  0  0  0  0  0  0  0  0  0  0  0
    8.5338  -13.6525   26.8514 C   0  0  0  0  0  0  0  0  0  0  0  0
    7.5682  -14.3798   26.1683 C   0  0  0  0  0  0  0  0  0  0  0  0
   10.5300  -17.9404   26.0823 C   0  0  0  0  0  0  0  0  0  0  0  0
   10.7165  -18.2816   27.4386 O   0  0  0  0  0  0  0  0  0  0  0  0
   11.0211  -18.6980   25.2378 O   0  0  0  0  0  0  0  0  0  0  0  0
  2  1  1  0
  3  2  2  0
  4  2  1  0
  5  4  1  0
  6  5  1  0
  6  7  1  1
  8  6  1  0
  8  9  2  0
 10  8  1  0
 11 10  1  0
 11 12  1  0
 12 14  1  0
 13 12  2  0
 14 15  1  0
 15 26  1  0
 16 17  1  0
 15 16  1  6
 17 18  2  0
 19 18  1  0
 20 19  1  0
 21 20  2  0
 22 21  1  0
 23 22  2  0
 23 24  1  0
 24 25  2  0
 25 20  1  0
 25 17  1  0
 26 28  2  0
 26 27  1  0
M  END
$$$$
