QGW.pdb
     RDKit          3D

 28 29  0  0  1  0  0  0  0  0999 V2000
    8.9344  -18.0574   14.6971 N   0  0  0  0  0  0  0  0  0  0  0  0
    8.4621  -16.7783   15.1164 C   0  0  0  0  0  0  0  0  0  0  0  0
    9.0867  -15.7395   14.7856 O   0  0  0  0  0  0  0  0  0  0  0  0
    7.2359  -16.6809   15.9369 C   0  0  0  0  0  0  0  0  0  0  0  0
    7.3916  -16.1021   17.2867 C   0  0  0  0  0  0  0  0  0  0  0  0
    8.4565  -16.6620   18.1621 C   0  0  2  0  0  0  0  0  0  0  0  0
    8.9955  -17.9190   17.8093 N   0  0  0  0  0  0  0  0  0  0  0  0
    8.0837  -16.5306   19.6088 C   0  0  0  0  0  0  0  0  0  0  0  0
    7.7791  -15.3799   20.0039 O   0  0  0  0  0  0  0  0  0  0  0  0
    8.0530  -17.5877   20.5347 N   0  0  0  0  0  0  0  0  0  0  0  0
    7.6999  -17.4268   21.9283 C   0  0  0  0  0  0  0  0  0  0  0  0
    8.8118  -16.8282   22.7172 C   0  0  0  0  0  0  0  0  0  0  0  0
    9.7375  -16.2029   22.1402 O   0  0  0  0  0  0  0  0  0  0  0  0
    8.8317  -16.9615   24.1291 N   0  0  0  0  0  0  0  0  0  0  0  0
    9.9326  -16.4619   24.9519 C   0  0  1  0  0  0  0  0  0  0  0  0
    9.2979  -15.8247   26.1518 C   0  0  0  0  0  0  0  0  0  0  0  0
    8.0892  -15.0431   25.9399 C   0  0  0  0  0  0  0  0  0  0  0  0
    6.8416  -15.6330   25.6838 C   0  0  0  0  0  0  0  0  0  0  0  0
    5.9373  -14.6622   25.4977 N   0  0  0  0  0  0  0  0  0  0  0  0
    6.5103  -13.4581   25.6159 C   0  0  0  0  0  0  0  0  0  0  0  0
    6.0147  -12.1618   25.5303 C   0  0  0  0  0  0  0  0  0  0  0  0
    6.8410  -11.0755   25.7186 C   0  0  0  0  0  0  0  0  0  0  0  0
    8.1715  -11.3273   25.9936 C   0  0  0  0  0  0  0  0  0  0  0  0
    8.6765  -12.6043   26.0807 C   0  0  0  0  0  0  0  0  0  0  0  0
    7.8396  -13.6955   25.8893 C   0  0  0  0  0  0  0  0  0  0  0  0
   10.8792  -17.4946   25.3205 C   0  0  0  0  0  0  0  0  0  0  0  0
   12.1043  -17.0944   25.8945 O   0  0  0  0  0  0  0  0  0  0  0  0
   10.6967  -18.7081   25.1707 O   0  0  0  0  0  0  0  0  0  0  0  0
  2  1  1  0
  3  2  2  0
  4  2  1  0
  5  4  1  0
  6  5  1  0
  6  7  1  6
  8  6  1  0
  8  9  2  0
 10  8  1  0
 11 10  1  0
 11 12  1  0
 12 14  1  0
 13 12  2  0
 14 15  1  0
 15 26  1  0
 16 17  1  0
 15 16  1  1
 17 18  2  0
 19 18  1  0
 20 19  1  0
 21 20  2  0
 22 21  1  0
 23 22  2  0
 23 24  1  0
 24 25  2  0
 25 20  1  0
 25 17  1  0
 26 28  2  0
 26 27  1  0
M  END
$$$$
