QGW.pdb
     RDKit          3D

 28 29  0  0  1  0  0  0  0  0999 V2000
    7.6045  -12.2180   18.9617 N   0  0  0  0  0  0  0  0  0  0  0  0
    8.5495  -12.6300   19.9477 C   0  0  0  0  0  0  0  0  0  0  0  0
    9.5809  -11.9426   20.1542 O   0  0  0  0  0  0  0  0  0  0  0  0
    8.3087  -13.8643   20.7253 C   0  0  0  0  0  0  0  0  0  0  0  0
    7.0242  -14.5528   20.4860 C   0  0  0  0  0  0  0  0  0  0  0  0
    6.7853  -15.8393   21.1942 C   0  0  2  0  0  0  0  0  0  0  0  0
    6.0746  -15.7893   22.4138 N   0  0  0  0  0  0  0  0  0  0  0  0
    8.0359  -16.6660   21.2381 C   0  0  0  0  0  0  0  0  0  0  0  0
    8.7077  -16.7177   20.1803 O   0  0  0  0  0  0  0  0  0  0  0  0
    8.4978  -17.3735   22.3613 N   0  0  0  0  0  0  0  0  0  0  0  0
    9.7484  -18.1000   22.3965 C   0  0  0  0  0  0  0  0  0  0  0  0
   10.4983  -17.8532   23.6589 C   0  0  0  0  0  0  0  0  0  0  0  0
   11.5597  -18.4815   23.9025 O   0  0  0  0  0  0  0  0  0  0  0  0
   10.0164  -16.9041   24.5963 N   0  0  0  0  0  0  0  0  0  0  0  0
   10.6351  -16.7071   25.9066 C   0  0  1  0  0  0  0  0  0  0  0  0
   10.0722  -15.4248   26.4427 C   0  0  0  0  0  0  0  0  0  0  0  0
    8.6757  -15.1310   26.1596 C   0  0  0  0  0  0  0  0  0  0  0  0
    7.7060  -16.1349   26.0119 C   0  0  0  0  0  0  0  0  0  0  0  0
    6.5316  -15.5588   25.7225 N   0  0  0  0  0  0  0  0  0  0  0  0
    6.6624  -14.2276   25.6696 C   0  0  0  0  0  0  0  0  0  0  0  0
    5.7606  -13.1971   25.4279 C   0  0  0  0  0  0  0  0  0  0  0  0
    6.1679  -11.8812   25.4537 C   0  0  0  0  0  0  0  0  0  0  0  0
    7.4991  -11.6316   25.7277 C   0  0  0  0  0  0  0  0  0  0  0  0
    8.4031  -12.6408   25.9682 C   0  0  0  0  0  0  0  0  0  0  0  0
    7.9875  -13.9652   25.9401 C   0  0  0  0  0  0  0  0  0  0  0  0
   10.4157  -17.8179   26.8102 C   0  0  0  0  0  0  0  0  0  0  0  0
   11.1641  -17.8557   28.0056 O   0  0  0  0  0  0  0  0  0  0  0  0
    9.6184  -18.7423   26.6148 O   0  0  0  0  0  0  0  0  0  0  0  0
  2  1  1  0
  3  2  2  0
  4  2  1  0
  5  4  1  0
  6  5  1  0
  6  7  1  1
  8  6  1  0
  8  9  2  0
 10  8  1  0
 11 10  1  0
 11 12  1  0
 12 14  1  0
 13 12  2  0
 14 15  1  0
 15 26  1  0
 16 17  1  0
 15 16  1  1
 17 18  2  0
 19 18  1  0
 20 19  1  0
 21 20  2  0
 22 21  1  0
 23 22  2  0
 23 24  1  0
 24 25  2  0
 25 20  1  0
 25 17  1  0
 26 28  2  0
 26 27  1  0
M  END
$$$$
