QGW.pdb
     RDKit          3D

 28 29  0  0  1  0  0  0  0  0999 V2000
    7.8814  -16.3550   14.4388 N   0  0  0  0  0  0  0  0  0  0  0  0
    9.1278  -15.8476   14.9122 C   0  0  0  0  0  0  0  0  0  0  0  0
   10.0199  -15.5113   14.0938 O   0  0  0  0  0  0  0  0  0  0  0  0
    9.3628  -15.7169   16.3661 C   0  0  0  0  0  0  0  0  0  0  0  0
    8.2644  -16.1522   17.2522 C   0  0  0  0  0  0  0  0  0  0  0  0
    8.4703  -16.0329   18.7209 C   0  0  2  0  0  0  0  0  0  0  0  0
    9.7015  -15.5019   19.1649 N   0  0  0  0  0  0  0  0  0  0  0  0
    8.0459  -17.2877   19.4242 C   0  0  0  0  0  0  0  0  0  0  0  0
    7.2059  -18.0039   18.8288 O   0  0  0  0  0  0  0  0  0  0  0  0
    8.5154  -17.7082   20.6806 N   0  0  0  0  0  0  0  0  0  0  0  0
    9.7125  -18.4981   20.8692 C   0  0  0  0  0  0  0  0  0  0  0  0
   10.4288  -18.1301   22.1216 C   0  0  0  0  0  0  0  0  0  0  0  0
   11.4905  -18.7205   22.4452 O   0  0  0  0  0  0  0  0  0  0  0  0
    9.9140  -17.1074   22.9588 N   0  0  0  0  0  0  0  0  0  0  0  0
   10.5867  -16.6802   24.1850 C   0  0  1  0  0  0  0  0  0  0  0  0
   10.3891  -15.1963   24.2713 C   0  0  0  0  0  0  0  0  0  0  0  0
    9.0370  -14.6854   24.1054 C   0  0  0  0  0  0  0  0  0  0  0  0
    8.0429  -14.8434   25.0836 C   0  0  0  0  0  0  0  0  0  0  0  0
    6.9038  -14.3037   24.6297 N   0  0  0  0  0  0  0  0  0  0  0  0
    7.0814  -13.7938   23.4049 C   0  0  0  0  0  0  0  0  0  0  0  0
    6.2356  -13.1264   22.5259 C   0  0  0  0  0  0  0  0  0  0  0  0
    6.6939  -12.6804   21.3056 C   0  0  0  0  0  0  0  0  0  0  0  0
    8.0185  -12.9227   20.9954 C   0  0  0  0  0  0  0  0  0  0  0  0
    8.8672  -13.5823   21.8545 C   0  0  0  0  0  0  0  0  0  0  0  0
    8.3999  -14.0303   23.0828 C   0  0  0  0  0  0  0  0  0  0  0  0
   10.1009  -17.3638   25.3661 C   0  0  0  0  0  0  0  0  0  0  0  0
   10.8528  -17.2466   26.5542 O   0  0  0  0  0  0  0  0  0  0  0  0
    9.0718  -18.0470   25.4154 O   0  0  0  0  0  0  0  0  0  0  0  0
  2  1  1  0
  3  2  2  0
  4  2  1  0
  5  4  1  0
  6  5  1  0
  6  7  1  6
  8  6  1  0
  8  9  2  0
 10  8  1  0
 11 10  1  0
 11 12  1  0
 12 14  1  0
 13 12  2  0
 14 15  1  0
 15 26  1  0
 16 17  1  0
 15 16  1  1
 17 18  2  0
 19 18  1  0
 20 19  1  0
 21 20  2  0
 22 21  1  0
 23 22  2  0
 23 24  1  0
 24 25  2  0
 25 20  1  0
 25 17  1  0
 26 28  2  0
 26 27  1  0
M  END
$$$$
