FCP.pdb
     RDKit          3D

 25 26  0  0  1  0  0  0  0  0999 V2000
    7.3457  -18.3697   20.2676 N   0  0  0  0  0  0  0  0  0  0  0  0
    7.6356  -16.9875   20.5576 C   0  0  1  0  0  0  0  0  0  0  0  0
    6.9789  -16.1187   19.5060 C   0  0  0  0  0  0  0  0  0  0  0  0
    7.2807  -14.7159   19.8303 C   0  0  0  0  0  0  0  0  0  0  0  0
    6.5396  -14.0246   20.7570 C   0  0  0  0  0  0  0  0  0  0  0  0
    6.8139  -12.7013   21.0718 C   0  0  0  0  0  0  0  0  0  0  0  0
    7.8505  -12.0526   20.4486 C   0  0  0  0  0  0  0  0  0  0  0  0
    8.6163  -12.7313   19.5058 C   0  0  0  0  0  0  0  0  0  0  0  0
    8.3177  -14.0638   19.2081 C   0  0  0  0  0  0  0  0  0  0  0  0
    7.1726  -16.6541   21.9223 C   0  0  0  0  0  0  0  0  0  0  0  0
    5.9457  -16.6791   22.1987 O   0  0  0  0  0  0  0  0  0  0  0  0
    8.0709  -16.2987   22.9595 N   0  0  0  0  0  0  0  0  0  0  0  0
    7.5981  -16.1606   24.3742 C   0  0  1  0  0  0  0  0  0  0  0  0
    7.0385  -17.5261   24.7383 C   0  0  0  0  0  0  0  0  0  0  0  0
    6.8712  -17.8726   26.4689 S   0  0  0  0  0  0  0  0  0  0  0  0
    8.7752  -15.7686   25.1532 C   0  0  0  0  0  0  0  0  0  0  0  0
    9.9164  -16.1444   24.6971 O   0  0  0  0  0  0  0  0  0  0  0  0
    8.8346  -15.0276   26.3429 N   0  0  0  0  0  0  0  0  0  0  0  0
    7.6871  -14.4501   27.0829 C   0  0  0  0  0  0  0  0  0  0  0  0
    8.1416  -12.9827   27.0837 C   0  0  0  0  0  0  0  0  0  0  0  0
    9.6251  -13.1486   27.4300 C   0  0  0  0  0  0  0  0  0  0  0  0
    9.9525  -14.5916   27.1510 C   0  0  1  0  0  0  0  0  0  0  0  0
    9.9724  -15.3106   28.4833 C   0  0  0  0  0  0  0  0  0  0  0  0
    8.9859  -16.0091   28.8210 O   0  0  0  0  0  0  0  0  0  0  0  0
   11.0351  -15.2349   29.3606 O   0  0  0  0  0  0  0  0  0  0  0  0
  2  1  1  6
  2 10  1  0
  3  2  1  0
  4  5  2  0
  4  3  1  0
  6  5  1  0
  7  8  1  0
  7  6  2  0
  8  9  2  0
  9  4  1  0
 10 12  1  0
 10 11  2  0
 12 13  1  0
 13 14  1  1
 15 14  1  0
 16 13  1  0
 16 17  2  0
 18 22  1  0
 18 16  1  0
 19 20  1  0
 19 18  1  0
 20 21  1  0
 21 22  1  0
 22 23  1  1
 24 23  2  0
 25 23  1  0
M  END
$$$$
