FCP.pdb
     RDKit          3D

 25 26  0  0  1  0  0  0  0  0999 V2000
    6.5110  -16.6553   21.3610 N   0  0  0  0  0  0  0  0  0  0  0  0
    6.9803  -15.6463   22.2777 C   0  0  1  0  0  0  0  0  0  0  0  0
    6.1097  -14.4157   22.1384 C   0  0  0  0  0  0  0  0  0  0  0  0
    6.5167  -13.4578   23.1782 C   0  0  0  0  0  0  0  0  0  0  0  0
    5.8473  -13.3795   24.3746 C   0  0  0  0  0  0  0  0  0  0  0  0
    6.2211  -12.4805   25.3634 C   0  0  0  0  0  0  0  0  0  0  0  0
    7.2864  -11.6407   25.1546 C   0  0  0  0  0  0  0  0  0  0  0  0
    7.9809  -11.7007   23.9504 C   0  0  0  0  0  0  0  0  0  0  0  0
    7.5827  -12.6158   22.9720 C   0  0  0  0  0  0  0  0  0  0  0  0
    6.9718  -16.1798   23.6573 C   0  0  0  0  0  0  0  0  0  0  0  0
    5.8943  -16.5612   24.1823 O   0  0  0  0  0  0  0  0  0  0  0  0
    8.1524  -16.2837   24.4347 N   0  0  0  0  0  0  0  0  0  0  0  0
    8.1039  -16.7844   25.8458 C   0  0  1  0  0  0  0  0  0  0  0  0
    7.6776  -18.2391   25.7338 C   0  0  0  0  0  0  0  0  0  0  0  0
    7.8856  -19.2345   27.1860 S   0  0  0  0  0  0  0  0  0  0  0  0
    9.4531  -16.5955   26.3842 C   0  0  0  0  0  0  0  0  0  0  0  0
   10.4290  -16.8155   25.5774 O   0  0  0  0  0  0  0  0  0  0  0  0
    9.8368  -16.1995   27.6742 N   0  0  0  0  0  0  0  0  0  0  0  0
    8.9385  -15.7528   28.7657 C   0  0  0  0  0  0  0  0  0  0  0  0
    9.5693  -14.3753   29.0200 C   0  0  0  0  0  0  0  0  0  0  0  0
   11.0578  -14.7367   28.9805 C   0  0  0  0  0  0  0  0  0  0  0  0
   11.1367  -16.0760   28.2968 C   0  0  1  0  0  0  0  0  0  0  0  0
   11.3221  -17.1192   29.3784 C   0  0  0  0  0  0  0  0  0  0  0  0
   12.4245  -17.2012   29.9726 O   0  0  0  0  0  0  0  0  0  0  0  0
   10.3265  -18.0001   29.7492 O   0  0  0  0  0  0  0  0  0  0  0  0
  2  1  1  6
  2 10  1  0
  3  2  1  0
  4  5  2  0
  4  3  1  0
  6  5  1  0
  7  8  1  0
  7  6  2  0
  8  9  2  0
  9  4  1  0
 10 12  1  0
 10 11  2  0
 12 13  1  0
 13 14  1  6
 15 14  1  0
 16 13  1  0
 16 17  2  0
 18 22  1  0
 18 16  1  0
 19 20  1  0
 19 18  1  0
 20 21  1  0
 21 22  1  0
 22 23  1  1
 24 23  2  0
 25 23  1  0
M  END
$$$$
