FCP.pdb
     RDKit          3D

 25 26  0  0  1  0  0  0  0  0999 V2000
    7.0956  -19.0131   27.5929 N   0  0  0  0  0  0  0  0  0  0  0  0
    7.6836  -17.6971   27.5585 C   0  0  1  0  0  0  0  0  0  0  0  0
    9.1817  -17.8259   27.7341 C   0  0  0  0  0  0  0  0  0  0  0  0
    9.7191  -16.4832   28.0038 C   0  0  0  0  0  0  0  0  0  0  0  0
   10.1682  -15.6789   26.9854 C   0  0  0  0  0  0  0  0  0  0  0  0
   10.6773  -14.4107   27.2263 C   0  0  0  0  0  0  0  0  0  0  0  0
   10.7399  -13.9337   28.5117 C   0  0  0  0  0  0  0  0  0  0  0  0
   10.2911  -14.7295   29.5610 C   0  0  0  0  0  0  0  0  0  0  0  0
    9.7831  -16.0029   29.2895 C   0  0  0  0  0  0  0  0  0  0  0  0
    7.3285  -17.0226   26.2909 C   0  0  0  0  0  0  0  0  0  0  0  0
    7.2153  -17.6880   25.2295 O   0  0  0  0  0  0  0  0  0  0  0  0
    7.1041  -15.6252   26.2155 N   0  0  0  0  0  0  0  0  0  0  0  0
    6.8702  -14.9527   24.8974 C   0  0  1  0  0  0  0  0  0  0  0  0
    6.7613  -13.4721   25.2236 C   0  0  0  0  0  0  0  0  0  0  0  0
    5.6513  -13.0343   26.5348 S   0  0  0  0  0  0  0  0  0  0  0  0
    8.0225  -15.2986   24.0615 C   0  0  0  0  0  0  0  0  0  0  0  0
    8.8944  -16.0854   24.5833 O   0  0  0  0  0  0  0  0  0  0  0  0
    8.3121  -14.8890   22.7514 N   0  0  0  0  0  0  0  0  0  0  0  0
    7.8388  -13.6509   22.0872 C   0  0  0  0  0  0  0  0  0  0  0  0
    7.1457  -14.3002   20.8797 C   0  0  0  0  0  0  0  0  0  0  0  0
    8.1872  -15.3553   20.4922 C   0  0  0  0  0  0  0  0  0  0  0  0
    9.0792  -15.5121   21.6951 C   0  0  1  0  0  0  0  0  0  0  0  0
   10.3480  -14.7350   21.4145 C   0  0  0  0  0  0  0  0  0  0  0  0
   11.2229  -15.2338   20.6657 O   0  0  0  0  0  0  0  0  0  0  0  0
   10.5972  -13.4875   21.9497 O   0  0  0  0  0  0  0  0  0  0  0  0
  2  1  1  6
  2 10  1  0
  3  2  1  0
  4  5  2  0
  4  3  1  0
  6  5  1  0
  7  8  1  0
  7  6  2  0
  8  9  2  0
  9  4  1  0
 10 12  1  0
 10 11  2  0
 12 13  1  0
 13 14  1  1
 15 14  1  0
 16 13  1  0
 16 17  2  0
 18 22  1  0
 18 16  1  0
 19 20  1  0
 19 18  1  0
 20 21  1  0
 21 22  1  0
 22 23  1  6
 24 23  2  0
 25 23  1  0
M  END
$$$$
