FCP.pdb
     RDKit          3D

 25 26  0  0  1  0  0  0  0  0999 V2000
    6.1615  -17.1994   25.3580 N   0  0  0  0  0  0  0  0  0  0  0  0
    6.6875  -15.9447   24.8806 C   0  0  1  0  0  0  0  0  0  0  0  0
    7.8224  -15.5141   25.7851 C   0  0  0  0  0  0  0  0  0  0  0  0
    7.4495  -14.2266   26.3913 C   0  0  0  0  0  0  0  0  0  0  0  0
    8.2399  -13.6338   27.3451 C   0  0  0  0  0  0  0  0  0  0  0  0
    7.8994  -12.4198   27.9245 C   0  0  0  0  0  0  0  0  0  0  0  0
    6.7450  -11.7823   27.5443 C   0  0  0  0  0  0  0  0  0  0  0  0
    5.9272  -12.3625   26.5797 C   0  0  0  0  0  0  0  0  0  0  0  0
    6.2944  -13.5860   26.0127 C   0  0  0  0  0  0  0  0  0  0  0  0
    7.1213  -16.0863   23.4735 C   0  0  0  0  0  0  0  0  0  0  0  0
    7.5729  -17.1840   23.0573 O   0  0  0  0  0  0  0  0  0  0  0  0
    7.0495  -15.0143   22.5490 N   0  0  0  0  0  0  0  0  0  0  0  0
    7.5735  -15.1643   21.1536 C   0  0  1  0  0  0  0  0  0  0  0  0
    7.5272  -13.7649   20.5622 C   0  0  0  0  0  0  0  0  0  0  0  0
    8.4367  -13.5139   19.0613 S   0  0  0  0  0  0  0  0  0  0  0  0
    8.9251  -15.7124   21.2903 C   0  0  0  0  0  0  0  0  0  0  0  0
    9.5177  -15.5053   22.4117 O   0  0  0  0  0  0  0  0  0  0  0  0
    9.6747  -16.4448   20.3577 N   0  0  0  0  0  0  0  0  0  0  0  0
    9.2113  -16.9280   19.0349 C   0  0  0  0  0  0  0  0  0  0  0  0
    9.4889  -18.4252   19.2379 C   0  0  0  0  0  0  0  0  0  0  0  0
   10.8703  -18.3675   19.8985 C   0  0  0  0  0  0  0  0  0  0  0  0
   11.0275  -16.9556   20.3977 C   0  0  1  0  0  0  0  0  0  0  0  0
   11.9122  -16.2278   19.4077 C   0  0  0  0  0  0  0  0  0  0  0  0
   11.5862  -16.1983   18.1961 O   0  0  0  0  0  0  0  0  0  0  0  0
   13.0782  -15.5867   19.7740 O   0  0  0  0  0  0  0  0  0  0  0  0
  2  1  1  1
  2 10  1  0
  3  2  1  0
  4  5  2  0
  4  3  1  0
  6  5  1  0
  7  8  1  0
  7  6  2  0
  8  9  2  0
  9  4  1  0
 10 12  1  0
 10 11  2  0
 12 13  1  0
 13 14  1  1
 15 14  1  0
 16 13  1  0
 16 17  2  0
 18 22  1  0
 18 16  1  0
 19 20  1  0
 19 18  1  0
 20 21  1  0
 21 22  1  0
 22 23  1  6
 24 23  2  0
 25 23  1  0
M  END
$$$$
