FCP.pdb
     RDKit          3D

 25 26  0  0  1  0  0  0  0  0999 V2000
    6.0330  -17.7481   25.9480 N   0  0  0  0  0  0  0  0  0  0  0  0
    6.4978  -16.4366   25.5705 C   0  0  1  0  0  0  0  0  0  0  0  0
    7.3556  -15.8812   26.6873 C   0  0  0  0  0  0  0  0  0  0  0  0
    7.1809  -14.4206   26.7036 C   0  0  0  0  0  0  0  0  0  0  0  0
    5.9303  -13.8535   26.6928 C   0  0  0  0  0  0  0  0  0  0  0  0
    5.7520  -12.4774   26.7080 C   0  0  0  0  0  0  0  0  0  0  0  0
    6.8452  -11.6481   26.7346 C   0  0  0  0  0  0  0  0  0  0  0  0
    8.1231  -12.1983   26.7461 C   0  0  0  0  0  0  0  0  0  0  0  0
    8.2735  -13.5877   26.7303 C   0  0  0  0  0  0  0  0  0  0  0  0
    7.2345  -16.5154   24.2903 C   0  0  0  0  0  0  0  0  0  0  0  0
    8.0605  -17.4429   24.0909 O   0  0  0  0  0  0  0  0  0  0  0  0
    7.0478  -15.5697   23.2512 N   0  0  0  0  0  0  0  0  0  0  0  0
    7.8345  -15.6574   21.9793 C   0  0  1  0  0  0  0  0  0  0  0  0
    7.4976  -14.3854   21.2185 C   0  0  0  0  0  0  0  0  0  0  0  0
    8.4145  -14.0922   19.7298 S   0  0  0  0  0  0  0  0  0  0  0  0
    9.2389  -15.7594   22.3835 C   0  0  0  0  0  0  0  0  0  0  0  0
    9.5483  -15.2428   23.5188 O   0  0  0  0  0  0  0  0  0  0  0  0
   10.3095  -16.3525   21.6980 N   0  0  0  0  0  0  0  0  0  0  0  0
   10.2356  -17.0987   20.4190 C   0  0  0  0  0  0  0  0  0  0  0  0
   10.8527  -18.4209   20.8997 C   0  0  0  0  0  0  0  0  0  0  0  0
   12.0280  -17.8962   21.7312 C   0  0  0  0  0  0  0  0  0  0  0  0
   11.7183  -16.4496   22.0118 C   0  0  1  0  0  0  0  0  0  0  0  0
   12.5466  -15.6214   21.0523 C   0  0  0  0  0  0  0  0  0  0  0  0
   12.0975  -15.3731   19.9070 O   0  0  0  0  0  0  0  0  0  0  0  0
   13.7906  -15.1192   21.3762 O   0  0  0  0  0  0  0  0  0  0  0  0
  2  1  1  1
  2 10  1  0
  3  2  1  0
  4  5  2  0
  4  3  1  0
  6  5  1  0
  7  8  1  0
  7  6  2  0
  8  9  2  0
  9  4  1  0
 10 12  1  0
 10 11  2  0
 12 13  1  0
 13 14  1  6
 15 14  1  0
 16 13  1  0
 16 17  2  0
 18 22  1  0
 18 16  1  0
 19 20  1  0
 19 18  1  0
 20 21  1  0
 21 22  1  0
 22 23  1  6
 24 23  2  0
 25 23  1  0
M  END
$$$$
