FCP.pdb
     RDKit          3D

 25 26  0  0  1  0  0  0  0  0999 V2000
    5.6801  -18.1296   25.8673 N   0  0  0  0  0  0  0  0  0  0  0  0
    6.2242  -16.8318   25.5537 C   0  0  1  0  0  0  0  0  0  0  0  0
    7.0101  -16.3296   26.7461 C   0  0  0  0  0  0  0  0  0  0  0  0
    7.0683  -14.8622   26.6597 C   0  0  0  0  0  0  0  0  0  0  0  0
    8.2690  -14.1958   26.6721 C   0  0  0  0  0  0  0  0  0  0  0  0
    8.3375  -12.8122   26.5912 C   0  0  0  0  0  0  0  0  0  0  0  0
    7.1829  -12.0765   26.4958 C   0  0  0  0  0  0  0  0  0  0  0  0
    5.9537  -12.7283   26.4813 C   0  0  0  0  0  0  0  0  0  0  0  0
    5.9141  -14.1229   26.5641 C   0  0  0  0  0  0  0  0  0  0  0  0
    7.0581  -16.9192   24.3352 C   0  0  0  0  0  0  0  0  0  0  0  0
    7.7347  -17.9540   24.1036 O   0  0  0  0  0  0  0  0  0  0  0  0
    7.1318  -15.8634   23.3924 N   0  0  0  0  0  0  0  0  0  0  0  0
    7.9678  -15.9918   22.1560 C   0  0  1  0  0  0  0  0  0  0  0  0
    7.7503  -14.6936   21.3959 C   0  0  0  0  0  0  0  0  0  0  0  0
    7.9553  -13.1955   22.3215 S   0  0  0  0  0  0  0  0  0  0  0  0
    9.3426  -16.1904   22.6212 C   0  0  0  0  0  0  0  0  0  0  0  0
    9.5745  -15.9240   23.8569 O   0  0  0  0  0  0  0  0  0  0  0  0
   10.4583  -16.6396   21.8990 N   0  0  0  0  0  0  0  0  0  0  0  0
   10.5051  -16.9575   20.4517 C   0  0  0  0  0  0  0  0  0  0  0  0
   10.9906  -18.4109   20.5612 C   0  0  0  0  0  0  0  0  0  0  0  0
   12.0793  -18.2634   21.6293 C   0  0  0  0  0  0  0  0  0  0  0  0
   11.8110  -16.9470   22.3094 C   0  0  1  0  0  0  0  0  0  0  0  0
   12.7920  -15.9430   21.7420 C   0  0  0  0  0  0  0  0  0  0  0  0
   12.5798  -15.4475   20.6087 O   0  0  0  0  0  0  0  0  0  0  0  0
   13.9267  -15.5397   22.4162 O   0  0  0  0  0  0  0  0  0  0  0  0
  2  1  1  1
  2 10  1  0
  3  2  1  0
  4  5  2  0
  4  3  1  0
  6  5  1  0
  7  8  1  0
  7  6  2  0
  8  9  2  0
  9  4  1  0
 10 12  1  0
 10 11  2  0
 12 13  1  0
 13 14  1  6
 15 14  1  0
 16 13  1  0
 16 17  2  0
 18 22  1  0
 18 16  1  0
 19 20  1  0
 19 18  1  0
 20 21  1  0
 21 22  1  0
 22 23  1  6
 24 23  2  0
 25 23  1  0
M  END
$$$$
