FCP.pdb
     RDKit          3D

 25 26  0  0  1  0  0  0  0  0999 V2000
    5.9613  -17.4648   25.8057 N   0  0  0  0  0  0  0  0  0  0  0  0
    6.6894  -16.2905   25.3937 C   0  0  1  0  0  0  0  0  0  0  0  0
    7.5161  -15.7929   26.5602 C   0  0  0  0  0  0  0  0  0  0  0  0
    7.2579  -14.3525   26.7112 C   0  0  0  0  0  0  0  0  0  0  0  0
    5.9784  -13.8541   26.7004 C   0  0  0  0  0  0  0  0  0  0  0  0
    5.7215  -12.4978   26.8419 C   0  0  0  0  0  0  0  0  0  0  0  0
    6.7638  -11.6187   26.9977 C   0  0  0  0  0  0  0  0  0  0  0  0
    8.0696  -12.0990   27.0120 C   0  0  0  0  0  0  0  0  0  0  0  0
    8.2994  -13.4699   26.8674 C   0  0  0  0  0  0  0  0  0  0  0  0
    7.5253  -16.6073   24.2151 C   0  0  0  0  0  0  0  0  0  0  0  0
    8.0516  -17.7438   24.0989 O   0  0  0  0  0  0  0  0  0  0  0  0
    7.7666  -15.6648   23.1843 N   0  0  0  0  0  0  0  0  0  0  0  0
    8.6369  -16.0087   22.0145 C   0  0  1  0  0  0  0  0  0  0  0  0
    8.4631  -14.8547   21.0406 C   0  0  0  0  0  0  0  0  0  0  0  0
    6.8280  -14.6011   20.4042 S   0  0  0  0  0  0  0  0  0  0  0  0
    9.9939  -16.1408   22.5504 C   0  0  0  0  0  0  0  0  0  0  0  0
   10.2247  -15.5664   23.6766 O   0  0  0  0  0  0  0  0  0  0  0  0
   11.0931  -16.8183   22.0017 N   0  0  0  0  0  0  0  0  0  0  0  0
   11.1156  -17.5849   20.7330 C   0  0  0  0  0  0  0  0  0  0  0  0
   11.5814  -18.9347   21.2997 C   0  0  0  0  0  0  0  0  0  0  0  0
   12.6866  -18.4717   22.2548 C   0  0  0  0  0  0  0  0  0  0  0  0
   12.4466  -17.0020   22.4781 C   0  0  1  0  0  0  0  0  0  0  0  0
   13.4343  -16.2513   21.6100 C   0  0  0  0  0  0  0  0  0  0  0  0
   13.1514  -16.0266   20.4082 O   0  0  0  0  0  0  0  0  0  0  0  0
   14.6498  -15.7959   22.0789 O   0  0  0  0  0  0  0  0  0  0  0  0
  2  1  1  1
  2 10  1  0
  3  2  1  0
  4  5  2  0
  4  3  1  0
  6  5  1  0
  7  8  1  0
  7  6  2  0
  8  9  2  0
  9  4  1  0
 10 12  1  0
 10 11  2  0
 12 13  1  0
 13 14  1  6
 15 14  1  0
 16 13  1  0
 16 17  2  0
 18 22  1  0
 18 16  1  0
 19 20  1  0
 19 18  1  0
 20 21  1  0
 21 22  1  0
 22 23  1  6
 24 23  2  0
 25 23  1  0
M  END
$$$$
