NGK.pdb
     RDKit          3D

 22 21  0  0  1  0  0  0  0  0999 V2000
   17.1216  -11.8073  -17.0454 N   0  0  0  0  0  0  0  0  0  0  0  0
   17.5202  -12.6741  -15.9792 C   0  0  0  0  0  0  0  0  0  0  0  0
   17.4972  -13.9042  -16.1301 O   0  0  0  0  0  0  0  0  0  0  0  0
   17.9512  -12.0439  -14.7170 C   0  0  0  0  0  0  0  0  0  0  0  0
   17.8514  -10.5411  -14.7699 C   0  0  2  0  0  0  0  0  0  0  0  0
   18.9664   -9.9748  -15.4782 N   0  0  0  0  0  0  0  0  0  0  0  0
   17.7140  -10.0574  -13.3857 C   0  0  0  0  0  0  0  0  0  0  0  0
   16.6949  -10.4077  -12.7274 O   0  0  0  0  0  0  0  0  0  0  0  0
   18.6336   -9.2204  -12.7101 N   0  0  0  0  0  0  0  0  0  0  0  0
   18.5035   -8.9131  -11.2982 C   0  0  0  0  0  0  0  0  0  0  0  0
   17.3215   -8.0418  -11.0495 C   0  0  0  0  0  0  0  0  0  0  0  0
   16.8036   -7.3997  -11.9997 O   0  0  0  0  0  0  0  0  0  0  0  0
   16.7866   -7.9399   -9.7467 N   0  0  0  0  0  0  0  0  0  0  0  0
   15.6842   -7.0800   -9.3697 C   0  0  1  0  0  0  0  0  0  0  0  0
   14.7021   -7.8522   -8.5782 C   0  0  0  0  0  0  0  0  0  0  0  0
   13.4604   -7.1443   -8.1689 C   0  0  0  0  0  0  0  0  0  0  0  0
   12.4208   -7.9650   -7.4919 C   0  0  0  0  0  0  0  0  0  0  0  0
   11.1234   -7.2811   -7.2156 C   0  0  0  0  0  0  0  0  0  0  0  0
   10.1608   -8.0861   -6.5418 N   0  0  0  0  0  0  0  0  0  0  0  0
   16.1402   -5.8054   -8.7524 C   0  0  0  0  0  0  0  0  0  0  0  0
   15.5269   -4.5959   -8.9266 O   0  0  0  0  0  0  0  0  0  0  0  0
   17.1592   -5.8319   -8.0188 O   0  0  0  0  0  0  0  0  0  0  0  0
  1  2  1  0
  2  3  2  0
  4  2  1  0
  5  4  1  0
  5  6  1  1
  7  5  1  0
  7  8  2  0
  9  7  1  0
 10  9  1  0
 10 11  1  0
 11 13  1  0
 12 11  2  0
 13 14  1  0
 14 15  1  1
 15 16  1  0
 16 17  1  0
 17 18  1  0
 18 19  1  0
 20 14  1  0
 20 21  1  0
 22 20  2  0
M  END
$$$$
