NGK.pdb
     RDKit          3D

 22 21  0  0  1  0  0  0  0  0999 V2000
   15.6608  -21.0173    2.2692 N   0  0  0  0  0  0  0  0  0  0  0  0
   14.5418  -20.5741    3.0427 C   0  0  0  0  0  0  0  0  0  0  0  0
   13.5034  -21.2496    3.0862 O   0  0  0  0  0  0  0  0  0  0  0  0
   14.6823  -19.2990    3.7711 C   0  0  0  0  0  0  0  0  0  0  0  0
   16.0340  -18.6684    3.5558 C   0  0  2  0  0  0  0  0  0  0  0  0
   17.0352  -19.6681    3.3029 N   0  0  0  0  0  0  0  0  0  0  0  0
   16.3182  -17.8198    4.7255 C   0  0  0  0  0  0  0  0  0  0  0  0
   15.6063  -16.7928    4.9072 O   0  0  0  0  0  0  0  0  0  0  0  0
   17.3335  -18.0506    5.6838 N   0  0  0  0  0  0  0  0  0  0  0  0
   17.4852  -17.2181    6.8623 C   0  0  0  0  0  0  0  0  0  0  0  0
   18.7198  -16.3897    6.7739 C   0  0  0  0  0  0  0  0  0  0  0  0
   19.5148  -16.5480    5.8115 O   0  0  0  0  0  0  0  0  0  0  0  0
   18.9930  -15.4288    7.7719 N   0  0  0  0  0  0  0  0  0  0  0  0
   20.2166  -14.6605    7.8680 C   0  0  1  0  0  0  0  0  0  0  0  0
   19.9004  -13.2748    8.2767 C   0  0  0  0  0  0  0  0  0  0  0  0
   21.0303  -12.3094    8.3167 C   0  0  0  0  0  0  0  0  0  0  0  0
   20.7279  -10.9553    8.8529 C   0  0  0  0  0  0  0  0  0  0  0  0
   21.8925  -10.0335    8.9990 C   0  0  0  0  0  0  0  0  0  0  0  0
   21.5603   -8.7276    9.4606 N   0  0  0  0  0  0  0  0  0  0  0  0
   21.2569  -15.3442    8.6827 C   0  0  0  0  0  0  0  0  0  0  0  0
   22.6040  -15.1709    8.5250 O   0  0  0  0  0  0  0  0  0  0  0  0
   20.8816  -16.1385    9.5802 O   0  0  0  0  0  0  0  0  0  0  0  0
  1  2  1  0
  2  3  2  0
  4  2  1  0
  5  4  1  0
  5  6  1  1
  7  5  1  0
  7  8  2  0
  9  7  1  0
 10  9  1  0
 10 11  1  0
 11 13  1  0
 12 11  2  0
 13 14  1  0
 14 15  1  1
 15 16  1  0
 16 17  1  0
 17 18  1  0
 18 19  1  0
 20 14  1  0
 20 21  1  0
 22 20  2  0
M  END
$$$$
