NGK.pdb
     RDKit          3D

 22 21  0  0  1  0  0  0  0  0999 V2000
   16.7411   -8.5902  -15.5090 N   0  0  0  0  0  0  0  0  0  0  0  0
   17.0734   -9.7052  -14.6763 C   0  0  0  0  0  0  0  0  0  0  0  0
   16.9518  -10.8630  -15.1018 O   0  0  0  0  0  0  0  0  0  0  0  0
   17.5583   -9.4142  -13.3138 C   0  0  0  0  0  0  0  0  0  0  0  0
   17.6278   -7.9339  -13.0401 C   0  0  2  0  0  0  0  0  0  0  0  0
   18.9604   -7.4343  -13.2410 N   0  0  0  0  0  0  0  0  0  0  0  0
   17.1032   -7.7093  -11.6825 C   0  0  0  0  0  0  0  0  0  0  0  0
   16.0090   -8.2543  -11.3657 O   0  0  0  0  0  0  0  0  0  0  0  0
   17.7210   -6.9250  -10.6795 N   0  0  0  0  0  0  0  0  0  0  0  0
   17.1523   -6.7827   -9.3524 C   0  0  0  0  0  0  0  0  0  0  0  0
   16.1052   -5.7238   -9.3323 C   0  0  0  0  0  0  0  0  0  0  0  0
   15.8774   -5.0462  -10.3679 O   0  0  0  0  0  0  0  0  0  0  0  0
   15.3717   -5.4847   -8.1497 N   0  0  0  0  0  0  0  0  0  0  0  0
   14.3802   -4.4419   -7.9876 C   0  0  1  0  0  0  0  0  0  0  0  0
   13.6119   -4.6777   -6.7460 C   0  0  0  0  0  0  0  0  0  0  0  0
   12.6007   -3.6533   -6.3743 C   0  0  0  0  0  0  0  0  0  0  0  0
   11.7760   -3.9408   -5.1702 C   0  0  0  0  0  0  0  0  0  0  0  0
   10.6816   -2.9690   -4.8784 C   0  0  0  0  0  0  0  0  0  0  0  0
    9.9451   -3.2449   -3.6909 N   0  0  0  0  0  0  0  0  0  0  0  0
   14.9578   -3.0783   -8.1311 C   0  0  0  0  0  0  0  0  0  0  0  0
   16.2390   -2.7391   -7.7952 O   0  0  0  0  0  0  0  0  0  0  0  0
   14.2249   -2.1681   -8.5913 O   0  0  0  0  0  0  0  0  0  0  0  0
  1  2  1  0
  2  3  2  0
  4  2  1  0
  5  4  1  0
  5  6  1  1
  7  5  1  0
  7  8  2  0
  9  7  1  0
 10  9  1  0
 10 11  1  0
 11 13  1  0
 12 11  2  0
 13 14  1  0
 14 15  1  1
 15 16  1  0
 16 17  1  0
 17 18  1  0
 18 19  1  0
 20 14  1  0
 20 21  1  0
 22 20  2  0
M  END
$$$$
