NGK.pdb
     RDKit          3D

 22 21  0  0  1  0  0  0  0  0999 V2000
   24.7494  -20.7883   -9.0769 N   0  0  0  0  0  0  0  0  0  0  0  0
   25.6899  -21.1982  -10.0742 C   0  0  0  0  0  0  0  0  0  0  0  0
   26.0894  -22.3709  -10.1141 O   0  0  0  0  0  0  0  0  0  0  0  0
   26.1511  -20.1765  -11.0332 C   0  0  0  0  0  0  0  0  0  0  0  0
   25.6410  -20.4355  -12.4274 C   0  0  2  0  0  0  0  0  0  0  0  0
   26.0789  -21.7176  -12.9070 N   0  0  0  0  0  0  0  0  0  0  0  0
   26.0642  -19.3049  -13.2710 C   0  0  0  0  0  0  0  0  0  0  0  0
   25.5627  -18.1683  -13.0446 O   0  0  0  0  0  0  0  0  0  0  0  0
   26.9979  -19.3728  -14.3323 N   0  0  0  0  0  0  0  0  0  0  0  0
   27.3754  -18.2032  -15.1033 C   0  0  0  0  0  0  0  0  0  0  0  0
   26.5472  -18.0877  -16.3357 C   0  0  0  0  0  0  0  0  0  0  0  0
   26.1386  -19.1259  -16.9175 O   0  0  0  0  0  0  0  0  0  0  0  0
   26.2237  -16.8117  -16.8466 N   0  0  0  0  0  0  0  0  0  0  0  0
   25.3946  -16.5717  -18.0093 C   0  0  1  0  0  0  0  0  0  0  0  0
   24.4440  -15.4757  -17.7220 C   0  0  0  0  0  0  0  0  0  0  0  0
   23.4592  -15.1418  -18.7846 C   0  0  0  0  0  0  0  0  0  0  0  0
   22.5315  -14.0146  -18.4994 C   0  0  0  0  0  0  0  0  0  0  0  0
   21.5959  -13.6415  -19.6007 C   0  0  0  0  0  0  0  0  0  0  0  0
   20.6242  -12.6622  -19.2465 N   0  0  0  0  0  0  0  0  0  0  0  0
   26.1917  -16.4145  -19.2556 C   0  0  0  0  0  0  0  0  0  0  0  0
   25.7553  -16.7596  -20.5046 O   0  0  0  0  0  0  0  0  0  0  0  0
   27.3479  -15.9325  -19.1645 O   0  0  0  0  0  0  0  0  0  0  0  0
  1  2  1  0
  2  3  2  0
  4  2  1  0
  5  4  1  0
  5  6  1  6
  7  5  1  0
  7  8  2  0
  9  7  1  0
 10  9  1  0
 10 11  1  0
 11 13  1  0
 12 11  2  0
 13 14  1  0
 14 15  1  1
 15 16  1  0
 16 17  1  0
 17 18  1  0
 18 19  1  0
 20 14  1  0
 20 21  1  0
 22 20  2  0
M  END
$$$$
