NGK.pdb
     RDKit          3D

 22 21  0  0  1  0  0  0  0  0999 V2000
   24.3971  -19.6351  -17.5934 N   0  0  0  0  0  0  0  0  0  0  0  0
   23.3193  -18.7571  -17.2553 C   0  0  0  0  0  0  0  0  0  0  0  0
   23.0293  -17.8069  -17.9966 O   0  0  0  0  0  0  0  0  0  0  0  0
   22.5851  -19.0332  -16.0059 C   0  0  0  0  0  0  0  0  0  0  0  0
   23.0606  -20.2964  -15.3355 C   0  0  2  0  0  0  0  0  0  0  0  0
   22.6940  -21.4561  -16.1014 N   0  0  0  0  0  0  0  0  0  0  0  0
   22.5307  -20.2950  -13.9615 C   0  0  0  0  0  0  0  0  0  0  0  0
   22.9055  -19.3799  -13.1761 O   0  0  0  0  0  0  0  0  0  0  0  0
   21.6236  -21.2407  -13.4271 N   0  0  0  0  0  0  0  0  0  0  0  0
   21.0362  -21.0867  -12.1095 C   0  0  0  0  0  0  0  0  0  0  0  0
   20.0308  -22.1536  -11.8465 C   0  0  0  0  0  0  0  0  0  0  0  0
   19.4831  -22.7513  -12.8089 O   0  0  0  0  0  0  0  0  0  0  0  0
   19.6964  -22.4902  -10.5166 N   0  0  0  0  0  0  0  0  0  0  0  0
   18.7650  -23.5315  -10.1358 C   0  0  1  0  0  0  0  0  0  0  0  0
   18.8711  -23.7836   -8.6824 C   0  0  0  0  0  0  0  0  0  0  0  0
   18.0985  -24.9318   -8.1393 C   0  0  0  0  0  0  0  0  0  0  0  0
   18.2231  -25.1844   -6.6787 C   0  0  0  0  0  0  0  0  0  0  0  0
   17.3572  -26.2664   -6.1248 C   0  0  0  0  0  0  0  0  0  0  0  0
   17.4030  -26.3945   -4.7070 N   0  0  0  0  0  0  0  0  0  0  0  0
   17.3885  -23.2780  -10.6404 C   0  0  0  0  0  0  0  0  0  0  0  0
   16.5525  -24.2418  -11.1319 O   0  0  0  0  0  0  0  0  0  0  0  0
   16.9553  -22.0994  -10.6182 O   0  0  0  0  0  0  0  0  0  0  0  0
  1  2  1  0
  2  3  2  0
  4  2  1  0
  5  4  1  0
  5  6  1  6
  7  5  1  0
  7  8  2  0
  9  7  1  0
 10  9  1  0
 10 11  1  0
 11 13  1  0
 12 11  2  0
 13 14  1  0
 14 15  1  1
 15 16  1  0
 16 17  1  0
 17 18  1  0
 18 19  1  0
 20 14  1  0
 20 21  1  0
 22 20  2  0
M  END
$$$$
