NGK.pdb
     RDKit          3D

 22 21  0  0  1  0  0  0  0  0999 V2000
   19.4026  -23.4339   -7.6307 N   0  0  0  0  0  0  0  0  0  0  0  0
   19.2783  -22.3015   -8.4963 C   0  0  0  0  0  0  0  0  0  0  0  0
   18.1882  -21.7248   -8.6207 O   0  0  0  0  0  0  0  0  0  0  0  0
   20.4875  -21.8632   -9.2187 C   0  0  0  0  0  0  0  0  0  0  0  0
   20.2282  -21.6615  -10.6895 C   0  0  2  0  0  0  0  0  0  0  0  0
   19.6978  -22.8556  -11.2882 N   0  0  0  0  0  0  0  0  0  0  0  0
   21.4836  -21.1929  -11.3004 C   0  0  0  0  0  0  0  0  0  0  0  0
   22.5322  -21.2036  -10.5971 O   0  0  0  0  0  0  0  0  0  0  0  0
   21.6290  -20.7221  -12.6271 N   0  0  0  0  0  0  0  0  0  0  0  0
   22.9137  -20.3158  -13.1647 C   0  0  0  0  0  0  0  0  0  0  0  0
   22.7957  -19.9419  -14.6015 C   0  0  0  0  0  0  0  0  0  0  0  0
   21.6600  -19.7585  -15.1114 O   0  0  0  0  0  0  0  0  0  0  0  0
   23.9603  -19.7948  -15.3863 N   0  0  0  0  0  0  0  0  0  0  0  0
   23.9772  -19.3692  -16.7703 C   0  0  1  0  0  0  0  0  0  0  0  0
   25.3020  -18.7988  -17.0968 C   0  0  0  0  0  0  0  0  0  0  0  0
   25.4715  -17.3344  -16.9042 C   0  0  0  0  0  0  0  0  0  0  0  0
   26.8123  -16.7738  -17.2212 C   0  0  0  0  0  0  0  0  0  0  0  0
   26.9989  -15.3207  -16.9365 C   0  0  0  0  0  0  0  0  0  0  0  0
   28.3039  -14.8244  -17.2180 N   0  0  0  0  0  0  0  0  0  0  0  0
   23.4915  -20.4260  -17.6980 C   0  0  0  0  0  0  0  0  0  0  0  0
   22.7563  -20.1900  -18.8263 O   0  0  0  0  0  0  0  0  0  0  0  0
   23.7706  -21.6219  -17.4345 O   0  0  0  0  0  0  0  0  0  0  0  0
  1  2  1  0
  2  3  2  0
  4  2  1  0
  5  4  1  0
  5  6  1  6
  7  5  1  0
  7  8  2  0
  9  7  1  0
 10  9  1  0
 10 11  1  0
 11 13  1  0
 12 11  2  0
 13 14  1  0
 14 15  1  6
 15 16  1  0
 16 17  1  0
 17 18  1  0
 18 19  1  0
 20 14  1  0
 20 21  1  0
 22 20  2  0
M  END
$$$$
