NGK.pdb
     RDKit          3D

 22 21  0  0  1  0  0  0  0  0999 V2000
   28.9425  -25.7821  -16.7040 N   0  0  0  0  0  0  0  0  0  0  0  0
   28.2455  -24.5327  -16.7132 C   0  0  0  0  0  0  0  0  0  0  0  0
   28.3639  -23.7563  -17.6722 O   0  0  0  0  0  0  0  0  0  0  0  0
   27.3960  -24.2206  -15.5483 C   0  0  0  0  0  0  0  0  0  0  0  0
   26.2767  -23.2745  -15.8992 C   0  0  2  0  0  0  0  0  0  0  0  0
   26.7916  -22.0070  -16.3394 N   0  0  0  0  0  0  0  0  0  0  0  0
   25.3886  -23.1851  -14.7277 C   0  0  0  0  0  0  0  0  0  0  0  0
   24.7686  -24.2239  -14.3658 O   0  0  0  0  0  0  0  0  0  0  0  0
   25.1595  -22.0225  -13.9542 N   0  0  0  0  0  0  0  0  0  0  0  0
   24.2370  -22.0106  -12.8345 C   0  0  0  0  0  0  0  0  0  0  0  0
   23.2673  -20.8865  -12.9552 C   0  0  0  0  0  0  0  0  0  0  0  0
   23.6811  -19.6982  -12.9624 O   0  0  0  0  0  0  0  0  0  0  0  0
   21.8860  -21.1597  -13.0613 N   0  0  0  0  0  0  0  0  0  0  0  0
   20.8721  -20.1808  -13.3934 C   0  0  1  0  0  0  0  0  0  0  0  0
   21.1793  -19.5759  -14.7076 C   0  0  0  0  0  0  0  0  0  0  0  0
   21.4827  -20.5089  -15.8246 C   0  0  0  0  0  0  0  0  0  0  0  0
   21.8826  -19.8899  -17.1167 C   0  0  0  0  0  0  0  0  0  0  0  0
   22.1049  -20.8313  -18.2531 C   0  0  0  0  0  0  0  0  0  0  0  0
   22.5943  -20.2194  -19.4426 N   0  0  0  0  0  0  0  0  0  0  0  0
   19.4919  -20.7162  -13.2447 C   0  0  0  0  0  0  0  0  0  0  0  0
   18.3747  -19.9459  -13.0778 O   0  0  0  0  0  0  0  0  0  0  0  0
   19.3317  -21.9615  -13.2723 O   0  0  0  0  0  0  0  0  0  0  0  0
  1  2  1  0
  2  3  2  0
  4  2  1  0
  5  4  1  0
  5  6  1  1
  7  5  1  0
  7  8  2  0
  9  7  1  0
 10  9  1  0
 10 11  1  0
 11 13  1  0
 12 11  2  0
 13 14  1  0
 14 15  1  6
 15 16  1  0
 16 17  1  0
 17 18  1  0
 18 19  1  0
 20 14  1  0
 20 21  1  0
 22 20  2  0
M  END
$$$$
