NGK.pdb
     RDKit          3D

 22 21  0  0  1  0  0  0  0  0999 V2000
   13.4460  -23.0683    3.3406 N   0  0  0  0  0  0  0  0  0  0  0  0
   14.2770  -22.0356    2.8022 C   0  0  0  0  0  0  0  0  0  0  0  0
   15.1239  -22.3006    1.9367 O   0  0  0  0  0  0  0  0  0  0  0  0
   14.0800  -20.6676    3.3178 C   0  0  0  0  0  0  0  0  0  0  0  0
   15.0930  -19.7002    2.7619 C   0  0  2  0  0  0  0  0  0  0  0  0
   16.3769  -20.3282    2.6102 N   0  0  0  0  0  0  0  0  0  0  0  0
   15.1053  -18.5183    3.6404 C   0  0  0  0  0  0  0  0  0  0  0  0
   14.0206  -17.8990    3.8262 O   0  0  0  0  0  0  0  0  0  0  0  0
   16.2399  -18.0004    4.3092 N   0  0  0  0  0  0  0  0  0  0  0  0
   16.1687  -16.8169    5.1454 C   0  0  0  0  0  0  0  0  0  0  0  0
   17.4778  -16.5503    5.8037 C   0  0  0  0  0  0  0  0  0  0  0  0
   18.4139  -17.3850    5.7010 O   0  0  0  0  0  0  0  0  0  0  0  0
   17.6630  -15.3604    6.5410 N   0  0  0  0  0  0  0  0  0  0  0  0
   18.8746  -15.0071    7.2510 C   0  0  1  0  0  0  0  0  0  0  0  0
   18.9581  -13.5367    7.3866 C   0  0  0  0  0  0  0  0  0  0  0  0
   20.3189  -12.9436    7.4684 C   0  0  0  0  0  0  0  0  0  0  0  0
   20.3906  -11.4733    7.6819 C   0  0  0  0  0  0  0  0  0  0  0  0
   21.7588  -10.9018    7.8511 C   0  0  0  0  0  0  0  0  0  0  0  0
   21.7876   -9.5047    8.1264 N   0  0  0  0  0  0  0  0  0  0  0  0
   19.0395  -15.7746    8.5148 C   0  0  0  0  0  0  0  0  0  0  0  0
   20.2422  -16.0510    9.1034 O   0  0  0  0  0  0  0  0  0  0  0  0
   18.0078  -16.2034    9.0884 O   0  0  0  0  0  0  0  0  0  0  0  0
  1  2  1  0
  2  3  2  0
  4  2  1  0
  5  4  1  0
  5  6  1  1
  7  5  1  0
  7  8  2  0
  9  7  1  0
 10  9  1  0
 10 11  1  0
 11 13  1  0
 12 11  2  0
 13 14  1  0
 14 15  1  1
 15 16  1  0
 16 17  1  0
 17 18  1  0
 18 19  1  0
 20 14  1  0
 20 21  1  0
 22 20  2  0
M  END
$$$$
