NGK.pdb
     RDKit          3D

 22 21  0  0  1  0  0  0  0  0999 V2000
   25.1165  -22.6156  -14.0413 N   0  0  0  0  0  0  0  0  0  0  0  0
   24.4130  -23.1689  -15.1575 C   0  0  0  0  0  0  0  0  0  0  0  0
   24.5508  -24.3644  -15.4547 O   0  0  0  0  0  0  0  0  0  0  0  0
   23.5333  -22.2643  -15.9217 C   0  0  0  0  0  0  0  0  0  0  0  0
   23.5067  -20.8739  -15.3409 C   0  0  2  0  0  0  0  0  0  0  0  0
   24.7619  -20.5502  -14.7202 N   0  0  0  0  0  0  0  0  0  0  0  0
   22.3516  -20.7962  -14.4307 C   0  0  0  0  0  0  0  0  0  0  0  0
   21.1991  -20.9924  -14.9078 O   0  0  0  0  0  0  0  0  0  0  0  0
   22.4119  -20.5166  -13.0447 N   0  0  0  0  0  0  0  0  0  0  0  0
   21.2188  -20.4183  -12.2252 C   0  0  0  0  0  0  0  0  0  0  0  0
   20.5894  -21.7551  -12.0383 C   0  0  0  0  0  0  0  0  0  0  0  0
   20.8794  -22.7002  -12.8168 O   0  0  0  0  0  0  0  0  0  0  0  0
   19.6687  -21.9563  -10.9868 N   0  0  0  0  0  0  0  0  0  0  0  0
   19.0356  -23.2200  -10.6717 C   0  0  1  0  0  0  0  0  0  0  0  0
   18.8787  -23.3435   -9.2063 C   0  0  0  0  0  0  0  0  0  0  0  0
   18.3922  -24.6493   -8.6882 C   0  0  0  0  0  0  0  0  0  0  0  0
   18.2047  -24.7512   -7.2161 C   0  0  0  0  0  0  0  0  0  0  0  0
   17.7461  -26.0760   -6.7043 C   0  0  0  0  0  0  0  0  0  0  0  0
   17.6018  -26.1469   -5.2891 N   0  0  0  0  0  0  0  0  0  0  0  0
   17.8003  -23.4531  -11.4674 C   0  0  0  0  0  0  0  0  0  0  0  0
   17.4022  -24.6715  -11.9433 O   0  0  0  0  0  0  0  0  0  0  0  0
   17.0654  -22.4680  -11.7258 O   0  0  0  0  0  0  0  0  0  0  0  0
  1  2  1  0
  2  3  2  0
  4  2  1  0
  5  4  1  0
  5  6  1  1
  7  5  1  0
  7  8  2  0
  9  7  1  0
 10  9  1  0
 10 11  1  0
 11 13  1  0
 12 11  2  0
 13 14  1  0
 14 15  1  1
 15 16  1  0
 16 17  1  0
 17 18  1  0
 18 19  1  0
 20 14  1  0
 20 21  1  0
 22 20  2  0
M  END
$$$$
