NGK.pdb
     RDKit          3D

 22 21  0  0  1  0  0  0  0  0999 V2000
   27.2883  -16.1161  -14.8558 N   0  0  0  0  0  0  0  0  0  0  0  0
   26.4033  -15.5873  -15.8478 C   0  0  0  0  0  0  0  0  0  0  0  0
   26.5867  -15.8370  -17.0480 O   0  0  0  0  0  0  0  0  0  0  0  0
   25.2845  -14.7470  -15.3808 C   0  0  0  0  0  0  0  0  0  0  0  0
   25.0625  -13.5513  -16.2710 C   0  0  2  0  0  0  0  0  0  0  0  0
   26.2757  -12.7984  -16.4353 N   0  0  0  0  0  0  0  0  0  0  0  0
   23.9492  -12.7746  -15.7000 C   0  0  0  0  0  0  0  0  0  0  0  0
   22.8589  -13.3695  -15.4723 O   0  0  0  0  0  0  0  0  0  0  0  0
   23.9859  -11.3975  -15.3762 N   0  0  0  0  0  0  0  0  0  0  0  0
   22.8849  -10.7337  -14.7040 C   0  0  0  0  0  0  0  0  0  0  0  0
   22.3262   -9.6412  -15.5482 C   0  0  0  0  0  0  0  0  0  0  0  0
   22.8033   -9.4252  -16.6923 O   0  0  0  0  0  0  0  0  0  0  0  0
   21.2622   -8.8516  -15.0602 N   0  0  0  0  0  0  0  0  0  0  0  0
   20.5586   -7.8455  -15.8280 C   0  0  1  0  0  0  0  0  0  0  0  0
   19.1000   -8.0401  -15.6802 C   0  0  0  0  0  0  0  0  0  0  0  0
   18.5582   -9.3765  -16.0417 C   0  0  0  0  0  0  0  0  0  0  0  0
   17.0942   -9.5700  -15.8628 C   0  0  0  0  0  0  0  0  0  0  0  0
   16.5496  -10.8891  -16.2993 C   0  0  0  0  0  0  0  0  0  0  0  0
   15.1757  -11.0960  -15.9860 N   0  0  0  0  0  0  0  0  0  0  0  0
   21.0499   -6.4689  -15.5501 C   0  0  0  0  0  0  0  0  0  0  0  0
   20.9599   -5.4217  -16.4246 O   0  0  0  0  0  0  0  0  0  0  0  0
   21.5869   -6.2432  -14.4375 O   0  0  0  0  0  0  0  0  0  0  0  0
  1  2  1  0
  2  3  2  0
  4  2  1  0
  5  4  1  0
  5  6  1  1
  7  5  1  0
  7  8  2  0
  9  7  1  0
 10  9  1  0
 10 11  1  0
 11 13  1  0
 12 11  2  0
 13 14  1  0
 14 15  1  1
 15 16  1  0
 16 17  1  0
 17 18  1  0
 18 19  1  0
 20 14  1  0
 20 21  1  0
 22 20  2  0
M  END
$$$$
