QGC.pdb
     RDKit          3D

 20 19  0  0  1  0  0  0  0  0999 V2000
   13.5920  -16.3141   20.5416 N   0  0  0  0  0  0  0  0  0  0  0  0
   13.8127  -15.4807   19.4178 C   0  0  0  0  0  0  0  0  0  0  0  0
   14.9767  -15.3285   18.9951 O   0  0  0  0  0  0  0  0  0  0  0  0
   12.6844  -14.8093   18.7657 C   0  0  0  0  0  0  0  0  0  0  0  0
   11.3461  -15.1097   19.3448 C   0  0  0  0  0  0  0  0  0  0  0  0
   10.6621  -13.9447   19.9757 C   0  0  2  0  0  0  0  0  0  0  0  0
   11.2937  -13.7334   21.2885 N   0  0  0  0  0  0  0  0  0  0  0  0
    9.2239  -14.2008   20.1976 C   0  0  0  0  0  0  0  0  0  0  0  0
    8.4080  -14.4199   19.2660 O   0  0  0  0  0  0  0  0  0  0  0  0
    8.6801  -14.2119   21.5091 N   0  0  0  0  0  0  0  0  0  0  0  0
    7.2732  -14.4440   21.7688 C   0  0  0  0  0  0  0  0  0  0  0  0
    7.0180  -14.4911   23.2215 C   0  0  0  0  0  0  0  0  0  0  0  0
    5.9370  -14.0181   23.6576 O   0  0  0  0  0  0  0  0  0  0  0  0
    7.9070  -15.0336   24.1686 N   0  0  0  0  0  0  0  0  0  0  0  0
    8.3566  -14.3233   25.3480 C   0  0  1  0  0  0  0  0  0  0  0  0
    7.2623  -14.2161   26.3894 C   0  0  0  0  0  0  0  0  0  0  0  0
    6.3188  -12.7017   26.0011 S   0  0  0  0  0  0  0  0  0  0  0  0
    9.4812  -15.0430   25.9732 C   0  0  0  0  0  0  0  0  0  0  0  0
    9.8424  -16.1405   25.5097 O   0  0  0  0  0  0  0  0  0  0  0  0
   10.1246  -14.5059   27.0584 O   0  0  0  0  0  0  0  0  0  0  0  0
  2  3  2  0
  2  1  1  0
  4  2  1  0
  5  4  1  0
  6  5  1  0
  6  7  1  1
  8  6  1  0
  8 10  1  0
  9  8  2  0
 11 10  1  0
 12 11  1  0
 13 12  2  0
 14 12  1  0
 15 14  1  0
 15 16  1  1
 16 17  1  0
 18 15  1  0
 19 18  2  0
 20 18  1  0
M  END
$$$$
