QGC.pdb
     RDKit          3D

 20 19  0  0  1  0  0  0  0  0999 V2000
    8.1499  -20.4332   21.8072 N   0  0  0  0  0  0  0  0  0  0  0  0
    8.5992  -20.4668   20.4643 C   0  0  0  0  0  0  0  0  0  0  0  0
    8.4456  -21.5114   19.7995 O   0  0  0  0  0  0  0  0  0  0  0  0
    9.2352  -19.2870   19.8707 C   0  0  0  0  0  0  0  0  0  0  0  0
    9.6672  -19.4435   18.4545 C   0  0  0  0  0  0  0  0  0  0  0  0
   11.1439  -19.4830   18.2521 C   0  0  2  0  0  0  0  0  0  0  0  0
   11.6794  -20.4907   19.1819 N   0  0  0  0  0  0  0  0  0  0  0  0
   11.7807  -18.1875   18.5674 C   0  0  0  0  0  0  0  0  0  0  0  0
   11.9579  -17.2782   17.7169 O   0  0  0  0  0  0  0  0  0  0  0  0
   12.2351  -17.9002   19.8814 N   0  0  0  0  0  0  0  0  0  0  0  0
   12.9091  -16.6629   20.2211 C   0  0  0  0  0  0  0  0  0  0  0  0
   13.1074  -16.5676   21.6803 C   0  0  0  0  0  0  0  0  0  0  0  0
   13.7394  -15.5809   22.1379 O   0  0  0  0  0  0  0  0  0  0  0  0
   12.6350  -17.5120   22.6111 N   0  0  0  0  0  0  0  0  0  0  0  0
   12.9035  -17.4432   24.0326 C   0  0  1  0  0  0  0  0  0  0  0  0
   11.9147  -18.2671   24.8308 C   0  0  0  0  0  0  0  0  0  0  0  0
   12.1278  -17.7877   26.5799 S   0  0  0  0  0  0  0  0  0  0  0  0
   14.2464  -17.9798   24.3198 C   0  0  0  0  0  0  0  0  0  0  0  0
   14.7391  -18.8390   23.5656 O   0  0  0  0  0  0  0  0  0  0  0  0
   14.9472  -17.5345   25.4109 O   0  0  0  0  0  0  0  0  0  0  0  0
  2  3  2  0
  2  1  1  0
  4  2  1  0
  5  4  1  0
  6  5  1  0
  6  7  1  1
  8  6  1  0
  8 10  1  0
  9  8  2  0
 11 10  1  0
 12 11  1  0
 13 12  2  0
 14 12  1  0
 15 14  1  0
 15 16  1  1
 16 17  1  0
 18 15  1  0
 19 18  2  0
 20 18  1  0
M  END
$$$$
