QGC.pdb
     RDKit          3D

 20 19  0  0  1  0  0  0  0  0999 V2000
   16.3572  -17.3520   13.6413 N   0  0  0  0  0  0  0  0  0  0  0  0
   15.6776  -16.1321   13.8782 C   0  0  0  0  0  0  0  0  0  0  0  0
   16.3201  -15.1543   14.3115 O   0  0  0  0  0  0  0  0  0  0  0  0
   14.2391  -16.0274   13.6159 C   0  0  0  0  0  0  0  0  0  0  0  0
   13.4774  -15.1872   14.5805 C   0  0  0  0  0  0  0  0  0  0  0  0
   13.1961  -15.8394   15.8915 C   0  0  2  0  0  0  0  0  0  0  0  0
   11.8993  -16.5241   15.7626 N   0  0  0  0  0  0  0  0  0  0  0  0
   13.0847  -14.8545   16.9872 C   0  0  0  0  0  0  0  0  0  0  0  0
   12.8756  -13.6289   16.7977 O   0  0  0  0  0  0  0  0  0  0  0  0
   13.2121  -15.2560   18.3430 N   0  0  0  0  0  0  0  0  0  0  0  0
   13.0464  -14.3341   19.4490 C   0  0  0  0  0  0  0  0  0  0  0  0
   13.0652  -15.0608   20.7332 C   0  0  0  0  0  0  0  0  0  0  0  0
   14.1639  -15.1983   21.3302 O   0  0  0  0  0  0  0  0  0  0  0  0
   11.9289  -15.6194   21.3484 N   0  0  0  0  0  0  0  0  0  0  0  0
   11.9872  -16.4923   22.5026 C   0  0  1  0  0  0  0  0  0  0  0  0
   10.7386  -16.3826   23.3525 C   0  0  0  0  0  0  0  0  0  0  0  0
   10.4868  -14.6043   23.6828 S   0  0  0  0  0  0  0  0  0  0  0  0
   12.0942  -17.8973   22.0687 C   0  0  0  0  0  0  0  0  0  0  0  0
   11.9917  -18.1767   20.8598 O   0  0  0  0  0  0  0  0  0  0  0  0
   12.3053  -18.8891   22.9916 O   0  0  0  0  0  0  0  0  0  0  0  0
  2  3  2  0
  2  1  1  0
  4  2  1  0
  5  4  1  0
  6  5  1  0
  6  7  1  6
  8  6  1  0
  8 10  1  0
  9  8  2  0
 11 10  1  0
 12 11  1  0
 13 12  2  0
 14 12  1  0
 15 14  1  0
 15 16  1  6
 16 17  1  0
 18 15  1  0
 19 18  2  0
 20 18  1  0
M  END
$$$$
