QGC.pdb
     RDKit          3D

 20 19  0  0  1  0  0  0  0  0999 V2000
    7.3399  -14.7376   16.0474 N   0  0  0  0  0  0  0  0  0  0  0  0
    8.6053  -14.9900   16.6316 C   0  0  0  0  0  0  0  0  0  0  0  0
    9.4164  -15.7217   16.0287 O   0  0  0  0  0  0  0  0  0  0  0  0
    8.9500  -14.3967   17.9270 C   0  0  0  0  0  0  0  0  0  0  0  0
    7.8807  -13.5700   18.5514 C   0  0  0  0  0  0  0  0  0  0  0  0
    8.2152  -13.0303   19.9004 C   0  0  2  0  0  0  0  0  0  0  0  0
    9.6769  -12.8628   19.9471 N   0  0  0  0  0  0  0  0  0  0  0  0
    7.8281  -13.9611   20.9806 C   0  0  0  0  0  0  0  0  0  0  0  0
    6.6344  -14.2519   21.2491 O   0  0  0  0  0  0  0  0  0  0  0  0
    8.8126  -14.5885   21.7887 N   0  0  0  0  0  0  0  0  0  0  0  0
    8.4740  -15.4718   22.8868 C   0  0  0  0  0  0  0  0  0  0  0  0
    8.8368  -14.8533   24.1766 C   0  0  0  0  0  0  0  0  0  0  0  0
   10.0423  -14.8744   24.5354 O   0  0  0  0  0  0  0  0  0  0  0  0
    7.9212  -14.2328   25.0473 N   0  0  0  0  0  0  0  0  0  0  0  0
    8.2764  -13.7191   26.3541 C   0  0  1  0  0  0  0  0  0  0  0  0
    7.1191  -12.9893   27.0034 C   0  0  0  0  0  0  0  0  0  0  0  0
    6.4755  -11.8191   25.7581 S   0  0  0  0  0  0  0  0  0  0  0  0
    8.6460  -14.8300   27.2502 C   0  0  0  0  0  0  0  0  0  0  0  0
    8.4822  -16.0049   26.8727 O   0  0  0  0  0  0  0  0  0  0  0  0
    9.1670  -14.5694   28.4915 O   0  0  0  0  0  0  0  0  0  0  0  0
  2  3  2  0
  2  1  1  0
  4  2  1  0
  5  4  1  0
  6  5  1  0
  6  7  1  6
  8  6  1  0
  8 10  1  0
  9  8  2  0
 11 10  1  0
 12 11  1  0
 13 12  2  0
 14 12  1  0
 15 14  1  0
 15 16  1  1
 16 17  1  0
 18 15  1  0
 19 18  2  0
 20 18  1  0
M  END
$$$$
