QGC.pdb
     RDKit          3D

 20 19  0  0  1  0  0  0  0  0999 V2000
    6.8447  -14.2321   20.2401 N   0  0  0  0  0  0  0  0  0  0  0  0
    7.6579  -13.1626   19.7916 C   0  0  0  0  0  0  0  0  0  0  0  0
    8.0097  -12.2854   20.6061 O   0  0  0  0  0  0  0  0  0  0  0  0
    8.0761  -13.0937   18.3883 C   0  0  0  0  0  0  0  0  0  0  0  0
    9.3046  -13.8652   18.0532 C   0  0  0  0  0  0  0  0  0  0  0  0
    9.1352  -15.3465   18.0652 C   0  0  2  0  0  0  0  0  0  0  0  0
    7.7557  -15.6259   17.6342 N   0  0  0  0  0  0  0  0  0  0  0  0
    9.3138  -15.9132   19.4180 C   0  0  0  0  0  0  0  0  0  0  0  0
   10.4207  -15.9464   20.0140 O   0  0  0  0  0  0  0  0  0  0  0  0
    8.2140  -16.4622   20.1286 N   0  0  0  0  0  0  0  0  0  0  0  0
    8.3590  -17.0923   21.4257 C   0  0  0  0  0  0  0  0  0  0  0  0
    8.8916  -16.1301   22.4097 C   0  0  0  0  0  0  0  0  0  0  0  0
   10.0963  -15.7802   22.3171 O   0  0  0  0  0  0  0  0  0  0  0  0
    8.1409  -15.5670   23.4589 N   0  0  0  0  0  0  0  0  0  0  0  0
    8.7276  -15.0365   24.6722 C   0  0  1  0  0  0  0  0  0  0  0  0
    7.6761  -14.4652   25.6004 C   0  0  0  0  0  0  0  0  0  0  0  0
    6.7697  -13.1995   24.6459 S   0  0  0  0  0  0  0  0  0  0  0  0
    9.4200  -16.1092   25.4095 C   0  0  0  0  0  0  0  0  0  0  0  0
    9.3002  -17.2899   25.0334 O   0  0  0  0  0  0  0  0  0  0  0  0
   10.1909  -15.8071   26.5024 O   0  0  0  0  0  0  0  0  0  0  0  0
  2  3  2  0
  2  1  1  0
  4  2  1  0
  5  4  1  0
  6  5  1  0
  6  7  1  1
  8  6  1  0
  8 10  1  0
  9  8  2  0
 11 10  1  0
 12 11  1  0
 13 12  2  0
 14 12  1  0
 15 14  1  0
 15 16  1  1
 16 17  1  0
 18 15  1  0
 19 18  2  0
 20 18  1  0
M  END
$$$$
