QGC.pdb
     RDKit          3D

 20 19  0  0  1  0  0  0  0  0999 V2000
    7.4601  -22.9106   21.1943 N   0  0  0  0  0  0  0  0  0  0  0  0
    7.9669  -22.3132   22.3743 C   0  0  0  0  0  0  0  0  0  0  0  0
    8.6823  -22.9921   23.1386 O   0  0  0  0  0  0  0  0  0  0  0  0
    7.6508  -20.9163   22.6870 C   0  0  0  0  0  0  0  0  0  0  0  0
    6.8103  -20.2144   21.6783 C   0  0  0  0  0  0  0  0  0  0  0  0
    7.0306  -18.7420   21.5966 C   0  0  2  0  0  0  0  0  0  0  0  0
    8.4844  -18.5197   21.6606 N   0  0  0  0  0  0  0  0  0  0  0  0
    6.4095  -18.0257   22.7298 C   0  0  0  0  0  0  0  0  0  0  0  0
    5.1676  -17.8707   22.8537 O   0  0  0  0  0  0  0  0  0  0  0  0
    7.2072  -17.4630   23.7608 N   0  0  0  0  0  0  0  0  0  0  0  0
    6.6362  -16.7823   24.9059 C   0  0  0  0  0  0  0  0  0  0  0  0
    7.2847  -15.4714   25.1026 C   0  0  0  0  0  0  0  0  0  0  0  0
    8.3235  -15.2097   24.4432 O   0  0  0  0  0  0  0  0  0  0  0  0
    6.8206  -14.4783   25.9856 N   0  0  0  0  0  0  0  0  0  0  0  0
    7.6009  -13.3227   26.3772 C   0  0  1  0  0  0  0  0  0  0  0  0
    6.8155  -12.3959   27.2816 C   0  0  0  0  0  0  0  0  0  0  0  0
    5.2112  -12.1016   26.4606 S   0  0  0  0  0  0  0  0  0  0  0  0
    8.7958  -13.7505   27.1274 C   0  0  0  0  0  0  0  0  0  0  0  0
    8.8999  -14.9357   27.4938 O   0  0  0  0  0  0  0  0  0  0  0  0
    9.7858  -12.8477   27.4191 O   0  0  0  0  0  0  0  0  0  0  0  0
  2  3  2  0
  2  1  1  0
  4  2  1  0
  5  4  1  0
  6  5  1  0
  6  7  1  1
  8  6  1  0
  8 10  1  0
  9  8  2  0
 11 10  1  0
 12 11  1  0
 13 12  2  0
 14 12  1  0
 15 14  1  0
 15 16  1  1
 16 17  1  0
 18 15  1  0
 19 18  2  0
 20 18  1  0
M  END
$$$$
