QGC.pdb
     RDKit          3D

 20 19  0  0  1  0  0  0  0  0999 V2000
    8.0175  -21.7011   19.8440 N   0  0  0  0  0  0  0  0  0  0  0  0
    6.7255  -21.3293   20.2896 C   0  0  0  0  0  0  0  0  0  0  0  0
    5.8310  -22.1971   20.3476 O   0  0  0  0  0  0  0  0  0  0  0  0
    6.4503  -19.9420   20.6753 C   0  0  0  0  0  0  0  0  0  0  0  0
    7.5566  -18.9797   20.4167 C   0  0  0  0  0  0  0  0  0  0  0  0
    8.3982  -18.6605   21.6053 C   0  0  2  0  0  0  0  0  0  0  0  0
    8.4232  -19.8649   22.4514 N   0  0  0  0  0  0  0  0  0  0  0  0
    7.8315  -17.5540   22.4039 C   0  0  0  0  0  0  0  0  0  0  0  0
    7.6541  -16.3941   21.9514 O   0  0  0  0  0  0  0  0  0  0  0  0
    7.4500  -17.7534   23.7568 N   0  0  0  0  0  0  0  0  0  0  0  0
    6.8677  -16.7019   24.5666 C   0  0  0  0  0  0  0  0  0  0  0  0
    7.9238  -15.9460   25.2673 C   0  0  0  0  0  0  0  0  0  0  0  0
    9.1157  -16.3315   25.1527 O   0  0  0  0  0  0  0  0  0  0  0  0
    7.6931  -14.8098   26.0656 N   0  0  0  0  0  0  0  0  0  0  0  0
    8.7443  -14.0678   26.7305 C   0  0  1  0  0  0  0  0  0  0  0  0
    8.1944  -12.8893   27.5065 C   0  0  0  0  0  0  0  0  0  0  0  0
    6.8946  -12.1399   26.4656 S   0  0  0  0  0  0  0  0  0  0  0  0
    9.4418  -14.9358   27.6969 C   0  0  0  0  0  0  0  0  0  0  0  0
    8.9837  -16.0651   27.9509 O   0  0  0  0  0  0  0  0  0  0  0  0
   10.5877  -14.5007   28.3114 O   0  0  0  0  0  0  0  0  0  0  0  0
  2  3  2  0
  2  1  1  0
  4  2  1  0
  5  4  1  0
  6  5  1  0
  6  7  1  1
  8  6  1  0
  8 10  1  0
  9  8  2  0
 11 10  1  0
 12 11  1  0
 13 12  2  0
 14 12  1  0
 15 14  1  0
 15 16  1  1
 16 17  1  0
 18 15  1  0
 19 18  2  0
 20 18  1  0
M  END
$$$$
