QGC.pdb
     RDKit          3D

 20 19  0  0  1  0  0  0  0  0999 V2000
   11.5435  -17.7537   18.2355 N   0  0  0  0  0  0  0  0  0  0  0  0
   10.5451  -18.7518   18.1214 C   0  0  0  0  0  0  0  0  0  0  0  0
   10.8546  -19.8693   17.6608 O   0  0  0  0  0  0  0  0  0  0  0  0
    9.1691  -18.4684   18.5402 C   0  0  0  0  0  0  0  0  0  0  0  0
    8.9406  -17.1030   19.0880 C   0  0  0  0  0  0  0  0  0  0  0  0
    9.0037  -17.0072   20.5746 C   0  0  2  0  0  0  0  0  0  0  0  0
    8.1074  -18.0442   21.1116 N   0  0  0  0  0  0  0  0  0  0  0  0
    8.5302  -15.6965   21.0655 C   0  0  0  0  0  0  0  0  0  0  0  0
    9.1107  -14.6106   20.8094 O   0  0  0  0  0  0  0  0  0  0  0  0
    7.3656  -15.5982   21.8716 N   0  0  0  0  0  0  0  0  0  0  0  0
    6.9121  -14.3436   22.4380 C   0  0  0  0  0  0  0  0  0  0  0  0
    7.6060  -14.0723   23.7118 C   0  0  0  0  0  0  0  0  0  0  0  0
    8.7083  -14.6385   23.9284 O   0  0  0  0  0  0  0  0  0  0  0  0
    7.1192  -13.2149   24.7165 N   0  0  0  0  0  0  0  0  0  0  0  0
    7.9027  -12.7870   25.8570 C   0  0  1  0  0  0  0  0  0  0  0  0
    7.2369  -11.6469   26.5989 C   0  0  0  0  0  0  0  0  0  0  0  0
    5.4884  -12.1222   26.8256 S   0  0  0  0  0  0  0  0  0  0  0  0
    8.0511  -13.8988   26.8139 C   0  0  0  0  0  0  0  0  0  0  0  0
    7.3637  -14.9271   26.6727 O   0  0  0  0  0  0  0  0  0  0  0  0
    8.9410  -13.7998   27.8523 O   0  0  0  0  0  0  0  0  0  0  0  0
  2  3  2  0
  2  1  1  0
  4  2  1  0
  5  4  1  0
  6  5  1  0
  6  7  1  1
  8  6  1  0
  8 10  1  0
  9  8  2  0
 11 10  1  0
 12 11  1  0
 13 12  2  0
 14 12  1  0
 15 14  1  0
 15 16  1  1
 16 17  1  0
 18 15  1  0
 19 18  2  0
 20 18  1  0
M  END
$$$$
