QGC.pdb
     RDKit          3D

 20 19  0  0  1  0  0  0  0  0999 V2000
    8.2793  -13.4324   15.7117 N   0  0  0  0  0  0  0  0  0  0  0  0
    8.3554  -14.8326   15.9109 C   0  0  0  0  0  0  0  0  0  0  0  0
    7.7391  -15.5900   15.1341 O   0  0  0  0  0  0  0  0  0  0  0  0
    9.1488  -15.3773   17.0167 C   0  0  0  0  0  0  0  0  0  0  0  0
    8.3987  -15.6114   18.2813 C   0  0  0  0  0  0  0  0  0  0  0  0
    8.2066  -14.3991   19.1279 C   0  0  2  0  0  0  0  0  0  0  0  0
    9.5434  -13.9586   19.5592 N   0  0  0  0  0  0  0  0  0  0  0  0
    7.4098  -14.6894   20.3378 C   0  0  0  0  0  0  0  0  0  0  0  0
    6.2451  -15.1624   20.3026 O   0  0  0  0  0  0  0  0  0  0  0  0
    7.9358  -14.4411   21.6330 N   0  0  0  0  0  0  0  0  0  0  0  0
    7.1888  -14.7149   22.8444 C   0  0  0  0  0  0  0  0  0  0  0  0
    8.0273  -14.4696   24.0337 C   0  0  0  0  0  0  0  0  0  0  0  0
    9.2759  -14.4192   23.8890 O   0  0  0  0  0  0  0  0  0  0  0  0
    7.5265  -14.2851   25.3363 N   0  0  0  0  0  0  0  0  0  0  0  0
    8.3570  -13.9637   26.4786 C   0  0  1  0  0  0  0  0  0  0  0  0
    7.5960  -13.1698   27.5197 C   0  0  0  0  0  0  0  0  0  0  0  0
    6.6817  -11.8704   26.6196 S   0  0  0  0  0  0  0  0  0  0  0  0
    8.8202  -15.2021   27.1309 C   0  0  0  0  0  0  0  0  0  0  0  0
    8.3386  -16.2966   26.7844 O   0  0  0  0  0  0  0  0  0  0  0  0
    9.7756  -15.1476   28.1129 O   0  0  0  0  0  0  0  0  0  0  0  0
  2  3  2  0
  2  1  1  0
  4  2  1  0
  5  4  1  0
  6  5  1  0
  6  7  1  1
  8  6  1  0
  8 10  1  0
  9  8  2  0
 11 10  1  0
 12 11  1  0
 13 12  2  0
 14 12  1  0
 15 14  1  0
 15 16  1  1
 16 17  1  0
 18 15  1  0
 19 18  2  0
 20 18  1  0
M  END
$$$$
