QGC.pdb
     RDKit          3D

 20 19  0  0  1  0  0  0  0  0999 V2000
    9.2173  -13.3124   18.6345 N   0  0  0  0  0  0  0  0  0  0  0  0
    7.8267  -13.5777   18.5891 C   0  0  0  0  0  0  0  0  0  0  0  0
    7.2411  -13.5573   17.4876 O   0  0  0  0  0  0  0  0  0  0  0  0
    7.0922  -13.8709   19.8234 C   0  0  0  0  0  0  0  0  0  0  0  0
    7.9307  -13.9926   21.0476 C   0  0  0  0  0  0  0  0  0  0  0  0
    8.4796  -15.3564   21.2964 C   0  0  2  0  0  0  0  0  0  0  0  0
    7.3563  -16.1990   21.7380 N   0  0  0  0  0  0  0  0  0  0  0  0
    9.4980  -15.3565   22.3670 C   0  0  0  0  0  0  0  0  0  0  0  0
   10.5422  -14.6566   22.3290 O   0  0  0  0  0  0  0  0  0  0  0  0
    9.3416  -16.1689   23.5208 N   0  0  0  0  0  0  0  0  0  0  0  0
   10.4597  -16.5667   24.3527 C   0  0  0  0  0  0  0  0  0  0  0  0
   10.2221  -16.1775   25.7562 C   0  0  0  0  0  0  0  0  0  0  0  0
    9.8963  -17.0701   26.5806 O   0  0  0  0  0  0  0  0  0  0  0  0
   10.3346  -14.8633   26.2477 N   0  0  0  0  0  0  0  0  0  0  0  0
   10.1067  -14.5004   27.6312 C   0  0  1  0  0  0  0  0  0  0  0  0
    8.6392  -14.2532   27.9119 C   0  0  0  0  0  0  0  0  0  0  0  0
    8.1457  -12.8238   26.8881 S   0  0  0  0  0  0  0  0  0  0  0  0
   10.5394  -15.5954   28.5187 C   0  0  0  0  0  0  0  0  0  0  0  0
   10.8112  -16.7090   28.0332 O   0  0  0  0  0  0  0  0  0  0  0  0
   10.6413  -15.3872   29.8701 O   0  0  0  0  0  0  0  0  0  0  0  0
  2  3  2  0
  2  1  1  0
  4  2  1  0
  5  4  1  0
  6  5  1  0
  6  7  1  1
  8  6  1  0
  8 10  1  0
  9  8  2  0
 11 10  1  0
 12 11  1  0
 13 12  2  0
 14 12  1  0
 15 14  1  0
 15 16  1  6
 16 17  1  0
 18 15  1  0
 19 18  2  0
 20 18  1  0
M  END
$$$$
