FLW.pdb
     RDKit          3D

 34 36  0  0  1  0  0  0  0  0999 V2000
   24.3554  -16.0038  -17.4797 N   0  0  0  0  0  0  0  0  0  0  0  0
   24.4650  -17.4029  -17.0763 C   0  0  1  0  0  0  0  0  0  0  0  0
   25.3605  -17.4799  -15.8608 C   0  0  0  0  0  0  0  0  0  0  0  0
   26.7515  -17.0867  -16.1133 C   0  0  0  0  0  0  0  0  0  0  0  0
   27.5911  -17.9569  -16.8110 C   0  0  0  0  0  0  0  0  0  0  0  0
   28.8940  -17.6075  -17.0592 C   0  0  0  0  0  0  0  0  0  0  0  0
   29.3648  -16.4029  -16.6194 C   0  0  0  0  0  0  0  0  0  0  0  0
   28.5743  -15.5167  -15.9294 C   0  0  0  0  0  0  0  0  0  0  0  0
   27.2633  -15.8832  -15.6870 C   0  0  0  0  0  0  0  0  0  0  0  0
   23.1423  -17.9851  -16.8189 C   0  0  0  0  0  0  0  0  0  0  0  0
   22.3734  -17.4517  -15.9813 O   0  0  0  0  0  0  0  0  0  0  0  0
   19.7765  -17.7165  -18.9758 C   0  0  0  0  0  0  0  0  0  0  0  0
   19.5244  -19.1900  -18.9423 C   0  0  1  0  0  0  0  0  0  0  0  0
   19.1251  -19.5839  -20.3781 C   0  0  0  0  0  0  0  0  0  0  0  0
   20.7023  -20.0257  -18.5963 C   0  0  0  0  0  0  0  0  0  0  0  0
   21.3517  -19.7212  -17.2986 C   0  0  2  0  0  0  0  0  0  0  0  0
   22.6698  -19.1487  -17.4807 N   0  0  0  0  0  0  0  0  0  0  0  0
   21.4303  -20.8495  -16.3608 C   0  0  0  0  0  0  0  0  0  0  0  0
   22.3264  -21.7230  -16.5123 O   0  0  0  0  0  0  0  0  0  0  0  0
   20.5197  -20.9771  -15.2898 N   0  0  0  0  0  0  0  0  0  0  0  0
   20.7145  -22.0844  -14.3451 C   0  0  1  0  0  0  0  0  0  0  0  0
   21.2095  -21.5362  -13.0435 C   0  0  0  0  0  0  0  0  0  0  0  0
   20.2948  -20.6704  -12.3286 C   0  0  0  0  0  0  0  0  0  0  0  0
   19.3746  -21.0918  -11.3511 C   0  0  0  0  0  0  0  0  0  0  0  0
   18.6575  -20.0435  -10.9221 N   0  0  0  0  0  0  0  0  0  0  0  0
   19.0949  -18.9454  -11.6017 C   0  0  0  0  0  0  0  0  0  0  0  0
   18.6847  -17.6230  -11.5065 C   0  0  0  0  0  0  0  0  0  0  0  0
   19.2740  -16.6505  -12.2745 C   0  0  0  0  0  0  0  0  0  0  0  0
   20.2910  -17.0084  -13.1528 C   0  0  0  0  0  0  0  0  0  0  0  0
   20.6921  -18.3194  -13.2431 C   0  0  0  0  0  0  0  0  0  0  0  0
   20.0991  -19.3105  -12.4686 C   0  0  0  0  0  0  0  0  0  0  0  0
   19.4587  -22.8263  -14.2033 C   0  0  0  0  0  0  0  0  0  0  0  0
   19.5078  -24.1317  -13.6895 O   0  0  0  0  0  0  0  0  0  0  0  0
   18.3198  -22.4016  -14.5018 O   0  0  0  0  0  0  0  0  0  0  0  0
  2  1  1  1
  3  2  1  0
  3  4  1  0
  4  5  2  0
  5  6  1  0
  7  6  2  0
  8  7  1  0
  9  8  2  0
  9  4  1  0
 10 11  2  0
 10  2  1  0
 13 14  1  6
 13 12  1  0
 15 13  1  0
 16 15  1  6
 16 17  1  0
 17 10  1  0
 18 16  1  0
 19 18  2  0
 20 18  1  0
 21 22  1  1
 21 20  1  0
 22 23  1  0
 23 31  1  0
 23 24  2  0
 24 25  1  0
 26 25  1  0
 26 27  2  0
 28 27  1  0
 29 28  2  0
 30 31  2  0
 30 29  1  0
 31 26  1  0
 32 21  1  0
 33 32  1  0
 34 32  2  0
M  END
$$$$
