FLW.pdb
     RDKit          3D

 34 36  0  0  1  0  0  0  0  0999 V2000
   37.6667  -32.1738  -17.5037 N   0  0  0  0  0  0  0  0  0  0  0  0
   36.2739  -32.0975  -17.0716 C   0  0  1  0  0  0  0  0  0  0  0  0
   35.3969  -32.0219  -18.3004 C   0  0  0  0  0  0  0  0  0  0  0  0
   35.5782  -30.8010  -19.0940 C   0  0  0  0  0  0  0  0  0  0  0  0
   35.1610  -29.5768  -18.5684 C   0  0  0  0  0  0  0  0  0  0  0  0
   35.3232  -28.4236  -19.2931 C   0  0  0  0  0  0  0  0  0  0  0  0
   35.8956  -28.4806  -20.5322 C   0  0  0  0  0  0  0  0  0  0  0  0
   36.3202  -29.6627  -21.0878 C   0  0  0  0  0  0  0  0  0  0  0  0
   36.1497  -30.8164  -20.3450 C   0  0  0  0  0  0  0  0  0  0  0  0
   35.9213  -33.2379  -16.2172 C   0  0  0  0  0  0  0  0  0  0  0  0
   36.3724  -34.3808  -16.4773 O   0  0  0  0  0  0  0  0  0  0  0  0
   36.0056  -33.1557  -10.8332 C   0  0  0  0  0  0  0  0  0  0  0  0
   35.9999  -33.5838  -12.2658 C   0  0  1  0  0  0  0  0  0  0  0  0
   36.8125  -34.8927  -12.3197 C   0  0  0  0  0  0  0  0  0  0  0  0
   34.6619  -33.9042  -12.8252 C   0  0  0  0  0  0  0  0  0  0  0  0
   34.6277  -34.2320  -14.2708 C   0  0  2  0  0  0  0  0  0  0  0  0
   35.0760  -33.1194  -15.0829 N   0  0  0  0  0  0  0  0  0  0  0  0
   33.3331  -34.7155  -14.7700 C   0  0  0  0  0  0  0  0  0  0  0  0
   32.8239  -35.7558  -14.2726 O   0  0  0  0  0  0  0  0  0  0  0  0
   32.6451  -34.0376  -15.7993 N   0  0  0  0  0  0  0  0  0  0  0  0
   31.3022  -34.5095  -16.1604 C   0  0  1  0  0  0  0  0  0  0  0  0
   30.5052  -33.3593  -16.6910 C   0  0  0  0  0  0  0  0  0  0  0  0
   29.5540  -33.6729  -17.7370 C   0  0  0  0  0  0  0  0  0  0  0  0
   28.5626  -34.6686  -17.6608 C   0  0  0  0  0  0  0  0  0  0  0  0
   27.8831  -34.7205  -18.8152 N   0  0  0  0  0  0  0  0  0  0  0  0
   28.4130  -33.7752  -19.6426 C   0  0  0  0  0  0  0  0  0  0  0  0
   28.0491  -33.4247  -20.9352 C   0  0  0  0  0  0  0  0  0  0  0  0
   28.7043  -32.4174  -21.5978 C   0  0  0  0  0  0  0  0  0  0  0  0
   29.7414  -31.7501  -20.9552 C   0  0  0  0  0  0  0  0  0  0  0  0
   30.0974  -32.1023  -19.6759 C   0  0  0  0  0  0  0  0  0  0  0  0
   29.4386  -33.1225  -18.9983 C   0  0  0  0  0  0  0  0  0  0  0  0
   31.4178  -35.6075  -17.1240 C   0  0  0  0  0  0  0  0  0  0  0  0
   32.6515  -35.8098  -17.7623 O   0  0  0  0  0  0  0  0  0  0  0  0
   30.5040  -36.4017  -17.4419 O   0  0  0  0  0  0  0  0  0  0  0  0
  2  1  1  6
  3  2  1  0
  3  4  1  0
  4  5  2  0
  5  6  1  0
  7  6  2  0
  8  7  1  0
  9  8  2  0
  9  4  1  0
 10 11  2  0
 10  2  1  0
 13 14  1  1
 13 12  1  0
 15 13  1  0
 16 15  1  1
 16 17  1  0
 17 10  1  0
 18 16  1  0
 19 18  2  0
 20 18  1  0
 21 22  1  6
 21 20  1  0
 22 23  1  0
 23 31  1  0
 23 24  2  0
 24 25  1  0
 26 25  1  0
 26 27  2  0
 28 27  1  0
 29 28  2  0
 30 31  2  0
 30 29  1  0
 31 26  1  0
 32 21  1  0
 33 32  1  0
 34 32  2  0
M  END
$$$$
