FLW.pdb
     RDKit          3D

 34 36  0  0  1  0  0  0  0  0999 V2000
   22.9601  -18.6635  -19.1279 N   0  0  0  0  0  0  0  0  0  0  0  0
   23.6026  -18.1167  -17.9360 C   0  0  1  0  0  0  0  0  0  0  0  0
   22.6079  -18.1548  -16.7983 C   0  0  0  0  0  0  0  0  0  0  0  0
   21.4364  -17.2933  -16.9951 C   0  0  0  0  0  0  0  0  0  0  0  0
   20.1667  -17.8706  -17.0551 C   0  0  0  0  0  0  0  0  0  0  0  0
   19.0586  -17.0830  -17.2363 C   0  0  0  0  0  0  0  0  0  0  0  0
   19.2052  -15.7302  -17.3578 C   0  0  0  0  0  0  0  0  0  0  0  0
   20.4347  -15.1203  -17.3050 C   0  0  0  0  0  0  0  0  0  0  0  0
   21.5420  -15.9278  -17.1219 C   0  0  0  0  0  0  0  0  0  0  0  0
   24.8318  -18.8511  -17.6127 C   0  0  0  0  0  0  0  0  0  0  0  0
   24.9264  -20.0716  -17.8932 O   0  0  0  0  0  0  0  0  0  0  0  0
   28.4748  -17.4301  -18.8483 C   0  0  0  0  0  0  0  0  0  0  0  0
   29.1698  -17.8832  -17.6043 C   0  0  1  0  0  0  0  0  0  0  0  0
   30.1842  -16.7751  -17.2585 C   0  0  0  0  0  0  0  0  0  0  0  0
   28.2980  -18.0331  -16.4113 C   0  0  0  0  0  0  0  0  0  0  0  0
   27.1436  -18.9506  -16.5660 C   0  0  2  0  0  0  0  0  0  0  0  0
   25.9500  -18.2439  -16.9835 N   0  0  0  0  0  0  0  0  0  0  0  0
   26.8406  -19.7754  -15.3884 C   0  0  0  0  0  0  0  0  0  0  0  0
   27.6304  -20.7001  -15.0567 O   0  0  0  0  0  0  0  0  0  0  0  0
   25.6788  -19.5539  -14.6179 N   0  0  0  0  0  0  0  0  0  0  0  0
   25.4589  -20.4020  -13.4394 C   0  0  1  0  0  0  0  0  0  0  0  0
   25.3627  -19.5351  -12.2233 C   0  0  0  0  0  0  0  0  0  0  0  0
   25.0185  -20.2078  -10.9878 C   0  0  0  0  0  0  0  0  0  0  0  0
   25.9392  -20.6441  -10.0173 C   0  0  0  0  0  0  0  0  0  0  0  0
   25.2886  -21.2617   -9.0211 N   0  0  0  0  0  0  0  0  0  0  0  0
   23.9596  -21.2346   -9.3241 C   0  0  0  0  0  0  0  0  0  0  0  0
   22.8771  -21.7244   -8.6068 C   0  0  0  0  0  0  0  0  0  0  0  0
   21.5983  -21.5763   -9.0817 C   0  0  0  0  0  0  0  0  0  0  0  0
   21.4002  -20.9269  -10.2953 C   0  0  0  0  0  0  0  0  0  0  0  0
   22.4759  -20.4449  -11.0010 C   0  0  0  0  0  0  0  0  0  0  0  0
   23.7748  -20.5919  -10.5266 C   0  0  0  0  0  0  0  0  0  0  0  0
   24.2591  -21.2175  -13.6468 C   0  0  0  0  0  0  0  0  0  0  0  0
   24.1114  -22.3931  -12.8942 O   0  0  0  0  0  0  0  0  0  0  0  0
   23.3310  -20.9637  -14.4474 O   0  0  0  0  0  0  0  0  0  0  0  0
  2  1  1  6
  3  2  1  0
  3  4  1  0
  4  5  2  0
  5  6  1  0
  7  6  2  0
  8  7  1  0
  9  8  2  0
  9  4  1  0
 10 11  2  0
 10  2  1  0
 13 14  1  1
 13 12  1  0
 15 13  1  0
 16 15  1  1
 16 17  1  0
 17 10  1  0
 18 16  1  0
 19 18  2  0
 20 18  1  0
 21 22  1  1
 21 20  1  0
 22 23  1  0
 23 31  1  0
 23 24  2  0
 24 25  1  0
 26 25  1  0
 26 27  2  0
 28 27  1  0
 29 28  2  0
 30 31  2  0
 30 29  1  0
 31 26  1  0
 32 21  1  0
 33 32  1  0
 34 32  2  0
M  END
$$$$
