FLW.pdb
     RDKit          3D

 34 36  0  0  1  0  0  0  0  0999 V2000
   25.7926  -20.5582  -17.8499 N   0  0  0  0  0  0  0  0  0  0  0  0
   25.2670  -19.8232  -16.7028 C   0  0  1  0  0  0  0  0  0  0  0  0
   23.9091  -19.2710  -17.0720 C   0  0  0  0  0  0  0  0  0  0  0  0
   23.9399  -18.2616  -18.1367 C   0  0  0  0  0  0  0  0  0  0  0  0
   23.5184  -18.6108  -19.4210 C   0  0  0  0  0  0  0  0  0  0  0  0
   23.5374  -17.6817  -20.4297 C   0  0  0  0  0  0  0  0  0  0  0  0
   23.9714  -16.4127  -20.1698 C   0  0  0  0  0  0  0  0  0  0  0  0
   24.3949  -16.0260  -18.9218 C   0  0  0  0  0  0  0  0  0  0  0  0
   24.3698  -16.9739  -17.9155 C   0  0  0  0  0  0  0  0  0  0  0  0
   25.2045  -20.6769  -15.5103 C   0  0  0  0  0  0  0  0  0  0  0  0
   24.8413  -21.8746  -15.6135 O   0  0  0  0  0  0  0  0  0  0  0  0
   29.1021  -20.3978  -11.9197 C   0  0  0  0  0  0  0  0  0  0  0  0
   27.9265  -20.6116  -12.8185 C   0  0  1  0  0  0  0  0  0  0  0  0
   28.2082  -21.9224  -13.5793 C   0  0  0  0  0  0  0  0  0  0  0  0
   26.6274  -20.8064  -12.1256 C   0  0  0  0  0  0  0  0  0  0  0  0
   25.4505  -21.0089  -13.0044 C   0  0  2  0  0  0  0  0  0  0  0  0
   25.5402  -20.2129  -14.2114 N   0  0  0  0  0  0  0  0  0  0  0  0
   24.1476  -20.7852  -12.3630 C   0  0  0  0  0  0  0  0  0  0  0  0
   24.0591  -19.9773  -11.3995 O   0  0  0  0  0  0  0  0  0  0  0  0
   22.9884  -21.4591  -12.8041 N   0  0  0  0  0  0  0  0  0  0  0  0
   21.7005  -20.7618  -12.6964 C   0  0  1  0  0  0  0  0  0  0  0  0
   21.8154  -19.4180  -13.3451 C   0  0  0  0  0  0  0  0  0  0  0  0
   20.6115  -18.6133  -13.3595 C   0  0  0  0  0  0  0  0  0  0  0  0
   19.9521  -18.1183  -12.2192 C   0  0  0  0  0  0  0  0  0  0  0  0
   18.8510  -17.4484  -12.5877 N   0  0  0  0  0  0  0  0  0  0  0  0
   18.7812  -17.4965  -13.9485 C   0  0  0  0  0  0  0  0  0  0  0  0
   17.8428  -16.9424  -14.8077 C   0  0  0  0  0  0  0  0  0  0  0  0
   17.9650  -17.0897  -16.1664 C   0  0  0  0  0  0  0  0  0  0  0  0
   19.0450  -17.8042  -16.6732 C   0  0  0  0  0  0  0  0  0  0  0  0
   19.9703  -18.3510  -15.8174 C   0  0  0  0  0  0  0  0  0  0  0  0
   19.8527  -18.2066  -14.4393 C   0  0  0  0  0  0  0  0  0  0  0  0
   20.6503  -21.5894  -13.2962 C   0  0  0  0  0  0  0  0  0  0  0  0
   21.0108  -22.5058  -14.2965 O   0  0  0  0  0  0  0  0  0  0  0  0
   19.4350  -21.5596  -12.9980 O   0  0  0  0  0  0  0  0  0  0  0  0
  2  1  1  6
  3  2  1  0
  3  4  1  0
  4  5  2  0
  5  6  1  0
  7  6  2  0
  8  7  1  0
  9  8  2  0
  9  4  1  0
 10 11  2  0
 10  2  1  0
 13 14  1  1
 13 12  1  0
 15 13  1  0
 16 15  1  1
 16 17  1  0
 17 10  1  0
 18 16  1  0
 19 18  2  0
 20 18  1  0
 21 22  1  6
 21 20  1  0
 22 23  1  0
 23 31  1  0
 23 24  2  0
 24 25  1  0
 26 25  1  0
 26 27  2  0
 28 27  1  0
 29 28  2  0
 30 31  2  0
 30 29  1  0
 31 26  1  0
 32 21  1  0
 33 32  1  0
 34 32  2  0
M  END
$$$$
