FLW.pdb
     RDKit          3D

 34 36  0  0  1  0  0  0  0  0999 V2000
   26.8530  -19.0418  -16.0857 N   0  0  0  0  0  0  0  0  0  0  0  0
   26.0529  -18.4639  -15.0095 C   0  0  1  0  0  0  0  0  0  0  0  0
   25.2708  -17.2981  -15.5701 C   0  0  0  0  0  0  0  0  0  0  0  0
   26.0992  -16.1534  -15.9659 C   0  0  0  0  0  0  0  0  0  0  0  0
   26.4214  -15.9771  -17.3128 C   0  0  0  0  0  0  0  0  0  0  0  0
   27.1927  -14.9126  -17.7040 C   0  0  0  0  0  0  0  0  0  0  0  0
   27.6435  -14.0260  -16.7674 C   0  0  0  0  0  0  0  0  0  0  0  0
   27.3509  -14.1610  -15.4323 C   0  0  0  0  0  0  0  0  0  0  0  0
   26.5724  -15.2391  -15.0537 C   0  0  0  0  0  0  0  0  0  0  0  0
   25.1739  -19.4714  -14.4034 C   0  0  0  0  0  0  0  0  0  0  0  0
   24.6973  -20.3950  -15.1085 O   0  0  0  0  0  0  0  0  0  0  0  0
   26.3947  -20.6877   -9.2624 C   0  0  0  0  0  0  0  0  0  0  0  0
   25.9844  -20.6890  -10.7003 C   0  0  1  0  0  0  0  0  0  0  0  0
   26.4868  -22.0249  -11.2827 C   0  0  0  0  0  0  0  0  0  0  0  0
   24.5191  -20.6579  -10.9402 C   0  0  0  0  0  0  0  0  0  0  0  0
   24.0990  -20.5205  -12.3555 C   0  0  2  0  0  0  0  0  0  0  0  0
   24.8221  -19.4608  -13.0282 N   0  0  0  0  0  0  0  0  0  0  0  0
   22.6556  -20.3401  -12.5627 C   0  0  0  0  0  0  0  0  0  0  0  0
   22.0518  -19.4123  -11.9599 O   0  0  0  0  0  0  0  0  0  0  0  0
   21.9276  -21.1876  -13.4254 N   0  0  0  0  0  0  0  0  0  0  0  0
   20.4712  -21.0141  -13.4977 C   0  0  1  0  0  0  0  0  0  0  0  0
   20.1655  -19.6112  -13.9201 C   0  0  0  0  0  0  0  0  0  0  0  0
   20.6551  -19.2187  -15.2253 C   0  0  0  0  0  0  0  0  0  0  0  0
   20.6889  -20.0468  -16.3625 C   0  0  0  0  0  0  0  0  0  0  0  0
   21.2378  -19.3833  -17.3898 N   0  0  0  0  0  0  0  0  0  0  0  0
   21.5614  -18.1365  -16.9432 C   0  0  0  0  0  0  0  0  0  0  0  0
   22.1353  -17.0724  -17.6248 C   0  0  0  0  0  0  0  0  0  0  0  0
   22.3639  -15.8771  -16.9909 C   0  0  0  0  0  0  0  0  0  0  0  0
   22.0122  -15.7452  -15.6520 C   0  0  0  0  0  0  0  0  0  0  0  0
   21.4452  -16.8025  -14.9826 C   0  0  0  0  0  0  0  0  0  0  0  0
   21.2111  -18.0171  -15.6180 C   0  0  0  0  0  0  0  0  0  0  0  0
   19.9094  -22.0130  -14.4110 C   0  0  0  0  0  0  0  0  0  0  0  0
   18.5132  -22.1244  -14.5031 O   0  0  0  0  0  0  0  0  0  0  0  0
   20.5665  -22.7952  -15.1342 O   0  0  0  0  0  0  0  0  0  0  0  0
  2  1  1  6
  3  2  1  0
  3  4  1  0
  4  5  2  0
  5  6  1  0
  7  6  2  0
  8  7  1  0
  9  8  2  0
  9  4  1  0
 10 11  2  0
 10  2  1  0
 13 14  1  1
 13 12  1  0
 15 13  1  0
 16 15  1  1
 16 17  1  0
 17 10  1  0
 18 16  1  0
 19 18  2  0
 20 18  1  0
 21 22  1  6
 21 20  1  0
 22 23  1  0
 23 31  1  0
 23 24  2  0
 24 25  1  0
 26 25  1  0
 26 27  2  0
 28 27  1  0
 29 28  2  0
 30 31  2  0
 30 29  1  0
 31 26  1  0
 32 21  1  0
 33 32  1  0
 34 32  2  0
M  END
$$$$
