FLW.pdb
     RDKit          3D

 34 36  0  0  1  0  0  0  0  0999 V2000
   28.3510  -21.3131  -14.4362 N   0  0  0  0  0  0  0  0  0  0  0  0
   27.4804  -20.3688  -13.7414 C   0  0  1  0  0  0  0  0  0  0  0  0
   26.6373  -19.6515  -14.7708 C   0  0  0  0  0  0  0  0  0  0  0  0
   27.4020  -18.7887  -15.6785 C   0  0  0  0  0  0  0  0  0  0  0  0
   27.7516  -17.5020  -15.2648 C   0  0  0  0  0  0  0  0  0  0  0  0
   28.4679  -16.6804  -16.0972 C   0  0  0  0  0  0  0  0  0  0  0  0
   28.8372  -17.1291  -17.3336 C   0  0  0  0  0  0  0  0  0  0  0  0
   28.5149  -18.3870  -17.7813 C   0  0  0  0  0  0  0  0  0  0  0  0
   27.7925  -19.2032  -16.9306 C   0  0  0  0  0  0  0  0  0  0  0  0
   26.6549  -21.0501  -12.7368 C   0  0  0  0  0  0  0  0  0  0  0  0
   26.2848  -22.2351  -12.9267 O   0  0  0  0  0  0  0  0  0  0  0  0
   27.0748  -19.4782   -7.5489 C   0  0  0  0  0  0  0  0  0  0  0  0
   26.8965  -20.1482   -8.8738 C   0  0  1  0  0  0  0  0  0  0  0  0
   27.6633  -21.4822   -8.7801 C   0  0  0  0  0  0  0  0  0  0  0  0
   25.4961  -20.4994   -9.2219 C   0  0  0  0  0  0  0  0  0  0  0  0
   25.2777  -20.9905  -10.6037 C   0  0  2  0  0  0  0  0  0  0  0  0
   26.2395  -20.4288  -11.5300 N   0  0  0  0  0  0  0  0  0  0  0  0
   23.9186  -20.7958  -11.1271 C   0  0  0  0  0  0  0  0  0  0  0  0
   22.9302  -21.1976  -10.4560 O   0  0  0  0  0  0  0  0  0  0  0  0
   23.6955  -20.1665  -12.3707 N   0  0  0  0  0  0  0  0  0  0  0  0
   22.3158  -20.0868  -12.8673 C   0  0  1  0  0  0  0  0  0  0  0  0
   22.2414  -19.0478  -13.9419 C   0  0  0  0  0  0  0  0  0  0  0  0
   20.9697  -18.9280  -14.6243 C   0  0  0  0  0  0  0  0  0  0  0  0
   19.8413  -18.2513  -14.1254 C   0  0  0  0  0  0  0  0  0  0  0  0
   18.8238  -18.3686  -14.9902 N   0  0  0  0  0  0  0  0  0  0  0  0
   19.2690  -19.1087  -16.0451 C   0  0  0  0  0  0  0  0  0  0  0  0
   18.6047  -19.4920  -17.2018 C   0  0  0  0  0  0  0  0  0  0  0  0
   19.2458  -20.2291  -18.1654 C   0  0  0  0  0  0  0  0  0  0  0  0
   20.5744  -20.5886  -17.9672 C   0  0  0  0  0  0  0  0  0  0  0  0
   21.2264  -20.2069  -16.8197 C   0  0  0  0  0  0  0  0  0  0  0  0
   20.5831  -19.4605  -15.8384 C   0  0  0  0  0  0  0  0  0  0  0  0
   21.8915  -21.4102  -13.3323 C   0  0  0  0  0  0  0  0  0  0  0  0
   20.5222  -21.7184  -13.3125 O   0  0  0  0  0  0  0  0  0  0  0  0
   22.6467  -22.3143  -13.7553 O   0  0  0  0  0  0  0  0  0  0  0  0
  2  1  1  6
  3  2  1  0
  3  4  1  0
  4  5  2  0
  5  6  1  0
  7  6  2  0
  8  7  1  0
  9  8  2  0
  9  4  1  0
 10 11  2  0
 10  2  1  0
 13 14  1  1
 13 12  1  0
 15 13  1  0
 16 15  1  1
 16 17  1  0
 17 10  1  0
 18 16  1  0
 19 18  2  0
 20 18  1  0
 21 22  1  6
 21 20  1  0
 22 23  1  0
 23 31  1  0
 23 24  2  0
 24 25  1  0
 26 25  1  0
 26 27  2  0
 28 27  1  0
 29 28  2  0
 30 31  2  0
 30 29  1  0
 31 26  1  0
 32 21  1  0
 33 32  1  0
 34 32  2  0
M  END
$$$$
