FLW.pdb
     RDKit          3D

 34 36  0  0  1  0  0  0  0  0999 V2000
   23.3933  -18.1593  -17.5357 N   0  0  0  0  0  0  0  0  0  0  0  0
   24.0194  -18.1116  -16.2173 C   0  0  1  0  0  0  0  0  0  0  0  0
   22.9442  -18.3007  -15.1718 C   0  0  0  0  0  0  0  0  0  0  0  0
   21.9264  -17.2438  -15.1582 C   0  0  0  0  0  0  0  0  0  0  0  0
   20.6428  -17.5258  -15.6292 C   0  0  0  0  0  0  0  0  0  0  0  0
   19.6764  -16.5526  -15.6233 C   0  0  0  0  0  0  0  0  0  0  0  0
   19.9778  -15.3056  -15.1535 C   0  0  0  0  0  0  0  0  0  0  0  0
   21.2268  -14.9845  -14.6811 C   0  0  0  0  0  0  0  0  0  0  0  0
   22.1901  -15.9763  -14.6937 C   0  0  0  0  0  0  0  0  0  0  0  0
   25.0811  -19.1183  -16.0985 C   0  0  0  0  0  0  0  0  0  0  0  0
   24.9244  -20.2587  -16.6006 O   0  0  0  0  0  0  0  0  0  0  0  0
   30.3690  -17.5623  -16.2259 C   0  0  0  0  0  0  0  0  0  0  0  0
   29.0148  -18.1917  -16.3000 C   0  0  1  0  0  0  0  0  0  0  0  0
   28.9931  -18.9957  -17.6151 C   0  0  0  0  0  0  0  0  0  0  0  0
   28.7073  -19.1608  -15.2174 C   0  0  0  0  0  0  0  0  0  0  0  0
   27.3865  -19.8289  -15.3044 C   0  0  2  0  0  0  0  0  0  0  0  0
   26.3083  -18.8695  -15.4297 N   0  0  0  0  0  0  0  0  0  0  0  0
   27.0880  -20.7648  -14.2117 C   0  0  0  0  0  0  0  0  0  0  0  0
   27.8163  -21.7802  -14.0461 O   0  0  0  0  0  0  0  0  0  0  0  0
   25.9982  -20.5505  -13.3405 N   0  0  0  0  0  0  0  0  0  0  0  0
   25.7435  -21.5486  -12.2939 C   0  0  1  0  0  0  0  0  0  0  0  0
   26.9251  -21.6095  -11.3774 C   0  0  0  0  0  0  0  0  0  0  0  0
   26.7795  -20.9324  -10.1056 C   0  0  0  0  0  0  0  0  0  0  0  0
   25.6361  -20.2267   -9.6878 C   0  0  0  0  0  0  0  0  0  0  0  0
   25.8518  -19.6900   -8.4784 N   0  0  0  0  0  0  0  0  0  0  0  0
   27.1153  -20.0345   -8.0994 C   0  0  0  0  0  0  0  0  0  0  0  0
   27.8006  -19.7399   -6.9290 C   0  0  0  0  0  0  0  0  0  0  0  0
   29.0761  -20.2048   -6.7291 C   0  0  0  0  0  0  0  0  0  0  0  0
   29.6754  -20.9774   -7.7178 C   0  0  0  0  0  0  0  0  0  0  0  0
   28.9921  -21.2649   -8.8745 C   0  0  0  0  0  0  0  0  0  0  0  0
   27.6996  -20.7967   -9.0847 C   0  0  0  0  0  0  0  0  0  0  0  0
   24.5027  -21.2084  -11.5922 C   0  0  0  0  0  0  0  0  0  0  0  0
   23.9090  -22.1820  -10.7737 O   0  0  0  0  0  0  0  0  0  0  0  0
   23.9057  -20.1099  -11.6518 O   0  0  0  0  0  0  0  0  0  0  0  0
  2  1  1  6
  3  2  1  0
  3  4  1  0
  4  5  2  0
  5  6  1  0
  7  6  2  0
  8  7  1  0
  9  8  2  0
  9  4  1  0
 10 11  2  0
 10  2  1  0
 13 14  1  6
 13 12  1  0
 15 13  1  0
 16 15  1  1
 16 17  1  0
 17 10  1  0
 18 16  1  0
 19 18  2  0
 20 18  1  0
 21 22  1  1
 21 20  1  0
 22 23  1  0
 23 31  1  0
 23 24  2  0
 24 25  1  0
 26 25  1  0
 26 27  2  0
 28 27  1  0
 29 28  2  0
 30 31  2  0
 30 29  1  0
 31 26  1  0
 32 21  1  0
 33 32  1  0
 34 32  2  0
M  END
$$$$
