FLW.pdb
     RDKit          3D

 34 36  0  0  1  0  0  0  0  0999 V2000
   28.1872  -22.0039  -16.9878 N   0  0  0  0  0  0  0  0  0  0  0  0
   27.5988  -20.8555  -16.3042 C   0  0  1  0  0  0  0  0  0  0  0  0
   26.8782  -20.0088  -17.3283 C   0  0  0  0  0  0  0  0  0  0  0  0
   27.6629  -18.8748  -17.8299 C   0  0  0  0  0  0  0  0  0  0  0  0
   27.5727  -17.6419  -17.1811 C   0  0  0  0  0  0  0  0  0  0  0  0
   28.2993  -16.5699  -17.6327 C   0  0  0  0  0  0  0  0  0  0  0  0
   29.1118  -16.7162  -18.7212 C   0  0  0  0  0  0  0  0  0  0  0  0
   29.2308  -17.9102  -19.3896 C   0  0  0  0  0  0  0  0  0  0  0  0
   28.4919  -18.9813  -18.9223 C   0  0  0  0  0  0  0  0  0  0  0  0
   26.7043  -21.2846  -15.2222 C   0  0  0  0  0  0  0  0  0  0  0  0
   25.9878  -22.3058  -15.3673 O   0  0  0  0  0  0  0  0  0  0  0  0
   26.1237  -20.5961   -9.0688 C   0  0  0  0  0  0  0  0  0  0  0  0
   25.5324  -20.9968  -10.3824 C   0  0  1  0  0  0  0  0  0  0  0  0
   24.1970  -20.2351  -10.4955 C   0  0  0  0  0  0  0  0  0  0  0  0
   26.3284  -20.6162  -11.5771 C   0  0  0  0  0  0  0  0  0  0  0  0
   25.7471  -20.9940  -12.8878 C   0  0  2  0  0  0  0  0  0  0  0  0
   26.5998  -20.5918  -13.9876 N   0  0  0  0  0  0  0  0  0  0  0  0
   24.3788  -20.5138  -13.1246 C   0  0  0  0  0  0  0  0  0  0  0  0
   24.1589  -19.2750  -13.2015 O   0  0  0  0  0  0  0  0  0  0  0  0
   23.3009  -21.4138  -13.2679 N   0  0  0  0  0  0  0  0  0  0  0  0
   21.9981  -20.8726  -13.6755 C   0  0  1  0  0  0  0  0  0  0  0  0
   21.8352  -21.0488  -15.1528 C   0  0  0  0  0  0  0  0  0  0  0  0
   21.7400  -19.8319  -15.9321 C   0  0  0  0  0  0  0  0  0  0  0  0
   21.3225  -18.5821  -15.4383 C   0  0  0  0  0  0  0  0  0  0  0  0
   21.3122  -17.6828  -16.4323 N   0  0  0  0  0  0  0  0  0  0  0  0
   21.7169  -18.3236  -17.5656 C   0  0  0  0  0  0  0  0  0  0  0  0
   21.8882  -17.8280  -18.8506 C   0  0  0  0  0  0  0  0  0  0  0  0
   22.3295  -18.6435  -19.8620 C   0  0  0  0  0  0  0  0  0  0  0  0
   22.6039  -19.9777  -19.5820 C   0  0  0  0  0  0  0  0  0  0  0  0
   22.4316  -20.4625  -18.3081 C   0  0  0  0  0  0  0  0  0  0  0  0
   21.9839  -19.6424  -17.2781 C   0  0  0  0  0  0  0  0  0  0  0  0
   20.9381  -21.5329  -12.9087 C   0  0  0  0  0  0  0  0  0  0  0  0
   19.9355  -20.7376  -12.3320 O   0  0  0  0  0  0  0  0  0  0  0  0
   20.8357  -22.7649  -12.7123 O   0  0  0  0  0  0  0  0  0  0  0  0
  2  1  1  6
  3  2  1  0
  3  4  1  0
  4  5  2  0
  5  6  1  0
  7  6  2  0
  8  7  1  0
  9  8  2  0
  9  4  1  0
 10 11  2  0
 10  2  1  0
 13 14  1  6
 13 12  1  0
 15 13  1  0
 16 15  1  1
 16 17  1  0
 17 10  1  0
 18 16  1  0
 19 18  2  0
 20 18  1  0
 21 22  1  6
 21 20  1  0
 22 23  1  0
 23 31  1  0
 23 24  2  0
 24 25  1  0
 26 25  1  0
 26 27  2  0
 28 27  1  0
 29 28  2  0
 30 31  2  0
 30 29  1  0
 31 26  1  0
 32 21  1  0
 33 32  1  0
 34 32  2  0
M  END
$$$$
