FLW.pdb
     RDKit          3D

 34 36  0  0  1  0  0  0  0  0999 V2000
   25.1016  -19.3673  -15.7485 N   0  0  0  0  0  0  0  0  0  0  0  0
   25.4595  -19.0849  -14.3612 C   0  0  1  0  0  0  0  0  0  0  0  0
   24.2117  -18.6529  -13.6254 C   0  0  0  0  0  0  0  0  0  0  0  0
   23.6842  -17.3509  -14.0496 C   0  0  0  0  0  0  0  0  0  0  0  0
   22.3468  -17.2495  -14.4370 C   0  0  0  0  0  0  0  0  0  0  0  0
   21.8335  -16.0415  -14.8350 C   0  0  0  0  0  0  0  0  0  0  0  0
   22.6392  -14.9382  -14.8497 C   0  0  0  0  0  0  0  0  0  0  0  0
   23.9600  -14.9924  -14.4770 C   0  0  0  0  0  0  0  0  0  0  0  0
   24.4626  -16.2173  -14.0785 C   0  0  0  0  0  0  0  0  0  0  0  0
   26.0912  -20.2497  -13.7296 C   0  0  0  0  0  0  0  0  0  0  0  0
   25.7220  -21.4095  -14.0393 O   0  0  0  0  0  0  0  0  0  0  0  0
   30.0046  -20.0673  -13.8773 C   0  0  0  0  0  0  0  0  0  0  0  0
   30.1827  -21.0137  -12.7334 C   0  0  1  0  0  0  0  0  0  0  0  0
   31.5116  -20.6182  -12.0597 C   0  0  0  0  0  0  0  0  0  0  0  0
   29.1425  -20.9317  -11.6766 C   0  0  0  0  0  0  0  0  0  0  0  0
   27.7607  -21.2589  -12.1034 C   0  0  2  0  0  0  0  0  0  0  0  0
   27.1238  -20.1369  -12.7620 N   0  0  0  0  0  0  0  0  0  0  0  0
   26.8838  -21.7681  -11.0400 C   0  0  0  0  0  0  0  0  0  0  0  0
   27.0260  -22.9514  -10.6298 O   0  0  0  0  0  0  0  0  0  0  0  0
   25.8809  -20.9571  -10.4663 N   0  0  0  0  0  0  0  0  0  0  0  0
   25.0624  -21.5284   -9.3892 C   0  0  1  0  0  0  0  0  0  0  0  0
   25.8868  -21.6198   -8.1435 C   0  0  0  0  0  0  0  0  0  0  0  0
   26.5533  -20.4022   -7.7308 C   0  0  0  0  0  0  0  0  0  0  0  0
   26.4383  -19.1558   -8.3736 C   0  0  0  0  0  0  0  0  0  0  0  0
   27.2166  -18.2548   -7.7574 N   0  0  0  0  0  0  0  0  0  0  0  0
   27.8363  -18.8914   -6.7232 C   0  0  0  0  0  0  0  0  0  0  0  0
   28.7239  -18.3926   -5.7801 C   0  0  0  0  0  0  0  0  0  0  0  0
   29.2256  -19.2038   -4.7936 C   0  0  0  0  0  0  0  0  0  0  0  0
   28.8319  -20.5368   -4.7509 C   0  0  0  0  0  0  0  0  0  0  0  0
   27.9535  -21.0248   -5.6879 C   0  0  0  0  0  0  0  0  0  0  0  0
   27.4415  -20.2090   -6.6910 C   0  0  0  0  0  0  0  0  0  0  0  0
   23.8591  -20.7113   -9.2103 C   0  0  0  0  0  0  0  0  0  0  0  0
   23.5881  -19.7053  -10.1510 O   0  0  0  0  0  0  0  0  0  0  0  0
   23.0294  -20.8239   -8.2798 O   0  0  0  0  0  0  0  0  0  0  0  0
  2  1  1  6
  3  2  1  0
  3  4  1  0
  4  5  2  0
  5  6  1  0
  7  6  2  0
  8  7  1  0
  9  8  2  0
  9  4  1  0
 10 11  2  0
 10  2  1  0
 13 14  1  1
 13 12  1  0
 15 13  1  0
 16 15  1  1
 16 17  1  0
 17 10  1  0
 18 16  1  0
 19 18  2  0
 20 18  1  0
 21 22  1  1
 21 20  1  0
 22 23  1  0
 23 31  1  0
 23 24  2  0
 24 25  1  0
 26 25  1  0
 26 27  2  0
 28 27  1  0
 29 28  2  0
 30 31  2  0
 30 29  1  0
 31 26  1  0
 32 21  1  0
 33 32  1  0
 34 32  2  0
M  END
$$$$
