FLW.pdb
     RDKit          3D

 34 36  0  0  1  0  0  0  0  0999 V2000
   25.9788  -18.8417  -16.6433 N   0  0  0  0  0  0  0  0  0  0  0  0
   25.3968  -18.3251  -15.4077 C   0  0  1  0  0  0  0  0  0  0  0  0
   24.6856  -17.0286  -15.7214 C   0  0  0  0  0  0  0  0  0  0  0  0
   25.5819  -15.9215  -16.0743 C   0  0  0  0  0  0  0  0  0  0  0  0
   26.2426  -15.2278  -15.0588 C   0  0  0  0  0  0  0  0  0  0  0  0
   27.0862  -14.1913  -15.3673 C   0  0  0  0  0  0  0  0  0  0  0  0
   27.2758  -13.8422  -16.6744 C   0  0  0  0  0  0  0  0  0  0  0  0
   26.6465  -14.4970  -17.7048 C   0  0  0  0  0  0  0  0  0  0  0  0
   25.7992  -15.5395  -17.3776 C   0  0  0  0  0  0  0  0  0  0  0  0
   24.4959  -19.3087  -14.7949 C   0  0  0  0  0  0  0  0  0  0  0  0
   23.7458  -20.0097  -15.5182 O   0  0  0  0  0  0  0  0  0  0  0  0
   26.2558  -21.7397  -10.1949 C   0  0  0  0  0  0  0  0  0  0  0  0
   25.6545  -21.3673  -11.5123 C   0  0  1  0  0  0  0  0  0  0  0  0
   25.7290  -22.6357  -12.3852 C   0  0  0  0  0  0  0  0  0  0  0  0
   24.2216  -20.9797  -11.4669 C   0  0  0  0  0  0  0  0  0  0  0  0
   23.6279  -20.5486  -12.7554 C   0  0  2  0  0  0  0  0  0  0  0  0
   24.4219  -19.5183  -13.3928 N   0  0  0  0  0  0  0  0  0  0  0  0
   22.2260  -20.1147  -12.6818 C   0  0  0  0  0  0  0  0  0  0  0  0
   21.9357  -19.0494  -12.0738 O   0  0  0  0  0  0  0  0  0  0  0  0
   21.1932  -20.8690  -13.2792 N   0  0  0  0  0  0  0  0  0  0  0  0
   19.8096  -20.4114  -13.0979 C   0  0  1  0  0  0  0  0  0  0  0  0
   19.6490  -19.0702  -13.7424 C   0  0  0  0  0  0  0  0  0  0  0  0
   19.7788  -19.0375  -15.1844 C   0  0  0  0  0  0  0  0  0  0  0  0
   19.2415  -19.9901  -16.0697 C   0  0  0  0  0  0  0  0  0  0  0  0
   19.5816  -19.6807  -17.3289 N   0  0  0  0  0  0  0  0  0  0  0  0
   20.3302  -18.5422  -17.2807 C   0  0  0  0  0  0  0  0  0  0  0  0
   20.9029  -17.8138  -18.3139 C   0  0  0  0  0  0  0  0  0  0  0  0
   21.6114  -16.6680  -18.0534 C   0  0  0  0  0  0  0  0  0  0  0  0
   21.7489  -16.2445  -16.7360 C   0  0  0  0  0  0  0  0  0  0  0  0
   21.1803  -16.9703  -15.7175 C   0  0  0  0  0  0  0  0  0  0  0  0
   20.4615  -18.1329  -15.9736 C   0  0  0  0  0  0  0  0  0  0  0  0
   18.8923  -21.4140  -13.6466 C   0  0  0  0  0  0  0  0  0  0  0  0
   19.4359  -22.5680  -14.2323 O   0  0  0  0  0  0  0  0  0  0  0  0
   17.6427  -21.3418  -13.6446 O   0  0  0  0  0  0  0  0  0  0  0  0
  2  1  1  6
  3  2  1  0
  3  4  1  0
  4  5  2  0
  5  6  1  0
  7  6  2  0
  8  7  1  0
  9  8  2  0
  9  4  1  0
 10 11  2  0
 10  2  1  0
 13 14  1  6
 13 12  1  0
 15 13  1  0
 16 15  1  1
 16 17  1  0
 17 10  1  0
 18 16  1  0
 19 18  2  0
 20 18  1  0
 21 22  1  6
 21 20  1  0
 22 23  1  0
 23 31  1  0
 23 24  2  0
 24 25  1  0
 26 25  1  0
 26 27  2  0
 28 27  1  0
 29 28  2  0
 30 31  2  0
 30 29  1  0
 31 26  1  0
 32 21  1  0
 33 32  1  0
 34 32  2  0
M  END
$$$$
