AQP.pdb
     RDKit          3D

 22 22  0  0  1  0  0  0  0  0999 V2000
   31.5282  -26.5829  -23.6309 C   0  0  0  0  0  0  0  0  0  0  0  0
   32.1254  -25.8249  -22.4631 C   0  0  2  0  0  0  0  0  0  0  0  0
   33.3646  -25.2351  -22.9313 N   0  0  0  0  0  0  0  0  0  0  0  0
   32.3870  -26.7850  -21.3717 C   0  0  0  0  0  0  0  0  0  0  0  0
   33.4119  -27.5016  -21.3047 O   0  0  0  0  0  0  0  0  0  0  0  0
   30.0687  -25.8388  -15.7306 N   0  0  0  0  0  0  0  0  0  0  0  0
   31.0569  -25.1545  -16.4820 C   0  0  0  0  0  0  0  0  0  0  0  0
   31.4213  -24.0489  -16.0930 O   0  0  0  0  0  0  0  0  0  0  0  0
   31.5739  -25.8352  -17.6818 C   0  0  0  0  0  0  0  0  0  0  0  0
   30.9481  -27.1718  -17.9781 C   0  0  0  0  0  0  0  0  0  0  0  0
   31.6158  -27.7824  -19.1835 C   0  0  2  0  0  0  0  0  0  0  0  0
   31.4418  -26.9182  -20.3359 N   0  0  0  0  0  0  0  0  0  0  0  0
   31.1911  -29.1684  -19.4492 C   0  0  0  0  0  0  0  0  0  0  0  0
   30.1917  -29.3252  -20.2047 O   0  0  0  0  0  0  0  0  0  0  0  0
   31.8162  -30.3217  -18.9250 N   0  0  0  0  0  0  0  0  0  0  0  0
   33.0207  -30.4190  -18.1048 C   0  0  0  0  0  0  0  0  0  0  0  0
   33.6028  -31.8004  -18.4514 C   0  0  0  0  0  0  0  0  0  0  0  0
   32.3244  -32.6003  -18.4789 C   0  0  0  0  0  0  0  0  0  0  0  0
   31.3601  -31.6864  -19.1195 C   0  0  1  0  0  0  0  0  0  0  0  0
   29.9849  -31.9036  -18.6702 C   0  0  0  0  0  0  0  0  0  0  0  0
   29.4515  -31.0256  -17.9470 O   0  0  0  0  0  0  0  0  0  0  0  0
   29.2224  -33.0136  -18.9853 O   0  0  0  0  0  0  0  0  0  0  0  0
  2  3  1  0
  2  1  1  6
  4  2  1  0
  5  4  2  0
  6  7  1  0
  7  9  1  0
  7  8  2  0
  9 10  1  0
 11 10  1  1
 11 12  1  0
 12  4  1  0
 13 15  1  0
 13 11  1  0
 14 13  2  0
 15 19  1  0
 16 17  1  0
 16 15  1  0
 17 18  1  0
 18 19  1  0
 19 20  1  1
 20 21  2  0
 20 22  1  0
M  END
$$$$
