AQP.pdb
     RDKit          3D

 22 22  0  0  1  0  0  0  0  0999 V2000
   21.0119  -11.5620  -17.9900 C   0  0  0  0  0  0  0  0  0  0  0  0
   19.6775  -11.7167  -17.2898 C   0  0  2  0  0  0  0  0  0  0  0  0
   18.7063  -12.0750  -18.3052 N   0  0  0  0  0  0  0  0  0  0  0  0
   19.3265  -10.4233  -16.6690 C   0  0  0  0  0  0  0  0  0  0  0  0
   18.9383   -9.4230  -17.3146 O   0  0  0  0  0  0  0  0  0  0  0  0
   17.3242   -9.7793  -10.7171 N   0  0  0  0  0  0  0  0  0  0  0  0
   17.4542   -8.4345  -11.1463 C   0  0  0  0  0  0  0  0  0  0  0  0
   17.0826   -7.5436  -10.3883 O   0  0  0  0  0  0  0  0  0  0  0  0
   18.0336   -8.2131  -12.4824 C   0  0  0  0  0  0  0  0  0  0  0  0
   18.4319   -9.4624  -13.2215 C   0  0  0  0  0  0  0  0  0  0  0  0
   19.0514   -9.0875  -14.5434 C   0  0  2  0  0  0  0  0  0  0  0  0
   19.4273  -10.2854  -15.2708 N   0  0  0  0  0  0  0  0  0  0  0  0
   20.1658   -8.1313  -14.4181 C   0  0  0  0  0  0  0  0  0  0  0  0
   21.2707   -8.5907  -14.0155 O   0  0  0  0  0  0  0  0  0  0  0  0
   20.0868   -6.7521  -14.7137 N   0  0  0  0  0  0  0  0  0  0  0  0
   18.9403   -5.9797  -15.1848 C   0  0  0  0  0  0  0  0  0  0  0  0
   19.5662   -4.8298  -15.9930 C   0  0  0  0  0  0  0  0  0  0  0  0
   20.7145   -4.4886  -15.0765 C   0  0  0  0  0  0  0  0  0  0  0  0
   21.1827   -5.8058  -14.6060 C   0  0  1  0  0  0  0  0  0  0  0  0
   21.7712   -5.7559  -13.2676 C   0  0  0  0  0  0  0  0  0  0  0  0
   22.8148   -5.0759  -13.1034 O   0  0  0  0  0  0  0  0  0  0  0  0
   21.2593   -6.4077  -12.1604 O   0  0  0  0  0  0  0  0  0  0  0  0
  2  3  1  0
  2  1  1  6
  4  2  1  0
  5  4  2  0
  6  7  1  0
  7  9  1  0
  7  8  2  0
  9 10  1  0
 11 10  1  1
 11 12  1  0
 12  4  1  0
 13 15  1  0
 13 11  1  0
 14 13  2  0
 15 19  1  0
 16 17  1  0
 16 15  1  0
 17 18  1  0
 18 19  1  0
 19 20  1  1
 20 21  2  0
 20 22  1  0
M  END
$$$$
