AQP.pdb
     RDKit          3D

 22 22  0  0  1  0  0  0  0  0999 V2000
   15.6463  -13.0129  -14.5118 C   0  0  0  0  0  0  0  0  0  0  0  0
   16.0171  -12.8574  -15.9723 C   0  0  2  0  0  0  0  0  0  0  0  0
   16.2325  -14.1914  -16.4982 N   0  0  0  0  0  0  0  0  0  0  0  0
   17.2580  -12.0605  -16.0536 C   0  0  0  0  0  0  0  0  0  0  0  0
   18.3562  -12.4305  -15.5789 O   0  0  0  0  0  0  0  0  0  0  0  0
   19.7445   -9.4951  -20.6072 N   0  0  0  0  0  0  0  0  0  0  0  0
   20.2552   -8.5534  -19.6789 C   0  0  0  0  0  0  0  0  0  0  0  0
   21.2679   -7.9293  -19.9811 O   0  0  0  0  0  0  0  0  0  0  0  0
   19.5187   -8.3969  -18.4128 C   0  0  0  0  0  0  0  0  0  0  0  0
   18.3331   -9.3092  -18.2458 C   0  0  0  0  0  0  0  0  0  0  0  0
   18.3905   -9.9636  -16.8893 C   0  0  2  0  0  0  0  0  0  0  0  0
   17.2265  -10.8085  -16.6982 N   0  0  0  0  0  0  0  0  0  0  0  0
   18.5798   -9.0066  -15.7846 C   0  0  0  0  0  0  0  0  0  0  0  0
   17.5410   -8.4680  -15.3106 O   0  0  0  0  0  0  0  0  0  0  0  0
   19.8274   -8.6533  -15.2240 N   0  0  0  0  0  0  0  0  0  0  0  0
   21.1509   -9.1975  -15.5158 C   0  0  0  0  0  0  0  0  0  0  0  0
   21.9322   -9.0147  -14.2030 C   0  0  0  0  0  0  0  0  0  0  0  0
   21.4612   -7.6303  -13.8334 C   0  0  0  0  0  0  0  0  0  0  0  0
   20.0330   -7.6425  -14.2020 C   0  0  1  0  0  0  0  0  0  0  0  0
   19.5335   -6.3229  -14.5882 C   0  0  0  0  0  0  0  0  0  0  0  0
   19.4547   -6.0536  -15.8128 O   0  0  0  0  0  0  0  0  0  0  0  0
   19.1383   -5.3417  -13.6973 O   0  0  0  0  0  0  0  0  0  0  0  0
  2  3  1  0
  2  1  1  1
  4  2  1  0
  5  4  2  0
  6  7  1  0
  7  9  1  0
  7  8  2  0
  9 10  1  0
 11 10  1  6
 11 12  1  0
 12  4  1  0
 13 15  1  0
 13 11  1  0
 14 13  2  0
 15 19  1  0
 16 17  1  0
 16 15  1  0
 17 18  1  0
 18 19  1  0
 19 20  1  6
 20 21  2  0
 20 22  1  0
M  END
$$$$
