AQP.pdb
     RDKit          3D

 22 22  0  0  1  0  0  0  0  0999 V2000
   28.1142  -19.0979  -14.0466 C   0  0  0  0  0  0  0  0  0  0  0  0
   28.5970  -19.9287  -12.8754 C   0  0  2  0  0  0  0  0  0  0  0  0
   28.3530  -21.3176  -13.2131 N   0  0  0  0  0  0  0  0  0  0  0  0
   27.8209  -19.5408  -11.6801 C   0  0  0  0  0  0  0  0  0  0  0  0
   27.5969  -18.3538  -11.3496 O   0  0  0  0  0  0  0  0  0  0  0  0
   22.5081  -21.6596   -9.7306 N   0  0  0  0  0  0  0  0  0  0  0  0
   22.9473  -20.9876   -8.5623 C   0  0  0  0  0  0  0  0  0  0  0  0
   22.1429  -20.8203   -7.6506 O   0  0  0  0  0  0  0  0  0  0  0  0
   24.3509  -20.5414   -8.5364 C   0  0  0  0  0  0  0  0  0  0  0  0
   25.1503  -20.8739   -9.7678 C   0  0  0  0  0  0  0  0  0  0  0  0
   26.5342  -20.2906   -9.6405 C   0  0  2  0  0  0  0  0  0  0  0  0
   27.2929  -20.5488  -10.8500 N   0  0  0  0  0  0  0  0  0  0  0  0
   27.2447  -20.7274   -8.4254 C   0  0  0  0  0  0  0  0  0  0  0  0
   27.5677  -21.9462   -8.3591 O   0  0  0  0  0  0  0  0  0  0  0  0
   27.5869  -19.8886   -7.3415 N   0  0  0  0  0  0  0  0  0  0  0  0
   27.4791  -18.4358   -7.2369 C   0  0  0  0  0  0  0  0  0  0  0  0
   28.5972  -18.0440   -6.2552 C   0  0  0  0  0  0  0  0  0  0  0  0
   28.4292  -19.1513   -5.2448 C   0  0  0  0  0  0  0  0  0  0  0  0
   28.1413  -20.3353   -6.0760 C   0  0  1  0  0  0  0  0  0  0  0  0
   27.3001  -21.3187   -5.3938 C   0  0  0  0  0  0  0  0  0  0  0  0
   26.1353  -21.5050   -5.8264 O   0  0  0  0  0  0  0  0  0  0  0  0
   27.6958  -22.0649   -4.2986 O   0  0  0  0  0  0  0  0  0  0  0  0
  2  3  1  0
  2  1  1  6
  4  2  1  0
  5  4  2  0
  6  7  1  0
  7  9  1  0
  7  8  2  0
  9 10  1  0
 11 10  1  6
 11 12  1  0
 12  4  1  0
 13 15  1  0
 13 11  1  0
 14 13  2  0
 15 19  1  0
 16 17  1  0
 16 15  1  0
 17 18  1  0
 18 19  1  0
 19 20  1  1
 20 21  2  0
 20 22  1  0
M  END
$$$$
