AQP.pdb
     RDKit          3D

 22 22  0  0  1  0  0  0  0  0999 V2000
   28.3035  -16.3325  -17.6478 C   0  0  0  0  0  0  0  0  0  0  0  0
   27.6228  -17.6826  -17.7410 C   0  0  2  0  0  0  0  0  0  0  0  0
   26.8839  -17.6983  -18.9886 N   0  0  0  0  0  0  0  0  0  0  0  0
   26.7049  -17.8197  -16.5920 C   0  0  0  0  0  0  0  0  0  0  0  0
   26.1925  -16.8487  -15.9897 O   0  0  0  0  0  0  0  0  0  0  0  0
   21.4789  -19.8151  -17.1209 N   0  0  0  0  0  0  0  0  0  0  0  0
   21.5054  -19.7802  -15.7040 C   0  0  0  0  0  0  0  0  0  0  0  0
   20.4421  -19.8833  -15.0997 O   0  0  0  0  0  0  0  0  0  0  0  0
   22.8231  -19.6232  -15.0645 C   0  0  0  0  0  0  0  0  0  0  0  0
   23.9730  -19.4130  -16.0128 C   0  0  0  0  0  0  0  0  0  0  0  0
   25.2654  -19.3918  -15.2376 C   0  0  2  0  0  0  0  0  0  0  0  0
   26.3733  -19.1086  -16.1308 N   0  0  0  0  0  0  0  0  0  0  0  0
   25.4863  -20.6070  -14.4334 C   0  0  0  0  0  0  0  0  0  0  0  0
   25.6951  -21.6802  -15.0648 O   0  0  0  0  0  0  0  0  0  0  0  0
   25.4817  -20.6558  -13.0216 N   0  0  0  0  0  0  0  0  0  0  0  0
   25.1786  -19.5916  -12.0684 C   0  0  0  0  0  0  0  0  0  0  0  0
   26.0018  -19.9564  -10.8208 C   0  0  0  0  0  0  0  0  0  0  0  0
   25.7547  -21.4441  -10.7960 C   0  0  0  0  0  0  0  0  0  0  0  0
   25.7990  -21.8245  -12.2204 C   0  0  1  0  0  0  0  0  0  0  0  0
   24.9558  -22.9797  -12.5277 C   0  0  0  0  0  0  0  0  0  0  0  0
   23.9150  -22.7909  -13.2057 O   0  0  0  0  0  0  0  0  0  0  0  0
   25.2219  -24.2753  -12.1235 O   0  0  0  0  0  0  0  0  0  0  0  0
  2  3  1  0
  2  1  1  1
  4  2  1  0
  5  4  2  0
  6  7  1  0
  7  9  1  0
  7  8  2  0
  9 10  1  0
 11 10  1  6
 11 12  1  0
 12  4  1  0
 13 15  1  0
 13 11  1  0
 14 13  2  0
 15 19  1  0
 16 17  1  0
 16 15  1  0
 17 18  1  0
 18 19  1  0
 19 20  1  1
 20 21  2  0
 20 22  1  0
M  END
$$$$
