AQP.pdb
     RDKit          3D

 22 22  0  0  1  0  0  0  0  0999 V2000
   25.1447  -13.5689  -15.1209 C   0  0  0  0  0  0  0  0  0  0  0  0
   23.8545  -14.1854  -15.6214 C   0  0  2  0  0  0  0  0  0  0  0  0
   24.2215  -15.2747  -16.5053 N   0  0  0  0  0  0  0  0  0  0  0  0
   23.1008  -13.1504  -16.3578 C   0  0  0  0  0  0  0  0  0  0  0  0
   23.3445  -12.8205  -17.5411 O   0  0  0  0  0  0  0  0  0  0  0  0
   18.3807  -13.7239  -14.9018 N   0  0  0  0  0  0  0  0  0  0  0  0
   18.7189  -14.0171  -16.2468 C   0  0  0  0  0  0  0  0  0  0  0  0
   18.3550  -15.0908  -16.7172 O   0  0  0  0  0  0  0  0  0  0  0  0
   19.4869  -12.9961  -16.9801 C   0  0  0  0  0  0  0  0  0  0  0  0
   19.7894  -11.7431  -16.2028 C   0  0  0  0  0  0  0  0  0  0  0  0
   21.2581  -11.4241  -16.3166 C   0  0  2  0  0  0  0  0  0  0  0  0
   22.0426  -12.4834  -15.7103 N   0  0  0  0  0  0  0  0  0  0  0  0
   21.6105  -10.0920  -15.7938 C   0  0  0  0  0  0  0  0  0  0  0  0
   21.9417  -10.0245  -14.5773 O   0  0  0  0  0  0  0  0  0  0  0  0
   21.6049   -8.8981  -16.5489 N   0  0  0  0  0  0  0  0  0  0  0  0
   21.3414   -8.7156  -17.9738 C   0  0  0  0  0  0  0  0  0  0  0  0
   22.1514   -7.4629  -18.3501 C   0  0  0  0  0  0  0  0  0  0  0  0
   21.8500   -6.6099  -17.1433 C   0  0  0  0  0  0  0  0  0  0  0  0
   21.8796   -7.5718  -16.0255 C   0  0  1  0  0  0  0  0  0  0  0  0
   20.9945   -7.1924  -14.9243 C   0  0  0  0  0  0  0  0  0  0  0  0
   19.9139   -7.8188  -14.7890 O   0  0  0  0  0  0  0  0  0  0  0  0
   21.2617   -6.1865  -14.0135 O   0  0  0  0  0  0  0  0  0  0  0  0
  2  3  1  0
  2  1  1  6
  4  2  1  0
  5  4  2  0
  6  7  1  0
  7  9  1  0
  7  8  2  0
  9 10  1  0
 11 10  1  1
 11 12  1  0
 12  4  1  0
 13 15  1  0
 13 11  1  0
 14 13  2  0
 15 19  1  0
 16 17  1  0
 16 15  1  0
 17 18  1  0
 18 19  1  0
 19 20  1  1
 20 21  2  0
 20 22  1  0
M  END
$$$$
