AQP.pdb
     RDKit          3D

 22 22  0  0  1  0  0  0  0  0999 V2000
   20.1041  -32.3720    0.0201 C   0  0  0  0  0  0  0  0  0  0  0  0
   20.3989  -31.4737   -1.1635 C   0  0  2  0  0  0  0  0  0  0  0  0
   21.7168  -31.8336   -1.6496 N   0  0  0  0  0  0  0  0  0  0  0  0
   20.3820  -30.0721   -0.6979 C   0  0  0  0  0  0  0  0  0  0  0  0
   21.3151  -29.5406   -0.0536 O   0  0  0  0  0  0  0  0  0  0  0  0
   17.1707  -25.8807   -3.8490 N   0  0  0  0  0  0  0  0  0  0  0  0
   18.5631  -26.1094   -3.9841 C   0  0  0  0  0  0  0  0  0  0  0  0
   19.1207  -25.7163   -5.0044 O   0  0  0  0  0  0  0  0  0  0  0  0
   19.2361  -26.8069   -2.8748 C   0  0  0  0  0  0  0  0  0  0  0  0
   18.3550  -27.1396   -1.7006 C   0  0  0  0  0  0  0  0  0  0  0  0
   19.1651  -27.8596   -0.6532 C   0  0  2  0  0  0  0  0  0  0  0  0
   19.2609  -29.2690   -0.9845 N   0  0  0  0  0  0  0  0  0  0  0  0
   18.6793  -27.6353    0.7200 C   0  0  0  0  0  0  0  0  0  0  0  0
   17.8147  -28.4434    1.1597 O   0  0  0  0  0  0  0  0  0  0  0  0
   19.1080  -26.5919    1.5704 N   0  0  0  0  0  0  0  0  0  0  0  0
   20.0925  -25.5444    1.3121 C   0  0  0  0  0  0  0  0  0  0  0  0
   20.6607  -25.2093    2.7021 C   0  0  0  0  0  0  0  0  0  0  0  0
   19.3787  -25.2258    3.4965 C   0  0  0  0  0  0  0  0  0  0  0  0
   18.6327  -26.3616    2.9230 C   0  0  1  0  0  0  0  0  0  0  0  0
   17.1822  -26.1882    3.0021 C   0  0  0  0  0  0  0  0  0  0  0  0
   16.5500  -25.9851    1.9355 O   0  0  0  0  0  0  0  0  0  0  0  0
   16.4493  -26.2316    4.1742 O   0  0  0  0  0  0  0  0  0  0  0  0
  2  3  1  0
  2  1  1  1
  4  2  1  0
  5  4  2  0
  6  7  1  0
  7  9  1  0
  7  8  2  0
  9 10  1  0
 11 10  1  6
 11 12  1  0
 12  4  1  0
 13 15  1  0
 13 11  1  0
 14 13  2  0
 15 19  1  0
 16 17  1  0
 16 15  1  0
 17 18  1  0
 18 19  1  0
 19 20  1  6
 20 21  2  0
 20 22  1  0
M  END
$$$$
