AQP.pdb
     RDKit          3D

 22 22  0  0  1  0  0  0  0  0999 V2000
   24.9655  -10.9646  -15.3744 C   0  0  0  0  0  0  0  0  0  0  0  0
   23.5870  -11.4951  -15.7105 C   0  0  2  0  0  0  0  0  0  0  0  0
   23.7641  -12.5272  -16.7134 N   0  0  0  0  0  0  0  0  0  0  0  0
   22.7797  -10.3814  -16.2485 C   0  0  0  0  0  0  0  0  0  0  0  0
   22.8570   -9.9715  -17.4293 O   0  0  0  0  0  0  0  0  0  0  0  0
   16.9582   -9.5060  -14.8626 N   0  0  0  0  0  0  0  0  0  0  0  0
   17.5943  -10.3195  -15.8337 C   0  0  0  0  0  0  0  0  0  0  0  0
   16.9404  -11.2140  -16.3616 O   0  0  0  0  0  0  0  0  0  0  0  0
   19.0047  -10.0202  -16.1355 C   0  0  0  0  0  0  0  0  0  0  0  0
   19.5963   -8.8762  -15.3562 C   0  0  0  0  0  0  0  0  0  0  0  0
   21.0099   -8.6318  -15.8186 C   0  0  2  0  0  0  0  0  0  0  0  0
   21.8634   -9.7284  -15.4012 N   0  0  0  0  0  0  0  0  0  0  0  0
   21.5405   -7.3184  -15.4121 C   0  0  0  0  0  0  0  0  0  0  0  0
   22.0790   -7.2473  -14.2723 O   0  0  0  0  0  0  0  0  0  0  0  0
   21.4907   -6.1460  -16.1986 N   0  0  0  0  0  0  0  0  0  0  0  0
   20.9554   -5.9677  -17.5457 C   0  0  0  0  0  0  0  0  0  0  0  0
   21.7839   -4.8110  -18.1312 C   0  0  0  0  0  0  0  0  0  0  0  0
   21.8215   -3.9070  -16.9245 C   0  0  0  0  0  0  0  0  0  0  0  0
   21.9919   -4.8435  -15.7977 C   0  0  1  0  0  0  0  0  0  0  0  0
   21.3946   -4.3539  -14.5553 C   0  0  0  0  0  0  0  0  0  0  0  0
   20.3042   -4.8553  -14.1835 O   0  0  0  0  0  0  0  0  0  0  0  0
   21.9462   -3.3717  -13.7530 O   0  0  0  0  0  0  0  0  0  0  0  0
  2  3  1  0
  2  1  1  6
  4  2  1  0
  5  4  2  0
  6  7  1  0
  7  9  1  0
  7  8  2  0
  9 10  1  0
 11 10  1  1
 11 12  1  0
 12  4  1  0
 13 15  1  0
 13 11  1  0
 14 13  2  0
 15 19  1  0
 16 17  1  0
 16 15  1  0
 17 18  1  0
 18 19  1  0
 19 20  1  1
 20 21  2  0
 20 22  1  0
M  END
$$$$
