ENY.pdb
     RDKit          3D

 30 30  0  0  1  0  0  0  0  0999 V2000
   22.0743  -11.3572  -18.7555 N   0  0  0  0  0  0  0  0  0  0  0  0
   20.7938  -10.6212  -18.9075 C   0  0  1  0  0  0  0  0  0  0  0  0
   19.8402  -11.1759  -17.8752 C   0  0  0  0  0  0  0  0  0  0  0  0
   19.2077  -12.4757  -18.2249 C   0  0  0  0  0  0  0  0  0  0  0  0
   17.7520  -12.2428  -18.5267 C   0  0  0  0  0  0  0  0  0  0  0  0
   16.9655  -12.1178  -17.5621 O   0  0  0  0  0  0  0  0  0  0  0  0
   21.1163   -9.2083  -18.7558 C   0  0  0  0  0  0  0  0  0  0  0  0
   22.2181   -8.8266  -18.2227 O   0  0  0  0  0  0  0  0  0  0  0  0
   17.2474  -12.1613  -19.8070 O   0  0  0  0  0  0  0  0  0  0  0  0
   19.7925   -3.4299  -20.5367 N   0  0  0  0  0  0  0  0  0  0  0  0
   20.1305   -4.4284  -19.5412 C   0  0  0  0  0  0  0  0  0  0  0  0
   20.7187   -3.9543  -18.5356 O   0  0  0  0  0  0  0  0  0  0  0  0
   19.7966   -5.8424  -19.7356 C   0  0  0  0  0  0  0  0  0  0  0  0
   20.6423   -6.7342  -18.9081 C   0  0  2  0  0  0  0  0  0  0  0  0
   20.2866   -8.1097  -19.1647 N   0  0  0  0  0  0  0  0  0  0  0  0
   20.6184   -6.4123  -17.4612 C   0  0  0  0  0  0  0  0  0  0  0  0
   19.8457   -7.0899  -16.7330 O   0  0  0  0  0  0  0  0  0  0  0  0
   19.5747   -9.9358  -11.4493 O   0  0  0  0  0  0  0  0  0  0  0  0
   20.2134   -9.0760  -12.3360 C   0  0  0  0  0  0  0  0  0  0  0  0
   21.4986   -9.4199  -12.7161 C   0  0  0  0  0  0  0  0  0  0  0  0
   22.1765   -8.5934  -13.5991 C   0  0  0  0  0  0  0  0  0  0  0  0
   21.5806   -7.4498  -14.0893 C   0  0  0  0  0  0  0  0  0  0  0  0
   22.3420   -6.5927  -15.0225 C   0  0  0  0  0  0  0  0  0  0  0  0
   21.5613   -5.3627  -15.4130 C   0  0  2  0  0  0  0  0  0  0  0  0
   21.3933   -5.4136  -16.8645 N   0  0  0  0  0  0  0  0  0  0  0  0
   22.2118   -4.1007  -15.0488 C   0  0  0  0  0  0  0  0  0  0  0  0
   22.1636   -3.6496  -13.7471 O   0  0  0  0  0  0  0  0  0  0  0  0
   20.3014   -7.1256  -13.6984 C   0  0  0  0  0  0  0  0  0  0  0  0
   19.6166   -7.9448  -12.8172 C   0  0  0  0  0  0  0  0  0  0  0  0
   22.8121   -3.4282  -15.9141 O   0  0  0  0  0  0  0  0  0  0  0  0
  2  1  1  1
  2  3  1  0
  3  4  1  0
  4  5  1  0
  5  6  2  0
  5  9  1  0
  7  8  2  0
  7  2  1  0
 10 11  1  0
 11 12  2  0
 11 13  1  0
 14 13  1  6
 14 15  1  0
 15  7  1  0
 16 25  1  0
 16 14  1  0
 17 16  2  0
 19 18  1  0
 20 19  2  0
 21 20  1  0
 22 21  2  0
 22 28  1  0
 24 23  1  6
 23 22  1  0
 24 26  1  0
 24 25  1  0
 26 27  1  0
 28 29  2  0
 29 19  1  0
 30 26  2  0
M  END
$$$$
