ENY.pdb
     RDKit          3D

 30 30  0  0  1  0  0  0  0  0999 V2000
   19.9599  -11.9448  -17.2147 N   0  0  0  0  0  0  0  0  0  0  0  0
   19.3347  -10.8407  -17.9858 C   0  0  1  0  0  0  0  0  0  0  0  0
   18.0001  -11.3478  -18.4801 C   0  0  0  0  0  0  0  0  0  0  0  0
   18.0450  -12.6266  -19.2381 C   0  0  0  0  0  0  0  0  0  0  0  0
   18.0818  -13.7704  -18.2610 C   0  0  0  0  0  0  0  0  0  0  0  0
   17.1189  -13.9000  -17.4729 O   0  0  0  0  0  0  0  0  0  0  0  0
   19.2668   -9.7004  -17.0812 C   0  0  0  0  0  0  0  0  0  0  0  0
   18.6567   -8.6214  -17.4088 O   0  0  0  0  0  0  0  0  0  0  0  0
   19.1190  -14.6759  -18.1933 O   0  0  0  0  0  0  0  0  0  0  0  0
   17.0742   -8.9836  -14.5016 N   0  0  0  0  0  0  0  0  0  0  0  0
   17.9889   -9.0371  -13.3779 C   0  0  0  0  0  0  0  0  0  0  0  0
   17.4210   -9.2718  -12.2804 O   0  0  0  0  0  0  0  0  0  0  0  0
   19.4290   -8.8306  -13.5566 C   0  0  0  0  0  0  0  0  0  0  0  0
   19.7697   -8.4501  -14.9474 C   0  0  2  0  0  0  0  0  0  0  0  0
   19.8425   -9.6364  -15.7670 N   0  0  0  0  0  0  0  0  0  0  0  0
   20.9913   -7.6179  -15.0606 C   0  0  0  0  0  0  0  0  0  0  0  0
   22.0803   -8.2178  -15.2625 O   0  0  0  0  0  0  0  0  0  0  0  0
   26.8493   -2.3063  -18.1484 O   0  0  0  0  0  0  0  0  0  0  0  0
   25.8601   -3.1903  -17.7322 C   0  0  0  0  0  0  0  0  0  0  0  0
   24.5693   -2.9175  -18.1493 C   0  0  0  0  0  0  0  0  0  0  0  0
   23.5483   -3.7708  -17.7596 C   0  0  0  0  0  0  0  0  0  0  0  0
   23.8147   -4.8710  -16.9709 C   0  0  0  0  0  0  0  0  0  0  0  0
   22.6954   -5.7503  -16.5719 C   0  0  0  0  0  0  0  0  0  0  0  0
   22.2427   -5.4709  -15.1606 C   0  0  2  0  0  0  0  0  0  0  0  0
   21.0059   -6.2240  -14.9580 N   0  0  0  0  0  0  0  0  0  0  0  0
   21.9931   -4.0536  -14.8819 C   0  0  0  0  0  0  0  0  0  0  0  0
   23.0347   -3.2278  -14.5172 O   0  0  0  0  0  0  0  0  0  0  0  0
   25.1056   -5.1243  -16.5666 C   0  0  0  0  0  0  0  0  0  0  0  0
   26.1317   -4.2780  -16.9508 C   0  0  0  0  0  0  0  0  0  0  0  0
   20.8375   -3.5872  -14.9731 O   0  0  0  0  0  0  0  0  0  0  0  0
  2  1  1  1
  2  3  1  0
  3  4  1  0
  4  5  1  0
  5  6  2  0
  5  9  1  0
  7  8  2  0
  7  2  1  0
 10 11  1  0
 11 12  2  0
 11 13  1  0
 14 13  1  1
 14 15  1  0
 15  7  1  0
 16 25  1  0
 16 14  1  0
 17 16  2  0
 19 18  1  0
 20 19  2  0
 21 20  1  0
 22 21  2  0
 22 28  1  0
 24 23  1  6
 23 22  1  0
 24 26  1  0
 24 25  1  0
 26 27  1  0
 28 29  2  0
 29 19  1  0
 30 26  2  0
M  END
$$$$
