ENY.pdb
     RDKit          3D

 30 30  0  0  1  0  0  0  0  0999 V2000
   15.9103  -12.0536  -15.1953 N   0  0  0  0  0  0  0  0  0  0  0  0
   17.2711  -12.4489  -15.6384 C   0  0  1  0  0  0  0  0  0  0  0  0
   17.0987  -13.3977  -16.8015 C   0  0  0  0  0  0  0  0  0  0  0  0
   16.4784  -14.7078  -16.4689 C   0  0  0  0  0  0  0  0  0  0  0  0
   17.5189  -15.5922  -15.8366 C   0  0  0  0  0  0  0  0  0  0  0  0
   18.6812  -15.5525  -16.2972 O   0  0  0  0  0  0  0  0  0  0  0  0
   17.9735  -11.2106  -15.9491 C   0  0  0  0  0  0  0  0  0  0  0  0
   18.2081  -10.8595  -17.1597 O   0  0  0  0  0  0  0  0  0  0  0  0
   17.2538  -16.4384  -14.7811 O   0  0  0  0  0  0  0  0  0  0  0  0
   20.1498   -6.5268  -16.0091 N   0  0  0  0  0  0  0  0  0  0  0  0
   18.9803   -6.5999  -15.1551 C   0  0  0  0  0  0  0  0  0  0  0  0
   18.5273   -5.4730  -14.8282 O   0  0  0  0  0  0  0  0  0  0  0  0
   18.4184   -7.8887  -14.7405 C   0  0  0  0  0  0  0  0  0  0  0  0
   19.1119   -9.0313  -15.3799 C   0  0  2  0  0  0  0  0  0  0  0  0
   18.4696  -10.2639  -14.9896 N   0  0  0  0  0  0  0  0  0  0  0  0
   20.5734   -9.0612  -15.1334 C   0  0  0  0  0  0  0  0  0  0  0  0
   20.9545   -9.3061  -13.9581 O   0  0  0  0  0  0  0  0  0  0  0  0
   29.0159  -10.7747  -16.4530 O   0  0  0  0  0  0  0  0  0  0  0  0
   27.6354  -10.6178  -16.5066 C   0  0  0  0  0  0  0  0  0  0  0  0
   26.9075  -11.1723  -15.4688 C   0  0  0  0  0  0  0  0  0  0  0  0
   25.5272  -11.0418  -15.4781 C   0  0  0  0  0  0  0  0  0  0  0  0
   24.8918  -10.3716  -16.5030 C   0  0  0  0  0  0  0  0  0  0  0  0
   23.4178  -10.2624  -16.4778 C   0  0  0  0  0  0  0  0  0  0  0  0
   22.9644   -8.9863  -15.8140 C   0  0  2  0  0  0  0  0  0  0  0  0
   21.5417   -8.8367  -16.1161 N   0  0  0  0  0  0  0  0  0  0  0  0
   23.6800   -7.7898  -16.2664 C   0  0  0  0  0  0  0  0  0  0  0  0
   24.8169   -7.3745  -15.6069 O   0  0  0  0  0  0  0  0  0  0  0  0
   25.6343   -9.8274  -17.5261 C   0  0  0  0  0  0  0  0  0  0  0  0
   27.0131   -9.9526  -17.5253 C   0  0  0  0  0  0  0  0  0  0  0  0
   23.2643   -7.1409  -17.2500 O   0  0  0  0  0  0  0  0  0  0  0  0
  2  1  1  6
  2  3  1  0
  3  4  1  0
  4  5  1  0
  5  6  2  0
  5  9  1  0
  7  8  2  0
  7  2  1  0
 10 11  1  0
 11 12  2  0
 11 13  1  0
 14 13  1  1
 14 15  1  0
 15  7  1  0
 16 25  1  0
 16 14  1  0
 17 16  2  0
 19 18  1  0
 20 19  2  0
 21 20  1  0
 22 21  2  0
 22 28  1  0
 24 23  1  6
 23 22  1  0
 24 26  1  0
 24 25  1  0
 26 27  1  0
 28 29  2  0
 29 19  1  0
 30 26  2  0
M  END
$$$$
