ENY.pdb
     RDKit          3D

 30 30  0  0  1  0  0  0  0  0999 V2000
   23.9211  -17.2636  -19.7996 N   0  0  0  0  0  0  0  0  0  0  0  0
   23.4344  -16.1237  -18.9820 C   0  0  1  0  0  0  0  0  0  0  0  0
   22.9720  -15.0552  -19.9449 C   0  0  0  0  0  0  0  0  0  0  0  0
   21.9077  -15.4718  -20.8965 C   0  0  0  0  0  0  0  0  0  0  0  0
   22.5534  -15.9638  -22.1636 C   0  0  0  0  0  0  0  0  0  0  0  0
   23.4938  -15.2919  -22.6421 O   0  0  0  0  0  0  0  0  0  0  0  0
   22.3979  -16.6616  -18.1104 C   0  0  0  0  0  0  0  0  0  0  0  0
   21.8254  -15.9344  -17.2233 O   0  0  0  0  0  0  0  0  0  0  0  0
   22.1605  -17.1120  -22.8176 O   0  0  0  0  0  0  0  0  0  0  0  0
   18.7422  -19.2561  -15.6294 N   0  0  0  0  0  0  0  0  0  0  0  0
   18.6942  -19.5146  -17.0553 C   0  0  0  0  0  0  0  0  0  0  0  0
   17.6476  -20.1082  -17.4221 O   0  0  0  0  0  0  0  0  0  0  0  0
   19.7868  -19.1034  -17.9419 C   0  0  0  0  0  0  0  0  0  0  0  0
   20.9053  -18.4800  -17.1967 C   0  0  2  0  0  0  0  0  0  0  0  0
   21.9020  -18.0094  -18.1292 N   0  0  0  0  0  0  0  0  0  0  0  0
   21.4887  -19.3514  -16.1489 C   0  0  0  0  0  0  0  0  0  0  0  0
   22.1761  -20.3341  -16.5339 O   0  0  0  0  0  0  0  0  0  0  0  0
   25.6958  -21.7681   -8.9459 O   0  0  0  0  0  0  0  0  0  0  0  0
   24.9593  -21.0858   -9.9079 C   0  0  0  0  0  0  0  0  0  0  0  0
   25.5312  -20.9743  -11.1628 C   0  0  0  0  0  0  0  0  0  0  0  0
   24.8347  -20.3024  -12.1558 C   0  0  0  0  0  0  0  0  0  0  0  0
   23.5948  -19.7556  -11.8970 C   0  0  0  0  0  0  0  0  0  0  0  0
   22.8900  -19.0408  -12.9822 C   0  0  0  0  0  0  0  0  0  0  0  0
   22.0397  -19.9757  -13.8053 C   0  0  2  0  0  0  0  0  0  0  0  0
   21.3233  -19.1494  -14.7757 N   0  0  0  0  0  0  0  0  0  0  0  0
   21.0698  -20.7475  -13.0228 C   0  0  0  0  0  0  0  0  0  0  0  0
   21.3966  -22.0062  -12.5659 O   0  0  0  0  0  0  0  0  0  0  0  0
   23.0437  -19.8775  -10.6418 C   0  0  0  0  0  0  0  0  0  0  0  0
   23.7316  -20.5467   -9.6440 C   0  0  0  0  0  0  0  0  0  0  0  0
   19.9440  -20.2699  -12.7663 O   0  0  0  0  0  0  0  0  0  0  0  0
  2  1  1  6
  2  3  1  0
  3  4  1  0
  4  5  1  0
  5  6  2  0
  5  9  1  0
  7  8  2  0
  7  2  1  0
 10 11  1  0
 11 12  2  0
 11 13  1  0
 14 13  1  6
 14 15  1  0
 15  7  1  0
 16 25  1  0
 16 14  1  0
 17 16  2  0
 19 18  1  0
 20 19  2  0
 21 20  1  0
 22 21  2  0
 22 28  1  0
 24 23  1  1
 23 22  1  0
 24 26  1  0
 24 25  1  0
 26 27  1  0
 28 29  2  0
 29 19  1  0
 30 26  2  0
M  END
$$$$
