ENY.pdb
     RDKit          3D

 30 30  0  0  1  0  0  0  0  0999 V2000
   23.4320  -18.2050  -15.1018 N   0  0  0  0  0  0  0  0  0  0  0  0
   22.1800  -18.9941  -14.9817 C   0  0  1  0  0  0  0  0  0  0  0  0
   21.4671  -18.8963  -16.3102 C   0  0  0  0  0  0  0  0  0  0  0  0
   22.3485  -18.8954  -17.5081 C   0  0  0  0  0  0  0  0  0  0  0  0
   21.4930  -18.7886  -18.7415 C   0  0  0  0  0  0  0  0  0  0  0  0
   20.2686  -18.5820  -18.5903 O   0  0  0  0  0  0  0  0  0  0  0  0
   22.5828  -20.3395  -14.5934 C   0  0  0  0  0  0  0  0  0  0  0  0
   21.7294  -21.1986  -14.1724 O   0  0  0  0  0  0  0  0  0  0  0  0
   21.9911  -18.9068  -20.0215 O   0  0  0  0  0  0  0  0  0  0  0  0
   24.3149  -25.3329  -15.0935 N   0  0  0  0  0  0  0  0  0  0  0  0
   25.3021  -24.2778  -14.9737 C   0  0  0  0  0  0  0  0  0  0  0  0
   26.4198  -24.6817  -14.5618 O   0  0  0  0  0  0  0  0  0  0  0  0
   24.9785  -22.8889  -15.3128 C   0  0  0  0  0  0  0  0  0  0  0  0
   24.2406  -22.2063  -14.2244 C   0  0  2  0  0  0  0  0  0  0  0  0
   23.9216  -20.8581  -14.6307 N   0  0  0  0  0  0  0  0  0  0  0  0
   24.9318  -22.2452  -12.9135 C   0  0  0  0  0  0  0  0  0  0  0  0
   25.0749  -23.3729  -12.3710 O   0  0  0  0  0  0  0  0  0  0  0  0
   28.9488  -19.8547   -5.4746 O   0  0  0  0  0  0  0  0  0  0  0  0
   28.4212  -19.8857   -6.7607 C   0  0  0  0  0  0  0  0  0  0  0  0
   29.0228  -20.7511   -7.6570 C   0  0  0  0  0  0  0  0  0  0  0  0
   28.5318  -20.8175   -8.9520 C   0  0  0  0  0  0  0  0  0  0  0  0
   27.4634  -20.0352   -9.3390 C   0  0  0  0  0  0  0  0  0  0  0  0
   26.9765  -20.1314  -10.7315 C   0  0  0  0  0  0  0  0  0  0  0  0
   25.9403  -21.2164  -10.8862 C   0  0  2  0  0  0  0  0  0  0  0  0
   25.4282  -21.1183  -12.2522 N   0  0  0  0  0  0  0  0  0  0  0  0
   24.8212  -21.1133   -9.9452 C   0  0  0  0  0  0  0  0  0  0  0  0
   24.8641  -21.7890   -8.7445 O   0  0  0  0  0  0  0  0  0  0  0  0
   26.8793  -19.1806   -8.4320 C   0  0  0  0  0  0  0  0  0  0  0  0
   27.3626  -19.1076   -7.1368 C   0  0  0  0  0  0  0  0  0  0  0  0
   23.8243  -20.4140  -10.2254 O   0  0  0  0  0  0  0  0  0  0  0  0
  2  1  1  6
  2  3  1  0
  3  4  1  0
  4  5  1  0
  5  6  2  0
  5  9  1  0
  7  8  2  0
  7  2  1  0
 10 11  1  0
 11 12  2  0
 11 13  1  0
 14 13  1  6
 14 15  1  0
 15  7  1  0
 16 25  1  0
 16 14  1  0
 17 16  2  0
 19 18  1  0
 20 19  2  0
 21 20  1  0
 22 21  2  0
 22 28  1  0
 24 23  1  1
 23 22  1  0
 24 26  1  0
 24 25  1  0
 26 27  1  0
 28 29  2  0
 29 19  1  0
 30 26  2  0
M  END
$$$$
