ENY.pdb
     RDKit          3D

 30 30  0  0  1  0  0  0  0  0999 V2000
   19.7585  -10.8638  -15.1248 N   0  0  0  0  0  0  0  0  0  0  0  0
   18.8256  -10.1853  -16.0595 C   0  0  1  0  0  0  0  0  0  0  0  0
   17.4241  -10.5013  -15.5917 C   0  0  0  0  0  0  0  0  0  0  0  0
   16.7842  -11.6752  -16.2431 C   0  0  0  0  0  0  0  0  0  0  0  0
   15.7177  -12.2169  -15.3299 C   0  0  0  0  0  0  0  0  0  0  0  0
   16.0642  -13.0170  -14.4329 O   0  0  0  0  0  0  0  0  0  0  0  0
   19.1819   -8.7726  -16.0358 C   0  0  0  0  0  0  0  0  0  0  0  0
   18.5604   -7.9132  -16.7563 O   0  0  0  0  0  0  0  0  0  0  0  0
   14.3862  -11.8756  -15.4342 O   0  0  0  0  0  0  0  0  0  0  0  0
   22.4527   -7.7573  -13.5316 N   0  0  0  0  0  0  0  0  0  0  0  0
   21.5066   -6.7571  -13.0770 C   0  0  0  0  0  0  0  0  0  0  0  0
   21.6298   -6.4677  -11.8592 O   0  0  0  0  0  0  0  0  0  0  0  0
   20.5205   -6.1702  -13.9890 C   0  0  0  0  0  0  0  0  0  0  0  0
   20.5710   -6.7851  -15.3360 C   0  0  2  0  0  0  0  0  0  0  0  0
   20.2223   -8.1829  -15.2406 N   0  0  0  0  0  0  0  0  0  0  0  0
   21.8573   -6.5780  -16.0433 C   0  0  0  0  0  0  0  0  0  0  0  0
   22.7739   -7.4149  -15.8289 O   0  0  0  0  0  0  0  0  0  0  0  0
   27.8036   -6.0406  -22.1333 O   0  0  0  0  0  0  0  0  0  0  0  0
   26.7646   -6.1724  -21.2186 C   0  0  0  0  0  0  0  0  0  0  0  0
   25.4793   -6.1063  -21.7264 C   0  0  0  0  0  0  0  0  0  0  0  0
   24.4099   -6.2327  -20.8531 C   0  0  0  0  0  0  0  0  0  0  0  0
   24.6238   -6.4207  -19.5032 C   0  0  0  0  0  0  0  0  0  0  0  0
   23.4551   -6.5426  -18.6061 C   0  0  0  0  0  0  0  0  0  0  0  0
   23.3956   -5.4109  -17.6109 C   0  0  2  0  0  0  0  0  0  0  0  0
   22.1100   -5.5218  -16.9233 N   0  0  0  0  0  0  0  0  0  0  0  0
   23.5052   -4.0788  -18.2126 C   0  0  0  0  0  0  0  0  0  0  0  0
   24.7447   -3.5595  -18.5192 O   0  0  0  0  0  0  0  0  0  0  0  0
   25.9103   -6.4833  -19.0182 C   0  0  0  0  0  0  0  0  0  0  0  0
   26.9844   -6.3584  -19.8827 C   0  0  0  0  0  0  0  0  0  0  0  0
   22.4781   -3.4081  -18.4503 O   0  0  0  0  0  0  0  0  0  0  0  0
  2  1  1  1
  2  3  1  0
  3  4  1  0
  4  5  1  0
  5  6  2  0
  5  9  1  0
  7  8  2  0
  7  2  1  0
 10 11  1  0
 11 12  2  0
 11 13  1  0
 14 13  1  1
 14 15  1  0
 15  7  1  0
 16 25  1  0
 16 14  1  0
 17 16  2  0
 19 18  1  0
 20 19  2  0
 21 20  1  0
 22 21  2  0
 22 28  1  0
 24 23  1  6
 23 22  1  0
 24 26  1  0
 24 25  1  0
 26 27  1  0
 28 29  2  0
 29 19  1  0
 30 26  2  0
M  END
$$$$
