EVT.pdb
     RDKit          3D

 24 23  0  0  1  0  0  0  0  0999 V2000
    8.8985  -14.6395   20.8442 N   0  0  0  0  0  0  0  0  0  0  0  0
    8.4079  -15.3897   21.9257 C   0  0  1  0  0  0  0  0  0  0  0  0
    8.4720  -16.8599   21.8767 C   0  0  0  0  0  0  0  0  0  0  0  0
    8.0796  -17.5654   20.6398 C   0  0  0  0  0  0  0  0  0  0  0  0
    8.2591  -19.0167   20.6580 C   0  0  0  0  0  0  0  0  0  0  0  0
    8.0589  -19.7071   19.6378 O   0  0  0  0  0  0  0  0  0  0  0  0
    8.9368  -14.8450   23.2445 C   0  0  0  0  0  0  0  0  0  0  0  0
   10.1715  -14.6870   23.3730 O   0  0  0  0  0  0  0  0  0  0  0  0
    8.6588  -19.6459   21.8234 O   0  0  0  0  0  0  0  0  0  0  0  0
    7.5966  -11.7992   25.5629 C   0  0  0  0  0  0  0  0  0  0  0  0
    7.4939  -13.1215   26.2760 C   0  0  1  0  0  0  0  0  0  0  0  0
    6.0683  -13.5079   26.5133 C   0  0  0  0  0  0  0  0  0  0  0  0
    8.3416  -14.1468   25.6050 C   0  0  2  0  0  0  0  0  0  0  0  0
    8.0566  -14.5379   24.2726 N   0  0  0  0  0  0  0  0  0  0  0  0
    8.5230  -15.3184   26.4959 C   0  0  0  0  0  0  0  0  0  0  0  0
    7.5311  -16.0356   26.7367 O   0  0  0  0  0  0  0  0  0  0  0  0
   10.3719  -18.2911   25.9727 C   0  0  0  0  0  0  0  0  0  0  0  0
   10.9013  -17.7774   27.3102 C   0  0  1  0  0  0  0  0  0  0  0  0
   12.0458  -17.0371   27.0138 O   0  0  0  0  0  0  0  0  0  0  0  0
    9.9126  -16.8327   27.9243 C   0  0  2  0  0  0  0  0  0  0  0  0
    9.7638  -15.6509   27.0791 N   0  0  0  0  0  0  0  0  0  0  0  0
   10.5272  -16.3819   29.2236 C   0  0  0  0  0  0  0  0  0  0  0  0
   10.7438  -17.2635   30.2633 O   0  0  0  0  0  0  0  0  0  0  0  0
   10.8396  -15.1757   29.3390 O   0  0  0  0  0  0  0  0  0  0  0  0
  2  1  1  6
  2  3  1  0
  3  4  1  0
  4  5  1  0
  5  9  1  0
  5  6  2  0
  7 14  1  0
  7  2  1  0
  8  7  2  0
 11 10  1  6
 11 13  1  0
 12 11  1  0
 13 15  1  0
 13 14  1  6
 15 21  1  0
 16 15  2  0
 18 17  1  6
 18 19  1  0
 20 18  1  0
 20 21  1  6
 22 23  1  0
 22 20  1  0
 24 22  2  0
M  END
$$$$
