EVT.pdb
     RDKit          3D

 24 23  0  0  1  0  0  0  0  0999 V2000
    9.5455  -16.6553   15.3404 N   0  0  0  0  0  0  0  0  0  0  0  0
    8.6395  -16.8506   16.3959 C   0  0  1  0  0  0  0  0  0  0  0  0
    8.0661  -18.1879   16.6213 C   0  0  0  0  0  0  0  0  0  0  0  0
    8.9357  -19.2826   17.0980 C   0  0  0  0  0  0  0  0  0  0  0  0
    8.2856  -20.5839   17.2488 C   0  0  0  0  0  0  0  0  0  0  0  0
    7.0700  -20.7325   17.0079 O   0  0  0  0  0  0  0  0  0  0  0  0
    9.1716  -16.2399   17.6841 C   0  0  0  0  0  0  0  0  0  0  0  0
   10.3722  -16.4284   17.9827 O   0  0  0  0  0  0  0  0  0  0  0  0
    9.0233  -21.6774   17.6654 O   0  0  0  0  0  0  0  0  0  0  0  0
    8.2055  -13.2443   21.5510 C   0  0  0  0  0  0  0  0  0  0  0  0
    7.7296  -13.7566   20.2175 C   0  0  1  0  0  0  0  0  0  0  0  0
    7.4732  -12.6371   19.2589 C   0  0  0  0  0  0  0  0  0  0  0  0
    8.6222  -14.8427   19.7236 C   0  0  2  0  0  0  0  0  0  0  0  0
    8.3308  -15.4956   18.4996 N   0  0  0  0  0  0  0  0  0  0  0  0
    8.8949  -15.8113   20.8130 C   0  0  0  0  0  0  0  0  0  0  0  0
    7.9826  -16.5926   21.1497 O   0  0  0  0  0  0  0  0  0  0  0  0
   10.9886  -18.7005   21.1643 C   0  0  0  0  0  0  0  0  0  0  0  0
   11.4357  -17.7625   22.2839 C   0  0  1  0  0  0  0  0  0  0  0  0
   12.5005  -17.0243   21.7670 O   0  0  0  0  0  0  0  0  0  0  0  0
   10.3411  -16.7903   22.6059 C   0  0  2  0  0  0  0  0  0  0  0  0
   10.1359  -15.8826   21.4802 N   0  0  0  0  0  0  0  0  0  0  0  0
   10.8493  -15.9669   23.7606 C   0  0  0  0  0  0  0  0  0  0  0  0
   10.9388  -16.4896   25.0349 O   0  0  0  0  0  0  0  0  0  0  0  0
   11.1915  -14.7849   23.5341 O   0  0  0  0  0  0  0  0  0  0  0  0
  2  1  1  6
  2  3  1  0
  3  4  1  0
  4  5  1  0
  5  9  1  0
  5  6  2  0
  7 14  1  0
  7  2  1  0
  8  7  2  0
 11 10  1  1
 11 13  1  0
 12 11  1  0
 13 15  1  0
 13 14  1  6
 15 21  1  0
 16 15  2  0
 18 17  1  6
 18 19  1  0
 20 18  1  0
 20 21  1  6
 22 23  1  0
 22 20  1  0
 24 22  2  0
M  END
$$$$
