EVT.pdb
     RDKit          3D

 24 23  0  0  1  0  0  0  0  0999 V2000
    8.1494  -14.4335   20.4842 N   0  0  0  0  0  0  0  0  0  0  0  0
    7.3186  -14.7301   21.5774 C   0  0  1  0  0  0  0  0  0  0  0  0
    6.5544  -15.9887   21.5867 C   0  0  0  0  0  0  0  0  0  0  0  0
    6.9618  -17.0951   20.6970 C   0  0  0  0  0  0  0  0  0  0  0  0
    6.8466  -18.4370   21.2667 C   0  0  0  0  0  0  0  0  0  0  0  0
    7.0024  -19.4555   20.5623 O   0  0  0  0  0  0  0  0  0  0  0  0
    8.0539  -14.5061   22.8907 C   0  0  0  0  0  0  0  0  0  0  0  0
    9.2878  -14.7113   22.9266 O   0  0  0  0  0  0  0  0  0  0  0  0
    6.5602  -18.5913   22.6113 O   0  0  0  0  0  0  0  0  0  0  0  0
    7.7875  -12.7675   27.5462 C   0  0  0  0  0  0  0  0  0  0  0  0
    7.0639  -12.9410   26.2371 C   0  0  1  0  0  0  0  0  0  0  0  0
    6.6304  -11.6259   25.6710 C   0  0  0  0  0  0  0  0  0  0  0  0
    7.8433  -13.8180   25.3188 C   0  0  2  0  0  0  0  0  0  0  0  0
    7.3566  -14.0862   24.0147 N   0  0  0  0  0  0  0  0  0  0  0  0
    8.2466  -15.0597   26.0222 C   0  0  0  0  0  0  0  0  0  0  0  0
    7.3925  -15.9566   26.1723 O   0  0  0  0  0  0  0  0  0  0  0  0
   11.6349  -18.3578   27.0837 C   0  0  0  0  0  0  0  0  0  0  0  0
   11.2177  -17.0198   26.4763 C   0  0  1  0  0  0  0  0  0  0  0  0
   10.9394  -17.2754   25.1336 O   0  0  0  0  0  0  0  0  0  0  0  0
    9.9436  -16.5452   27.1075 C   0  0  2  0  0  0  0  0  0  0  0  0
    9.5481  -15.2650   26.5263 N   0  0  0  0  0  0  0  0  0  0  0  0
   10.2700  -16.2992   28.5575 C   0  0  0  0  0  0  0  0  0  0  0  0
   10.2915  -17.3286   29.4767 O   0  0  0  0  0  0  0  0  0  0  0  0
   10.5235  -15.1264   28.9122 O   0  0  0  0  0  0  0  0  0  0  0  0
  2  1  1  6
  2  3  1  0
  3  4  1  0
  4  5  1  0
  5  9  1  0
  5  6  2  0
  7 14  1  0
  7  2  1  0
  8  7  2  0
 11 10  1  1
 11 13  1  0
 12 11  1  0
 13 15  1  0
 13 14  1  6
 15 21  1  0
 16 15  2  0
 18 17  1  1
 18 19  1  0
 20 18  1  0
 20 21  1  6
 22 23  1  0
 22 20  1  0
 24 22  2  0
M  END
$$$$
