EVT.pdb
     RDKit          3D

 24 23  0  0  1  0  0  0  0  0999 V2000
   10.0885  -17.2123   19.7675 N   0  0  0  0  0  0  0  0  0  0  0  0
   11.0046  -17.3909   20.8173 C   0  0  1  0  0  0  0  0  0  0  0  0
   12.4377  -17.5363   20.5121 C   0  0  0  0  0  0  0  0  0  0  0  0
   12.9551  -18.8394   20.0475 C   0  0  0  0  0  0  0  0  0  0  0  0
   14.3496  -18.8430   19.6067 C   0  0  0  0  0  0  0  0  0  0  0  0
   14.9020  -19.8908   19.2134 O   0  0  0  0  0  0  0  0  0  0  0  0
   10.7631  -16.3741   21.9234 C   0  0  0  0  0  0  0  0  0  0  0  0
   11.5455  -15.4024   22.0223 O   0  0  0  0  0  0  0  0  0  0  0  0
   15.0788  -17.6675   19.6216 O   0  0  0  0  0  0  0  0  0  0  0  0
    7.5860  -14.4131   25.1267 C   0  0  0  0  0  0  0  0  0  0  0  0
    7.8294  -15.2706   23.9131 C   0  0  1  0  0  0  0  0  0  0  0  0
    7.2681  -14.6435   22.6763 C   0  0  0  0  0  0  0  0  0  0  0  0
    9.2591  -15.6836   23.8403 C   0  0  2  0  0  0  0  0  0  0  0  0
    9.6963  -16.5367   22.7960 N   0  0  0  0  0  0  0  0  0  0  0  0
    9.7194  -16.1578   25.1679 C   0  0  0  0  0  0  0  0  0  0  0  0
    9.6404  -17.3772   25.4187 O   0  0  0  0  0  0  0  0  0  0  0  0
    9.8879  -13.7891   28.5363 C   0  0  0  0  0  0  0  0  0  0  0  0
   11.1197  -14.6664   28.3208 C   0  0  1  0  0  0  0  0  0  0  0  0
   11.4239  -15.2173   29.5657 O   0  0  0  0  0  0  0  0  0  0  0  0
   10.7843  -15.8049   27.4053 C   0  0  2  0  0  0  0  0  0  0  0  0
   10.2380  -15.2904   26.1523 N   0  0  0  0  0  0  0  0  0  0  0  0
    9.6866  -16.5749   28.0920 C   0  0  0  0  0  0  0  0  0  0  0  0
    9.9614  -17.4877   29.0902 O   0  0  0  0  0  0  0  0  0  0  0  0
    8.5070  -16.3650   27.7314 O   0  0  0  0  0  0  0  0  0  0  0  0
  2  1  1  6
  2  3  1  0
  3  4  1  0
  4  5  1  0
  5  9  1  0
  5  6  2  0
  7 14  1  0
  7  2  1  0
  8  7  2  0
 11 10  1  1
 11 13  1  0
 12 11  1  0
 13 15  1  0
 13 14  1  6
 15 21  1  0
 16 15  2  0
 18 17  1  1
 18 19  1  0
 20 18  1  0
 20 21  1  6
 22 23  1  0
 22 20  1  0
 24 22  2  0
M  END
$$$$
