EVT.pdb
     RDKit          3D

 24 23  0  0  1  0  0  0  0  0999 V2000
    7.4708  -15.7197   21.5640 N   0  0  0  0  0  0  0  0  0  0  0  0
    8.7005  -16.2248   22.0177 C   0  0  1  0  0  0  0  0  0  0  0  0
    9.7997  -16.4265   21.0590 C   0  0  0  0  0  0  0  0  0  0  0  0
    9.5159  -17.0324   19.7422 C   0  0  0  0  0  0  0  0  0  0  0  0
   10.6888  -17.4462   18.9728 C   0  0  0  0  0  0  0  0  0  0  0  0
   10.5740  -17.9442   17.8342 O   0  0  0  0  0  0  0  0  0  0  0  0
    9.1648  -15.4794   23.2605 C   0  0  0  0  0  0  0  0  0  0  0  0
   10.3559  -15.6065   23.6228 O   0  0  0  0  0  0  0  0  0  0  0  0
   11.9542  -17.2864   19.5084 O   0  0  0  0  0  0  0  0  0  0  0  0
    6.1050  -13.5397   25.8023 C   0  0  0  0  0  0  0  0  0  0  0  0
    7.4974  -12.9855   25.6552 C   0  0  1  0  0  0  0  0  0  0  0  0
    7.9055  -12.1994   26.8608 C   0  0  0  0  0  0  0  0  0  0  0  0
    8.4441  -14.0524   25.2247 C   0  0  2  0  0  0  0  0  0  0  0  0
    8.2742  -14.6827   23.9663 N   0  0  0  0  0  0  0  0  0  0  0  0
    8.6265  -15.0406   26.3153 C   0  0  0  0  0  0  0  0  0  0  0  0
    7.6899  -15.8269   26.5616 O   0  0  0  0  0  0  0  0  0  0  0  0
   11.5422  -18.1745   28.4688 C   0  0  0  0  0  0  0  0  0  0  0  0
   11.2895  -16.9856   27.5436 C   0  0  1  0  0  0  0  0  0  0  0  0
   11.0275  -17.5253   26.2842 O   0  0  0  0  0  0  0  0  0  0  0  0
   10.0543  -16.2539   27.9748 C   0  0  2  0  0  0  0  0  0  0  0  0
    9.8083  -15.1251   27.0811 N   0  0  0  0  0  0  0  0  0  0  0  0
   10.3651  -15.6899   29.3366 C   0  0  0  0  0  0  0  0  0  0  0  0
   10.6036  -14.3432   29.5224 O   0  0  0  0  0  0  0  0  0  0  0  0
   10.4026  -16.4805   30.3058 O   0  0  0  0  0  0  0  0  0  0  0  0
  2  1  1  6
  2  3  1  0
  3  4  1  0
  4  5  1  0
  5  9  1  0
  5  6  2  0
  7 14  1  0
  7  2  1  0
  8  7  2  0
 11 10  1  1
 11 13  1  0
 12 11  1  0
 13 15  1  0
 13 14  1  6
 15 21  1  0
 16 15  2  0
 18 17  1  1
 18 19  1  0
 20 18  1  0
 20 21  1  6
 22 23  1  0
 22 20  1  0
 24 22  2  0
M  END
$$$$
