EVT.pdb
     RDKit          3D

 24 23  0  0  1  0  0  0  0  0999 V2000
    9.4501  -15.3455   20.7106 N   0  0  0  0  0  0  0  0  0  0  0  0
    8.7674  -15.9200   21.7955 C   0  0  1  0  0  0  0  0  0  0  0  0
    8.7206  -17.3856   21.9287 C   0  0  0  0  0  0  0  0  0  0  0  0
    8.2674  -18.2068   20.7877 C   0  0  0  0  0  0  0  0  0  0  0  0
    8.2264  -19.6491   21.0262 C   0  0  0  0  0  0  0  0  0  0  0  0
    7.1427  -20.2652   21.0871 O   0  0  0  0  0  0  0  0  0  0  0  0
    9.1646  -15.2466   23.1010 C   0  0  0  0  0  0  0  0  0  0  0  0
   10.3719  -15.2479   23.4302 O   0  0  0  0  0  0  0  0  0  0  0  0
    9.4060  -20.3534   21.1882 O   0  0  0  0  0  0  0  0  0  0  0  0
    5.9674  -13.6182   25.6873 C   0  0  0  0  0  0  0  0  0  0  0  0
    7.3527  -13.0308   25.6296 C   0  0  1  0  0  0  0  0  0  0  0  0
    7.6967  -12.3107   26.8949 C   0  0  0  0  0  0  0  0  0  0  0  0
    8.3375  -14.0527   25.1756 C   0  0  2  0  0  0  0  0  0  0  0  0
    8.1971  -14.6514   23.8984 N   0  0  0  0  0  0  0  0  0  0  0  0
    8.5457  -15.0655   26.2387 C   0  0  0  0  0  0  0  0  0  0  0  0
    7.7559  -16.0293   26.2981 O   0  0  0  0  0  0  0  0  0  0  0  0
   10.8574  -17.4648   26.3215 C   0  0  0  0  0  0  0  0  0  0  0  0
   11.0887  -16.8195   27.6866 C   0  0  1  0  0  0  0  0  0  0  0  0
   12.0998  -15.8766   27.5016 O   0  0  0  0  0  0  0  0  0  0  0  0
    9.8621  -16.0718   28.1146 C   0  0  2  0  0  0  0  0  0  0  0  0
    9.5932  -14.9821   27.1800 N   0  0  0  0  0  0  0  0  0  0  0  0
   10.2026  -15.4503   29.4440 C   0  0  0  0  0  0  0  0  0  0  0  0
   10.2800  -14.0813   29.6016 O   0  0  0  0  0  0  0  0  0  0  0  0
   10.4162  -16.2136   30.4123 O   0  0  0  0  0  0  0  0  0  0  0  0
  2  1  1  6
  2  3  1  0
  3  4  1  0
  4  5  1  0
  5  9  1  0
  5  6  2  0
  7 14  1  0
  7  2  1  0
  8  7  2  0
 11 10  1  1
 11 13  1  0
 12 11  1  0
 13 15  1  0
 13 14  1  6
 15 21  1  0
 16 15  2  0
 18 17  1  6
 18 19  1  0
 20 18  1  0
 20 21  1  6
 22 23  1  0
 22 20  1  0
 24 22  2  0
M  END
$$$$
