EVT.pdb
     RDKit          3D

 24 23  0  0  1  0  0  0  0  0999 V2000
    8.4145  -17.0176   16.2027 N   0  0  0  0  0  0  0  0  0  0  0  0
    8.0344  -17.2872   17.5279 C   0  0  1  0  0  0  0  0  0  0  0  0
    7.8780  -18.6837   17.9674 C   0  0  0  0  0  0  0  0  0  0  0  0
    7.5809  -19.7324   16.9706 C   0  0  0  0  0  0  0  0  0  0  0  0
    7.9414  -21.0945   17.3622 C   0  0  0  0  0  0  0  0  0  0  0  0
    7.3422  -21.6833   18.2852 O   0  0  0  0  0  0  0  0  0  0  0  0
    8.8741  -16.4781   18.5056 C   0  0  0  0  0  0  0  0  0  0  0  0
   10.1199  -16.5117   18.3926 O   0  0  0  0  0  0  0  0  0  0  0  0
    8.9645  -21.7519   16.7028 O   0  0  0  0  0  0  0  0  0  0  0  0
    7.8091  -12.8243   20.1306 C   0  0  0  0  0  0  0  0  0  0  0  0
    8.1247  -13.8591   21.1780 C   0  0  1  0  0  0  0  0  0  0  0  0
    6.9195  -14.1960   21.9976 C   0  0  0  0  0  0  0  0  0  0  0  0
    8.8429  -15.0160   20.5731 C   0  0  2  0  0  0  0  0  0  0  0  0
    8.2568  -15.7272   19.4960 N   0  0  0  0  0  0  0  0  0  0  0  0
    9.3245  -15.9286   21.6383 C   0  0  0  0  0  0  0  0  0  0  0  0
    8.5999  -16.8907   21.9629 O   0  0  0  0  0  0  0  0  0  0  0  0
   13.1008  -17.8288   24.1565 C   0  0  0  0  0  0  0  0  0  0  0  0
   12.5666  -16.7770   23.1862 C   0  0  1  0  0  0  0  0  0  0  0  0
   12.9263  -17.2107   21.9102 O   0  0  0  0  0  0  0  0  0  0  0  0
   11.0687  -16.7477   23.2355 C   0  0  2  0  0  0  0  0  0  0  0  0
   10.5602  -15.7521   22.2956 N   0  0  0  0  0  0  0  0  0  0  0  0
   10.7122  -16.2803   24.6225 C   0  0  0  0  0  0  0  0  0  0  0  0
   10.6902  -17.1507   25.6935 O   0  0  0  0  0  0  0  0  0  0  0  0
   10.4330  -15.0711   24.7817 O   0  0  0  0  0  0  0  0  0  0  0  0
  2  1  1  6
  2  3  1  0
  3  4  1  0
  4  5  1  0
  5  9  1  0
  5  6  2  0
  7 14  1  0
  7  2  1  0
  8  7  2  0
 11 10  1  6
 11 13  1  0
 12 11  1  0
 13 15  1  0
 13 14  1  6
 15 21  1  0
 16 15  2  0
 18 17  1  1
 18 19  1  0
 20 18  1  0
 20 21  1  6
 22 23  1  0
 22 20  1  0
 24 22  2  0
M  END
$$$$
