EVT.pdb
     RDKit          3D

 24 23  0  0  1  0  0  0  0  0999 V2000
    7.8721  -14.3756   20.2660 N   0  0  0  0  0  0  0  0  0  0  0  0
    7.2814  -14.9467   21.4053 C   0  0  1  0  0  0  0  0  0  0  0  0
    6.8817  -16.3636   21.3818 C   0  0  0  0  0  0  0  0  0  0  0  0
    6.2331  -16.9178   20.1760 C   0  0  0  0  0  0  0  0  0  0  0  0
    6.9117  -18.0594   19.5636 C   0  0  0  0  0  0  0  0  0  0  0  0
    7.9792  -18.5058   20.0315 O   0  0  0  0  0  0  0  0  0  0  0  0
    8.0791  -14.6056   22.6554 C   0  0  0  0  0  0  0  0  0  0  0  0
    9.3250  -14.7165   22.6173 O   0  0  0  0  0  0  0  0  0  0  0  0
    6.3678  -18.6635   18.4442 O   0  0  0  0  0  0  0  0  0  0  0  0
    5.9210  -13.0461   26.1636 C   0  0  0  0  0  0  0  0  0  0  0  0
    7.3896  -12.8201   25.9192 C   0  0  1  0  0  0  0  0  0  0  0  0
    8.1176  -12.5182   27.1908 C   0  0  0  0  0  0  0  0  0  0  0  0
    7.9590  -13.9195   25.0903 C   0  0  2  0  0  0  0  0  0  0  0  0
    7.4243  -14.1851   23.8045 N   0  0  0  0  0  0  0  0  0  0  0  0
    8.0834  -15.1551   25.9008 C   0  0  0  0  0  0  0  0  0  0  0  0
    7.0390  -15.7543   26.2270 O   0  0  0  0  0  0  0  0  0  0  0  0
    9.4622  -18.3281   25.0407 C   0  0  0  0  0  0  0  0  0  0  0  0
   10.2083  -17.9321   26.3133 C   0  0  1  0  0  0  0  0  0  0  0  0
   11.3803  -17.3026   25.8937 O   0  0  0  0  0  0  0  0  0  0  0  0
    9.4135  -16.9178   27.0791 C   0  0  2  0  0  0  0  0  0  0  0  0
    9.3273  -15.6754   26.3162 N   0  0  0  0  0  0  0  0  0  0  0  0
   10.2096  -16.6266   28.3244 C   0  0  0  0  0  0  0  0  0  0  0  0
   10.3798  -17.5773   29.3104 O   0  0  0  0  0  0  0  0  0  0  0  0
   10.7180  -15.4896   28.4447 O   0  0  0  0  0  0  0  0  0  0  0  0
  2  1  1  6
  2  3  1  0
  3  4  1  0
  4  5  1  0
  5  9  1  0
  5  6  2  0
  7 14  1  0
  7  2  1  0
  8  7  2  0
 11 10  1  1
 11 13  1  0
 12 11  1  0
 13 15  1  0
 13 14  1  6
 15 21  1  0
 16 15  2  0
 18 17  1  6
 18 19  1  0
 20 18  1  0
 20 21  1  6
 22 23  1  0
 22 20  1  0
 24 22  2  0
M  END
$$$$
