TTW.pdb
     RDKit          3D

 29 30  0  0  1  0  0  0  0  0999 V2000
    8.4447  -12.3337   17.7839 C   0  0  0  0  0  0  0  0  0  0  0  0
    8.5810  -13.4288   18.7886 C   0  0  1  0  0  0  0  0  0  0  0  0
    7.4445  -13.6318   19.5668 O   0  0  0  0  0  0  0  0  0  0  0  0
    9.0310  -14.7078   18.1136 C   0  0  2  0  0  0  0  0  0  0  0  0
    8.0705  -15.1354   17.1155 N   0  0  0  0  0  0  0  0  0  0  0  0
    9.1729  -15.7640   19.1439 C   0  0  0  0  0  0  0  0  0  0  0  0
    8.1765  -16.3996   19.6040 O   0  0  0  0  0  0  0  0  0  0  0  0
   12.1517  -18.3675   19.4542 C   0  0  0  0  0  0  0  0  0  0  0  0
   11.9134  -17.6635   20.7537 C   0  0  1  0  0  0  0  0  0  0  0  0
   12.9780  -16.7982   20.9781 O   0  0  0  0  0  0  0  0  0  0  0  0
   10.5827  -16.9461   20.8208 C   0  0  2  0  0  0  0  0  0  0  0  0
   10.4765  -16.1049   19.6624 N   0  0  0  0  0  0  0  0  0  0  0  0
   10.4539  -16.1560   22.0747 C   0  0  0  0  0  0  0  0  0  0  0  0
   10.6147  -14.9184   21.9587 O   0  0  0  0  0  0  0  0  0  0  0  0
   10.1675  -16.8400   23.2667 N   0  0  0  0  0  0  0  0  0  0  0  0
    9.6586  -16.0552   24.4096 C   0  0  1  0  0  0  0  0  0  0  0  0
    8.4277  -15.3732   23.9418 C   0  0  0  0  0  0  0  0  0  0  0  0
    7.5584  -14.8347   24.9925 C   0  0  0  0  0  0  0  0  0  0  0  0
    6.6203  -15.5810   25.7226 C   0  0  0  0  0  0  0  0  0  0  0  0
    5.9920  -14.7710   26.5629 N   0  0  0  0  0  0  0  0  0  0  0  0
    6.4414  -13.5147   26.4550 C   0  0  0  0  0  0  0  0  0  0  0  0
    6.1307  -12.3348   27.1015 C   0  0  0  0  0  0  0  0  0  0  0  0
    6.8065  -11.1793   26.7660 C   0  0  0  0  0  0  0  0  0  0  0  0
    7.7865  -11.1849   25.7959 C   0  0  0  0  0  0  0  0  0  0  0  0
    8.0659  -12.3760   25.1761 C   0  0  0  0  0  0  0  0  0  0  0  0
    7.4109  -13.5511   25.4843 C   0  0  0  0  0  0  0  0  0  0  0  0
    9.5279  -16.9087   25.5807 C   0  0  0  0  0  0  0  0  0  0  0  0
    9.6346  -16.4237   26.8647 O   0  0  0  0  0  0  0  0  0  0  0  0
    9.3155  -18.1388   25.4549 O   0  0  0  0  0  0  0  0  0  0  0  0
  2  1  1  6
  3  2  1  0
  4  5  1  6
  4  2  1  0
  4  6  1  0
  6  7  2  0
  9 11  1  0
  9  8  1  6
 10  9  1  0
 11 13  1  0
 12  6  1  0
 11 12  1  6
 13 14  2  0
 15 13  1  0
 15 16  1  0
 16 27  1  0
 16 17  1  6
 18 17  1  0
 19 18  2  0
 20 21  1  0
 20 19  1  0
 21 26  2  0
 22 21  1  0
 22 23  2  0
 23 24  1  0
 24 25  2  0
 26 18  1  0
 26 25  1  0
 27 28  1  0
 29 27  2  0
M  END
$$$$
