TTW.pdb
     RDKit          3D

 29 30  0  0  1  0  0  0  0  0999 V2000
   10.4319  -13.9838   16.6355 C   0  0  0  0  0  0  0  0  0  0  0  0
   10.0190  -14.3714   18.0163 C   0  0  1  0  0  0  0  0  0  0  0  0
   10.8008  -13.8104   19.0225 O   0  0  0  0  0  0  0  0  0  0  0  0
    8.5473  -14.0810   18.2253 C   0  0  2  0  0  0  0  0  0  0  0  0
    8.2694  -12.6662   18.0742 N   0  0  0  0  0  0  0  0  0  0  0  0
    8.1672  -14.5137   19.5912 C   0  0  0  0  0  0  0  0  0  0  0  0
    7.9762  -13.6879   20.5346 O   0  0  0  0  0  0  0  0  0  0  0  0
    5.7853  -17.7726   20.2855 C   0  0  0  0  0  0  0  0  0  0  0  0
    7.0228  -17.7063   21.1251 C   0  0  1  0  0  0  0  0  0  0  0  0
    7.9335  -18.6307   20.6265 O   0  0  0  0  0  0  0  0  0  0  0  0
    7.6222  -16.3198   21.2153 C   0  0  2  0  0  0  0  0  0  0  0  0
    8.0007  -15.9162   19.8907 N   0  0  0  0  0  0  0  0  0  0  0  0
    8.7860  -16.2900   22.1415 C   0  0  0  0  0  0  0  0  0  0  0  0
    9.9119  -16.4238   21.6072 O   0  0  0  0  0  0  0  0  0  0  0  0
    8.5417  -16.1173   23.5131 N   0  0  0  0  0  0  0  0  0  0  0  0
    9.7060  -16.0249   24.4169 C   0  0  1  0  0  0  0  0  0  0  0  0
    9.5330  -14.7814   25.2062 C   0  0  0  0  0  0  0  0  0  0  0  0
    8.2127  -14.5905   25.8145 C   0  0  0  0  0  0  0  0  0  0  0  0
    7.2922  -15.6165   26.0794 C   0  0  0  0  0  0  0  0  0  0  0  0
    6.1966  -15.0822   26.6003 N   0  0  0  0  0  0  0  0  0  0  0  0
    6.3086  -13.7527   26.7097 C   0  0  0  0  0  0  0  0  0  0  0  0
    5.4732  -12.7646   27.1916 C   0  0  0  0  0  0  0  0  0  0  0  0
    5.9007  -11.4525   27.1853 C   0  0  0  0  0  0  0  0  0  0  0  0
    7.1482  -11.1133   26.7056 C   0  0  0  0  0  0  0  0  0  0  0  0
    7.9484  -12.1228   26.2350 C   0  0  0  0  0  0  0  0  0  0  0  0
    7.5552  -13.4457   26.2246 C   0  0  0  0  0  0  0  0  0  0  0  0
    9.8514  -17.2617   25.1694 C   0  0  0  0  0  0  0  0  0  0  0  0
   10.9535  -17.5266   25.9507 O   0  0  0  0  0  0  0  0  0  0  0  0
    8.9622  -18.1457   25.1247 O   0  0  0  0  0  0  0  0  0  0  0  0
  2  1  1  6
  3  2  1  0
  4  5  1  1
  4  2  1  0
  4  6  1  0
  6  7  2  0
  9 11  1  0
  9  8  1  6
 10  9  1  0
 11 13  1  0
 12  6  1  0
 11 12  1  6
 13 14  2  0
 15 13  1  0
 15 16  1  0
 16 27  1  0
 16 17  1  1
 18 17  1  0
 19 18  2  0
 20 21  1  0
 20 19  1  0
 21 26  2  0
 22 21  1  0
 22 23  2  0
 23 24  1  0
 24 25  2  0
 26 18  1  0
 26 25  1  0
 27 28  1  0
 29 27  2  0
M  END
$$$$
