TTW.pdb
     RDKit          3D

 29 30  0  0  1  0  0  0  0  0999 V2000
    9.6749  -12.7316   20.1311 C   0  0  0  0  0  0  0  0  0  0  0  0
    8.4750  -12.8983   19.2594 C   0  0  1  0  0  0  0  0  0  0  0  0
    8.3584  -11.9346   18.2614 O   0  0  0  0  0  0  0  0  0  0  0  0
    8.4311  -14.3007   18.6891 C   0  0  2  0  0  0  0  0  0  0  0  0
    7.2646  -14.4843   17.8480 N   0  0  0  0  0  0  0  0  0  0  0  0
    8.3856  -15.2685   19.8110 C   0  0  0  0  0  0  0  0  0  0  0  0
    7.3909  -15.3521   20.5933 O   0  0  0  0  0  0  0  0  0  0  0  0
    9.6653  -18.9799   19.5414 C   0  0  0  0  0  0  0  0  0  0  0  0
   10.2034  -18.3192   20.7723 C   0  0  1  0  0  0  0  0  0  0  0  0
   11.5572  -18.0732   20.5741 O   0  0  0  0  0  0  0  0  0  0  0  0
    9.4556  -17.0633   21.1639 C   0  0  2  0  0  0  0  0  0  0  0  0
    9.4956  -16.1606   20.0485 N   0  0  0  0  0  0  0  0  0  0  0  0
   10.0394  -16.4410   22.3826 C   0  0  0  0  0  0  0  0  0  0  0  0
   10.7899  -15.4564   22.1863 O   0  0  0  0  0  0  0  0  0  0  0  0
    9.7127  -16.9899   23.6326 N   0  0  0  0  0  0  0  0  0  0  0  0
   10.2008  -16.2964   24.8417 C   0  0  1  0  0  0  0  0  0  0  0  0
    9.7525  -14.8870   24.7328 C   0  0  0  0  0  0  0  0  0  0  0  0
    8.3595  -14.6298   25.1109 C   0  0  0  0  0  0  0  0  0  0  0  0
    7.3249  -15.5774   25.0666 C   0  0  0  0  0  0  0  0  0  0  0  0
    6.1963  -14.9945   25.4456 N   0  0  0  0  0  0  0  0  0  0  0  0
    6.3926  -13.7053   25.7478 C   0  0  0  0  0  0  0  0  0  0  0  0
    5.5627  -12.6967   26.1958 C   0  0  0  0  0  0  0  0  0  0  0  0
    6.0884  -11.4443   26.4402 C   0  0  0  0  0  0  0  0  0  0  0  0
    7.4285  -11.1849   26.2441 C   0  0  0  0  0  0  0  0  0  0  0  0
    8.2200  -12.2122   25.7978 C   0  0  0  0  0  0  0  0  0  0  0  0
    7.7301  -13.4769   25.5419 C   0  0  0  0  0  0  0  0  0  0  0  0
    9.7886  -17.0231   26.0330 C   0  0  0  0  0  0  0  0  0  0  0  0
    8.9770  -18.1337   25.9777 O   0  0  0  0  0  0  0  0  0  0  0  0
   10.1623  -16.6498   27.1709 O   0  0  0  0  0  0  0  0  0  0  0  0
  2  1  1  6
  3  2  1  0
  4  5  1  6
  4  2  1  0
  4  6  1  0
  6  7  2  0
  9 11  1  0
  9  8  1  6
 10  9  1  0
 11 13  1  0
 12  6  1  0
 11 12  1  6
 13 14  2  0
 15 13  1  0
 15 16  1  0
 16 27  1  0
 16 17  1  1
 18 17  1  0
 19 18  2  0
 20 21  1  0
 20 19  1  0
 21 26  2  0
 22 21  1  0
 22 23  2  0
 23 24  1  0
 24 25  2  0
 26 18  1  0
 26 25  1  0
 27 28  1  0
 29 27  2  0
M  END
$$$$
