TTW.pdb
     RDKit          3D

 29 30  0  0  1  0  0  0  0  0999 V2000
   10.5966  -13.3548   17.2179 C   0  0  0  0  0  0  0  0  0  0  0  0
   10.0733  -13.9354   18.4893 C   0  0  1  0  0  0  0  0  0  0  0  0
   10.4259  -13.2186   19.6296 O   0  0  0  0  0  0  0  0  0  0  0  0
    8.5750  -14.1363   18.3973 C   0  0  2  0  0  0  0  0  0  0  0  0
    7.8940  -12.8770   18.1689 N   0  0  0  0  0  0  0  0  0  0  0  0
    8.0966  -14.7306   19.6683 C   0  0  0  0  0  0  0  0  0  0  0  0
    7.4917  -14.0481   20.5496 O   0  0  0  0  0  0  0  0  0  0  0  0
    6.6803  -18.4702   19.8608 C   0  0  0  0  0  0  0  0  0  0  0  0
    7.6274  -18.1670   20.9797 C   0  0  1  0  0  0  0  0  0  0  0  0
    8.8130  -18.8521   20.7401 O   0  0  0  0  0  0  0  0  0  0  0  0
    7.8660  -16.6875   21.1895 C   0  0  2  0  0  0  0  0  0  0  0  0
    8.3108  -16.1317   19.9429 N   0  0  0  0  0  0  0  0  0  0  0  0
    8.8570  -16.4450   22.2723 C   0  0  0  0  0  0  0  0  0  0  0  0
    9.8096  -15.6847   21.9798 O   0  0  0  0  0  0  0  0  0  0  0  0
    8.6551  -17.0709   23.5125 N   0  0  0  0  0  0  0  0  0  0  0  0
    9.5581  -16.7109   24.6243 C   0  0  1  0  0  0  0  0  0  0  0  0
    9.3910  -15.2551   24.8525 C   0  0  0  0  0  0  0  0  0  0  0  0
    8.1011  -14.8414   25.4133 C   0  0  0  0  0  0  0  0  0  0  0  0
    6.9841  -15.6775   25.5664 C   0  0  0  0  0  0  0  0  0  0  0  0
    5.9863  -14.9674   26.0736 N   0  0  0  0  0  0  0  0  0  0  0  0
    6.3497  -13.6954   26.2786 C   0  0  0  0  0  0  0  0  0  0  0  0
    5.6976  -12.5908   26.7895 C   0  0  0  0  0  0  0  0  0  0  0  0
    6.3731  -11.3917   26.8920 C   0  0  0  0  0  0  0  0  0  0  0  0
    7.6882  -11.2800   26.4923 C   0  0  0  0  0  0  0  0  0  0  0  0
    8.3010  -12.3992   25.9896 C   0  0  0  0  0  0  0  0  0  0  0  0
    7.6578  -13.6146   25.8713 C   0  0  0  0  0  0  0  0  0  0  0  0
    9.3168  -17.5829   25.7638 C   0  0  0  0  0  0  0  0  0  0  0  0
   10.1311  -17.5912   26.8739 O   0  0  0  0  0  0  0  0  0  0  0  0
    8.3435  -18.3744   25.7685 O   0  0  0  0  0  0  0  0  0  0  0  0
  2  1  1  6
  3  2  1  0
  4  5  1  1
  4  2  1  0
  4  6  1  0
  6  7  2  0
  9 11  1  0
  9  8  1  6
 10  9  1  0
 11 13  1  0
 12  6  1  0
 11 12  1  6
 13 14  2  0
 15 13  1  0
 15 16  1  0
 16 27  1  0
 16 17  1  1
 18 17  1  0
 19 18  2  0
 20 21  1  0
 20 19  1  0
 21 26  2  0
 22 21  1  0
 22 23  2  0
 23 24  1  0
 24 25  2  0
 26 18  1  0
 26 25  1  0
 27 28  1  0
 29 27  2  0
M  END
$$$$
