TTW.pdb
     RDKit          3D

 29 30  0  0  1  0  0  0  0  0999 V2000
    9.9063  -12.8512   19.9081 C   0  0  0  0  0  0  0  0  0  0  0  0
    8.8151  -12.9626   18.8961 C   0  0  1  0  0  0  0  0  0  0  0  0
    9.0081  -12.1776   17.7625 O   0  0  0  0  0  0  0  0  0  0  0  0
    8.5790  -14.4146   18.5360 C   0  0  2  0  0  0  0  0  0  0  0  0
    7.5092  -14.5430   17.5661 N   0  0  0  0  0  0  0  0  0  0  0  0
    8.2180  -15.1567   19.7674 C   0  0  0  0  0  0  0  0  0  0  0  0
    7.1243  -14.9620   20.3793 O   0  0  0  0  0  0  0  0  0  0  0  0
    7.8124  -18.7652   20.1604 C   0  0  0  0  0  0  0  0  0  0  0  0
    8.8055  -18.3351   21.1947 C   0  0  1  0  0  0  0  0  0  0  0  0
   10.0691  -18.7314   20.7718 O   0  0  0  0  0  0  0  0  0  0  0  0
    8.7559  -16.8550   21.5061 C   0  0  2  0  0  0  0  0  0  0  0  0
    9.1205  -16.1416   20.3149 N   0  0  0  0  0  0  0  0  0  0  0  0
    9.6549  -16.5077   22.6393 C   0  0  0  0  0  0  0  0  0  0  0  0
   10.8330  -16.2117   22.3302 O   0  0  0  0  0  0  0  0  0  0  0  0
    9.1282  -16.5359   23.9403 N   0  0  0  0  0  0  0  0  0  0  0  0
   10.0372  -16.2232   25.0616 C   0  0  1  0  0  0  0  0  0  0  0  0
    9.7136  -14.8434   25.4982 C   0  0  0  0  0  0  0  0  0  0  0  0
    8.2903  -14.5559   25.7010 C   0  0  0  0  0  0  0  0  0  0  0  0
    7.2655  -15.5150   25.6902 C   0  0  0  0  0  0  0  0  0  0  0  0
    6.1051  -14.9011   25.8739 N   0  0  0  0  0  0  0  0  0  0  0  0
    6.2703  -13.5797   26.0106 C   0  0  0  0  0  0  0  0  0  0  0  0
    5.4003  -12.5305   26.2316 C   0  0  0  0  0  0  0  0  0  0  0  0
    5.8990  -11.2490   26.3482 C   0  0  0  0  0  0  0  0  0  0  0  0
    7.2517  -11.0005   26.2475 C   0  0  0  0  0  0  0  0  0  0  0  0
    8.0833  -12.0685   26.0271 C   0  0  0  0  0  0  0  0  0  0  0  0
    7.6214  -13.3633   25.9044 C   0  0  0  0  0  0  0  0  0  0  0  0
    9.9556  -17.2651   26.0739 C   0  0  0  0  0  0  0  0  0  0  0  0
    9.0746  -18.3189   25.9809 O   0  0  0  0  0  0  0  0  0  0  0  0
   10.6959  -17.2324   27.0862 O   0  0  0  0  0  0  0  0  0  0  0  0
  2  1  1  1
  3  2  1  0
  4  5  1  6
  4  2  1  0
  4  6  1  0
  6  7  2  0
  9 11  1  0
  9  8  1  6
 10  9  1  0
 11 13  1  0
 12  6  1  0
 11 12  1  6
 13 14  2  0
 15 13  1  0
 15 16  1  0
 16 27  1  0
 16 17  1  1
 18 17  1  0
 19 18  2  0
 20 21  1  0
 20 19  1  0
 21 26  2  0
 22 21  1  0
 22 23  2  0
 23 24  1  0
 24 25  2  0
 26 18  1  0
 26 25  1  0
 27 28  1  0
 29 27  2  0
M  END
$$$$
