TTW.pdb
     RDKit          3D

 29 30  0  0  1  0  0  0  0  0999 V2000
    8.8403  -12.6918   20.3395 C   0  0  0  0  0  0  0  0  0  0  0  0
    8.1039  -13.0932   19.1051 C   0  0  1  0  0  0  0  0  0  0  0  0
    8.1627  -12.1558   18.0773 O   0  0  0  0  0  0  0  0  0  0  0  0
    8.5626  -14.4599   18.6409 C   0  0  2  0  0  0  0  0  0  0  0  0
    7.8211  -14.8884   17.4711 N   0  0  0  0  0  0  0  0  0  0  0  0
    8.3502  -15.4310   19.7406 C   0  0  0  0  0  0  0  0  0  0  0  0
    7.2057  -15.9032   20.0154 O   0  0  0  0  0  0  0  0  0  0  0  0
    9.1660  -18.7521   20.0895 C   0  0  0  0  0  0  0  0  0  0  0  0
    9.8201  -18.1159   21.2762 C   0  0  1  0  0  0  0  0  0  0  0  0
   11.1849  -18.0335   21.0250 O   0  0  0  0  0  0  0  0  0  0  0  0
    9.2344  -16.7699   21.6438 C   0  0  2  0  0  0  0  0  0  0  0  0
    9.4637  -15.8746   20.5454 N   0  0  0  0  0  0  0  0  0  0  0  0
    9.8291  -16.2437   22.9018 C   0  0  0  0  0  0  0  0  0  0  0  0
   10.7994  -15.4628   22.7616 O   0  0  0  0  0  0  0  0  0  0  0  0
    9.2711  -16.6512   24.1239 N   0  0  0  0  0  0  0  0  0  0  0  0
    9.8848  -16.1443   25.3679 C   0  0  1  0  0  0  0  0  0  0  0  0
    8.8248  -16.1687   26.4047 C   0  0  0  0  0  0  0  0  0  0  0  0
    7.6360  -15.3590   26.1207 C   0  0  0  0  0  0  0  0  0  0  0  0
    6.4014  -15.8660   25.6860 C   0  0  0  0  0  0  0  0  0  0  0  0
    5.5667  -14.8534   25.4988 N   0  0  0  0  0  0  0  0  0  0  0  0
    6.1522  -13.6826   25.7787 C   0  0  0  0  0  0  0  0  0  0  0  0
    5.7162  -12.3726   25.7584 C   0  0  0  0  0  0  0  0  0  0  0  0
    6.5809  -11.3642   26.1324 C   0  0  0  0  0  0  0  0  0  0  0  0
    7.8725  -11.6444   26.5257 C   0  0  0  0  0  0  0  0  0  0  0  0
    8.2683  -12.9575   26.5320 C   0  0  0  0  0  0  0  0  0  0  0  0
    7.4325  -13.9923   26.1640 C   0  0  0  0  0  0  0  0  0  0  0  0
   11.1022  -16.8855   25.6603 C   0  0  0  0  0  0  0  0  0  0  0  0
   11.4902  -17.9871   24.9314 O   0  0  0  0  0  0  0  0  0  0  0  0
   11.8485  -16.5410   26.6080 O   0  0  0  0  0  0  0  0  0  0  0  0
  2  1  1  1
  3  2  1  0
  4  5  1  6
  4  2  1  0
  4  6  1  0
  6  7  2  0
  9 11  1  0
  9  8  1  6
 10  9  1  0
 11 13  1  0
 12  6  1  0
 11 12  1  6
 13 14  2  0
 15 13  1  0
 15 16  1  0
 16 27  1  0
 16 17  1  1
 18 17  1  0
 19 18  2  0
 20 21  1  0
 20 19  1  0
 21 26  2  0
 22 21  1  0
 22 23  2  0
 23 24  1  0
 24 25  2  0
 26 18  1  0
 26 25  1  0
 27 28  1  0
 29 27  2  0
M  END
$$$$
