TTW.pdb
     RDKit          3D

 29 30  0  0  1  0  0  0  0  0999 V2000
    9.6999  -12.4401   18.0486 C   0  0  0  0  0  0  0  0  0  0  0  0
    9.3547  -13.2125   19.2780 C   0  0  1  0  0  0  0  0  0  0  0  0
    9.0293  -12.4198   20.3754 O   0  0  0  0  0  0  0  0  0  0  0  0
    8.2665  -14.2216   18.9760 C   0  0  2  0  0  0  0  0  0  0  0  0
    7.0414  -13.5606   18.5714 N   0  0  0  0  0  0  0  0  0  0  0  0
    8.0121  -15.0251   20.1954 C   0  0  0  0  0  0  0  0  0  0  0  0
    7.1496  -14.6870   21.0615 O   0  0  0  0  0  0  0  0  0  0  0  0
    7.9359  -18.9914   20.1871 C   0  0  0  0  0  0  0  0  0  0  0  0
    8.7710  -18.4579   21.3091 C   0  0  1  0  0  0  0  0  0  0  0  0
   10.1072  -18.6826   20.9981 O   0  0  0  0  0  0  0  0  0  0  0  0
    8.5051  -17.0022   21.6255 C   0  0  2  0  0  0  0  0  0  0  0  0
    8.7550  -16.2397   20.4352 N   0  0  0  0  0  0  0  0  0  0  0  0
    9.3481  -16.5289   22.7562 C   0  0  0  0  0  0  0  0  0  0  0  0
   10.1634  -15.6165   22.4842 O   0  0  0  0  0  0  0  0  0  0  0  0
    9.1708  -17.1255   24.0145 N   0  0  0  0  0  0  0  0  0  0  0  0
   10.0376  -16.6747   25.1221 C   0  0  1  0  0  0  0  0  0  0  0  0
    9.6799  -15.2613   25.3930 C   0  0  0  0  0  0  0  0  0  0  0  0
    8.2780  -15.0142   25.7443 C   0  0  0  0  0  0  0  0  0  0  0  0
    7.2907  -16.0049   25.8620 C   0  0  0  0  0  0  0  0  0  0  0  0
    6.1371  -15.4239   26.1600 N   0  0  0  0  0  0  0  0  0  0  0  0
    6.2719  -14.0954   26.2547 C   0  0  0  0  0  0  0  0  0  0  0  0
    5.3964  -13.0695   26.5506 C   0  0  0  0  0  0  0  0  0  0  0  0
    5.8618  -11.7709   26.5897 C   0  0  0  0  0  0  0  0  0  0  0  0
    7.1865  -11.4824   26.3381 C   0  0  0  0  0  0  0  0  0  0  0  0
    8.0247  -12.5283   26.0473 C   0  0  0  0  0  0  0  0  0  0  0  0
    7.5956  -13.8391   25.9983 C   0  0  0  0  0  0  0  0  0  0  0  0
    9.9376  -17.6000   26.2406 C   0  0  0  0  0  0  0  0  0  0  0  0
    9.0863  -18.6819   26.2312 O   0  0  0  0  0  0  0  0  0  0  0  0
   10.6334  -17.4347   27.2713 O   0  0  0  0  0  0  0  0  0  0  0  0
  2  1  1  6
  3  2  1  0
  4  5  1  1
  4  2  1  0
  4  6  1  0
  6  7  2  0
  9 11  1  0
  9  8  1  6
 10  9  1  0
 11 13  1  0
 12  6  1  0
 11 12  1  6
 13 14  2  0
 15 13  1  0
 15 16  1  0
 16 27  1  0
 16 17  1  1
 18 17  1  0
 19 18  2  0
 20 21  1  0
 20 19  1  0
 21 26  2  0
 22 21  1  0
 22 23  2  0
 23 24  1  0
 24 25  2  0
 26 18  1  0
 26 25  1  0
 27 28  1  0
 29 27  2  0
M  END
$$$$
