TTW.pdb
     RDKit          3D

 29 30  0  0  1  0  0  0  0  0999 V2000
    9.7356  -12.8414   19.8812 C   0  0  0  0  0  0  0  0  0  0  0  0
    8.4799  -13.1206   19.1246 C   0  0  1  0  0  0  0  0  0  0  0  0
    8.2927  -12.3048   18.0119 O   0  0  0  0  0  0  0  0  0  0  0  0
    8.4017  -14.5885   18.7601 C   0  0  2  0  0  0  0  0  0  0  0  0
    7.1969  -14.8741   18.0061 N   0  0  0  0  0  0  0  0  0  0  0  0
    8.4021  -15.3885   20.0080 C   0  0  0  0  0  0  0  0  0  0  0  0
    7.3736  -15.4992   20.7418 O   0  0  0  0  0  0  0  0  0  0  0  0
    9.8689  -18.9096   19.9774 C   0  0  0  0  0  0  0  0  0  0  0  0
   10.3509  -18.2029   21.2059 C   0  0  1  0  0  0  0  0  0  0  0  0
   11.6982  -17.9066   21.0336 O   0  0  0  0  0  0  0  0  0  0  0  0
    9.5447  -16.9704   21.5536 C   0  0  2  0  0  0  0  0  0  0  0  0
    9.5984  -16.0775   20.4308 N   0  0  0  0  0  0  0  0  0  0  0  0
   10.0568  -16.3163   22.7877 C   0  0  0  0  0  0  0  0  0  0  0  0
   10.8418  -15.3554   22.6104 O   0  0  0  0  0  0  0  0  0  0  0  0
    9.6313  -16.8124   24.0302 N   0  0  0  0  0  0  0  0  0  0  0  0
   10.1195  -16.1363   25.2490 C   0  0  1  0  0  0  0  0  0  0  0  0
    9.6342  -14.7366   25.1813 C   0  0  0  0  0  0  0  0  0  0  0  0
    8.2057  -14.5432   25.4486 C   0  0  0  0  0  0  0  0  0  0  0  0
    7.2103  -15.5120   25.2469 C   0  0  0  0  0  0  0  0  0  0  0  0
    6.0344  -14.9870   25.5612 N   0  0  0  0  0  0  0  0  0  0  0  0
    6.1614  -13.7176   25.9667 C   0  0  0  0  0  0  0  0  0  0  0  0
    5.2631  -12.7651   26.4055 C   0  0  0  0  0  0  0  0  0  0  0  0
    5.7244  -11.5198   26.7809 C   0  0  0  0  0  0  0  0  0  0  0  0
    7.0675  -11.2123   26.7246 C   0  0  0  0  0  0  0  0  0  0  0  0
    7.9281  -12.1845   26.2828 C   0  0  0  0  0  0  0  0  0  0  0  0
    7.5038  -13.4404   25.8984 C   0  0  0  0  0  0  0  0  0  0  0  0
    9.7433  -16.9021   26.4276 C   0  0  0  0  0  0  0  0  0  0  0  0
   10.1933  -16.5857   27.6896 O   0  0  0  0  0  0  0  0  0  0  0  0
    8.9867  -17.8980   26.3284 O   0  0  0  0  0  0  0  0  0  0  0  0
  2  1  1  6
  3  2  1  0
  4  5  1  1
  4  2  1  0
  4  6  1  0
  6  7  2  0
  9 11  1  0
  9  8  1  6
 10  9  1  0
 11 13  1  0
 12  6  1  0
 11 12  1  6
 13 14  2  0
 15 13  1  0
 15 16  1  0
 16 27  1  0
 16 17  1  1
 18 17  1  0
 19 18  2  0
 20 21  1  0
 20 19  1  0
 21 26  2  0
 22 21  1  0
 22 23  2  0
 23 24  1  0
 24 25  2  0
 26 18  1  0
 26 25  1  0
 27 28  1  0
 29 27  2  0
M  END
$$$$
