TTW.pdb
     RDKit          3D

 29 30  0  0  1  0  0  0  0  0999 V2000
    9.4859  -12.2757   18.2894 C   0  0  0  0  0  0  0  0  0  0  0  0
    9.2023  -13.1749   19.4463 C   0  0  1  0  0  0  0  0  0  0  0  0
    8.7889  -12.5086   20.5968 O   0  0  0  0  0  0  0  0  0  0  0  0
    8.2201  -14.2551   19.0434 C   0  0  2  0  0  0  0  0  0  0  0  0
    6.9422  -13.6828   18.6677 N   0  0  0  0  0  0  0  0  0  0  0  0
    8.0290  -15.1749   20.1900 C   0  0  0  0  0  0  0  0  0  0  0  0
    7.0480  -15.0692   20.9868 O   0  0  0  0  0  0  0  0  0  0  0  0
    8.4546  -19.0515   20.0091 C   0  0  0  0  0  0  0  0  0  0  0  0
    9.2261  -18.4942   21.1647 C   0  0  1  0  0  0  0  0  0  0  0  0
   10.5782  -18.5427   20.8452 O   0  0  0  0  0  0  0  0  0  0  0  0
    8.7939  -17.1014   21.5685 C   0  0  2  0  0  0  0  0  0  0  0  0
    8.9743  -16.2381   20.4358 N   0  0  0  0  0  0  0  0  0  0  0  0
    9.5618  -16.6140   22.7458 C   0  0  0  0  0  0  0  0  0  0  0  0
   10.4097  -15.7208   22.5125 O   0  0  0  0  0  0  0  0  0  0  0  0
    9.2850  -17.1775   24.0014 N   0  0  0  0  0  0  0  0  0  0  0  0
   10.0315  -16.6665   25.1688 C   0  0  1  0  0  0  0  0  0  0  0  0
    9.7158  -15.2214   25.2752 C   0  0  0  0  0  0  0  0  0  0  0  0
    8.3156  -14.8938   25.5608 C   0  0  0  0  0  0  0  0  0  0  0  0
    7.2504  -15.8070   25.5200 C   0  0  0  0  0  0  0  0  0  0  0  0
    6.1260  -15.1634   25.8006 N   0  0  0  0  0  0  0  0  0  0  0  0
    6.3539  -13.8647   26.0319 C   0  0  0  0  0  0  0  0  0  0  0  0
    5.5399  -12.8021   26.3709 C   0  0  0  0  0  0  0  0  0  0  0  0
    6.0981  -11.5550   26.5647 C   0  0  0  0  0  0  0  0  0  0  0  0
    7.4552  -11.3539   26.4252 C   0  0  0  0  0  0  0  0  0  0  0  0
    8.2302  -12.4338   26.0872 C   0  0  0  0  0  0  0  0  0  0  0  0
    7.7078  -13.6951   25.8846 C   0  0  0  0  0  0  0  0  0  0  0  0
    9.7483  -17.4850   26.3379 C   0  0  0  0  0  0  0  0  0  0  0  0
   10.4181  -17.3278   27.5304 O   0  0  0  0  0  0  0  0  0  0  0  0
    8.8717  -18.3814   26.2937 O   0  0  0  0  0  0  0  0  0  0  0  0
  2  1  1  6
  3  2  1  0
  4  5  1  1
  4  2  1  0
  4  6  1  0
  6  7  2  0
  9 11  1  0
  9  8  1  6
 10  9  1  0
 11 13  1  0
 12  6  1  0
 11 12  1  6
 13 14  2  0
 15 13  1  0
 15 16  1  0
 16 27  1  0
 16 17  1  1
 18 17  1  0
 19 18  2  0
 20 21  1  0
 20 19  1  0
 21 26  2  0
 22 21  1  0
 22 23  2  0
 23 24  1  0
 24 25  2  0
 26 18  1  0
 26 25  1  0
 27 28  1  0
 29 27  2  0
M  END
$$$$
