DNF.pdb
     RDKit          3D

 28 28  0  0  1  0  0  0  0  0999 V2000
    9.7670  -13.2869   19.3019 N   0  0  0  0  0  0  0  0  0  0  0  0
    8.4266  -13.3099   19.8425 C   0  0  1  0  0  0  0  0  0  0  0  0
    7.3917  -13.4491   18.7453 C   0  0  0  0  0  0  0  0  0  0  0  0
    7.7377  -14.6141   17.9073 C   0  0  0  0  0  0  0  0  0  0  0  0
    8.9205  -15.0145   17.8072 O   0  0  0  0  0  0  0  0  0  0  0  0
    8.3279  -14.3994   20.8319 C   0  0  0  0  0  0  0  0  0  0  0  0
    7.2665  -14.5585   21.5266 O   0  0  0  0  0  0  0  0  0  0  0  0
    6.7390  -15.2839   17.2139 O   0  0  0  0  0  0  0  0  0  0  0  0
   10.4223  -18.3539   19.4500 N   0  0  0  0  0  0  0  0  0  0  0  0
    9.5505  -18.2269   20.5495 C   0  0  0  0  0  0  0  0  0  0  0  0
    8.3783  -18.6471   20.4850 O   0  0  0  0  0  0  0  0  0  0  0  0
   10.0273  -17.5910   21.7903 C   0  0  0  0  0  0  0  0  0  0  0  0
    9.3300  -16.3174   22.1335 C   0  0  2  0  0  0  0  0  0  0  0  0
    9.3779  -15.3266   21.0779 N   0  0  0  0  0  0  0  0  0  0  0  0
    9.9366  -15.7858   23.3711 C   0  0  0  0  0  0  0  0  0  0  0  0
   10.9754  -15.1003   23.3125 O   0  0  0  0  0  0  0  0  0  0  0  0
    9.3435  -16.0513   24.6222 N   0  0  0  0  0  0  0  0  0  0  0  0
    9.9184  -15.4912   25.8481 C   0  0  1  0  0  0  0  0  0  0  0  0
    9.8651  -13.9937   25.6796 C   0  0  0  0  0  0  0  0  0  0  0  0
    8.5084  -13.5227   25.9988 C   0  0  0  0  0  0  0  0  0  0  0  0
    7.4765  -13.7206   25.1251 C   0  0  0  0  0  0  0  0  0  0  0  0
    6.1986  -13.2701   25.4448 C   0  0  0  0  0  0  0  0  0  0  0  0
    5.9764  -12.6187   26.6549 C   0  0  0  0  0  0  0  0  0  0  0  0
    7.0068  -12.4176   27.5341 C   0  0  0  0  0  0  0  0  0  0  0  0
    8.2598  -12.8686   27.2021 C   0  0  0  0  0  0  0  0  0  0  0  0
    9.1870  -16.0140   26.9933 C   0  0  0  0  0  0  0  0  0  0  0  0
    8.1211  -16.8744   26.8342 O   0  0  0  0  0  0  0  0  0  0  0  0
    9.4989  -15.7001   28.1605 O   0  0  0  0  0  0  0  0  0  0  0  0
  2  1  1  6
  2  3  1  0
  3  4  1  0
  4  8  1  0
  5  4  2  0
  6  2  1  0
  7  6  2  0
  9 10  1  0
 10 11  2  0
 10 12  1  0
 13 12  1  6
 13 15  1  0
 13 14  1  0
 14  6  1  0
 15 16  2  0
 17 18  1  0
 17 15  1  0
 18 19  1  6
 19 20  1  0
 20 25  2  0
 21 20  1  0
 21 22  2  0
 22 23  1  0
 23 24  2  0
 25 24  1  0
 26 27  1  0
 26 18  1  0
 28 26  2  0
M  END
$$$$
