DNF.pdb
     RDKit          3D

 28 28  0  0  1  0  0  0  0  0999 V2000
    8.8184  -18.1934   19.0032 N   0  0  0  0  0  0  0  0  0  0  0  0
    8.6050  -16.7805   19.2211 C   0  0  1  0  0  0  0  0  0  0  0  0
    7.7223  -16.1835   18.1445 C   0  0  0  0  0  0  0  0  0  0  0  0
    8.3244  -16.4600   16.8254 C   0  0  0  0  0  0  0  0  0  0  0  0
    7.7809  -17.2450   16.0144 O   0  0  0  0  0  0  0  0  0  0  0  0
    8.0372  -16.5840   20.5682 C   0  0  0  0  0  0  0  0  0  0  0  0
    7.6381  -15.4304   20.9484 O   0  0  0  0  0  0  0  0  0  0  0  0
    9.5155  -15.8423   16.4696 O   0  0  0  0  0  0  0  0  0  0  0  0
    6.6247  -19.3511   25.8008 N   0  0  0  0  0  0  0  0  0  0  0  0
    6.2315  -18.4203   24.8190 C   0  0  0  0  0  0  0  0  0  0  0  0
    5.5093  -17.4482   25.1157 O   0  0  0  0  0  0  0  0  0  0  0  0
    6.6774  -18.5959   23.4256 C   0  0  0  0  0  0  0  0  0  0  0  0
    7.4162  -17.4264   22.8664 C   0  0  2  0  0  0  0  0  0  0  0  0
    7.8965  -17.6352   21.5158 N   0  0  0  0  0  0  0  0  0  0  0  0
    8.5404  -17.1217   23.7749 C   0  0  0  0  0  0  0  0  0  0  0  0
    9.6145  -17.7442   23.6696 O   0  0  0  0  0  0  0  0  0  0  0  0
    8.4030  -16.1263   24.7638 N   0  0  0  0  0  0  0  0  0  0  0  0
    9.5563  -15.7209   25.5718 C   0  0  1  0  0  0  0  0  0  0  0  0
    9.6702  -14.2267   25.4041 C   0  0  0  0  0  0  0  0  0  0  0  0
    8.4389  -13.5928   25.9006 C   0  0  0  0  0  0  0  0  0  0  0  0
    8.3562  -13.1395   27.1871 C   0  0  0  0  0  0  0  0  0  0  0  0
    7.1837  -12.5401   27.6390 C   0  0  0  0  0  0  0  0  0  0  0  0
    6.0985  -12.4046   26.7777 C   0  0  0  0  0  0  0  0  0  0  0  0
    6.1758  -12.8572   25.4876 C   0  0  0  0  0  0  0  0  0  0  0  0
    7.3396  -13.4453   25.0595 C   0  0  0  0  0  0  0  0  0  0  0  0
    9.3582  -16.1795   26.9393 C   0  0  0  0  0  0  0  0  0  0  0  0
   10.3375  -16.0268   27.8982 O   0  0  0  0  0  0  0  0  0  0  0  0
    8.2940  -16.7287   27.2916 O   0  0  0  0  0  0  0  0  0  0  0  0
  2  1  1  6
  2  3  1  0
  3  4  1  0
  4  8  1  0
  5  4  2  0
  6  2  1  0
  7  6  2  0
  9 10  1  0
 10 11  2  0
 10 12  1  0
 13 12  1  1
 13 15  1  0
 13 14  1  0
 14  6  1  0
 15 16  2  0
 17 18  1  0
 17 15  1  0
 18 19  1  1
 19 20  1  0
 20 25  2  0
 21 20  1  0
 21 22  2  0
 22 23  1  0
 23 24  2  0
 25 24  1  0
 26 27  1  0
 26 18  1  0
 28 26  2  0
M  END
$$$$
