DNF.pdb
     RDKit          3D

 28 28  0  0  1  0  0  0  0  0999 V2000
    8.5184  -14.3090   19.4139 N   0  0  0  0  0  0  0  0  0  0  0  0
    7.7710  -15.5195   19.1579 C   0  0  1  0  0  0  0  0  0  0  0  0
    8.2096  -16.1756   17.8650 C   0  0  0  0  0  0  0  0  0  0  0  0
    7.3077  -17.3073   17.5737 C   0  0  0  0  0  0  0  0  0  0  0  0
    7.5628  -18.4636   17.9826 O   0  0  0  0  0  0  0  0  0  0  0  0
    7.9187  -16.4266   20.3116 C   0  0  0  0  0  0  0  0  0  0  0  0
    7.1466  -17.4356   20.4540 O   0  0  0  0  0  0  0  0  0  0  0  0
    6.1531  -17.0941   16.8333 O   0  0  0  0  0  0  0  0  0  0  0  0
   12.0047  -17.2419   20.8069 N   0  0  0  0  0  0  0  0  0  0  0  0
   11.5076  -17.4109   22.1143 C   0  0  0  0  0  0  0  0  0  0  0  0
   12.1532  -17.0011   23.0993 O   0  0  0  0  0  0  0  0  0  0  0  0
   10.2108  -18.0788   22.3222 C   0  0  0  0  0  0  0  0  0  0  0  0
    9.0539  -17.1454   22.4498 C   0  0  2  0  0  0  0  0  0  0  0  0
    8.9040  -16.2491   21.3217 N   0  0  0  0  0  0  0  0  0  0  0  0
    9.2232  -16.3793   23.7014 C   0  0  0  0  0  0  0  0  0  0  0  0
   10.1546  -15.5588   23.8099 O   0  0  0  0  0  0  0  0  0  0  0  0
    8.3329  -16.5729   24.7772 N   0  0  0  0  0  0  0  0  0  0  0  0
    8.5208  -15.8440   26.0344 C   0  0  1  0  0  0  0  0  0  0  0  0
    7.1506  -15.3601   26.4372 C   0  0  0  0  0  0  0  0  0  0  0  0
    7.0653  -13.9103   26.2022 C   0  0  0  0  0  0  0  0  0  0  0  0
    8.1774  -13.1900   25.8680 C   0  0  0  0  0  0  0  0  0  0  0  0
    8.0774  -11.8191   25.6471 C   0  0  0  0  0  0  0  0  0  0  0  0
    6.8434  -11.1863   25.7677 C   0  0  0  0  0  0  0  0  0  0  0  0
    5.7257  -11.9032   26.1024 C   0  0  0  0  0  0  0  0  0  0  0  0
    5.8432  -13.2537   26.3164 C   0  0  0  0  0  0  0  0  0  0  0  0
    9.1771  -16.7206   26.9938 C   0  0  0  0  0  0  0  0  0  0  0  0
    9.4845  -18.0280   26.6806 O   0  0  0  0  0  0  0  0  0  0  0  0
    9.4835  -16.3192   28.1354 O   0  0  0  0  0  0  0  0  0  0  0  0
  2  1  1  1
  2  3  1  0
  3  4  1  0
  4  8  1  0
  5  4  2  0
  6  2  1  0
  7  6  2  0
  9 10  1  0
 10 11  2  0
 10 12  1  0
 13 12  1  6
 13 15  1  0
 13 14  1  0
 14  6  1  0
 15 16  2  0
 17 18  1  0
 17 15  1  0
 18 19  1  1
 19 20  1  0
 20 25  2  0
 21 20  1  0
 21 22  2  0
 22 23  1  0
 23 24  2  0
 25 24  1  0
 26 27  1  0
 26 18  1  0
 28 26  2  0
M  END
$$$$
