DNF.pdb
     RDKit          3D

 28 28  0  0  1  0  0  0  0  0999 V2000
    8.6566  -16.1185   18.3789 N   0  0  0  0  0  0  0  0  0  0  0  0
    8.8020  -15.0433   19.3339 C   0  0  1  0  0  0  0  0  0  0  0  0
    7.9555  -13.8470   18.9507 C   0  0  0  0  0  0  0  0  0  0  0  0
    8.3987  -13.3507   17.6330 C   0  0  0  0  0  0  0  0  0  0  0  0
    9.3181  -13.9192   16.9999 O   0  0  0  0  0  0  0  0  0  0  0  0
    8.4635  -15.5476   20.6781 C   0  0  0  0  0  0  0  0  0  0  0  0
    7.2593  -15.5129   21.1061 O   0  0  0  0  0  0  0  0  0  0  0  0
    7.7900  -12.2333   17.0783 O   0  0  0  0  0  0  0  0  0  0  0  0
   10.0810  -19.4249   20.3181 N   0  0  0  0  0  0  0  0  0  0  0  0
    9.2639  -19.1810   21.4397 C   0  0  0  0  0  0  0  0  0  0  0  0
    8.1217  -19.6754   21.5153 O   0  0  0  0  0  0  0  0  0  0  0  0
    9.7627  -18.3326   22.5363 C   0  0  0  0  0  0  0  0  0  0  0  0
    9.0858  -17.0072   22.6426 C   0  0  2  0  0  0  0  0  0  0  0  0
    9.4263  -16.0940   21.5710 N   0  0  0  0  0  0  0  0  0  0  0  0
    9.4351  -16.4217   23.9531 C   0  0  0  0  0  0  0  0  0  0  0  0
   10.5024  -15.7940   24.0917 O   0  0  0  0  0  0  0  0  0  0  0  0
    8.5634  -16.5703   25.0511 N   0  0  0  0  0  0  0  0  0  0  0  0
    8.9205  -16.0174   26.3603 C   0  0  1  0  0  0  0  0  0  0  0  0
    7.6202  -15.5938   26.9955 C   0  0  0  0  0  0  0  0  0  0  0  0
    7.2913  -14.2300   26.5522 C   0  0  0  0  0  0  0  0  0  0  0  0
    6.2994  -14.0127   25.6378 C   0  0  0  0  0  0  0  0  0  0  0  0
    6.0003  -12.7151   25.2315 C   0  0  0  0  0  0  0  0  0  0  0  0
    6.7138  -11.6424   25.7589 C   0  0  0  0  0  0  0  0  0  0  0  0
    7.7089  -11.8544   26.6755 C   0  0  0  0  0  0  0  0  0  0  0  0
    7.9898  -13.1402   27.0642 C   0  0  0  0  0  0  0  0  0  0  0  0
    9.6786  -17.0146   27.1022 C   0  0  0  0  0  0  0  0  0  0  0  0
   10.3892  -16.6810   28.2361 O   0  0  0  0  0  0  0  0  0  0  0  0
    9.7130  -18.2076   26.7364 O   0  0  0  0  0  0  0  0  0  0  0  0
  2  1  1  6
  2  3  1  0
  3  4  1  0
  4  8  1  0
  5  4  2  0
  6  2  1  0
  7  6  2  0
  9 10  1  0
 10 11  2  0
 10 12  1  0
 13 12  1  6
 13 15  1  0
 13 14  1  0
 14  6  1  0
 15 16  2  0
 17 18  1  0
 17 15  1  0
 18 19  1  1
 19 20  1  0
 20 25  2  0
 21 20  1  0
 21 22  2  0
 22 23  1  0
 23 24  2  0
 25 24  1  0
 26 27  1  0
 26 18  1  0
 28 26  2  0
M  END
$$$$
