DNF.pdb
     RDKit          3D

 28 28  0  0  1  0  0  0  0  0999 V2000
    9.0221  -18.2935   20.2852 N   0  0  0  0  0  0  0  0  0  0  0  0
   10.3475  -17.7170   20.2660 C   0  0  1  0  0  0  0  0  0  0  0  0
   10.9245  -17.7073   18.8655 C   0  0  0  0  0  0  0  0  0  0  0  0
   11.1200  -19.1009   18.4198 C   0  0  0  0  0  0  0  0  0  0  0  0
   10.1448  -19.8564   18.2013 O   0  0  0  0  0  0  0  0  0  0  0  0
   10.2887  -16.3616   20.8451 C   0  0  0  0  0  0  0  0  0  0  0  0
   11.3568  -15.6876   21.0431 O   0  0  0  0  0  0  0  0  0  0  0  0
   12.4058  -19.5910   18.2369 O   0  0  0  0  0  0  0  0  0  0  0  0
    7.9774  -12.5533   19.0172 N   0  0  0  0  0  0  0  0  0  0  0  0
    7.5886  -13.6504   19.8111 C   0  0  0  0  0  0  0  0  0  0  0  0
    7.0594  -14.6545   19.2948 O   0  0  0  0  0  0  0  0  0  0  0  0
    7.8088  -13.6129   21.2675 C   0  0  0  0  0  0  0  0  0  0  0  0
    9.0101  -14.3699   21.7256 C   0  0  2  0  0  0  0  0  0  0  0  0
    9.0724  -15.7241   21.2150 N   0  0  0  0  0  0  0  0  0  0  0  0
    9.0103  -14.3726   23.2028 C   0  0  0  0  0  0  0  0  0  0  0  0
    9.0258  -13.2955   23.8290 O   0  0  0  0  0  0  0  0  0  0  0  0
    8.9927  -15.5923   23.9096 N   0  0  0  0  0  0  0  0  0  0  0  0
    9.1463  -15.6061   25.3668 C   0  0  1  0  0  0  0  0  0  0  0  0
    7.7492  -15.5200   25.9276 C   0  0  0  0  0  0  0  0  0  0  0  0
    7.4291  -14.1110   26.2048 C   0  0  0  0  0  0  0  0  0  0  0  0
    8.3011  -13.3198   26.8983 C   0  0  0  0  0  0  0  0  0  0  0  0
    7.9826  -11.9881   27.1494 C   0  0  0  0  0  0  0  0  0  0  0  0
    6.7754  -11.4666   26.6926 C   0  0  0  0  0  0  0  0  0  0  0  0
    5.8979  -12.2549   25.9972 C   0  0  0  0  0  0  0  0  0  0  0  0
    6.2287  -13.5654   25.7590 C   0  0  0  0  0  0  0  0  0  0  0  0
    9.8978  -16.7926   25.7503 C   0  0  0  0  0  0  0  0  0  0  0  0
   10.2504  -17.0277   27.0627 O   0  0  0  0  0  0  0  0  0  0  0  0
   10.2509  -17.6387   24.9032 O   0  0  0  0  0  0  0  0  0  0  0  0
  2  1  1  6
  2  3  1  0
  3  4  1  0
  4  8  1  0
  5  4  2  0
  6  2  1  0
  7  6  2  0
  9 10  1  0
 10 11  2  0
 10 12  1  0
 13 12  1  1
 13 15  1  0
 13 14  1  0
 14  6  1  0
 15 16  2  0
 17 18  1  0
 17 15  1  0
 18 19  1  1
 19 20  1  0
 20 25  2  0
 21 20  1  0
 21 22  2  0
 22 23  1  0
 23 24  2  0
 25 24  1  0
 26 27  1  0
 26 18  1  0
 28 26  2  0
M  END
$$$$
