DNF.pdb
     RDKit          3D

 28 28  0  0  1  0  0  0  0  0999 V2000
    9.3801  -12.7474   19.0783 N   0  0  0  0  0  0  0  0  0  0  0  0
    8.0361  -13.2551   19.2372 C   0  0  1  0  0  0  0  0  0  0  0  0
    7.3838  -13.5188   17.8958 C   0  0  0  0  0  0  0  0  0  0  0  0
    8.3339  -14.2556   17.0392 C   0  0  0  0  0  0  0  0  0  0  0  0
    9.1547  -15.0665   17.5270 O   0  0  0  0  0  0  0  0  0  0  0  0
    8.0784  -14.4683   20.0752 C   0  0  0  0  0  0  0  0  0  0  0  0
    7.0117  -15.1255   20.3298 O   0  0  0  0  0  0  0  0  0  0  0  0
    8.3237  -14.0513   15.6663 O   0  0  0  0  0  0  0  0  0  0  0  0
   11.5210  -18.5301   22.9518 N   0  0  0  0  0  0  0  0  0  0  0  0
   10.4389  -18.2778   22.0855 C   0  0  0  0  0  0  0  0  0  0  0  0
    9.4795  -19.0712   22.0168 O   0  0  0  0  0  0  0  0  0  0  0  0
   10.4391  -17.0635   21.2508 C   0  0  0  0  0  0  0  0  0  0  0  0
    9.3075  -16.1307   21.5253 C   0  0  2  0  0  0  0  0  0  0  0  0
    9.2765  -14.9808   20.6450 N   0  0  0  0  0  0  0  0  0  0  0  0
    9.4036  -15.7013   22.9355 C   0  0  0  0  0  0  0  0  0  0  0  0
   10.3359  -14.9595   23.2999 O   0  0  0  0  0  0  0  0  0  0  0  0
    8.4420  -16.1284   23.8738 N   0  0  0  0  0  0  0  0  0  0  0  0
    8.4941  -15.6497   25.2578 C   0  0  1  0  0  0  0  0  0  0  0  0
    7.0817  -15.2556   25.6092 C   0  0  0  0  0  0  0  0  0  0  0  0
    7.0607  -13.8351   25.9914 C   0  0  0  0  0  0  0  0  0  0  0  0
    5.8773  -13.1884   26.2120 C   0  0  0  0  0  0  0  0  0  0  0  0
    5.8766  -11.8444   26.5752 C   0  0  0  0  0  0  0  0  0  0  0  0
    7.0829  -11.1634   26.7123 C   0  0  0  0  0  0  0  0  0  0  0  0
    8.2717  -11.8064   26.4923 C   0  0  0  0  0  0  0  0  0  0  0  0
    8.2531  -13.1314   26.1351 C   0  0  0  0  0  0  0  0  0  0  0  0
    9.0756  -16.6895   26.0946 C   0  0  0  0  0  0  0  0  0  0  0  0
    9.8084  -16.3802   27.2212 O   0  0  0  0  0  0  0  0  0  0  0  0
    8.9322  -17.8988   25.8202 O   0  0  0  0  0  0  0  0  0  0  0  0
  2  1  1  6
  2  3  1  0
  3  4  1  0
  4  8  1  0
  5  4  2  0
  6  2  1  0
  7  6  2  0
  9 10  1  0
 10 11  2  0
 10 12  1  0
 13 12  1  6
 13 15  1  0
 13 14  1  0
 14  6  1  0
 15 16  2  0
 17 18  1  0
 17 15  1  0
 18 19  1  1
 19 20  1  0
 20 25  2  0
 21 20  1  0
 21 22  2  0
 22 23  1  0
 23 24  2  0
 25 24  1  0
 26 27  1  0
 26 18  1  0
 28 26  2  0
M  END
$$$$
