IFA.pdb
     RDKit          3D

 25 25  0  0  1  0  0  0  0  0999 V2000
   15.1859  -12.3167  -18.4981 C   0  0  0  0  0  0  0  0  0  0  0  0
   16.5909  -12.0557  -18.0594 C   0  0  0  0  0  0  0  0  0  0  0  0
   16.6894  -10.9362  -17.0099 C   0  0  2  0  0  0  0  0  0  0  0  0
   16.1026   -9.7243  -17.7046 C   0  0  0  0  0  0  0  0  0  0  0  0
   18.0706  -10.7154  -16.5654 C   0  0  2  0  0  0  0  0  0  0  0  0
   18.6261  -11.9446  -15.9771 N   0  0  0  0  0  0  0  0  0  0  0  0
   18.4032   -9.5802  -15.7335 C   0  0  0  0  0  0  0  0  0  0  0  0
   18.1095   -9.6677  -14.4784 O   0  0  0  0  0  0  0  0  0  0  0  0
   19.0101   -8.3725  -16.0823 N   0  0  0  0  0  0  0  0  0  0  0  0
   19.2455   -7.2824  -15.1205 C   0  0  1  0  0  0  0  0  0  0  0  0
   20.7211   -7.1943  -14.9672 C   0  0  0  0  0  0  0  0  0  0  0  0
   21.3613   -8.2321  -14.1772 C   0  0  0  0  0  0  0  0  0  0  0  0
   21.1725   -8.4531  -12.8288 C   0  0  0  0  0  0  0  0  0  0  0  0
   21.8290   -9.4746  -12.1582 C   0  0  0  0  0  0  0  0  0  0  0  0
   22.7034  -10.3110  -12.8333 C   0  0  0  0  0  0  0  0  0  0  0  0
   22.8926  -10.0907  -14.1813 C   0  0  0  0  0  0  0  0  0  0  0  0
   22.2377   -9.0798  -14.8265 C   0  0  0  0  0  0  0  0  0  0  0  0
   18.6377   -6.0623  -15.6996 C   0  0  0  0  0  0  0  0  0  0  0  0
   18.8734   -5.6943  -16.8899 O   0  0  0  0  0  0  0  0  0  0  0  0
   15.8998   -3.6912  -14.7703 C   0  0  0  0  0  0  0  0  0  0  0  0
   17.1561   -4.0362  -15.5070 C   0  0  2  0  0  0  0  0  0  0  0  0
   17.7568   -5.2366  -14.9515 N   0  0  0  0  0  0  0  0  0  0  0  0
   18.1277   -2.9116  -15.4901 C   0  0  0  0  0  0  0  0  0  0  0  0
   17.8765   -1.7291  -16.1531 O   0  0  0  0  0  0  0  0  0  0  0  0
   19.1935   -3.0486  -14.8589 O   0  0  0  0  0  0  0  0  0  0  0  0
  2  3  1  0
  2  1  1  0
  3  5  1  0
  3  4  1  6
  5  7  1  0
  5  6  1  1
  7  8  2  0
  9 10  1  0
  9  7  1  0
 10 11  1  6
 11 12  1  0
 12 17  2  0
 13 14  2  0
 13 12  1  0
 14 15  1  0
 15 16  2  0
 17 16  1  0
 18 10  1  0
 19 18  2  0
 21 20  1  1
 21 22  1  0
 22 18  1  0
 23 21  1  0
 23 24  1  0
 25 23  2  0
M  END
$$$$
