IFA.pdb
     RDKit          3D

 25 25  0  0  1  0  0  0  0  0999 V2000
   22.3112  -20.6271  -14.1593 C   0  0  0  0  0  0  0  0  0  0  0  0
   23.7433  -20.3503  -13.8323 C   0  0  0  0  0  0  0  0  0  0  0  0
   24.1455  -20.8594  -12.4381 C   0  0  2  0  0  0  0  0  0  0  0  0
   23.1487  -20.2057  -11.5031 C   0  0  0  0  0  0  0  0  0  0  0  0
   25.5342  -20.5205  -12.1055 C   0  0  2  0  0  0  0  0  0  0  0  0
   26.4508  -21.0255  -13.1402 N   0  0  0  0  0  0  0  0  0  0  0  0
   26.0685  -20.8111  -10.7935 C   0  0  0  0  0  0  0  0  0  0  0  0
   26.3903  -22.0387  -10.5508 O   0  0  0  0  0  0  0  0  0  0  0  0
   26.2994  -19.9503   -9.7191 N   0  0  0  0  0  0  0  0  0  0  0  0
   26.8069  -20.4086   -8.4149 C   0  0  1  0  0  0  0  0  0  0  0  0
   27.6558  -19.3013   -7.9031 C   0  0  0  0  0  0  0  0  0  0  0  0
   28.2370  -19.4770   -6.5831 C   0  0  0  0  0  0  0  0  0  0  0  0
   29.0941  -20.4898   -6.2061 C   0  0  0  0  0  0  0  0  0  0  0  0
   29.6017  -20.5741   -4.9179 C   0  0  0  0  0  0  0  0  0  0  0  0
   29.2570  -19.6312   -3.9630 C   0  0  0  0  0  0  0  0  0  0  0  0
   28.4002  -18.6184   -4.3391 C   0  0  0  0  0  0  0  0  0  0  0  0
   27.9094  -18.5502   -5.6125 C   0  0  0  0  0  0  0  0  0  0  0  0
   25.6233  -20.6853   -7.5686 C   0  0  0  0  0  0  0  0  0  0  0  0
   24.6279  -19.9009   -7.5285 O   0  0  0  0  0  0  0  0  0  0  0  0
   24.3814  -23.5351   -5.4599 C   0  0  0  0  0  0  0  0  0  0  0  0
   24.4142  -22.0961   -5.8700 C   0  0  2  0  0  0  0  0  0  0  0  0
   25.5394  -21.8461   -6.7543 N   0  0  0  0  0  0  0  0  0  0  0  0
   24.4663  -21.1915   -4.6919 C   0  0  0  0  0  0  0  0  0  0  0  0
   23.3621  -20.9791   -3.8941 O   0  0  0  0  0  0  0  0  0  0  0  0
   25.5382  -20.6144   -4.4251 O   0  0  0  0  0  0  0  0  0  0  0  0
  2  3  1  0
  2  1  1  0
  3  5  1  0
  3  4  1  1
  5  7  1  0
  5  6  1  6
  7  8  2  0
  9 10  1  0
  9  7  1  0
 10 11  1  1
 11 12  1  0
 12 17  2  0
 13 14  2  0
 13 12  1  0
 14 15  1  0
 15 16  2  0
 17 16  1  0
 18 10  1  0
 19 18  2  0
 21 20  1  1
 21 22  1  0
 22 18  1  0
 23 21  1  0
 23 24  1  0
 25 23  2  0
M  END
$$$$
