IFA.pdb
     RDKit          3D

 25 25  0  0  1  0  0  0  0  0999 V2000
   24.0128  -21.1495  -15.5541 C   0  0  0  0  0  0  0  0  0  0  0  0
   24.5276  -20.1471  -14.5720 C   0  0  0  0  0  0  0  0  0  0  0  0
   24.6008  -20.6998  -13.1389 C   0  0  2  0  0  0  0  0  0  0  0  0
   23.6124  -19.8525  -12.3640 C   0  0  0  0  0  0  0  0  0  0  0  0
   25.9587  -20.6258  -12.5868 C   0  0  2  0  0  0  0  0  0  0  0  0
   26.9021  -21.3712  -13.4354 N   0  0  0  0  0  0  0  0  0  0  0  0
   26.2047  -20.9316  -11.1950 C   0  0  0  0  0  0  0  0  0  0  0  0
   26.4730  -22.1615  -10.9040 O   0  0  0  0  0  0  0  0  0  0  0  0
   26.1997  -20.0836  -10.0862 N   0  0  0  0  0  0  0  0  0  0  0  0
   26.5246  -20.5380   -8.7236 C   0  0  1  0  0  0  0  0  0  0  0  0
   27.4129  -19.4919   -8.1531 C   0  0  0  0  0  0  0  0  0  0  0  0
   27.8884  -19.7041   -6.7966 C   0  0  0  0  0  0  0  0  0  0  0  0
   28.8498  -20.6149   -6.4108 C   0  0  0  0  0  0  0  0  0  0  0  0
   29.2420  -20.7446   -5.0866 C   0  0  0  0  0  0  0  0  0  0  0  0
   28.6713  -19.9526   -4.1033 C   0  0  0  0  0  0  0  0  0  0  0  0
   27.7102  -19.0419   -4.4881 C   0  0  0  0  0  0  0  0  0  0  0  0
   27.3356  -18.9271   -5.7972 C   0  0  0  0  0  0  0  0  0  0  0  0
   25.2390  -20.6793   -8.0020 C   0  0  0  0  0  0  0  0  0  0  0  0
   24.3672  -19.7587   -7.9958 O   0  0  0  0  0  0  0  0  0  0  0  0
   23.8136  -21.2590   -5.2012 C   0  0  0  0  0  0  0  0  0  0  0  0
   23.6869  -21.9801   -6.5066 C   0  0  2  0  0  0  0  0  0  0  0  0
   24.9129  -21.8558   -7.2759 N   0  0  0  0  0  0  0  0  0  0  0  0
   22.5257  -21.4890   -7.2936 C   0  0  0  0  0  0  0  0  0  0  0  0
   21.2384  -21.5620   -6.8052 O   0  0  0  0  0  0  0  0  0  0  0  0
   22.7288  -21.0005   -8.4219 O   0  0  0  0  0  0  0  0  0  0  0  0
  2  3  1  0
  2  1  1  0
  3  5  1  0
  3  4  1  1
  5  7  1  0
  5  6  1  6
  7  8  2  0
  9 10  1  0
  9  7  1  0
 10 11  1  1
 11 12  1  0
 12 17  2  0
 13 14  2  0
 13 12  1  0
 14 15  1  0
 15 16  2  0
 17 16  1  0
 18 10  1  0
 19 18  2  0
 21 20  1  1
 21 22  1  0
 22 18  1  0
 23 21  1  0
 23 24  1  0
 25 23  2  0
M  END
$$$$
