IFA.pdb
     RDKit          3D

 25 25  0  0  1  0  0  0  0  0999 V2000
   17.6377  -12.6146  -19.9698 C   0  0  0  0  0  0  0  0  0  0  0  0
   18.7983  -12.2368  -19.1069 C   0  0  0  0  0  0  0  0  0  0  0  0
   18.4284  -11.2049  -18.0285 C   0  0  2  0  0  0  0  0  0  0  0  0
   17.9024  -10.0208  -18.8136 C   0  0  0  0  0  0  0  0  0  0  0  0
   19.5755  -10.8539  -17.1829 C   0  0  2  0  0  0  0  0  0  0  0  0
   20.1474  -12.0596  -16.5624 N   0  0  0  0  0  0  0  0  0  0  0  0
   19.4687   -9.8000  -16.1985 C   0  0  0  0  0  0  0  0  0  0  0  0
   18.7734  -10.0554  -15.1399 O   0  0  0  0  0  0  0  0  0  0  0  0
   20.0152   -8.5155  -16.2113 N   0  0  0  0  0  0  0  0  0  0  0  0
   19.8204   -7.5467  -15.1195 C   0  0  1  0  0  0  0  0  0  0  0  0
   21.1700   -7.3181  -14.5405 C   0  0  0  0  0  0  0  0  0  0  0  0
   21.7055   -8.3683  -13.6912 C   0  0  0  0  0  0  0  0  0  0  0  0
   22.6820   -9.2754  -14.0465 C   0  0  0  0  0  0  0  0  0  0  0  0
   23.1330  -10.2451  -13.1631 C   0  0  0  0  0  0  0  0  0  0  0  0
   22.6080  -10.3297  -11.8836 C   0  0  0  0  0  0  0  0  0  0  0  0
   21.6318   -9.4233  -11.5276 C   0  0  0  0  0  0  0  0  0  0  0  0
   21.1990   -8.4743  -12.4103 C   0  0  0  0  0  0  0  0  0  0  0  0
   19.2242   -6.3338  -15.7252 C   0  0  0  0  0  0  0  0  0  0  0  0
   19.7786   -5.7211  -16.6869 O   0  0  0  0  0  0  0  0  0  0  0  0
   15.8799   -4.6597  -15.5908 C   0  0  0  0  0  0  0  0  0  0  0  0
   17.3394   -4.6766  -15.9222 C   0  0  2  0  0  0  0  0  0  0  0  0
   17.9971   -5.7901  -15.2602 N   0  0  0  0  0  0  0  0  0  0  0  0
   17.9980   -3.3938  -15.5623 C   0  0  0  0  0  0  0  0  0  0  0  0
   19.0267   -3.3414  -14.6457 O   0  0  0  0  0  0  0  0  0  0  0  0
   17.6051   -2.3439  -16.1068 O   0  0  0  0  0  0  0  0  0  0  0  0
  2  3  1  0
  2  1  1  0
  3  5  1  0
  3  4  1  6
  5  7  1  0
  5  6  1  1
  7  8  2  0
  9 10  1  0
  9  7  1  0
 10 11  1  6
 11 12  1  0
 12 17  2  0
 13 14  2  0
 13 12  1  0
 14 15  1  0
 15 16  2  0
 17 16  1  0
 18 10  1  0
 19 18  2  0
 21 20  1  1
 21 22  1  0
 22 18  1  0
 23 21  1  0
 23 24  1  0
 25 23  2  0
M  END
$$$$
