IFA.pdb
     RDKit          3D

 25 25  0  0  1  0  0  0  0  0999 V2000
   26.8070  -15.2251  -18.3419 C   0  0  0  0  0  0  0  0  0  0  0  0
   27.6180  -16.3305  -17.7464 C   0  0  0  0  0  0  0  0  0  0  0  0
   26.7894  -17.2566  -16.8407 C   0  0  2  0  0  0  0  0  0  0  0  0
   26.3502  -16.3625  -15.6992 C   0  0  0  0  0  0  0  0  0  0  0  0
   27.5626  -18.4163  -16.3810 C   0  0  2  0  0  0  0  0  0  0  0  0
   28.0492  -19.1996  -17.5279 N   0  0  0  0  0  0  0  0  0  0  0  0
   27.0278  -19.3043  -15.3727 C   0  0  0  0  0  0  0  0  0  0  0  0
   26.3944  -20.3504  -15.7897 O   0  0  0  0  0  0  0  0  0  0  0  0
   27.0914  -19.2076  -13.9816 N   0  0  0  0  0  0  0  0  0  0  0  0
   26.4874  -20.2003  -13.0770 C   0  0  1  0  0  0  0  0  0  0  0  0
   27.1717  -20.0208  -11.7700 C   0  0  0  0  0  0  0  0  0  0  0  0
   26.4644  -20.4882  -10.5900 C   0  0  0  0  0  0  0  0  0  0  0  0
   26.3064  -21.8052  -10.2117 C   0  0  0  0  0  0  0  0  0  0  0  0
   25.6139  -22.1558   -9.0620 C   0  0  0  0  0  0  0  0  0  0  0  0
   25.0551  -21.1800   -8.2525 C   0  0  0  0  0  0  0  0  0  0  0  0
   25.2127  -19.8632   -8.6299 C   0  0  0  0  0  0  0  0  0  0  0  0
   25.8980  -19.5353   -9.7657 C   0  0  0  0  0  0  0  0  0  0  0  0
   25.0362  -19.9083  -13.0291 C   0  0  0  0  0  0  0  0  0  0  0  0
   24.5927  -18.7381  -12.8250 O   0  0  0  0  0  0  0  0  0  0  0  0
   21.8973  -21.6082  -14.0582 C   0  0  0  0  0  0  0  0  0  0  0  0
   22.6350  -20.6499  -13.1764 C   0  0  2  0  0  0  0  0  0  0  0  0
   24.0611  -20.9253  -13.2091 N   0  0  0  0  0  0  0  0  0  0  0  0
   22.1286  -20.6893  -11.7797 C   0  0  0  0  0  0  0  0  0  0  0  0
   20.9668  -20.0435  -11.4133 O   0  0  0  0  0  0  0  0  0  0  0  0
   22.7757  -21.3238  -10.9242 O   0  0  0  0  0  0  0  0  0  0  0  0
  2  3  1  0
  2  1  1  0
  3  5  1  0
  3  4  1  1
  5  7  1  0
  5  6  1  6
  7  8  2  0
  9 10  1  0
  9  7  1  0
 10 11  1  1
 11 12  1  0
 12 17  2  0
 13 14  2  0
 13 12  1  0
 14 15  1  0
 15 16  2  0
 17 16  1  0
 18 10  1  0
 19 18  2  0
 21 20  1  6
 21 22  1  0
 22 18  1  0
 23 21  1  0
 23 24  1  0
 25 23  2  0
M  END
$$$$
