IFA.pdb
     RDKit          3D

 25 25  0  0  1  0  0  0  0  0999 V2000
   28.5754  -17.7081  -16.8568 C   0  0  0  0  0  0  0  0  0  0  0  0
   28.9220  -18.5008  -15.6378 C   0  0  0  0  0  0  0  0  0  0  0  0
   27.7061  -19.2173  -15.0271 C   0  0  2  0  0  0  0  0  0  0  0  0
   26.7372  -18.0969  -14.7087 C   0  0  0  0  0  0  0  0  0  0  0  0
   28.0661  -20.0032  -13.8410 C   0  0  2  0  0  0  0  0  0  0  0  0
   29.0227  -21.0637  -14.1955 N   0  0  0  0  0  0  0  0  0  0  0  0
   27.0401  -20.5386  -12.9739 C   0  0  0  0  0  0  0  0  0  0  0  0
   26.5985  -21.7211  -13.2496 O   0  0  0  0  0  0  0  0  0  0  0  0
   26.4363  -19.9639  -11.8541 N   0  0  0  0  0  0  0  0  0  0  0  0
   25.4108  -20.6508  -11.0509 C   0  0  1  0  0  0  0  0  0  0  0  0
   25.4421  -19.9972   -9.7166 C   0  0  0  0  0  0  0  0  0  0  0  0
   26.5831  -20.2943   -8.8675 C   0  0  0  0  0  0  0  0  0  0  0  0
   27.5087  -21.2949   -9.0792 C   0  0  0  0  0  0  0  0  0  0  0  0
   28.5705  -21.5018   -8.2109 C   0  0  0  0  0  0  0  0  0  0  0  0
   28.7320  -20.6988   -7.0934 C   0  0  0  0  0  0  0  0  0  0  0  0
   27.8071  -19.6984   -6.8811 C   0  0  0  0  0  0  0  0  0  0  0  0
   26.7670  -19.5082   -7.7466 C   0  0  0  0  0  0  0  0  0  0  0  0
   24.1236  -20.4787  -11.7631 C   0  0  0  0  0  0  0  0  0  0  0  0
   23.8830  -19.4606  -12.4794 O   0  0  0  0  0  0  0  0  0  0  0  0
   21.6397  -22.3735  -13.3887 C   0  0  0  0  0  0  0  0  0  0  0  0
   21.8195  -21.2886  -12.3734 C   0  0  2  0  0  0  0  0  0  0  0  0
   23.0871  -21.4464  -11.6814 N   0  0  0  0  0  0  0  0  0  0  0  0
   20.6957  -21.2560  -11.4013 C   0  0  0  0  0  0  0  0  0  0  0  0
   19.4071  -20.9639  -11.7954 O   0  0  0  0  0  0  0  0  0  0  0  0
   20.9319  -21.4997  -10.2022 O   0  0  0  0  0  0  0  0  0  0  0  0
  2  3  1  0
  2  1  1  0
  3  5  1  0
  3  4  1  1
  5  7  1  0
  5  6  1  6
  7  8  2  0
  9 10  1  0
  9  7  1  0
 10 11  1  1
 11 12  1  0
 12 17  2  0
 13 14  2  0
 13 12  1  0
 14 15  1  0
 15 16  2  0
 17 16  1  0
 18 10  1  0
 19 18  2  0
 21 20  1  6
 21 22  1  0
 22 18  1  0
 23 21  1  0
 23 24  1  0
 25 23  2  0
M  END
$$$$
