IFA.pdb
     RDKit          3D

 25 25  0  0  1  0  0  0  0  0999 V2000
   19.3496  -24.3834  -10.1250 C   0  0  0  0  0  0  0  0  0  0  0  0
   18.9178  -23.0349   -9.6460 C   0  0  0  0  0  0  0  0  0  0  0  0
   19.8877  -21.9161  -10.0612 C   0  0  2  0  0  0  0  0  0  0  0  0
   20.0424  -22.0963  -11.5575 C   0  0  0  0  0  0  0  0  0  0  0  0
   21.1682  -22.0024   -9.3493 C   0  0  2  0  0  0  0  0  0  0  0  0
   20.9536  -21.9585   -7.8940 N   0  0  0  0  0  0  0  0  0  0  0  0
   22.2696  -21.1369   -9.7085 C   0  0  0  0  0  0  0  0  0  0  0  0
   22.1003  -19.8685   -9.5297 O   0  0  0  0  0  0  0  0  0  0  0  0
   23.5219  -21.4652  -10.2306 N   0  0  0  0  0  0  0  0  0  0  0  0
   24.4997  -20.4563  -10.6722 C   0  0  1  0  0  0  0  0  0  0  0  0
   25.8194  -20.9372  -10.1863 C   0  0  0  0  0  0  0  0  0  0  0  0
   26.2691  -20.4305   -8.9010 C   0  0  0  0  0  0  0  0  0  0  0  0
   26.4817  -21.1838   -7.7652 C   0  0  0  0  0  0  0  0  0  0  0  0
   26.9155  -20.6093   -6.5795 C   0  0  0  0  0  0  0  0  0  0  0  0
   27.1500  -19.2458   -6.5032 C   0  0  0  0  0  0  0  0  0  0  0  0
   26.9378  -18.4921   -7.6382 C   0  0  0  0  0  0  0  0  0  0  0  0
   26.5103  -19.0742   -8.7981 C   0  0  0  0  0  0  0  0  0  0  0  0
   24.4038  -20.3851  -12.1484 C   0  0  0  0  0  0  0  0  0  0  0  0
   24.4102  -21.4255  -12.8731 O   0  0  0  0  0  0  0  0  0  0  0  0
   25.3375  -19.8090  -14.9195 C   0  0  0  0  0  0  0  0  0  0  0  0
   24.2089  -19.0615  -14.2809 C   0  0  2  0  0  0  0  0  0  0  0  0
   24.2998  -19.1451  -12.8334 N   0  0  0  0  0  0  0  0  0  0  0  0
   22.8885  -19.5572  -14.7496 C   0  0  0  0  0  0  0  0  0  0  0  0
   21.8587  -19.8138  -13.8696 O   0  0  0  0  0  0  0  0  0  0  0  0
   22.7157  -19.7429  -15.9698 O   0  0  0  0  0  0  0  0  0  0  0  0
  2  3  1  0
  2  1  1  0
  3  5  1  0
  3  4  1  6
  5  7  1  0
  5  6  1  1
  7  8  2  0
  9 10  1  0
  9  7  1  0
 10 11  1  6
 11 12  1  0
 12 17  2  0
 13 14  2  0
 13 12  1  0
 14 15  1  0
 15 16  2  0
 17 16  1  0
 18 10  1  0
 19 18  2  0
 21 20  1  6
 21 22  1  0
 22 18  1  0
 23 21  1  0
 23 24  1  0
 25 23  2  0
M  END
$$$$
