GER.pdb
     RDKit          3D

 25 24  0  0  1  0  0  0  0  0999 V2000
   21.1179   -9.9539  -17.4499 N   0  0  0  0  0  0  0  0  0  0  0  0
   20.9483  -10.1011  -16.0218 C   0  0  0  0  0  0  0  0  0  0  0  0
   19.5072   -9.9536  -15.7012 C   0  0  0  0  0  0  0  0  0  0  0  0
   18.6961   -9.7247  -16.6412 O   0  0  0  0  0  0  0  0  0  0  0  0
   18.9964  -10.0580  -14.3880 N   0  0  0  0  0  0  0  0  0  0  0  0
   17.5386   -9.8678  -14.1406 C   0  0  1  0  0  0  0  0  0  0  0  0
   16.9470  -11.1817  -13.7923 C   0  0  0  0  0  0  0  0  0  0  0  0
   15.4812  -11.1616  -13.5249 C   0  0  0  0  0  0  0  0  0  0  0  0
   14.9874  -12.4902  -13.0536 C   0  0  0  0  0  0  0  0  0  0  0  0
   14.7363  -13.3940  -13.8686 O   0  0  0  0  0  0  0  0  0  0  0  0
   17.3297   -8.7491  -13.2316 C   0  0  0  0  0  0  0  0  0  0  0  0
   18.0176   -8.7500  -12.1491 O   0  0  0  0  0  0  0  0  0  0  0  0
   14.8175  -12.6905  -11.7071 O   0  0  0  0  0  0  0  0  0  0  0  0
   13.2867   -9.1682   -8.6996 N   0  0  0  0  0  0  0  0  0  0  0  0
   13.1626   -8.0224   -7.8704 C   0  0  0  0  0  0  0  0  0  0  0  0
   12.9244   -8.1404   -6.5885 N   0  0  0  0  0  0  0  0  0  0  0  0
   13.3056   -6.7547   -8.4769 N   0  0  0  0  0  0  0  0  0  0  0  0
   13.1160   -6.5720   -9.8925 C   0  0  0  0  0  0  0  0  0  0  0  0
   14.4134   -6.1539  -10.5519 C   0  0  0  0  0  0  0  0  0  0  0  0
   14.8106   -7.1055  -11.6511 C   0  0  0  0  0  0  0  0  0  0  0  0
   16.0688   -6.7501  -12.3539 C   0  0  2  0  0  0  0  0  0  0  0  0
   16.4668   -7.6629  -13.4018 N   0  0  0  0  0  0  0  0  0  0  0  0
   17.1566   -6.4918  -11.3884 C   0  0  0  0  0  0  0  0  0  0  0  0
   17.6615   -5.2250  -11.2466 O   0  0  0  0  0  0  0  0  0  0  0  0
   17.6064   -7.4316  -10.7072 O   0  0  0  0  0  0  0  0  0  0  0  0
  2  1  1  0
  3  2  1  0
  4  3  2  0
  5  3  1  0
  6 11  1  0
  6  5  1  0
  6  7  1  1
  8  7  1  0
  9  8  1  0
 10  9  2  0
 11 12  2  0
 13  9  1  0
 15 16  2  0
 15 14  1  0
 17 15  1  0
 18 17  1  0
 19 20  1  0
 19 18  1  0
 21 20  1  1
 22 11  1  0
 22 21  1  0
 23 21  1  0
 23 24  1  0
 25 23  2  0
M  END
$$$$
