GER.pdb
     RDKit          3D

 25 24  0  0  1  0  0  0  0  0999 V2000
   23.7355  -21.3189   -8.5562 N   0  0  0  0  0  0  0  0  0  0  0  0
   23.9708  -20.1708   -9.4028 C   0  0  0  0  0  0  0  0  0  0  0  0
   23.3586  -20.4306  -10.7291 C   0  0  0  0  0  0  0  0  0  0  0  0
   23.6683  -21.4887  -11.3443 O   0  0  0  0  0  0  0  0  0  0  0  0
   22.4409  -19.5466  -11.3396 N   0  0  0  0  0  0  0  0  0  0  0  0
   21.9288  -19.8367  -12.7093 C   0  0  1  0  0  0  0  0  0  0  0  0
   20.5990  -19.1986  -12.8573 C   0  0  0  0  0  0  0  0  0  0  0  0
   19.9735  -19.3506  -14.2012 C   0  0  0  0  0  0  0  0  0  0  0  0
   18.6317  -18.6973  -14.2631 C   0  0  0  0  0  0  0  0  0  0  0  0
   18.0442  -18.5670  -15.3503 O   0  0  0  0  0  0  0  0  0  0  0  0
   22.9561  -19.5392  -13.6981 C   0  0  0  0  0  0  0  0  0  0  0  0
   23.6712  -18.4952  -13.4898 O   0  0  0  0  0  0  0  0  0  0  0  0
   18.0640  -18.2460  -13.0986 O   0  0  0  0  0  0  0  0  0  0  0  0
   29.3954  -22.9233  -18.6731 N   0  0  0  0  0  0  0  0  0  0  0  0
   29.0150  -23.2273  -17.3394 C   0  0  0  0  0  0  0  0  0  0  0  0
   29.7960  -23.9313  -16.5594 N   0  0  0  0  0  0  0  0  0  0  0  0
   27.7676  -22.7439  -16.8862 N   0  0  0  0  0  0  0  0  0  0  0  0
   26.9215  -21.9387  -17.7283 C   0  0  0  0  0  0  0  0  0  0  0  0
   26.4107  -20.7324  -16.9689 C   0  0  0  0  0  0  0  0  0  0  0  0
   25.2462  -21.0866  -16.0801 C   0  0  0  0  0  0  0  0  0  0  0  0
   24.3410  -19.9537  -15.7637 C   0  0  2  0  0  0  0  0  0  0  0  0
   23.2621  -20.2644  -14.8531 N   0  0  0  0  0  0  0  0  0  0  0  0
   23.8645  -19.2992  -16.9994 C   0  0  0  0  0  0  0  0  0  0  0  0
   24.7566  -18.6755  -17.8331 O   0  0  0  0  0  0  0  0  0  0  0  0
   22.6508  -19.3215  -17.2749 O   0  0  0  0  0  0  0  0  0  0  0  0
  2  1  1  0
  3  2  1  0
  4  3  2  0
  5  3  1  0
  6 11  1  0
  6  5  1  0
  6  7  1  6
  8  7  1  0
  9  8  1  0
 10  9  2  0
 11 12  2  0
 13  9  1  0
 15 16  2  0
 15 14  1  0
 17 15  1  0
 18 17  1  0
 19 20  1  0
 19 18  1  0
 21 20  1  6
 22 11  1  0
 22 21  1  0
 23 21  1  0
 23 24  1  0
 25 23  2  0
M  END
$$$$
