GER.pdb
     RDKit          3D

 25 24  0  0  1  0  0  0  0  0999 V2000
   30.7838  -21.2834  -10.2417 N   0  0  0  0  0  0  0  0  0  0  0  0
   30.6399  -21.7798  -11.5918 C   0  0  0  0  0  0  0  0  0  0  0  0
   29.5784  -20.9963  -12.2707 C   0  0  0  0  0  0  0  0  0  0  0  0
   28.8920  -20.1852  -11.5890 O   0  0  0  0  0  0  0  0  0  0  0  0
   29.2979  -21.1146  -13.6504 N   0  0  0  0  0  0  0  0  0  0  0  0
   28.3027  -20.2052  -14.2869 C   0  0  1  0  0  0  0  0  0  0  0  0
   28.7444  -19.9243  -15.6738 C   0  0  0  0  0  0  0  0  0  0  0  0
   27.8276  -19.0539  -16.4627 C   0  0  0  0  0  0  0  0  0  0  0  0
   28.3451  -18.8144  -17.8433 C   0  0  0  0  0  0  0  0  0  0  0  0
   29.2960  -19.4819  -18.2841 O   0  0  0  0  0  0  0  0  0  0  0  0
   26.9553  -20.7170  -14.0771 C   0  0  0  0  0  0  0  0  0  0  0  0
   26.7891  -21.9801  -14.2249 O   0  0  0  0  0  0  0  0  0  0  0  0
   27.7506  -17.8454  -18.6112 O   0  0  0  0  0  0  0  0  0  0  0  0
   21.3643  -21.6747   -7.8633 N   0  0  0  0  0  0  0  0  0  0  0  0
   20.6859  -22.0141   -9.0635 C   0  0  0  0  0  0  0  0  0  0  0  0
   19.9291  -23.0802   -9.1317 N   0  0  0  0  0  0  0  0  0  0  0  0
   20.8563  -21.1622  -10.1772 N   0  0  0  0  0  0  0  0  0  0  0  0
   22.1141  -20.5140  -10.4434 C   0  0  0  0  0  0  0  0  0  0  0  0
   22.6518  -20.9338  -11.7953 C   0  0  0  0  0  0  0  0  0  0  0  0
   23.9733  -20.2752  -12.0974 C   0  0  0  0  0  0  0  0  0  0  0  0
   24.5187  -20.5701  -13.4460 C   0  0  2  0  0  0  0  0  0  0  0  0
   25.8136  -19.9914  -13.7257 N   0  0  0  0  0  0  0  0  0  0  0  0
   23.5253  -20.2619  -14.4950 C   0  0  0  0  0  0  0  0  0  0  0  0
   22.4692  -21.1094  -14.7098 O   0  0  0  0  0  0  0  0  0  0  0  0
   23.6558  -19.2288  -15.1770 O   0  0  0  0  0  0  0  0  0  0  0  0
  2  1  1  0
  3  2  1  0
  4  3  2  0
  5  3  1  0
  6 11  1  0
  6  5  1  0
  6  7  1  6
  8  7  1  0
  9  8  1  0
 10  9  2  0
 11 12  2  0
 13  9  1  0
 15 16  2  0
 15 14  1  0
 17 15  1  0
 18 17  1  0
 19 20  1  0
 19 18  1  0
 21 20  1  1
 22 11  1  0
 22 21  1  0
 23 21  1  0
 23 24  1  0
 25 23  2  0
M  END
$$$$
