GER.pdb
     RDKit          3D

 25 24  0  0  1  0  0  0  0  0999 V2000
   25.2258  -24.2201  -14.3108 N   0  0  0  0  0  0  0  0  0  0  0  0
   24.5014  -23.1677  -14.9872 C   0  0  0  0  0  0  0  0  0  0  0  0
   23.3436  -22.7770  -14.1456 C   0  0  0  0  0  0  0  0  0  0  0  0
   23.1503  -23.3873  -13.0575 O   0  0  0  0  0  0  0  0  0  0  0  0
   22.4429  -21.7495  -14.5050 N   0  0  0  0  0  0  0  0  0  0  0  0
   21.3672  -21.3395  -13.5577 C   0  0  1  0  0  0  0  0  0  0  0  0
   21.0711  -19.9037  -13.7777 C   0  0  0  0  0  0  0  0  0  0  0  0
   19.9796  -19.3484  -12.9289 C   0  0  0  0  0  0  0  0  0  0  0  0
   19.6061  -17.9634  -13.3454 C   0  0  0  0  0  0  0  0  0  0  0  0
   20.4532  -17.2077  -13.8508 O   0  0  0  0  0  0  0  0  0  0  0  0
   20.2666  -22.2921  -13.6119 C   0  0  0  0  0  0  0  0  0  0  0  0
   19.8251  -22.5967  -14.7769 O   0  0  0  0  0  0  0  0  0  0  0  0
   18.3130  -17.5452  -13.1589 O   0  0  0  0  0  0  0  0  0  0  0  0
   19.2773  -24.9417   -7.1537 N   0  0  0  0  0  0  0  0  0  0  0  0
   17.8594  -24.9632   -7.0811 C   0  0  0  0  0  0  0  0  0  0  0  0
   17.2320  -24.5252   -6.0188 N   0  0  0  0  0  0  0  0  0  0  0  0
   17.1529  -25.4721   -8.1933 N   0  0  0  0  0  0  0  0  0  0  0  0
   17.8226  -25.7973   -9.4258 C   0  0  0  0  0  0  0  0  0  0  0  0
   17.7789  -24.6221  -10.3795 C   0  0  0  0  0  0  0  0  0  0  0  0
   18.4759  -24.9338  -11.6790 C   0  0  0  0  0  0  0  0  0  0  0  0
   18.5003  -23.8144  -12.6533 C   0  0  2  0  0  0  0  0  0  0  0  0
   19.6328  -22.9234  -12.5381 N   0  0  0  0  0  0  0  0  0  0  0  0
   17.2123  -23.0910  -12.6569 C   0  0  0  0  0  0  0  0  0  0  0  0
   17.1220  -21.8481  -12.0851 O   0  0  0  0  0  0  0  0  0  0  0  0
   16.2154  -23.6185  -13.1836 O   0  0  0  0  0  0  0  0  0  0  0  0
  2  1  1  0
  3  2  1  0
  4  3  2  0
  5  3  1  0
  6 11  1  0
  6  5  1  0
  6  7  1  6
  8  7  1  0
  9  8  1  0
 10  9  2  0
 11 12  2  0
 13  9  1  0
 15 16  2  0
 15 14  1  0
 17 15  1  0
 18 17  1  0
 19 20  1  0
 19 18  1  0
 21 20  1  1
 22 11  1  0
 22 21  1  0
 23 21  1  0
 23 24  1  0
 25 23  2  0
M  END
$$$$
