GER.pdb
     RDKit          3D

 25 24  0  0  1  0  0  0  0  0999 V2000
   28.7478  -21.2096  -17.6142 N   0  0  0  0  0  0  0  0  0  0  0  0
   28.0128  -20.1501  -16.9607 C   0  0  0  0  0  0  0  0  0  0  0  0
   27.4515  -20.6789  -15.6932 C   0  0  0  0  0  0  0  0  0  0  0  0
   26.9900  -21.8539  -15.6768 O   0  0  0  0  0  0  0  0  0  0  0  0
   27.4088  -19.9271  -14.4976 N   0  0  0  0  0  0  0  0  0  0  0  0
   26.7798  -20.5076  -13.2770 C   0  0  1  0  0  0  0  0  0  0  0  0
   27.4240  -19.9046  -12.0859 C   0  0  0  0  0  0  0  0  0  0  0  0
   28.8599  -20.2569  -11.9001 C   0  0  0  0  0  0  0  0  0  0  0  0
   29.0321  -21.3808  -10.9314 C   0  0  0  0  0  0  0  0  0  0  0  0
   30.1412  -21.9214  -10.7846 O   0  0  0  0  0  0  0  0  0  0  0  0
   25.3288  -20.4466  -13.3878 C   0  0  0  0  0  0  0  0  0  0  0  0
   24.8372  -19.4045  -13.9510 O   0  0  0  0  0  0  0  0  0  0  0  0
   27.9438  -21.8019  -10.2101 O   0  0  0  0  0  0  0  0  0  0  0  0
   18.7085  -25.9154  -15.2932 N   0  0  0  0  0  0  0  0  0  0  0  0
   18.0413  -24.6989  -14.9916 C   0  0  0  0  0  0  0  0  0  0  0  0
   16.7578  -24.5619  -15.2099 N   0  0  0  0  0  0  0  0  0  0  0  0
   18.8102  -23.6457  -14.4487 N   0  0  0  0  0  0  0  0  0  0  0  0
   20.2282  -23.7802  -14.2378 C   0  0  0  0  0  0  0  0  0  0  0  0
   20.8242  -22.4646  -13.7832 C   0  0  0  0  0  0  0  0  0  0  0  0
   22.3199  -22.5575  -13.6222 C   0  0  0  0  0  0  0  0  0  0  0  0
   22.9714  -21.3091  -13.1528 C   0  0  2  0  0  0  0  0  0  0  0  0
   24.4007  -21.3981  -12.9556 N   0  0  0  0  0  0  0  0  0  0  0  0
   22.2726  -20.7621  -11.9719 C   0  0  0  0  0  0  0  0  0  0  0  0
   21.0539  -20.1510  -12.1180 O   0  0  0  0  0  0  0  0  0  0  0  0
   22.7986  -20.8630  -10.8482 O   0  0  0  0  0  0  0  0  0  0  0  0
  2  1  1  0
  3  2  1  0
  4  3  2  0
  5  3  1  0
  6 11  1  0
  6  5  1  0
  6  7  1  1
  8  7  1  0
  9  8  1  0
 10  9  2  0
 11 12  2  0
 13  9  1  0
 15 16  2  0
 15 14  1  0
 17 15  1  0
 18 17  1  0
 19 20  1  0
 19 18  1  0
 21 20  1  1
 22 11  1  0
 22 21  1  0
 23 21  1  0
 23 24  1  0
 25 23  2  0
M  END
$$$$
