GER.pdb
     RDKit          3D

 25 24  0  0  1  0  0  0  0  0999 V2000
   20.9619  -12.7861  -17.1183 N   0  0  0  0  0  0  0  0  0  0  0  0
   21.3340  -11.4133  -17.3767 C   0  0  0  0  0  0  0  0  0  0  0  0
   20.8322  -10.5718  -16.2624 C   0  0  0  0  0  0  0  0  0  0  0  0
   20.1497  -11.1158  -15.3502 O   0  0  0  0  0  0  0  0  0  0  0  0
   21.0830   -9.1843  -16.1726 N   0  0  0  0  0  0  0  0  0  0  0  0
   20.5801   -8.4127  -15.0003 C   0  0  1  0  0  0  0  0  0  0  0  0
   21.4029   -7.1879  -14.8574 C   0  0  0  0  0  0  0  0  0  0  0  0
   21.0353   -6.3126  -13.7088 C   0  0  0  0  0  0  0  0  0  0  0  0
   21.8404   -5.0545  -13.6933 C   0  0  0  0  0  0  0  0  0  0  0  0
   21.3024   -3.9658  -13.4300 O   0  0  0  0  0  0  0  0  0  0  0  0
   19.1326   -8.2718  -15.0809 C   0  0  0  0  0  0  0  0  0  0  0  0
   18.6435   -8.0009  -16.2352 O   0  0  0  0  0  0  0  0  0  0  0  0
   23.1811   -5.1264  -13.9748 O   0  0  0  0  0  0  0  0  0  0  0  0
   11.9184  -12.0387  -11.6580 N   0  0  0  0  0  0  0  0  0  0  0  0
   11.4062  -11.0696  -12.5604 C   0  0  0  0  0  0  0  0  0  0  0  0
   10.1281  -11.0168  -12.8391 N   0  0  0  0  0  0  0  0  0  0  0  0
   12.3228  -10.1674  -13.1443 N   0  0  0  0  0  0  0  0  0  0  0  0
   13.7449  -10.3389  -12.9978 C   0  0  0  0  0  0  0  0  0  0  0  0
   14.4902   -9.2563  -13.7496 C   0  0  0  0  0  0  0  0  0  0  0  0
   15.9794   -9.3588  -13.5412 C   0  0  0  0  0  0  0  0  0  0  0  0
   16.7719   -8.2881  -14.1960 C   0  0  2  0  0  0  0  0  0  0  0  0
   18.2049   -8.4032  -14.0439 N   0  0  0  0  0  0  0  0  0  0  0  0
   16.2701   -6.9524  -13.8134 C   0  0  0  0  0  0  0  0  0  0  0  0
   15.0425   -6.5289  -14.2532 O   0  0  0  0  0  0  0  0  0  0  0  0
   16.9696   -6.2200  -13.0896 O   0  0  0  0  0  0  0  0  0  0  0  0
  2  1  1  0
  3  2  1  0
  4  3  2  0
  5  3  1  0
  6 11  1  0
  6  5  1  0
  6  7  1  6
  8  7  1  0
  9  8  1  0
 10  9  2  0
 11 12  2  0
 13  9  1  0
 15 16  2  0
 15 14  1  0
 17 15  1  0
 18 17  1  0
 19 20  1  0
 19 18  1  0
 21 20  1  1
 22 11  1  0
 22 21  1  0
 23 21  1  0
 23 24  1  0
 25 23  2  0
M  END
$$$$
