GER.pdb
     RDKit          3D

 25 24  0  0  1  0  0  0  0  0999 V2000
   23.0865  -14.7500  -18.7324 N   0  0  0  0  0  0  0  0  0  0  0  0
   24.5006  -15.0252  -18.6115 C   0  0  0  0  0  0  0  0  0  0  0  0
   24.6737  -16.4596  -18.2738 C   0  0  0  0  0  0  0  0  0  0  0  0
   23.7286  -17.0663  -17.6973 O   0  0  0  0  0  0  0  0  0  0  0  0
   25.8512  -17.1828  -18.5684 N   0  0  0  0  0  0  0  0  0  0  0  0
   25.9631  -18.6148  -18.1693 C   0  0  1  0  0  0  0  0  0  0  0  0
   26.8180  -19.3119  -19.1596 C   0  0  0  0  0  0  0  0  0  0  0  0
   26.4108  -19.1309  -20.5815 C   0  0  0  0  0  0  0  0  0  0  0  0
   27.2934  -19.8982  -21.5108 C   0  0  0  0  0  0  0  0  0  0  0  0
   27.6178  -19.4192  -22.6105 O   0  0  0  0  0  0  0  0  0  0  0  0
   26.3125  -18.7126  -16.7588 C   0  0  0  0  0  0  0  0  0  0  0  0
   27.0339  -17.7679  -16.2770 O   0  0  0  0  0  0  0  0  0  0  0  0
   27.7364  -21.1381  -21.1258 O   0  0  0  0  0  0  0  0  0  0  0  0
   26.1123  -21.1420   -8.6262 N   0  0  0  0  0  0  0  0  0  0  0  0
   24.7251  -20.9112   -8.8213 C   0  0  0  0  0  0  0  0  0  0  0  0
   23.8608  -21.1534   -7.8683 N   0  0  0  0  0  0  0  0  0  0  0  0
   24.3129  -20.4120  -10.0767 N   0  0  0  0  0  0  0  0  0  0  0  0
   24.8092  -20.9694  -11.3081 C   0  0  0  0  0  0  0  0  0  0  0  0
   25.6409  -19.9483  -12.0555 C   0  0  0  0  0  0  0  0  0  0  0  0
   25.2189  -19.8354  -13.4979 C   0  0  0  0  0  0  0  0  0  0  0  0
   26.3401  -19.7653  -14.4680 C   0  0  2  0  0  0  0  0  0  0  0  0
   25.9481  -19.7178  -15.8586 N   0  0  0  0  0  0  0  0  0  0  0  0
   27.3362  -20.8225  -14.1991 C   0  0  0  0  0  0  0  0  0  0  0  0
   27.3179  -21.9836  -14.9282 O   0  0  0  0  0  0  0  0  0  0  0  0
   28.1890  -20.6481  -13.3093 O   0  0  0  0  0  0  0  0  0  0  0  0
  2  1  1  0
  3  2  1  0
  4  3  2  0
  5  3  1  0
  6 11  1  0
  6  5  1  0
  6  7  1  6
  8  7  1  0
  9  8  1  0
 10  9  2  0
 11 12  2  0
 13  9  1  0
 15 16  2  0
 15 14  1  0
 17 15  1  0
 18 17  1  0
 19 20  1  0
 19 18  1  0
 21 20  1  1
 22 11  1  0
 22 21  1  0
 23 21  1  0
 23 24  1  0
 25 23  2  0
M  END
$$$$
