GER.pdb
     RDKit          3D

 25 24  0  0  1  0  0  0  0  0999 V2000
   14.6235  -30.2972   -8.1354 N   0  0  0  0  0  0  0  0  0  0  0  0
   15.5813  -29.3009   -8.5597 C   0  0  0  0  0  0  0  0  0  0  0  0
   15.3323  -28.0533   -7.7962 C   0  0  0  0  0  0  0  0  0  0  0  0
   14.1860  -27.8613   -7.3033 O   0  0  0  0  0  0  0  0  0  0  0  0
   16.3215  -27.0651   -7.5929 N   0  0  0  0  0  0  0  0  0  0  0  0
   16.0025  -25.8480   -6.7934 C   0  0  1  0  0  0  0  0  0  0  0  0
   17.2235  -25.4349   -6.0611 C   0  0  0  0  0  0  0  0  0  0  0  0
   17.6744  -26.3826   -5.0032 C   0  0  0  0  0  0  0  0  0  0  0  0
   18.9495  -25.9346   -4.3672 C   0  0  0  0  0  0  0  0  0  0  0  0
   19.2764  -26.3576   -3.2455 O   0  0  0  0  0  0  0  0  0  0  0  0
   15.3285  -24.8649   -7.6305 C   0  0  0  0  0  0  0  0  0  0  0  0
   15.5917  -24.8994   -8.8853 O   0  0  0  0  0  0  0  0  0  0  0  0
   19.7488  -25.0495   -5.0452 O   0  0  0  0  0  0  0  0  0  0  0  0
    8.7589  -20.4072   -4.5805 N   0  0  0  0  0  0  0  0  0  0  0  0
    8.6704  -21.8222   -4.6577 C   0  0  0  0  0  0  0  0  0  0  0  0
    7.6824  -22.4678   -4.0911 N   0  0  0  0  0  0  0  0  0  0  0  0
    9.6835  -22.5055   -5.3662 N   0  0  0  0  0  0  0  0  0  0  0  0
   10.7095  -21.7953   -6.0845 C   0  0  0  0  0  0  0  0  0  0  0  0
   11.6908  -22.7663   -6.7066 C   0  0  0  0  0  0  0  0  0  0  0  0
   12.7763  -22.0494   -7.4676 C   0  0  0  0  0  0  0  0  0  0  0  0
   13.7729  -22.9403   -8.1127 C   0  0  2  0  0  0  0  0  0  0  0  0
   14.4176  -23.8844   -7.2278 N   0  0  0  0  0  0  0  0  0  0  0  0
   14.7433  -22.1582   -8.9058 C   0  0  0  0  0  0  0  0  0  0  0  0
   14.3018  -21.3194   -9.8965 O   0  0  0  0  0  0  0  0  0  0  0  0
   15.9597  -22.2671   -8.6651 O   0  0  0  0  0  0  0  0  0  0  0  0
  2  1  1  0
  3  2  1  0
  4  3  2  0
  5  3  1  0
  6 11  1  0
  6  5  1  0
  6  7  1  6
  8  7  1  0
  9  8  1  0
 10  9  2  0
 11 12  2  0
 13  9  1  0
 15 16  2  0
 15 14  1  0
 17 15  1  0
 18 17  1  0
 19 20  1  0
 19 18  1  0
 21 20  1  1
 22 11  1  0
 22 21  1  0
 23 21  1  0
 23 24  1  0
 25 23  2  0
M  END
$$$$
