GER.pdb
     RDKit          3D

 25 24  0  0  1  0  0  0  0  0999 V2000
   27.7985  -22.3807  -17.2647 N   0  0  0  0  0  0  0  0  0  0  0  0
   27.4871  -21.1406  -16.5900 C   0  0  0  0  0  0  0  0  0  0  0  0
   26.5779  -21.4373  -15.4556 C   0  0  0  0  0  0  0  0  0  0  0  0
   26.0769  -22.5925  -15.3649 O   0  0  0  0  0  0  0  0  0  0  0  0
   26.2448  -20.4846  -14.4669 N   0  0  0  0  0  0  0  0  0  0  0  0
   25.2889  -20.8441  -13.3809 C   0  0  1  0  0  0  0  0  0  0  0  0
   25.7100  -20.1538  -12.1384 C   0  0  0  0  0  0  0  0  0  0  0  0
   24.8215  -20.3750  -10.9628 C   0  0  0  0  0  0  0  0  0  0  0  0
   25.4913  -21.1977   -9.9112 C   0  0  0  0  0  0  0  0  0  0  0  0
   26.7258  -21.3390   -9.9135 O   0  0  0  0  0  0  0  0  0  0  0  0
   23.9195  -20.6667  -13.8442 C   0  0  0  0  0  0  0  0  0  0  0  0
   23.6761  -19.6123  -14.5326 O   0  0  0  0  0  0  0  0  0  0  0  0
   24.7174  -21.7915   -8.9466 O   0  0  0  0  0  0  0  0  0  0  0  0
   17.5058  -26.1579  -14.9452 N   0  0  0  0  0  0  0  0  0  0  0  0
   18.3251  -25.7404  -13.8634 C   0  0  0  0  0  0  0  0  0  0  0  0
   18.6210  -26.5601  -12.8864 N   0  0  0  0  0  0  0  0  0  0  0  0
   18.8081  -24.4131  -13.8799 N   0  0  0  0  0  0  0  0  0  0  0  0
   18.4612  -23.4991  -14.9370 C   0  0  0  0  0  0  0  0  0  0  0  0
   19.2684  -22.2233  -14.8215 C   0  0  0  0  0  0  0  0  0  0  0  0
   20.6396  -22.4821  -14.2518 C   0  0  0  0  0  0  0  0  0  0  0  0
   21.4852  -21.2720  -14.0977 C   0  0  2  0  0  0  0  0  0  0  0  0
   22.8313  -21.5177  -13.6316 N   0  0  0  0  0  0  0  0  0  0  0  0
   20.7909  -20.2426  -13.2973 C   0  0  0  0  0  0  0  0  0  0  0  0
   19.9131  -19.3801  -13.9018 O   0  0  0  0  0  0  0  0  0  0  0  0
   21.0089  -20.1683  -12.0740 O   0  0  0  0  0  0  0  0  0  0  0  0
  2  1  1  0
  3  2  1  0
  4  3  2  0
  5  3  1  0
  6 11  1  0
  6  5  1  0
  6  7  1  1
  8  7  1  0
  9  8  1  0
 10  9  2  0
 11 12  2  0
 13  9  1  0
 15 16  2  0
 15 14  1  0
 17 15  1  0
 18 17  1  0
 19 20  1  0
 19 18  1  0
 21 20  1  1
 22 11  1  0
 22 21  1  0
 23 21  1  0
 23 24  1  0
 25 23  2  0
M  END
$$$$
