WTC.pdb
     RDKit          3D

 28 29  0  0  1  0  0  0  0  0999 V2000
   26.5775  -22.2715   -9.3609 N   0  0  0  0  0  0  0  0  0  0  0  0
   25.9922  -20.9930   -9.6717 C   0  0  1  0  0  0  0  0  0  0  0  0
   26.6539  -19.9186   -8.8405 C   0  0  0  0  0  0  0  0  0  0  0  0
   26.4944  -20.0921   -7.4001 C   0  0  0  0  0  0  0  0  0  0  0  0
   25.3802  -20.6751   -6.8248 C   0  0  0  0  0  0  0  0  0  0  0  0
   25.5881  -20.6966   -5.5057 N   0  0  0  0  0  0  0  0  0  0  0  0
   26.7957  -20.1469   -5.2230 C   0  0  0  0  0  0  0  0  0  0  0  0
   27.4259  -19.9489   -4.0241 C   0  0  0  0  0  0  0  0  0  0  0  0
   28.6633  -19.3487   -4.0451 C   0  0  0  0  0  0  0  0  0  0  0  0
   29.2755  -18.9486   -5.2098 C   0  0  0  0  0  0  0  0  0  0  0  0
   28.6405  -19.1486   -6.4154 C   0  0  0  0  0  0  0  0  0  0  0  0
   27.3875  -19.7550   -6.4225 C   0  0  0  0  0  0  0  0  0  0  0  0
   26.3139  -20.6635  -11.0921 C   0  0  0  0  0  0  0  0  0  0  0  0
   27.5231  -20.6657  -11.4292 O   0  0  0  0  0  0  0  0  0  0  0  0
   25.9161  -22.5361  -13.8058 C   0  0  0  0  0  0  0  0  0  0  0  0
   25.2429  -21.2574  -14.2307 C   0  0  1  0  0  0  0  0  0  0  0  0
   23.8642  -21.4836  -14.1604 O   0  0  0  0  0  0  0  0  0  0  0  0
   25.6714  -20.0674  -13.3934 C   0  0  2  0  0  0  0  0  0  0  0  0
   25.2884  -20.3570  -12.0345 N   0  0  0  0  0  0  0  0  0  0  0  0
   25.0623  -18.8092  -13.8856 C   0  0  0  0  0  0  0  0  0  0  0  0
   24.5079  -18.0438  -13.0621 O   0  0  0  0  0  0  0  0  0  0  0  0
   25.0635  -18.4056  -15.2436 N   0  0  0  0  0  0  0  0  0  0  0  0
   25.5498  -17.1108  -15.6808 C   0  0  1  0  0  0  0  0  0  0  0  0
   27.0197  -16.9221  -15.2894 C   0  0  0  0  0  0  0  0  0  0  0  0
   27.6871  -15.3655  -15.8675 S   0  0  0  0  0  0  0  0  0  0  0  0
   25.5188  -17.1091  -17.1574 C   0  0  0  0  0  0  0  0  0  0  0  0
   25.9674  -18.1049  -17.7643 O   0  0  0  0  0  0  0  0  0  0  0  0
   25.0148  -16.0526  -17.8828 O   0  0  0  0  0  0  0  0  0  0  0  0
  2 13  1  0
  2  1  1  1
  3  2  1  0
  4  3  1  0
  4 12  1  0
  5  6  1  0
  5  4  2  0
  6  7  1  0
  7 12  2  0
  7  8  1  0
  8  9  2  0
  9 10  1  0
 11 10  2  0
 12 11  1  0
 13 19  1  0
 14 13  2  0
 16 15  1  1
 16 17  1  0
 18 16  1  0
 18 19  1  1
 20 18  1  0
 21 20  2  0
 22 20  1  0
 23 22  1  0
 23 26  1  0
 24 25  1  0
 23 24  1  6
 26 28  1  0
 27 26  2  0
M  END
$$$$
