WTC.pdb
     RDKit          3D

 28 29  0  0  1  0  0  0  0  0999 V2000
   28.0784  -21.6413  -12.4803 N   0  0  0  0  0  0  0  0  0  0  0  0
   26.8902  -21.5625  -11.6706 C   0  0  1  0  0  0  0  0  0  0  0  0
   27.0687  -20.4980  -10.6133 C   0  0  0  0  0  0  0  0  0  0  0  0
   28.1059  -20.7971   -9.6310 C   0  0  0  0  0  0  0  0  0  0  0  0
   29.3010  -21.4138   -9.9532 C   0  0  0  0  0  0  0  0  0  0  0  0
   30.0128  -21.4985   -8.8264 N   0  0  0  0  0  0  0  0  0  0  0  0
   29.3111  -20.9573   -7.7991 C   0  0  0  0  0  0  0  0  0  0  0  0
   29.6289  -20.8265   -6.4741 C   0  0  0  0  0  0  0  0  0  0  0  0
   28.7002  -20.2337   -5.6508 C   0  0  0  0  0  0  0  0  0  0  0  0
   27.4860  -19.7773   -6.1075 C   0  0  0  0  0  0  0  0  0  0  0  0
   27.1675  -19.9094   -7.4408 C   0  0  0  0  0  0  0  0  0  0  0  0
   28.0901  -20.5049   -8.2964 C   0  0  0  0  0  0  0  0  0  0  0  0
   25.7656  -21.0934  -12.5336 C   0  0  0  0  0  0  0  0  0  0  0  0
   26.0024  -20.1609  -13.3400 O   0  0  0  0  0  0  0  0  0  0  0  0
   24.1142  -23.3511  -14.8025 C   0  0  0  0  0  0  0  0  0  0  0  0
   23.0158  -22.6257  -14.0704 C   0  0  1  0  0  0  0  0  0  0  0  0
   22.5089  -23.5156  -13.1174 O   0  0  0  0  0  0  0  0  0  0  0  0
   23.4903  -21.3273  -13.4462 C   0  0  2  0  0  0  0  0  0  0  0  0
   24.4686  -21.6801  -12.4483 N   0  0  0  0  0  0  0  0  0  0  0  0
   22.3627  -20.5573  -12.8701 C   0  0  0  0  0  0  0  0  0  0  0  0
   22.1524  -20.6254  -11.6363 O   0  0  0  0  0  0  0  0  0  0  0  0
   21.4927  -19.7367  -13.6296 N   0  0  0  0  0  0  0  0  0  0  0  0
   20.3863  -19.0051  -13.0423 C   0  0  1  0  0  0  0  0  0  0  0  0
   20.2036  -17.6495  -13.7337 C   0  0  0  0  0  0  0  0  0  0  0  0
   18.7703  -16.7625  -13.1321 S   0  0  0  0  0  0  0  0  0  0  0  0
   19.1570  -19.7739  -13.3232 C   0  0  0  0  0  0  0  0  0  0  0  0
   19.0805  -20.4036  -14.3997 O   0  0  0  0  0  0  0  0  0  0  0  0
   18.0988  -19.8192  -12.4432 O   0  0  0  0  0  0  0  0  0  0  0  0
  2 13  1  0
  2  1  1  6
  3  2  1  0
  4  3  1  0
  4 12  1  0
  5  6  1  0
  5  4  2  0
  6  7  1  0
  7 12  2  0
  7  8  1  0
  8  9  2  0
  9 10  1  0
 11 10  2  0
 12 11  1  0
 13 19  1  0
 14 13  2  0
 16 15  1  1
 16 17  1  0
 18 16  1  0
 18 19  1  1
 20 18  1  0
 21 20  2  0
 22 20  1  0
 23 22  1  0
 23 26  1  0
 24 25  1  0
 23 24  1  6
 26 28  1  0
 27 26  2  0
M  END
$$$$
