WTC.pdb
     RDKit          3D

 28 29  0  0  1  0  0  0  0  0999 V2000
   28.1712  -21.7735  -10.6917 N   0  0  0  0  0  0  0  0  0  0  0  0
   26.9217  -21.3562  -10.1101 C   0  0  1  0  0  0  0  0  0  0  0  0
   27.1641  -20.2014   -9.1664 C   0  0  0  0  0  0  0  0  0  0  0  0
   28.1052  -20.4946   -8.0900 C   0  0  0  0  0  0  0  0  0  0  0  0
   29.2230  -21.2916   -8.2557 C   0  0  0  0  0  0  0  0  0  0  0  0
   29.8632  -21.3146   -7.0837 N   0  0  0  0  0  0  0  0  0  0  0  0
   29.1904  -20.5601   -6.1791 C   0  0  0  0  0  0  0  0  0  0  0  0
   29.4591  -20.2961   -4.8631 C   0  0  0  0  0  0  0  0  0  0  0  0
   28.5781  -19.4895   -4.1812 C   0  0  0  0  0  0  0  0  0  0  0  0
   27.4573  -18.9505   -4.7681 C   0  0  0  0  0  0  0  0  0  0  0  0
   27.1880  -19.2166   -6.0923 C   0  0  0  0  0  0  0  0  0  0  0  0
   28.0643  -20.0294   -6.8060 C   0  0  0  0  0  0  0  0  0  0  0  0
   26.0555  -20.8155  -11.1996 C   0  0  0  0  0  0  0  0  0  0  0  0
   26.6251  -20.3229  -12.2040 O   0  0  0  0  0  0  0  0  0  0  0  0
   25.6599  -21.4546  -13.7171 C   0  0  0  0  0  0  0  0  0  0  0  0
   24.1966  -21.4613  -13.3603 C   0  0  1  0  0  0  0  0  0  0  0  0
   23.8731  -22.7750  -13.0048 O   0  0  0  0  0  0  0  0  0  0  0  0
   23.8604  -20.4713  -12.2614 C   0  0  2  0  0  0  0  0  0  0  0  0
   24.6329  -20.8552  -11.1068 N   0  0  0  0  0  0  0  0  0  0  0  0
   22.4065  -20.4508  -11.9746 C   0  0  0  0  0  0  0  0  0  0  0  0
   21.9676  -21.1454  -11.0279 O   0  0  0  0  0  0  0  0  0  0  0  0
   21.4641  -19.6884  -12.7078 N   0  0  0  0  0  0  0  0  0  0  0  0
   20.0797  -19.5426  -12.3001 C   0  0  1  0  0  0  0  0  0  0  0  0
   19.4428  -18.3186  -12.9676 C   0  0  0  0  0  0  0  0  0  0  0  0
   17.7690  -18.0265  -12.4056 S   0  0  0  0  0  0  0  0  0  0  0  0
   19.3466  -20.7155  -12.8179 C   0  0  0  0  0  0  0  0  0  0  0  0
   19.6556  -21.1627  -13.9429 O   0  0  0  0  0  0  0  0  0  0  0  0
   18.3400  -21.3287  -12.1059 O   0  0  0  0  0  0  0  0  0  0  0  0
  2 13  1  0
  2  1  1  6
  3  2  1  0
  4  3  1  0
  4 12  1  0
  5  6  1  0
  5  4  2  0
  6  7  1  0
  7 12  2  0
  7  8  1  0
  8  9  2  0
  9 10  1  0
 11 10  2  0
 12 11  1  0
 13 19  1  0
 14 13  2  0
 16 15  1  1
 16 17  1  0
 18 16  1  0
 18 19  1  1
 20 18  1  0
 21 20  2  0
 22 20  1  0
 23 22  1  0
 23 26  1  0
 24 25  1  0
 23 24  1  6
 26 28  1  0
 27 26  2  0
M  END
$$$$
