WTC.pdb
     RDKit          3D

 28 29  0  0  1  0  0  0  0  0999 V2000
   27.3791  -21.7365  -14.6486 N   0  0  0  0  0  0  0  0  0  0  0  0
   26.3810  -21.5257  -13.6321 C   0  0  1  0  0  0  0  0  0  0  0  0
   26.6886  -20.2531  -12.8779 C   0  0  0  0  0  0  0  0  0  0  0  0
   27.4706  -20.4515  -11.6616 C   0  0  0  0  0  0  0  0  0  0  0  0
   28.8506  -20.5399  -11.6529 C   0  0  0  0  0  0  0  0  0  0  0  0
   29.2243  -20.6872  -10.3791 N   0  0  0  0  0  0  0  0  0  0  0  0
   28.1292  -20.6959   -9.5783 C   0  0  0  0  0  0  0  0  0  0  0  0
   28.0195  -20.8274   -8.2203 C   0  0  0  0  0  0  0  0  0  0  0  0
   26.7558  -20.8082   -7.6774 C   0  0  0  0  0  0  0  0  0  0  0  0
   25.6211  -20.6641   -8.4409 C   0  0  0  0  0  0  0  0  0  0  0  0
   25.7329  -20.5317   -9.8071 C   0  0  0  0  0  0  0  0  0  0  0  0
   27.0004  -20.5468  -10.3823 C   0  0  0  0  0  0  0  0  0  0  0  0
   25.0690  -21.2918  -14.3056 C   0  0  0  0  0  0  0  0  0  0  0  0
   25.0497  -20.5028  -15.2817 O   0  0  0  0  0  0  0  0  0  0  0  0
   20.8520  -22.8197  -15.8643 C   0  0  0  0  0  0  0  0  0  0  0  0
   22.2112  -22.9336  -15.2253 C   0  0  1  0  0  0  0  0  0  0  0  0
   23.1002  -23.3228  -16.2328 O   0  0  0  0  0  0  0  0  0  0  0  0
   22.6442  -21.6494  -14.5442 C   0  0  2  0  0  0  0  0  0  0  0  0
   23.8789  -21.9390  -13.8596 N   0  0  0  0  0  0  0  0  0  0  0  0
   21.6013  -21.1466  -13.6190 C   0  0  0  0  0  0  0  0  0  0  0  0
   21.5046  -21.6617  -12.4803 O   0  0  0  0  0  0  0  0  0  0  0  0
   20.6923  -20.1078  -13.9377 N   0  0  0  0  0  0  0  0  0  0  0  0
   19.6476  -19.6690  -13.0321 C   0  0  1  0  0  0  0  0  0  0  0  0
   19.3665  -18.1730  -13.2111 C   0  0  0  0  0  0  0  0  0  0  0  0
   18.9965  -17.7448  -14.9090 S   0  0  0  0  0  0  0  0  0  0  0  0
   18.4068  -20.3660  -13.4271 C   0  0  0  0  0  0  0  0  0  0  0  0
   18.3366  -20.8537  -14.5752 O   0  0  0  0  0  0  0  0  0  0  0  0
   17.3314  -20.4951  -12.5767 O   0  0  0  0  0  0  0  0  0  0  0  0
  2 13  1  0
  2  1  1  6
  3  2  1  0
  4  3  1  0
  4 12  1  0
  5  6  1  0
  5  4  2  0
  6  7  1  0
  7 12  2  0
  7  8  1  0
  8  9  2  0
  9 10  1  0
 11 10  2  0
 12 11  1  0
 13 19  1  0
 14 13  2  0
 16 15  1  6
 16 17  1  0
 18 16  1  0
 18 19  1  1
 20 18  1  0
 21 20  2  0
 22 20  1  0
 23 22  1  0
 23 26  1  0
 24 25  1  0
 23 24  1  6
 26 28  1  0
 27 26  2  0
M  END
$$$$
