WTC.pdb
     RDKit          3D

 28 29  0  0  1  0  0  0  0  0999 V2000
   28.1430  -21.7229  -10.8345 N   0  0  0  0  0  0  0  0  0  0  0  0
   26.9809  -21.3179  -10.0866 C   0  0  1  0  0  0  0  0  0  0  0  0
   27.3613  -20.2267   -9.1132 C   0  0  0  0  0  0  0  0  0  0  0  0
   28.3736  -20.6199   -8.1380 C   0  0  0  0  0  0  0  0  0  0  0  0
   29.4382  -21.4486   -8.4415 C   0  0  0  0  0  0  0  0  0  0  0  0
   30.1704  -21.5662   -7.3307 N   0  0  0  0  0  0  0  0  0  0  0  0
   29.6074  -20.8414   -6.3317 C   0  0  0  0  0  0  0  0  0  0  0  0
   29.9940  -20.6670   -5.0303 C   0  0  0  0  0  0  0  0  0  0  0  0
   29.2077  -19.8688   -4.2325 C   0  0  0  0  0  0  0  0  0  0  0  0
   28.0673  -19.2526   -4.6918 C   0  0  0  0  0  0  0  0  0  0  0  0
   27.6794  -19.4286   -6.0015 C   0  0  0  0  0  0  0  0  0  0  0  0
   28.4581  -20.2308   -6.8309 C   0  0  0  0  0  0  0  0  0  0  0  0
   26.0079  -20.6964  -11.0336 C   0  0  0  0  0  0  0  0  0  0  0  0
   26.4249  -19.7683  -11.7687 O   0  0  0  0  0  0  0  0  0  0  0  0
   23.7887  -20.9048  -14.7324 C   0  0  0  0  0  0  0  0  0  0  0  0
   24.5621  -21.2032  -13.4749 C   0  0  1  0  0  0  0  0  0  0  0  0
   25.8238  -20.6186  -13.6278 O   0  0  0  0  0  0  0  0  0  0  0  0
   23.8531  -20.7165  -12.2255 C   0  0  2  0  0  0  0  0  0  0  0  0
   24.6536  -21.1378  -11.1035 N   0  0  0  0  0  0  0  0  0  0  0  0
   22.4689  -21.2400  -12.1474 C   0  0  0  0  0  0  0  0  0  0  0  0
   22.2966  -22.4640  -11.9390 O   0  0  0  0  0  0  0  0  0  0  0  0
   21.3088  -20.4400  -12.2941 N   0  0  0  0  0  0  0  0  0  0  0  0
   19.9687  -20.9448  -12.0633 C   0  0  1  0  0  0  0  0  0  0  0  0
   18.9823  -19.7907  -11.8526 C   0  0  0  0  0  0  0  0  0  0  0  0
   19.4604  -18.7203  -10.5004 S   0  0  0  0  0  0  0  0  0  0  0  0
   19.5397  -21.6254  -13.3018 C   0  0  0  0  0  0  0  0  0  0  0  0
   19.9928  -21.2192  -14.3930 O   0  0  0  0  0  0  0  0  0  0  0  0
   18.6620  -22.6866  -13.2935 O   0  0  0  0  0  0  0  0  0  0  0  0
  2 13  1  0
  2  1  1  6
  3  2  1  0
  4  3  1  0
  4 12  1  0
  5  6  1  0
  5  4  2  0
  6  7  1  0
  7 12  2  0
  7  8  1  0
  8  9  2  0
  9 10  1  0
 11 10  2  0
 12 11  1  0
 13 19  1  0
 14 13  2  0
 16 15  1  6
 16 17  1  0
 18 16  1  0
 18 19  1  1
 20 18  1  0
 21 20  2  0
 22 20  1  0
 23 22  1  0
 23 26  1  0
 24 25  1  0
 23 24  1  6
 26 28  1  0
 27 26  2  0
M  END
$$$$
