WTC.pdb
     RDKit          3D

 28 29  0  0  1  0  0  0  0  0999 V2000
   27.4597  -21.6948  -13.1816 N   0  0  0  0  0  0  0  0  0  0  0  0
   26.3706  -21.3044  -12.3242 C   0  0  1  0  0  0  0  0  0  0  0  0
   26.7776  -20.1008  -11.5064 C   0  0  0  0  0  0  0  0  0  0  0  0
   27.8133  -20.3727  -10.5145 C   0  0  0  0  0  0  0  0  0  0  0  0
   29.1283  -20.6436  -10.8454 C   0  0  0  0  0  0  0  0  0  0  0  0
   29.7932  -20.8092   -9.6990 N   0  0  0  0  0  0  0  0  0  0  0  0
   28.9457  -20.6534   -8.6511 C   0  0  0  0  0  0  0  0  0  0  0  0
   29.1703  -20.7372   -7.3034 C   0  0  0  0  0  0  0  0  0  0  0  0
   28.0989  -20.5374   -6.4643 C   0  0  0  0  0  0  0  0  0  0  0  0
   26.8337  -20.2618   -6.9274 C   0  0  0  0  0  0  0  0  0  0  0  0
   26.6090  -20.1776   -8.2836 C   0  0  0  0  0  0  0  0  0  0  0  0
   27.6765  -20.3745   -9.1551 C   0  0  0  0  0  0  0  0  0  0  0  0
   25.2385  -20.8473  -13.1839 C   0  0  0  0  0  0  0  0  0  0  0  0
   25.5238  -20.2662  -14.2594 O   0  0  0  0  0  0  0  0  0  0  0  0
   21.8275  -21.8684  -15.8085 C   0  0  0  0  0  0  0  0  0  0  0  0
   22.9928  -21.8555  -14.8542 C   0  0  1  0  0  0  0  0  0  0  0  0
   24.1445  -21.6646  -15.6251 O   0  0  0  0  0  0  0  0  0  0  0  0
   22.8475  -20.8032  -13.7715 C   0  0  2  0  0  0  0  0  0  0  0  0
   23.8814  -21.0611  -12.8011 N   0  0  0  0  0  0  0  0  0  0  0  0
   21.4962  -20.8320  -13.1637 C   0  0  0  0  0  0  0  0  0  0  0  0
   21.1942  -21.7846  -12.4069 O   0  0  0  0  0  0  0  0  0  0  0  0
   20.5069  -19.8417  -13.3822 N   0  0  0  0  0  0  0  0  0  0  0  0
   19.2651  -19.7894  -12.6344 C   0  0  1  0  0  0  0  0  0  0  0  0
   18.8397  -18.3375  -12.3886 C   0  0  0  0  0  0  0  0  0  0  0  0
   20.1268  -17.3706  -11.6067 S   0  0  0  0  0  0  0  0  0  0  0  0
   18.2160  -20.3814  -13.4889 C   0  0  0  0  0  0  0  0  0  0  0  0
   18.4371  -20.4927  -14.7136 O   0  0  0  0  0  0  0  0  0  0  0  0
   17.0096  -20.8120  -12.9834 O   0  0  0  0  0  0  0  0  0  0  0  0
  2 13  1  0
  2  1  1  6
  3  2  1  0
  4  3  1  0
  4 12  1  0
  5  6  1  0
  5  4  2  0
  6  7  1  0
  7 12  2  0
  7  8  1  0
  8  9  2  0
  9 10  1  0
 11 10  2  0
 12 11  1  0
 13 19  1  0
 14 13  2  0
 16 15  1  6
 16 17  1  0
 18 16  1  0
 18 19  1  1
 20 18  1  0
 21 20  2  0
 22 20  1  0
 23 22  1  0
 23 26  1  0
 24 25  1  0
 23 24  1  6
 26 28  1  0
 27 26  2  0
M  END
$$$$
