WTC.pdb
     RDKit          3D

 28 29  0  0  1  0  0  0  0  0999 V2000
   23.7234  -35.3908   -3.8777 N   0  0  0  0  0  0  0  0  0  0  0  0
   25.1343  -35.3423   -4.1614 C   0  0  1  0  0  0  0  0  0  0  0  0
   25.6338  -33.9254   -4.0009 C   0  0  0  0  0  0  0  0  0  0  0  0
   25.2880  -33.0392   -5.1079 C   0  0  0  0  0  0  0  0  0  0  0  0
   24.1181  -32.3034   -5.1537 C   0  0  0  0  0  0  0  0  0  0  0  0
   24.1496  -31.5899   -6.2823 N   0  0  0  0  0  0  0  0  0  0  0  0
   25.2990  -31.8474   -6.9554 C   0  0  0  0  0  0  0  0  0  0  0  0
   25.7611  -31.3610   -8.1485 C   0  0  0  0  0  0  0  0  0  0  0  0
   26.9793  -31.8175   -8.5949 C   0  0  0  0  0  0  0  0  0  0  0  0
   27.7332  -32.7298   -7.8944 C   0  0  0  0  0  0  0  0  0  0  0  0
   27.2673  -33.2183   -6.6940 C   0  0  0  0  0  0  0  0  0  0  0  0
   26.0374  -32.7719   -6.2186 C   0  0  0  0  0  0  0  0  0  0  0  0
   25.8484  -36.1447   -3.1241 C   0  0  0  0  0  0  0  0  0  0  0  0
   25.2621  -36.3328   -2.0301 O   0  0  0  0  0  0  0  0  0  0  0  0
   29.3066  -39.5303   -2.2886 C   0  0  0  0  0  0  0  0  0  0  0  0
   28.5081  -38.6173   -3.1816 C   0  0  1  0  0  0  0  0  0  0  0  0
   27.7009  -39.4359   -3.9787 O   0  0  0  0  0  0  0  0  0  0  0  0
   27.6978  -37.6007   -2.4002 C   0  0  2  0  0  0  0  0  0  0  0  0
   27.1486  -36.6796   -3.3631 N   0  0  0  0  0  0  0  0  0  0  0  0
   28.5262  -36.9116   -1.3828 C   0  0  0  0  0  0  0  0  0  0  0  0
   29.2203  -35.9285   -1.7336 O   0  0  0  0  0  0  0  0  0  0  0  0
   28.5887  -37.2932   -0.0198 N   0  0  0  0  0  0  0  0  0  0  0  0
   29.3325  -36.5444    0.9752 C   0  0  1  0  0  0  0  0  0  0  0  0
   28.8103  -36.8459    2.3844 C   0  0  0  0  0  0  0  0  0  0  0  0
   29.8146  -36.0950    3.6613 S   0  0  0  0  0  0  0  0  0  0  0  0
   30.7239  -37.0384    0.9428 C   0  0  0  0  0  0  0  0  0  0  0  0
   30.9175  -38.2698    0.8569 O   0  0  0  0  0  0  0  0  0  0  0  0
   31.8082  -36.1917    1.0038 O   0  0  0  0  0  0  0  0  0  0  0  0
  2 13  1  0
  2  1  1  1
  3  2  1  0
  4  3  1  0
  4 12  1  0
  5  6  1  0
  5  4  2  0
  6  7  1  0
  7 12  2  0
  7  8  1  0
  8  9  2  0
  9 10  1  0
 11 10  2  0
 12 11  1  0
 13 19  1  0
 14 13  2  0
 16 15  1  1
 16 17  1  0
 18 16  1  0
 18 19  1  6
 20 18  1  0
 21 20  2  0
 22 20  1  0
 23 22  1  0
 23 26  1  0
 24 25  1  0
 23 24  1  1
 26 28  1  0
 27 26  2  0
M  END
$$$$
