KVY.pdb
     RDKit          3D

 29 29  0  0  1  0  0  0  0  0999 V2000
   10.8148  -17.3577   17.4337 N   0  0  0  0  0  0  0  0  0  0  0  0
    9.8539  -17.6244   18.4626 C   0  0  1  0  0  0  0  0  0  0  0  0
   10.0787  -18.9471   19.1577 C   0  0  0  0  0  0  0  0  0  0  0  0
    9.6216  -20.1346   18.3998 C   0  0  0  0  0  0  0  0  0  0  0  0
    9.7772  -21.4658   19.0367 C   0  0  0  0  0  0  0  0  0  0  0  0
    9.3859  -22.6432   18.2153 C   0  0  0  0  0  0  0  0  0  0  0  0
   10.1622  -22.8869   17.0548 N   0  0  0  0  0  0  0  0  0  0  0  0
    9.8735  -16.5705   19.5152 C   0  0  0  0  0  0  0  0  0  0  0  0
   10.9807  -16.2300   20.0088 O   0  0  0  0  0  0  0  0  0  0  0  0
    7.5108  -13.0829   19.8013 C   0  0  0  0  0  0  0  0  0  0  0  0
    7.5739  -13.9717   21.0324 C   0  0  1  0  0  0  0  0  0  0  0  0
    6.2746  -14.6671   21.3101 C   0  0  0  0  0  0  0  0  0  0  0  0
    8.7570  -14.8810   21.0159 C   0  0  2  0  0  0  0  0  0  0  0  0
    8.7541  -15.9063   20.0197 N   0  0  0  0  0  0  0  0  0  0  0  0
    8.9557  -15.4211   22.3869 C   0  0  0  0  0  0  0  0  0  0  0  0
    8.4541  -16.5492   22.7230 O   0  0  0  0  0  0  0  0  0  0  0  0
   10.8894  -16.0629   30.9938 O   0  0  0  0  0  0  0  0  0  0  0  0
   10.7407  -15.5923   29.6936 C   0  0  0  0  0  0  0  0  0  0  0  0
   10.0669  -14.4130   29.4567 C   0  0  0  0  0  0  0  0  0  0  0  0
    9.9262  -13.9585   28.1710 C   0  0  0  0  0  0  0  0  0  0  0  0
   10.4406  -14.6416   27.0631 C   0  0  0  0  0  0  0  0  0  0  0  0
   10.2754  -14.1310   25.6867 C   0  0  0  0  0  0  0  0  0  0  0  0
    9.6762  -15.1892   24.7998 C   0  0  2  0  0  0  0  0  0  0  0  0
    9.6909  -14.7579   23.4027 N   0  0  0  0  0  0  0  0  0  0  0  0
    8.3644  -15.6857   25.2039 C   0  0  0  0  0  0  0  0  0  0  0  0
    7.3272  -15.0478   24.9433 O   0  0  0  0  0  0  0  0  0  0  0  0
   11.1201  -15.8334   27.3176 C   0  0  0  0  0  0  0  0  0  0  0  0
   11.2465  -16.2643   28.6063 C   0  0  0  0  0  0  0  0  0  0  0  0
    8.2447  -16.8831   25.8891 O   0  0  0  0  0  0  0  0  0  0  0  0
  2  1  1  6
  2  8  1  0
  2  3  1  0
  3  4  1  0
  4  5  1  0
  5  6  1  0
  6  7  1  0
  8  9  2  0
 11 10  1  6
 11 12  1  0
 13 11  1  0
 13 14  1  6
 14  8  1  0
 15 13  1  0
 16 15  2  0
 18 17  1  0
 18 19  2  0
 20 19  1  0
 21 22  1  0
 21 20  2  0
 23 22  1  1
 23 24  1  0
 24 15  1  0
 25 23  1  0
 25 29  1  0
 26 25  2  0
 27 28  2  0
 27 21  1  0
 28 18  1  0
M  END
$$$$
