KVY.pdb
     RDKit          3D

 29 29  0  0  1  0  0  0  0  0999 V2000
    6.3250  -19.9820   20.7238 N   0  0  0  0  0  0  0  0  0  0  0  0
    6.1312  -18.9653   21.7147 C   0  0  1  0  0  0  0  0  0  0  0  0
    6.2998  -19.4726   23.1281 C   0  0  0  0  0  0  0  0  0  0  0  0
    5.4656  -20.6472   23.4717 C   0  0  0  0  0  0  0  0  0  0  0  0
    5.6186  -21.2337   24.8262 C   0  0  0  0  0  0  0  0  0  0  0  0
    4.7854  -22.4288   25.1288 C   0  0  0  0  0  0  0  0  0  0  0  0
    5.0175  -23.5763   24.3300 N   0  0  0  0  0  0  0  0  0  0  0  0
    7.0917  -17.8403   21.5384 C   0  0  0  0  0  0  0  0  0  0  0  0
    8.2997  -18.1081   21.3047 O   0  0  0  0  0  0  0  0  0  0  0  0
    8.2687  -13.0360   20.9668 C   0  0  0  0  0  0  0  0  0  0  0  0
    7.1991  -14.1152   20.9973 C   0  0  1  0  0  0  0  0  0  0  0  0
    6.5036  -14.2766   19.6786 C   0  0  0  0  0  0  0  0  0  0  0  0
    7.7000  -15.3946   21.5793 C   0  0  2  0  0  0  0  0  0  0  0  0
    6.7735  -16.4828   21.6086 N   0  0  0  0  0  0  0  0  0  0  0  0
    8.2826  -15.1079   22.9170 C   0  0  0  0  0  0  0  0  0  0  0  0
    7.6433  -14.3991   23.7690 O   0  0  0  0  0  0  0  0  0  0  0  0
    5.7846  -11.2690   27.0826 O   0  0  0  0  0  0  0  0  0  0  0  0
    6.5959  -12.3498   26.7541 C   0  0  0  0  0  0  0  0  0  0  0  0
    7.9345  -12.3364   27.0841 C   0  0  0  0  0  0  0  0  0  0  0  0
    8.7250  -13.4072   26.7555 C   0  0  0  0  0  0  0  0  0  0  0  0
    8.2358  -14.5365   26.0891 C   0  0  0  0  0  0  0  0  0  0  0  0
    9.1085  -15.6780   25.7456 C   0  0  0  0  0  0  0  0  0  0  0  0
   10.0915  -15.2871   24.6749 C   0  0  2  0  0  0  0  0  0  0  0  0
    9.5496  -15.5778   23.3484 N   0  0  0  0  0  0  0  0  0  0  0  0
   11.4454  -15.8081   24.8376 C   0  0  0  0  0  0  0  0  0  0  0  0
   11.8345  -16.7997   24.1926 O   0  0  0  0  0  0  0  0  0  0  0  0
    6.8795  -14.5364   25.7614 C   0  0  0  0  0  0  0  0  0  0  0  0
    6.1141  -13.4584   26.0996 C   0  0  0  0  0  0  0  0  0  0  0  0
   12.3304  -15.2077   25.7172 O   0  0  0  0  0  0  0  0  0  0  0  0
  2  1  1  6
  2  8  1  0
  2  3  1  0
  3  4  1  0
  4  5  1  0
  5  6  1  0
  6  7  1  0
  8  9  2  0
 11 10  1  6
 11 12  1  0
 13 11  1  0
 13 14  1  1
 14  8  1  0
 15 13  1  0
 16 15  2  0
 18 17  1  0
 18 19  2  0
 20 19  1  0
 21 22  1  0
 21 20  2  0
 23 22  1  1
 23 24  1  0
 24 15  1  0
 25 23  1  0
 25 29  1  0
 26 25  2  0
 27 28  2  0
 27 21  1  0
 28 18  1  0
M  END
$$$$
