KVY.pdb
     RDKit          3D

 29 29  0  0  1  0  0  0  0  0999 V2000
    8.1332  -19.1022   18.6726 N   0  0  0  0  0  0  0  0  0  0  0  0
    7.4696  -18.4172   19.7420 C   0  0  1  0  0  0  0  0  0  0  0  0
    7.4212  -19.2187   21.0221 C   0  0  0  0  0  0  0  0  0  0  0  0
    6.9731  -20.6213   20.8621 C   0  0  0  0  0  0  0  0  0  0  0  0
    7.8631  -21.6955   21.3680 C   0  0  0  0  0  0  0  0  0  0  0  0
    7.3609  -23.0898   21.2346 C   0  0  0  0  0  0  0  0  0  0  0  0
    8.2558  -24.1202   21.6168 N   0  0  0  0  0  0  0  0  0  0  0  0
    8.1390  -17.1255   20.0621 C   0  0  0  0  0  0  0  0  0  0  0  0
    9.3930  -17.0559   19.9714 O   0  0  0  0  0  0  0  0  0  0  0  0
    8.1487  -12.2174   20.8265 C   0  0  0  0  0  0  0  0  0  0  0  0
    7.3703  -13.4753   20.4781 C   0  0  1  0  0  0  0  0  0  0  0  0
    6.8263  -13.4497   19.0809 C   0  0  0  0  0  0  0  0  0  0  0  0
    8.1229  -14.7195   20.8132 C   0  0  2  0  0  0  0  0  0  0  0  0
    7.4935  -15.9543   20.4628 N   0  0  0  0  0  0  0  0  0  0  0  0
    8.5086  -14.6653   22.2482 C   0  0  0  0  0  0  0  0  0  0  0  0
    7.7304  -14.1338   23.1136 O   0  0  0  0  0  0  0  0  0  0  0  0
   10.4998  -15.1581   30.5256 O   0  0  0  0  0  0  0  0  0  0  0  0
   10.1319  -15.2526   29.1877 C   0  0  0  0  0  0  0  0  0  0  0  0
   10.1441  -16.4753   28.5508 C   0  0  0  0  0  0  0  0  0  0  0  0
    9.7796  -16.5569   27.2318 C   0  0  0  0  0  0  0  0  0  0  0  0
    9.3876  -15.4424   26.4815 C   0  0  0  0  0  0  0  0  0  0  0  0
    8.9994  -15.5563   25.0607 C   0  0  0  0  0  0  0  0  0  0  0  0
   10.1050  -15.0566   24.1700 C   0  0  2  0  0  0  0  0  0  0  0  0
    9.7266  -15.1788   22.7629 N   0  0  0  0  0  0  0  0  0  0  0  0
   11.4285  -15.6149   24.4296 C   0  0  0  0  0  0  0  0  0  0  0  0
   12.1017  -15.2442   25.4093 O   0  0  0  0  0  0  0  0  0  0  0  0
    9.3799  -14.2116   27.1388 C   0  0  0  0  0  0  0  0  0  0  0  0
    9.7471  -14.1570   28.4520 C   0  0  0  0  0  0  0  0  0  0  0  0
   11.9664  -16.5736   23.5876 O   0  0  0  0  0  0  0  0  0  0  0  0
  2  1  1  6
  2  8  1  0
  2  3  1  0
  3  4  1  0
  4  5  1  0
  5  6  1  0
  6  7  1  0
  8  9  2  0
 11 10  1  6
 11 12  1  0
 13 11  1  0
 13 14  1  1
 14  8  1  0
 15 13  1  0
 16 15  2  0
 18 17  1  0
 18 19  2  0
 20 19  1  0
 21 22  1  0
 21 20  2  0
 23 22  1  1
 23 24  1  0
 24 15  1  0
 25 23  1  0
 25 29  1  0
 26 25  2  0
 27 28  2  0
 27 21  1  0
 28 18  1  0
M  END
$$$$
