KVY.pdb
     RDKit          3D

 29 29  0  0  1  0  0  0  0  0999 V2000
    8.8463  -19.2294   20.0392 N   0  0  0  0  0  0  0  0  0  0  0  0
    9.9782  -18.4093   19.7241 C   0  0  1  0  0  0  0  0  0  0  0  0
   10.2370  -18.2980   18.2395 C   0  0  0  0  0  0  0  0  0  0  0  0
    9.8977  -19.5081   17.4558 C   0  0  0  0  0  0  0  0  0  0  0  0
    9.1669  -19.3239   16.1776 C   0  0  0  0  0  0  0  0  0  0  0  0
    9.9945  -19.0204   14.9788 C   0  0  0  0  0  0  0  0  0  0  0  0
   10.9359  -20.0089   14.5975 N   0  0  0  0  0  0  0  0  0  0  0  0
    9.8094  -17.0227   20.2417 C   0  0  0  0  0  0  0  0  0  0  0  0
   10.7503  -16.2006   20.0856 O   0  0  0  0  0  0  0  0  0  0  0  0
    6.9746  -13.3752   22.1696 C   0  0  0  0  0  0  0  0  0  0  0  0
    7.0853  -14.7173   21.4652 C   0  0  1  0  0  0  0  0  0  0  0  0
    6.3578  -14.7433   20.1542 C   0  0  0  0  0  0  0  0  0  0  0  0
    8.4941  -15.2027   21.3867 C   0  0  2  0  0  0  0  0  0  0  0  0
    8.6793  -16.5339   20.8996 N   0  0  0  0  0  0  0  0  0  0  0  0
    9.1420  -14.9854   22.7074 C   0  0  0  0  0  0  0  0  0  0  0  0
    9.1150  -13.8347   23.2661 O   0  0  0  0  0  0  0  0  0  0  0  0
   11.0792  -14.5278   30.9896 O   0  0  0  0  0  0  0  0  0  0  0  0
   10.6249  -14.6911   29.6853 C   0  0  0  0  0  0  0  0  0  0  0  0
   10.1535  -15.9165   29.2644 C   0  0  0  0  0  0  0  0  0  0  0  0
    9.7081  -16.0663   27.9766 C   0  0  0  0  0  0  0  0  0  0  0  0
    9.7063  -15.0201   27.0468 C   0  0  0  0  0  0  0  0  0  0  0  0
    9.2213  -15.2069   25.6640 C   0  0  0  0  0  0  0  0  0  0  0  0
   10.3026  -15.8001   24.8012 C   0  0  2  0  0  0  0  0  0  0  0  0
    9.8203  -15.9967   23.4349 N   0  0  0  0  0  0  0  0  0  0  0  0
   10.9486  -16.9977   25.3295 C   0  0  0  0  0  0  0  0  0  0  0  0
   12.0759  -16.9412   25.8554 O   0  0  0  0  0  0  0  0  0  0  0  0
   10.1860  -13.7858   27.4864 C   0  0  0  0  0  0  0  0  0  0  0  0
   10.6237  -13.6627   28.7732 C   0  0  0  0  0  0  0  0  0  0  0  0
   10.3183  -18.2285   25.2568 O   0  0  0  0  0  0  0  0  0  0  0  0
  2  1  1  6
  2  8  1  0
  2  3  1  0
  3  4  1  0
  4  5  1  0
  5  6  1  0
  6  7  1  0
  8  9  2  0
 11 10  1  6
 11 12  1  0
 13 11  1  0
 13 14  1  1
 14  8  1  0
 15 13  1  0
 16 15  2  0
 18 17  1  0
 18 19  2  0
 20 19  1  0
 21 22  1  0
 21 20  2  0
 23 22  1  1
 23 24  1  0
 24 15  1  0
 25 23  1  0
 25 29  1  0
 26 25  2  0
 27 28  2  0
 27 21  1  0
 28 18  1  0
M  END
$$$$
