KVY.pdb
     RDKit          3D

 29 29  0  0  1  0  0  0  0  0999 V2000
    8.2987  -18.6630   19.0875 N   0  0  0  0  0  0  0  0  0  0  0  0
    9.5298  -17.9667   18.8576 C   0  0  1  0  0  0  0  0  0  0  0  0
    9.8001  -17.7042   17.3942 C   0  0  0  0  0  0  0  0  0  0  0  0
    9.3473  -18.7741   16.4756 C   0  0  0  0  0  0  0  0  0  0  0  0
    8.1330  -18.5208   15.6612 C   0  0  0  0  0  0  0  0  0  0  0  0
    7.7907  -19.5510   14.6437 C   0  0  0  0  0  0  0  0  0  0  0  0
    8.8730  -20.2988   14.1165 N   0  0  0  0  0  0  0  0  0  0  0  0
    9.5479  -16.6465   19.5474 C   0  0  0  0  0  0  0  0  0  0  0  0
   10.5335  -15.8839   19.3668 O   0  0  0  0  0  0  0  0  0  0  0  0
    7.5114  -12.8824   22.0380 C   0  0  0  0  0  0  0  0  0  0  0  0
    7.3868  -14.0958   21.1316 C   0  0  1  0  0  0  0  0  0  0  0  0
    6.9251  -13.7399   19.7500 C   0  0  0  0  0  0  0  0  0  0  0  0
    8.6072  -14.9539   21.1609 C   0  0  2  0  0  0  0  0  0  0  0  0
    8.5518  -16.1604   20.3961 N   0  0  0  0  0  0  0  0  0  0  0  0
    8.9788  -15.1970   22.5800 C   0  0  0  0  0  0  0  0  0  0  0  0
    8.1656  -15.7809   23.3767 O   0  0  0  0  0  0  0  0  0  0  0  0
   10.7052  -15.5279   30.9030 O   0  0  0  0  0  0  0  0  0  0  0  0
   10.3892  -15.3040   29.5672 C   0  0  0  0  0  0  0  0  0  0  0  0
    9.8858  -16.3281   28.7935 C   0  0  0  0  0  0  0  0  0  0  0  0
    9.5778  -16.0963   27.4780 C   0  0  0  0  0  0  0  0  0  0  0  0
    9.7505  -14.8497   26.8656 C   0  0  0  0  0  0  0  0  0  0  0  0
    9.4111  -14.6251   25.4454 C   0  0  0  0  0  0  0  0  0  0  0  0
   10.5486  -15.0525   24.5572 C   0  0  2  0  0  0  0  0  0  0  0  0
   10.2201  -14.8173   23.1519 N   0  0  0  0  0  0  0  0  0  0  0  0
   11.0535  -16.4037   24.7808 C   0  0  0  0  0  0  0  0  0  0  0  0
   10.4360  -17.3989   24.3580 O   0  0  0  0  0  0  0  0  0  0  0  0
   10.2606  -13.8226   27.6603 C   0  0  0  0  0  0  0  0  0  0  0  0
   10.5594  -14.0791   28.9670 C   0  0  0  0  0  0  0  0  0  0  0  0
   12.2360  -16.6087   25.4716 O   0  0  0  0  0  0  0  0  0  0  0  0
  2  1  1  6
  2  8  1  0
  2  3  1  0
  3  4  1  0
  4  5  1  0
  5  6  1  0
  6  7  1  0
  8  9  2  0
 11 10  1  1
 11 12  1  0
 13 11  1  0
 13 14  1  1
 14  8  1  0
 15 13  1  0
 16 15  2  0
 18 17  1  0
 18 19  2  0
 20 19  1  0
 21 22  1  0
 21 20  2  0
 23 22  1  1
 23 24  1  0
 24 15  1  0
 25 23  1  0
 25 29  1  0
 26 25  2  0
 27 28  2  0
 27 21  1  0
 28 18  1  0
M  END
$$$$
