KVY.pdb
     RDKit          3D

 29 29  0  0  1  0  0  0  0  0999 V2000
    8.9122  -18.9810   17.7114 N   0  0  0  0  0  0  0  0  0  0  0  0
    8.3192  -18.4404   18.8985 C   0  0  1  0  0  0  0  0  0  0  0  0
    8.4439  -19.3548   20.0950 C   0  0  0  0  0  0  0  0  0  0  0  0
    8.5736  -20.7936   19.7683 C   0  0  0  0  0  0  0  0  0  0  0  0
    9.8530  -21.4675   20.1013 C   0  0  0  0  0  0  0  0  0  0  0  0
    9.8894  -22.9446   19.9251 C   0  0  0  0  0  0  0  0  0  0  0  0
    9.3832  -23.7190   20.9988 N   0  0  0  0  0  0  0  0  0  0  0  0
    8.9414  -17.1409   19.2770 C   0  0  0  0  0  0  0  0  0  0  0  0
   10.1575  -16.9527   19.0100 O   0  0  0  0  0  0  0  0  0  0  0  0
    8.2151  -12.3453   20.5049 C   0  0  0  0  0  0  0  0  0  0  0  0
    7.7245  -13.6672   19.9379 C   0  0  1  0  0  0  0  0  0  0  0  0
    7.1038  -13.5189   18.5809 C   0  0  0  0  0  0  0  0  0  0  0  0
    8.7606  -14.7382   20.0171 C   0  0  2  0  0  0  0  0  0  0  0  0
    8.2895  -16.0840   19.9149 N   0  0  0  0  0  0  0  0  0  0  0  0
    9.5787  -14.5135   21.2383 C   0  0  0  0  0  0  0  0  0  0  0  0
   10.3644  -13.5071   21.3215 O   0  0  0  0  0  0  0  0  0  0  0  0
    6.2721  -11.9840   28.5833 O   0  0  0  0  0  0  0  0  0  0  0  0
    6.6612  -12.4909   27.3480 C   0  0  0  0  0  0  0  0  0  0  0  0
    6.1485  -13.6891   26.8984 C   0  0  0  0  0  0  0  0  0  0  0  0
    6.5390  -14.1794   25.6793 C   0  0  0  0  0  0  0  0  0  0  0  0
    7.4491  -13.5150   24.8493 C   0  0  0  0  0  0  0  0  0  0  0  0
    7.8545  -14.0645   23.5392 C   0  0  0  0  0  0  0  0  0  0  0  0
    9.0830  -14.9220   23.6841 C   0  0  2  0  0  0  0  0  0  0  0  0
    9.5596  -15.3631   22.3740 N   0  0  0  0  0  0  0  0  0  0  0  0
    8.9735  -16.0310   24.6268 C   0  0  0  0  0  0  0  0  0  0  0  0
    8.0217  -16.8319   24.5696 O   0  0  0  0  0  0  0  0  0  0  0  0
    7.9599  -12.3036   25.3168 C   0  0  0  0  0  0  0  0  0  0  0  0
    7.5553  -11.8371   26.5339 C   0  0  0  0  0  0  0  0  0  0  0  0
    9.9308  -16.2172   25.6099 O   0  0  0  0  0  0  0  0  0  0  0  0
  2  1  1  6
  2  8  1  0
  2  3  1  0
  3  4  1  0
  4  5  1  0
  5  6  1  0
  6  7  1  0
  8  9  2  0
 11 10  1  6
 11 12  1  0
 13 11  1  0
 13 14  1  1
 14  8  1  0
 15 13  1  0
 16 15  2  0
 18 17  1  0
 18 19  2  0
 20 19  1  0
 21 22  1  0
 21 20  2  0
 23 22  1  6
 23 24  1  0
 24 15  1  0
 25 23  1  0
 25 29  1  0
 26 25  2  0
 27 28  2  0
 27 21  1  0
 28 18  1  0
M  END
$$$$
