KVY.pdb
     RDKit          3D

 29 29  0  0  1  0  0  0  0  0999 V2000
   10.4561  -18.1386   20.2357 N   0  0  0  0  0  0  0  0  0  0  0  0
   11.2861  -17.4948   21.2103 C   0  0  1  0  0  0  0  0  0  0  0  0
   12.6265  -17.0660   20.6598 C   0  0  0  0  0  0  0  0  0  0  0  0
   13.5059  -18.1763   20.2269 C   0  0  0  0  0  0  0  0  0  0  0  0
   14.1798  -18.9774   21.2785 C   0  0  0  0  0  0  0  0  0  0  0  0
   15.1134  -20.0365   20.8085 C   0  0  0  0  0  0  0  0  0  0  0  0
   15.6613  -20.8804   21.8066 N   0  0  0  0  0  0  0  0  0  0  0  0
   10.6331  -16.2762   21.7649 C   0  0  0  0  0  0  0  0  0  0  0  0
   11.2671  -15.5773   22.5988 O   0  0  0  0  0  0  0  0  0  0  0  0
    6.8154  -13.0583   22.1100 C   0  0  0  0  0  0  0  0  0  0  0  0
    7.5416  -14.1304   21.3145 C   0  0  1  0  0  0  0  0  0  0  0  0
    7.9622  -13.6561   19.9555 C   0  0  0  0  0  0  0  0  0  0  0  0
    8.6363  -14.7745   22.0977 C   0  0  2  0  0  0  0  0  0  0  0  0
    9.3535  -15.8221   21.4405 N   0  0  0  0  0  0  0  0  0  0  0  0
    8.0881  -15.1994   23.4130 C   0  0  0  0  0  0  0  0  0  0  0  0
    7.5830  -16.3652   23.5637 O   0  0  0  0  0  0  0  0  0  0  0  0
   12.9790  -16.1186   28.7049 O   0  0  0  0  0  0  0  0  0  0  0  0
   11.7590  -15.6009   28.2834 C   0  0  0  0  0  0  0  0  0  0  0  0
   11.7137  -14.4052   27.5984 C   0  0  0  0  0  0  0  0  0  0  0  0
   10.5056  -13.9040   27.1876 C   0  0  0  0  0  0  0  0  0  0  0  0
    9.2907  -14.5546   27.4314 C   0  0  0  0  0  0  0  0  0  0  0  0
    8.0012  -13.9935   26.9784 C   0  0  0  0  0  0  0  0  0  0  0  0
    7.4534  -14.7930   25.8269 C   0  0  2  0  0  0  0  0  0  0  0  0
    8.0780  -14.3801   24.5710 N   0  0  0  0  0  0  0  0  0  0  0  0
    5.9981  -14.8388   25.7234 C   0  0  0  0  0  0  0  0  0  0  0  0
    5.3868  -14.1033   24.9259 O   0  0  0  0  0  0  0  0  0  0  0  0
    9.3515  -15.7635   28.1256 C   0  0  0  0  0  0  0  0  0  0  0  0
   10.5664  -16.2409   28.5236 C   0  0  0  0  0  0  0  0  0  0  0  0
    5.2624  -15.7056   26.5139 O   0  0  0  0  0  0  0  0  0  0  0  0
  2  1  1  6
  2  8  1  0
  2  3  1  0
  3  4  1  0
  4  5  1  0
  5  6  1  0
  6  7  1  0
  8  9  2  0
 11 10  1  1
 11 12  1  0
 13 11  1  0
 13 14  1  6
 14  8  1  0
 15 13  1  0
 16 15  2  0
 18 17  1  0
 18 19  2  0
 20 19  1  0
 21 22  1  0
 21 20  2  0
 23 22  1  1
 23 24  1  0
 24 15  1  0
 25 23  1  0
 25 29  1  0
 26 25  2  0
 27 28  2  0
 27 21  1  0
 28 18  1  0
M  END
$$$$
