KVY.pdb
     RDKit          3D

 29 29  0  0  1  0  0  0  0  0999 V2000
    6.5162  -17.1663   19.0549 N   0  0  0  0  0  0  0  0  0  0  0  0
    7.7822  -16.5120   19.2041 C   0  0  1  0  0  0  0  0  0  0  0  0
    7.6575  -15.0580   19.5962 C   0  0  0  0  0  0  0  0  0  0  0  0
    6.8762  -14.2238   18.6542 C   0  0  0  0  0  0  0  0  0  0  0  0
    7.3095  -12.8196   18.4482 C   0  0  0  0  0  0  0  0  0  0  0  0
    8.4493  -12.6079   17.5153 C   0  0  0  0  0  0  0  0  0  0  0  0
    8.2538  -13.0309   16.1768 N   0  0  0  0  0  0  0  0  0  0  0  0
    8.6197  -17.1730   20.2437 C   0  0  0  0  0  0  0  0  0  0  0  0
    8.0471  -17.7242   21.2204 O   0  0  0  0  0  0  0  0  0  0  0  0
   13.0014  -18.9912   21.8331 C   0  0  0  0  0  0  0  0  0  0  0  0
   12.1779  -18.3577   20.7241 C   0  0  1  0  0  0  0  0  0  0  0  0
   12.1500  -19.1906   19.4774 C   0  0  0  0  0  0  0  0  0  0  0  0
   10.8295  -17.9251   21.1947 C   0  0  2  0  0  0  0  0  0  0  0  0
   10.0140  -17.2426   20.2393 N   0  0  0  0  0  0  0  0  0  0  0  0
   10.9951  -17.1535   22.4550 C   0  0  0  0  0  0  0  0  0  0  0  0
   11.5014  -15.9786   22.4392 O   0  0  0  0  0  0  0  0  0  0  0  0
   10.8035  -14.4655   30.8516 O   0  0  0  0  0  0  0  0  0  0  0  0
   10.5162  -15.0239   29.6107 C   0  0  0  0  0  0  0  0  0  0  0  0
   10.6143  -16.3866   29.4250 C   0  0  0  0  0  0  0  0  0  0  0  0
   10.3288  -16.9263   28.1976 C   0  0  0  0  0  0  0  0  0  0  0  0
    9.9350  -16.1521   27.1002 C   0  0  0  0  0  0  0  0  0  0  0  0
    9.6331  -16.7578   25.7869 C   0  0  0  0  0  0  0  0  0  0  0  0
   10.8886  -16.8957   24.9683 C   0  0  2  0  0  0  0  0  0  0  0  0
   10.6201  -17.6348   23.7356 N   0  0  0  0  0  0  0  0  0  0  0  0
   12.0520  -17.4204   25.6768 C   0  0  0  0  0  0  0  0  0  0  0  0
   12.1903  -18.6429   25.8691 O   0  0  0  0  0  0  0  0  0  0  0  0
    9.8400  -14.7748   27.3024 C   0  0  0  0  0  0  0  0  0  0  0  0
   10.1296  -14.2623   28.5337 C   0  0  0  0  0  0  0  0  0  0  0  0
   13.0318  -16.5654   26.1527 O   0  0  0  0  0  0  0  0  0  0  0  0
  2  1  1  1
  2  8  1  0
  2  3  1  0
  3  4  1  0
  4  5  1  0
  5  6  1  0
  6  7  1  0
  8  9  2  0
 11 10  1  1
 11 12  1  0
 13 11  1  0
 13 14  1  6
 14  8  1  0
 15 13  1  0
 16 15  2  0
 18 17  1  0
 18 19  2  0
 20 19  1  0
 21 22  1  0
 21 20  2  0
 23 22  1  1
 23 24  1  0
 24 15  1  0
 25 23  1  0
 25 29  1  0
 26 25  2  0
 27 28  2  0
 27 21  1  0
 28 18  1  0
M  END
$$$$
