ECF.pdb
     RDKit          3D

 27 27  0  0  1  0  0  0  0  0999 V2000
   24.1829  -22.9041  -15.9697 N   0  0  0  0  0  0  0  0  0  0  0  0
   23.8135  -22.1995  -14.7412 C   0  0  1  0  0  0  0  0  0  0  0  0
   22.8162  -23.0634  -14.0369 C   0  0  0  0  0  0  0  0  0  0  0  0
   21.4300  -23.0271  -14.6267 C   0  0  0  0  0  0  0  0  0  0  0  0
   20.8411  -21.6760  -14.5233 C   0  0  0  0  0  0  0  0  0  0  0  0
   20.6351  -21.1212  -13.4175 O   0  0  0  0  0  0  0  0  0  0  0  0
   25.0586  -22.1051  -13.9191 C   0  0  0  0  0  0  0  0  0  0  0  0
   25.8678  -23.0570  -13.8903 O   0  0  0  0  0  0  0  0  0  0  0  0
   20.5028  -20.9927  -15.6761 O   0  0  0  0  0  0  0  0  0  0  0  0
   25.3793  -20.9652  -13.1520 N   0  0  0  0  0  0  0  0  0  0  0  0
   26.6022  -20.8893  -12.4399 C   0  0  1  0  0  0  0  0  0  0  0  0
   27.4801  -19.7278  -12.8290 C   0  0  0  0  0  0  0  0  0  0  0  0
   29.1687  -19.8906  -12.2304 S   0  0  0  0  0  0  0  0  0  0  0  0
   26.4472  -20.8196  -10.9654 C   0  0  0  0  0  0  0  0  0  0  0  0
   25.4390  -20.1954  -10.5368 O   0  0  0  0  0  0  0  0  0  0  0  0
   27.3622  -21.4114  -10.0636 N   0  0  0  0  0  0  0  0  0  0  0  0
   27.2377  -21.0689   -8.6508 C   0  0  1  0  0  0  0  0  0  0  0  0
   28.5942  -20.5850   -8.1961 C   0  0  0  0  0  0  0  0  0  0  0  0
   28.5854  -20.2212   -6.7545 C   0  0  0  0  0  0  0  0  0  0  0  0
   28.9728  -21.1020   -5.7691 C   0  0  0  0  0  0  0  0  0  0  0  0
   28.9615  -20.7524   -4.4485 C   0  0  0  0  0  0  0  0  0  0  0  0
   28.5492  -19.4764   -4.0867 C   0  0  0  0  0  0  0  0  0  0  0  0
   28.1610  -18.5892   -5.0536 C   0  0  0  0  0  0  0  0  0  0  0  0
   28.1786  -18.9577   -6.3758 C   0  0  0  0  0  0  0  0  0  0  0  0
   26.1533  -20.0999   -8.4259 C   0  0  0  0  0  0  0  0  0  0  0  0
   26.0986  -19.0183   -9.0588 O   0  0  0  0  0  0  0  0  0  0  0  0
   25.1396  -20.3636   -7.4866 O   0  0  0  0  0  0  0  0  0  0  0  0
  2  1  1  6
  3  2  1  0
  4  3  1  0
  5  4  1  0
  5  6  2  0
  7  2  1  0
  7  8  2  0
  9  5  1  0
 10  7  1  0
 11 10  1  0
 11 12  1  6
 12 13  1  0
 14 11  1  0
 15 14  2  0
 16 14  1  0
 17 16  1  0
 17 18  1  6
 18 19  1  0
 19 20  2  0
 20 21  1  0
 22 21  2  0
 23 22  1  0
 24 19  1  0
 24 23  2  0
 25 27  1  0
 25 17  1  0
 26 25  2  0
M  END
$$$$
