ECF.pdb
     RDKit          3D

 27 27  0  0  1  0  0  0  0  0999 V2000
   22.8397  -16.5955  -15.6527 N   0  0  0  0  0  0  0  0  0  0  0  0
   22.9043  -17.8434  -16.4148 C   0  0  1  0  0  0  0  0  0  0  0  0
   22.6385  -17.4859  -17.8426 C   0  0  0  0  0  0  0  0  0  0  0  0
   21.3529  -16.7335  -18.0702 C   0  0  0  0  0  0  0  0  0  0  0  0
   21.6154  -15.3603  -18.5480 C   0  0  0  0  0  0  0  0  0  0  0  0
   22.7784  -14.9326  -18.7418 O   0  0  0  0  0  0  0  0  0  0  0  0
   24.3055  -18.3469  -16.2804 C   0  0  0  0  0  0  0  0  0  0  0  0
   24.6889  -19.3288  -16.9517 O   0  0  0  0  0  0  0  0  0  0  0  0
   20.5524  -14.5115  -18.7924 O   0  0  0  0  0  0  0  0  0  0  0  0
   25.2465  -17.7552  -15.4114 N   0  0  0  0  0  0  0  0  0  0  0  0
   26.5121  -18.3548  -15.1942 C   0  0  1  0  0  0  0  0  0  0  0  0
   27.6844  -17.4307  -15.4012 C   0  0  0  0  0  0  0  0  0  0  0  0
   27.1941  -15.7718  -15.8950 S   0  0  0  0  0  0  0  0  0  0  0  0
   26.6828  -18.9497  -13.8450 C   0  0  0  0  0  0  0  0  0  0  0  0
   27.4703  -18.3502  -13.0639 O   0  0  0  0  0  0  0  0  0  0  0  0
   26.0124  -20.1231  -13.4276 N   0  0  0  0  0  0  0  0  0  0  0  0
   26.2767  -20.6099  -12.0778 C   0  0  1  0  0  0  0  0  0  0  0  0
   25.8297  -19.5261  -11.1258 C   0  0  0  0  0  0  0  0  0  0  0  0
   25.8568  -19.9973   -9.7158 C   0  0  0  0  0  0  0  0  0  0  0  0
   24.8558  -20.7763   -9.1791 C   0  0  0  0  0  0  0  0  0  0  0  0
   24.8956  -21.2038   -7.8823 C   0  0  0  0  0  0  0  0  0  0  0  0
   25.9722  -20.8452   -7.0812 C   0  0  0  0  0  0  0  0  0  0  0  0
   26.9751  -20.0715   -7.5991 C   0  0  0  0  0  0  0  0  0  0  0  0
   26.9185  -19.6509   -8.9046 C   0  0  0  0  0  0  0  0  0  0  0  0
   25.6353  -21.9129  -11.8408 C   0  0  0  0  0  0  0  0  0  0  0  0
   24.5374  -22.2093  -12.3700 O   0  0  0  0  0  0  0  0  0  0  0  0
   26.2424  -22.8698  -11.0070 O   0  0  0  0  0  0  0  0  0  0  0  0
  2  1  1  1
  3  2  1  0
  4  3  1  0
  5  4  1  0
  5  6  2  0
  7  2  1  0
  7  8  2  0
  9  5  1  0
 10  7  1  0
 11 10  1  0
 11 12  1  1
 12 13  1  0
 14 11  1  0
 15 14  2  0
 16 14  1  0
 17 16  1  0
 17 18  1  1
 18 19  1  0
 19 20  2  0
 20 21  1  0
 22 21  2  0
 23 22  1  0
 24 19  1  0
 24 23  2  0
 25 27  1  0
 25 17  1  0
 26 25  2  0
M  END
$$$$
