ECF.pdb
     RDKit          3D

 27 27  0  0  1  0  0  0  0  0999 V2000
   27.0429  -18.7616  -15.7677 N   0  0  0  0  0  0  0  0  0  0  0  0
   26.9879  -18.4318  -14.3428 C   0  0  1  0  0  0  0  0  0  0  0  0
   25.6399  -17.8332  -14.0950 C   0  0  0  0  0  0  0  0  0  0  0  0
   24.5294  -18.4285  -14.9215 C   0  0  0  0  0  0  0  0  0  0  0  0
   23.5231  -19.0905  -14.0659 C   0  0  0  0  0  0  0  0  0  0  0  0
   23.0329  -18.5295  -13.0570 O   0  0  0  0  0  0  0  0  0  0  0  0
   27.1002  -19.7276  -13.6059 C   0  0  0  0  0  0  0  0  0  0  0  0
   26.5969  -20.7680  -14.0813 O   0  0  0  0  0  0  0  0  0  0  0  0
   23.1015  -20.3691  -14.3786 O   0  0  0  0  0  0  0  0  0  0  0  0
   27.7641  -19.8429  -12.3663 N   0  0  0  0  0  0  0  0  0  0  0  0
   27.9033  -21.1020  -11.7310 C   0  0  1  0  0  0  0  0  0  0  0  0
   29.2955  -21.6767  -11.7824 C   0  0  0  0  0  0  0  0  0  0  0  0
   30.5332  -20.5877  -11.0623 S   0  0  0  0  0  0  0  0  0  0  0  0
   27.4994  -21.1137  -10.3028 C   0  0  0  0  0  0  0  0  0  0  0  0
   28.4326  -21.0679   -9.4562 O   0  0  0  0  0  0  0  0  0  0  0  0
   26.1503  -21.1714   -9.8819 N   0  0  0  0  0  0  0  0  0  0  0  0
   25.8783  -21.0131   -8.4572 C   0  0  1  0  0  0  0  0  0  0  0  0
   26.5311  -19.7207   -8.0275 C   0  0  0  0  0  0  0  0  0  0  0  0
   27.2790  -19.8880   -6.7534 C   0  0  0  0  0  0  0  0  0  0  0  0
   27.3321  -21.0891   -6.0815 C   0  0  0  0  0  0  0  0  0  0  0  0
   28.0255  -21.2281   -4.9127 C   0  0  0  0  0  0  0  0  0  0  0  0
   28.6956  -20.1316   -4.3854 C   0  0  0  0  0  0  0  0  0  0  0  0
   28.6527  -18.9310   -5.0406 C   0  0  0  0  0  0  0  0  0  0  0  0
   27.9509  -18.8096   -6.2140 C   0  0  0  0  0  0  0  0  0  0  0  0
   24.4354  -21.0744   -8.1751 C   0  0  0  0  0  0  0  0  0  0  0  0
   23.5839  -20.7631   -9.0419 O   0  0  0  0  0  0  0  0  0  0  0  0
   23.9683  -21.4880   -6.9140 O   0  0  0  0  0  0  0  0  0  0  0  0
  2  1  1  6
  3  2  1  0
  4  3  1  0
  5  4  1  0
  5  6  2  0
  7  2  1  0
  7  8  2  0
  9  5  1  0
 10  7  1  0
 11 10  1  0
 11 12  1  1
 12 13  1  0
 14 11  1  0
 15 14  2  0
 16 14  1  0
 17 16  1  0
 17 18  1  6
 18 19  1  0
 19 20  2  0
 20 21  1  0
 22 21  2  0
 23 22  1  0
 24 19  1  0
 24 23  2  0
 25 27  1  0
 25 17  1  0
 26 25  2  0
M  END
$$$$
