ECF.pdb
     RDKit          3D

 27 27  0  0  1  0  0  0  0  0999 V2000
   21.7169  -21.6567  -14.2921 N   0  0  0  0  0  0  0  0  0  0  0  0
   22.5387  -20.5258  -13.8588 C   0  0  1  0  0  0  0  0  0  0  0  0
   21.6095  -19.5426  -13.2208 C   0  0  0  0  0  0  0  0  0  0  0  0
   20.1469  -19.8628  -13.3908 C   0  0  0  0  0  0  0  0  0  0  0  0
   19.6426  -20.6711  -12.2616 C   0  0  0  0  0  0  0  0  0  0  0  0
   19.7575  -20.2970  -11.0700 O   0  0  0  0  0  0  0  0  0  0  0  0
   23.4814  -21.0603  -12.8290 C   0  0  0  0  0  0  0  0  0  0  0  0
   23.0970  -21.9234  -12.0110 O   0  0  0  0  0  0  0  0  0  0  0  0
   19.0227  -21.8801  -12.5154 O   0  0  0  0  0  0  0  0  0  0  0  0
   24.8215  -20.6307  -12.7283 N   0  0  0  0  0  0  0  0  0  0  0  0
   25.7221  -21.2637  -11.8358 C   0  0  1  0  0  0  0  0  0  0  0  0
   27.1481  -21.3160  -12.3207 C   0  0  0  0  0  0  0  0  0  0  0  0
   27.3167  -22.1088  -13.9266 S   0  0  0  0  0  0  0  0  0  0  0  0
   25.7641  -20.6606  -10.4802 C   0  0  0  0  0  0  0  0  0  0  0  0
   25.3770  -19.4643  -10.3871 O   0  0  0  0  0  0  0  0  0  0  0  0
   26.2076  -21.3630   -9.3355 N   0  0  0  0  0  0  0  0  0  0  0  0
   26.4848  -20.5879   -8.1309 C   0  0  1  0  0  0  0  0  0  0  0  0
   27.2677  -21.4858   -7.2025 C   0  0  0  0  0  0  0  0  0  0  0  0
   27.6932  -20.7600   -5.9766 C   0  0  0  0  0  0  0  0  0  0  0  0
   28.8415  -20.0010   -5.9300 C   0  0  0  0  0  0  0  0  0  0  0  0
   29.2185  -19.3378   -4.7967 C   0  0  0  0  0  0  0  0  0  0  0  0
   28.4253  -19.4291   -3.6601 C   0  0  0  0  0  0  0  0  0  0  0  0
   27.2812  -20.1792   -3.6898 C   0  0  0  0  0  0  0  0  0  0  0  0
   26.9178  -20.8391   -4.8374 C   0  0  0  0  0  0  0  0  0  0  0  0
   27.1651  -19.3227   -8.4502 C   0  0  0  0  0  0  0  0  0  0  0  0
   26.8324  -18.2434   -7.9047 O   0  0  0  0  0  0  0  0  0  0  0  0
   28.2169  -19.2901   -9.3841 O   0  0  0  0  0  0  0  0  0  0  0  0
  2  1  1  1
  3  2  1  0
  4  3  1  0
  5  4  1  0
  5  6  2  0
  7  2  1  0
  7  8  2  0
  9  5  1  0
 10  7  1  0
 11 10  1  0
 11 12  1  6
 12 13  1  0
 14 11  1  0
 15 14  2  0
 16 14  1  0
 17 16  1  0
 17 18  1  1
 18 19  1  0
 19 20  2  0
 20 21  1  0
 22 21  2  0
 23 22  1  0
 24 19  1  0
 24 23  2  0
 25 27  1  0
 25 17  1  0
 26 25  2  0
M  END
$$$$
