WIK.pdb
     RDKit          3D

 32 33  0  0  1  0  0  0  0  0999 V2000
    6.5225  -16.8152   25.5589 N   0  0  0  0  0  0  0  0  0  0  0  0
    7.2015  -15.7940   24.8103 C   0  0  1  0  0  0  0  0  0  0  0  0
    8.3980  -15.2280   25.5266 C   0  0  0  0  0  0  0  0  0  0  0  0
    7.9947  -14.3737   26.6554 C   0  0  0  0  0  0  0  0  0  0  0  0
    8.2182  -14.6606   27.9996 C   0  0  0  0  0  0  0  0  0  0  0  0
    7.7505  -13.6676   28.7577 N   0  0  0  0  0  0  0  0  0  0  0  0
    7.2197  -12.7256   27.9463 C   0  0  0  0  0  0  0  0  0  0  0  0
    6.6011  -11.5130   28.1825 C   0  0  0  0  0  0  0  0  0  0  0  0
    6.1499  -10.7705   27.1263 C   0  0  0  0  0  0  0  0  0  0  0  0
    6.2853  -11.1804   25.8241 C   0  0  0  0  0  0  0  0  0  0  0  0
    6.9047  -12.3935   25.5890 C   0  0  0  0  0  0  0  0  0  0  0  0
    7.3684  -13.1604   26.6277 C   0  0  0  0  0  0  0  0  0  0  0  0
    7.5776  -16.3653   23.4887 C   0  0  0  0  0  0  0  0  0  0  0  0
    7.6571  -17.5945   23.2690 O   0  0  0  0  0  0  0  0  0  0  0  0
    8.5471  -12.3157   19.7218 C   0  0  0  0  0  0  0  0  0  0  0  0
    8.8116  -13.5255   20.6090 C   0  0  0  0  0  0  0  0  0  0  0  0
    8.0421  -14.7246   20.1594 C   0  0  2  0  0  0  0  0  0  0  0  0
    6.5445  -14.4510   20.1493 C   0  0  0  0  0  0  0  0  0  0  0  0
    8.2647  -15.8537   21.1300 C   0  0  2  0  0  0  0  0  0  0  0  0
    7.8546  -15.4129   22.4471 N   0  0  0  0  0  0  0  0  0  0  0  0
    9.7068  -16.2376   21.2386 C   0  0  0  0  0  0  0  0  0  0  0  0
   10.4713  -15.7147   22.1041 O   0  0  0  0  0  0  0  0  0  0  0  0
   10.2788  -17.2086   20.3715 N   0  0  0  0  0  0  0  0  0  0  0  0
   11.6805  -17.6018   20.5774 C   0  0  1  0  0  0  0  0  0  0  0  0
   11.8361  -19.0421   20.1300 C   0  0  0  0  0  0  0  0  0  0  0  0
   11.0116  -20.0108   20.9058 C   0  0  0  0  0  0  0  0  0  0  0  0
   11.2011  -21.3758   20.2470 C   0  0  0  0  0  0  0  0  0  0  0  0
   10.3586  -22.4254   20.9385 C   0  0  0  0  0  0  0  0  0  0  0  0
   10.6141  -23.7064   20.3223 N   0  0  0  0  0  0  0  0  0  0  0  0
   12.5584  -16.6637   19.8625 C   0  0  0  0  0  0  0  0  0  0  0  0
   12.0849  -15.9812   18.9108 O   0  0  0  0  0  0  0  0  0  0  0  0
   13.8932  -16.4613   20.1533 O   0  0  0  0  0  0  0  0  0  0  0  0
  2  1  1  1
  2  3  1  0
  2 13  1  0
  3  4  1  0
  4  5  2  0
  5  6  1  0
  7  6  1  0
  8  7  2  0
  9  8  1  0
 10 11  1  0
 10  9  2  0
 11 12  2  0
 12  4  1  0
 12  7  1  0
 13 14  2  0
 13 20  1  0
 16 15  1  0
 17 19  1  0
 17 16  1  0
 17 18  1  1
 19 21  1  0
 19 20  1  1
 21 22  2  0
 23 21  1  0
 23 24  1  0
 24 25  1  6
 24 30  1  0
 26 27  1  0
 26 25  1  0
 27 28  1  0
 29 28  1  0
 30 32  1  0
 31 30  2  0
M  END
$$$$
