WIK.pdb
     RDKit          3D

 32 33  0  0  1  0  0  0  0  0999 V2000
    6.3848  -16.8436   25.8602 N   0  0  0  0  0  0  0  0  0  0  0  0
    7.2246  -15.9047   25.1693 C   0  0  1  0  0  0  0  0  0  0  0  0
    8.4772  -15.5572   25.9278 C   0  0  0  0  0  0  0  0  0  0  0  0
    8.2254  -14.5101   26.9312 C   0  0  0  0  0  0  0  0  0  0  0  0
    8.7530  -14.4893   28.2198 C   0  0  0  0  0  0  0  0  0  0  0  0
    8.3466  -13.3901   28.8570 N   0  0  0  0  0  0  0  0  0  0  0  0
    7.5589  -12.6788   28.0198 C   0  0  0  0  0  0  0  0  0  0  0  0
    6.8733  -11.4863   28.1503 C   0  0  0  0  0  0  0  0  0  0  0  0
    6.1341  -11.0165   27.0999 C   0  0  0  0  0  0  0  0  0  0  0  0
    6.0405  -11.6845   25.9053 C   0  0  0  0  0  0  0  0  0  0  0  0
    6.7272  -12.8772   25.7758 C   0  0  0  0  0  0  0  0  0  0  0  0
    7.4776  -13.3738   26.8113 C   0  0  0  0  0  0  0  0  0  0  0  0
    7.5383  -16.4679   23.8281 C   0  0  0  0  0  0  0  0  0  0  0  0
    7.4441  -17.6852   23.5549 O   0  0  0  0  0  0  0  0  0  0  0  0
    8.8237  -12.4917   19.9708 C   0  0  0  0  0  0  0  0  0  0  0  0
    8.9488  -13.6647   20.9346 C   0  0  0  0  0  0  0  0  0  0  0  0
    8.0556  -14.7990   20.5502 C   0  0  2  0  0  0  0  0  0  0  0  0
    6.5875  -14.4183   20.6819 C   0  0  0  0  0  0  0  0  0  0  0  0
    8.2842  -15.9546   21.4877 C   0  0  2  0  0  0  0  0  0  0  0  0
    7.9680  -15.5222   22.8331 N   0  0  0  0  0  0  0  0  0  0  0  0
    9.7124  -16.4000   21.5075 C   0  0  0  0  0  0  0  0  0  0  0  0
   10.5169  -16.0162   22.4089 O   0  0  0  0  0  0  0  0  0  0  0  0
   10.2258  -17.2756   20.5117 N   0  0  0  0  0  0  0  0  0  0  0  0
   11.5490  -17.8825   20.7181 C   0  0  1  0  0  0  0  0  0  0  0  0
   11.6675  -19.0790   19.7943 C   0  0  0  0  0  0  0  0  0  0  0  0
   12.9765  -19.7853   19.8815 C   0  0  0  0  0  0  0  0  0  0  0  0
   12.9469  -20.8966   18.8339 C   0  0  0  0  0  0  0  0  0  0  0  0
   14.2340  -21.6919   18.8606 C   0  0  0  0  0  0  0  0  0  0  0  0
   14.1641  -22.7230   17.8518 N   0  0  0  0  0  0  0  0  0  0  0  0
   12.5889  -16.8656   20.5028 C   0  0  0  0  0  0  0  0  0  0  0  0
   13.7005  -16.9880   21.0903 O   0  0  0  0  0  0  0  0  0  0  0  0
   12.4473  -15.7584   19.6895 O   0  0  0  0  0  0  0  0  0  0  0  0
  2  1  1  1
  2  3  1  0
  2 13  1  0
  3  4  1  0
  4  5  2  0
  5  6  1  0
  7  6  1  0
  8  7  2  0
  9  8  1  0
 10 11  1  0
 10  9  2  0
 11 12  2  0
 12  4  1  0
 12  7  1  0
 13 14  2  0
 13 20  1  0
 16 15  1  0
 17 19  1  0
 17 16  1  0
 17 18  1  1
 19 21  1  0
 19 20  1  1
 21 22  2  0
 23 21  1  0
 23 24  1  0
 24 25  1  6
 24 30  1  0
 26 27  1  0
 26 25  1  0
 27 28  1  0
 29 28  1  0
 30 32  1  0
 31 30  2  0
M  END
$$$$
