WIK.pdb
     RDKit          3D

 32 33  0  0  1  0  0  0  0  0999 V2000
    6.2906  -18.3419   24.9461 N   0  0  0  0  0  0  0  0  0  0  0  0
    6.7386  -16.9949   24.7245 C   0  0  1  0  0  0  0  0  0  0  0  0
    7.3579  -16.3661   25.9436 C   0  0  0  0  0  0  0  0  0  0  0  0
    6.6202  -15.1631   26.3619 C   0  0  0  0  0  0  0  0  0  0  0  0
    5.2457  -15.0978   26.5757 C   0  0  0  0  0  0  0  0  0  0  0  0
    4.9073  -13.8693   26.9704 N   0  0  0  0  0  0  0  0  0  0  0  0
    6.0278  -13.1150   27.0234 C   0  0  0  0  0  0  0  0  0  0  0  0
    6.2647  -11.7946   27.3543 C   0  0  0  0  0  0  0  0  0  0  0  0
    7.5411  -11.3060   27.3017 C   0  0  0  0  0  0  0  0  0  0  0  0
    8.6126  -12.0779   26.9299 C   0  0  0  0  0  0  0  0  0  0  0  0
    8.3744  -13.3988   26.5995 C   0  0  0  0  0  0  0  0  0  0  0  0
    7.1053  -13.9179   26.6434 C   0  0  0  0  0  0  0  0  0  0  0  0
    7.6861  -17.0078   23.5771 C   0  0  0  0  0  0  0  0  0  0  0  0
    8.2721  -18.0402   23.1817 O   0  0  0  0  0  0  0  0  0  0  0  0
    7.1569  -12.4709   20.3902 C   0  0  0  0  0  0  0  0  0  0  0  0
    7.3066  -13.9209   20.8325 C   0  0  0  0  0  0  0  0  0  0  0  0
    8.7072  -14.2349   21.2471 C   0  0  2  0  0  0  0  0  0  0  0  0
    9.6639  -14.1683   20.0647 C   0  0  0  0  0  0  0  0  0  0  0  0
    8.7692  -15.6456   21.7694 C   0  0  2  0  0  0  0  0  0  0  0  0
    7.9043  -15.7437   22.9267 N   0  0  0  0  0  0  0  0  0  0  0  0
   10.1417  -16.0244   22.2293 C   0  0  0  0  0  0  0  0  0  0  0  0
   10.7295  -15.3946   23.1592 O   0  0  0  0  0  0  0  0  0  0  0  0
   10.8437  -17.1110   21.6389 N   0  0  0  0  0  0  0  0  0  0  0  0
   12.1721  -17.4621   22.1621 C   0  0  1  0  0  0  0  0  0  0  0  0
   12.4476  -18.9117   21.8131 C   0  0  0  0  0  0  0  0  0  0  0  0
   11.5927  -19.8856   22.5483 C   0  0  0  0  0  0  0  0  0  0  0  0
   12.0574  -21.2799   22.1326 C   0  0  0  0  0  0  0  0  0  0  0  0
   11.1909  -22.3449   22.7686 C   0  0  0  0  0  0  0  0  0  0  0  0
   11.6564  -23.6420   22.3367 N   0  0  0  0  0  0  0  0  0  0  0  0
   13.1695  -16.5257   21.6233 C   0  0  0  0  0  0  0  0  0  0  0  0
   14.2570  -16.3603   22.2443 O   0  0  0  0  0  0  0  0  0  0  0  0
   13.0117  -15.7930   20.4634 O   0  0  0  0  0  0  0  0  0  0  0  0
  2  1  1  1
  2  3  1  0
  2 13  1  0
  3  4  1  0
  4  5  2  0
  5  6  1  0
  7  6  1  0
  8  7  2  0
  9  8  1  0
 10 11  1  0
 10  9  2  0
 11 12  2  0
 12  4  1  0
 12  7  1  0
 13 14  2  0
 13 20  1  0
 16 15  1  0
 17 19  1  0
 17 16  1  0
 17 18  1  6
 19 21  1  0
 19 20  1  1
 21 22  2  0
 23 21  1  0
 23 24  1  0
 24 25  1  6
 24 30  1  0
 26 27  1  0
 26 25  1  0
 27 28  1  0
 29 28  1  0
 30 32  1  0
 31 30  2  0
M  END
$$$$
