WIK.pdb
     RDKit          3D

 32 33  0  0  1  0  0  0  0  0999 V2000
    6.6345  -18.9852   27.0439 N   0  0  0  0  0  0  0  0  0  0  0  0
    7.6067  -17.9306   26.9610 C   0  0  1  0  0  0  0  0  0  0  0  0
    9.0119  -18.3944   27.2351 C   0  0  0  0  0  0  0  0  0  0  0  0
    9.5765  -17.7288   28.4204 C   0  0  0  0  0  0  0  0  0  0  0  0
    9.9286  -18.3659   29.6076 C   0  0  0  0  0  0  0  0  0  0  0  0
   10.4319  -17.4771   30.4656 N   0  0  0  0  0  0  0  0  0  0  0  0
   10.4217  -16.2613   29.8748 C   0  0  0  0  0  0  0  0  0  0  0  0
   10.8107  -15.0030   30.2925 C   0  0  0  0  0  0  0  0  0  0  0  0
   10.6634  -13.9378   29.4474 C   0  0  0  0  0  0  0  0  0  0  0  0
   10.1395  -14.0630   28.1857 C   0  0  0  0  0  0  0  0  0  0  0  0
    9.7511  -15.3224   27.7687 C   0  0  0  0  0  0  0  0  0  0  0  0
    9.8871  -16.4103   28.5934 C   0  0  0  0  0  0  0  0  0  0  0  0
    7.4923  -17.3037   25.6162 C   0  0  0  0  0  0  0  0  0  0  0  0
    7.1563  -17.9357   24.5900 O   0  0  0  0  0  0  0  0  0  0  0  0
    6.5752  -12.3337   26.2765 C   0  0  0  0  0  0  0  0  0  0  0  0
    6.4224  -13.4371   25.2375 C   0  0  0  0  0  0  0  0  0  0  0  0
    7.7113  -13.7274   24.5397 C   0  0  2  0  0  0  0  0  0  0  0  0
    7.7741  -13.0410   23.1823 C   0  0  0  0  0  0  0  0  0  0  0  0
    7.8152  -15.2062   24.2772 C   0  0  2  0  0  0  0  0  0  0  0  0
    7.7956  -15.8994   25.5485 N   0  0  0  0  0  0  0  0  0  0  0  0
    9.1007  -15.5785   23.6082 C   0  0  0  0  0  0  0  0  0  0  0  0
   10.2245  -15.3100   24.1298 O   0  0  0  0  0  0  0  0  0  0  0  0
    9.1125  -16.2515   22.3557 N   0  0  0  0  0  0  0  0  0  0  0  0
   10.4069  -16.6163   21.7614 C   0  0  1  0  0  0  0  0  0  0  0  0
   10.2318  -17.9272   21.0199 C   0  0  0  0  0  0  0  0  0  0  0  0
    9.8570  -19.0736   21.8946 C   0  0  0  0  0  0  0  0  0  0  0  0
    9.7796  -20.3058   20.9954 C   0  0  0  0  0  0  0  0  0  0  0  0
    9.4866  -21.5463   21.8110 C   0  0  0  0  0  0  0  0  0  0  0  0
    9.3691  -22.6738   20.9162 N   0  0  0  0  0  0  0  0  0  0  0  0
   10.8780  -15.5147   20.9091 C   0  0  0  0  0  0  0  0  0  0  0  0
   10.0303  -14.7695   20.3419 O   0  0  0  0  0  0  0  0  0  0  0  0
   12.2059  -15.2191   20.6716 O   0  0  0  0  0  0  0  0  0  0  0  0
  2  1  1  6
  2  3  1  0
  2 13  1  0
  3  4  1  0
  4  5  2  0
  5  6  1  0
  7  6  1  0
  8  7  2  0
  9  8  1  0
 10 11  1  0
 10  9  2  0
 11 12  2  0
 12  4  1  0
 12  7  1  0
 13 14  2  0
 13 20  1  0
 16 15  1  0
 17 19  1  0
 17 16  1  0
 17 18  1  6
 19 21  1  0
 19 20  1  1
 21 22  2  0
 23 21  1  0
 23 24  1  0
 24 25  1  6
 24 30  1  0
 26 27  1  0
 26 25  1  0
 27 28  1  0
 29 28  1  0
 30 32  1  0
 31 30  2  0
M  END
$$$$
