WIK.pdb
     RDKit          3D

 32 33  0  0  1  0  0  0  0  0999 V2000
    5.9846  -18.9468   26.6567 N   0  0  0  0  0  0  0  0  0  0  0  0
    6.9674  -17.9099   26.8089 C   0  0  1  0  0  0  0  0  0  0  0  0
    8.3564  -18.4378   27.0483 C   0  0  0  0  0  0  0  0  0  0  0  0
    9.0200  -17.7246   28.1518 C   0  0  0  0  0  0  0  0  0  0  0  0
    9.3409  -18.2790   29.3883 C   0  0  0  0  0  0  0  0  0  0  0  0
    9.9565  -17.3696   30.1455 N   0  0  0  0  0  0  0  0  0  0  0  0
   10.0517  -16.2209   29.4393 C   0  0  0  0  0  0  0  0  0  0  0  0
   10.5779  -14.9757   29.7246 C   0  0  0  0  0  0  0  0  0  0  0  0
   10.5141  -13.9860   28.7828 C   0  0  0  0  0  0  0  0  0  0  0  0
    9.9432  -14.1756   27.5498 C   0  0  0  0  0  0  0  0  0  0  0  0
    9.4175  -15.4219   27.2653 C   0  0  0  0  0  0  0  0  0  0  0  0
    9.4671  -16.4348   28.1892 C   0  0  0  0  0  0  0  0  0  0  0  0
    6.9144  -17.0444   25.5995 C   0  0  0  0  0  0  0  0  0  0  0  0
    6.6158  -17.4711   24.4619 O   0  0  0  0  0  0  0  0  0  0  0  0
    5.9701  -11.7347   26.6670 C   0  0  0  0  0  0  0  0  0  0  0  0
    5.9657  -13.0722   25.9378 C   0  0  0  0  0  0  0  0  0  0  0  0
    7.2600  -13.3287   25.2370 C   0  0  2  0  0  0  0  0  0  0  0  0
    7.4391  -12.3991   24.0447 C   0  0  0  0  0  0  0  0  0  0  0  0
    7.2627  -14.7315   24.6905 C   0  0  2  0  0  0  0  0  0  0  0  0
    7.2326  -15.6567   25.8042 N   0  0  0  0  0  0  0  0  0  0  0  0
    8.5039  -15.0394   23.9137 C   0  0  0  0  0  0  0  0  0  0  0  0
    9.4465  -15.7264   24.4102 O   0  0  0  0  0  0  0  0  0  0  0  0
    8.6755  -14.5718   22.5819 N   0  0  0  0  0  0  0  0  0  0  0  0
    9.7206  -15.1826   21.7473 C   0  0  1  0  0  0  0  0  0  0  0  0
    9.6103  -14.5987   20.3524 C   0  0  0  0  0  0  0  0  0  0  0  0
    8.2426  -14.6802   19.7671 C   0  0  0  0  0  0  0  0  0  0  0  0
    8.3310  -14.0932   18.3597 C   0  0  0  0  0  0  0  0  0  0  0  0
    6.9744  -14.1028   17.6894 C   0  0  0  0  0  0  0  0  0  0  0  0
    7.1040  -13.5301   16.3699 N   0  0  0  0  0  0  0  0  0  0  0  0
   11.0322  -14.9662   22.3756 C   0  0  0  0  0  0  0  0  0  0  0  0
   12.0585  -15.4837   21.8516 O   0  0  0  0  0  0  0  0  0  0  0  0
   11.2405  -14.2239   23.5213 O   0  0  0  0  0  0  0  0  0  0  0  0
  2  1  1  6
  2  3  1  0
  2 13  1  0
  3  4  1  0
  4  5  2  0
  5  6  1  0
  7  6  1  0
  8  7  2  0
  9  8  1  0
 10 11  1  0
 10  9  2  0
 11 12  2  0
 12  4  1  0
 12  7  1  0
 13 14  2  0
 13 20  1  0
 16 15  1  0
 17 19  1  0
 17 16  1  0
 17 18  1  6
 19 21  1  0
 19 20  1  1
 21 22  2  0
 23 21  1  0
 23 24  1  0
 24 25  1  6
 24 30  1  0
 26 27  1  0
 26 25  1  0
 27 28  1  0
 29 28  1  0
 30 32  1  0
 31 30  2  0
M  END
$$$$
