WIK.pdb
     RDKit          3D

 32 33  0  0  1  0  0  0  0  0999 V2000
    6.5717  -17.1703   25.6680 N   0  0  0  0  0  0  0  0  0  0  0  0
    7.2167  -16.0883   24.9771 C   0  0  1  0  0  0  0  0  0  0  0  0
    8.4187  -15.5501   25.7057 C   0  0  0  0  0  0  0  0  0  0  0  0
    8.0302  -14.5729   26.7356 C   0  0  0  0  0  0  0  0  0  0  0  0
    8.3668  -14.6513   28.0847 C   0  0  0  0  0  0  0  0  0  0  0  0
    7.8784  -13.5938   28.7347 N   0  0  0  0  0  0  0  0  0  0  0  0
    7.2231  -12.8130   27.8468 C   0  0  0  0  0  0  0  0  0  0  0  0
    6.5320  -11.6224   27.9634 C   0  0  0  0  0  0  0  0  0  0  0  0
    5.9542  -11.0680   26.8546 C   0  0  0  0  0  0  0  0  0  0  0  0
    6.0304  -11.6484   25.6138 C   0  0  0  0  0  0  0  0  0  0  0  0
    6.7225  -12.8394   25.4983 C   0  0  0  0  0  0  0  0  0  0  0  0
    7.3133  -13.4195   26.5921 C   0  0  0  0  0  0  0  0  0  0  0  0
    7.5738  -16.5616   23.6122 C   0  0  0  0  0  0  0  0  0  0  0  0
    7.7737  -17.7646   23.3325 O   0  0  0  0  0  0  0  0  0  0  0  0
    8.4471  -12.2881   19.9740 C   0  0  0  0  0  0  0  0  0  0  0  0
    8.6668  -13.5129   20.8527 C   0  0  0  0  0  0  0  0  0  0  0  0
    7.8846  -14.6913   20.3712 C   0  0  2  0  0  0  0  0  0  0  0  0
    6.3867  -14.4269   20.4363 C   0  0  0  0  0  0  0  0  0  0  0  0
    8.1512  -15.8690   21.2704 C   0  0  2  0  0  0  0  0  0  0  0  0
    7.6829  -15.5438   22.6017 N   0  0  0  0  0  0  0  0  0  0  0  0
    9.6108  -16.1739   21.3944 C   0  0  0  0  0  0  0  0  0  0  0  0
   10.4034  -15.3967   22.0064 O   0  0  0  0  0  0  0  0  0  0  0  0
   10.1686  -17.3530   20.8282 N   0  0  0  0  0  0  0  0  0  0  0  0
   11.6139  -17.5864   20.9630 C   0  0  1  0  0  0  0  0  0  0  0  0
   11.8155  -18.9815   21.5217 C   0  0  0  0  0  0  0  0  0  0  0  0
   11.3470  -19.1459   22.9264 C   0  0  0  0  0  0  0  0  0  0  0  0
   11.5282  -20.6207   23.2805 C   0  0  0  0  0  0  0  0  0  0  0  0
   11.2363  -20.8592   24.7460 C   0  0  0  0  0  0  0  0  0  0  0  0
   11.3022  -22.2780   25.0080 N   0  0  0  0  0  0  0  0  0  0  0  0
   12.2641  -17.3723   19.6618 C   0  0  0  0  0  0  0  0  0  0  0  0
   11.5502  -17.2919   18.6228 O   0  0  0  0  0  0  0  0  0  0  0  0
   13.6270  -17.2479   19.4767 O   0  0  0  0  0  0  0  0  0  0  0  0
  2  1  1  1
  2  3  1  0
  2 13  1  0
  3  4  1  0
  4  5  2  0
  5  6  1  0
  7  6  1  0
  8  7  2  0
  9  8  1  0
 10 11  1  0
 10  9  2  0
 11 12  2  0
 12  4  1  0
 12  7  1  0
 13 14  2  0
 13 20  1  0
 16 15  1  0
 17 19  1  0
 17 16  1  0
 17 18  1  1
 19 21  1  0
 19 20  1  1
 21 22  2  0
 23 21  1  0
 23 24  1  0
 24 25  1  6
 24 30  1  0
 26 27  1  0
 26 25  1  0
 27 28  1  0
 29 28  1  0
 30 32  1  0
 31 30  2  0
M  END
$$$$
