WIK.pdb
     RDKit          3D

 32 33  0  0  1  0  0  0  0  0999 V2000
    6.0418  -18.3486   24.7646 N   0  0  0  0  0  0  0  0  0  0  0  0
    6.5590  -17.0116   24.6699 C   0  0  1  0  0  0  0  0  0  0  0  0
    7.0851  -16.4836   25.9774 C   0  0  0  0  0  0  0  0  0  0  0  0
    6.4455  -15.2080   26.3387 C   0  0  0  0  0  0  0  0  0  0  0  0
    5.0807  -15.0242   26.5453 C   0  0  0  0  0  0  0  0  0  0  0  0
    4.8413  -13.7561   26.8831 N   0  0  0  0  0  0  0  0  0  0  0  0
    6.0183  -13.0914   26.9051 C   0  0  0  0  0  0  0  0  0  0  0  0
    6.3596  -11.7804   27.1765 C   0  0  0  0  0  0  0  0  0  0  0  0
    7.6707  -11.3976   27.1055 C   0  0  0  0  0  0  0  0  0  0  0  0
    8.6772  -12.2682   26.7722 C   0  0  0  0  0  0  0  0  0  0  0  0
    8.3346  -13.5797   26.5012 C   0  0  0  0  0  0  0  0  0  0  0  0
    7.0283  -13.9938   26.5649 C   0  0  0  0  0  0  0  0  0  0  0  0
    7.6085  -16.9976   23.6149 C   0  0  0  0  0  0  0  0  0  0  0  0
    8.2447  -18.0167   23.2652 O   0  0  0  0  0  0  0  0  0  0  0  0
    7.1940  -12.4800   20.3983 C   0  0  0  0  0  0  0  0  0  0  0  0
    7.3582  -13.9299   20.8359 C   0  0  0  0  0  0  0  0  0  0  0  0
    8.7296  -14.2005   21.3635 C   0  0  2  0  0  0  0  0  0  0  0  0
    9.7766  -14.1046   20.2625 C   0  0  0  0  0  0  0  0  0  0  0  0
    8.7924  -15.6085   21.8929 C   0  0  2  0  0  0  0  0  0  0  0  0
    7.8657  -15.7232   22.9997 N   0  0  0  0  0  0  0  0  0  0  0  0
   10.1445  -15.9566   22.4308 C   0  0  0  0  0  0  0  0  0  0  0  0
   10.6963  -15.2677   23.3408 O   0  0  0  0  0  0  0  0  0  0  0  0
   10.8668  -17.0790   21.9406 N   0  0  0  0  0  0  0  0  0  0  0  0
   12.1966  -17.3631   22.4998 C   0  0  1  0  0  0  0  0  0  0  0  0
   12.4438  -18.8551   22.3920 C   0  0  0  0  0  0  0  0  0  0  0  0
   11.5865  -19.6785   23.2904 C   0  0  0  0  0  0  0  0  0  0  0  0
   11.8716  -21.1403   22.9516 C   0  0  0  0  0  0  0  0  0  0  0  0
   10.9538  -22.0588   23.7286 C   0  0  0  0  0  0  0  0  0  0  0  0
   11.1714  -23.4162   23.2862 N   0  0  0  0  0  0  0  0  0  0  0  0
   13.2013  -16.5466   21.8029 C   0  0  0  0  0  0  0  0  0  0  0  0
   12.9660  -16.1535   20.6257 O   0  0  0  0  0  0  0  0  0  0  0  0
   14.4130  -16.1633   22.3434 O   0  0  0  0  0  0  0  0  0  0  0  0
  2  1  1  1
  2  3  1  0
  2 13  1  0
  3  4  1  0
  4  5  2  0
  5  6  1  0
  7  6  1  0
  8  7  2  0
  9  8  1  0
 10 11  1  0
 10  9  2  0
 11 12  2  0
 12  4  1  0
 12  7  1  0
 13 14  2  0
 13 20  1  0
 16 15  1  0
 17 19  1  0
 17 16  1  0
 17 18  1  6
 19 21  1  0
 19 20  1  1
 21 22  2  0
 23 21  1  0
 23 24  1  0
 24 25  1  6
 24 30  1  0
 26 27  1  0
 26 25  1  0
 27 28  1  0
 29 28  1  0
 30 32  1  0
 31 30  2  0
M  END
$$$$
