WIK.pdb
     RDKit          3D

 32 33  0  0  1  0  0  0  0  0999 V2000
    6.4266  -17.5684   25.3797 N   0  0  0  0  0  0  0  0  0  0  0  0
    6.8974  -16.3246   24.8359 C   0  0  1  0  0  0  0  0  0  0  0  0
    8.2579  -15.9305   25.3445 C   0  0  0  0  0  0  0  0  0  0  0  0
    8.1584  -15.0183   26.4955 C   0  0  0  0  0  0  0  0  0  0  0  0
    8.5723  -15.3131   27.7920 C   0  0  0  0  0  0  0  0  0  0  0  0
    8.3631  -14.2603   28.5839 N   0  0  0  0  0  0  0  0  0  0  0  0
    7.8181  -13.2705   27.8418 C   0  0  0  0  0  0  0  0  0  0  0  0
    7.3984  -11.9877   28.1374 C   0  0  0  0  0  0  0  0  0  0  0  0
    6.8655  -11.2089   27.1475 C   0  0  0  0  0  0  0  0  0  0  0  0
    6.7264  -11.6492   25.8556 C   0  0  0  0  0  0  0  0  0  0  0  0
    7.1471  -12.9325   25.5610 C   0  0  0  0  0  0  0  0  0  0  0  0
    7.6862  -13.7374   26.5323 C   0  0  0  0  0  0  0  0  0  0  0  0
    6.8815  -16.4356   23.3520 C   0  0  0  0  0  0  0  0  0  0  0  0
    6.5367  -17.4735   22.7444 O   0  0  0  0  0  0  0  0  0  0  0  0
    7.7389  -12.3833   18.6941 C   0  0  0  0  0  0  0  0  0  0  0  0
    7.5326  -13.7962   19.2248 C   0  0  0  0  0  0  0  0  0  0  0  0
    7.5107  -13.8323   20.7183 C   0  0  2  0  0  0  0  0  0  0  0  0
    8.8407  -13.3786   21.3039 C   0  0  0  0  0  0  0  0  0  0  0  0
    7.3003  -15.2496   21.1806 C   0  0  2  0  0  0  0  0  0  0  0  0
    7.2936  -15.2626   22.6287 N   0  0  0  0  0  0  0  0  0  0  0  0
    8.4069  -16.1606   20.7511 C   0  0  0  0  0  0  0  0  0  0  0  0
    8.3125  -16.8773   19.7098 O   0  0  0  0  0  0  0  0  0  0  0  0
    9.6133  -16.2584   21.4973 N   0  0  0  0  0  0  0  0  0  0  0  0
   10.7308  -17.0319   20.9363 C   0  0  1  0  0  0  0  0  0  0  0  0
   11.1206  -16.4036   19.6126 C   0  0  0  0  0  0  0  0  0  0  0  0
   10.4428  -17.0078   18.4313 C   0  0  0  0  0  0  0  0  0  0  0  0
   11.2834  -16.6447   17.2088 C   0  0  0  0  0  0  0  0  0  0  0  0
   10.7029  -17.2649   15.9565 C   0  0  0  0  0  0  0  0  0  0  0  0
   11.4374  -16.7770   14.8128 N   0  0  0  0  0  0  0  0  0  0  0  0
   11.8285  -17.0784   21.9134 C   0  0  0  0  0  0  0  0  0  0  0  0
   11.8345  -16.2556   22.8719 O   0  0  0  0  0  0  0  0  0  0  0  0
   12.8811  -17.9712   21.8690 O   0  0  0  0  0  0  0  0  0  0  0  0
  2  1  1  1
  2  3  1  0
  2 13  1  0
  3  4  1  0
  4  5  2  0
  5  6  1  0
  7  6  1  0
  8  7  2  0
  9  8  1  0
 10 11  1  0
 10  9  2  0
 11 12  2  0
 12  4  1  0
 12  7  1  0
 13 14  2  0
 13 20  1  0
 16 15  1  0
 17 19  1  0
 17 16  1  0
 17 18  1  1
 19 21  1  0
 19 20  1  1
 21 22  2  0
 23 21  1  0
 23 24  1  0
 24 25  1  6
 24 30  1  0
 26 27  1  0
 26 25  1  0
 27 28  1  0
 29 28  1  0
 30 32  1  0
 31 30  2  0
M  END
$$$$
