EKP.pdb
     RDKit          3D

 26 26  0  0  1  0  0  0  0  0999 V2000
    7.5704  -13.3438   19.3534 N   0  0  0  0  0  0  0  0  0  0  0  0
    8.4477  -14.2542   20.0128 C   0  0  1  0  0  0  0  0  0  0  0  0
    9.8468  -13.6273   20.0851 C   0  0  0  0  0  0  0  0  0  0  0  0
   10.8390  -14.5055   19.3533 C   0  0  0  0  0  0  0  0  0  0  0  0
   12.2298  -14.0615   19.5631 C   0  0  0  0  0  0  0  0  0  0  0  0
   12.9059  -13.6381   18.5907 O   0  0  0  0  0  0  0  0  0  0  0  0
    8.0121  -14.4468   21.4121 C   0  0  0  0  0  0  0  0  0  0  0  0
    7.5545  -13.4616   22.0388 O   0  0  0  0  0  0  0  0  0  0  0  0
   12.8511  -14.0851   20.8049 O   0  0  0  0  0  0  0  0  0  0  0  0
    8.0885  -15.6798   22.0663 N   0  0  0  0  0  0  0  0  0  0  0  0
    7.5139  -15.9287   23.4053 C   0  0  1  0  0  0  0  0  0  0  0  0
    7.5176  -17.4183   23.6315 C   0  0  0  0  0  0  0  0  0  0  0  0
    7.0252  -17.8055   24.9742 C   0  0  0  0  0  0  0  0  0  0  0  0
    7.2471  -19.3056   25.2432 C   0  0  0  0  0  0  0  0  0  0  0  0
    6.7991  -19.6900   26.6220 C   0  0  0  0  0  0  0  0  0  0  0  0
    5.4856  -20.3352   26.5244 N   0  0  0  0  0  0  0  0  0  0  0  0
    8.2896  -15.1445   24.3567 C   0  0  0  0  0  0  0  0  0  0  0  0
    9.5765  -15.2277   24.2619 O   0  0  0  0  0  0  0  0  0  0  0  0
    7.7740  -14.3020   25.3621 N   0  0  0  0  0  0  0  0  0  0  0  0
    6.3838  -13.9844   25.6021 C   0  0  0  0  0  0  0  0  0  0  0  0
    6.4532  -12.5118   26.0381 C   0  0  0  0  0  0  0  0  0  0  0  0
    7.6206  -12.5591   26.9745 C   0  0  0  0  0  0  0  0  0  0  0  0
    8.5629  -13.5375   26.3118 C   0  0  1  0  0  0  0  0  0  0  0  0
    9.1595  -14.3859   27.3509 C   0  0  0  0  0  0  0  0  0  0  0  0
   10.1430  -13.9458   28.2418 O   0  0  0  0  0  0  0  0  0  0  0  0
    8.7662  -15.5710   27.4458 O   0  0  0  0  0  0  0  0  0  0  0  0
  2  7  1  0
  2  1  1  6
  3  2  1  0
  4  5  1  0
  4  3  1  0
  5  6  2  0
  7  8  2  0
  9  5  1  0
 10  7  1  0
 10 11  1  0
 11 12  1  1
 13 12  1  0
 13 14  1  0
 14 15  1  0
 15 16  1  0
 17 11  1  0
 18 17  2  0
 19 17  1  0
 19 23  1  0
 20 21  1  0
 20 19  1  0
 21 22  1  0
 22 23  1  0
 23 24  1  1
 24 25  1  0
 26 24  2  0
M  END
$$$$
