EKP.pdb
     RDKit          3D

 26 26  0  0  1  0  0  0  0  0999 V2000
   10.3715  -16.7072   19.5399 N   0  0  0  0  0  0  0  0  0  0  0  0
   10.4875  -17.2380   20.8583 C   0  0  1  0  0  0  0  0  0  0  0  0
   11.9392  -17.0762   21.3299 C   0  0  0  0  0  0  0  0  0  0  0  0
   12.8713  -17.7775   20.3653 C   0  0  0  0  0  0  0  0  0  0  0  0
   14.2734  -17.7332   20.8209 C   0  0  0  0  0  0  0  0  0  0  0  0
   14.9533  -16.6879   20.6561 O   0  0  0  0  0  0  0  0  0  0  0  0
    9.6620  -16.4450   21.7934 C   0  0  0  0  0  0  0  0  0  0  0  0
    9.5706  -15.2076   21.6111 O   0  0  0  0  0  0  0  0  0  0  0  0
   14.9018  -18.8075   21.4372 O   0  0  0  0  0  0  0  0  0  0  0  0
    8.9793  -17.0153   22.8716 N   0  0  0  0  0  0  0  0  0  0  0  0
    8.0393  -16.2640   23.7301 C   0  0  1  0  0  0  0  0  0  0  0  0
    6.8656  -17.1645   24.0153 C   0  0  0  0  0  0  0  0  0  0  0  0
    6.0742  -17.4918   22.8063 C   0  0  0  0  0  0  0  0  0  0  0  0
    4.8891  -18.4159   23.1433 C   0  0  0  0  0  0  0  0  0  0  0  0
    4.0960  -18.7632   21.9186 C   0  0  0  0  0  0  0  0  0  0  0  0
    3.0234  -19.6870   22.3021 N   0  0  0  0  0  0  0  0  0  0  0  0
    8.7887  -15.8165   24.8963 C   0  0  0  0  0  0  0  0  0  0  0  0
    9.8728  -16.4655   25.1715 O   0  0  0  0  0  0  0  0  0  0  0  0
    8.4504  -14.7441   25.7460 N   0  0  0  0  0  0  0  0  0  0  0  0
    7.3681  -13.8017   25.5681 C   0  0  0  0  0  0  0  0  0  0  0  0
    7.9806  -12.4938   26.0952 C   0  0  0  0  0  0  0  0  0  0  0  0
    8.6513  -12.9884   27.3392 C   0  0  0  0  0  0  0  0  0  0  0  0
    9.1794  -14.3463   26.9372 C   0  0  1  0  0  0  0  0  0  0  0  0
    8.9711  -15.2760   28.0541 C   0  0  0  0  0  0  0  0  0  0  0  0
    9.7138  -15.2451   29.2383 O   0  0  0  0  0  0  0  0  0  0  0  0
    8.0781  -16.1467   27.9412 O   0  0  0  0  0  0  0  0  0  0  0  0
  2  7  1  0
  2  1  1  6
  3  2  1  0
  4  5  1  0
  4  3  1  0
  5  6  2  0
  7  8  2  0
  9  5  1  0
 10  7  1  0
 10 11  1  0
 11 12  1  1
 13 12  1  0
 13 14  1  0
 14 15  1  0
 15 16  1  0
 17 11  1  0
 18 17  2  0
 19 17  1  0
 19 23  1  0
 20 21  1  0
 20 19  1  0
 21 22  1  0
 22 23  1  0
 23 24  1  1
 24 25  1  0
 26 24  2  0
M  END
$$$$
