EKP.pdb
     RDKit          3D

 26 26  0  0  1  0  0  0  0  0999 V2000
    8.3640  -13.1625   18.9477 N   0  0  0  0  0  0  0  0  0  0  0  0
    9.0120  -14.1598   19.7342 C   0  0  1  0  0  0  0  0  0  0  0  0
   10.4408  -13.6931   20.0446 C   0  0  0  0  0  0  0  0  0  0  0  0
   11.4371  -14.6398   19.4102 C   0  0  0  0  0  0  0  0  0  0  0  0
   12.8249  -14.3201   19.7940 C   0  0  0  0  0  0  0  0  0  0  0  0
   13.4737  -15.1166   20.5197 O   0  0  0  0  0  0  0  0  0  0  0  0
    8.3310  -14.2907   21.0396 C   0  0  0  0  0  0  0  0  0  0  0  0
    7.7155  -13.2984   21.4970 O   0  0  0  0  0  0  0  0  0  0  0  0
   13.4725  -13.1600   19.3895 O   0  0  0  0  0  0  0  0  0  0  0  0
    8.3439  -15.4727   21.7856 N   0  0  0  0  0  0  0  0  0  0  0  0
    7.5587  -15.6637   23.0233 C   0  0  1  0  0  0  0  0  0  0  0  0
    7.2363  -17.1313   23.1349 C   0  0  0  0  0  0  0  0  0  0  0  0
    6.6187  -17.4958   24.4314 C   0  0  0  0  0  0  0  0  0  0  0  0
    6.3890  -19.0150   24.5372 C   0  0  0  0  0  0  0  0  0  0  0  0
    5.8770  -19.4014   25.8929 C   0  0  0  0  0  0  0  0  0  0  0  0
    5.6482  -20.8500   25.9114 N   0  0  0  0  0  0  0  0  0  0  0  0
    8.3415  -15.1052   24.1175 C   0  0  0  0  0  0  0  0  0  0  0  0
    9.6002  -15.4008   24.1383 O   0  0  0  0  0  0  0  0  0  0  0  0
    7.8616  -14.2713   25.1475 N   0  0  0  0  0  0  0  0  0  0  0  0
    6.5000  -13.8251   25.3419 C   0  0  0  0  0  0  0  0  0  0  0  0
    6.6948  -12.3943   25.8697 C   0  0  0  0  0  0  0  0  0  0  0  0
    7.8010  -12.6149   26.8545 C   0  0  0  0  0  0  0  0  0  0  0  0
    8.6731  -13.6472   26.1775 C   0  0  1  0  0  0  0  0  0  0  0  0
    9.1259  -14.6097   27.1894 C   0  0  0  0  0  0  0  0  0  0  0  0
   10.1112  -14.3294   28.1409 O   0  0  0  0  0  0  0  0  0  0  0  0
    8.6008  -15.7466   27.2021 O   0  0  0  0  0  0  0  0  0  0  0  0
  2  7  1  0
  2  1  1  6
  3  2  1  0
  4  5  1  0
  4  3  1  0
  5  6  2  0
  7  8  2  0
  9  5  1  0
 10  7  1  0
 10 11  1  0
 11 12  1  1
 13 12  1  0
 13 14  1  0
 14 15  1  0
 15 16  1  0
 17 11  1  0
 18 17  2  0
 19 17  1  0
 19 23  1  0
 20 21  1  0
 20 19  1  0
 21 22  1  0
 22 23  1  0
 23 24  1  1
 24 25  1  0
 26 24  2  0
M  END
$$$$
