EKP.pdb
     RDKit          3D

 26 26  0  0  1  0  0  0  0  0999 V2000
    8.4360  -13.1416   19.0320 N   0  0  0  0  0  0  0  0  0  0  0  0
    8.9898  -14.2264   19.7733 C   0  0  1  0  0  0  0  0  0  0  0  0
   10.4548  -13.9049   20.0994 C   0  0  0  0  0  0  0  0  0  0  0  0
   11.3456  -14.3789   18.9712 C   0  0  0  0  0  0  0  0  0  0  0  0
   12.7633  -14.0503   19.2112 C   0  0  0  0  0  0  0  0  0  0  0  0
   13.6571  -14.5700   18.4948 O   0  0  0  0  0  0  0  0  0  0  0  0
    8.2982  -14.3508   21.0737 C   0  0  0  0  0  0  0  0  0  0  0  0
    7.5622  -13.4094   21.4540 O   0  0  0  0  0  0  0  0  0  0  0  0
   13.1781  -13.1776   20.2087 O   0  0  0  0  0  0  0  0  0  0  0  0
    8.4297  -15.4727   21.8973 N   0  0  0  0  0  0  0  0  0  0  0  0
    7.6205  -15.6885   23.1153 C   0  0  1  0  0  0  0  0  0  0  0  0
    7.3030  -17.1592   23.1951 C   0  0  0  0  0  0  0  0  0  0  0  0
    6.7454  -17.5652   24.5064 C   0  0  0  0  0  0  0  0  0  0  0  0
    6.5282  -19.0882   24.5776 C   0  0  0  0  0  0  0  0  0  0  0  0
    5.9458  -19.5003   25.8969 C   0  0  0  0  0  0  0  0  0  0  0  0
    5.6238  -20.9300   25.8403 N   0  0  0  0  0  0  0  0  0  0  0  0
    8.3783  -15.1454   24.2345 C   0  0  0  0  0  0  0  0  0  0  0  0
    9.6106  -15.5238   24.3369 O   0  0  0  0  0  0  0  0  0  0  0  0
    7.9010  -14.2456   25.2087 N   0  0  0  0  0  0  0  0  0  0  0  0
    6.6750  -13.4804   25.1593 C   0  0  0  0  0  0  0  0  0  0  0  0
    7.0860  -12.1570   25.8250 C   0  0  0  0  0  0  0  0  0  0  0  0
    7.8710  -12.6707   26.9919 C   0  0  0  0  0  0  0  0  0  0  0  0
    8.5974  -13.8694   26.4261 C   0  0  1  0  0  0  0  0  0  0  0  0
    8.5816  -14.9400   27.4305 C   0  0  0  0  0  0  0  0  0  0  0  0
    9.3986  -14.9519   28.5650 O   0  0  0  0  0  0  0  0  0  0  0  0
    7.7921  -15.8976   27.2628 O   0  0  0  0  0  0  0  0  0  0  0  0
  2  7  1  0
  2  1  1  6
  3  2  1  0
  4  5  1  0
  4  3  1  0
  5  6  2  0
  7  8  2  0
  9  5  1  0
 10  7  1  0
 10 11  1  0
 11 12  1  1
 13 12  1  0
 13 14  1  0
 14 15  1  0
 15 16  1  0
 17 11  1  0
 18 17  2  0
 19 17  1  0
 19 23  1  0
 20 21  1  0
 20 19  1  0
 21 22  1  0
 22 23  1  0
 23 24  1  1
 24 25  1  0
 26 24  2  0
M  END
$$$$
