EKP.pdb
     RDKit          3D

 26 26  0  0  1  0  0  0  0  0999 V2000
    7.3862  -13.3062   19.0338 N   0  0  0  0  0  0  0  0  0  0  0  0
    8.3710  -13.9725   19.8209 C   0  0  1  0  0  0  0  0  0  0  0  0
    9.6089  -13.0716   19.9295 C   0  0  0  0  0  0  0  0  0  0  0  0
   10.6464  -13.7325   20.8115 C   0  0  0  0  0  0  0  0  0  0  0  0
   11.9502  -13.8568   20.1332 C   0  0  0  0  0  0  0  0  0  0  0  0
   12.8810  -13.0585   20.4131 O   0  0  0  0  0  0  0  0  0  0  0  0
    7.8731  -14.1530   21.2009 C   0  0  0  0  0  0  0  0  0  0  0  0
    7.2886  -13.1933   21.7578 O   0  0  0  0  0  0  0  0  0  0  0  0
   12.2153  -14.8301   19.1785 O   0  0  0  0  0  0  0  0  0  0  0  0
    8.0260  -15.3472   21.9112 N   0  0  0  0  0  0  0  0  0  0  0  0
    7.3978  -15.5997   23.2252 C   0  0  1  0  0  0  0  0  0  0  0  0
    7.3837  -17.0905   23.4429 C   0  0  0  0  0  0  0  0  0  0  0  0
    6.9288  -17.4776   24.7989 C   0  0  0  0  0  0  0  0  0  0  0  0
    7.0079  -19.0018   25.0045 C   0  0  0  0  0  0  0  0  0  0  0  0
    6.4182  -19.4112   26.3214 C   0  0  0  0  0  0  0  0  0  0  0  0
    6.3803  -20.8760   26.3821 N   0  0  0  0  0  0  0  0  0  0  0  0
    8.1405  -14.8256   24.2106 C   0  0  0  0  0  0  0  0  0  0  0  0
    9.4254  -14.7907   24.0702 O   0  0  0  0  0  0  0  0  0  0  0  0
    7.5942  -14.1085   25.2941 N   0  0  0  0  0  0  0  0  0  0  0  0
    6.1933  -13.8689   25.5606 C   0  0  0  0  0  0  0  0  0  0  0  0
    6.2076  -12.4461   26.1426 C   0  0  0  0  0  0  0  0  0  0  0  0
    7.3766  -12.5435   27.0731 C   0  0  0  0  0  0  0  0  0  0  0  0
    8.3546  -13.4143   26.3182 C   0  0  1  0  0  0  0  0  0  0  0  0
    8.9834  -14.3399   27.2686 C   0  0  0  0  0  0  0  0  0  0  0  0
    8.7289  -15.7143   27.2971 O   0  0  0  0  0  0  0  0  0  0  0  0
    9.7939  -13.8733   28.1015 O   0  0  0  0  0  0  0  0  0  0  0  0
  2  7  1  0
  2  1  1  6
  3  2  1  0
  4  5  1  0
  4  3  1  0
  5  6  2  0
  7  8  2  0
  9  5  1  0
 10  7  1  0
 10 11  1  0
 11 12  1  1
 13 12  1  0
 13 14  1  0
 14 15  1  0
 15 16  1  0
 17 11  1  0
 18 17  2  0
 19 17  1  0
 19 23  1  0
 20 21  1  0
 20 19  1  0
 21 22  1  0
 22 23  1  0
 23 24  1  1
 24 25  1  0
 26 24  2  0
M  END
$$$$
