EKP.pdb
     RDKit          3D

 26 26  0  0  1  0  0  0  0  0999 V2000
    8.3726  -15.4369   15.0840 N   0  0  0  0  0  0  0  0  0  0  0  0
    8.4057  -16.5021   16.0315 C   0  0  1  0  0  0  0  0  0  0  0  0
    9.8443  -17.0272   16.1342 C   0  0  0  0  0  0  0  0  0  0  0  0
   10.7754  -16.1233   15.3550 C   0  0  0  0  0  0  0  0  0  0  0  0
   12.1636  -16.6216   15.3622 C   0  0  0  0  0  0  0  0  0  0  0  0
   12.7690  -16.8060   14.2752 O   0  0  0  0  0  0  0  0  0  0  0  0
    8.0593  -15.9907   17.3743 C   0  0  0  0  0  0  0  0  0  0  0  0
    8.3048  -14.7900   17.6404 O   0  0  0  0  0  0  0  0  0  0  0  0
   12.8581  -16.9061   16.5308 O   0  0  0  0  0  0  0  0  0  0  0  0
    7.4699  -16.7880   18.3597 N   0  0  0  0  0  0  0  0  0  0  0  0
    6.9103  -16.2488   19.6171 C   0  0  1  0  0  0  0  0  0  0  0  0
    5.8871  -17.2345   20.1185 C   0  0  0  0  0  0  0  0  0  0  0  0
    6.4280  -18.6041   20.2826 C   0  0  0  0  0  0  0  0  0  0  0  0
    5.3649  -19.5642   20.8481 C   0  0  0  0  0  0  0  0  0  0  0  0
    5.9033  -20.9562   20.9964 C   0  0  0  0  0  0  0  0  0  0  0  0
    4.8518  -21.8068   21.5637 N   0  0  0  0  0  0  0  0  0  0  0  0
    8.0323  -15.9951   20.5109 C   0  0  0  0  0  0  0  0  0  0  0  0
    9.1028  -16.6913   20.3078 O   0  0  0  0  0  0  0  0  0  0  0  0
    8.0648  -15.0625   21.5672 N   0  0  0  0  0  0  0  0  0  0  0  0
    7.0540  -14.0808   21.8920 C   0  0  0  0  0  0  0  0  0  0  0  0
    7.8965  -12.8855   22.3664 C   0  0  0  0  0  0  0  0  0  0  0  0
    8.8957  -13.5838   23.2358 C   0  0  0  0  0  0  0  0  0  0  0  0
    9.1664  -14.8728   22.4942 C   0  0  1  0  0  0  0  0  0  0  0  0
    9.2638  -15.9618   23.4739 C   0  0  0  0  0  0  0  0  0  0  0  0
    8.2887  -16.9507   23.6344 O   0  0  0  0  0  0  0  0  0  0  0  0
   10.2772  -16.0088   24.2082 O   0  0  0  0  0  0  0  0  0  0  0  0
  2  7  1  0
  2  1  1  6
  3  2  1  0
  4  5  1  0
  4  3  1  0
  5  6  2  0
  7  8  2  0
  9  5  1  0
 10  7  1  0
 10 11  1  0
 11 12  1  1
 13 12  1  0
 13 14  1  0
 14 15  1  0
 15 16  1  0
 17 11  1  0
 18 17  2  0
 19 17  1  0
 19 23  1  0
 20 21  1  0
 20 19  1  0
 21 22  1  0
 22 23  1  0
 23 24  1  1
 24 25  1  0
 26 24  2  0
M  END
$$$$
