EKP.pdb
     RDKit          3D

 26 26  0  0  1  0  0  0  0  0999 V2000
   10.5596  -16.7642   19.9292 N   0  0  0  0  0  0  0  0  0  0  0  0
   10.3984  -17.5355   21.1176 C   0  0  1  0  0  0  0  0  0  0  0  0
   11.7749  -17.7380   21.7656 C   0  0  0  0  0  0  0  0  0  0  0  0
   12.7383  -16.6861   21.2589 C   0  0  0  0  0  0  0  0  0  0  0  0
   14.0908  -16.8585   21.8215 C   0  0  0  0  0  0  0  0  0  0  0  0
   14.6346  -15.9126   22.4472 O   0  0  0  0  0  0  0  0  0  0  0  0
    9.5902  -16.7820   22.0994 C   0  0  0  0  0  0  0  0  0  0  0  0
    9.5492  -15.5319   22.0092 O   0  0  0  0  0  0  0  0  0  0  0  0
   14.8165  -18.0360   21.6963 O   0  0  0  0  0  0  0  0  0  0  0  0
    8.8699  -17.4034   23.1237 N   0  0  0  0  0  0  0  0  0  0  0  0
    7.8606  -16.7065   23.9486 C   0  0  1  0  0  0  0  0  0  0  0  0
    6.8429  -17.7297   24.3818 C   0  0  0  0  0  0  0  0  0  0  0  0
    6.0913  -18.3203   23.2498 C   0  0  0  0  0  0  0  0  0  0  0  0
    5.1216  -19.4163   23.7298 C   0  0  0  0  0  0  0  0  0  0  0  0
    4.3810  -20.0371   22.5827 C   0  0  0  0  0  0  0  0  0  0  0  0
    3.4067  -20.9939   23.1177 N   0  0  0  0  0  0  0  0  0  0  0  0
    8.5767  -16.0348   25.0247 C   0  0  0  0  0  0  0  0  0  0  0  0
    9.7240  -16.5316   25.3546 O   0  0  0  0  0  0  0  0  0  0  0  0
    8.1436  -14.8959   25.7331 N   0  0  0  0  0  0  0  0  0  0  0  0
    6.9919  -14.0733   25.4368 C   0  0  0  0  0  0  0  0  0  0  0  0
    7.4917  -12.6649   25.7976 C   0  0  0  0  0  0  0  0  0  0  0  0
    8.1847  -12.9453   27.0949 C   0  0  0  0  0  0  0  0  0  0  0  0
    8.8242  -14.2956   26.8668 C   0  0  1  0  0  0  0  0  0  0  0  0
    8.6774  -15.0930   28.0907 C   0  0  0  0  0  0  0  0  0  0  0  0
    9.4236  -14.8754   29.2528 O   0  0  0  0  0  0  0  0  0  0  0  0
    7.8365  -16.0210   28.0955 O   0  0  0  0  0  0  0  0  0  0  0  0
  2  7  1  0
  2  1  1  6
  3  2  1  0
  4  5  1  0
  4  3  1  0
  5  6  2  0
  7  8  2  0
  9  5  1  0
 10  7  1  0
 10 11  1  0
 11 12  1  1
 13 12  1  0
 13 14  1  0
 14 15  1  0
 15 16  1  0
 17 11  1  0
 18 17  2  0
 19 17  1  0
 19 23  1  0
 20 21  1  0
 20 19  1  0
 21 22  1  0
 22 23  1  0
 23 24  1  1
 24 25  1  0
 26 24  2  0
M  END
$$$$
