CFQ.pdb
     RDKit          3D

 27 27  0  0  1  0  0  0  0  0999 V2000
   28.0359  -23.8138  -17.1372 N   0  0  0  0  0  0  0  0  0  0  0  0
   27.7095  -22.4943  -16.7057 C   0  0  1  0  0  0  0  0  0  0  0  0
   27.0439  -21.7849  -17.8925 C   0  0  0  0  0  0  0  0  0  0  0  0
   27.9401  -22.1714  -19.4141 S   0  0  0  0  0  0  0  0  0  0  0  0
   26.6881  -22.5445  -15.6334 C   0  0  0  0  0  0  0  0  0  0  0  0
   25.8358  -23.4776  -15.5551 O   0  0  0  0  0  0  0  0  0  0  0  0
   26.6643  -21.5198  -14.6686 N   0  0  0  0  0  0  0  0  0  0  0  0
   25.7143  -21.4376  -13.5800 C   0  0  1  0  0  0  0  0  0  0  0  0
   26.3642  -20.5945  -12.5052 C   0  0  0  0  0  0  0  0  0  0  0  0
   25.5553  -20.4402  -11.2930 C   0  0  0  0  0  0  0  0  0  0  0  0
   24.4231  -19.6345  -11.3169 C   0  0  0  0  0  0  0  0  0  0  0  0
   23.6132  -19.4391  -10.2317 C   0  0  0  0  0  0  0  0  0  0  0  0
   23.9266  -20.0704   -9.0436 C   0  0  0  0  0  0  0  0  0  0  0  0
   25.0345  -20.8717   -8.9828 C   0  0  0  0  0  0  0  0  0  0  0  0
   25.8362  -21.0538  -10.0898 C   0  0  0  0  0  0  0  0  0  0  0  0
   24.4184  -20.8830  -14.0476 C   0  0  0  0  0  0  0  0  0  0  0  0
   24.4001  -19.8300  -14.7352 O   0  0  0  0  0  0  0  0  0  0  0  0
   20.6382  -24.8569  -13.6122 N   0  0  0  0  0  0  0  0  0  0  0  0
   20.9047  -24.0702  -14.7450 C   0  0  0  0  0  0  0  0  0  0  0  0
   21.6236  -24.4902  -15.6643 O   0  0  0  0  0  0  0  0  0  0  0  0
   20.3135  -22.7114  -14.8405 C   0  0  0  0  0  0  0  0  0  0  0  0
   21.3246  -21.7123  -15.3313 C   0  0  0  0  0  0  0  0  0  0  0  0
   21.8845  -20.9149  -14.2097 C   0  0  2  0  0  0  0  0  0  0  0  0
   23.1718  -21.4813  -13.7600 N   0  0  0  0  0  0  0  0  0  0  0  0
   21.0005  -20.8477  -13.0377 C   0  0  0  0  0  0  0  0  0  0  0  0
   19.7729  -20.2177  -13.0204 O   0  0  0  0  0  0  0  0  0  0  0  0
   21.3646  -21.3915  -11.9635 O   0  0  0  0  0  0  0  0  0  0  0  0
  2  5  1  0
  2  1  1  6
  3  2  1  0
  4  3  1  0
  5  6  2  0
  7  8  1  0
  7  5  1  0
  9 10  1  0
  8  9  1  1
 10 15  2  0
 11 12  2  0
 11 10  1  0
 12 13  1  0
 13 14  2  0
 15 14  1  0
 16  8  1  0
 16 17  2  0
 18 19  1  0
 19 21  1  0
 20 19  2  0
 21 22  1  0
 23 22  1  6
 23 24  1  0
 23 25  1  0
 24 16  1  0
 25 27  2  0
 25 26  1  0
M  END
$$$$
