CFQ.pdb
     RDKit          3D

 27 27  0  0  1  0  0  0  0  0999 V2000
   30.0169  -21.7386  -18.1713 N   0  0  0  0  0  0  0  0  0  0  0  0
   29.0061  -20.8447  -17.7097 C   0  0  1  0  0  0  0  0  0  0  0  0
   27.9731  -20.7133  -18.8368 C   0  0  0  0  0  0  0  0  0  0  0  0
   28.5217  -19.4655  -20.0240 S   0  0  0  0  0  0  0  0  0  0  0  0
   28.2844  -21.4383  -16.5597 C   0  0  0  0  0  0  0  0  0  0  0  0
   28.1027  -22.6862  -16.4472 O   0  0  0  0  0  0  0  0  0  0  0  0
   27.7836  -20.5856  -15.5579 N   0  0  0  0  0  0  0  0  0  0  0  0
   27.0855  -21.0325  -14.3715 C   0  0  1  0  0  0  0  0  0  0  0  0
   27.3292  -19.9837  -13.3090 C   0  0  0  0  0  0  0  0  0  0  0  0
   26.6222  -20.2306  -12.0493 C   0  0  0  0  0  0  0  0  0  0  0  0
   27.2254  -20.9954  -11.0579 C   0  0  0  0  0  0  0  0  0  0  0  0
   26.6362  -21.2708   -9.8543 C   0  0  0  0  0  0  0  0  0  0  0  0
   25.3752  -20.7680   -9.5987 C   0  0  0  0  0  0  0  0  0  0  0  0
   24.7503  -20.0103  -10.5521 C   0  0  0  0  0  0  0  0  0  0  0  0
   25.3639  -19.7457  -11.7581 C   0  0  0  0  0  0  0  0  0  0  0  0
   25.6435  -21.2478  -14.6539 C   0  0  0  0  0  0  0  0  0  0  0  0
   24.9908  -20.3726  -15.2785 O   0  0  0  0  0  0  0  0  0  0  0  0
   22.3256  -26.6320  -14.3876 N   0  0  0  0  0  0  0  0  0  0  0  0
   21.3021  -25.6788  -14.5183 C   0  0  0  0  0  0  0  0  0  0  0  0
   20.1119  -26.0198  -14.5914 O   0  0  0  0  0  0  0  0  0  0  0  0
   21.6550  -24.2373  -14.5697 C   0  0  0  0  0  0  0  0  0  0  0  0
   23.1364  -24.0346  -14.4101 C   0  0  0  0  0  0  0  0  0  0  0  0
   23.4975  -22.5962  -14.4985 C   0  0  2  0  0  0  0  0  0  0  0  0
   24.9411  -22.4057  -14.2537 N   0  0  0  0  0  0  0  0  0  0  0  0
   22.7738  -21.7487  -13.5406 C   0  0  0  0  0  0  0  0  0  0  0  0
   23.0969  -21.6284  -12.2045 O   0  0  0  0  0  0  0  0  0  0  0  0
   21.7869  -21.0782  -13.9393 O   0  0  0  0  0  0  0  0  0  0  0  0
  2  5  1  0
  2  1  1  6
  3  2  1  0
  4  3  1  0
  5  6  2  0
  7  8  1  0
  7  5  1  0
  9 10  1  0
  8  9  1  1
 10 15  2  0
 11 12  2  0
 11 10  1  0
 12 13  1  0
 13 14  2  0
 15 14  1  0
 16  8  1  0
 16 17  2  0
 18 19  1  0
 19 21  1  0
 20 19  2  0
 21 22  1  0
 23 22  1  1
 23 24  1  0
 23 25  1  0
 24 16  1  0
 25 27  2  0
 25 26  1  0
M  END
$$$$
