CFQ.pdb
     RDKit          3D

 27 27  0  0  1  0  0  0  0  0999 V2000
   27.8953  -22.0063  -16.3354 N   0  0  0  0  0  0  0  0  0  0  0  0
   27.8301  -20.9335  -15.3980 C   0  0  1  0  0  0  0  0  0  0  0  0
   27.0297  -19.8048  -16.0615 C   0  0  0  0  0  0  0  0  0  0  0  0
   28.0545  -18.9770  -17.2993 S   0  0  0  0  0  0  0  0  0  0  0  0
   27.0508  -21.3423  -14.2059 C   0  0  0  0  0  0  0  0  0  0  0  0
   26.1013  -22.1772  -14.2729 O   0  0  0  0  0  0  0  0  0  0  0  0
   27.3771  -20.7833  -12.9559 N   0  0  0  0  0  0  0  0  0  0  0  0
   26.6235  -20.9954  -11.7386 C   0  0  1  0  0  0  0  0  0  0  0  0
   27.4973  -20.5114  -10.6026 C   0  0  0  0  0  0  0  0  0  0  0  0
   26.8009  -20.3942   -9.3184 C   0  0  0  0  0  0  0  0  0  0  0  0
   26.9624  -19.2488   -8.5480 C   0  0  0  0  0  0  0  0  0  0  0  0
   26.3475  -19.0589   -7.3406 C   0  0  0  0  0  0  0  0  0  0  0  0
   25.5200  -20.0506   -6.8506 C   0  0  0  0  0  0  0  0  0  0  0  0
   25.3372  -21.1927   -7.5823 C   0  0  0  0  0  0  0  0  0  0  0  0
   25.9675  -21.3620   -8.7969 C   0  0  0  0  0  0  0  0  0  0  0  0
   25.3124  -20.3006  -11.7985 C   0  0  0  0  0  0  0  0  0  0  0  0
   25.2722  -19.0510  -11.9360 O   0  0  0  0  0  0  0  0  0  0  0  0
   20.7234  -19.8923  -15.2251 N   0  0  0  0  0  0  0  0  0  0  0  0
   22.0857  -20.1984  -15.3788 C   0  0  0  0  0  0  0  0  0  0  0  0
   22.6493  -20.0863  -16.4779 O   0  0  0  0  0  0  0  0  0  0  0  0
   22.8623  -20.6644  -14.2020 C   0  0  0  0  0  0  0  0  0  0  0  0
   22.0065  -20.7004  -12.9661 C   0  0  0  0  0  0  0  0  0  0  0  0
   22.7735  -20.2790  -11.7655 C   0  0  2  0  0  0  0  0  0  0  0  0
   24.0746  -20.9746  -11.7081 N   0  0  0  0  0  0  0  0  0  0  0  0
   22.0764  -20.5455  -10.4995 C   0  0  0  0  0  0  0  0  0  0  0  0
   20.9502  -19.8729  -10.0713 O   0  0  0  0  0  0  0  0  0  0  0  0
   22.5170  -21.4413   -9.7341 O   0  0  0  0  0  0  0  0  0  0  0  0
  2  5  1  0
  2  1  1  6
  3  2  1  0
  4  3  1  0
  5  6  2  0
  7  8  1  0
  7  5  1  0
  9 10  1  0
  8  9  1  1
 10 15  2  0
 11 12  2  0
 11 10  1  0
 12 13  1  0
 13 14  2  0
 15 14  1  0
 16  8  1  0
 16 17  2  0
 18 19  1  0
 19 21  1  0
 20 19  2  0
 21 22  1  0
 23 22  1  6
 23 24  1  0
 23 25  1  0
 24 16  1  0
 25 27  2  0
 25 26  1  0
M  END
$$$$
