CFQ.pdb
     RDKit          3D

 27 27  0  0  1  0  0  0  0  0999 V2000
   27.7549  -21.8671  -14.3088 N   0  0  0  0  0  0  0  0  0  0  0  0
   27.9769  -20.8220  -13.3642 C   0  0  1  0  0  0  0  0  0  0  0  0
   27.1995  -19.5953  -13.8598 C   0  0  0  0  0  0  0  0  0  0  0  0
   28.0040  -18.9171  -15.3297 S   0  0  0  0  0  0  0  0  0  0  0  0
   27.3835  -21.1813  -12.0548 C   0  0  0  0  0  0  0  0  0  0  0  0
   26.3469  -21.9018  -11.9575 O   0  0  0  0  0  0  0  0  0  0  0  0
   27.9931  -20.7054  -10.8786 N   0  0  0  0  0  0  0  0  0  0  0  0
   27.4202  -20.8139   -9.5540 C   0  0  1  0  0  0  0  0  0  0  0  0
   28.4925  -20.3688   -8.5843 C   0  0  0  0  0  0  0  0  0  0  0  0
   28.0079  -20.1313   -7.2218 C   0  0  0  0  0  0  0  0  0  0  0  0
   27.9221  -18.8317   -6.7367 C   0  0  0  0  0  0  0  0  0  0  0  0
   27.4787  -18.5235   -5.4797 C   0  0  0  0  0  0  0  0  0  0  0  0
   27.0930  -19.5492   -4.6385 C   0  0  0  0  0  0  0  0  0  0  0  0
   27.1640  -20.8420   -5.0825 C   0  0  0  0  0  0  0  0  0  0  0  0
   27.6142  -21.1286   -6.3538 C   0  0  0  0  0  0  0  0  0  0  0  0
   26.1739  -20.0133   -9.4479 C   0  0  0  0  0  0  0  0  0  0  0  0
   26.2046  -18.7755   -9.6690 O   0  0  0  0  0  0  0  0  0  0  0  0
   23.6705  -19.3040  -13.4734 N   0  0  0  0  0  0  0  0  0  0  0  0
   23.0516  -20.4732  -13.0013 C   0  0  0  0  0  0  0  0  0  0  0  0
   22.6624  -21.3545  -13.7824 O   0  0  0  0  0  0  0  0  0  0  0  0
   22.8612  -20.6545  -11.5398 C   0  0  0  0  0  0  0  0  0  0  0  0
   23.4821  -19.5239  -10.7668 C   0  0  0  0  0  0  0  0  0  0  0  0
   23.6411  -19.8738   -9.3317 C   0  0  2  0  0  0  0  0  0  0  0  0
   24.9227  -20.5712   -9.1048 N   0  0  0  0  0  0  0  0  0  0  0  0
   22.5720  -20.7402   -8.8162 C   0  0  0  0  0  0  0  0  0  0  0  0
   22.7804  -21.9655   -8.2166 O   0  0  0  0  0  0  0  0  0  0  0  0
   21.3759  -20.3641   -8.9177 O   0  0  0  0  0  0  0  0  0  0  0  0
  2  5  1  0
  2  1  1  6
  3  2  1  0
  4  3  1  0
  5  6  2  0
  7  8  1  0
  7  5  1  0
  9 10  1  0
  8  9  1  1
 10 15  2  0
 11 12  2  0
 11 10  1  0
 12 13  1  0
 13 14  2  0
 15 14  1  0
 16  8  1  0
 16 17  2  0
 18 19  1  0
 19 21  1  0
 20 19  2  0
 21 22  1  0
 23 22  1  6
 23 24  1  0
 23 25  1  0
 24 16  1  0
 25 27  2  0
 25 26  1  0
M  END
$$$$
