CFQ.pdb
     RDKit          3D

 27 27  0  0  1  0  0  0  0  0999 V2000
   28.3980  -22.3503  -18.0105 N   0  0  0  0  0  0  0  0  0  0  0  0
   27.9098  -21.2185  -17.2934 C   0  0  1  0  0  0  0  0  0  0  0  0
   26.8874  -20.5191  -18.1992 C   0  0  0  0  0  0  0  0  0  0  0  0
   27.7446  -19.4215  -19.3517 S   0  0  0  0  0  0  0  0  0  0  0  0
   27.1605  -21.6575  -16.0929 C   0  0  0  0  0  0  0  0  0  0  0  0
   26.4399  -22.6987  -16.0893 O   0  0  0  0  0  0  0  0  0  0  0  0
   27.2527  -20.8910  -14.9158 N   0  0  0  0  0  0  0  0  0  0  0  0
   26.4498  -21.1045  -13.7308 C   0  0  1  0  0  0  0  0  0  0  0  0
   27.2115  -20.4870  -12.5788 C   0  0  0  0  0  0  0  0  0  0  0  0
   26.4976  -20.5240  -11.2995 C   0  0  0  0  0  0  0  0  0  0  0  0
   26.4797  -21.6962  -10.5530 C   0  0  0  0  0  0  0  0  0  0  0  0
   25.8399  -21.8143   -9.3494 C   0  0  0  0  0  0  0  0  0  0  0  0
   25.1729  -20.7178   -8.8384 C   0  0  0  0  0  0  0  0  0  0  0  0
   25.1693  -19.5463   -9.5462 C   0  0  0  0  0  0  0  0  0  0  0  0
   25.8212  -19.4508  -10.7575 C   0  0  0  0  0  0  0  0  0  0  0  0
   25.0904  -20.5314  -13.9007 C   0  0  0  0  0  0  0  0  0  0  0  0
   24.9565  -19.3215  -14.2174 O   0  0  0  0  0  0  0  0  0  0  0  0
   22.4635  -20.8320  -17.4981 N   0  0  0  0  0  0  0  0  0  0  0  0
   22.7628  -22.0894  -16.9481 C   0  0  0  0  0  0  0  0  0  0  0  0
   23.3052  -22.9748  -17.6264 O   0  0  0  0  0  0  0  0  0  0  0  0
   22.4223  -22.3603  -15.5283 C   0  0  0  0  0  0  0  0  0  0  0  0
   21.7703  -21.1658  -14.8886 C   0  0  0  0  0  0  0  0  0  0  0  0
   22.5608  -20.6742  -13.7308 C   0  0  2  0  0  0  0  0  0  0  0  0
   23.9068  -21.2813  -13.7239 N   0  0  0  0  0  0  0  0  0  0  0  0
   21.9411  -20.9645  -12.4303 C   0  0  0  0  0  0  0  0  0  0  0  0
   20.7833  -20.3734  -11.9675 O   0  0  0  0  0  0  0  0  0  0  0  0
   22.4840  -21.8035  -11.6664 O   0  0  0  0  0  0  0  0  0  0  0  0
  2  5  1  0
  2  1  1  6
  3  2  1  0
  4  3  1  0
  5  6  2  0
  7  8  1  0
  7  5  1  0
  9 10  1  0
  8  9  1  1
 10 15  2  0
 11 12  2  0
 11 10  1  0
 12 13  1  0
 13 14  2  0
 15 14  1  0
 16  8  1  0
 16 17  2  0
 18 19  1  0
 19 21  1  0
 20 19  2  0
 21 22  1  0
 23 22  1  6
 23 24  1  0
 23 25  1  0
 24 16  1  0
 25 27  2  0
 25 26  1  0
M  END
$$$$
