CFQ.pdb
     RDKit          3D

 27 27  0  0  1  0  0  0  0  0999 V2000
   28.5561  -22.7419  -17.5994 N   0  0  0  0  0  0  0  0  0  0  0  0
   28.1824  -21.4947  -17.0176 C   0  0  1  0  0  0  0  0  0  0  0  0
   27.3860  -20.7240  -18.0790 C   0  0  0  0  0  0  0  0  0  0  0  0
   26.9852  -19.0733  -17.4608 S   0  0  0  0  0  0  0  0  0  0  0  0
   27.2503  -21.7163  -15.8872 C   0  0  0  0  0  0  0  0  0  0  0  0
   26.3385  -22.5939  -15.9252 O   0  0  0  0  0  0  0  0  0  0  0  0
   27.3830  -20.9239  -14.7313 N   0  0  0  0  0  0  0  0  0  0  0  0
   26.5522  -21.0442  -13.5524 C   0  0  1  0  0  0  0  0  0  0  0  0
   27.3806  -20.5433  -12.3900 C   0  0  0  0  0  0  0  0  0  0  0  0
   26.6692  -20.5286  -11.1088 C   0  0  0  0  0  0  0  0  0  0  0  0
   26.0210  -19.3718  -10.6928 C   0  0  0  0  0  0  0  0  0  0  0  0
   25.3333  -19.2748   -9.5140 C   0  0  0  0  0  0  0  0  0  0  0  0
   25.2726  -20.3781   -8.6848 C   0  0  0  0  0  0  0  0  0  0  0  0
   25.8993  -21.5349   -9.0622 C   0  0  0  0  0  0  0  0  0  0  0  0
   26.5866  -21.6091  -10.2551 C   0  0  0  0  0  0  0  0  0  0  0  0
   25.2796  -20.2977  -13.7218 C   0  0  0  0  0  0  0  0  0  0  0  0
   25.2589  -19.2441  -14.4085 O   0  0  0  0  0  0  0  0  0  0  0  0
   22.0652  -21.0437  -17.6852 N   0  0  0  0  0  0  0  0  0  0  0  0
   21.0664  -20.3251  -17.0076 C   0  0  0  0  0  0  0  0  0  0  0  0
   20.0411  -19.9433  -17.5919 O   0  0  0  0  0  0  0  0  0  0  0  0
   21.2442  -20.0186  -15.5656 C   0  0  0  0  0  0  0  0  0  0  0  0
   22.5692  -20.5213  -15.0628 C   0  0  0  0  0  0  0  0  0  0  0  0
   22.7434  -20.2313  -13.6161 C   0  0  2  0  0  0  0  0  0  0  0  0
   24.0584  -20.7090  -13.1439 N   0  0  0  0  0  0  0  0  0  0  0  0
   21.7188  -20.8519  -12.7648 C   0  0  0  0  0  0  0  0  0  0  0  0
   21.7993  -22.1302  -12.2515 O   0  0  0  0  0  0  0  0  0  0  0  0
   20.6867  -20.1956  -12.4707 O   0  0  0  0  0  0  0  0  0  0  0  0
  2  5  1  0
  2  1  1  6
  3  2  1  0
  4  3  1  0
  5  6  2  0
  7  8  1  0
  7  5  1  0
  9 10  1  0
  8  9  1  1
 10 15  2  0
 11 12  2  0
 11 10  1  0
 12 13  1  0
 13 14  2  0
 15 14  1  0
 16  8  1  0
 16 17  2  0
 18 19  1  0
 19 21  1  0
 20 19  2  0
 21 22  1  0
 23 22  1  6
 23 24  1  0
 23 25  1  0
 24 16  1  0
 25 27  2  0
 25 26  1  0
M  END
$$$$
