CFQ.pdb
     RDKit          3D

 27 27  0  0  1  0  0  0  0  0999 V2000
   19.2090  -11.8110  -14.7461 N   0  0  0  0  0  0  0  0  0  0  0  0
   18.9488  -10.4159  -14.6055 C   0  0  1  0  0  0  0  0  0  0  0  0
   18.6034   -9.8801  -16.0014 C   0  0  0  0  0  0  0  0  0  0  0  0
   18.3520   -8.0917  -15.9227 S   0  0  0  0  0  0  0  0  0  0  0  0
   17.7411  -10.2018  -13.7742 C   0  0  0  0  0  0  0  0  0  0  0  0
   16.6718  -10.8555  -13.9547 O   0  0  0  0  0  0  0  0  0  0  0  0
   17.7837   -9.2387  -12.7485 N   0  0  0  0  0  0  0  0  0  0  0  0
   16.6460   -8.8391  -11.9483 C   0  0  1  0  0  0  0  0  0  0  0  0
   16.9768   -9.2051  -10.5182 C   0  0  0  0  0  0  0  0  0  0  0  0
   15.9267   -8.8654   -9.5540 C   0  0  0  0  0  0  0  0  0  0  0  0
   16.1191   -7.8133   -8.6666 C   0  0  0  0  0  0  0  0  0  0  0  0
   15.1900   -7.4300   -7.7382 C   0  0  0  0  0  0  0  0  0  0  0  0
   13.9936   -8.1172   -7.6693 C   0  0  0  0  0  0  0  0  0  0  0  0
   13.7693   -9.1593   -8.5278 C   0  0  0  0  0  0  0  0  0  0  0  0
   14.7206   -9.5277   -9.4555 C   0  0  0  0  0  0  0  0  0  0  0  0
   16.3550   -7.3935  -12.1244 C   0  0  0  0  0  0  0  0  0  0  0  0
   17.2651   -6.5451  -11.9403 O   0  0  0  0  0  0  0  0  0  0  0  0
   11.2457   -5.2236  -14.9504 N   0  0  0  0  0  0  0  0  0  0  0  0
   12.3046   -5.9307  -15.5437 C   0  0  0  0  0  0  0  0  0  0  0  0
   12.1686   -6.4884  -16.6431 O   0  0  0  0  0  0  0  0  0  0  0  0
   13.6094   -6.0099  -14.8391 C   0  0  0  0  0  0  0  0  0  0  0  0
   13.5553   -5.3004  -13.5144 C   0  0  0  0  0  0  0  0  0  0  0  0
   14.8230   -5.4703  -12.7584 C   0  0  2  0  0  0  0  0  0  0  0  0
   15.0852   -6.8994  -12.4958 N   0  0  0  0  0  0  0  0  0  0  0  0
   14.8322   -4.7765  -11.4630 C   0  0  0  0  0  0  0  0  0  0  0  0
   15.4577   -3.5691  -11.2280 O   0  0  0  0  0  0  0  0  0  0  0  0
   14.2388   -5.2981  -10.4842 O   0  0  0  0  0  0  0  0  0  0  0  0
  2  5  1  0
  2  1  1  6
  3  2  1  0
  4  3  1  0
  5  6  2  0
  7  8  1  0
  7  5  1  0
  9 10  1  0
  8  9  1  1
 10 15  2  0
 11 12  2  0
 11 10  1  0
 12 13  1  0
 13 14  2  0
 15 14  1  0
 16  8  1  0
 16 17  2  0
 18 19  1  0
 19 21  1  0
 20 19  2  0
 21 22  1  0
 23 22  1  1
 23 24  1  0
 23 25  1  0
 24 16  1  0
 25 27  2  0
 25 26  1  0
M  END
$$$$
