CKY.pdb
     RDKit          3D

 28 28  0  0  1  0  0  0  0  0999 V2000
    6.5042  -15.3298   19.4065 N   0  0  0  0  0  0  0  0  0  0  0  0
    7.5734  -14.7079   20.1363 C   0  0  1  0  0  0  0  0  0  0  0  0
    7.1255  -13.3869   20.6717 C   0  0  0  0  0  0  0  0  0  0  0  0
    8.5812  -12.5599   21.3874 S   0  0  0  0  0  0  0  0  0  0  0  0
    8.0061  -15.6075   21.2703 C   0  0  0  0  0  0  0  0  0  0  0  0
    7.0979  -16.0204   22.0102 O   0  0  0  0  0  0  0  0  0  0  0  0
    9.3605  -15.9446   21.4587 N   0  0  0  0  0  0  0  0  0  0  0  0
    9.9374  -16.7614   22.4820 C   0  0  1  0  0  0  0  0  0  0  0  0
   11.1835  -17.5119   22.0571 C   0  0  0  0  0  0  0  0  0  0  0  0
   11.5310  -18.5921   23.0515 C   0  0  0  0  0  0  0  0  0  0  0  0
   12.8154  -19.3092   22.6630 C   0  0  0  0  0  0  0  0  0  0  0  0
   13.3408  -20.1636   23.7696 C   0  0  0  0  0  0  0  0  0  0  0  0
   13.0220  -21.5463   23.5022 N   0  0  0  0  0  0  0  0  0  0  0  0
    9.9177  -16.2405   23.8264 C   0  0  0  0  0  0  0  0  0  0  0  0
   10.5752  -15.1919   24.0861 O   0  0  0  0  0  0  0  0  0  0  0  0
    6.4125  -10.7733   25.4731 O   0  0  0  0  0  0  0  0  0  0  0  0
    6.7713  -12.0609   25.8120 C   0  0  0  0  0  0  0  0  0  0  0  0
    7.4655  -12.3673   26.9601 C   0  0  0  0  0  0  0  0  0  0  0  0
    7.8106  -13.6626   27.2737 C   0  0  0  0  0  0  0  0  0  0  0  0
    7.4662  -14.7233   26.4315 C   0  0  0  0  0  0  0  0  0  0  0  0
    7.8756  -16.0979   26.7964 C   0  0  0  0  0  0  0  0  0  0  0  0
    9.2556  -16.3640   26.2618 C   0  0  2  0  0  0  0  0  0  0  0  0
    9.2027  -16.8341   24.8818 N   0  0  0  0  0  0  0  0  0  0  0  0
   10.1024  -17.2070   27.1046 C   0  0  0  0  0  0  0  0  0  0  0  0
   10.5876  -18.2977   26.7192 O   0  0  0  0  0  0  0  0  0  0  0  0
    6.7722  -14.4315   25.2799 C   0  0  0  0  0  0  0  0  0  0  0  0
    6.4390  -13.1143   24.9924 C   0  0  0  0  0  0  0  0  0  0  0  0
   10.4472  -16.8661   28.4249 O   0  0  0  0  0  0  0  0  0  0  0  0
  2  5  1  0
  2  1  1  1
  3  4  1  0
  3  2  1  0
  5  6  2  0
  7  8  1  0
  7  5  1  0
  8  9  1  6
 10  9  1  0
 11 10  1  0
 11 12  1  0
 13 12  1  0
 14 15  2  0
 14  8  1  0
 16 17  1  0
 17 18  2  0
 17 27  1  0
 18 19  1  0
 19 20  2  0
 20 26  1  0
 20 21  1  0
 22 21  1  1
 22 24  1  0
 22 23  1  0
 23 14  1  0
 24 28  1  0
 25 24  2  0
 27 26  2  0
M  END
$$$$
