CKY.pdb
     RDKit          3D

 28 28  0  0  1  0  0  0  0  0999 V2000
    6.8420  -14.4735   18.9223 N   0  0  0  0  0  0  0  0  0  0  0  0
    8.1144  -14.3273   19.5723 C   0  0  1  0  0  0  0  0  0  0  0  0
    8.3327  -12.8987   19.9518 C   0  0  0  0  0  0  0  0  0  0  0  0
    8.5409  -11.9455   18.4146 S   0  0  0  0  0  0  0  0  0  0  0  0
    8.1614  -15.2037   20.8019 C   0  0  0  0  0  0  0  0  0  0  0  0
    7.1811  -15.1248   21.5605 O   0  0  0  0  0  0  0  0  0  0  0  0
    9.2584  -16.0505   21.0533 N   0  0  0  0  0  0  0  0  0  0  0  0
    9.5223  -16.8382   22.2183 C   0  0  1  0  0  0  0  0  0  0  0  0
   10.1757  -18.1759   21.9357 C   0  0  0  0  0  0  0  0  0  0  0  0
    9.6971  -18.7463   20.6234 C   0  0  0  0  0  0  0  0  0  0  0  0
   10.3892  -20.0639   20.3076 C   0  0  0  0  0  0  0  0  0  0  0  0
    9.9387  -20.6394   19.0051 C   0  0  0  0  0  0  0  0  0  0  0  0
   10.5717  -21.9211   18.8012 N   0  0  0  0  0  0  0  0  0  0  0  0
    9.9598  -16.1365   23.3995 C   0  0  0  0  0  0  0  0  0  0  0  0
   10.1847  -14.8942   23.3254 O   0  0  0  0  0  0  0  0  0  0  0  0
    6.2574  -11.0451   27.0842 O   0  0  0  0  0  0  0  0  0  0  0  0
    6.6456  -12.3045   26.6784 C   0  0  0  0  0  0  0  0  0  0  0  0
    5.8393  -13.1323   25.9311 C   0  0  0  0  0  0  0  0  0  0  0  0
    6.2530  -14.3855   25.5394 C   0  0  0  0  0  0  0  0  0  0  0  0
    7.5173  -14.8681   25.8887 C   0  0  0  0  0  0  0  0  0  0  0  0
    7.9135  -16.2295   25.4647 C   0  0  0  0  0  0  0  0  0  0  0  0
    9.3529  -16.4649   25.8303 C   0  0  2  0  0  0  0  0  0  0  0  0
   10.1545  -16.7562   24.6468 N   0  0  0  0  0  0  0  0  0  0  0  0
    9.5767  -17.4303   26.9053 C   0  0  0  0  0  0  0  0  0  0  0  0
    9.5614  -17.1215   28.1211 O   0  0  0  0  0  0  0  0  0  0  0  0
    8.3339  -14.0511   26.6361 C   0  0  0  0  0  0  0  0  0  0  0  0
    7.8869  -12.7920   27.0152 C   0  0  0  0  0  0  0  0  0  0  0  0
    9.8292  -18.7935   26.6680 O   0  0  0  0  0  0  0  0  0  0  0  0
  2  5  1  0
  2  1  1  1
  3  4  1  0
  3  2  1  0
  5  6  2  0
  7  8  1  0
  7  5  1  0
  8  9  1  6
 10  9  1  0
 11 10  1  0
 11 12  1  0
 13 12  1  0
 14 15  2  0
 14  8  1  0
 16 17  1  0
 17 18  2  0
 17 27  1  0
 18 19  1  0
 19 20  2  0
 20 26  1  0
 20 21  1  0
 22 21  1  6
 22 24  1  0
 22 23  1  0
 23 14  1  0
 24 28  1  0
 25 24  2  0
 27 26  2  0
M  END
$$$$
