CKY.pdb
     RDKit          3D

 28 28  0  0  1  0  0  0  0  0999 V2000
    6.3287  -19.9404   21.1377 N   0  0  0  0  0  0  0  0  0  0  0  0
    6.0177  -18.7138   21.8171 C   0  0  1  0  0  0  0  0  0  0  0  0
    5.7304  -18.9866   23.2577 C   0  0  0  0  0  0  0  0  0  0  0  0
    4.0707  -19.7286   23.3581 S   0  0  0  0  0  0  0  0  0  0  0  0
    7.1780  -17.7545   21.6921 C   0  0  0  0  0  0  0  0  0  0  0  0
    8.3087  -18.2544   21.8114 O   0  0  0  0  0  0  0  0  0  0  0  0
    6.9682  -16.3821   21.4548 N   0  0  0  0  0  0  0  0  0  0  0  0
    7.9338  -15.3263   21.4424 C   0  0  1  0  0  0  0  0  0  0  0  0
    7.6194  -14.2006   20.4778 C   0  0  0  0  0  0  0  0  0  0  0  0
    7.9805  -14.5823   19.0635 C   0  0  0  0  0  0  0  0  0  0  0  0
    7.5571  -13.5061   18.0748 C   0  0  0  0  0  0  0  0  0  0  0  0
    7.8721  -13.8813   16.6639 C   0  0  0  0  0  0  0  0  0  0  0  0
    7.4547  -12.8191   15.7793 N   0  0  0  0  0  0  0  0  0  0  0  0
    8.5170  -14.9555   22.7079 C   0  0  0  0  0  0  0  0  0  0  0  0
    8.0348  -13.9714   23.3390 O   0  0  0  0  0  0  0  0  0  0  0  0
   10.5723  -14.9511   30.9863 O   0  0  0  0  0  0  0  0  0  0  0  0
   10.1563  -15.0989   29.6800 C   0  0  0  0  0  0  0  0  0  0  0  0
    9.7064  -14.0480   28.9138 C   0  0  0  0  0  0  0  0  0  0  0  0
    9.2971  -14.2246   27.6113 C   0  0  0  0  0  0  0  0  0  0  0  0
    9.3232  -15.4876   27.0134 C   0  0  0  0  0  0  0  0  0  0  0  0
    8.8541  -15.6362   25.6177 C   0  0  0  0  0  0  0  0  0  0  0  0
   10.0157  -15.4522   24.6806 C   0  0  2  0  0  0  0  0  0  0  0  0
    9.6038  -15.6296   23.2925 N   0  0  0  0  0  0  0  0  0  0  0  0
   11.2137  -16.2236   25.0086 C   0  0  0  0  0  0  0  0  0  0  0  0
   11.4172  -17.3886   24.5903 O   0  0  0  0  0  0  0  0  0  0  0  0
    9.7704  -16.5476   27.7681 C   0  0  0  0  0  0  0  0  0  0  0  0
   10.1765  -16.3361   29.0792 C   0  0  0  0  0  0  0  0  0  0  0  0
   12.2449  -15.7240   25.8243 O   0  0  0  0  0  0  0  0  0  0  0  0
  2  5  1  0
  2  1  1  6
  3  4  1  0
  3  2  1  0
  5  6  2  0
  7  8  1  0
  7  5  1  0
  8  9  1  1
 10  9  1  0
 11 10  1  0
 11 12  1  0
 13 12  1  0
 14 15  2  0
 14  8  1  0
 16 17  1  0
 17 18  2  0
 17 27  1  0
 18 19  1  0
 19 20  2  0
 20 26  1  0
 20 21  1  0
 22 21  1  1
 22 24  1  0
 22 23  1  0
 23 14  1  0
 24 28  1  0
 25 24  2  0
 27 26  2  0
M  END
$$$$
