CKY.pdb
     RDKit          3D

 28 28  0  0  1  0  0  0  0  0999 V2000
    6.9559  -14.7550   19.2553 N   0  0  0  0  0  0  0  0  0  0  0  0
    7.8869  -14.4923   20.3168 C   0  0  1  0  0  0  0  0  0  0  0  0
    8.0826  -13.0192   20.4717 C   0  0  0  0  0  0  0  0  0  0  0  0
    8.6713  -12.3704   18.8755 S   0  0  0  0  0  0  0  0  0  0  0  0
    7.3690  -15.0852   21.6062 C   0  0  0  0  0  0  0  0  0  0  0  0
    6.9746  -14.2704   22.4565 O   0  0  0  0  0  0  0  0  0  0  0  0
    7.3439  -16.4785   21.8107 N   0  0  0  0  0  0  0  0  0  0  0  0
    8.2600  -17.2816   22.5611 C   0  0  1  0  0  0  0  0  0  0  0  0
    9.2626  -18.0430   21.7175 C   0  0  0  0  0  0  0  0  0  0  0  0
    9.0215  -19.5300   21.7999 C   0  0  0  0  0  0  0  0  0  0  0  0
   10.0135  -20.2997   20.9405 C   0  0  0  0  0  0  0  0  0  0  0  0
    9.8943  -21.7767   21.1275 C   0  0  0  0  0  0  0  0  0  0  0  0
   10.8633  -22.4468   20.2926 N   0  0  0  0  0  0  0  0  0  0  0  0
    8.7374  -16.7400   23.8092 C   0  0  0  0  0  0  0  0  0  0  0  0
    9.7151  -15.9380   23.7943 O   0  0  0  0  0  0  0  0  0  0  0  0
    7.0835  -10.3747   26.0829 O   0  0  0  0  0  0  0  0  0  0  0  0
    7.1848  -11.7275   26.3306 C   0  0  0  0  0  0  0  0  0  0  0  0
    6.1423  -12.6046   26.1364 C   0  0  0  0  0  0  0  0  0  0  0  0
    6.2718  -13.9511   26.3919 C   0  0  0  0  0  0  0  0  0  0  0  0
    7.4761  -14.4822   26.8618 C   0  0  0  0  0  0  0  0  0  0  0  0
    7.5651  -15.9323   27.1437 C   0  0  0  0  0  0  0  0  0  0  0  0
    8.6768  -16.5303   26.3266 C   0  0  2  0  0  0  0  0  0  0  0  0
    8.1754  -17.0521   25.0599 N   0  0  0  0  0  0  0  0  0  0  0  0
    9.5229  -17.4936   27.0294 C   0  0  0  0  0  0  0  0  0  0  0  0
    9.5567  -18.7150   26.7451 O   0  0  0  0  0  0  0  0  0  0  0  0
    8.5268  -13.6166   27.0609 C   0  0  0  0  0  0  0  0  0  0  0  0
    8.3639  -12.2635   26.7935 C   0  0  0  0  0  0  0  0  0  0  0  0
   10.3748  -17.1325   28.0887 O   0  0  0  0  0  0  0  0  0  0  0  0
  2  5  1  0
  2  1  1  6
  3  4  1  0
  3  2  1  0
  5  6  2  0
  7  8  1  0
  7  5  1  0
  8  9  1  6
 10  9  1  0
 11 10  1  0
 11 12  1  0
 13 12  1  0
 14 15  2  0
 14  8  1  0
 16 17  1  0
 17 18  2  0
 17 27  1  0
 18 19  1  0
 19 20  2  0
 20 26  1  0
 20 21  1  0
 22 21  1  1
 22 24  1  0
 22 23  1  0
 23 14  1  0
 24 28  1  0
 25 24  2  0
 27 26  2  0
M  END
$$$$
