CKY.pdb
     RDKit          3D

 28 28  0  0  1  0  0  0  0  0999 V2000
    6.1579  -15.4510   26.2518 N   0  0  0  0  0  0  0  0  0  0  0  0
    5.9511  -14.6550   25.0744 C   0  0  1  0  0  0  0  0  0  0  0  0
    5.8783  -13.2086   25.4421 C   0  0  0  0  0  0  0  0  0  0  0  0
    6.6374  -13.0188   27.0861 S   0  0  0  0  0  0  0  0  0  0  0  0
    7.0814  -14.8860   24.0990 C   0  0  0  0  0  0  0  0  0  0  0  0
    7.9440  -15.7057   24.4546 O   0  0  0  0  0  0  0  0  0  0  0  0
    7.1343  -14.2036   22.8681 N   0  0  0  0  0  0  0  0  0  0  0  0
    8.1029  -14.3331   21.8229 C   0  0  1  0  0  0  0  0  0  0  0  0
    7.7341  -13.6244   20.5352 C   0  0  0  0  0  0  0  0  0  0  0  0
    8.7025  -13.9689   19.4307 C   0  0  0  0  0  0  0  0  0  0  0  0
    7.9899  -14.1086   18.0937 C   0  0  0  0  0  0  0  0  0  0  0  0
    8.9107  -14.5618   17.0086 C   0  0  0  0  0  0  0  0  0  0  0  0
    8.1567  -14.7734   15.7955 N   0  0  0  0  0  0  0  0  0  0  0  0
    9.4920  -14.3024   22.2082 C   0  0  0  0  0  0  0  0  0  0  0  0
   10.1248  -13.2103   22.1301 O   0  0  0  0  0  0  0  0  0  0  0  0
   10.9440  -15.9251   30.3708 O   0  0  0  0  0  0  0  0  0  0  0  0
   10.5451  -15.8450   29.0532 C   0  0  0  0  0  0  0  0  0  0  0  0
   10.4789  -16.9403   28.2227 C   0  0  0  0  0  0  0  0  0  0  0  0
   10.0767  -16.8309   26.9106 C   0  0  0  0  0  0  0  0  0  0  0  0
    9.7176  -15.5939   26.3685 C   0  0  0  0  0  0  0  0  0  0  0  0
    9.3115  -15.5183   24.9474 C   0  0  0  0  0  0  0  0  0  0  0  0
   10.5285  -15.6539   24.0747 C   0  0  2  0  0  0  0  0  0  0  0  0
   10.1971  -15.4272   22.6723 N   0  0  0  0  0  0  0  0  0  0  0  0
   11.3081  -16.8750   24.2719 C   0  0  0  0  0  0  0  0  0  0  0  0
   11.9378  -17.1259   25.3274 O   0  0  0  0  0  0  0  0  0  0  0  0
    9.7793  -14.4901   27.1875 C   0  0  0  0  0  0  0  0  0  0  0  0
   10.1891  -14.6340   28.5067 C   0  0  0  0  0  0  0  0  0  0  0  0
   11.4196  -17.8773   23.2914 O   0  0  0  0  0  0  0  0  0  0  0  0
  2  5  1  0
  2  1  1  1
  3  4  1  0
  3  2  1  0
  5  6  2  0
  7  8  1  0
  7  5  1  0
  8  9  1  6
 10  9  1  0
 11 10  1  0
 11 12  1  0
 13 12  1  0
 14 15  2  0
 14  8  1  0
 16 17  1  0
 17 18  2  0
 17 27  1  0
 18 19  1  0
 19 20  2  0
 20 26  1  0
 20 21  1  0
 22 21  1  1
 22 24  1  0
 22 23  1  0
 23 14  1  0
 24 28  1  0
 25 24  2  0
 27 26  2  0
M  END
$$$$
