CKY.pdb
     RDKit          3D

 28 28  0  0  1  0  0  0  0  0999 V2000
    7.0981  -13.7952   18.1493 N   0  0  0  0  0  0  0  0  0  0  0  0
    8.3260  -13.8520   18.8921 C   0  0  1  0  0  0  0  0  0  0  0  0
    8.5836  -12.5375   19.5540 C   0  0  0  0  0  0  0  0  0  0  0  0
    9.0875  -11.3586   18.2611 S   0  0  0  0  0  0  0  0  0  0  0  0
    8.2433  -14.9475   19.9290 C   0  0  0  0  0  0  0  0  0  0  0  0
    7.2135  -14.9588   20.6234 O   0  0  0  0  0  0  0  0  0  0  0  0
    9.2808  -15.8876   20.0821 N   0  0  0  0  0  0  0  0  0  0  0  0
    9.4243  -16.8944   21.0886 C   0  0  1  0  0  0  0  0  0  0  0  0
    9.8197  -18.2582   20.5591 C   0  0  0  0  0  0  0  0  0  0  0  0
    9.9184  -19.2659   21.6776 C   0  0  0  0  0  0  0  0  0  0  0  0
   10.2879  -20.6441   21.1496 C   0  0  0  0  0  0  0  0  0  0  0  0
   10.3929  -21.6570   22.2422 C   0  0  0  0  0  0  0  0  0  0  0  0
   10.8864  -22.9006   21.6991 N   0  0  0  0  0  0  0  0  0  0  0  0
   10.0069  -16.4893   22.3437 C   0  0  0  0  0  0  0  0  0  0  0  0
   11.2258  -16.1535   22.3726 O   0  0  0  0  0  0  0  0  0  0  0  0
   11.1489  -14.0888   30.7415 O   0  0  0  0  0  0  0  0  0  0  0  0
   10.5913  -14.4064   29.5210 C   0  0  0  0  0  0  0  0  0  0  0  0
   10.3660  -13.4733   28.5348 C   0  0  0  0  0  0  0  0  0  0  0  0
    9.8076  -13.8189   27.3249 C   0  0  0  0  0  0  0  0  0  0  0  0
    9.4458  -15.1407   27.0503 C   0  0  0  0  0  0  0  0  0  0  0  0
    8.8289  -15.4645   25.7446 C   0  0  0  0  0  0  0  0  0  0  0  0
    9.8784  -16.0227   24.8237 C   0  0  2  0  0  0  0  0  0  0  0  0
    9.2941  -16.4433   23.5550 N   0  0  0  0  0  0  0  0  0  0  0  0
   10.7415  -17.0492   25.4063 C   0  0  0  0  0  0  0  0  0  0  0  0
   10.4140  -18.2573   25.4887 O   0  0  0  0  0  0  0  0  0  0  0  0
    9.6650  -16.0840   28.0274 C   0  0  0  0  0  0  0  0  0  0  0  0
   10.2303  -15.7031   29.2374 C   0  0  0  0  0  0  0  0  0  0  0  0
   12.0180  -16.7693   25.9264 O   0  0  0  0  0  0  0  0  0  0  0  0
  2  5  1  0
  2  1  1  1
  3  4  1  0
  3  2  1  0
  5  6  2  0
  7  8  1  0
  7  5  1  0
  8  9  1  6
 10  9  1  0
 11 10  1  0
 11 12  1  0
 13 12  1  0
 14 15  2  0
 14  8  1  0
 16 17  1  0
 17 18  2  0
 17 27  1  0
 18 19  1  0
 19 20  2  0
 20 26  1  0
 20 21  1  0
 22 21  1  1
 22 24  1  0
 22 23  1  0
 23 14  1  0
 24 28  1  0
 25 24  2  0
 27 26  2  0
M  END
$$$$
