CKY.pdb
     RDKit          3D

 28 28  0  0  1  0  0  0  0  0999 V2000
    5.8560  -18.0476   23.1387 N   0  0  0  0  0  0  0  0  0  0  0  0
    6.6508  -18.4513   22.0127 C   0  0  1  0  0  0  0  0  0  0  0  0
    5.7654  -18.9235   20.9057 C   0  0  0  0  0  0  0  0  0  0  0  0
    4.8439  -20.3705   21.5158 S   0  0  0  0  0  0  0  0  0  0  0  0
    7.4943  -17.2894   21.5426 C   0  0  0  0  0  0  0  0  0  0  0  0
    8.3152  -17.5445   20.6461 O   0  0  0  0  0  0  0  0  0  0  0  0
    7.3429  -16.0048   22.0999 N   0  0  0  0  0  0  0  0  0  0  0  0
    8.1093  -14.8263   21.8334 C   0  0  1  0  0  0  0  0  0  0  0  0
    7.2919  -13.6399   21.3637 C   0  0  0  0  0  0  0  0  0  0  0  0
    6.8529  -13.8173   19.9312 C   0  0  0  0  0  0  0  0  0  0  0  0
    7.9394  -13.3776   18.9611 C   0  0  0  0  0  0  0  0  0  0  0  0
    7.5010  -13.4845   17.5374 C   0  0  0  0  0  0  0  0  0  0  0  0
    8.5848  -13.0879   16.6695 N   0  0  0  0  0  0  0  0  0  0  0  0
    9.2129  -14.5472   22.7184 C   0  0  0  0  0  0  0  0  0  0  0  0
    9.4681  -13.3455   23.0183 O   0  0  0  0  0  0  0  0  0  0  0  0
   10.6766  -15.2638   31.0290 O   0  0  0  0  0  0  0  0  0  0  0  0
   10.3147  -15.2883   29.6987 C   0  0  0  0  0  0  0  0  0  0  0  0
   10.1235  -14.1473   28.9533 C   0  0  0  0  0  0  0  0  0  0  0  0
    9.7623  -14.2016   27.6260 C   0  0  0  0  0  0  0  0  0  0  0  0
    9.5748  -15.4269   26.9804 C   0  0  0  0  0  0  0  0  0  0  0  0
    9.1659  -15.4390   25.5581 C   0  0  0  0  0  0  0  0  0  0  0  0
   10.3840  -15.6045   24.6921 C   0  0  2  0  0  0  0  0  0  0  0  0
   10.0348  -15.5422   23.2771 N   0  0  0  0  0  0  0  0  0  0  0  0
   11.2250  -16.7583   25.0074 C   0  0  0  0  0  0  0  0  0  0  0  0
   12.3577  -16.6592   25.5373 O   0  0  0  0  0  0  0  0  0  0  0  0
    9.7622  -16.5758   27.7137 C   0  0  0  0  0  0  0  0  0  0  0  0
   10.1266  -16.4870   29.0509 C   0  0  0  0  0  0  0  0  0  0  0  0
   10.8349  -18.0835   24.7428 O   0  0  0  0  0  0  0  0  0  0  0  0
  2  5  1  0
  2  1  1  1
  3  4  1  0
  3  2  1  0
  5  6  2  0
  7  8  1  0
  7  5  1  0
  8  9  1  1
 10  9  1  0
 11 10  1  0
 11 12  1  0
 13 12  1  0
 14 15  2  0
 14  8  1  0
 16 17  1  0
 17 18  2  0
 17 27  1  0
 18 19  1  0
 19 20  2  0
 20 26  1  0
 20 21  1  0
 22 21  1  1
 22 24  1  0
 22 23  1  0
 23 14  1  0
 24 28  1  0
 25 24  2  0
 27 26  2  0
M  END
$$$$
