CKY.pdb
     RDKit          3D

 28 28  0  0  1  0  0  0  0  0999 V2000
    3.0070  -21.7151   21.7547 N   0  0  0  0  0  0  0  0  0  0  0  0
    3.1536  -20.2888   21.6713 C   0  0  1  0  0  0  0  0  0  0  0  0
    2.3965  -19.6320   22.7793 C   0  0  0  0  0  0  0  0  0  0  0  0
    0.6994  -19.3379   22.1888 S   0  0  0  0  0  0  0  0  0  0  0  0
    4.6168  -19.9219   21.7541 C   0  0  0  0  0  0  0  0  0  0  0  0
    5.2417  -20.4025   22.7138 O   0  0  0  0  0  0  0  0  0  0  0  0
    5.2152  -19.0853   20.7920 N   0  0  0  0  0  0  0  0  0  0  0  0
    6.5358  -18.5347   20.7936 C   0  0  1  0  0  0  0  0  0  0  0  0
    7.0636  -18.1676   19.4213 C   0  0  0  0  0  0  0  0  0  0  0  0
    8.5146  -17.7597   19.4901 C   0  0  0  0  0  0  0  0  0  0  0  0
    9.0890  -17.5224   18.1014 C   0  0  0  0  0  0  0  0  0  0  0  0
   10.5390  -17.1668   18.1442 C   0  0  0  0  0  0  0  0  0  0  0  0
   10.9824  -16.7965   16.8209 N   0  0  0  0  0  0  0  0  0  0  0  0
    6.8768  -17.6503   21.8802 C   0  0  0  0  0  0  0  0  0  0  0  0
    6.0878  -16.7057   22.1711 O   0  0  0  0  0  0  0  0  0  0  0  0
    7.7810  -21.9729   27.3283 O   0  0  0  0  0  0  0  0  0  0  0  0
    7.6878  -20.7384   26.7211 C   0  0  0  0  0  0  0  0  0  0  0  0
    6.6584  -20.3961   25.8742 C   0  0  0  0  0  0  0  0  0  0  0  0
    6.5905  -19.1553   25.2816 C   0  0  0  0  0  0  0  0  0  0  0  0
    7.5719  -18.1892   25.5195 C   0  0  0  0  0  0  0  0  0  0  0  0
    7.4713  -16.8758   24.8451 C   0  0  0  0  0  0  0  0  0  0  0  0
    8.4363  -16.8334   23.6927 C   0  0  2  0  0  0  0  0  0  0  0  0
    8.0484  -17.7747   22.6479 N   0  0  0  0  0  0  0  0  0  0  0  0
    9.8484  -16.9529   24.0530 C   0  0  0  0  0  0  0  0  0  0  0  0
   10.4287  -16.1593   24.8322 O   0  0  0  0  0  0  0  0  0  0  0  0
    8.6072  -18.5181   26.3639 C   0  0  0  0  0  0  0  0  0  0  0  0
    8.6467  -19.7783   26.9461 C   0  0  0  0  0  0  0  0  0  0  0  0
   10.6805  -17.9717   23.5552 O   0  0  0  0  0  0  0  0  0  0  0  0
  2  5  1  0
  2  1  1  1
  3  4  1  0
  3  2  1  0
  5  6  2  0
  7  8  1  0
  7  5  1  0
  8  9  1  6
 10  9  1  0
 11 10  1  0
 11 12  1  0
 13 12  1  0
 14 15  2  0
 14  8  1  0
 16 17  1  0
 17 18  2  0
 17 27  1  0
 18 19  1  0
 19 20  2  0
 20 26  1  0
 20 21  1  0
 22 21  1  1
 22 24  1  0
 22 23  1  0
 23 14  1  0
 24 28  1  0
 25 24  2  0
 27 26  2  0
M  END
$$$$
