KIN.pdb
     RDKit          3D

 26 25  0  0  1  0  0  0  0  0999 V2000
   20.4869  -20.2829  -11.4818 N   0  0  0  0  0  0  0  0  0  0  0  0
   21.2099  -20.8210  -12.5657 C   0  0  1  0  0  0  0  0  0  0  0  0
   20.6045  -20.5739  -13.9171 C   0  0  0  0  0  0  0  0  0  0  0  0
   19.3587  -21.3011  -14.2324 C   0  0  0  0  0  0  0  0  0  0  0  0
   19.3860  -22.7835  -14.0893 C   0  0  0  0  0  0  0  0  0  0  0  0
   18.1169  -23.4909  -14.4082 C   0  0  0  0  0  0  0  0  0  0  0  0
   17.0539  -22.6731  -14.8855 N   0  0  0  0  0  0  0  0  0  0  0  0
   22.6347  -20.3301  -12.6362 C   0  0  0  0  0  0  0  0  0  0  0  0
   22.7750  -19.0825  -12.4756 O   0  0  0  0  0  0  0  0  0  0  0  0
   25.8048  -20.9096   -8.9733 C   0  0  0  0  0  0  0  0  0  0  0  0
   25.1066  -20.4657  -10.2475 C   0  0  0  0  0  0  0  0  0  0  0  0
   25.7458  -21.0559  -11.4708 C   0  0  2  0  0  0  0  0  0  0  0  0
   27.2098  -20.7709  -11.4511 C   0  0  0  0  0  0  0  0  0  0  0  0
   25.0755  -20.6481  -12.7539 C   0  0  2  0  0  0  0  0  0  0  0  0
   23.7384  -21.1867  -12.8646 N   0  0  0  0  0  0  0  0  0  0  0  0
   25.8084  -21.1272  -13.9662 C   0  0  0  0  0  0  0  0  0  0  0  0
   26.8959  -20.6054  -14.3622 O   0  0  0  0  0  0  0  0  0  0  0  0
   25.3429  -25.9596  -15.4029 N   0  0  0  0  0  0  0  0  0  0  0  0
   26.0112  -24.8356  -15.9608 C   0  0  0  0  0  0  0  0  0  0  0  0
   27.2558  -24.8172  -15.8309 O   0  0  0  0  0  0  0  0  0  0  0  0
   25.3082  -23.7457  -16.6540 C   0  0  0  0  0  0  0  0  0  0  0  0
   25.7531  -22.4254  -16.1365 C   0  0  2  0  0  0  0  0  0  0  0  0
   25.3456  -22.1967  -14.7621 N   0  0  0  0  0  0  0  0  0  0  0  0
   25.0622  -21.3547  -16.9218 C   0  0  0  0  0  0  0  0  0  0  0  0
   25.8334  -20.6178  -17.8316 O   0  0  0  0  0  0  0  0  0  0  0  0
   23.8575  -21.0595  -16.8375 O   0  0  0  0  0  0  0  0  0  0  0  0
  2  1  1  1
  3  2  1  0
  4  5  1  0
  4  3  1  0
  5  6  1  0
  6  7  1  0
  8  9  2  0
  8  2  1  0
 11 10  1  0
 11 12  1  0
 12 14  1  0
 12 13  1  6
 14 15  1  1
 15  8  1  0
 16 14  1  0
 16 17  2  0
 19 21  1  0
 19 18  1  0
 20 19  2  0
 22 23  1  0
 22 21  1  6
 23 16  1  0
 24 22  1  0
 25 24  1  0
 26 24  2  0
M  END
$$$$
