KIN.pdb
     RDKit          3D

 26 25  0  0  1  0  0  0  0  0999 V2000
   26.4517  -21.4176  -16.8797 N   0  0  0  0  0  0  0  0  0  0  0  0
   25.6550  -20.4564  -16.2252 C   0  0  1  0  0  0  0  0  0  0  0  0
   24.6081  -19.8089  -17.0846 C   0  0  0  0  0  0  0  0  0  0  0  0
   25.0800  -19.1063  -18.2946 C   0  0  0  0  0  0  0  0  0  0  0  0
   25.7462  -17.7890  -18.0953 C   0  0  0  0  0  0  0  0  0  0  0  0
   26.2612  -17.1285  -19.3246 C   0  0  0  0  0  0  0  0  0  0  0  0
   26.9974  -15.9271  -19.1214 N   0  0  0  0  0  0  0  0  0  0  0  0
   24.9408  -20.9981  -15.0118 C   0  0  0  0  0  0  0  0  0  0  0  0
   24.5325  -22.1908  -15.1244 O   0  0  0  0  0  0  0  0  0  0  0  0
   26.2362  -22.1690  -11.0995 C   0  0  0  0  0  0  0  0  0  0  0  0
   25.9944  -20.6693  -11.1182 C   0  0  0  0  0  0  0  0  0  0  0  0
   24.5565  -20.3375  -11.3936 C   0  0  2  0  0  0  0  0  0  0  0  0
   23.7191  -20.7646  -10.2355 C   0  0  0  0  0  0  0  0  0  0  0  0
   24.0621  -20.8622  -12.7136 C   0  0  2  0  0  0  0  0  0  0  0  0
   24.7355  -20.2422  -13.8325 N   0  0  0  0  0  0  0  0  0  0  0  0
   22.6036  -20.6092  -12.9260 C   0  0  0  0  0  0  0  0  0  0  0  0
   22.0819  -19.4578  -12.8080 O   0  0  0  0  0  0  0  0  0  0  0  0
   17.7319  -21.1847  -15.6959 N   0  0  0  0  0  0  0  0  0  0  0  0
   18.3077  -22.0963  -14.7692 C   0  0  0  0  0  0  0  0  0  0  0  0
   17.5017  -22.7514  -14.0711 O   0  0  0  0  0  0  0  0  0  0  0  0
   19.7591  -22.2792  -14.6188 C   0  0  0  0  0  0  0  0  0  0  0  0
   20.2833  -21.4175  -13.5271 C   0  0  2  0  0  0  0  0  0  0  0  0
   21.6964  -21.6327  -13.2739 N   0  0  0  0  0  0  0  0  0  0  0  0
   19.6040  -21.8079  -12.2517 C   0  0  0  0  0  0  0  0  0  0  0  0
   18.4398  -21.1116  -11.8977 O   0  0  0  0  0  0  0  0  0  0  0  0
   19.9838  -22.7004  -11.4740 O   0  0  0  0  0  0  0  0  0  0  0  0
  2  1  1  6
  3  2  1  0
  4  5  1  0
  4  3  1  0
  5  6  1  0
  6  7  1  0
  8  9  2  0
  8  2  1  0
 11 10  1  0
 11 12  1  0
 12 14  1  0
 12 13  1  1
 14 15  1  6
 15  8  1  0
 16 14  1  0
 16 17  2  0
 19 21  1  0
 19 18  1  0
 20 19  2  0
 22 23  1  0
 22 21  1  6
 23 16  1  0
 24 22  1  0
 25 24  1  0
 26 24  2  0
M  END
$$$$
