KIN.pdb
     RDKit          3D

 26 25  0  0  1  0  0  0  0  0999 V2000
   21.5816  -23.6541  -15.9123 N   0  0  0  0  0  0  0  0  0  0  0  0
   21.3602  -23.4665  -14.5329 C   0  0  1  0  0  0  0  0  0  0  0  0
   20.8407  -22.1103  -14.1526 C   0  0  0  0  0  0  0  0  0  0  0  0
   21.6074  -20.9437  -14.6341 C   0  0  0  0  0  0  0  0  0  0  0  0
   21.1198  -19.5975  -14.2232 C   0  0  0  0  0  0  0  0  0  0  0  0
   21.9169  -18.4405  -14.7116 C   0  0  0  0  0  0  0  0  0  0  0  0
   21.9381  -18.2531  -16.1226 N   0  0  0  0  0  0  0  0  0  0  0  0
   20.4082  -24.4742  -13.9379 C   0  0  0  0  0  0  0  0  0  0  0  0
   19.3732  -24.7002  -14.6304 O   0  0  0  0  0  0  0  0  0  0  0  0
   22.0803  -28.9094  -11.2091 C   0  0  0  0  0  0  0  0  0  0  0  0
   21.3268  -27.9644  -12.1296 C   0  0  0  0  0  0  0  0  0  0  0  0
   20.3003  -27.1594  -11.3868 C   0  0  2  0  0  0  0  0  0  0  0  0
   19.3082  -28.0797  -10.7595 C   0  0  0  0  0  0  0  0  0  0  0  0
   19.6683  -26.0782  -12.2196 C   0  0  2  0  0  0  0  0  0  0  0  0
   20.6412  -25.1236  -12.7017 N   0  0  0  0  0  0  0  0  0  0  0  0
   18.6576  -25.2800  -11.4596 C   0  0  0  0  0  0  0  0  0  0  0  0
   18.9802  -24.4049  -10.5982 O   0  0  0  0  0  0  0  0  0  0  0  0
   13.4125  -22.8017  -11.6743 N   0  0  0  0  0  0  0  0  0  0  0  0
   14.7576  -22.7099  -11.2231 C   0  0  0  0  0  0  0  0  0  0  0  0
   14.9580  -21.9552  -10.2452 O   0  0  0  0  0  0  0  0  0  0  0  0
   15.8665  -23.4459  -11.8486 C   0  0  0  0  0  0  0  0  0  0  0  0
   16.2611  -24.6073  -11.0093 C   0  0  2  0  0  0  0  0  0  0  0  0
   17.2675  -25.4396  -11.6430 N   0  0  0  0  0  0  0  0  0  0  0  0
   15.0708  -25.5013  -10.8529 C   0  0  0  0  0  0  0  0  0  0  0  0
   14.2498  -25.2983   -9.7348 O   0  0  0  0  0  0  0  0  0  0  0  0
   14.7445  -26.4136  -11.6319 O   0  0  0  0  0  0  0  0  0  0  0  0
  2  1  1  6
  3  2  1  0
  4  5  1  0
  4  3  1  0
  5  6  1  0
  6  7  1  0
  8  9  2  0
  8  2  1  0
 11 10  1  0
 11 12  1  0
 12 14  1  0
 12 13  1  6
 14 15  1  1
 15  8  1  0
 16 14  1  0
 16 17  2  0
 19 21  1  0
 19 18  1  0
 20 19  2  0
 22 23  1  0
 22 21  1  6
 23 16  1  0
 24 22  1  0
 25 24  1  0
 26 24  2  0
M  END
$$$$
