KIN.pdb
     RDKit          3D

 26 25  0  0  1  0  0  0  0  0999 V2000
   12.2380  -11.0926  -10.1702 N   0  0  0  0  0  0  0  0  0  0  0  0
   13.6417  -11.0177  -10.2757 C   0  0  1  0  0  0  0  0  0  0  0  0
   14.2395  -11.8415  -11.3792 C   0  0  0  0  0  0  0  0  0  0  0  0
   14.0768  -13.3059  -11.2810 C   0  0  0  0  0  0  0  0  0  0  0  0
   12.8088  -13.8824  -11.8087 C   0  0  0  0  0  0  0  0  0  0  0  0
   12.7374  -15.3676  -11.8492 C   0  0  0  0  0  0  0  0  0  0  0  0
   13.8379  -16.0250  -12.4682 N   0  0  0  0  0  0  0  0  0  0  0  0
   14.1526   -9.6108  -10.4640 C   0  0  0  0  0  0  0  0  0  0  0  0
   13.4721   -8.9009  -11.2609 O   0  0  0  0  0  0  0  0  0  0  0  0
   14.1881   -5.9755   -6.9502 C   0  0  0  0  0  0  0  0  0  0  0  0
   14.2158   -6.7023   -8.2839 C   0  0  0  0  0  0  0  0  0  0  0  0
   15.6178   -6.9127   -8.7777 C   0  0  2  0  0  0  0  0  0  0  0  0
   16.3056   -5.5942   -8.8924 C   0  0  0  0  0  0  0  0  0  0  0  0
   15.6941   -7.7371  -10.0334 C   0  0  2  0  0  0  0  0  0  0  0  0
   15.3027   -9.1103   -9.8076 N   0  0  0  0  0  0  0  0  0  0  0  0
   17.0758   -7.7964  -10.6024 C   0  0  0  0  0  0  0  0  0  0  0  0
   17.9867   -8.5364  -10.1182 O   0  0  0  0  0  0  0  0  0  0  0  0
   20.6372   -9.4287  -14.6267 N   0  0  0  0  0  0  0  0  0  0  0  0
   20.3548   -8.5449  -13.5494 C   0  0  0  0  0  0  0  0  0  0  0  0
   21.2864   -7.7830  -13.2061 O   0  0  0  0  0  0  0  0  0  0  0  0
   19.0556   -8.5065  -12.8616 C   0  0  0  0  0  0  0  0  0  0  0  0
   18.7709   -7.1366  -12.3601 C   0  0  2  0  0  0  0  0  0  0  0  0
   17.4714   -7.0332  -11.7215 N   0  0  0  0  0  0  0  0  0  0  0  0
   18.6930   -6.2120  -13.5345 C   0  0  0  0  0  0  0  0  0  0  0  0
   19.8998   -5.7391  -14.0688 O   0  0  0  0  0  0  0  0  0  0  0  0
   17.6458   -5.8239  -14.0809 O   0  0  0  0  0  0  0  0  0  0  0  0
  2  1  1  6
  3  2  1  0
  4  5  1  0
  4  3  1  0
  5  6  1  0
  6  7  1  0
  8  9  2  0
  8  2  1  0
 11 10  1  0
 11 12  1  0
 12 14  1  0
 12 13  1  6
 14 15  1  1
 15  8  1  0
 16 14  1  0
 16 17  2  0
 19 21  1  0
 19 18  1  0
 20 19  2  0
 22 23  1  0
 22 21  1  6
 23 16  1  0
 24 22  1  0
 25 24  1  0
 26 24  2  0
M  END
$$$$
