KIN.pdb
     RDKit          3D

 26 25  0  0  1  0  0  0  0  0999 V2000
   28.3619  -20.9119  -15.6636 N   0  0  0  0  0  0  0  0  0  0  0  0
   27.9418  -19.9921  -14.6815 C   0  0  1  0  0  0  0  0  0  0  0  0
   27.5231  -18.6497  -15.2075 C   0  0  0  0  0  0  0  0  0  0  0  0
   28.2593  -18.1336  -16.3789 C   0  0  0  0  0  0  0  0  0  0  0  0
   27.7856  -18.5708  -17.7217 C   0  0  0  0  0  0  0  0  0  0  0  0
   28.4732  -17.9520  -18.8866 C   0  0  0  0  0  0  0  0  0  0  0  0
   28.0968  -18.4505  -20.1658 N   0  0  0  0  0  0  0  0  0  0  0  0
   26.7986  -20.4992  -13.8378 C   0  0  0  0  0  0  0  0  0  0  0  0
   26.0505  -21.3446  -14.4102 O   0  0  0  0  0  0  0  0  0  0  0  0
   27.4985  -20.5271   -8.4928 C   0  0  0  0  0  0  0  0  0  0  0  0
   27.0503  -21.1338   -9.8115 C   0  0  0  0  0  0  0  0  0  0  0  0
   25.7319  -20.5768  -10.2645 C   0  0  2  0  0  0  0  0  0  0  0  0
   24.6351  -21.1769   -9.4512 C   0  0  0  0  0  0  0  0  0  0  0  0
   25.5087  -20.6944  -11.7472 C   0  0  2  0  0  0  0  0  0  0  0  0
   26.5679  -20.0709  -12.5083 N   0  0  0  0  0  0  0  0  0  0  0  0
   24.2436  -20.0344  -12.1950 C   0  0  0  0  0  0  0  0  0  0  0  0
   24.1811  -18.8029  -12.4969 O   0  0  0  0  0  0  0  0  0  0  0  0
   20.9670  -18.7407  -15.9315 N   0  0  0  0  0  0  0  0  0  0  0  0
   21.0892  -20.0695  -15.4408 C   0  0  0  0  0  0  0  0  0  0  0  0
   20.1668  -20.8562  -15.7517 O   0  0  0  0  0  0  0  0  0  0  0  0
   22.2201  -20.5203  -14.6160 C   0  0  0  0  0  0  0  0  0  0  0  0
   21.9279  -20.3155  -13.1731 C   0  0  2  0  0  0  0  0  0  0  0  0
   23.0228  -20.7319  -12.3158 N   0  0  0  0  0  0  0  0  0  0  0  0
   20.7865  -21.2060  -12.7929 C   0  0  0  0  0  0  0  0  0  0  0  0
   19.5373  -20.6052  -12.5834 O   0  0  0  0  0  0  0  0  0  0  0  0
   20.8493  -22.4388  -12.6454 O   0  0  0  0  0  0  0  0  0  0  0  0
  2  1  1  6
  3  2  1  0
  4  5  1  0
  4  3  1  0
  5  6  1  0
  6  7  1  0
  8  9  2  0
  8  2  1  0
 11 10  1  0
 11 12  1  0
 12 14  1  0
 12 13  1  1
 14 15  1  6
 15  8  1  0
 16 14  1  0
 16 17  2  0
 19 21  1  0
 19 18  1  0
 20 19  2  0
 22 23  1  0
 22 21  1  6
 23 16  1  0
 24 22  1  0
 25 24  1  0
 26 24  2  0
M  END
$$$$
