KIN.pdb
     RDKit          3D

 26 25  0  0  1  0  0  0  0  0999 V2000
   28.3976  -21.4750  -15.6998 N   0  0  0  0  0  0  0  0  0  0  0  0
   27.2824  -20.6360  -15.5012 C   0  0  1  0  0  0  0  0  0  0  0  0
   26.4905  -20.3300  -16.7393 C   0  0  0  0  0  0  0  0  0  0  0  0
   27.1857  -19.5854  -17.8082 C   0  0  0  0  0  0  0  0  0  0  0  0
   28.3264  -18.7198  -17.3978 C   0  0  0  0  0  0  0  0  0  0  0  0
   28.9689  -17.9328  -18.4842 C   0  0  0  0  0  0  0  0  0  0  0  0
   30.1228  -17.1872  -18.1111 N   0  0  0  0  0  0  0  0  0  0  0  0
   26.3038  -21.1728  -14.4863 C   0  0  0  0  0  0  0  0  0  0  0  0
   25.9503  -22.3737  -14.6729 O   0  0  0  0  0  0  0  0  0  0  0  0
   26.7084  -20.3377   -9.1451 C   0  0  0  0  0  0  0  0  0  0  0  0
   26.4259  -20.9959  -10.4848 C   0  0  0  0  0  0  0  0  0  0  0  0
   25.1146  -20.5488  -11.0628 C   0  0  2  0  0  0  0  0  0  0  0  0
   24.0103  -20.9216  -10.1320 C   0  0  0  0  0  0  0  0  0  0  0  0
   24.8899  -21.0179  -12.4740 C   0  0  2  0  0  0  0  0  0  0  0  0
   25.8102  -20.4042  -13.4047 N   0  0  0  0  0  0  0  0  0  0  0  0
   23.5212  -20.6911  -12.9803 C   0  0  0  0  0  0  0  0  0  0  0  0
   23.1108  -19.4991  -13.1297 O   0  0  0  0  0  0  0  0  0  0  0  0
   18.6963  -20.9422  -14.8189 N   0  0  0  0  0  0  0  0  0  0  0  0
   19.2500  -22.2479  -14.9187 C   0  0  0  0  0  0  0  0  0  0  0  0
   18.5273  -23.1099  -15.4671 O   0  0  0  0  0  0  0  0  0  0  0  0
   20.5885  -22.5931  -14.4167 C   0  0  0  0  0  0  0  0  0  0  0  0
   21.2392  -21.4047  -13.8058 C   0  0  2  0  0  0  0  0  0  0  0  0
   22.5820  -21.6844  -13.3305 N   0  0  0  0  0  0  0  0  0  0  0  0
   20.4715  -21.0268  -12.5777 C   0  0  0  0  0  0  0  0  0  0  0  0
   19.5998  -19.9326  -12.6690 O   0  0  0  0  0  0  0  0  0  0  0  0
   20.5395  -21.6011  -11.4772 O   0  0  0  0  0  0  0  0  0  0  0  0
  2  1  1  6
  3  2  1  0
  4  5  1  0
  4  3  1  0
  5  6  1  0
  6  7  1  0
  8  9  2  0
  8  2  1  0
 11 10  1  0
 11 12  1  0
 12 14  1  0
 12 13  1  1
 14 15  1  6
 15  8  1  0
 16 14  1  0
 16 17  2  0
 19 21  1  0
 19 18  1  0
 20 19  2  0
 22 23  1  0
 22 21  1  1
 23 16  1  0
 24 22  1  0
 25 24  1  0
 26 24  2  0
M  END
$$$$
