KIN.pdb
     RDKit          3D

 26 25  0  0  1  0  0  0  0  0999 V2000
   26.9759  -19.2066  -17.2708 N   0  0  0  0  0  0  0  0  0  0  0  0
   25.9208  -18.5705  -16.5859 C   0  0  1  0  0  0  0  0  0  0  0  0
   24.9407  -17.8466  -17.4630 C   0  0  0  0  0  0  0  0  0  0  0  0
   25.4244  -16.6244  -18.1358 C   0  0  0  0  0  0  0  0  0  0  0  0
   26.3413  -16.8083  -19.2952 C   0  0  0  0  0  0  0  0  0  0  0  0
   26.8139  -15.5613  -19.9543 C   0  0  0  0  0  0  0  0  0  0  0  0
   27.7247  -15.7372  -21.0341 N   0  0  0  0  0  0  0  0  0  0  0  0
   25.1145  -19.5106  -15.7246 C   0  0  0  0  0  0  0  0  0  0  0  0
   24.6892  -20.5434  -16.3200 O   0  0  0  0  0  0  0  0  0  0  0  0
   26.0687  -21.8812  -10.3365 C   0  0  0  0  0  0  0  0  0  0  0  0
   25.0542  -21.6999  -11.4527 C   0  0  0  0  0  0  0  0  0  0  0  0
   25.3888  -20.5272  -12.3281 C   0  0  2  0  0  0  0  0  0  0  0  0
   25.4798  -19.2952  -11.4923 C   0  0  0  0  0  0  0  0  0  0  0  0
   24.4709  -20.3800  -13.5104 C   0  0  2  0  0  0  0  0  0  0  0  0
   24.8460  -19.2688  -14.3558 N   0  0  0  0  0  0  0  0  0  0  0  0
   23.0519  -20.1268  -13.1121 C   0  0  0  0  0  0  0  0  0  0  0  0
   22.6886  -19.0795  -12.4934 O   0  0  0  0  0  0  0  0  0  0  0  0
   20.3884  -18.2541  -14.0574 N   0  0  0  0  0  0  0  0  0  0  0  0
   19.7241  -19.3266  -14.7129 C   0  0  0  0  0  0  0  0  0  0  0  0
   19.1260  -19.0355  -15.7730 O   0  0  0  0  0  0  0  0  0  0  0  0
   19.7233  -20.7046  -14.1995 C   0  0  0  0  0  0  0  0  0  0  0  0
   20.6218  -20.8231  -13.0214 C   0  0  2  0  0  0  0  0  0  0  0  0
   22.0087  -21.0343  -13.3944 N   0  0  0  0  0  0  0  0  0  0  0  0
   20.2402  -22.0541  -12.2602 C   0  0  0  0  0  0  0  0  0  0  0  0
   19.1243  -21.9743  -11.4154 O   0  0  0  0  0  0  0  0  0  0  0  0
   20.8297  -23.1475  -12.3113 O   0  0  0  0  0  0  0  0  0  0  0  0
  2  1  1  6
  3  2  1  0
  4  5  1  0
  4  3  1  0
  5  6  1  0
  6  7  1  0
  8  9  2  0
  8  2  1  0
 11 10  1  0
 11 12  1  0
 12 14  1  0
 12 13  1  1
 14 15  1  6
 15  8  1  0
 16 14  1  0
 16 17  2  0
 19 21  1  0
 19 18  1  0
 20 19  2  0
 22 23  1  0
 22 21  1  6
 23 16  1  0
 24 22  1  0
 25 24  1  0
 26 24  2  0
M  END
$$$$
