KSD.pdb
     RDKit          3D

 24 23  0  0  1  0  0  0  0  0999 V2000
    6.2248  -15.6832   19.9945 N   0  0  0  0  0  0  0  0  0  0  0  0
    7.4479  -14.9629   20.0211 C   0  0  1  0  0  0  0  0  0  0  0  0
    7.4535  -13.8273   19.0685 C   0  0  0  0  0  0  0  0  0  0  0  0
    7.6298  -14.2966   17.6582 C   0  0  0  0  0  0  0  0  0  0  0  0
    7.6193  -13.2341   16.6065 C   0  0  0  0  0  0  0  0  0  0  0  0
    7.8718  -13.8175   15.2210 C   0  0  0  0  0  0  0  0  0  0  0  0
    7.8806  -12.7057   14.2893 N   0  0  0  0  0  0  0  0  0  0  0  0
    7.8298  -14.5751   21.4023 C   0  0  0  0  0  0  0  0  0  0  0  0
    7.4023  -13.5468   21.9696 O   0  0  0  0  0  0  0  0  0  0  0  0
    7.3782  -16.1282   24.7325 O   0  0  0  0  0  0  0  0  0  0  0  0
    7.9740  -14.9262   24.4131 C   0  0  0  0  0  0  0  0  0  0  0  0
    9.1443  -15.1145   23.4807 C   0  0  2  0  0  0  0  0  0  0  0  0
    8.7204  -15.4008   22.1220 N   0  0  0  0  0  0  0  0  0  0  0  0
   10.0301  -16.2290   23.9032 C   0  0  0  0  0  0  0  0  0  0  0  0
    9.7272  -17.4305   23.6648 O   0  0  0  0  0  0  0  0  0  0  0  0
   11.2549  -16.0151   24.5916 N   0  0  0  0  0  0  0  0  0  0  0  0
   12.0788  -17.1369   25.0017 C   0  0  1  0  0  0  0  0  0  0  0  0
   13.5358  -16.7323   24.9532 C   0  0  0  0  0  0  0  0  0  0  0  0
   14.0123  -16.5285   23.5770 C   0  0  0  0  0  0  0  0  0  0  0  0
   13.4554  -17.1096   22.6276 O   0  0  0  0  0  0  0  0  0  0  0  0
   11.7059  -17.5643   26.3965 C   0  0  0  0  0  0  0  0  0  0  0  0
   10.7966  -16.8370   27.1442 O   0  0  0  0  0  0  0  0  0  0  0  0
   15.0785  -15.6925   23.3310 O   0  0  0  0  0  0  0  0  0  0  0  0
   12.2024  -18.5845   26.9221 O   0  0  0  0  0  0  0  0  0  0  0  0
  2  1  1  1
  3  2  1  0
  4  3  1  0
  5  4  1  0
  5  6  1  0
  6  7  1  0
  8  2  1  0
  8  9  2  0
 12 11  1  1
 11 10  1  0
 13 12  1  0
 13  8  1  0
 14 15  2  0
 14 12  1  0
 16 14  1  0
 17 21  1  0
 17 16  1  0
 17 18  1  1
 19 23  1  0
 19 18  1  0
 20 19  2  0
 21 22  1  0
 24 21  2  0
M  END
$$$$
