KSD.pdb
     RDKit          3D

 24 23  0  0  1  0  0  0  0  0999 V2000
    9.6313  -18.4638   16.9110 N   0  0  0  0  0  0  0  0  0  0  0  0
   10.5043  -18.8749   17.9523 C   0  0  1  0  0  0  0  0  0  0  0  0
   11.5684  -19.7862   17.4683 C   0  0  0  0  0  0  0  0  0  0  0  0
   12.4551  -19.1107   16.4693 C   0  0  0  0  0  0  0  0  0  0  0  0
   13.5699  -19.9386   15.9153 C   0  0  0  0  0  0  0  0  0  0  0  0
   14.4088  -19.1491   14.9171 C   0  0  0  0  0  0  0  0  0  0  0  0
   15.4528  -20.0390   14.4450 N   0  0  0  0  0  0  0  0  0  0  0  0
   11.0250  -17.7186   18.7242 C   0  0  0  0  0  0  0  0  0  0  0  0
   11.3988  -16.6509   18.1929 O   0  0  0  0  0  0  0  0  0  0  0  0
    9.7390  -17.0883   22.5679 O   0  0  0  0  0  0  0  0  0  0  0  0
   10.3088  -16.1439   21.7402 C   0  0  0  0  0  0  0  0  0  0  0  0
   11.4858  -16.7043   20.9820 C   0  0  2  0  0  0  0  0  0  0  0  0
   11.1076  -17.8174   20.1300 N   0  0  0  0  0  0  0  0  0  0  0  0
   12.5587  -17.1934   21.8847 C   0  0  0  0  0  0  0  0  0  0  0  0
   12.6508  -18.4148   22.1882 O   0  0  0  0  0  0  0  0  0  0  0  0
   13.5334  -16.3300   22.4541 N   0  0  0  0  0  0  0  0  0  0  0  0
   14.5675  -16.8546   23.3263 C   0  0  1  0  0  0  0  0  0  0  0  0
   15.7036  -15.8592   23.4111 C   0  0  0  0  0  0  0  0  0  0  0  0
   16.3420  -15.6295   22.1064 C   0  0  0  0  0  0  0  0  0  0  0  0
   16.4311  -16.5555   21.2795 O   0  0  0  0  0  0  0  0  0  0  0  0
   14.0004  -17.1116   24.6973 C   0  0  0  0  0  0  0  0  0  0  0  0
   12.6951  -16.7684   25.0031 O   0  0  0  0  0  0  0  0  0  0  0  0
   16.8453  -14.3868   21.7920 O   0  0  0  0  0  0  0  0  0  0  0  0
   14.6859  -17.6405   25.5994 O   0  0  0  0  0  0  0  0  0  0  0  0
  2  1  1  6
  3  2  1  0
  4  3  1  0
  5  4  1  0
  5  6  1  0
  6  7  1  0
  8  2  1  0
  8  9  2  0
 12 11  1  1
 11 10  1  0
 13 12  1  0
 13  8  1  0
 14 15  2  0
 14 12  1  0
 16 14  1  0
 17 21  1  0
 17 16  1  0
 17 18  1  1
 19 23  1  0
 19 18  1  0
 20 19  2  0
 21 22  1  0
 24 21  2  0
M  END
$$$$
