KSD.pdb
     RDKit          3D

 24 23  0  0  1  0  0  0  0  0999 V2000
    7.6863  -17.0645   18.2960 N   0  0  0  0  0  0  0  0  0  0  0  0
    8.8692  -16.3645   17.9407 C   0  0  1  0  0  0  0  0  0  0  0  0
    8.6561  -15.4403   16.8016 C   0  0  0  0  0  0  0  0  0  0  0  0
    7.5159  -15.8864   15.9406 C   0  0  0  0  0  0  0  0  0  0  0  0
    7.2032  -15.0188   14.7639 C   0  0  0  0  0  0  0  0  0  0  0  0
    8.0318  -15.4102   13.5458 C   0  0  0  0  0  0  0  0  0  0  0  0
    7.7068  -14.4671   12.4925 N   0  0  0  0  0  0  0  0  0  0  0  0
    9.4997  -15.7143   19.1169 C   0  0  0  0  0  0  0  0  0  0  0  0
   10.5834  -15.0943   19.0597 O   0  0  0  0  0  0  0  0  0  0  0  0
    7.8856  -16.3039   23.0755 O   0  0  0  0  0  0  0  0  0  0  0  0
    8.3620  -15.0761   22.6663 C   0  0  0  0  0  0  0  0  0  0  0  0
    9.4016  -15.2144   21.5826 C   0  0  2  0  0  0  0  0  0  0  0  0
    8.8530  -15.7932   20.3693 N   0  0  0  0  0  0  0  0  0  0  0  0
   10.5397  -16.0734   21.9973 C   0  0  0  0  0  0  0  0  0  0  0  0
   10.6134  -17.2799   21.6351 O   0  0  0  0  0  0  0  0  0  0  0  0
   11.6002  -15.5976   22.8151 N   0  0  0  0  0  0  0  0  0  0  0  0
   12.6938  -16.4734   23.1923 C   0  0  1  0  0  0  0  0  0  0  0  0
   14.0047  -15.7357   23.0307 C   0  0  0  0  0  0  0  0  0  0  0  0
   15.1614  -16.5687   23.3917 C   0  0  0  0  0  0  0  0  0  0  0  0
   15.5422  -17.4774   22.6311 O   0  0  0  0  0  0  0  0  0  0  0  0
   12.5236  -16.9209   24.6199 C   0  0  0  0  0  0  0  0  0  0  0  0
   11.5460  -16.3665   25.4274 O   0  0  0  0  0  0  0  0  0  0  0  0
   15.8305  -16.3478   24.5749 O   0  0  0  0  0  0  0  0  0  0  0  0
   13.2554  -17.8028   25.1200 O   0  0  0  0  0  0  0  0  0  0  0  0
  2  1  1  1
  3  2  1  0
  4  3  1  0
  5  4  1  0
  5  6  1  0
  6  7  1  0
  8  2  1  0
  8  9  2  0
 12 11  1  1
 11 10  1  0
 13 12  1  0
 13  8  1  0
 14 15  2  0
 14 12  1  0
 16 14  1  0
 17 21  1  0
 17 16  1  0
 17 18  1  1
 19 23  1  0
 19 18  1  0
 20 19  2  0
 21 22  1  0
 24 21  2  0
M  END
$$$$
