KSD.pdb
     RDKit          3D

 24 23  0  0  1  0  0  0  0  0999 V2000
   10.8487  -17.7864   16.2563 N   0  0  0  0  0  0  0  0  0  0  0  0
   11.1999  -18.5295   17.4138 C   0  0  1  0  0  0  0  0  0  0  0  0
   12.3366  -19.4489   17.1695 C   0  0  0  0  0  0  0  0  0  0  0  0
   12.2578  -20.0673   15.8087 C   0  0  0  0  0  0  0  0  0  0  0  0
   13.3224  -21.0633   15.4775 C   0  0  0  0  0  0  0  0  0  0  0  0
   13.1442  -21.6242   14.0713 C   0  0  0  0  0  0  0  0  0  0  0  0
   14.3304  -22.4045   13.7739 N   0  0  0  0  0  0  0  0  0  0  0  0
   11.3958  -17.6513   18.5947 C   0  0  0  0  0  0  0  0  0  0  0  0
   12.2200  -16.7122   18.6225 O   0  0  0  0  0  0  0  0  0  0  0  0
    9.5054  -16.3871   22.9151 O   0  0  0  0  0  0  0  0  0  0  0  0
    9.4431  -17.1875   21.7939 C   0  0  0  0  0  0  0  0  0  0  0  0
   10.6545  -17.0091   20.9135 C   0  0  2  0  0  0  0  0  0  0  0  0
   10.6183  -17.8782   19.7510 N   0  0  0  0  0  0  0  0  0  0  0  0
   11.9223  -17.2966   21.6313 C   0  0  0  0  0  0  0  0  0  0  0  0
   12.3425  -18.4787   21.7671 O   0  0  0  0  0  0  0  0  0  0  0  0
   12.7287  -16.2744   22.2010 N   0  0  0  0  0  0  0  0  0  0  0  0
   13.8879  -16.6093   23.0069 C   0  0  1  0  0  0  0  0  0  0  0  0
   14.8858  -15.4740   22.9450 C   0  0  0  0  0  0  0  0  0  0  0  0
   16.2688  -15.9365   23.1344 C   0  0  0  0  0  0  0  0  0  0  0  0
   16.5092  -17.1470   23.2961 O   0  0  0  0  0  0  0  0  0  0  0  0
   13.4684  -16.8534   24.4323 C   0  0  0  0  0  0  0  0  0  0  0  0
   14.1168  -17.7936   25.2137 O   0  0  0  0  0  0  0  0  0  0  0  0
   17.3069  -15.0316   23.1337 O   0  0  0  0  0  0  0  0  0  0  0  0
   12.5259  -16.2185   24.9540 O   0  0  0  0  0  0  0  0  0  0  0  0
  2  1  1  6
  3  2  1  0
  4  3  1  0
  5  4  1  0
  5  6  1  0
  6  7  1  0
  8  2  1  0
  8  9  2  0
 12 11  1  1
 11 10  1  0
 13 12  1  0
 13  8  1  0
 14 15  2  0
 14 12  1  0
 16 14  1  0
 17 21  1  0
 17 16  1  0
 17 18  1  1
 19 23  1  0
 19 18  1  0
 20 19  2  0
 21 22  1  0
 24 21  2  0
M  END
$$$$
