KSD.pdb
     RDKit          3D

 24 23  0  0  1  0  0  0  0  0999 V2000
    7.5871  -17.8216   19.7748 N   0  0  0  0  0  0  0  0  0  0  0  0
    8.9373  -17.3898   19.6981 C   0  0  1  0  0  0  0  0  0  0  0  0
    9.1157  -16.0068   20.2005 C   0  0  0  0  0  0  0  0  0  0  0  0
    8.2873  -15.0312   19.4244 C   0  0  0  0  0  0  0  0  0  0  0  0
    8.2681  -13.6286   19.9416 C   0  0  0  0  0  0  0  0  0  0  0  0
    7.3887  -12.7284   19.0815 C   0  0  0  0  0  0  0  0  0  0  0  0
    7.2810  -11.4575   19.7726 N   0  0  0  0  0  0  0  0  0  0  0  0
    9.8652  -18.3671   20.3208 C   0  0  0  0  0  0  0  0  0  0  0  0
    9.5695  -19.0517   21.3237 O   0  0  0  0  0  0  0  0  0  0  0  0
   13.7887  -18.7511   18.7486 O   0  0  0  0  0  0  0  0  0  0  0  0
   13.1289  -19.8785   19.1904 C   0  0  0  0  0  0  0  0  0  0  0  0
   12.0889  -19.5444   20.2302 C   0  0  2  0  0  0  0  0  0  0  0  0
   11.1498  -18.5412   19.7616 N   0  0  0  0  0  0  0  0  0  0  0  0
   12.6903  -19.0240   21.4843 C   0  0  0  0  0  0  0  0  0  0  0  0
   12.8054  -17.7841   21.6882 O   0  0  0  0  0  0  0  0  0  0  0  0
   13.1661  -19.8767   22.5169 N   0  0  0  0  0  0  0  0  0  0  0  0
   13.7761  -19.3231   23.7114 C   0  0  1  0  0  0  0  0  0  0  0  0
   13.4687  -20.2183   24.8916 C   0  0  0  0  0  0  0  0  0  0  0  0
   12.0958  -20.0369   25.3863 C   0  0  0  0  0  0  0  0  0  0  0  0
   11.3898  -19.1084   24.9520 O   0  0  0  0  0  0  0  0  0  0  0  0
   15.2654  -19.2094   23.5213 C   0  0  0  0  0  0  0  0  0  0  0  0
   16.0560  -18.5716   24.4611 O   0  0  0  0  0  0  0  0  0  0  0  0
   11.5831  -20.8944   26.3340 O   0  0  0  0  0  0  0  0  0  0  0  0
   15.8337  -19.6847   22.5140 O   0  0  0  0  0  0  0  0  0  0  0  0
  2  1  1  1
  3  2  1  0
  4  3  1  0
  5  4  1  0
  5  6  1  0
  6  7  1  0
  8  2  1  0
  8  9  2  0
 12 11  1  6
 11 10  1  0
 13 12  1  0
 13  8  1  0
 14 15  2  0
 14 12  1  0
 16 14  1  0
 17 21  1  0
 17 16  1  0
 17 18  1  1
 19 23  1  0
 19 18  1  0
 20 19  2  0
 21 22  1  0
 24 21  2  0
M  END
$$$$
