KSD.pdb
     RDKit          3D

 24 23  0  0  1  0  0  0  0  0999 V2000
    9.8958  -15.1526   13.0119 N   0  0  0  0  0  0  0  0  0  0  0  0
   10.0902  -15.9931   14.1394 C   0  0  1  0  0  0  0  0  0  0  0  0
   10.8420  -17.2248   13.8008 C   0  0  0  0  0  0  0  0  0  0  0  0
   10.1623  -18.4459   14.3368 C   0  0  0  0  0  0  0  0  0  0  0  0
   10.7683  -19.7572   13.9514 C   0  0  0  0  0  0  0  0  0  0  0  0
   10.0184  -20.9253   14.5812 C   0  0  0  0  0  0  0  0  0  0  0  0
   10.6877  -22.1384   14.1514 N   0  0  0  0  0  0  0  0  0  0  0  0
   10.6643  -15.2497   15.2891 C   0  0  0  0  0  0  0  0  0  0  0  0
   11.7325  -14.6042   15.2247 O   0  0  0  0  0  0  0  0  0  0  0  0
    8.8937  -15.5669   19.2086 O   0  0  0  0  0  0  0  0  0  0  0  0
    9.3580  -14.3632   18.7215 C   0  0  0  0  0  0  0  0  0  0  0  0
   10.4508  -14.5591   17.7008 C   0  0  2  0  0  0  0  0  0  0  0  0
    9.9790  -15.2652   16.5232 N   0  0  0  0  0  0  0  0  0  0  0  0
   11.5969  -15.3334   18.2412 C   0  0  0  0  0  0  0  0  0  0  0  0
   12.2285  -16.1543   17.5205 O   0  0  0  0  0  0  0  0  0  0  0  0
   12.0468  -15.2002   19.5827 N   0  0  0  0  0  0  0  0  0  0  0  0
   13.4560  -15.3227   19.9062 C   0  0  1  0  0  0  0  0  0  0  0  0
   14.2089  -14.1503   19.3169 C   0  0  0  0  0  0  0  0  0  0  0  0
   15.5697  -14.5162   18.8966 C   0  0  0  0  0  0  0  0  0  0  0  0
   16.0428  -15.6269   19.1993 O   0  0  0  0  0  0  0  0  0  0  0  0
   13.6381  -15.3573   21.4005 C   0  0  0  0  0  0  0  0  0  0  0  0
   12.5983  -15.0267   22.2517 O   0  0  0  0  0  0  0  0  0  0  0  0
   16.3291  -13.6306   18.1648 O   0  0  0  0  0  0  0  0  0  0  0  0
   14.7282  -15.6839   21.9186 O   0  0  0  0  0  0  0  0  0  0  0  0
  2  1  1  6
  3  2  1  0
  4  3  1  0
  5  4  1  0
  5  6  1  0
  6  7  1  0
  8  2  1  0
  8  9  2  0
 12 11  1  1
 11 10  1  0
 13 12  1  0
 13  8  1  0
 14 15  2  0
 14 12  1  0
 16 14  1  0
 17 21  1  0
 17 16  1  0
 17 18  1  1
 19 23  1  0
 19 18  1  0
 20 19  2  0
 21 22  1  0
 24 21  2  0
M  END
$$$$
