KSD.pdb
     RDKit          3D

 24 23  0  0  1  0  0  0  0  0999 V2000
    7.5622  -12.8552   18.1740 N   0  0  0  0  0  0  0  0  0  0  0  0
    7.7551  -14.0552   18.9076 C   0  0  1  0  0  0  0  0  0  0  0  0
    8.3434  -15.1338   18.0785 C   0  0  0  0  0  0  0  0  0  0  0  0
    7.5219  -15.3934   16.8544 C   0  0  0  0  0  0  0  0  0  0  0  0
    8.0863  -16.3784   15.8817 C   0  0  0  0  0  0  0  0  0  0  0  0
    8.6410  -17.6083   16.5910 C   0  0  0  0  0  0  0  0  0  0  0  0
    9.1280  -18.5065   15.5611 N   0  0  0  0  0  0  0  0  0  0  0  0
    8.4935  -13.8156   20.1731 C   0  0  0  0  0  0  0  0  0  0  0  0
    9.4097  -12.9729   20.2842 O   0  0  0  0  0  0  0  0  0  0  0  0
    6.8331  -15.0702   23.7234 O   0  0  0  0  0  0  0  0  0  0  0  0
    7.8820  -14.1748   23.7243 C   0  0  0  0  0  0  0  0  0  0  0  0
    8.8391  -14.4362   22.5885 C   0  0  2  0  0  0  0  0  0  0  0  0
    8.1535  -14.5715   21.3158 N   0  0  0  0  0  0  0  0  0  0  0  0
    9.6299  -15.6768   22.7897 C   0  0  0  0  0  0  0  0  0  0  0  0
    9.2038  -16.7952   22.3898 O   0  0  0  0  0  0  0  0  0  0  0  0
   10.8961  -15.6818   23.4352 N   0  0  0  0  0  0  0  0  0  0  0  0
   11.5558  -16.9325   23.7607 C   0  0  1  0  0  0  0  0  0  0  0  0
   13.0440  -16.6944   23.8918 C   0  0  0  0  0  0  0  0  0  0  0  0
   13.6900  -16.4731   22.5895 C   0  0  0  0  0  0  0  0  0  0  0  0
   14.6365  -17.1960   22.2275 O   0  0  0  0  0  0  0  0  0  0  0  0
   11.0036  -17.4836   25.0486 C   0  0  0  0  0  0  0  0  0  0  0  0
   11.4586  -18.6859   25.5609 O   0  0  0  0  0  0  0  0  0  0  0  0
   13.2509  -15.4637   21.7621 O   0  0  0  0  0  0  0  0  0  0  0  0
   10.1212  -16.8767   25.6939 O   0  0  0  0  0  0  0  0  0  0  0  0
  2  1  1  6
  3  2  1  0
  4  3  1  0
  5  4  1  0
  5  6  1  0
  6  7  1  0
  8  2  1  0
  8  9  2  0
 12 11  1  1
 11 10  1  0
 13 12  1  0
 13  8  1  0
 14 15  2  0
 14 12  1  0
 16 14  1  0
 17 21  1  0
 17 16  1  0
 17 18  1  1
 19 23  1  0
 19 18  1  0
 20 19  2  0
 21 22  1  0
 24 21  2  0
M  END
$$$$
