KSD.pdb
     RDKit          3D

 24 23  0  0  1  0  0  0  0  0999 V2000
    7.6046  -12.7746   17.5522 N   0  0  0  0  0  0  0  0  0  0  0  0
    7.9040  -14.0207   18.1629 C   0  0  1  0  0  0  0  0  0  0  0  0
    8.6672  -14.9192   17.2644 C   0  0  0  0  0  0  0  0  0  0  0  0
    7.9447  -15.1449   15.9731 C   0  0  0  0  0  0  0  0  0  0  0  0
    8.5217  -16.1889   15.0717 C   0  0  0  0  0  0  0  0  0  0  0  0
    7.6983  -16.3439   13.7983 C   0  0  0  0  0  0  0  0  0  0  0  0
    8.4452  -17.2201   12.9159 N   0  0  0  0  0  0  0  0  0  0  0  0
    8.5351  -13.8447   19.4950 C   0  0  0  0  0  0  0  0  0  0  0  0
    9.5688  -13.1671   19.6807 O   0  0  0  0  0  0  0  0  0  0  0  0
    6.6294  -15.5519   22.8799 O   0  0  0  0  0  0  0  0  0  0  0  0
    7.3742  -14.3979   23.0036 C   0  0  0  0  0  0  0  0  0  0  0  0
    8.4658  -14.3248   21.9655 C   0  0  2  0  0  0  0  0  0  0  0  0
    7.9482  -14.4693   20.6167 N   0  0  0  0  0  0  0  0  0  0  0  0
    9.4941  -15.3798   22.1514 C   0  0  0  0  0  0  0  0  0  0  0  0
    9.4776  -16.4368   21.4624 O   0  0  0  0  0  0  0  0  0  0  0  0
   10.5445  -15.2666   23.1019 N   0  0  0  0  0  0  0  0  0  0  0  0
   11.4864  -16.3530   23.2968 C   0  0  1  0  0  0  0  0  0  0  0  0
   12.8966  -15.8262   23.1463 C   0  0  0  0  0  0  0  0  0  0  0  0
   13.9077  -16.8756   23.3434 C   0  0  0  0  0  0  0  0  0  0  0  0
   13.7260  -18.0170   22.8814 O   0  0  0  0  0  0  0  0  0  0  0  0
   11.3008  -16.9534   24.6651 C   0  0  0  0  0  0  0  0  0  0  0  0
   11.8752  -18.1692   24.9924 O   0  0  0  0  0  0  0  0  0  0  0  0
   15.0626  -16.6009   24.0412 O   0  0  0  0  0  0  0  0  0  0  0  0
   10.6256  -16.3770   25.5456 O   0  0  0  0  0  0  0  0  0  0  0  0
  2  1  1  6
  3  2  1  0
  4  3  1  0
  5  4  1  0
  5  6  1  0
  6  7  1  0
  8  2  1  0
  8  9  2  0
 12 11  1  1
 11 10  1  0
 13 12  1  0
 13  8  1  0
 14 15  2  0
 14 12  1  0
 16 14  1  0
 17 21  1  0
 17 16  1  0
 17 18  1  1
 19 23  1  0
 19 18  1  0
 20 19  2  0
 21 22  1  0
 24 21  2  0
M  END
$$$$
