SAI.pdb
     RDKit          3D

 20 19  0  0  1  0  0  0  0  0999 V2000
    9.5964  -16.6794   19.3095 O   0  0  0  0  0  0  0  0  0  0  0  0
    9.0900  -17.7336   20.0275 C   0  0  0  0  0  0  0  0  0  0  0  0
    7.5952  -17.6274   20.2480 C   0  0  2  0  0  0  0  0  0  0  0  0
    6.9688  -16.8658   19.1883 N   0  0  0  0  0  0  0  0  0  0  0  0
    7.2738  -17.0787   21.5860 C   0  0  0  0  0  0  0  0  0  0  0  0
    6.8265  -15.8920   21.7229 O   0  0  0  0  0  0  0  0  0  0  0  0
    6.9784  -18.4573   25.0396 C   0  0  0  0  0  0  0  0  0  0  0  0
    6.9754  -17.3014   24.0599 C   0  0  2  0  0  0  0  0  0  0  0  0
    7.4372  -17.8192   22.7867 N   0  0  0  0  0  0  0  0  0  0  0  0
    7.8689  -16.2422   24.5802 C   0  0  0  0  0  0  0  0  0  0  0  0
    9.0829  -16.2459   24.2314 O   0  0  0  0  0  0  0  0  0  0  0  0
    5.7697  -11.7674   27.4409 C   0  0  0  0  0  0  0  0  0  0  0  0
    6.3981  -13.1244   27.1524 C   0  0  0  0  0  0  0  0  0  0  0  0
    7.5712  -12.8781   26.2035 C   0  0  2  0  0  0  0  0  0  0  0  0
    6.9809  -12.4156   24.8887 C   0  0  0  0  0  0  0  0  0  0  0  0
    8.3286  -14.1606   25.9397 C   0  0  2  0  0  0  0  0  0  0  0  0
    7.4571  -15.2117   25.4516 N   0  0  0  0  0  0  0  0  0  0  0  0
    8.9054  -14.6117   27.2134 C   0  0  0  0  0  0  0  0  0  0  0  0
    8.4456  -15.6240   27.7771 O   0  0  0  0  0  0  0  0  0  0  0  0
    9.9465  -13.9285   27.7887 O   0  0  0  0  0  0  0  0  0  0  0  0
  2  1  1  0
  3  2  1  0
  3  4  1  6
  5  3  1  0
  5  9  1  0
  6  5  2  0
  8 10  1  0
  8  9  1  0
  8  7  1  1
 10 17  1  0
 11 10  2  0
 13 12  1  0
 14 13  1  0
 14 15  1  6
 16 14  1  0
 16 17  1  1
 18 16  1  0
 19 18  2  0
 20 18  1  0
M  END
$$$$
