SAI.pdb
     RDKit          3D

 20 19  0  0  1  0  0  0  0  0999 V2000
   11.6451  -17.8480   20.4625 O   0  0  0  0  0  0  0  0  0  0  0  0
   10.5280  -18.6148   20.2439 C   0  0  0  0  0  0  0  0  0  0  0  0
    9.3593  -17.8091   19.7156 C   0  0  2  0  0  0  0  0  0  0  0  0
    9.7931  -16.8729   18.7003 N   0  0  0  0  0  0  0  0  0  0  0  0
    8.6173  -17.1353   20.8064 C   0  0  0  0  0  0  0  0  0  0  0  0
    8.5453  -15.8633   20.8685 O   0  0  0  0  0  0  0  0  0  0  0  0
    6.3320  -18.2329   23.5520 C   0  0  0  0  0  0  0  0  0  0  0  0
    7.0642  -17.1630   22.7676 C   0  0  2  0  0  0  0  0  0  0  0  0
    7.9470  -17.8426   21.8395 N   0  0  0  0  0  0  0  0  0  0  0  0
    7.8147  -16.3133   23.7193 C   0  0  0  0  0  0  0  0  0  0  0  0
    9.0538  -16.5110   23.8638 O   0  0  0  0  0  0  0  0  0  0  0  0
    7.1980  -10.9587   26.7945 C   0  0  0  0  0  0  0  0  0  0  0  0
    8.0175  -12.2298   26.6144 C   0  0  0  0  0  0  0  0  0  0  0  0
    7.1829  -13.1783   25.7537 C   0  0  2  0  0  0  0  0  0  0  0  0
    6.0307  -13.6507   26.6142 C   0  0  0  0  0  0  0  0  0  0  0  0
    7.9886  -14.3959   25.3582 C   0  0  2  0  0  0  0  0  0  0  0  0
    7.2377  -15.2816   24.4897 N   0  0  0  0  0  0  0  0  0  0  0  0
    8.3120  -15.1381   26.5842 C   0  0  0  0  0  0  0  0  0  0  0  0
    9.1679  -14.6895   27.3717 O   0  0  0  0  0  0  0  0  0  0  0  0
    7.6801  -16.3214   26.8706 O   0  0  0  0  0  0  0  0  0  0  0  0
  2  1  1  0
  3  2  1  0
  3  4  1  6
  5  3  1  0
  5  9  1  0
  6  5  2  0
  8 10  1  0
  8  9  1  0
  8  7  1  1
 10 17  1  0
 11 10  2  0
 13 12  1  0
 14 13  1  0
 14 15  1  1
 16 14  1  0
 16 17  1  6
 18 16  1  0
 19 18  2  0
 20 18  1  0
M  END
$$$$
