SAI.pdb
     RDKit          3D

 20 19  0  0  1  0  0  0  0  0999 V2000
   11.0189  -19.6733   20.5439 O   0  0  0  0  0  0  0  0  0  0  0  0
   11.1453  -18.3090   20.6216 C   0  0  0  0  0  0  0  0  0  0  0  0
   10.1593  -17.5783   19.7338 C   0  0  2  0  0  0  0  0  0  0  0  0
   10.7779  -17.1893   18.4842 N   0  0  0  0  0  0  0  0  0  0  0  0
    9.5447  -16.4230   20.4283 C   0  0  0  0  0  0  0  0  0  0  0  0
   10.2015  -15.3485   20.6307 O   0  0  0  0  0  0  0  0  0  0  0  0
    6.1630  -15.5442   21.7612 C   0  0  0  0  0  0  0  0  0  0  0  0
    7.6424  -15.2734   21.5766 C   0  0  2  0  0  0  0  0  0  0  0  0
    8.2081  -16.4291   20.9082 N   0  0  0  0  0  0  0  0  0  0  0  0
    8.2500  -15.0559   22.9088 C   0  0  0  0  0  0  0  0  0  0  0  0
    9.5069  -15.1124   23.0199 O   0  0  0  0  0  0  0  0  0  0  0  0
    5.8734  -11.3472   25.9951 C   0  0  0  0  0  0  0  0  0  0  0  0
    6.9913  -12.1121   25.2989 C   0  0  0  0  0  0  0  0  0  0  0  0
    7.2039  -13.4042   26.0878 C   0  0  2  0  0  0  0  0  0  0  0  0
    7.9085  -13.0221   27.3717 C   0  0  0  0  0  0  0  0  0  0  0  0
    8.1090  -14.3527   25.3333 C   0  0  2  0  0  0  0  0  0  0  0  0
    7.5158  -14.7854   24.0829 N   0  0  0  0  0  0  0  0  0  0  0  0
    8.3096  -15.5434   26.1703 C   0  0  0  0  0  0  0  0  0  0  0  0
    9.1308  -15.5100   27.1074 O   0  0  0  0  0  0  0  0  0  0  0  0
    7.6006  -16.6928   25.9297 O   0  0  0  0  0  0  0  0  0  0  0  0
  2  1  1  0
  3  2  1  0
  3  4  1  6
  5  3  1  0
  5  9  1  0
  6  5  2  0
  8 10  1  0
  8  9  1  0
  8  7  1  1
 10 17  1  0
 11 10  2  0
 13 12  1  0
 14 13  1  0
 14 15  1  1
 16 14  1  0
 16 17  1  6
 18 16  1  0
 19 18  2  0
 20 18  1  0
M  END
$$$$
