SAI.pdb
     RDKit          3D

 20 19  0  0  1  0  0  0  0  0999 V2000
    8.1995  -16.7871   19.9176 O   0  0  0  0  0  0  0  0  0  0  0  0
    8.0645  -18.1213   20.2091 C   0  0  0  0  0  0  0  0  0  0  0  0
    6.6763  -18.4755   20.7006 C   0  0  2  0  0  0  0  0  0  0  0  0
    5.6660  -18.0219   19.7684 N   0  0  0  0  0  0  0  0  0  0  0  0
    6.4309  -17.9673   22.0703 C   0  0  0  0  0  0  0  0  0  0  0  0
    5.8173  -16.8663   22.2661 O   0  0  0  0  0  0  0  0  0  0  0  0
    6.9268  -19.1919   25.5627 C   0  0  0  0  0  0  0  0  0  0  0  0
    6.6523  -18.0902   24.5593 C   0  0  2  0  0  0  0  0  0  0  0  0
    6.8525  -18.6552   23.2390 N   0  0  0  0  0  0  0  0  0  0  0  0
    7.5825  -16.9699   24.8254 C   0  0  0  0  0  0  0  0  0  0  0  0
    8.6754  -16.9244   24.1938 O   0  0  0  0  0  0  0  0  0  0  0  0
    5.7319  -11.9752   26.2262 C   0  0  0  0  0  0  0  0  0  0  0  0
    6.6105  -12.9879   25.5036 C   0  0  0  0  0  0  0  0  0  0  0  0
    7.5170  -13.6224   26.5585 C   0  0  2  0  0  0  0  0  0  0  0  0
    8.5621  -12.5878   26.9168 C   0  0  0  0  0  0  0  0  0  0  0  0
    8.2386  -14.8261   25.9943 C   0  0  2  0  0  0  0  0  0  0  0  0
    7.3335  -15.9320   25.7481 N   0  0  0  0  0  0  0  0  0  0  0  0
    9.2243  -15.2667   26.9908 C   0  0  0  0  0  0  0  0  0  0  0  0
    8.8946  -16.0925   27.8643 O   0  0  0  0  0  0  0  0  0  0  0  0
   10.5055  -14.7771   26.9686 O   0  0  0  0  0  0  0  0  0  0  0  0
  2  1  1  0
  3  2  1  0
  3  4  1  6
  5  3  1  0
  5  9  1  0
  6  5  2  0
  8 10  1  0
  8  9  1  0
  8  7  1  1
 10 17  1  0
 11 10  2  0
 13 12  1  0
 14 13  1  0
 14 15  1  6
 16 14  1  0
 16 17  1  1
 18 16  1  0
 19 18  2  0
 20 18  1  0
M  END
$$$$
