SAI.pdb
     RDKit          3D

 20 19  0  0  1  0  0  0  0  0999 V2000
    9.8325  -15.2657   19.7351 O   0  0  0  0  0  0  0  0  0  0  0  0
    9.4617  -16.5537   19.4402 C   0  0  0  0  0  0  0  0  0  0  0  0
    7.9617  -16.7573   19.4912 C   0  0  2  0  0  0  0  0  0  0  0  0
    7.2948  -15.9415   18.4986 N   0  0  0  0  0  0  0  0  0  0  0  0
    7.4206  -16.5245   20.8505 C   0  0  0  0  0  0  0  0  0  0  0  0
    6.7083  -15.4989   21.1110 O   0  0  0  0  0  0  0  0  0  0  0  0
    7.1786  -18.4526   24.0306 C   0  0  0  0  0  0  0  0  0  0  0  0
    7.0740  -17.1612   23.2450 C   0  0  2  0  0  0  0  0  0  0  0  0
    7.6512  -17.4082   21.9381 N   0  0  0  0  0  0  0  0  0  0  0  0
    7.8055  -16.1042   23.9790 C   0  0  0  0  0  0  0  0  0  0  0  0
    9.0146  -15.8864   23.6858 O   0  0  0  0  0  0  0  0  0  0  0  0
    6.6119  -10.8224   26.8803 C   0  0  0  0  0  0  0  0  0  0  0  0
    7.6704  -11.8667   26.5505 C   0  0  0  0  0  0  0  0  0  0  0  0
    6.9430  -13.0508   25.9136 C   0  0  2  0  0  0  0  0  0  0  0  0
    5.9531  -13.5596   26.9395 C   0  0  0  0  0  0  0  0  0  0  0  0
    7.9079  -14.1757   25.6109 C   0  0  2  0  0  0  0  0  0  0  0  0
    7.2416  -15.3089   24.9990 N   0  0  0  0  0  0  0  0  0  0  0  0
    8.4840  -14.6283   26.8845 C   0  0  0  0  0  0  0  0  0  0  0  0
    8.1044  -15.7035   27.3881 O   0  0  0  0  0  0  0  0  0  0  0  0
    9.4367  -13.8777   27.5252 O   0  0  0  0  0  0  0  0  0  0  0  0
  2  1  1  0
  3  2  1  0
  3  4  1  6
  5  3  1  0
  5  9  1  0
  6  5  2  0
  8 10  1  0
  8  9  1  0
  8  7  1  1
 10 17  1  0
 11 10  2  0
 13 12  1  0
 14 13  1  0
 14 15  1  1
 16 14  1  0
 16 17  1  1
 18 16  1  0
 19 18  2  0
 20 18  1  0
M  END
$$$$
