SAI.pdb
     RDKit          3D

 20 19  0  0  1  0  0  0  0  0999 V2000
    9.8185  -16.0915   20.0101 O   0  0  0  0  0  0  0  0  0  0  0  0
    9.3432  -17.3736   19.8934 C   0  0  0  0  0  0  0  0  0  0  0  0
    7.8315  -17.4452   19.9543 C   0  0  2  0  0  0  0  0  0  0  0  0
    7.2334  -16.6700   18.8881 N   0  0  0  0  0  0  0  0  0  0  0  0
    7.3146  -17.0455   21.2838 C   0  0  0  0  0  0  0  0  0  0  0  0
    6.7677  -15.9074   21.4648 O   0  0  0  0  0  0  0  0  0  0  0  0
    6.7600  -18.6892   24.5839 C   0  0  0  0  0  0  0  0  0  0  0  0
    6.8656  -17.4554   23.7106 C   0  0  2  0  0  0  0  0  0  0  0  0
    7.3894  -17.8833   22.4281 N   0  0  0  0  0  0  0  0  0  0  0  0
    7.7634  -16.4845   24.3757 C   0  0  0  0  0  0  0  0  0  0  0  0
    8.9981  -16.5188   24.1115 O   0  0  0  0  0  0  0  0  0  0  0  0
    5.7910  -11.6654   26.2704 C   0  0  0  0  0  0  0  0  0  0  0  0
    6.7556  -12.5892   25.5385 C   0  0  0  0  0  0  0  0  0  0  0  0
    7.4579  -13.4320   26.6032 C   0  0  2  0  0  0  0  0  0  0  0  0
    8.4666  -12.5294   27.2806 C   0  0  0  0  0  0  0  0  0  0  0  0
    8.2191  -14.5750   25.9691 C   0  0  2  0  0  0  0  0  0  0  0  0
    7.3339  -15.5072   25.2984 N   0  0  0  0  0  0  0  0  0  0  0  0
    8.9095  -15.3045   27.0414 C   0  0  0  0  0  0  0  0  0  0  0  0
    8.3345  -16.2489   27.6171 O   0  0  0  0  0  0  0  0  0  0  0  0
   10.1823  -14.9557   27.4153 O   0  0  0  0  0  0  0  0  0  0  0  0
  2  1  1  0
  3  2  1  0
  3  4  1  6
  5  3  1  0
  5  9  1  0
  6  5  2  0
  8 10  1  0
  8  9  1  0
  8  7  1  1
 10 17  1  0
 11 10  2  0
 13 12  1  0
 14 13  1  0
 14 15  1  6
 16 14  1  0
 16 17  1  1
 18 16  1  0
 19 18  2  0
 20 18  1  0
M  END
$$$$
