SAI.pdb
     RDKit          3D

 20 19  0  0  1  0  0  0  0  0999 V2000
   10.9704  -12.8638   18.3210 O   0  0  0  0  0  0  0  0  0  0  0  0
   10.1146  -13.0304   19.3808 C   0  0  0  0  0  0  0  0  0  0  0  0
    8.9444  -13.9340   19.0518 C   0  0  2  0  0  0  0  0  0  0  0  0
    8.0313  -13.2850   18.1351 N   0  0  0  0  0  0  0  0  0  0  0  0
    8.2547  -14.4085   20.2740 C   0  0  0  0  0  0  0  0  0  0  0  0
    7.3764  -13.6907   20.8574 O   0  0  0  0  0  0  0  0  0  0  0  0
    8.0190  -17.5840   22.2063 C   0  0  0  0  0  0  0  0  0  0  0  0
    7.8398  -16.0843   22.0847 C   0  0  2  0  0  0  0  0  0  0  0  0
    8.5166  -15.6701   20.8712 N   0  0  0  0  0  0  0  0  0  0  0  0
    8.4211  -15.4428   23.2855 C   0  0  0  0  0  0  0  0  0  0  0  0
    9.6373  -15.1024   23.2640 O   0  0  0  0  0  0  0  0  0  0  0  0
    5.4819  -11.9177   26.1827 C   0  0  0  0  0  0  0  0  0  0  0  0
    6.6344  -12.5688   25.4296 C   0  0  0  0  0  0  0  0  0  0  0  0
    7.1939  -13.6658   26.3355 C   0  0  2  0  0  0  0  0  0  0  0  0
    7.8642  -12.9710   27.5013 C   0  0  0  0  0  0  0  0  0  0  0  0
    8.2506  -14.4727   25.6141 C   0  0  2  0  0  0  0  0  0  0  0  0
    7.7042  -15.1794   24.4718 N   0  0  0  0  0  0  0  0  0  0  0  0
    8.7705  -15.4746   26.5545 C   0  0  0  0  0  0  0  0  0  0  0  0
    8.2930  -16.6260   26.5588 O   0  0  0  0  0  0  0  0  0  0  0  0
    9.7777  -15.1543   27.4289 O   0  0  0  0  0  0  0  0  0  0  0  0
  2  1  1  0
  3  2  1  0
  3  4  1  6
  5  3  1  0
  5  9  1  0
  6  5  2  0
  8 10  1  0
  8  9  1  0
  8  7  1  1
 10 17  1  0
 11 10  2  0
 13 12  1  0
 14 13  1  0
 14 15  1  1
 16 14  1  0
 16 17  1  6
 18 16  1  0
 19 18  2  0
 20 18  1  0
M  END
$$$$
