SAI.pdb
     RDKit          3D

 20 19  0  0  1  0  0  0  0  0999 V2000
    9.7561  -15.0603   19.4287 O   0  0  0  0  0  0  0  0  0  0  0  0
    9.4915  -16.4065   19.4635 C   0  0  0  0  0  0  0  0  0  0  0  0
    8.0081  -16.7109   19.4933 C   0  0  2  0  0  0  0  0  0  0  0  0
    7.2996  -15.9297   18.5018 N   0  0  0  0  0  0  0  0  0  0  0  0
    7.4365  -16.5318   20.8482 C   0  0  0  0  0  0  0  0  0  0  0  0
    6.9291  -15.4184   21.2089 O   0  0  0  0  0  0  0  0  0  0  0  0
    6.9574  -18.6525   23.8965 C   0  0  0  0  0  0  0  0  0  0  0  0
    6.8882  -17.3336   23.1537 C   0  0  2  0  0  0  0  0  0  0  0  0
    7.4131  -17.5651   21.8221 N   0  0  0  0  0  0  0  0  0  0  0  0
    7.6896  -16.3341   23.8952 C   0  0  0  0  0  0  0  0  0  0  0  0
    8.9109  -16.1970   23.6035 O   0  0  0  0  0  0  0  0  0  0  0  0
    6.8848  -11.0727   26.9933 C   0  0  0  0  0  0  0  0  0  0  0  0
    7.8551  -12.1974   26.6569 C   0  0  0  0  0  0  0  0  0  0  0  0
    7.0448  -13.2890   25.9577 C   0  0  2  0  0  0  0  0  0  0  0  0
    6.0422  -13.8045   26.9677 C   0  0  0  0  0  0  0  0  0  0  0  0
    7.9326  -14.4478   25.5612 C   0  0  2  0  0  0  0  0  0  0  0  0
    7.1808  -15.5097   24.9210 N   0  0  0  0  0  0  0  0  0  0  0  0
    8.5292  -14.9965   26.7866 C   0  0  0  0  0  0  0  0  0  0  0  0
    8.0977  -16.0659   27.2598 O   0  0  0  0  0  0  0  0  0  0  0  0
    9.5578  -14.3421   27.4153 O   0  0  0  0  0  0  0  0  0  0  0  0
  2  1  1  0
  3  2  1  0
  3  4  1  6
  5  3  1  0
  5  9  1  0
  6  5  2  0
  8 10  1  0
  8  9  1  0
  8  7  1  1
 10 17  1  0
 11 10  2  0
 13 12  1  0
 14 13  1  0
 14 15  1  1
 16 14  1  0
 16 17  1  1
 18 16  1  0
 19 18  2  0
 20 18  1  0
M  END
$$$$
