SAI.pdb
     RDKit          3D

 20 19  0  0  1  0  0  0  0  0999 V2000
    9.4918  -16.8618   20.2181 O   0  0  0  0  0  0  0  0  0  0  0  0
    8.9089  -18.1036   20.1777 C   0  0  0  0  0  0  0  0  0  0  0  0
    7.4101  -18.0540   20.3901 C   0  0  2  0  0  0  0  0  0  0  0  0
    6.7637  -17.2942   19.3412 N   0  0  0  0  0  0  0  0  0  0  0  0
    7.0616  -17.5430   21.7363 C   0  0  0  0  0  0  0  0  0  0  0  0
    6.6199  -16.3574   21.8986 O   0  0  0  0  0  0  0  0  0  0  0  0
    6.7886  -18.9772   25.1758 C   0  0  0  0  0  0  0  0  0  0  0  0
    6.7528  -17.8152   24.2040 C   0  0  2  0  0  0  0  0  0  0  0  0
    7.1916  -18.3204   22.9177 N   0  0  0  0  0  0  0  0  0  0  0  0
    7.6473  -16.7506   24.7115 C   0  0  0  0  0  0  0  0  0  0  0  0
    8.8386  -16.7075   24.2939 O   0  0  0  0  0  0  0  0  0  0  0  0
    5.4657  -12.0050   26.5326 C   0  0  0  0  0  0  0  0  0  0  0  0
    6.4017  -12.9081   25.7401 C   0  0  0  0  0  0  0  0  0  0  0  0
    7.3365  -13.5745   26.7496 C   0  0  2  0  0  0  0  0  0  0  0  0
    8.3244  -12.5177   27.1951 C   0  0  0  0  0  0  0  0  0  0  0  0
    8.1226  -14.6914   26.0995 C   0  0  2  0  0  0  0  0  0  0  0  0
    7.2602  -15.7640   25.6430 N   0  0  0  0  0  0  0  0  0  0  0  0
    9.0330  -15.2471   27.1099 C   0  0  0  0  0  0  0  0  0  0  0  0
   10.1044  -14.6635   27.3654 O   0  0  0  0  0  0  0  0  0  0  0  0
    8.7145  -16.4035   27.7753 O   0  0  0  0  0  0  0  0  0  0  0  0
  2  1  1  0
  3  2  1  0
  3  4  1  6
  5  3  1  0
  5  9  1  0
  6  5  2  0
  8 10  1  0
  8  9  1  0
  8  7  1  1
 10 17  1  0
 11 10  2  0
 13 12  1  0
 14 13  1  0
 14 15  1  6
 16 14  1  0
 16 17  1  1
 18 16  1  0
 19 18  2  0
 20 18  1  0
M  END
$$$$
