SWD.pdb
     RDKit          3D

 29 30  0  0  1  0  0  0  0  0999 V2000
    8.8466  -16.7179   19.6997 O   0  0  0  0  0  0  0  0  0  0  0  0
    7.5199  -16.9606   20.0350 C   0  0  0  0  0  0  0  0  0  0  0  0
    6.9664  -15.8109   20.8699 C   0  0  2  0  0  0  0  0  0  0  0  0
    6.9109  -14.6612   19.9604 N   0  0  0  0  0  0  0  0  0  0  0  0
    7.9413  -15.4538   21.9498 C   0  0  0  0  0  0  0  0  0  0  0  0
    8.6557  -14.4021   21.7758 O   0  0  0  0  0  0  0  0  0  0  0  0
    8.0616  -16.2398   23.1083 N   0  0  0  0  0  0  0  0  0  0  0  0
    9.0630  -15.9629   24.1370 C   0  0  1  0  0  0  0  0  0  0  0  0
    8.4717  -15.9438   25.4962 C   0  0  0  0  0  0  0  0  0  0  0  0
    7.3265  -15.0454   25.7050 C   0  0  0  0  0  0  0  0  0  0  0  0
    5.9923  -15.3422   25.6847 C   0  0  0  0  0  0  0  0  0  0  0  0
    5.3340  -14.1952   25.9624 N   0  0  0  0  0  0  0  0  0  0  0  0
    6.1917  -13.1887   26.1584 C   0  0  0  0  0  0  0  0  0  0  0  0
    6.0192  -11.8309   26.4805 C   0  0  0  0  0  0  0  0  0  0  0  0
    7.1594  -11.0705   26.6260 C   0  0  0  0  0  0  0  0  0  0  0  0
    8.4205  -11.5762   26.4711 C   0  0  0  0  0  0  0  0  0  0  0  0
    8.5761  -12.9105   26.1535 C   0  0  0  0  0  0  0  0  0  0  0  0
    7.4492  -13.7049   26.0001 C   0  0  0  0  0  0  0  0  0  0  0  0
   10.2229  -16.8947   23.9584 C   0  0  0  0  0  0  0  0  0  0  0  0
   10.0935  -18.1301   23.8187 O   0  0  0  0  0  0  0  0  0  0  0  0
   11.5577  -16.3847   23.9467 N   0  0  0  0  0  0  0  0  0  0  0  0
   12.6833  -17.2396   23.8588 C   0  0  1  0  0  0  0  0  0  0  0  0
   13.9342  -16.6255   23.3510 C   0  0  0  0  0  0  0  0  0  0  0  0
   13.9127  -16.0561   22.0128 C   0  0  0  0  0  0  0  0  0  0  0  0
   13.1911  -16.4090   21.0464 O   0  0  0  0  0  0  0  0  0  0  0  0
   13.0299  -17.7446   25.2598 C   0  0  0  0  0  0  0  0  0  0  0  0
   12.4497  -17.3051   26.2702 O   0  0  0  0  0  0  0  0  0  0  0  0
   14.7879  -14.9939   21.7563 O   0  0  0  0  0  0  0  0  0  0  0  0
   14.0086  -18.7039   25.3507 O   0  0  0  0  0  0  0  0  0  0  0  0
  2  1  1  0
  3  2  1  0
  3  4  1  6
  5  3  1  0
  5  6  2  0
  7  5  1  0
  8 19  1  0
  8  7  1  0
  9 10  1  0
  8  9  1  1
 10 18  1  0
 11 12  1  0
 11 10  2  0
 12 13  1  0
 13 18  2  0
 13 14  1  0
 14 15  2  0
 15 16  1  0
 17 16  2  0
 18 17  1  0
 19 21  1  0
 20 19  2  0
 22 21  1  0
 22 26  1  0
 23 24  1  0
 22 23  1  1
 24 25  2  0
 26 27  2  0
 26 29  1  0
 28 24  1  0
M  END
$$$$
