SWD.pdb
     RDKit          3D

 29 30  0  0  1  0  0  0  0  0999 V2000
   11.0242  -18.5588   18.5757 O   0  0  0  0  0  0  0  0  0  0  0  0
    9.9250  -18.2708   19.3759 C   0  0  0  0  0  0  0  0  0  0  0  0
    9.5048  -16.8163   19.1941 C   0  0  2  0  0  0  0  0  0  0  0  0
   10.5832  -16.1938   18.4187 N   0  0  0  0  0  0  0  0  0  0  0  0
    9.4815  -16.1257   20.5232 C   0  0  0  0  0  0  0  0  0  0  0  0
   10.5521  -15.5231   20.8940 O   0  0  0  0  0  0  0  0  0  0  0  0
    8.3288  -16.1359   21.3267 N   0  0  0  0  0  0  0  0  0  0  0  0
    8.3478  -15.6983   22.7217 C   0  0  1  0  0  0  0  0  0  0  0  0
    6.9815  -15.4766   23.2523 C   0  0  0  0  0  0  0  0  0  0  0  0
    6.8765  -15.1123   24.6731 C   0  0  0  0  0  0  0  0  0  0  0  0
    6.7162  -15.9310   25.7559 C   0  0  0  0  0  0  0  0  0  0  0  0
    6.7070  -15.1350   26.8479 N   0  0  0  0  0  0  0  0  0  0  0  0
    6.8556  -13.8519   26.5038 C   0  0  0  0  0  0  0  0  0  0  0  0
    6.9241  -12.6611   27.2485 C   0  0  0  0  0  0  0  0  0  0  0  0
    7.1035  -11.4899   26.5446 C   0  0  0  0  0  0  0  0  0  0  0  0
    7.2133  -11.4454   25.1822 C   0  0  0  0  0  0  0  0  0  0  0  0
    7.1431  -12.6213   24.4627 C   0  0  0  0  0  0  0  0  0  0  0  0
    6.9633  -13.8187   25.1399 C   0  0  0  0  0  0  0  0  0  0  0  0
    9.1984  -16.6380   23.5210 C   0  0  0  0  0  0  0  0  0  0  0  0
    9.1159  -17.8820   23.4297 O   0  0  0  0  0  0  0  0  0  0  0  0
   10.1586  -16.1254   24.4467 N   0  0  0  0  0  0  0  0  0  0  0  0
   11.1029  -16.9656   25.0856 C   0  0  1  0  0  0  0  0  0  0  0  0
   12.5030  -16.4772   25.1106 C   0  0  0  0  0  0  0  0  0  0  0  0
   13.2986  -16.6441   23.9045 C   0  0  0  0  0  0  0  0  0  0  0  0
   12.9943  -17.2987   22.8758 O   0  0  0  0  0  0  0  0  0  0  0  0
   10.7107  -17.1204   26.5553 C   0  0  0  0  0  0  0  0  0  0  0  0
    9.7443  -16.5008   27.0381 O   0  0  0  0  0  0  0  0  0  0  0  0
   14.5461  -16.0099   23.8691 O   0  0  0  0  0  0  0  0  0  0  0  0
   11.4724  -17.9735   27.3159 O   0  0  0  0  0  0  0  0  0  0  0  0
  2  1  1  0
  3  2  1  0
  3  4  1  6
  5  3  1  0
  5  6  2  0
  7  5  1  0
  8 19  1  0
  8  7  1  0
  9 10  1  0
  8  9  1  1
 10 18  1  0
 11 12  1  0
 11 10  2  0
 12 13  1  0
 13 18  2  0
 13 14  1  0
 14 15  2  0
 15 16  1  0
 17 16  2  0
 18 17  1  0
 19 21  1  0
 20 19  2  0
 22 21  1  0
 22 26  1  0
 23 24  1  0
 22 23  1  1
 24 25  2  0
 26 27  2  0
 26 29  1  0
 28 24  1  0
M  END
$$$$
