SWD.pdb
     RDKit          3D

 29 30  0  0  1  0  0  0  0  0999 V2000
    7.0077  -17.0996   18.9152 O   0  0  0  0  0  0  0  0  0  0  0  0
    7.9521  -16.6859   19.8471 C   0  0  0  0  0  0  0  0  0  0  0  0
    7.3202  -15.7281   20.8513 C   0  0  2  0  0  0  0  0  0  0  0  0
    7.1381  -14.4669   20.1245 N   0  0  0  0  0  0  0  0  0  0  0  0
    8.2873  -15.4458   21.9599 C   0  0  0  0  0  0  0  0  0  0  0  0
    9.1457  -14.5110   21.7704 O   0  0  0  0  0  0  0  0  0  0  0  0
    8.2489  -16.1751   23.1603 N   0  0  0  0  0  0  0  0  0  0  0  0
    9.2115  -15.9527   24.2380 C   0  0  1  0  0  0  0  0  0  0  0  0
    8.5570  -15.9149   25.5676 C   0  0  0  0  0  0  0  0  0  0  0  0
    7.4023  -15.0155   25.7093 C   0  0  0  0  0  0  0  0  0  0  0  0
    6.0714  -15.3109   25.6097 C   0  0  0  0  0  0  0  0  0  0  0  0
    5.3990  -14.1634   25.8494 N   0  0  0  0  0  0  0  0  0  0  0  0
    6.2446  -13.1581   26.0970 C   0  0  0  0  0  0  0  0  0  0  0  0
    6.0547  -11.8005   26.4099 C   0  0  0  0  0  0  0  0  0  0  0  0
    7.1850  -11.0415   26.6235 C   0  0  0  0  0  0  0  0  0  0  0  0
    8.4526  -11.5483   26.5429 C   0  0  0  0  0  0  0  0  0  0  0  0
    8.6253  -12.8824   26.2336 C   0  0  0  0  0  0  0  0  0  0  0  0
    7.5087  -13.6755   26.0127 C   0  0  0  0  0  0  0  0  0  0  0  0
   10.3338  -16.9370   24.1067 C   0  0  0  0  0  0  0  0  0  0  0  0
   10.1579  -18.1424   23.8262 O   0  0  0  0  0  0  0  0  0  0  0  0
   11.6842  -16.5164   24.3093 N   0  0  0  0  0  0  0  0  0  0  0  0
   12.7586  -17.4389   24.3321 C   0  0  1  0  0  0  0  0  0  0  0  0
   14.1089  -16.8782   24.0837 C   0  0  0  0  0  0  0  0  0  0  0  0
   14.3108  -16.1189   22.8597 C   0  0  0  0  0  0  0  0  0  0  0  0
   13.7599  -16.3085   21.7463 O   0  0  0  0  0  0  0  0  0  0  0  0
   12.8400  -18.0671   25.7237 C   0  0  0  0  0  0  0  0  0  0  0  0
   12.0571  -17.7342   26.6331 O   0  0  0  0  0  0  0  0  0  0  0  0
   15.2170  -15.0531   22.9110 O   0  0  0  0  0  0  0  0  0  0  0  0
   13.8146  -19.0142   25.9226 O   0  0  0  0  0  0  0  0  0  0  0  0
  2  1  1  0
  3  2  1  0
  3  4  1  6
  5  3  1  0
  5  6  2  0
  7  5  1  0
  8 19  1  0
  8  7  1  0
  9 10  1  0
  8  9  1  1
 10 18  1  0
 11 12  1  0
 11 10  2  0
 12 13  1  0
 13 18  2  0
 13 14  1  0
 14 15  2  0
 15 16  1  0
 17 16  2  0
 18 17  1  0
 19 21  1  0
 20 19  2  0
 22 21  1  0
 22 26  1  0
 23 24  1  0
 22 23  1  1
 24 25  2  0
 26 27  2  0
 26 29  1  0
 28 24  1  0
M  END
$$$$
