SWD.pdb
     RDKit          3D

 29 30  0  0  1  0  0  0  0  0999 V2000
    8.7338  -16.6167   19.3005 O   0  0  0  0  0  0  0  0  0  0  0  0
    7.4193  -16.6198   19.7515 C   0  0  0  0  0  0  0  0  0  0  0  0
    7.1319  -15.3550   20.5532 C   0  0  2  0  0  0  0  0  0  0  0  0
    7.2580  -14.2506   19.5959 N   0  0  0  0  0  0  0  0  0  0  0  0
    8.2023  -15.1526   21.5814 C   0  0  0  0  0  0  0  0  0  0  0  0
    9.1844  -14.3884   21.2683 O   0  0  0  0  0  0  0  0  0  0  0  0
    8.1271  -15.7734   22.8397 N   0  0  0  0  0  0  0  0  0  0  0  0
    9.1496  -15.5790   23.8666 C   0  0  1  0  0  0  0  0  0  0  0  0
    8.6129  -15.7935   25.2317 C   0  0  0  0  0  0  0  0  0  0  0  0
    7.4369  -14.9964   25.6112 C   0  0  0  0  0  0  0  0  0  0  0  0
    6.1399  -15.4024   25.7570 C   0  0  0  0  0  0  0  0  0  0  0  0
    5.4341  -14.3183   26.1480 N   0  0  0  0  0  0  0  0  0  0  0  0
    6.2268  -13.2474   26.2570 C   0  0  0  0  0  0  0  0  0  0  0  0
    5.9901  -11.9137   26.6342 C   0  0  0  0  0  0  0  0  0  0  0  0
    7.0748  -11.0638   26.6499 C   0  0  0  0  0  0  0  0  0  0  0  0
    8.3409  -11.4608   26.3190 C   0  0  0  0  0  0  0  0  0  0  0  0
    8.5597  -12.7725   25.9491 C   0  0  0  0  0  0  0  0  0  0  0  0
    7.4897  -13.6552   25.9228 C   0  0  0  0  0  0  0  0  0  0  0  0
   10.3571  -16.3956   23.5197 C   0  0  0  0  0  0  0  0  0  0  0  0
   10.3025  -17.4456   22.8436 O   0  0  0  0  0  0  0  0  0  0  0  0
   11.6512  -15.9895   23.9695 N   0  0  0  0  0  0  0  0  0  0  0  0
   12.8194  -16.7197   23.6411 C   0  0  1  0  0  0  0  0  0  0  0  0
   13.9750  -15.9247   23.1592 C   0  0  0  0  0  0  0  0  0  0  0  0
   15.2096  -16.6358   22.8668 C   0  0  0  0  0  0  0  0  0  0  0  0
   15.3450  -17.8636   22.6359 O   0  0  0  0  0  0  0  0  0  0  0  0
   13.3245  -17.4329   24.8958 C   0  0  0  0  0  0  0  0  0  0  0  0
   12.8518  -17.1814   26.0201 O   0  0  0  0  0  0  0  0  0  0  0  0
   16.3888  -15.8819   22.8343 O   0  0  0  0  0  0  0  0  0  0  0  0
   14.3212  -18.3622   24.7243 O   0  0  0  0  0  0  0  0  0  0  0  0
  2  1  1  0
  3  2  1  0
  3  4  1  6
  5  3  1  0
  5  6  2  0
  7  5  1  0
  8 19  1  0
  8  7  1  0
  9 10  1  0
  8  9  1  1
 10 18  1  0
 11 12  1  0
 11 10  2  0
 12 13  1  0
 13 18  2  0
 13 14  1  0
 14 15  2  0
 15 16  1  0
 17 16  2  0
 18 17  1  0
 19 21  1  0
 20 19  2  0
 22 21  1  0
 22 26  1  0
 23 24  1  0
 22 23  1  1
 24 25  2  0
 26 27  2  0
 26 29  1  0
 28 24  1  0
M  END
$$$$
