IWN.pdb
     RDKit          3D

 31 32  0  0  1  0  0  0  0  0999 V2000
   29.1608  -18.2213  -16.1149 C   0  0  0  0  0  0  0  0  0  0  0  0
   29.4179  -18.8048  -14.7637 C   0  0  0  0  0  0  0  0  0  0  0  0
   28.2196  -19.4549  -14.1127 C   0  0  2  0  0  0  0  0  0  0  0  0
   27.1925  -18.3237  -13.9457 C   0  0  0  0  0  0  0  0  0  0  0  0
   28.6186  -19.8802  -12.7146 C   0  0  2  0  0  0  0  0  0  0  0  0
   29.6415  -20.9159  -12.9128 N   0  0  0  0  0  0  0  0  0  0  0  0
   27.5421  -20.4497  -11.9122 C   0  0  0  0  0  0  0  0  0  0  0  0
   27.2204  -21.6792  -12.0931 O   0  0  0  0  0  0  0  0  0  0  0  0
   26.7696  -19.8070  -10.9169 N   0  0  0  0  0  0  0  0  0  0  0  0
   25.6283  -20.3816  -10.2418 C   0  0  1  0  0  0  0  0  0  0  0  0
   25.3362  -19.8259   -8.8925 C   0  0  0  0  0  0  0  0  0  0  0  0
   26.4713  -19.5469   -8.0246 C   0  0  0  0  0  0  0  0  0  0  0  0
   27.2495  -18.4194   -8.0338 C   0  0  0  0  0  0  0  0  0  0  0  0
   28.1959  -18.5480   -7.0970 N   0  0  0  0  0  0  0  0  0  0  0  0
   28.0842  -19.7246   -6.4540 C   0  0  0  0  0  0  0  0  0  0  0  0
   28.7985  -20.3147   -5.4297 C   0  0  0  0  0  0  0  0  0  0  0  0
   28.4568  -21.5602   -4.9440 C   0  0  0  0  0  0  0  0  0  0  0  0
   27.3775  -22.2034   -5.5116 C   0  0  0  0  0  0  0  0  0  0  0  0
   26.6778  -21.6042   -6.5287 C   0  0  0  0  0  0  0  0  0  0  0  0
   26.9915  -20.3575   -7.0411 C   0  0  0  0  0  0  0  0  0  0  0  0
   24.4467  -20.4827  -11.1326 C   0  0  0  0  0  0  0  0  0  0  0  0
   24.2294  -19.5838  -12.0192 O   0  0  0  0  0  0  0  0  0  0  0  0
   20.9450  -23.9416  -14.0723 N   0  0  0  0  0  0  0  0  0  0  0  0
   20.8808  -23.4458  -12.7414 C   0  0  0  0  0  0  0  0  0  0  0  0
   19.7452  -23.2908  -12.2547 O   0  0  0  0  0  0  0  0  0  0  0  0
   22.0924  -23.1421  -12.0061 C   0  0  0  0  0  0  0  0  0  0  0  0
   22.4396  -21.6717  -11.9883 C   0  0  2  0  0  0  0  0  0  0  0  0
   23.5526  -21.5698  -11.0114 N   0  0  0  0  0  0  0  0  0  0  0  0
   21.3210  -20.8559  -11.5163 C   0  0  0  0  0  0  0  0  0  0  0  0
   20.3036  -20.3520  -12.2874 O   0  0  0  0  0  0  0  0  0  0  0  0
   21.2583  -20.5681  -10.2744 O   0  0  0  0  0  0  0  0  0  0  0  0
  2  1  1  0
  3  2  1  0
  3  4  1  1
  5  7  1  0
  5  3  1  0
  5  6  1  6
  7  8  2  0
  9  7  1  0
 10  9  1  0
 10 11  1  1
 12 13  2  0
 12 11  1  0
 14 13  1  0
 15 20  2  0
 15 14  1  0
 16 15  1  0
 17 18  1  0
 17 16  2  0
 18 19  2  0
 19 20  1  0
 20 12  1  0
 21 10  1  0
 22 21  2  0
 23 24  1  0
 24 26  1  0
 25 24  2  0
 27 26  1  1
 27 28  1  0
 28 21  1  0
 29 27  1  0
 29 30  1  0
 31 29  2  0
M  END
$$$$
