IWN.pdb
     RDKit          3D

 31 32  0  0  1  0  0  0  0  0999 V2000
   26.0089  -22.2631  -20.2516 C   0  0  0  0  0  0  0  0  0  0  0  0
   27.0223  -22.3936  -19.1615 C   0  0  0  0  0  0  0  0  0  0  0  0
   27.6246  -21.0897  -18.6932 C   0  0  2  0  0  0  0  0  0  0  0  0
   28.4886  -20.6036  -19.8678 C   0  0  0  0  0  0  0  0  0  0  0  0
   28.5794  -21.3953  -17.5576 C   0  0  2  0  0  0  0  0  0  0  0  0
   29.1769  -22.6915  -17.9054 N   0  0  0  0  0  0  0  0  0  0  0  0
   27.9569  -21.5174  -16.2443 C   0  0  0  0  0  0  0  0  0  0  0  0
   27.5250  -22.6666  -15.8695 O   0  0  0  0  0  0  0  0  0  0  0  0
   27.7553  -20.5001  -15.2825 N   0  0  0  0  0  0  0  0  0  0  0  0
   27.0883  -20.6694  -14.0118 C   0  0  1  0  0  0  0  0  0  0  0  0
   27.5210  -19.7402  -12.9329 C   0  0  0  0  0  0  0  0  0  0  0  0
   27.0215  -19.9969  -11.5897 C   0  0  0  0  0  0  0  0  0  0  0  0
   25.7537  -19.7563  -11.1293 C   0  0  0  0  0  0  0  0  0  0  0  0
   25.6940  -20.1136   -9.8413 N   0  0  0  0  0  0  0  0  0  0  0  0
   26.8785  -20.5880   -9.4149 C   0  0  0  0  0  0  0  0  0  0  0  0
   27.3206  -21.0761   -8.2008 C   0  0  0  0  0  0  0  0  0  0  0  0
   28.6189  -21.5132   -8.0352 C   0  0  0  0  0  0  0  0  0  0  0  0
   29.4676  -21.4494   -9.1198 C   0  0  0  0  0  0  0  0  0  0  0  0
   29.0136  -20.9617  -10.3194 C   0  0  0  0  0  0  0  0  0  0  0  0
   27.7197  -20.5146  -10.5223 C   0  0  0  0  0  0  0  0  0  0  0  0
   25.6178  -20.7883  -14.1658 C   0  0  0  0  0  0  0  0  0  0  0  0
   24.9584  -19.8766  -14.7785 O   0  0  0  0  0  0  0  0  0  0  0  0
   20.8051  -22.7591  -14.1633 N   0  0  0  0  0  0  0  0  0  0  0  0
   21.7599  -23.7880  -13.9380 C   0  0  0  0  0  0  0  0  0  0  0  0
   21.3308  -24.9569  -13.9187 O   0  0  0  0  0  0  0  0  0  0  0  0
   23.1600  -23.4680  -13.7425 C   0  0  0  0  0  0  0  0  0  0  0  0
   23.4670  -21.9928  -13.8537 C   0  0  2  0  0  0  0  0  0  0  0  0
   24.9334  -21.9065  -13.6396 N   0  0  0  0  0  0  0  0  0  0  0  0
   22.7916  -21.2181  -12.8130 C   0  0  0  0  0  0  0  0  0  0  0  0
   23.3862  -20.6357  -11.7217 O   0  0  0  0  0  0  0  0  0  0  0  0
   21.5291  -21.0514  -12.9001 O   0  0  0  0  0  0  0  0  0  0  0  0
  2  1  1  0
  3  2  1  0
  3  4  1  6
  5  7  1  0
  5  3  1  0
  5  6  1  6
  7  8  2  0
  9  7  1  0
 10  9  1  0
 10 11  1  1
 12 13  2  0
 12 11  1  0
 14 13  1  0
 15 20  2  0
 15 14  1  0
 16 15  1  0
 17 18  1  0
 17 16  2  0
 18 19  2  0
 19 20  1  0
 20 12  1  0
 21 10  1  0
 22 21  2  0
 23 24  1  0
 24 26  1  0
 25 24  2  0
 27 26  1  1
 27 28  1  0
 28 21  1  0
 29 27  1  0
 29 30  1  0
 31 29  2  0
M  END
$$$$
