IWN.pdb
     RDKit          3D

 31 32  0  0  1  0  0  0  0  0999 V2000
   28.4963  -16.6242  -16.8080 C   0  0  0  0  0  0  0  0  0  0  0  0
   28.7468  -17.5814  -15.6885 C   0  0  0  0  0  0  0  0  0  0  0  0
   27.5507  -18.4079  -15.2783 C   0  0  2  0  0  0  0  0  0  0  0  0
   26.5353  -17.3951  -14.7256 C   0  0  0  0  0  0  0  0  0  0  0  0
   27.9623  -19.2814  -14.1111 C   0  0  2  0  0  0  0  0  0  0  0  0
   29.0083  -20.1616  -14.6489 N   0  0  0  0  0  0  0  0  0  0  0  0
   26.9007  -20.1170  -13.5614 C   0  0  0  0  0  0  0  0  0  0  0  0
   26.5211  -21.1490  -14.2237 O   0  0  0  0  0  0  0  0  0  0  0  0
   26.2012  -19.9411  -12.3448 N   0  0  0  0  0  0  0  0  0  0  0  0
   25.1069  -20.7636  -11.8817 C   0  0  1  0  0  0  0  0  0  0  0  0
   25.0667  -21.0085  -10.4143 C   0  0  0  0  0  0  0  0  0  0  0  0
   26.2866  -20.7556   -9.6610 C   0  0  0  0  0  0  0  0  0  0  0  0
   26.4235  -19.9207   -8.5834 C   0  0  0  0  0  0  0  0  0  0  0  0
   27.6990  -19.9516   -8.1807 N   0  0  0  0  0  0  0  0  0  0  0  0
   28.4297  -20.7794   -8.9495 C   0  0  0  0  0  0  0  0  0  0  0  0
   29.7601  -21.1503   -8.9415 C   0  0  0  0  0  0  0  0  0  0  0  0
   30.2591  -22.0453   -9.8656 C   0  0  0  0  0  0  0  0  0  0  0  0
   29.3894  -22.5621  -10.8022 C   0  0  0  0  0  0  0  0  0  0  0  0
   28.0704  -22.1837  -10.7974 C   0  0  0  0  0  0  0  0  0  0  0  0
   27.5352  -21.2892   -9.8871 C   0  0  0  0  0  0  0  0  0  0  0  0
   23.8101  -20.3488  -12.4702 C   0  0  0  0  0  0  0  0  0  0  0  0
   23.6982  -19.2086  -13.0437 O   0  0  0  0  0  0  0  0  0  0  0  0
   20.4113  -19.3204  -15.9327 N   0  0  0  0  0  0  0  0  0  0  0  0
   20.7495  -20.6315  -15.4991 C   0  0  0  0  0  0  0  0  0  0  0  0
   20.0531  -21.5650  -15.9398 O   0  0  0  0  0  0  0  0  0  0  0  0
   21.8557  -20.8467  -14.5876 C   0  0  0  0  0  0  0  0  0  0  0  0
   21.4587  -20.8058  -13.1304 C   0  0  2  0  0  0  0  0  0  0  0  0
   22.6895  -21.2065  -12.4038 N   0  0  0  0  0  0  0  0  0  0  0  0
   20.3987  -21.7678  -12.8297 C   0  0  0  0  0  0  0  0  0  0  0  0
   19.0533  -21.5014  -12.7785 O   0  0  0  0  0  0  0  0  0  0  0  0
   20.7249  -22.9777  -12.5869 O   0  0  0  0  0  0  0  0  0  0  0  0
  2  1  1  0
  3  2  1  0
  3  4  1  1
  5  7  1  0
  5  3  1  0
  5  6  1  6
  7  8  2  0
  9  7  1  0
 10  9  1  0
 10 11  1  1
 12 13  2  0
 12 11  1  0
 14 13  1  0
 15 20  2  0
 15 14  1  0
 16 15  1  0
 17 18  1  0
 17 16  2  0
 18 19  2  0
 19 20  1  0
 20 12  1  0
 21 10  1  0
 22 21  2  0
 23 24  1  0
 24 26  1  0
 25 24  2  0
 27 26  1  6
 27 28  1  0
 28 21  1  0
 29 27  1  0
 29 30  1  0
 31 29  2  0
M  END
$$$$
