IWN.pdb
     RDKit          3D

 31 32  0  0  1  0  0  0  0  0999 V2000
   30.5153  -22.7877  -14.8361 C   0  0  0  0  0  0  0  0  0  0  0  0
   29.3454  -21.9079  -14.5370 C   0  0  0  0  0  0  0  0  0  0  0  0
   28.3377  -21.7868  -15.6559 C   0  0  2  0  0  0  0  0  0  0  0  0
   29.1034  -21.1275  -16.8141 C   0  0  0  0  0  0  0  0  0  0  0  0
   27.2761  -20.7955  -15.2257 C   0  0  2  0  0  0  0  0  0  0  0  0
   28.0143  -19.5652  -14.9103 N   0  0  0  0  0  0  0  0  0  0  0  0
   26.5112  -21.1839  -14.0461 C   0  0  0  0  0  0  0  0  0  0  0  0
   25.8588  -22.2892  -14.0690 O   0  0  0  0  0  0  0  0  0  0  0  0
   26.3839  -20.4811  -12.8253 N   0  0  0  0  0  0  0  0  0  0  0  0
   25.3895  -20.7409  -11.8093 C   0  0  1  0  0  0  0  0  0  0  0  0
   25.7139  -20.2283  -10.4504 C   0  0  0  0  0  0  0  0  0  0  0  0
   27.0027  -20.6015   -9.8854 C   0  0  0  0  0  0  0  0  0  0  0  0
   27.9884  -21.3238  -10.5049 C   0  0  0  0  0  0  0  0  0  0  0  0
   29.0099  -21.4673   -9.6528 N   0  0  0  0  0  0  0  0  0  0  0  0
   28.7486  -20.8664   -8.4778 C   0  0  0  0  0  0  0  0  0  0  0  0
   29.4651  -20.7299   -7.3049 C   0  0  0  0  0  0  0  0  0  0  0  0
   28.9486  -20.0407   -6.2269 C   0  0  0  0  0  0  0  0  0  0  0  0
   27.6914  -19.4890   -6.3525 C   0  0  0  0  0  0  0  0  0  0  0  0
   26.9918  -19.6334   -7.5241 C   0  0  0  0  0  0  0  0  0  0  0  0
   27.4773  -20.3175   -8.6249 C   0  0  0  0  0  0  0  0  0  0  0  0
   24.0190  -20.4184  -12.2757 C   0  0  0  0  0  0  0  0  0  0  0  0
   23.8166  -19.3997  -13.0257 O   0  0  0  0  0  0  0  0  0  0  0  0
   19.8178  -20.8582  -15.3000 N   0  0  0  0  0  0  0  0  0  0  0  0
   20.0202  -21.6637  -14.1462 C   0  0  0  0  0  0  0  0  0  0  0  0
   19.0186  -22.2392  -13.6813 O   0  0  0  0  0  0  0  0  0  0  0  0
   21.3379  -21.7937  -13.5568 C   0  0  0  0  0  0  0  0  0  0  0  0
   21.5768  -20.8617  -12.3918 C   0  0  2  0  0  0  0  0  0  0  0  0
   22.9270  -21.2311  -11.8978 N   0  0  0  0  0  0  0  0  0  0  0  0
   20.6065  -21.0755  -11.3184 C   0  0  0  0  0  0  0  0  0  0  0  0
   19.4278  -20.3945  -11.1441 O   0  0  0  0  0  0  0  0  0  0  0  0
   20.8521  -21.9734  -10.4451 O   0  0  0  0  0  0  0  0  0  0  0  0
  2  1  1  0
  3  2  1  0
  3  4  1  6
  5  7  1  0
  5  3  1  0
  5  6  1  1
  7  8  2  0
  9  7  1  0
 10  9  1  0
 10 11  1  1
 12 13  2  0
 12 11  1  0
 14 13  1  0
 15 20  2  0
 15 14  1  0
 16 15  1  0
 17 18  1  0
 17 16  2  0
 18 19  2  0
 19 20  1  0
 20 12  1  0
 21 10  1  0
 22 21  2  0
 23 24  1  0
 24 26  1  0
 25 24  2  0
 27 26  1  6
 27 28  1  0
 28 21  1  0
 29 27  1  0
 29 30  1  0
 31 29  2  0
M  END
$$$$
