IWN.pdb
     RDKit          3D

 31 32  0  0  1  0  0  0  0  0999 V2000
   18.5256  -15.4394  -17.3328 C   0  0  0  0  0  0  0  0  0  0  0  0
   18.6008  -14.0693  -17.9238 C   0  0  0  0  0  0  0  0  0  0  0  0
   18.5537  -12.9402  -16.9211 C   0  0  2  0  0  0  0  0  0  0  0  0
   17.1337  -12.9851  -16.3348 C   0  0  0  0  0  0  0  0  0  0  0  0
   18.6621  -11.6339  -17.6805 C   0  0  2  0  0  0  0  0  0  0  0  0
   19.8599  -11.7825  -18.5179 N   0  0  0  0  0  0  0  0  0  0  0  0
   18.8315  -10.4486  -16.8478 C   0  0  0  0  0  0  0  0  0  0  0  0
   17.9932  -10.2346  -15.8995 O   0  0  0  0  0  0  0  0  0  0  0  0
   19.8370   -9.4585  -16.9433 N   0  0  0  0  0  0  0  0  0  0  0  0
   19.9901   -8.3318  -16.0514 C   0  0  1  0  0  0  0  0  0  0  0  0
   21.3938   -7.9515  -15.7358 C   0  0  0  0  0  0  0  0  0  0  0  0
   22.1803   -8.8915  -14.9500 C   0  0  0  0  0  0  0  0  0  0  0  0
   23.1780   -9.7089  -15.4120 C   0  0  0  0  0  0  0  0  0  0  0  0
   23.6460  -10.4301  -14.3870 N   0  0  0  0  0  0  0  0  0  0  0  0
   22.9987  -10.1282  -13.2468 C   0  0  0  0  0  0  0  0  0  0  0  0
   23.1098  -10.5818  -11.9470 C   0  0  0  0  0  0  0  0  0  0  0  0
   22.3027  -10.0849  -10.9442 C   0  0  0  0  0  0  0  0  0  0  0  0
   21.3774   -9.1183  -11.2761 C   0  0  0  0  0  0  0  0  0  0  0  0
   21.2787   -8.6781  -12.5721 C   0  0  0  0  0  0  0  0  0  0  0  0
   22.0703   -9.1532  -13.6031 C   0  0  0  0  0  0  0  0  0  0  0  0
   19.1180   -7.1950  -16.4350 C   0  0  0  0  0  0  0  0  0  0  0  0
   19.0839   -6.7905  -17.6502 O   0  0  0  0  0  0  0  0  0  0  0  0
   14.1121   -4.4066  -15.1713 N   0  0  0  0  0  0  0  0  0  0  0  0
   15.1886   -4.6697  -16.0618 C   0  0  0  0  0  0  0  0  0  0  0  0
   15.2839   -3.9316  -17.0602 O   0  0  0  0  0  0  0  0  0  0  0  0
   16.1179   -5.7507  -15.7998 C   0  0  0  0  0  0  0  0  0  0  0  0
   17.5688   -5.3355  -15.8726 C   0  0  2  0  0  0  0  0  0  0  0  0
   18.3185   -6.5501  -15.4651 N   0  0  0  0  0  0  0  0  0  0  0  0
   17.8719   -4.2562  -14.9331 C   0  0  0  0  0  0  0  0  0  0  0  0
   17.8694   -2.9128  -15.2140 O   0  0  0  0  0  0  0  0  0  0  0  0
   18.1716   -4.5615  -13.7305 O   0  0  0  0  0  0  0  0  0  0  0  0
  2  1  1  0
  3  2  1  0
  3  4  1  6
  5  7  1  0
  5  3  1  0
  5  6  1  6
  7  8  2  0
  9  7  1  0
 10  9  1  0
 10 11  1  6
 12 13  2  0
 12 11  1  0
 14 13  1  0
 15 20  2  0
 15 14  1  0
 16 15  1  0
 17 18  1  0
 17 16  2  0
 18 19  2  0
 19 20  1  0
 20 12  1  0
 21 10  1  0
 22 21  2  0
 23 24  1  0
 24 26  1  0
 25 24  2  0
 27 26  1  1
 27 28  1  0
 28 21  1  0
 29 27  1  0
 29 30  1  0
 31 29  2  0
M  END
$$$$
