IWN.pdb
     RDKit          3D

 31 32  0  0  1  0  0  0  0  0999 V2000
   28.7298  -20.0369   -4.2278 C   0  0  0  0  0  0  0  0  0  0  0  0
   27.5173  -20.3509   -5.0424 C   0  0  0  0  0  0  0  0  0  0  0  0
   27.5925  -19.9189   -6.4881 C   0  0  2  0  0  0  0  0  0  0  0  0
   27.6085  -18.3826   -6.4460 C   0  0  0  0  0  0  0  0  0  0  0  0
   26.2959  -20.3150   -7.1639 C   0  0  2  0  0  0  0  0  0  0  0  0
   26.2719  -21.7826   -7.1035 N   0  0  0  0  0  0  0  0  0  0  0  0
   26.1810  -19.9137   -8.5614 C   0  0  0  0  0  0  0  0  0  0  0  0
   25.7676  -18.7289   -8.8321 O   0  0  0  0  0  0  0  0  0  0  0  0
   26.4763  -20.6826   -9.7112 N   0  0  0  0  0  0  0  0  0  0  0  0
   26.3618  -20.2244  -11.0770 C   0  0  1  0  0  0  0  0  0  0  0  0
   27.5714  -20.4209  -11.9215 C   0  0  0  0  0  0  0  0  0  0  0  0
   27.5762  -19.7977  -13.2372 C   0  0  0  0  0  0  0  0  0  0  0  0
   27.3025  -18.4857  -13.5212 C   0  0  0  0  0  0  0  0  0  0  0  0
   27.3983  -18.3078  -14.8438 N   0  0  0  0  0  0  0  0  0  0  0  0
   27.7278  -19.4552  -15.4642 C   0  0  0  0  0  0  0  0  0  0  0  0
   27.9452  -19.7868  -16.7872 C   0  0  0  0  0  0  0  0  0  0  0  0
   28.2854  -21.0722  -17.1562 C   0  0  0  0  0  0  0  0  0  0  0  0
   28.4031  -22.0217  -16.1636 C   0  0  0  0  0  0  0  0  0  0  0  0
   28.1837  -21.6768  -14.8537 C   0  0  0  0  0  0  0  0  0  0  0  0
   27.8410  -20.3992  -14.4467 C   0  0  0  0  0  0  0  0  0  0  0  0
   25.0944  -20.6658  -11.7084 C   0  0  0  0  0  0  0  0  0  0  0  0
   24.6706  -21.8623  -11.5348 O   0  0  0  0  0  0  0  0  0  0  0  0
   20.6205  -20.5522  -14.3873 N   0  0  0  0  0  0  0  0  0  0  0  0
   21.0787  -19.2263  -14.1568 C   0  0  0  0  0  0  0  0  0  0  0  0
   20.3408  -18.3021  -14.5468 O   0  0  0  0  0  0  0  0  0  0  0  0
   22.3472  -18.9861  -13.4980 C   0  0  0  0  0  0  0  0  0  0  0  0
   23.0572  -20.2488  -13.0685 C   0  0  2  0  0  0  0  0  0  0  0  0
   24.3448  -19.7716  -12.5049 N   0  0  0  0  0  0  0  0  0  0  0  0
   23.3357  -21.1276  -14.2042 C   0  0  0  0  0  0  0  0  0  0  0  0
   24.4401  -21.0755  -15.0173 O   0  0  0  0  0  0  0  0  0  0  0  0
   22.4892  -22.0387  -14.4915 O   0  0  0  0  0  0  0  0  0  0  0  0
  2  1  1  0
  3  2  1  0
  3  4  1  1
  5  7  1  0
  5  3  1  0
  5  6  1  6
  7  8  2  0
  9  7  1  0
 10  9  1  0
 10 11  1  6
 12 13  2  0
 12 11  1  0
 14 13  1  0
 15 20  2  0
 15 14  1  0
 16 15  1  0
 17 18  1  0
 17 16  2  0
 18 19  2  0
 19 20  1  0
 20 12  1  0
 21 10  1  0
 22 21  2  0
 23 24  1  0
 24 26  1  0
 25 24  2  0
 27 26  1  6
 27 28  1  0
 28 21  1  0
 29 27  1  0
 29 30  1  0
 31 29  2  0
M  END
$$$$
