IWN.pdb
     RDKit          3D

 31 32  0  0  1  0  0  0  0  0999 V2000
   30.4319  -19.4125  -16.7906 C   0  0  0  0  0  0  0  0  0  0  0  0
   28.9835  -19.2360  -16.4692 C   0  0  0  0  0  0  0  0  0  0  0  0
   28.5003  -20.0087  -15.2643 C   0  0  2  0  0  0  0  0  0  0  0  0
   28.7648  -21.4844  -15.6031 C   0  0  0  0  0  0  0  0  0  0  0  0
   26.9959  -19.8522  -15.1794 C   0  0  2  0  0  0  0  0  0  0  0  0
   26.7741  -18.4066  -15.0411 N   0  0  0  0  0  0  0  0  0  0  0  0
   26.3693  -20.5208  -14.0447 C   0  0  0  0  0  0  0  0  0  0  0  0
   26.2055  -21.7931  -14.0905 O   0  0  0  0  0  0  0  0  0  0  0  0
   25.8971  -19.9359  -12.8466 N   0  0  0  0  0  0  0  0  0  0  0  0
   25.1108  -20.6102  -11.8389 C   0  0  1  0  0  0  0  0  0  0  0  0
   25.4422  -20.2629  -10.4302 C   0  0  0  0  0  0  0  0  0  0  0  0
   26.7264  -20.7154   -9.9147 C   0  0  0  0  0  0  0  0  0  0  0  0
   27.6548  -21.4704  -10.5819 C   0  0  0  0  0  0  0  0  0  0  0  0
   28.6925  -21.6874   -9.7658 N   0  0  0  0  0  0  0  0  0  0  0  0
   28.4976  -21.1045   -8.5690 C   0  0  0  0  0  0  0  0  0  0  0  0
   29.2549  -21.0347   -7.4160 C   0  0  0  0  0  0  0  0  0  0  0  0
   28.8068  -20.3482   -6.3060 C   0  0  0  0  0  0  0  0  0  0  0  0
   27.5764  -19.7305   -6.3791 C   0  0  0  0  0  0  0  0  0  0  0  0
   26.8357  -19.8091   -7.5315 C   0  0  0  0  0  0  0  0  0  0  0  0
   27.2523  -20.4883   -8.6631 C   0  0  0  0  0  0  0  0  0  0  0  0
   23.6614  -20.5834  -12.1526 C   0  0  0  0  0  0  0  0  0  0  0  0
   23.0748  -19.4702  -12.3935 O   0  0  0  0  0  0  0  0  0  0  0  0
   18.9393  -22.1511  -13.6319 N   0  0  0  0  0  0  0  0  0  0  0  0
   19.8014  -23.2758  -13.5177 C   0  0  0  0  0  0  0  0  0  0  0  0
   19.3310  -24.3792  -13.8520 O   0  0  0  0  0  0  0  0  0  0  0  0
   21.1585  -23.1213  -13.0327 C   0  0  0  0  0  0  0  0  0  0  0  0
   21.4944  -21.7111  -12.6068 C   0  0  2  0  0  0  0  0  0  0  0  0
   22.9170  -21.7835  -12.1891 N   0  0  0  0  0  0  0  0  0  0  0  0
   20.6880  -21.2830  -11.4640 C   0  0  0  0  0  0  0  0  0  0  0  0
   19.6063  -20.4393  -11.5061 O   0  0  0  0  0  0  0  0  0  0  0  0
   20.9956  -21.7181  -10.3041 O   0  0  0  0  0  0  0  0  0  0  0  0
  2  1  1  0
  3  2  1  0
  3  4  1  6
  5  7  1  0
  5  3  1  0
  5  6  1  1
  7  8  2  0
  9  7  1  0
 10  9  1  0
 10 11  1  1
 12 13  2  0
 12 11  1  0
 14 13  1  0
 15 20  2  0
 15 14  1  0
 16 15  1  0
 17 18  1  0
 17 16  2  0
 18 19  2  0
 19 20  1  0
 20 12  1  0
 21 10  1  0
 22 21  2  0
 23 24  1  0
 24 26  1  0
 25 24  2  0
 27 26  1  1
 27 28  1  0
 28 21  1  0
 29 27  1  0
 29 30  1  0
 31 29  2  0
M  END
$$$$
