IWN.pdb
     RDKit          3D

 31 32  0  0  1  0  0  0  0  0999 V2000
   18.1435  -14.8775  -17.3730 C   0  0  0  0  0  0  0  0  0  0  0  0
   17.5079  -13.5314  -17.2454 C   0  0  0  0  0  0  0  0  0  0  0  0
   18.2981  -12.5284  -16.4381 C   0  0  2  0  0  0  0  0  0  0  0  0
   18.2777  -13.0682  -14.9992 C   0  0  0  0  0  0  0  0  0  0  0  0
   17.5226  -11.2273  -16.4180 C   0  0  2  0  0  0  0  0  0  0  0  0
   17.4925  -10.7843  -17.8184 N   0  0  0  0  0  0  0  0  0  0  0  0
   18.1198  -10.1655  -15.6161 C   0  0  0  0  0  0  0  0  0  0  0  0
   18.0725  -10.2564  -14.3366 O   0  0  0  0  0  0  0  0  0  0  0  0
   18.7743   -8.9979  -16.0730 N   0  0  0  0  0  0  0  0  0  0  0  0
   19.3471   -7.9743  -15.2287 C   0  0  1  0  0  0  0  0  0  0  0  0
   20.4007   -7.1366  -15.8634 C   0  0  0  0  0  0  0  0  0  0  0  0
   20.9763   -6.0662  -15.0619 C   0  0  0  0  0  0  0  0  0  0  0  0
   21.7207   -6.2093  -13.9207 C   0  0  0  0  0  0  0  0  0  0  0  0
   22.0533   -4.9926  -13.4745 N   0  0  0  0  0  0  0  0  0  0  0  0
   21.5592   -4.0311  -14.2754 C   0  0  0  0  0  0  0  0  0  0  0  0
   21.6255   -2.6518  -14.2498 C   0  0  0  0  0  0  0  0  0  0  0  0
   21.0166   -1.8879  -15.2244 C   0  0  0  0  0  0  0  0  0  0  0  0
   20.3366   -2.5419  -16.2297 C   0  0  0  0  0  0  0  0  0  0  0  0
   20.2796   -3.9129  -16.2413 C   0  0  0  0  0  0  0  0  0  0  0  0
   20.8772   -4.7108  -15.2814 C   0  0  0  0  0  0  0  0  0  0  0  0
   18.3075   -7.2057  -14.5016 C   0  0  0  0  0  0  0  0  0  0  0  0
   17.2466   -6.8226  -15.1090 O   0  0  0  0  0  0  0  0  0  0  0  0
   16.8319   -5.4044   -9.0238 N   0  0  0  0  0  0  0  0  0  0  0  0
   16.3694   -6.0022  -10.2279 C   0  0  0  0  0  0  0  0  0  0  0  0
   15.1561   -5.8846  -10.4825 O   0  0  0  0  0  0  0  0  0  0  0  0
   17.2844   -6.7097  -11.1013 C   0  0  0  0  0  0  0  0  0  0  0  0
   17.4279   -6.0813  -12.4679 C   0  0  2  0  0  0  0  0  0  0  0  0
   18.4782   -6.8908  -13.1350 N   0  0  0  0  0  0  0  0  0  0  0  0
   17.8843   -4.6943  -12.3818 C   0  0  0  0  0  0  0  0  0  0  0  0
   17.1037   -3.5742  -12.5219 O   0  0  0  0  0  0  0  0  0  0  0  0
   19.1210   -4.4727  -12.1567 O   0  0  0  0  0  0  0  0  0  0  0  0
  2  1  1  0
  3  2  1  0
  3  4  1  1
  5  7  1  0
  5  3  1  0
  5  6  1  6
  7  8  2  0
  9  7  1  0
 10  9  1  0
 10 11  1  6
 12 13  2  0
 12 11  1  0
 14 13  1  0
 15 20  2  0
 15 14  1  0
 16 15  1  0
 17 18  1  0
 17 16  2  0
 18 19  2  0
 19 20  1  0
 20 12  1  0
 21 10  1  0
 22 21  2  0
 23 24  1  0
 24 26  1  0
 25 24  2  0
 27 26  1  1
 27 28  1  0
 28 21  1  0
 29 27  1  0
 29 30  1  0
 31 29  2  0
M  END
$$$$
