QLN.pdb
     RDKit          3D

 26 25  0  0  1  0  0  0  0  0999 V2000
    8.1563  -12.2439   18.2202 N   0  0  0  0  0  0  0  0  0  0  0  0
    8.1482  -13.6440   18.3591 C   0  0  0  0  0  0  0  0  0  0  0  0
    8.5848  -14.3750   17.4231 O   0  0  0  0  0  0  0  0  0  0  0  0
    7.6424  -14.3286   19.5750 C   0  0  0  0  0  0  0  0  0  0  0  0
    8.6866  -14.4280   20.6375 C   0  0  0  0  0  0  0  0  0  0  0  0
    8.2766  -15.4717   21.6372 C   0  0  2  0  0  0  0  0  0  0  0  0
    6.8356  -15.6610   21.5294 N   0  0  0  0  0  0  0  0  0  0  0  0
    8.6489  -15.1243   23.0277 C   0  0  0  0  0  0  0  0  0  0  0  0
    9.8386  -14.8954   23.3228 O   0  0  0  0  0  0  0  0  0  0  0  0
    5.7999  -11.7486   26.1332 C   0  0  0  0  0  0  0  0  0  0  0  0
    6.9455  -12.5353   25.5289 C   0  0  1  0  0  0  0  0  0  0  0  0
    8.2719  -11.8552   25.8631 C   0  0  0  0  0  0  0  0  0  0  0  0
    6.9181  -13.9468   26.0447 C   0  0  0  0  0  0  0  0  0  0  0  0
    7.9541  -14.8110   25.3962 C   0  0  2  0  0  0  0  0  0  0  0  0
    7.6447  -15.0546   24.0162 N   0  0  0  0  0  0  0  0  0  0  0  0
    8.1096  -16.1073   26.1314 C   0  0  0  0  0  0  0  0  0  0  0  0
    7.1882  -16.5322   26.8625 O   0  0  0  0  0  0  0  0  0  0  0  0
    7.0345  -19.4833   27.4776 N   0  0  0  0  0  0  0  0  0  0  0  0
    7.2728  -19.6739   26.0884 C   0  0  0  0  0  0  0  0  0  0  0  0
    6.4626  -20.3812   25.4450 O   0  0  0  0  0  0  0  0  0  0  0  0
    8.4214  -19.0687   25.4268 C   0  0  0  0  0  0  0  0  0  0  0  0
    9.2965  -18.2837   26.3659 C   0  0  2  0  0  0  0  0  0  0  0  0
    9.2938  -16.8625   26.0086 N   0  0  0  0  0  0  0  0  0  0  0  0
   10.6641  -18.8078   26.3412 C   0  0  0  0  0  0  0  0  0  0  0  0
   11.6133  -18.5576   25.3779 O   0  0  0  0  0  0  0  0  0  0  0  0
   11.0307  -19.5739   27.2968 O   0  0  0  0  0  0  0  0  0  0  0  0
  1  2  1  0
  2  4  1  0
  3  2  2  0
  4  5  1  0
  5  6  1  0
  6  7  1  1
  8  6  1  0
  9  8  2  0
 11 10  1  1
 12 11  1  0
 13 11  1  0
 14 15  1  0
 14 13  1  1
 15  8  1  0
 16 14  1  0
 17 16  2  0
 19 18  1  0
 19 21  1  0
 20 19  2  0
 22 21  1  6
 22 23  1  0
 23 16  1  0
 24 25  1  0
 24 22  1  0
 26 24  2  0
M  END
$$$$
