QLN.pdb
     RDKit          3D

 26 25  0  0  1  0  0  0  0  0999 V2000
    9.9291  -13.3751   17.3207 N   0  0  0  0  0  0  0  0  0  0  0  0
    8.5586  -13.6291   17.1284 C   0  0  0  0  0  0  0  0  0  0  0  0
    8.1265  -13.9303   15.9778 O   0  0  0  0  0  0  0  0  0  0  0  0
    7.5659  -13.5614   18.2297 C   0  0  0  0  0  0  0  0  0  0  0  0
    8.2094  -13.2826   19.5478 C   0  0  0  0  0  0  0  0  0  0  0  0
    8.2606  -14.5512   20.3509 C   0  0  2  0  0  0  0  0  0  0  0  0
    6.9516  -15.1878   20.2763 N   0  0  0  0  0  0  0  0  0  0  0  0
    8.6477  -14.3313   21.7631 C   0  0  0  0  0  0  0  0  0  0  0  0
    9.8320  -14.0777   22.0595 O   0  0  0  0  0  0  0  0  0  0  0  0
    8.2924  -12.2368   26.4028 C   0  0  0  0  0  0  0  0  0  0  0  0
    7.1672  -13.2481   26.3144 C   0  0  1  0  0  0  0  0  0  0  0  0
    5.9407  -12.7223   27.0580 C   0  0  0  0  0  0  0  0  0  0  0  0
    6.8464  -13.5238   24.8720 C   0  0  0  0  0  0  0  0  0  0  0  0
    7.9759  -14.1951   24.1550 C   0  0  2  0  0  0  0  0  0  0  0  0
    7.6637  -14.4113   22.7711 N   0  0  0  0  0  0  0  0  0  0  0  0
    8.3375  -15.4905   24.8154 C   0  0  0  0  0  0  0  0  0  0  0  0
    7.4822  -16.3940   24.9424 O   0  0  0  0  0  0  0  0  0  0  0  0
   12.1289  -19.7155   24.6315 N   0  0  0  0  0  0  0  0  0  0  0  0
   12.0157  -18.5996   25.5061 C   0  0  0  0  0  0  0  0  0  0  0  0
   12.4228  -18.7327   26.6840 O   0  0  0  0  0  0  0  0  0  0  0  0
   11.4452  -17.3374   25.0539 C   0  0  0  0  0  0  0  0  0  0  0  0
   10.0851  -17.0631   25.6361 C   0  0  2  0  0  0  0  0  0  0  0  0
    9.6434  -15.7066   25.3009 N   0  0  0  0  0  0  0  0  0  0  0  0
   10.1111  -17.2407   27.0898 C   0  0  0  0  0  0  0  0  0  0  0  0
    9.9322  -18.4240   27.7675 O   0  0  0  0  0  0  0  0  0  0  0  0
   10.3176  -16.2097   27.8169 O   0  0  0  0  0  0  0  0  0  0  0  0
  1  2  1  0
  2  4  1  0
  3  2  2  0
  4  5  1  0
  5  6  1  0
  6  7  1  1
  8  6  1  0
  9  8  2  0
 11 10  1  6
 12 11  1  0
 13 11  1  0
 14 15  1  0
 14 13  1  1
 15  8  1  0
 16 14  1  0
 17 16  2  0
 19 18  1  0
 19 21  1  0
 20 19  2  0
 22 21  1  1
 22 23  1  0
 23 16  1  0
 24 25  1  0
 24 22  1  0
 26 24  2  0
M  END
$$$$
