QLN.pdb
     RDKit          3D

 26 25  0  0  1  0  0  0  0  0999 V2000
    7.9896  -12.2049   17.9530 N   0  0  0  0  0  0  0  0  0  0  0  0
    8.2020  -13.5954   17.9848 C   0  0  0  0  0  0  0  0  0  0  0  0
    8.0546  -14.2820   16.9321 O   0  0  0  0  0  0  0  0  0  0  0  0
    8.5998  -14.3202   19.2173 C   0  0  0  0  0  0  0  0  0  0  0  0
    7.4851  -15.1492   19.7644 C   0  0  0  0  0  0  0  0  0  0  0  0
    7.9594  -15.8625   20.9986 C   0  0  2  0  0  0  0  0  0  0  0  0
    6.9062  -16.7736   21.4283 N   0  0  0  0  0  0  0  0  0  0  0  0
    8.3258  -14.9417   22.0988 C   0  0  0  0  0  0  0  0  0  0  0  0
    9.3250  -14.2029   21.9955 O   0  0  0  0  0  0  0  0  0  0  0  0
    7.6442  -11.4859   25.8883 C   0  0  0  0  0  0  0  0  0  0  0  0
    6.9717  -12.7756   26.3138 C   0  0  1  0  0  0  0  0  0  0  0  0
    5.7126  -12.4600   27.1193 C   0  0  0  0  0  0  0  0  0  0  0  0
    6.6435  -13.5997   25.1005 C   0  0  0  0  0  0  0  0  0  0  0  0
    7.8696  -14.0772   24.3869 C   0  0  2  0  0  0  0  0  0  0  0  0
    7.5337  -14.9078   23.2658 N   0  0  0  0  0  0  0  0  0  0  0  0
    8.7845  -14.8089   25.3211 C   0  0  0  0  0  0  0  0  0  0  0  0
    8.9511  -14.3987   26.4907 O   0  0  0  0  0  0  0  0  0  0  0  0
   11.0930  -17.7532   28.7227 N   0  0  0  0  0  0  0  0  0  0  0  0
   10.0985  -18.2216   27.8202 C   0  0  0  0  0  0  0  0  0  0  0  0
    9.8475  -19.4495   27.8083 O   0  0  0  0  0  0  0  0  0  0  0  0
    9.3893  -17.3082   26.9338 C   0  0  0  0  0  0  0  0  0  0  0  0
   10.2646  -16.7403   25.8496 C   0  0  2  0  0  0  0  0  0  0  0  0
    9.4674  -15.9661   24.8943 N   0  0  0  0  0  0  0  0  0  0  0  0
   10.9764  -17.8171   25.1573 C   0  0  0  0  0  0  0  0  0  0  0  0
   11.9301  -18.6438   25.7037 O   0  0  0  0  0  0  0  0  0  0  0  0
   10.7005  -18.0247   23.9264 O   0  0  0  0  0  0  0  0  0  0  0  0
  1  2  1  0
  2  4  1  0
  3  2  2  0
  4  5  1  0
  5  6  1  0
  6  7  1  1
  8  6  1  0
  9  8  2  0
 11 10  1  6
 12 11  1  0
 13 11  1  0
 14 15  1  0
 14 13  1  1
 15  8  1  0
 16 14  1  0
 17 16  2  0
 19 18  1  0
 19 21  1  0
 20 19  2  0
 22 21  1  1
 22 23  1  0
 23 16  1  0
 24 25  1  0
 24 22  1  0
 26 24  2  0
M  END
$$$$
