QLN.pdb
     RDKit          3D

 26 25  0  0  1  0  0  0  0  0999 V2000
    7.9199  -12.4073   17.7424 N   0  0  0  0  0  0  0  0  0  0  0  0
    8.3059  -13.7097   17.3759 C   0  0  0  0  0  0  0  0  0  0  0  0
    8.5366  -13.9830   16.1620 O   0  0  0  0  0  0  0  0  0  0  0  0
    8.4615  -14.8094   18.3603 C   0  0  0  0  0  0  0  0  0  0  0  0
    8.0718  -14.3872   19.7384 C   0  0  0  0  0  0  0  0  0  0  0  0
    8.2665  -15.5399   20.6820 C   0  0  2  0  0  0  0  0  0  0  0  0
    7.0179  -16.2887   20.7462 N   0  0  0  0  0  0  0  0  0  0  0  0
    8.6855  -15.1179   22.0382 C   0  0  0  0  0  0  0  0  0  0  0  0
    9.8868  -14.8915   22.2844 O   0  0  0  0  0  0  0  0  0  0  0  0
    8.4872  -12.3735   26.3589 C   0  0  0  0  0  0  0  0  0  0  0  0
    7.3002  -13.3146   26.4011 C   0  0  1  0  0  0  0  0  0  0  0  0
    6.1112  -12.6170   27.0594 C   0  0  0  0  0  0  0  0  0  0  0  0
    6.9589  -13.7621   25.0074 C   0  0  0  0  0  0  0  0  0  0  0  0
    8.0573  -14.5633   24.3809 C   0  0  2  0  0  0  0  0  0  0  0  0
    7.7127  -14.9744   23.0498 N   0  0  0  0  0  0  0  0  0  0  0  0
    8.3997  -15.7554   25.2216 C   0  0  0  0  0  0  0  0  0  0  0  0
    7.5047  -16.5508   25.5824 O   0  0  0  0  0  0  0  0  0  0  0  0
   12.0451  -17.5620   23.4147 N   0  0  0  0  0  0  0  0  0  0  0  0
   11.2423  -18.1954   24.4033 C   0  0  0  0  0  0  0  0  0  0  0  0
   10.4446  -19.0869   24.0295 O   0  0  0  0  0  0  0  0  0  0  0  0
   11.3387  -17.8246   25.8092 C   0  0  0  0  0  0  0  0  0  0  0  0
   10.0710  -17.2184   26.3472 C   0  0  2  0  0  0  0  0  0  0  0  0
    9.7321  -15.9947   25.6155 N   0  0  0  0  0  0  0  0  0  0  0  0
   10.2146  -16.9288   27.7759 C   0  0  0  0  0  0  0  0  0  0  0  0
   10.1364  -17.8411   28.8021 O   0  0  0  0  0  0  0  0  0  0  0  0
   10.4330  -15.7182   28.1240 O   0  0  0  0  0  0  0  0  0  0  0  0
  1  2  1  0
  2  4  1  0
  3  2  2  0
  4  5  1  0
  5  6  1  0
  6  7  1  1
  8  6  1  0
  9  8  2  0
 11 10  1  6
 12 11  1  0
 13 11  1  0
 14 15  1  0
 14 13  1  1
 15  8  1  0
 16 14  1  0
 17 16  2  0
 19 18  1  0
 19 21  1  0
 20 19  2  0
 22 21  1  6
 22 23  1  0
 23 16  1  0
 24 25  1  0
 24 22  1  0
 26 24  2  0
M  END
$$$$
