QLN.pdb
     RDKit          3D

 26 25  0  0  1  0  0  0  0  0999 V2000
   11.2427  -16.1363   14.0901 N   0  0  0  0  0  0  0  0  0  0  0  0
    9.9358  -16.2138   14.6056 C   0  0  0  0  0  0  0  0  0  0  0  0
    8.9487  -15.9077   13.8754 O   0  0  0  0  0  0  0  0  0  0  0  0
    9.6437  -16.6462   15.9950 C   0  0  0  0  0  0  0  0  0  0  0  0
   10.8847  -17.0104   16.7412 C   0  0  0  0  0  0  0  0  0  0  0  0
   10.5115  -17.5000   18.1116 C   0  0  2  0  0  0  0  0  0  0  0  0
    9.1780  -18.0832   18.0368 N   0  0  0  0  0  0  0  0  0  0  0  0
   10.5526  -16.4364   19.1411 C   0  0  0  0  0  0  0  0  0  0  0  0
   11.6315  -15.8835   19.4329 O   0  0  0  0  0  0  0  0  0  0  0  0
    6.4334  -12.9230   19.6411 C   0  0  0  0  0  0  0  0  0  0  0  0
    7.8222  -13.5289   19.6145 C   0  0  1  0  0  0  0  0  0  0  0  0
    8.8655  -12.4227   19.4675 C   0  0  0  0  0  0  0  0  0  0  0  0
    8.0520  -14.3237   20.8694 C   0  0  0  0  0  0  0  0  0  0  0  0
    9.3460  -15.0756   20.8390 C   0  0  2  0  0  0  0  0  0  0  0  0
    9.3593  -16.0541   19.7894 N   0  0  0  0  0  0  0  0  0  0  0  0
    9.6207  -15.7262   22.1606 C   0  0  0  0  0  0  0  0  0  0  0  0
    8.6991  -16.2916   22.7889 O   0  0  0  0  0  0  0  0  0  0  0  0
   12.3163  -20.2485   23.5818 N   0  0  0  0  0  0  0  0  0  0  0  0
   11.4730  -19.1854   24.0079 C   0  0  0  0  0  0  0  0  0  0  0  0
   11.0702  -19.1947   25.1947 O   0  0  0  0  0  0  0  0  0  0  0  0
   11.0851  -18.1151   23.0985 C   0  0  0  0  0  0  0  0  0  0  0  0
   11.3219  -16.7427   23.6682 C   0  0  2  0  0  0  0  0  0  0  0  0
   10.9186  -15.7090   22.7109 N   0  0  0  0  0  0  0  0  0  0  0  0
   12.7334  -16.5785   24.0237 C   0  0  0  0  0  0  0  0  0  0  0  0
   13.3166  -16.9283   25.2191 O   0  0  0  0  0  0  0  0  0  0  0  0
   13.5152  -16.0615   23.1543 O   0  0  0  0  0  0  0  0  0  0  0  0
  1  2  1  0
  2  4  1  0
  3  2  2  0
  4  5  1  0
  5  6  1  0
  6  7  1  6
  8  6  1  0
  9  8  2  0
 11 10  1  1
 12 11  1  0
 13 11  1  0
 14 15  1  0
 14 13  1  1
 15  8  1  0
 16 14  1  0
 17 16  2  0
 19 18  1  0
 19 21  1  0
 20 19  2  0
 22 21  1  6
 22 23  1  0
 23 16  1  0
 24 25  1  0
 24 22  1  0
 26 24  2  0
M  END
$$$$
