QLN.pdb
     RDKit          3D

 26 25  0  0  1  0  0  0  0  0999 V2000
    8.1109  -12.0123   18.7641 N   0  0  0  0  0  0  0  0  0  0  0  0
    8.0526  -13.3349   18.2876 C   0  0  0  0  0  0  0  0  0  0  0  0
    8.2383  -13.5732   17.0588 O   0  0  0  0  0  0  0  0  0  0  0  0
    7.7779  -14.4961   19.1700 C   0  0  0  0  0  0  0  0  0  0  0  0
    7.5409  -14.0814   20.5847 C   0  0  0  0  0  0  0  0  0  0  0  0
    7.9014  -15.2171   21.4996 C   0  0  2  0  0  0  0  0  0  0  0  0
    6.7120  -16.0363   21.6953 N   0  0  0  0  0  0  0  0  0  0  0  0
    8.4379  -14.7663   22.8041 C   0  0  0  0  0  0  0  0  0  0  0  0
    9.5572  -14.2208   22.8703 O   0  0  0  0  0  0  0  0  0  0  0  0
    5.3682  -12.2159   26.3810 C   0  0  0  0  0  0  0  0  0  0  0  0
    6.5151  -12.7166   25.5262 C   0  0  1  0  0  0  0  0  0  0  0  0
    7.6002  -11.6448   25.4389 C   0  0  0  0  0  0  0  0  0  0  0  0
    7.0610  -13.9907   26.1074 C   0  0  0  0  0  0  0  0  0  0  0  0
    8.1530  -14.5779   25.2686 C   0  0  2  0  0  0  0  0  0  0  0  0
    7.6706  -14.9598   23.9722 N   0  0  0  0  0  0  0  0  0  0  0  0
    8.7862  -15.7501   25.9544 C   0  0  0  0  0  0  0  0  0  0  0  0
    9.0742  -15.6896   27.1699 O   0  0  0  0  0  0  0  0  0  0  0  0
    6.3335  -19.0809   25.8132 N   0  0  0  0  0  0  0  0  0  0  0  0
    7.5739  -19.2357   26.4920 C   0  0  0  0  0  0  0  0  0  0  0  0
    7.5538  -19.3087   27.7430 O   0  0  0  0  0  0  0  0  0  0  0  0
    8.8330  -19.3079   25.7621 C   0  0  0  0  0  0  0  0  0  0  0  0
    9.6793  -18.0742   25.9232 C   0  0  2  0  0  0  0  0  0  0  0  0
    9.0647  -16.9330   25.2396 N   0  0  0  0  0  0  0  0  0  0  0  0
   11.0259  -18.3117   25.3982 C   0  0  0  0  0  0  0  0  0  0  0  0
   12.0418  -18.9818   26.0389 O   0  0  0  0  0  0  0  0  0  0  0  0
   11.3050  -17.8604   24.2350 O   0  0  0  0  0  0  0  0  0  0  0  0
  1  2  1  0
  2  4  1  0
  3  2  2  0
  4  5  1  0
  5  6  1  0
  6  7  1  1
  8  6  1  0
  9  8  2  0
 11 10  1  1
 12 11  1  0
 13 11  1  0
 14 15  1  0
 14 13  1  1
 15  8  1  0
 16 14  1  0
 17 16  2  0
 19 18  1  0
 19 21  1  0
 20 19  2  0
 22 21  1  6
 22 23  1  0
 23 16  1  0
 24 25  1  0
 24 22  1  0
 26 24  2  0
M  END
$$$$
