IAY.pdb
     RDKit          3D

 26 26  0  0  1  0  0  0  0  0999 V2000
   23.3494  -17.2601  -16.8409 C   0  0  0  0  0  0  0  0  0  0  0  0
   24.5929  -18.0848  -16.9781 C   0  0  0  0  0  0  0  0  0  0  0  0
   24.8502  -18.9149  -15.7472 C   0  0  2  0  0  0  0  0  0  0  0  0
   24.8369  -18.0272  -14.5387 C   0  0  0  0  0  0  0  0  0  0  0  0
   26.0800  -19.7870  -15.8599 C   0  0  2  0  0  0  0  0  0  0  0  0
   26.0790  -20.4589  -17.1731 N   0  0  0  0  0  0  0  0  0  0  0  0
   26.1359  -20.8625  -14.8469 C   0  0  0  0  0  0  0  0  0  0  0  0
   25.9455  -22.0712  -15.1738 O   0  0  0  0  0  0  0  0  0  0  0  0
   28.7774  -20.6689  -13.4171 C   0  0  0  0  0  0  0  0  0  0  0  0
   27.5052  -21.2299  -12.7659 C   0  0  2  0  0  0  0  0  0  0  0  0
   26.3985  -20.6340  -13.4869 N   0  0  0  0  0  0  0  0  0  0  0  0
   27.5470  -20.7867  -11.3490 C   0  0  0  0  0  0  0  0  0  0  0  0
   28.4665  -21.1702  -10.5892 O   0  0  0  0  0  0  0  0  0  0  0  0
   21.0669  -20.7169  -13.8310 O   0  0  0  0  0  0  0  0  0  0  0  0
   22.0135  -20.8626  -12.8257 C   0  0  0  0  0  0  0  0  0  0  0  0
   21.9749  -20.0071  -11.7414 C   0  0  0  0  0  0  0  0  0  0  0  0
   22.9328  -20.1828  -10.7613 C   0  0  0  0  0  0  0  0  0  0  0  0
   23.9006  -21.1594  -10.8300 C   0  0  0  0  0  0  0  0  0  0  0  0
   24.9218  -21.3447   -9.7878 C   0  0  0  0  0  0  0  0  0  0  0  0
   25.8328  -20.1578   -9.6080 C   0  0  2  0  0  0  0  0  0  0  0  0
   26.5562  -19.9311  -10.8405 N   0  0  0  0  0  0  0  0  0  0  0  0
   26.7903  -20.2852   -8.5079 C   0  0  0  0  0  0  0  0  0  0  0  0
   26.6282  -19.5103   -7.3717 O   0  0  0  0  0  0  0  0  0  0  0  0
   23.9112  -21.9953  -11.9240 C   0  0  0  0  0  0  0  0  0  0  0  0
   22.9617  -21.8559  -12.9415 C   0  0  0  0  0  0  0  0  0  0  0  0
   27.7782  -21.0657   -8.5122 O   0  0  0  0  0  0  0  0  0  0  0  0
  1  2  1  0
  3  5  1  0
  3  2  1  0
  3  4  1  1
  5  6  1  6
  7  5  1  0
  7  8  2  0
 10  9  1  6
 11 10  1  0
 11  7  1  0
 12 10  1  0
 13 12  2  0
 15 25  2  0
 15 14  1  0
 16 15  1  0
 17 18  1  0
 17 16  2  0
 18 24  2  0
 19 18  1  0
 20 21  1  0
 20 19  1  6
 21 12  1  0
 22 20  1  0
 23 22  1  0
 24 25  1  0
 26 22  2  0
M  END
$$$$
