IAY.pdb
     RDKit          3D

 26 26  0  0  1  0  0  0  0  0999 V2000
   30.4217  -30.0920  -17.8119 C   0  0  0  0  0  0  0  0  0  0  0  0
   29.6525  -28.9677  -18.4360 C   0  0  0  0  0  0  0  0  0  0  0  0
   29.1583  -27.9889  -17.4024 C   0  0  2  0  0  0  0  0  0  0  0  0
   28.4310  -28.7330  -16.3226 C   0  0  0  0  0  0  0  0  0  0  0  0
   28.3768  -26.8378  -17.9937 C   0  0  2  0  0  0  0  0  0  0  0  0
   29.2103  -26.1518  -18.9991 N   0  0  0  0  0  0  0  0  0  0  0  0
   27.9984  -25.8094  -17.0012 C   0  0  0  0  0  0  0  0  0  0  0  0
   27.3410  -26.1205  -15.9643 O   0  0  0  0  0  0  0  0  0  0  0  0
   28.6557  -22.1508  -16.6095 C   0  0  0  0  0  0  0  0  0  0  0  0
   27.9106  -23.4266  -16.1919 C   0  0  2  0  0  0  0  0  0  0  0  0
   28.3303  -24.4512  -17.1267 N   0  0  0  0  0  0  0  0  0  0  0  0
   26.4650  -23.1126  -16.3252 C   0  0  0  0  0  0  0  0  0  0  0  0
   25.8845  -23.2435  -17.4277 O   0  0  0  0  0  0  0  0  0  0  0  0
   18.1489  -21.8784  -13.6591 O   0  0  0  0  0  0  0  0  0  0  0  0
   19.5142  -22.1173  -13.7393 C   0  0  0  0  0  0  0  0  0  0  0  0
   19.9567  -23.2659  -14.3671 C   0  0  0  0  0  0  0  0  0  0  0  0
   21.3220  -23.4692  -14.4274 C   0  0  0  0  0  0  0  0  0  0  0  0
   22.2326  -22.5848  -13.8947 C   0  0  0  0  0  0  0  0  0  0  0  0
   23.6860  -22.8025  -13.9568 C   0  0  0  0  0  0  0  0  0  0  0  0
   24.3170  -22.3457  -15.2468 C   0  0  2  0  0  0  0  0  0  0  0  0
   25.7282  -22.6644  -15.2169 N   0  0  0  0  0  0  0  0  0  0  0  0
   24.1547  -20.9194  -15.5334 C   0  0  0  0  0  0  0  0  0  0  0  0
   23.0579  -20.4924  -16.2630 O   0  0  0  0  0  0  0  0  0  0  0  0
   21.7586  -21.4499  -13.2758 C   0  0  0  0  0  0  0  0  0  0  0  0
   20.3849  -21.2010  -13.1902 C   0  0  0  0  0  0  0  0  0  0  0  0
   24.9558  -20.0233  -15.1586 O   0  0  0  0  0  0  0  0  0  0  0  0
  1  2  1  0
  3  5  1  0
  3  2  1  0
  3  4  1  1
  5  6  1  6
  7  5  1  0
  7  8  2  0
 10  9  1  6
 11 10  1  0
 11  7  1  0
 12 10  1  0
 13 12  2  0
 15 25  2  0
 15 14  1  0
 16 15  1  0
 17 18  1  0
 17 16  2  0
 18 24  2  0
 19 18  1  0
 20 21  1  0
 20 19  1  1
 21 12  1  0
 22 20  1  0
 23 22  1  0
 24 25  1  0
 26 22  2  0
M  END
$$$$
