IAY.pdb
     RDKit          3D

 26 26  0  0  1  0  0  0  0  0999 V2000
   25.3426  -14.1260  -16.5871 C   0  0  0  0  0  0  0  0  0  0  0  0
   24.0835  -13.3191  -16.6798 C   0  0  0  0  0  0  0  0  0  0  0  0
   24.3732  -11.8559  -16.8930 C   0  0  2  0  0  0  0  0  0  0  0  0
   25.3296  -11.3812  -15.8400 C   0  0  0  0  0  0  0  0  0  0  0  0
   23.1259  -11.0113  -17.0209 C   0  0  2  0  0  0  0  0  0  0  0  0
   22.3237  -11.5006  -18.1580 N   0  0  0  0  0  0  0  0  0  0  0  0
   23.4039   -9.5855  -17.2961 C   0  0  0  0  0  0  0  0  0  0  0  0
   23.9984   -8.8645  -16.4412 O   0  0  0  0  0  0  0  0  0  0  0  0
   22.8296   -7.3057  -20.2059 C   0  0  0  0  0  0  0  0  0  0  0  0
   23.3057   -7.5433  -18.7658 C   0  0  2  0  0  0  0  0  0  0  0  0
   23.0434   -8.9415  -18.4902 N   0  0  0  0  0  0  0  0  0  0  0  0
   22.4828   -6.6463  -17.9147 C   0  0  0  0  0  0  0  0  0  0  0  0
   21.2555   -6.8537  -17.7725 O   0  0  0  0  0  0  0  0  0  0  0  0
   19.4022   -9.0273  -12.7815 O   0  0  0  0  0  0  0  0  0  0  0  0
   20.2021   -8.0264  -13.3162 C   0  0  0  0  0  0  0  0  0  0  0  0
   19.6426   -6.7901  -13.5764 C   0  0  0  0  0  0  0  0  0  0  0  0
   20.4697   -5.8195  -14.1082 C   0  0  0  0  0  0  0  0  0  0  0  0
   21.8010   -6.0404  -14.3801 C   0  0  0  0  0  0  0  0  0  0  0  0
   22.6808   -5.0078  -14.9485 C   0  0  0  0  0  0  0  0  0  0  0  0
   22.3589   -4.6503  -16.3767 C   0  0  2  0  0  0  0  0  0  0  0  0
   23.0691   -5.5526  -17.2572 N   0  0  0  0  0  0  0  0  0  0  0  0
   22.6787   -3.2705  -16.7467 C   0  0  0  0  0  0  0  0  0  0  0  0
   23.5582   -3.0320  -17.7894 O   0  0  0  0  0  0  0  0  0  0  0  0
   22.3273   -7.2834  -14.1092 C   0  0  0  0  0  0  0  0  0  0  0  0
   21.5291   -8.2978  -13.5705 C   0  0  0  0  0  0  0  0  0  0  0  0
   22.2043   -2.2534  -16.1761 O   0  0  0  0  0  0  0  0  0  0  0  0
  1  2  1  0
  3  5  1  0
  3  2  1  0
  3  4  1  1
  5  6  1  6
  7  5  1  0
  7  8  2  0
 10  9  1  6
 11 10  1  0
 11  7  1  0
 12 10  1  0
 13 12  2  0
 15 25  2  0
 15 14  1  0
 16 15  1  0
 17 18  1  0
 17 16  2  0
 18 24  2  0
 19 18  1  0
 20 21  1  0
 20 19  1  1
 21 12  1  0
 22 20  1  0
 23 22  1  0
 24 25  1  0
 26 22  2  0
M  END
$$$$
