IAY.pdb
     RDKit          3D

 26 26  0  0  1  0  0  0  0  0999 V2000
   19.0837  -14.7136  -26.3729 C   0  0  0  0  0  0  0  0  0  0  0  0
   17.7009  -14.6046  -25.8060 C   0  0  0  0  0  0  0  0  0  0  0  0
   17.6296  -15.1461  -24.4017 C   0  0  2  0  0  0  0  0  0  0  0  0
   17.8687  -16.6263  -24.4283 C   0  0  0  0  0  0  0  0  0  0  0  0
   16.3747  -14.7360  -23.6651 C   0  0  2  0  0  0  0  0  0  0  0  0
   16.3486  -13.2671  -23.5327 N   0  0  0  0  0  0  0  0  0  0  0  0
   16.2940  -15.2751  -22.2908 C   0  0  0  0  0  0  0  0  0  0  0  0
   16.8610  -14.6804  -21.3271 O   0  0  0  0  0  0  0  0  0  0  0  0
   14.2628  -17.8546  -20.5797 C   0  0  0  0  0  0  0  0  0  0  0  0
   15.5367  -16.9985  -20.6184 C   0  0  2  0  0  0  0  0  0  0  0  0
   15.6019  -16.4504  -21.9582 N   0  0  0  0  0  0  0  0  0  0  0  0
   16.6595  -17.9318  -20.3457 C   0  0  0  0  0  0  0  0  0  0  0  0
   17.1238  -18.6528  -21.2591 O   0  0  0  0  0  0  0  0  0  0  0  0
   24.3357  -20.9447  -18.0357 O   0  0  0  0  0  0  0  0  0  0  0  0
   23.1675  -20.2131  -18.2027 C   0  0  0  0  0  0  0  0  0  0  0  0
   22.6829  -19.4747  -17.1402 C   0  0  0  0  0  0  0  0  0  0  0  0
   21.5183  -18.7597  -17.3443 C   0  0  0  0  0  0  0  0  0  0  0  0
   20.8427  -18.7602  -18.5437 C   0  0  0  0  0  0  0  0  0  0  0  0
   19.6016  -18.0010  -18.7601 C   0  0  0  0  0  0  0  0  0  0  0  0
   18.3539  -18.8451  -18.7148 C   0  0  2  0  0  0  0  0  0  0  0  0
   17.2167  -18.0195  -19.0596 N   0  0  0  0  0  0  0  0  0  0  0  0
   18.1021  -19.4922  -17.4261 C   0  0  0  0  0  0  0  0  0  0  0  0
   18.6558  -20.7352  -17.1691 O   0  0  0  0  0  0  0  0  0  0  0  0
   21.3523  -19.5066  -19.5823 C   0  0  0  0  0  0  0  0  0  0  0  0
   22.5284  -20.2467  -19.4232 C   0  0  0  0  0  0  0  0  0  0  0  0
   17.4019  -18.9946  -16.5056 O   0  0  0  0  0  0  0  0  0  0  0  0
  1  2  1  0
  3  5  1  0
  3  2  1  0
  3  4  1  6
  5  6  1  1
  7  5  1  0
  7  8  2  0
 10  9  1  6
 11 10  1  0
 11  7  1  0
 12 10  1  0
 13 12  2  0
 15 25  2  0
 15 14  1  0
 16 15  1  0
 17 18  1  0
 17 16  2  0
 18 24  2  0
 19 18  1  0
 20 21  1  0
 20 19  1  1
 21 12  1  0
 22 20  1  0
 23 22  1  0
 24 25  1  0
 26 22  2  0
M  END
$$$$
