IAY.pdb
     RDKit          3D

 26 26  0  0  1  0  0  0  0  0999 V2000
   22.2408  -19.5334  -16.9162 C   0  0  0  0  0  0  0  0  0  0  0  0
   23.6861  -19.8964  -17.0734 C   0  0  0  0  0  0  0  0  0  0  0  0
   24.2651  -20.4462  -15.7956 C   0  0  2  0  0  0  0  0  0  0  0  0
   23.9683  -19.5012  -14.6697 C   0  0  0  0  0  0  0  0  0  0  0  0
   25.7233  -20.8270  -15.9146 C   0  0  2  0  0  0  0  0  0  0  0  0
   25.8630  -21.9044  -16.9125 N   0  0  0  0  0  0  0  0  0  0  0  0
   26.3011  -21.3512  -14.6587 C   0  0  0  0  0  0  0  0  0  0  0  0
   25.9036  -22.4508  -14.1719 O   0  0  0  0  0  0  0  0  0  0  0  0
   29.0953  -20.3860  -12.3938 C   0  0  0  0  0  0  0  0  0  0  0  0
   27.7582  -21.1058  -12.6198 C   0  0  2  0  0  0  0  0  0  0  0  0
   27.3052  -20.6917  -13.9325 N   0  0  0  0  0  0  0  0  0  0  0  0
   26.8537  -20.6258  -11.5439 C   0  0  0  0  0  0  0  0  0  0  0  0
   26.2355  -19.5432  -11.6683 O   0  0  0  0  0  0  0  0  0  0  0  0
   29.4079  -19.8968   -4.0741 O   0  0  0  0  0  0  0  0  0  0  0  0
   28.6348  -19.8503   -5.2264 C   0  0  0  0  0  0  0  0  0  0  0  0
   28.1773  -21.0339   -5.7733 C   0  0  0  0  0  0  0  0  0  0  0  0
   27.4112  -20.9477   -6.9199 C   0  0  0  0  0  0  0  0  0  0  0  0
   27.0972  -19.7488   -7.5194 C   0  0  0  0  0  0  0  0  0  0  0  0
   26.2836  -19.6574   -8.7413 C   0  0  0  0  0  0  0  0  0  0  0  0
   25.8241  -20.9917   -9.2700 C   0  0  2  0  0  0  0  0  0  0  0  0
   26.6785  -21.3790  -10.3716 N   0  0  0  0  0  0  0  0  0  0  0  0
   24.4290  -21.0246   -9.7122 C   0  0  0  0  0  0  0  0  0  0  0  0
   24.1454  -21.1887  -11.0578 O   0  0  0  0  0  0  0  0  0  0  0  0
   27.5689  -18.5879   -6.9491 C   0  0  0  0  0  0  0  0  0  0  0  0
   28.3483  -18.6250   -5.7883 C   0  0  0  0  0  0  0  0  0  0  0  0
   23.4372  -20.9123   -8.9449 O   0  0  0  0  0  0  0  0  0  0  0  0
  1  2  1  0
  3  5  1  0
  3  2  1  0
  3  4  1  1
  5  6  1  6
  7  5  1  0
  7  8  2  0
 10  9  1  1
 11 10  1  0
 11  7  1  0
 12 10  1  0
 13 12  2  0
 15 25  2  0
 15 14  1  0
 16 15  1  0
 17 18  1  0
 17 16  2  0
 18 24  2  0
 19 18  1  0
 20 21  1  0
 20 19  1  6
 21 12  1  0
 22 20  1  0
 23 22  1  0
 24 25  1  0
 26 22  2  0
M  END
$$$$
