IAY.pdb
     RDKit          3D

 26 26  0  0  1  0  0  0  0  0999 V2000
   19.3137  -14.6672  -20.9846 C   0  0  0  0  0  0  0  0  0  0  0  0
   20.7372  -14.7215  -21.4493 C   0  0  0  0  0  0  0  0  0  0  0  0
   21.5633  -13.6151  -20.8461 C   0  0  2  0  0  0  0  0  0  0  0  0
   20.9175  -12.2949  -21.1443 C   0  0  0  0  0  0  0  0  0  0  0  0
   23.0257  -13.6867  -21.2227 C   0  0  2  0  0  0  0  0  0  0  0  0
   23.5916  -14.9566  -20.7297 N   0  0  0  0  0  0  0  0  0  0  0  0
   23.8433  -12.6108  -20.6228 C   0  0  0  0  0  0  0  0  0  0  0  0
   24.0700  -12.5873  -19.3770 O   0  0  0  0  0  0  0  0  0  0  0  0
   25.6764   -9.6358  -21.9572 C   0  0  0  0  0  0  0  0  0  0  0  0
   25.1425  -10.4593  -20.7765 C   0  0  2  0  0  0  0  0  0  0  0  0
   24.4154  -11.5658  -21.3653 N   0  0  0  0  0  0  0  0  0  0  0  0
   24.2473   -9.5475  -20.0194 C   0  0  0  0  0  0  0  0  0  0  0  0
   23.0555   -9.3889  -20.3715 O   0  0  0  0  0  0  0  0  0  0  0  0
   21.6688   -4.5165  -13.2081 O   0  0  0  0  0  0  0  0  0  0  0  0
   22.3735   -5.3386  -14.0772 C   0  0  0  0  0  0  0  0  0  0  0  0
   23.2434   -4.7642  -14.9841 C   0  0  0  0  0  0  0  0  0  0  0  0
   23.9268   -5.6142  -15.8323 C   0  0  0  0  0  0  0  0  0  0  0  0
   23.7717   -6.9817  -15.8027 C   0  0  0  0  0  0  0  0  0  0  0  0
   24.4974   -7.8863  -16.7074 C   0  0  0  0  0  0  0  0  0  0  0  0
   23.9311   -7.9373  -18.1031 C   0  0  2  0  0  0  0  0  0  0  0  0
   24.7244   -8.8499  -18.8978 N   0  0  0  0  0  0  0  0  0  0  0  0
   23.8671   -6.6424  -18.7828 C   0  0  0  0  0  0  0  0  0  0  0  0
   22.7121   -5.8836  -18.6940 O   0  0  0  0  0  0  0  0  0  0  0  0
   22.8970   -7.5221  -14.8870 C   0  0  0  0  0  0  0  0  0  0  0  0
   22.1828   -6.7017  -14.0077 C   0  0  0  0  0  0  0  0  0  0  0  0
   24.8055   -6.1488  -19.4616 O   0  0  0  0  0  0  0  0  0  0  0  0
  1  2  1  0
  3  5  1  0
  3  2  1  0
  3  4  1  6
  5  6  1  1
  7  5  1  0
  7  8  2  0
 10  9  1  6
 11 10  1  0
 11  7  1  0
 12 10  1  0
 13 12  2  0
 15 25  2  0
 15 14  1  0
 16 15  1  0
 17 18  1  0
 17 16  2  0
 18 24  2  0
 19 18  1  0
 20 21  1  0
 20 19  1  1
 21 12  1  0
 22 20  1  0
 23 22  1  0
 24 25  1  0
 26 22  2  0
M  END
$$$$
