IAY.pdb
     RDKit          3D

 26 26  0  0  1  0  0  0  0  0999 V2000
   17.8066  -12.1080  -19.2555 C   0  0  0  0  0  0  0  0  0  0  0  0
   18.2644  -11.1299  -18.2168 C   0  0  0  0  0  0  0  0  0  0  0  0
   17.3550   -9.9309  -18.1407 C   0  0  2  0  0  0  0  0  0  0  0  0
   17.1633   -9.3657  -19.5164 C   0  0  0  0  0  0  0  0  0  0  0  0
   17.7903   -8.9141  -17.1100 C   0  0  2  0  0  0  0  0  0  0  0  0
   17.6771   -9.5086  -15.7647 N   0  0  0  0  0  0  0  0  0  0  0  0
   16.9542   -7.6950  -17.0935 C   0  0  0  0  0  0  0  0  0  0  0  0
   16.8751   -6.9496  -18.1144 O   0  0  0  0  0  0  0  0  0  0  0  0
   14.4840   -6.2099  -14.7344 C   0  0  0  0  0  0  0  0  0  0  0  0
   15.4302   -6.0598  -15.9342 C   0  0  2  0  0  0  0  0  0  0  0  0
   16.2048   -7.2836  -15.9801 N   0  0  0  0  0  0  0  0  0  0  0  0
   16.2780   -4.8776  -15.6350 C   0  0  0  0  0  0  0  0  0  0  0  0
   17.2292   -4.9655  -14.8243 O   0  0  0  0  0  0  0  0  0  0  0  0
   19.2228    3.4334  -16.6702 O   0  0  0  0  0  0  0  0  0  0  0  0
   18.5441    2.2273  -16.7808 C   0  0  0  0  0  0  0  0  0  0  0  0
   17.4292    2.0123  -15.9935 C   0  0  0  0  0  0  0  0  0  0  0  0
   16.7802    0.8004  -16.1314 C   0  0  0  0  0  0  0  0  0  0  0  0
   17.1995   -0.1754  -17.0073 C   0  0  0  0  0  0  0  0  0  0  0  0
   16.5099   -1.4665  -17.1522 C   0  0  0  0  0  0  0  0  0  0  0  0
   16.8087   -2.4456  -16.0462 C   0  0  2  0  0  0  0  0  0  0  0  0
   16.0254   -3.6440  -16.2568 N   0  0  0  0  0  0  0  0  0  0  0  0
   16.5531   -1.9381  -14.6971 C   0  0  0  0  0  0  0  0  0  0  0  0
   17.5920   -1.3781  -13.9727 O   0  0  0  0  0  0  0  0  0  0  0  0
   18.3140    0.0705  -17.7772 C   0  0  0  0  0  0  0  0  0  0  0  0
   19.0041    1.2826  -17.6726 C   0  0  0  0  0  0  0  0  0  0  0  0
   15.4317   -1.9710  -14.1259 O   0  0  0  0  0  0  0  0  0  0  0  0
  1  2  1  0
  3  5  1  0
  3  2  1  0
  3  4  1  6
  5  6  1  1
  7  5  1  0
  7  8  2  0
 10  9  1  1
 11 10  1  0
 11  7  1  0
 12 10  1  0
 13 12  2  0
 15 25  2  0
 15 14  1  0
 16 15  1  0
 17 18  1  0
 17 16  2  0
 18 24  2  0
 19 18  1  0
 20 21  1  0
 20 19  1  6
 21 12  1  0
 22 20  1  0
 23 22  1  0
 24 25  1  0
 26 22  2  0
M  END
$$$$
