HQR.pdb
     RDKit          3D

 31 31  0  0  1  0  0  0  0  0999 V2000
   10.2618  -17.1238   16.0339 N   0  0  0  0  0  0  0  0  0  0  0  0
    9.0948  -16.9221   16.8879 C   0  0  1  0  0  0  0  0  0  0  0  0
    8.2063  -18.0706   16.7968 C   0  0  0  0  0  0  0  0  0  0  0  0
    7.2762  -18.0739   15.6434 C   0  0  0  0  0  0  0  0  0  0  0  0
    7.2626  -17.1315   14.6232 C   0  0  0  0  0  0  0  0  0  0  0  0
    6.2943  -17.4553   13.7836 N   0  0  0  0  0  0  0  0  0  0  0  0
    5.7129  -18.5685   14.2577 C   0  0  0  0  0  0  0  0  0  0  0  0
    6.3123  -18.9585   15.4059 N   0  0  0  0  0  0  0  0  0  0  0  0
    9.4001  -16.2908   18.1517 C   0  0  0  0  0  0  0  0  0  0  0  0
   10.5324  -16.4862   18.6615 O   0  0  0  0  0  0  0  0  0  0  0  0
   10.2805  -12.4133   19.5876 N   0  0  0  0  0  0  0  0  0  0  0  0
    8.9575  -11.8851   19.3420 C   0  0  0  0  0  0  0  0  0  0  0  0
    8.9250  -10.7526   18.8393 O   0  0  0  0  0  0  0  0  0  0  0  0
    7.7605  -12.6350   19.6690 C   0  0  0  0  0  0  0  0  0  0  0  0
    7.8532  -13.7951   20.5879 C   0  0  0  0  0  0  0  0  0  0  0  0
    8.7206  -14.9108   20.1787 C   0  0  2  0  0  0  0  0  0  0  0  0
    8.5143  -15.4509   18.8986 N   0  0  0  0  0  0  0  0  0  0  0  0
    8.8014  -15.9796   21.2393 C   0  0  0  0  0  0  0  0  0  0  0  0
    7.8676  -16.8157   21.3500 O   0  0  0  0  0  0  0  0  0  0  0  0
   14.9334  -21.9796   21.1056 N   0  0  0  0  0  0  0  0  0  0  0  0
   13.7456  -21.6612   21.8089 C   0  0  0  0  0  0  0  0  0  0  0  0
   13.1433  -22.5928   22.5007 N   0  0  0  0  0  0  0  0  0  0  0  0
   13.2193  -20.3637   21.7652 N   0  0  0  0  0  0  0  0  0  0  0  0
   13.2666  -19.4783   22.8930 C   0  0  0  0  0  0  0  0  0  0  0  0
   11.9732  -18.9508   23.3563 C   0  0  0  0  0  0  0  0  0  0  0  0
   11.3047  -17.8255   22.7788 C   0  0  0  0  0  0  0  0  0  0  0  0
   10.0412  -17.1758   23.1191 C   0  0  2  0  0  0  0  0  0  0  0  0
    9.8990  -16.0511   22.0975 N   0  0  0  0  0  0  0  0  0  0  0  0
    9.9301  -16.4714   24.4220 C   0  0  0  0  0  0  0  0  0  0  0  0
    9.5314  -16.9304   25.6230 O   0  0  0  0  0  0  0  0  0  0  0  0
   10.2672  -15.2122   24.3901 O   0  0  0  0  0  0  0  0  0  0  0  0
  2  1  1  1
  2  3  1  0
  3  4  1  0
  4  5  2  0
  4  8  1  0
  5  6  1  0
  6  7  1  0
  8  7  2  0
  9  2  1  0
 10  9  2  0
 12 14  1  0
 12 11  1  0
 13 12  2  0
 15 14  1  0
 16 15  1  1
 16 17  1  0
 17  9  1  0
 18 28  1  0
 18 16  1  0
 19 18  2  0
 21 20  1  0
 21 23  1  0
 22 21  2  0
 24 23  1  0
 25 24  1  0
 26 25  1  0
 27 26  1  1
 27 28  1  0
 29 27  1  0
 30 29  1  0
 31 29  2  0
M  END
$$$$
