HQR.pdb
     RDKit          3D

 31 31  0  0  1  0  0  0  0  0999 V2000
   10.6681  -14.0782   20.1626 N   0  0  0  0  0  0  0  0  0  0  0  0
    9.3255  -14.2890   20.6962 C   0  0  1  0  0  0  0  0  0  0  0  0
    8.6060  -15.2470   19.8708 C   0  0  0  0  0  0  0  0  0  0  0  0
    8.2830  -14.7966   18.4967 C   0  0  0  0  0  0  0  0  0  0  0  0
    8.7452  -13.6264   17.9083 C   0  0  0  0  0  0  0  0  0  0  0  0
    8.2413  -13.5585   16.6881 N   0  0  0  0  0  0  0  0  0  0  0  0
    7.4837  -14.6521   16.5095 C   0  0  0  0  0  0  0  0  0  0  0  0
    7.5031  -15.4232   17.6208 N   0  0  0  0  0  0  0  0  0  0  0  0
    9.2731  -14.3333   22.1399 C   0  0  0  0  0  0  0  0  0  0  0  0
   10.2123  -14.8965   22.7571 O   0  0  0  0  0  0  0  0  0  0  0  0
    4.8874  -11.5928   26.3662 N   0  0  0  0  0  0  0  0  0  0  0  0
    5.9182  -12.2832   27.1081 C   0  0  0  0  0  0  0  0  0  0  0  0
    5.8669  -12.1449   28.3389 O   0  0  0  0  0  0  0  0  0  0  0  0
    6.9374  -13.0750   26.4476 C   0  0  0  0  0  0  0  0  0  0  0  0
    7.0246  -13.0659   24.9674 C   0  0  0  0  0  0  0  0  0  0  0  0
    8.1221  -13.8287   24.3526 C   0  0  2  0  0  0  0  0  0  0  0  0
    8.2272  -13.7911   22.9524 N   0  0  0  0  0  0  0  0  0  0  0  0
    8.2005  -15.2354   24.8900 C   0  0  0  0  0  0  0  0  0  0  0  0
    7.5151  -16.1437   24.3529 O   0  0  0  0  0  0  0  0  0  0  0  0
   11.6070  -20.6189   21.3511 N   0  0  0  0  0  0  0  0  0  0  0  0
   10.6693  -19.5733   21.5361 C   0  0  0  0  0  0  0  0  0  0  0  0
    9.8934  -19.2275   20.5423 N   0  0  0  0  0  0  0  0  0  0  0  0
   10.5723  -18.9147   22.7687 N   0  0  0  0  0  0  0  0  0  0  0  0
   11.3945  -19.2633   23.8915 C   0  0  0  0  0  0  0  0  0  0  0  0
   11.0465  -18.6252   25.1712 C   0  0  0  0  0  0  0  0  0  0  0  0
   10.2641  -17.4339   25.2947 C   0  0  0  0  0  0  0  0  0  0  0  0
    9.3544  -16.9827   26.3450 C   0  0  2  0  0  0  0  0  0  0  0  0
    9.0236  -15.5397   25.9745 N   0  0  0  0  0  0  0  0  0  0  0  0
    9.8687  -16.8704   27.7340 C   0  0  0  0  0  0  0  0  0  0  0  0
   10.0492  -15.7818   28.5049 O   0  0  0  0  0  0  0  0  0  0  0  0
   10.2000  -18.0049   28.2847 O   0  0  0  0  0  0  0  0  0  0  0  0
  2  1  1  1
  2  3  1  0
  3  4  1  0
  4  5  2  0
  4  8  1  0
  5  6  1  0
  6  7  1  0
  8  7  2  0
  9  2  1  0
 10  9  2  0
 12 14  1  0
 12 11  1  0
 13 12  2  0
 15 14  1  0
 16 15  1  6
 16 17  1  0
 17  9  1  0
 18 28  1  0
 18 16  1  0
 19 18  2  0
 21 20  1  0
 21 23  1  0
 22 21  2  0
 24 23  1  0
 25 24  1  0
 26 25  1  0
 27 26  1  6
 27 28  1  0
 29 27  1  0
 30 29  1  0
 31 29  2  0
M  END
$$$$
