HQR.pdb
     RDKit          3D

 31 31  0  0  1  0  0  0  0  0999 V2000
   10.0605  -13.9204   20.8724 N   0  0  0  0  0  0  0  0  0  0  0  0
    8.7580  -14.3341   21.3861 C   0  0  1  0  0  0  0  0  0  0  0  0
    8.0864  -15.1839   20.4148 C   0  0  0  0  0  0  0  0  0  0  0  0
    7.9873  -14.6366   19.0415 C   0  0  0  0  0  0  0  0  0  0  0  0
    8.5279  -13.4285   18.6202 C   0  0  0  0  0  0  0  0  0  0  0  0
    8.2292  -13.2732   17.3419 N   0  0  0  0  0  0  0  0  0  0  0  0
    7.5214  -14.3499   16.9655 C   0  0  0  0  0  0  0  0  0  0  0  0
    7.3669  -15.1979   18.0081 N   0  0  0  0  0  0  0  0  0  0  0  0
    8.7599  -14.6418   22.7982 C   0  0  0  0  0  0  0  0  0  0  0  0
    9.8133  -15.0974   23.3112 O   0  0  0  0  0  0  0  0  0  0  0  0
    7.4928  -10.8327   26.1890 N   0  0  0  0  0  0  0  0  0  0  0  0
    6.6950  -11.9432   26.6577 C   0  0  0  0  0  0  0  0  0  0  0  0
    6.5977  -12.0421   27.8895 O   0  0  0  0  0  0  0  0  0  0  0  0
    6.0618  -12.8719   25.7420 C   0  0  0  0  0  0  0  0  0  0  0  0
    6.4128  -14.3113   25.8022 C   0  0  0  0  0  0  0  0  0  0  0  0
    7.6112  -14.7437   25.0666 C   0  0  2  0  0  0  0  0  0  0  0  0
    7.6503  -14.4802   23.6874 N   0  0  0  0  0  0  0  0  0  0  0  0
    7.9817  -16.1708   25.3824 C   0  0  0  0  0  0  0  0  0  0  0  0
    7.1840  -17.0985   25.0884 O   0  0  0  0  0  0  0  0  0  0  0  0
    9.1546  -19.0562   21.6465 N   0  0  0  0  0  0  0  0  0  0  0  0
   10.2635  -18.3225   21.1579 C   0  0  0  0  0  0  0  0  0  0  0  0
   10.3172  -18.0153   19.8883 N   0  0  0  0  0  0  0  0  0  0  0  0
   11.2932  -17.9296   22.0227 N   0  0  0  0  0  0  0  0  0  0  0  0
   11.5565  -18.6071   23.2596 C   0  0  0  0  0  0  0  0  0  0  0  0
   10.4252  -18.7084   24.1954 C   0  0  0  0  0  0  0  0  0  0  0  0
   10.5001  -18.4039   25.5912 C   0  0  0  0  0  0  0  0  0  0  0  0
    9.5019  -17.8746   26.5173 C   0  0  2  0  0  0  0  0  0  0  0  0
    9.1976  -16.4729   25.9960 N   0  0  0  0  0  0  0  0  0  0  0  0
    9.8950  -17.6369   27.9298 C   0  0  0  0  0  0  0  0  0  0  0  0
   10.0407  -16.4816   28.6052 O   0  0  0  0  0  0  0  0  0  0  0  0
   10.1410  -18.7184   28.6153 O   0  0  0  0  0  0  0  0  0  0  0  0
  2  1  1  6
  2  3  1  0
  3  4  1  0
  4  5  2  0
  4  8  1  0
  5  6  1  0
  6  7  1  0
  8  7  2  0
  9  2  1  0
 10  9  2  0
 12 14  1  0
 12 11  1  0
 13 12  2  0
 15 14  1  0
 16 15  1  6
 16 17  1  0
 17  9  1  0
 18 28  1  0
 18 16  1  0
 19 18  2  0
 21 20  1  0
 21 23  1  0
 22 21  2  0
 24 23  1  0
 25 24  1  0
 26 25  1  0
 27 26  1  6
 27 28  1  0
 29 27  1  0
 30 29  1  0
 31 29  2  0
M  END
$$$$
