HQR.pdb
     RDKit          3D

 31 31  0  0  1  0  0  0  0  0999 V2000
    9.1487  -18.4932   17.2080 N   0  0  0  0  0  0  0  0  0  0  0  0
    9.8347  -17.4316   17.9390 C   0  0  1  0  0  0  0  0  0  0  0  0
    9.5954  -16.1488   17.2957 C   0  0  0  0  0  0  0  0  0  0  0  0
    9.9660  -16.0689   15.8634 C   0  0  0  0  0  0  0  0  0  0  0  0
    9.1044  -15.7190   14.8317 C   0  0  0  0  0  0  0  0  0  0  0  0
    9.7852  -15.7670   13.6996 N   0  0  0  0  0  0  0  0  0  0  0  0
   11.0391  -16.1358   14.0052 C   0  0  0  0  0  0  0  0  0  0  0  0
   11.1610  -16.3244   15.3392 N   0  0  0  0  0  0  0  0  0  0  0  0
    9.7847  -17.5872   19.3750 C   0  0  0  0  0  0  0  0  0  0  0  0
    8.6909  -17.3887   19.9620 O   0  0  0  0  0  0  0  0  0  0  0  0
   14.0415  -20.5197   23.5317 N   0  0  0  0  0  0  0  0  0  0  0  0
   13.0200  -19.8472   24.3025 C   0  0  0  0  0  0  0  0  0  0  0  0
   13.0958  -20.0019   25.5301 O   0  0  0  0  0  0  0  0  0  0  0  0
   11.9827  -19.0541   23.6725 C   0  0  0  0  0  0  0  0  0  0  0  0
   11.9917  -18.8760   22.2004 C   0  0  0  0  0  0  0  0  0  0  0  0
   10.8897  -18.1015   21.6088 C   0  0  2  0  0  0  0  0  0  0  0  0
   10.8877  -17.9473   20.2126 N   0  0  0  0  0  0  0  0  0  0  0  0
   10.6739  -16.7920   22.3246 C   0  0  0  0  0  0  0  0  0  0  0  0
   11.5118  -15.8636   22.1860 O   0  0  0  0  0  0  0  0  0  0  0  0
    8.1023  -12.0656   18.9671 N   0  0  0  0  0  0  0  0  0  0  0  0
    7.9852  -13.4739   18.8677 C   0  0  0  0  0  0  0  0  0  0  0  0
    8.3909  -14.0736   17.7791 N   0  0  0  0  0  0  0  0  0  0  0  0
    7.4408  -14.2185   19.9220 N   0  0  0  0  0  0  0  0  0  0  0  0
    7.1476  -13.6372   21.2004 C   0  0  0  0  0  0  0  0  0  0  0  0
    8.2218  -13.7057   22.2040 C   0  0  0  0  0  0  0  0  0  0  0  0
    8.2536  -14.6328   23.2931 C   0  0  0  0  0  0  0  0  0  0  0  0
    9.3679  -15.3175   23.9440 C   0  0  2  0  0  0  0  0  0  0  0  0
    9.5566  -16.5993   23.1375 N   0  0  0  0  0  0  0  0  0  0  0  0
    9.1880  -15.8104   25.3336 C   0  0  0  0  0  0  0  0  0  0  0  0
    9.1395  -17.0700   25.8058 O   0  0  0  0  0  0  0  0  0  0  0  0
    9.0513  -14.8731   26.2297 O   0  0  0  0  0  0  0  0  0  0  0  0
  2  1  1  6
  2  3  1  0
  3  4  1  0
  4  5  2  0
  4  8  1  0
  5  6  1  0
  6  7  1  0
  8  7  2  0
  9  2  1  0
 10  9  2  0
 12 14  1  0
 12 11  1  0
 13 12  2  0
 15 14  1  0
 16 15  1  1
 16 17  1  0
 17  9  1  0
 18 28  1  0
 18 16  1  0
 19 18  2  0
 21 20  1  0
 21 23  1  0
 22 21  2  0
 24 23  1  0
 25 24  1  0
 26 25  1  0
 27 26  1  6
 27 28  1  0
 29 27  1  0
 30 29  1  0
 31 29  2  0
M  END
$$$$
