HQR.pdb
     RDKit          3D

 31 31  0  0  1  0  0  0  0  0999 V2000
    6.9596  -17.6665   21.0637 N   0  0  0  0  0  0  0  0  0  0  0  0
    6.2932  -17.3399   22.3210 C   0  0  1  0  0  0  0  0  0  0  0  0
    5.5326  -18.4863   22.7943 C   0  0  0  0  0  0  0  0  0  0  0  0
    4.3909  -18.8959   21.9435 C   0  0  0  0  0  0  0  0  0  0  0  0
    3.4301  -18.0371   21.4251 C   0  0  0  0  0  0  0  0  0  0  0  0
    2.5707  -18.7613   20.7290 N   0  0  0  0  0  0  0  0  0  0  0  0
    2.9751  -20.0390   20.8043 C   0  0  0  0  0  0  0  0  0  0  0  0
    4.0986  -20.1325   21.5520 N   0  0  0  0  0  0  0  0  0  0  0  0
    7.0956  -16.5344   23.2133 C   0  0  0  0  0  0  0  0  0  0  0  0
    8.3143  -16.8148   23.3418 O   0  0  0  0  0  0  0  0  0  0  0  0
    5.7480  -10.8514   26.4178 N   0  0  0  0  0  0  0  0  0  0  0  0
    6.9872  -11.4048   26.9156 C   0  0  0  0  0  0  0  0  0  0  0  0
    7.5918  -10.6967   27.7339 O   0  0  0  0  0  0  0  0  0  0  0  0
    7.4799  -12.6962   26.4780 C   0  0  0  0  0  0  0  0  0  0  0  0
    6.7508  -13.4360   25.4198 C   0  0  0  0  0  0  0  0  0  0  0  0
    7.3135  -14.7256   24.9899 C   0  0  2  0  0  0  0  0  0  0  0  0
    6.6236  -15.4271   23.9873 N   0  0  0  0  0  0  0  0  0  0  0  0
    7.6613  -15.6074   26.1626 C   0  0  0  0  0  0  0  0  0  0  0  0
    6.7469  -16.2256   26.7667 O   0  0  0  0  0  0  0  0  0  0  0  0
    7.2831  -22.0726   25.7868 N   0  0  0  0  0  0  0  0  0  0  0  0
    6.9904  -21.6487   27.1064 C   0  0  0  0  0  0  0  0  0  0  0  0
    5.8677  -22.0214   27.6631 N   0  0  0  0  0  0  0  0  0  0  0  0
    7.8913  -20.8385   27.8095 N   0  0  0  0  0  0  0  0  0  0  0  0
    9.1024  -20.3461   27.2187 C   0  0  0  0  0  0  0  0  0  0  0  0
    9.0522  -18.9742   26.6883 C   0  0  0  0  0  0  0  0  0  0  0  0
    9.7921  -17.8726   27.2228 C   0  0  0  0  0  0  0  0  0  0  0  0
    9.3519  -16.6013   27.7922 C   0  0  2  0  0  0  0  0  0  0  0  0
    8.9841  -15.7447   26.5839 N   0  0  0  0  0  0  0  0  0  0  0  0
   10.3417  -15.7640   28.5172 C   0  0  0  0  0  0  0  0  0  0  0  0
   10.7273  -15.8005   29.8064 O   0  0  0  0  0  0  0  0  0  0  0  0
   10.9194  -14.8506   27.7879 O   0  0  0  0  0  0  0  0  0  0  0  0
  2  1  1  6
  2  3  1  0
  3  4  1  0
  4  5  2  0
  4  8  1  0
  5  6  1  0
  6  7  1  0
  8  7  2  0
  9  2  1  0
 10  9  2  0
 12 14  1  0
 12 11  1  0
 13 12  2  0
 15 14  1  0
 16 15  1  1
 16 17  1  0
 17  9  1  0
 18 28  1  0
 18 16  1  0
 19 18  2  0
 21 20  1  0
 21 23  1  0
 22 21  2  0
 24 23  1  0
 25 24  1  0
 26 25  1  0
 27 26  1  6
 27 28  1  0
 29 27  1  0
 30 29  1  0
 31 29  2  0
M  END
$$$$
