HQR.pdb
     RDKit          3D

 31 31  0  0  1  0  0  0  0  0999 V2000
    9.6813  -16.1789   18.3929 N   0  0  0  0  0  0  0  0  0  0  0  0
    8.7326  -15.6423   19.3645 C   0  0  1  0  0  0  0  0  0  0  0  0
    7.4534  -15.3837   18.7214 C   0  0  0  0  0  0  0  0  0  0  0  0
    7.5235  -14.7727   17.3734 C   0  0  0  0  0  0  0  0  0  0  0  0
    7.7332  -13.4241   17.1156 C   0  0  0  0  0  0  0  0  0  0  0  0
    7.7232  -13.2545   15.8046 N   0  0  0  0  0  0  0  0  0  0  0  0
    7.5136  -14.4587   15.2497 C   0  0  0  0  0  0  0  0  0  0  0  0
    7.3892  -15.4030   16.2104 N   0  0  0  0  0  0  0  0  0  0  0  0
    8.8214  -16.2608   20.6677 C   0  0  0  0  0  0  0  0  0  0  0  0
    8.0814  -15.8293   21.5878 O   0  0  0  0  0  0  0  0  0  0  0  0
   12.2400  -21.6645   22.5682 N   0  0  0  0  0  0  0  0  0  0  0  0
   11.4791  -21.1575   23.6879 C   0  0  0  0  0  0  0  0  0  0  0  0
   11.5633  -21.8237   24.7298 O   0  0  0  0  0  0  0  0  0  0  0  0
   10.6743  -19.9558   23.5859 C   0  0  0  0  0  0  0  0  0  0  0  0
   10.5945  -19.2377   22.2910 C   0  0  0  0  0  0  0  0  0  0  0  0
    9.7457  -18.0372   22.2378 C   0  0  2  0  0  0  0  0  0  0  0  0
    9.6955  -17.3374   21.0209 N   0  0  0  0  0  0  0  0  0  0  0  0
    9.9921  -17.1209   23.4097 C   0  0  0  0  0  0  0  0  0  0  0  0
   11.0645  -16.4655   23.4701 O   0  0  0  0  0  0  0  0  0  0  0  0
    6.3498   -9.1842   26.0947 N   0  0  0  0  0  0  0  0  0  0  0  0
    6.2602  -10.5565   26.4348 C   0  0  0  0  0  0  0  0  0  0  0  0
    5.4119  -10.9325   27.3558 N   0  0  0  0  0  0  0  0  0  0  0  0
    7.0705  -11.5025   25.7938 N   0  0  0  0  0  0  0  0  0  0  0  0
    7.0932  -12.8830   26.1834 C   0  0  0  0  0  0  0  0  0  0  0  0
    7.9945  -13.7573   25.4157 C   0  0  0  0  0  0  0  0  0  0  0  0
    8.1042  -15.1712   25.6038 C   0  0  0  0  0  0  0  0  0  0  0  0
    9.2670  -16.0555   25.6099 C   0  0  2  0  0  0  0  0  0  0  0  0
    9.0449  -16.9922   24.4258 N   0  0  0  0  0  0  0  0  0  0  0  0
    9.4492  -16.9859   26.7534 C   0  0  0  0  0  0  0  0  0  0  0  0
   10.0901  -16.8047   27.9232 O   0  0  0  0  0  0  0  0  0  0  0  0
    8.9065  -18.1603   26.5908 O   0  0  0  0  0  0  0  0  0  0  0  0
  2  1  1  6
  2  3  1  0
  3  4  1  0
  4  5  2  0
  4  8  1  0
  5  6  1  0
  6  7  1  0
  8  7  2  0
  9  2  1  0
 10  9  2  0
 12 14  1  0
 12 11  1  0
 13 12  2  0
 15 14  1  0
 16 15  1  6
 16 17  1  0
 17  9  1  0
 18 28  1  0
 18 16  1  0
 19 18  2  0
 21 20  1  0
 21 23  1  0
 22 21  2  0
 24 23  1  0
 25 24  1  0
 26 25  1  0
 27 26  1  1
 27 28  1  0
 29 27  1  0
 30 29  1  0
 31 29  2  0
M  END
$$$$
