HQR.pdb
     RDKit          3D

 31 31  0  0  1  0  0  0  0  0999 V2000
    8.0056  -15.2768   20.1218 N   0  0  0  0  0  0  0  0  0  0  0  0
    8.7947  -14.1171   20.5272 C   0  0  1  0  0  0  0  0  0  0  0  0
    8.5793  -13.0184   19.5981 C   0  0  0  0  0  0  0  0  0  0  0  0
    8.4776  -13.3958   18.1689 C   0  0  0  0  0  0  0  0  0  0  0  0
    7.3190  -13.8258   17.5348 C   0  0  0  0  0  0  0  0  0  0  0  0
    7.6167  -14.0788   16.2720 N   0  0  0  0  0  0  0  0  0  0  0  0
    8.9234  -13.8170   16.1115 C   0  0  0  0  0  0  0  0  0  0  0  0
    9.4640  -13.3943   17.2773 N   0  0  0  0  0  0  0  0  0  0  0  0
    8.8352  -13.9114   21.9572 C   0  0  0  0  0  0  0  0  0  0  0  0
    8.6849  -12.7444   22.3997 O   0  0  0  0  0  0  0  0  0  0  0  0
    6.4632  -11.8048   26.0574 N   0  0  0  0  0  0  0  0  0  0  0  0
    6.9117  -13.0236   26.6923 C   0  0  0  0  0  0  0  0  0  0  0  0
    7.3122  -12.8962   27.8584 O   0  0  0  0  0  0  0  0  0  0  0  0
    6.8934  -14.2985   26.0020 C   0  0  0  0  0  0  0  0  0  0  0  0
    7.3013  -14.3641   24.5779 C   0  0  0  0  0  0  0  0  0  0  0  0
    8.6294  -14.9238   24.2828 C   0  0  2  0  0  0  0  0  0  0  0  0
    9.0413  -14.9312   22.9398 N   0  0  0  0  0  0  0  0  0  0  0  0
    8.8375  -16.2612   24.9474 C   0  0  0  0  0  0  0  0  0  0  0  0
    8.4508  -16.4319   26.1326 O   0  0  0  0  0  0  0  0  0  0  0  0
   14.4161  -14.1337   21.2331 N   0  0  0  0  0  0  0  0  0  0  0  0
   13.6921  -15.2311   20.7057 C   0  0  0  0  0  0  0  0  0  0  0  0
   13.0518  -15.0901   19.5746 N   0  0  0  0  0  0  0  0  0  0  0  0
   13.6599  -16.4551   21.3864 N   0  0  0  0  0  0  0  0  0  0  0  0
   14.0316  -16.5751   22.7668 C   0  0  0  0  0  0  0  0  0  0  0  0
   13.1718  -17.4349   23.5960 C   0  0  0  0  0  0  0  0  0  0  0  0
   11.7611  -17.2570   23.7537 C   0  0  0  0  0  0  0  0  0  0  0  0
   10.8133  -17.8528   24.6922 C   0  0  2  0  0  0  0  0  0  0  0  0
    9.4532  -17.3095   24.2632 N   0  0  0  0  0  0  0  0  0  0  0  0
   10.8965  -17.4744   26.1262 C   0  0  0  0  0  0  0  0  0  0  0  0
   11.2189  -18.2187   27.2005 O   0  0  0  0  0  0  0  0  0  0  0  0
   10.6061  -16.2285   26.3777 O   0  0  0  0  0  0  0  0  0  0  0  0
  2  1  1  1
  2  3  1  0
  3  4  1  0
  4  5  2  0
  4  8  1  0
  5  6  1  0
  6  7  1  0
  8  7  2  0
  9  2  1  0
 10  9  2  0
 12 14  1  0
 12 11  1  0
 13 12  2  0
 15 14  1  0
 16 15  1  6
 16 17  1  0
 17  9  1  0
 18 28  1  0
 18 16  1  0
 19 18  2  0
 21 20  1  0
 21 23  1  0
 22 21  2  0
 24 23  1  0
 25 24  1  0
 26 25  1  0
 27 26  1  6
 27 28  1  0
 29 27  1  0
 30 29  1  0
 31 29  2  0
M  END
$$$$
