YGC.pdb
     RDKit          3D

 23 23  0  0  1  0  0  0  0  0999 V2000
   19.2397  -17.1656  -18.1718 O   0  0  0  0  0  0  0  0  0  0  0  0
   20.0976  -17.6982  -17.2049 C   0  0  0  0  0  0  0  0  0  0  0  0
   21.4518  -17.4122  -17.2604 C   0  0  0  0  0  0  0  0  0  0  0  0
   22.3068  -17.9282  -16.3175 C   0  0  0  0  0  0  0  0  0  0  0  0
   21.8804  -18.7399  -15.2870 C   0  0  0  0  0  0  0  0  0  0  0  0
   22.7822  -19.3018  -14.2678 C   0  0  0  0  0  0  0  0  0  0  0  0
   23.6781  -20.3254  -14.8978 C   0  0  2  0  0  0  0  0  0  0  0  0
   22.8857  -21.4198  -15.3799 N   0  0  0  0  0  0  0  0  0  0  0  0
   24.7577  -20.7621  -13.9796 C   0  0  0  0  0  0  0  0  0  0  0  0
   24.4403  -21.4872  -13.0042 O   0  0  0  0  0  0  0  0  0  0  0  0
   20.5180  -19.0267  -15.2325 C   0  0  0  0  0  0  0  0  0  0  0  0
   19.6612  -18.5062  -16.1820 C   0  0  0  0  0  0  0  0  0  0  0  0
   26.1149  -20.4086  -14.1422 N   0  0  0  0  0  0  0  0  0  0  0  0
   27.1556  -20.6124  -13.1917 C   0  0  0  0  0  0  0  0  0  0  0  0
   26.7442  -21.0561  -11.8568 C   0  0  0  0  0  0  0  0  0  0  0  0
   26.1845  -22.2040  -11.7423 O   0  0  0  0  0  0  0  0  0  0  0  0
   26.9082  -20.3211  -10.6619 N   0  0  0  0  0  0  0  0  0  0  0  0
   26.4051  -20.7132   -9.3593 C   0  0  1  0  0  0  0  0  0  0  0  0
   27.1161  -19.8875   -8.3221 C   0  0  0  0  0  0  0  0  0  0  0  0
   26.4635  -20.1836   -6.6577 S   0  0  0  0  0  0  0  0  0  0  0  0
   24.9362  -20.4571   -9.2261 C   0  0  0  0  0  0  0  0  0  0  0  0
   24.1078  -21.1690   -8.3780 O   0  0  0  0  0  0  0  0  0  0  0  0
   24.3708  -19.5504   -9.9019 O   0  0  0  0  0  0  0  0  0  0  0  0
  2  1  1  0
  2  3  2  0
  4  3  1  0
  5  4  2  0
  6  5  1  0
  7  6  1  0
  7  9  1  0
  7  8  1  1
  9 10  2  0
  9 13  1  0
 11 12  2  0
 11  5  1  0
 12  2  1  0
 13 14  1  0
 14 15  1  0
 15 17  1  0
 16 15  2  0
 17 18  1  0
 18 21  1  0
 18 19  1  1
 19 20  1  0
 21 22  1  0
 23 21  2  0
M  END
$$$$
