YGC.pdb
     RDKit          3D

 23 23  0  0  1  0  0  0  0  0999 V2000
   28.5020  -18.8622   -3.3855 O   0  0  0  0  0  0  0  0  0  0  0  0
   28.3592  -19.4553   -4.6435 C   0  0  0  0  0  0  0  0  0  0  0  0
   28.1516  -18.6567   -5.7561 C   0  0  0  0  0  0  0  0  0  0  0  0
   28.0095  -19.2250   -6.9984 C   0  0  0  0  0  0  0  0  0  0  0  0
   28.0634  -20.5874   -7.2072 C   0  0  0  0  0  0  0  0  0  0  0  0
   27.9131  -21.2139   -8.5311 C   0  0  0  0  0  0  0  0  0  0  0  0
   26.9723  -20.4011   -9.3687 C   0  0  2  0  0  0  0  0  0  0  0  0
   25.6297  -20.5961   -8.9024 N   0  0  0  0  0  0  0  0  0  0  0  0
   27.1227  -20.6898  -10.8155 C   0  0  0  0  0  0  0  0  0  0  0  0
   28.2869  -20.7485  -11.2838 O   0  0  0  0  0  0  0  0  0  0  0  0
   28.2722  -21.3893   -6.0870 C   0  0  0  0  0  0  0  0  0  0  0  0
   28.4147  -20.8146   -4.8396 C   0  0  0  0  0  0  0  0  0  0  0  0
   26.0341  -20.9009  -11.6895 N   0  0  0  0  0  0  0  0  0  0  0  0
   26.0982  -20.9657  -13.1106 C   0  0  0  0  0  0  0  0  0  0  0  0
   24.8723  -21.3739  -13.8025 C   0  0  0  0  0  0  0  0  0  0  0  0
   24.8461  -21.3108  -15.0829 O   0  0  0  0  0  0  0  0  0  0  0  0
   23.6936  -21.8371  -13.1773 N   0  0  0  0  0  0  0  0  0  0  0  0
   22.4380  -22.1098  -13.8501 C   0  0  1  0  0  0  0  0  0  0  0  0
   22.0207  -23.5116  -13.4984 C   0  0  0  0  0  0  0  0  0  0  0  0
   23.4457  -24.6157  -13.3139 S   0  0  0  0  0  0  0  0  0  0  0  0
   21.3519  -21.1798  -13.4070 C   0  0  0  0  0  0  0  0  0  0  0  0
   20.2157  -20.9184  -14.1509 O   0  0  0  0  0  0  0  0  0  0  0  0
   21.4260  -20.5749  -12.2993 O   0  0  0  0  0  0  0  0  0  0  0  0
  2  1  1  0
  2  3  2  0
  4  3  1  0
  5  4  2  0
  6  5  1  0
  7  6  1  0
  7  9  1  0
  7  8  1  1
  9 10  2  0
  9 13  1  0
 11 12  2  0
 11  5  1  0
 12  2  1  0
 13 14  1  0
 14 15  1  0
 15 17  1  0
 16 15  2  0
 17 18  1  0
 18 21  1  0
 18 19  1  1
 19 20  1  0
 21 22  1  0
 23 21  2  0
M  END
$$$$
