YGC.pdb
     RDKit          3D

 23 23  0  0  1  0  0  0  0  0999 V2000
   30.6884  -20.8466  -18.8627 O   0  0  0  0  0  0  0  0  0  0  0  0
   29.9807  -20.5725  -17.6885 C   0  0  0  0  0  0  0  0  0  0  0  0
   29.7520  -21.5886  -16.7753 C   0  0  0  0  0  0  0  0  0  0  0  0
   29.0584  -21.3345  -15.6174 C   0  0  0  0  0  0  0  0  0  0  0  0
   28.5615  -20.0868  -15.3028 C   0  0  0  0  0  0  0  0  0  0  0  0
   27.8159  -19.7961  -14.0669 C   0  0  0  0  0  0  0  0  0  0  0  0
   26.4883  -20.4914  -14.1047 C   0  0  2  0  0  0  0  0  0  0  0  0
   25.7612  -20.0669  -15.2662 N   0  0  0  0  0  0  0  0  0  0  0  0
   25.7228  -20.2997  -12.8491 C   0  0  0  0  0  0  0  0  0  0  0  0
   25.1000  -19.2189  -12.7013 O   0  0  0  0  0  0  0  0  0  0  0  0
   28.7924  -19.0658  -16.2225 C   0  0  0  0  0  0  0  0  0  0  0  0
   29.4901  -19.3248  -17.3855 C   0  0  0  0  0  0  0  0  0  0  0  0
   25.6569  -21.2613  -11.8173 N   0  0  0  0  0  0  0  0  0  0  0  0
   24.9647  -21.1202  -10.5808 C   0  0  0  0  0  0  0  0  0  0  0  0
   23.5216  -20.8781  -10.6632 C   0  0  0  0  0  0  0  0  0  0  0  0
   22.8567  -20.7838   -9.5709 O   0  0  0  0  0  0  0  0  0  0  0  0
   22.7806  -20.7388  -11.8575 N   0  0  0  0  0  0  0  0  0  0  0  0
   21.3472  -20.5321  -11.9369 C   0  0  1  0  0  0  0  0  0  0  0  0
   21.0831  -19.5502  -13.0456 C   0  0  0  0  0  0  0  0  0  0  0  0
   19.5819  -18.5801  -12.7468 S   0  0  0  0  0  0  0  0  0  0  0  0
   20.6159  -21.7983  -12.2575 C   0  0  0  0  0  0  0  0  0  0  0  0
   19.3770  -22.1213  -11.7346 O   0  0  0  0  0  0  0  0  0  0  0  0
   21.1120  -22.6537  -13.0452 O   0  0  0  0  0  0  0  0  0  0  0  0
  2  1  1  0
  2  3  2  0
  4  3  1  0
  5  4  2  0
  6  5  1  0
  7  6  1  0
  7  9  1  0
  7  8  1  6
  9 10  2  0
  9 13  1  0
 11 12  2  0
 11  5  1  0
 12  2  1  0
 13 14  1  0
 14 15  1  0
 15 17  1  0
 16 15  2  0
 17 18  1  0
 18 21  1  0
 18 19  1  6
 19 20  1  0
 21 22  1  0
 23 21  2  0
M  END
$$$$
