YGC.pdb
     RDKit          3D

 23 23  0  0  1  0  0  0  0  0999 V2000
   16.3508  -18.0642  -16.5404 O   0  0  0  0  0  0  0  0  0  0  0  0
   17.5591  -18.7044  -16.2491 C   0  0  0  0  0  0  0  0  0  0  0  0
   18.5064  -18.0566  -15.4735 C   0  0  0  0  0  0  0  0  0  0  0  0
   19.6980  -18.6728  -15.1790 C   0  0  0  0  0  0  0  0  0  0  0  0
   20.0145  -19.9389  -15.6255 C   0  0  0  0  0  0  0  0  0  0  0  0
   21.2863  -20.6149  -15.3199 C   0  0  0  0  0  0  0  0  0  0  0  0
   22.4091  -19.9190  -16.0289 C   0  0  2  0  0  0  0  0  0  0  0  0
   22.3134  -20.1735  -17.4375 N   0  0  0  0  0  0  0  0  0  0  0  0
   23.7331  -20.2854  -15.4703 C   0  0  0  0  0  0  0  0  0  0  0  0
   24.2525  -21.3636  -15.8519 O   0  0  0  0  0  0  0  0  0  0  0  0
   19.0606  -20.5893  -16.4057 C   0  0  0  0  0  0  0  0  0  0  0  0
   17.8637  -19.9668  -16.6998 C   0  0  0  0  0  0  0  0  0  0  0  0
   24.4368  -19.4919  -14.5383 N   0  0  0  0  0  0  0  0  0  0  0  0
   25.6903  -19.8097  -13.9418 C   0  0  0  0  0  0  0  0  0  0  0  0
   25.6436  -20.5412  -12.6725 C   0  0  0  0  0  0  0  0  0  0  0  0
   24.5039  -20.9404  -12.2415 O   0  0  0  0  0  0  0  0  0  0  0  0
   26.7590  -20.8511  -11.8635 N   0  0  0  0  0  0  0  0  0  0  0  0
   26.6996  -21.4707  -10.5534 C   0  0  1  0  0  0  0  0  0  0  0  0
   28.1042  -21.5644  -10.0229 C   0  0  0  0  0  0  0  0  0  0  0  0
   28.8706  -19.9320   -9.8452 S   0  0  0  0  0  0  0  0  0  0  0  0
   25.8939  -20.6600   -9.5867 C   0  0  0  0  0  0  0  0  0  0  0  0
   25.6052  -19.3193   -9.7647 O   0  0  0  0  0  0  0  0  0  0  0  0
   25.4261  -21.1805   -8.5338 O   0  0  0  0  0  0  0  0  0  0  0  0
  2  1  1  0
  2  3  2  0
  4  3  1  0
  5  4  2  0
  6  5  1  0
  7  6  1  0
  7  9  1  0
  7  8  1  6
  9 10  2  0
  9 13  1  0
 11 12  2  0
 11  5  1  0
 12  2  1  0
 13 14  1  0
 14 15  1  0
 15 17  1  0
 16 15  2  0
 17 18  1  0
 18 21  1  0
 18 19  1  1
 19 20  1  0
 21 22  1  0
 23 21  2  0
M  END
$$$$
