YGC.pdb
     RDKit          3D

 23 23  0  0  1  0  0  0  0  0999 V2000
   24.0506  -21.4010   -7.6241 O   0  0  0  0  0  0  0  0  0  0  0  0
   24.2532  -21.0307   -8.9570 C   0  0  0  0  0  0  0  0  0  0  0  0
   23.1806  -20.5902   -9.7147 C   0  0  0  0  0  0  0  0  0  0  0  0
   23.3642  -20.2231  -11.0254 C   0  0  0  0  0  0  0  0  0  0  0  0
   24.5936  -20.2696  -11.6489 C   0  0  0  0  0  0  0  0  0  0  0  0
   24.8091  -19.8802  -13.0524 C   0  0  0  0  0  0  0  0  0  0  0  0
   23.8568  -20.6301  -13.9346 C   0  0  2  0  0  0  0  0  0  0  0  0
   24.0683  -22.0399  -13.7738 N   0  0  0  0  0  0  0  0  0  0  0  0
   23.9483  -20.1958  -15.3496 C   0  0  0  0  0  0  0  0  0  0  0  0
   24.7243  -20.8286  -16.1082 O   0  0  0  0  0  0  0  0  0  0  0  0
   25.6716  -20.7129  -10.8854 C   0  0  0  0  0  0  0  0  0  0  0  0
   25.4835  -21.0812   -9.5680 C   0  0  0  0  0  0  0  0  0  0  0  0
   23.2142  -19.1158  -15.8866 N   0  0  0  0  0  0  0  0  0  0  0  0
   23.2995  -18.6226  -17.2198 C   0  0  0  0  0  0  0  0  0  0  0  0
   24.5666  -17.9946  -17.6048 C   0  0  0  0  0  0  0  0  0  0  0  0
   24.5272  -16.8619  -18.2043 O   0  0  0  0  0  0  0  0  0  0  0  0
   25.8518  -18.5330  -17.3742 N   0  0  0  0  0  0  0  0  0  0  0  0
   27.1062  -17.8622  -17.6571 C   0  0  1  0  0  0  0  0  0  0  0  0
   28.0182  -18.0725  -16.4793 C   0  0  0  0  0  0  0  0  0  0  0  0
   27.4216  -17.2131  -14.9997 S   0  0  0  0  0  0  0  0  0  0  0  0
   27.7807  -18.4243  -18.8695 C   0  0  0  0  0  0  0  0  0  0  0  0
   29.0240  -18.0137  -19.3147 O   0  0  0  0  0  0  0  0  0  0  0  0
   27.2283  -19.3276  -19.5604 O   0  0  0  0  0  0  0  0  0  0  0  0
  2  1  1  0
  2  3  2  0
  4  3  1  0
  5  4  2  0
  6  5  1  0
  7  6  1  0
  7  9  1  0
  7  8  1  6
  9 10  2  0
  9 13  1  0
 11 12  2  0
 11  5  1  0
 12  2  1  0
 13 14  1  0
 14 15  1  0
 15 17  1  0
 16 15  2  0
 17 18  1  0
 18 21  1  0
 18 19  1  1
 19 20  1  0
 21 22  1  0
 23 21  2  0
M  END
$$$$
