PMC.pdb
     RDKit          3D

 22 22  0  0  1  0  0  0  0  0999 V2000
    7.9460  -16.7917   20.8911 N   0  0  0  0  0  0  0  0  0  0  0  0
    7.7499  -17.0150   19.4513 C   0  0  0  0  0  0  0  0  0  0  0  0
    7.6633  -15.5719   18.9641 C   0  0  0  0  0  0  0  0  0  0  0  0
    8.7042  -14.8499   19.7959 C   0  0  0  0  0  0  0  0  0  0  0  0
    9.0714  -15.8481   20.8539 C   0  0  1  0  0  0  0  0  0  0  0  0
    9.2584  -15.2619   22.1804 C   0  0  0  0  0  0  0  0  0  0  0  0
   10.2207  -14.4847   22.3799 O   0  0  0  0  0  0  0  0  0  0  0  0
    6.1187  -11.0172   26.9457 C   0  0  0  0  0  0  0  0  0  0  0  0
    6.1741  -12.0847   25.4794 S   0  0  0  0  0  0  0  0  0  0  0  0
    6.8169  -13.7056   26.0373 C   0  0  0  0  0  0  0  0  0  0  0  0
    6.9534  -14.5637   24.8278 C   0  0  0  0  0  0  0  0  0  0  0  0
    8.4213  -14.6636   24.4261 C   0  0  2  0  0  0  0  0  0  0  0  0
    8.3748  -15.5553   23.2412 N   0  0  0  0  0  0  0  0  0  0  0  0
    9.2503  -15.2874   25.4753 C   0  0  0  0  0  0  0  0  0  0  0  0
    9.3097  -16.5478   25.5561 O   0  0  0  0  0  0  0  0  0  0  0  0
   10.0207  -14.5854   26.4364 N   0  0  0  0  0  0  0  0  0  0  0  0
   10.7351  -15.2729   27.4938 C   0  0  1  0  0  0  0  0  0  0  0  0
   10.8179  -14.3120   28.6639 C   0  0  0  0  0  0  0  0  0  0  0  0
   11.6352  -15.1030   30.0814 S   0  0  0  0  0  0  0  0  0  0  0  0
   10.0567  -16.5097   27.9166 C   0  0  0  0  0  0  0  0  0  0  0  0
   10.8237  -17.6396   28.1381 O   0  0  0  0  0  0  0  0  0  0  0  0
    8.8289  -16.5238   28.0662 O   0  0  0  0  0  0  0  0  0  0  0  0
  1  5  1  0
  1  2  1  0
  2  3  1  0
  4  3  1  0
  5  4  1  0
  5  6  1  1
  6 13  1  0
  7  6  2  0
  8  9  1  0
 10  9  1  0
 11 10  1  0
 12 11  1  1
 12 13  1  0
 12 14  1  0
 14 15  2  0
 14 16  1  0
 16 17  1  0
 17 18  1  1
 17 20  1  0
 18 19  1  0
 20 21  1  0
 22 20  2  0
M  END
$$$$
