PMC.pdb
     RDKit          3D

 22 22  0  0  1  0  0  0  0  0999 V2000
    7.1149  -16.7060   21.1462 N   0  0  0  0  0  0  0  0  0  0  0  0
    6.7606  -17.1146   19.7791 C   0  0  0  0  0  0  0  0  0  0  0  0
    7.1702  -15.8629   19.0091 C   0  0  0  0  0  0  0  0  0  0  0  0
    8.4519  -15.4267   19.6899 C   0  0  0  0  0  0  0  0  0  0  0  0
    8.5002  -16.2663   20.9322 C   0  0  1  0  0  0  0  0  0  0  0  0
    8.9698  -15.5459   22.1148 C   0  0  0  0  0  0  0  0  0  0  0  0
   10.1903  -15.2895   22.2353 O   0  0  0  0  0  0  0  0  0  0  0  0
    5.3040  -12.3469   27.0929 C   0  0  0  0  0  0  0  0  0  0  0  0
    6.3887  -11.3871   25.9998 S   0  0  0  0  0  0  0  0  0  0  0  0
    7.8427  -12.4425   25.6486 C   0  0  0  0  0  0  0  0  0  0  0  0
    7.4586  -13.3663   24.5454 C   0  0  0  0  0  0  0  0  0  0  0  0
    8.6245  -14.2924   24.2152 C   0  0  2  0  0  0  0  0  0  0  0  0
    8.0735  -15.1334   23.1241 N   0  0  0  0  0  0  0  0  0  0  0  0
    8.9995  -15.1526   25.3539 C   0  0  0  0  0  0  0  0  0  0  0  0
    9.3268  -14.6228   26.4544 O   0  0  0  0  0  0  0  0  0  0  0  0
    9.0255  -16.5699   25.3366 N   0  0  0  0  0  0  0  0  0  0  0  0
    9.4402  -17.3413   26.4916 C   0  0  1  0  0  0  0  0  0  0  0  0
    8.1937  -17.6042   27.3141 C   0  0  0  0  0  0  0  0  0  0  0  0
    7.0266  -18.6448   26.3877 S   0  0  0  0  0  0  0  0  0  0  0  0
   10.0642  -18.6213   26.1163 C   0  0  0  0  0  0  0  0  0  0  0  0
   10.6122  -19.4056   27.1156 O   0  0  0  0  0  0  0  0  0  0  0  0
   10.0907  -18.9746   24.9311 O   0  0  0  0  0  0  0  0  0  0  0  0
  1  5  1  0
  1  2  1  0
  2  3  1  0
  4  3  1  0
  5  4  1  0
  5  6  1  1
  6 13  1  0
  7  6  2  0
  8  9  1  0
 10  9  1  0
 11 10  1  0
 12 11  1  1
 12 13  1  0
 12 14  1  0
 14 15  2  0
 14 16  1  0
 16 17  1  0
 17 18  1  1
 17 20  1  0
 18 19  1  0
 20 21  1  0
 22 20  2  0
M  END
$$$$
