PMC.pdb
     RDKit          3D

 22 22  0  0  1  0  0  0  0  0999 V2000
    7.0358  -15.0074   20.5461 N   0  0  0  0  0  0  0  0  0  0  0  0
    6.6931  -14.8394   19.1264 C   0  0  0  0  0  0  0  0  0  0  0  0
    7.1385  -13.3963   18.9106 C   0  0  0  0  0  0  0  0  0  0  0  0
    8.4187  -13.2925   19.7148 C   0  0  0  0  0  0  0  0  0  0  0  0
    8.4325  -14.5524   20.5290 C   0  0  1  0  0  0  0  0  0  0  0  0
    8.8993  -14.3641   21.9019 C   0  0  0  0  0  0  0  0  0  0  0  0
   10.1150  -14.1487   22.1147 O   0  0  0  0  0  0  0  0  0  0  0  0
    5.2239  -12.3433   27.2816 C   0  0  0  0  0  0  0  0  0  0  0  0
    6.7278  -11.4401   26.8178 S   0  0  0  0  0  0  0  0  0  0  0  0
    7.9397  -12.6941   26.2609 C   0  0  0  0  0  0  0  0  0  0  0  0
    7.5593  -13.0878   24.8759 C   0  0  0  0  0  0  0  0  0  0  0  0
    8.5559  -14.1075   24.3346 C   0  0  2  0  0  0  0  0  0  0  0  0
    8.0055  -14.4204   22.9928 N   0  0  0  0  0  0  0  0  0  0  0  0
    8.5968  -15.3393   25.1458 C   0  0  0  0  0  0  0  0  0  0  0  0
    8.9185  -15.2716   26.3668 O   0  0  0  0  0  0  0  0  0  0  0  0
    8.2947  -16.6416   24.6741 N   0  0  0  0  0  0  0  0  0  0  0  0
    8.3911  -17.8068   25.5310 C   0  0  1  0  0  0  0  0  0  0  0  0
    7.5946  -18.9103   24.8623 C   0  0  0  0  0  0  0  0  0  0  0  0
    5.9878  -18.2807   24.2923 S   0  0  0  0  0  0  0  0  0  0  0  0
    9.7830  -18.2480   25.7226 C   0  0  0  0  0  0  0  0  0  0  0  0
   10.0171  -19.3787   26.4847 O   0  0  0  0  0  0  0  0  0  0  0  0
   10.7115  -17.6129   25.2084 O   0  0  0  0  0  0  0  0  0  0  0  0
  1  5  1  0
  1  2  1  0
  2  3  1  0
  4  3  1  0
  5  4  1  0
  5  6  1  1
  6 13  1  0
  7  6  2  0
  8  9  1  0
 10  9  1  0
 11 10  1  0
 12 11  1  1
 12 13  1  0
 12 14  1  0
 14 15  2  0
 14 16  1  0
 16 17  1  0
 17 18  1  6
 17 20  1  0
 18 19  1  0
 20 21  1  0
 22 20  2  0
M  END
$$$$
