PMC.pdb
     RDKit          3D

 22 22  0  0  1  0  0  0  0  0999 V2000
    6.9483  -14.6961   20.3696 N   0  0  0  0  0  0  0  0  0  0  0  0
    6.6416  -14.2462   19.0041 C   0  0  0  0  0  0  0  0  0  0  0  0
    7.2808  -12.8610   19.0269 C   0  0  0  0  0  0  0  0  0  0  0  0
    8.5575  -13.0686   19.8164 C   0  0  0  0  0  0  0  0  0  0  0  0
    8.3941  -14.4380   20.4068 C   0  0  1  0  0  0  0  0  0  0  0  0
    8.8724  -14.5490   21.7841 C   0  0  0  0  0  0  0  0  0  0  0  0
   10.1033  -14.6296   22.0036 O   0  0  0  0  0  0  0  0  0  0  0  0
    5.4509  -11.9706   26.7440 C   0  0  0  0  0  0  0  0  0  0  0  0
    7.2446  -11.9643   27.0178 S   0  0  0  0  0  0  0  0  0  0  0  0
    7.8681  -13.5832   26.4332 C   0  0  0  0  0  0  0  0  0  0  0  0
    7.4715  -13.7165   25.0039 C   0  0  0  0  0  0  0  0  0  0  0  0
    8.5556  -14.4617   24.2323 C   0  0  2  0  0  0  0  0  0  0  0  0
    7.9732  -14.5670   22.8718 N   0  0  0  0  0  0  0  0  0  0  0  0
    8.7968  -15.8155   24.7672 C   0  0  0  0  0  0  0  0  0  0  0  0
    7.8800  -16.6839   24.7030 O   0  0  0  0  0  0  0  0  0  0  0  0
   10.0039  -16.2574   25.3652 N   0  0  0  0  0  0  0  0  0  0  0  0
   10.1912  -17.6324   25.7840 C   0  0  1  0  0  0  0  0  0  0  0  0
   11.4695  -18.1199   25.1302 C   0  0  0  0  0  0  0  0  0  0  0  0
   11.4083  -17.8529   23.3335 S   0  0  0  0  0  0  0  0  0  0  0  0
   10.3030  -17.7626   27.2466 C   0  0  0  0  0  0  0  0  0  0  0  0
   10.4638  -19.0266   27.7855 O   0  0  0  0  0  0  0  0  0  0  0  0
   10.2526  -16.7566   27.9647 O   0  0  0  0  0  0  0  0  0  0  0  0
  1  5  1  0
  1  2  1  0
  2  3  1  0
  4  3  1  0
  5  4  1  0
  5  6  1  1
  6 13  1  0
  7  6  2  0
  8  9  1  0
 10  9  1  0
 11 10  1  0
 12 11  1  1
 12 13  1  0
 12 14  1  0
 14 15  2  0
 14 16  1  0
 16 17  1  0
 17 18  1  6
 17 20  1  0
 18 19  1  0
 20 21  1  0
 22 20  2  0
M  END
$$$$
