RCP.pdb
     RDKit          3D

 25 25  0  0  1  0  0  0  0  0999 V2000
   29.4792  -19.5004  -19.1533 N   0  0  0  0  0  0  0  0  0  0  0  0
   30.3729  -20.5290  -19.5891 C   0  0  0  0  0  0  0  0  0  0  0  0
   31.0446  -20.3519  -20.6699 N   0  0  0  0  0  0  0  0  0  0  0  0
   30.5123  -21.7119  -18.8468 N   0  0  0  0  0  0  0  0  0  0  0  0
   29.8501  -21.8174  -17.5302 C   0  0  0  0  0  0  0  0  0  0  0  0
   28.7971  -22.8546  -17.6562 C   0  0  0  0  0  0  0  0  0  0  0  0
   27.8468  -23.0129  -16.5381 C   0  0  0  0  0  0  0  0  0  0  0  0
   27.0676  -21.7748  -16.2461 C   0  0  2  0  0  0  0  0  0  0  0  0
   27.9546  -20.6766  -15.9636 N   0  0  0  0  0  0  0  0  0  0  0  0
   26.2335  -22.0757  -15.0265 C   0  0  0  0  0  0  0  0  0  0  0  0
   25.4258  -23.0405  -15.0225 O   0  0  0  0  0  0  0  0  0  0  0  0
   31.6775  -21.0468  -21.1051 N   0  0  0  0  0  0  0  0  0  0  0  0
   26.3536  -21.2682  -13.8670 C   0  0  1  0  0  0  0  0  0  0  0  0
   25.4374  -21.5473  -12.7518 C   0  0  0  0  0  0  0  0  0  0  0  0
   26.1146  -21.0288  -11.4860 S   0  0  0  0  0  0  0  0  0  0  0  0
   24.9338  -21.0972  -10.1189 C   0  0  0  0  0  0  0  0  0  0  0  0
   24.1822  -20.7993  -12.9554 O   0  0  0  0  0  0  0  0  0  0  0  0
   24.2494  -19.5148  -12.8353 N   0  0  0  0  0  0  0  0  0  0  0  0
   22.9680  -21.4191  -13.2660 C   0  0  0  0  0  0  0  0  0  0  0  0
   22.7472  -22.8203  -13.5277 C   0  0  0  0  0  0  0  0  0  0  0  0
   21.3740  -22.9803  -12.8462 C   0  0  0  0  0  0  0  0  0  0  0  0
   20.6543  -21.8271  -13.5617 C   0  0  1  0  0  0  0  0  0  0  0  0
   21.6747  -20.7172  -13.4272 C   0  0  0  0  0  0  0  0  0  0  0  0
   21.3212  -19.9676  -12.1870 O   0  0  0  0  0  0  0  0  0  0  0  0
   21.9264  -20.2889  -11.1353 O   0  0  0  0  0  0  0  0  0  0  0  0
  1  2  1  0
  2  3  2  0
  4  2  1  0
  5  4  1  0
  6  5  1  0
  7  6  1  0
  8  9  1  1
  8 10  1  0
  8  7  1  0
 10 12  1  0
 11 10  2  0
 12 13  1  0
 13 14  1  1
 14 15  1  0
 16 18  1  0
 16 13  1  0
 17 16  2  0
 18 22  1  0
 19 18  1  0
 20 21  1  0
 20 19  1  0
 21 22  1  0
 22 23  1  1
 23 25  1  0
 24 23  2  0
M  END
$$$$
