RCP.pdb
     RDKit          3D

 25 25  0  0  1  0  0  0  0  0999 V2000
   18.4639  -24.2779  -16.6015 N   0  0  0  0  0  0  0  0  0  0  0  0
   18.1270  -24.4610  -15.2232 C   0  0  0  0  0  0  0  0  0  0  0  0
   17.5008  -25.5268  -14.8728 N   0  0  0  0  0  0  0  0  0  0  0  0
   18.4754  -23.4910  -14.2706 N   0  0  0  0  0  0  0  0  0  0  0  0
   19.9003  -23.2915  -13.9348 C   0  0  0  0  0  0  0  0  0  0  0  0
   20.4255  -22.2633  -14.8661 C   0  0  0  0  0  0  0  0  0  0  0  0
   20.9536  -21.0126  -14.2870 C   0  0  0  0  0  0  0  0  0  0  0  0
   21.3326  -21.1416  -12.8500 C   0  0  2  0  0  0  0  0  0  0  0  0
   20.4370  -20.3764  -12.0224 N   0  0  0  0  0  0  0  0  0  0  0  0
   22.7295  -20.5874  -12.7278 C   0  0  0  0  0  0  0  0  0  0  0  0
   22.9235  -19.3472  -12.6409 O   0  0  0  0  0  0  0  0  0  0  0  0
   17.1846  -25.7498  -13.9120 N   0  0  0  0  0  0  0  0  0  0  0  0
   23.8429  -21.4655  -12.7100 C   0  0  2  0  0  0  0  0  0  0  0  0
   25.1803  -20.8590  -12.6401 C   0  0  0  0  0  0  0  0  0  0  0  0
   26.0341  -21.7763  -11.7687 S   0  0  0  0  0  0  0  0  0  0  0  0
   27.7440  -21.1906  -11.8002 C   0  0  0  0  0  0  0  0  0  0  0  0
   25.7652  -20.8155  -13.9938 O   0  0  0  0  0  0  0  0  0  0  0  0
   25.6999  -21.9040  -14.6864 N   0  0  0  0  0  0  0  0  0  0  0  0
   26.3635  -19.6705  -14.5285 C   0  0  0  0  0  0  0  0  0  0  0  0
   26.5363  -18.3940  -13.8794 C   0  0  0  0  0  0  0  0  0  0  0  0
   27.9230  -18.0228  -14.4407 C   0  0  0  0  0  0  0  0  0  0  0  0
   27.5999  -18.2164  -15.9300 C   0  0  1  0  0  0  0  0  0  0  0  0
   26.8964  -19.5564  -15.9049 C   0  0  0  0  0  0  0  0  0  0  0  0
   27.9449  -20.5877  -16.1537 O   0  0  0  0  0  0  0  0  0  0  0  0
   28.3654  -21.2243  -15.1568 O   0  0  0  0  0  0  0  0  0  0  0  0
  1  2  1  0
  2  3  2  0
  4  2  1  0
  5  4  1  0
  6  5  1  0
  7  6  1  0
  8  9  1  1
  8 10  1  0
  8  7  1  0
 10 12  1  0
 11 10  2  0
 12 13  1  0
 13 14  1  1
 14 15  1  0
 16 18  1  0
 16 13  1  0
 17 16  2  0
 18 22  1  0
 19 18  1  0
 20 21  1  0
 20 19  1  0
 21 22  1  0
 22 23  1  6
 23 25  1  0
 24 23  2  0
M  END
$$$$
