RCP.pdb
     RDKit          3D

 25 25  0  0  1  0  0  0  0  0999 V2000
   27.1651  -21.2847  -10.7081 N   0  0  0  0  0  0  0  0  0  0  0  0
   27.3125  -21.6765  -12.0761 C   0  0  0  0  0  0  0  0  0  0  0  0
   28.4835  -21.6596  -12.6047 N   0  0  0  0  0  0  0  0  0  0  0  0
   26.1950  -22.0725  -12.8271 N   0  0  0  0  0  0  0  0  0  0  0  0
   24.8458  -21.9210  -12.2442 C   0  0  0  0  0  0  0  0  0  0  0  0
   24.4629  -20.4966  -12.4016 C   0  0  0  0  0  0  0  0  0  0  0  0
   23.6923  -20.1175  -13.6019 C   0  0  0  0  0  0  0  0  0  0  0  0
   22.2606  -20.5320  -13.5393 C   0  0  2  0  0  0  0  0  0  0  0  0
   22.1533  -21.9670  -13.4989 N   0  0  0  0  0  0  0  0  0  0  0  0
   21.6128  -20.0132  -14.7981 C   0  0  0  0  0  0  0  0  0  0  0  0
   21.3697  -20.7857  -15.7611 O   0  0  0  0  0  0  0  0  0  0  0  0
   28.7075  -21.9327  -13.5784 N   0  0  0  0  0  0  0  0  0  0  0  0
   21.2704  -18.6414  -14.9072 C   0  0  1  0  0  0  0  0  0  0  0  0
   20.5378  -18.2218  -16.1107 C   0  0  0  0  0  0  0  0  0  0  0  0
   19.1694  -18.8950  -16.0496 S   0  0  0  0  0  0  0  0  0  0  0  0
   18.5132  -18.7388  -14.3724 C   0  0  0  0  0  0  0  0  0  0  0  0
   20.3460  -16.7594  -16.0773 O   0  0  0  0  0  0  0  0  0  0  0  0
   19.8475  -16.2669  -14.9921 N   0  0  0  0  0  0  0  0  0  0  0  0
   20.6792  -15.9229  -17.1471 C   0  0  0  0  0  0  0  0  0  0  0  0
   21.2540  -16.3127  -18.4113 C   0  0  0  0  0  0  0  0  0  0  0  0
   20.5019  -15.3315  -19.3319 C   0  0  0  0  0  0  0  0  0  0  0  0
   20.8387  -14.0391  -18.5729 C   0  0  1  0  0  0  0  0  0  0  0  0
   20.5362  -14.4495  -17.1477 C   0  0  0  0  0  0  0  0  0  0  0  0
   19.1215  -14.0550  -16.8867 O   0  0  0  0  0  0  0  0  0  0  0  0
   18.2547  -14.9598  -16.9626 O   0  0  0  0  0  0  0  0  0  0  0  0
  1  2  1  0
  2  3  2  0
  4  2  1  0
  5  4  1  0
  6  5  1  0
  7  6  1  0
  8  9  1  6
  8 10  1  0
  8  7  1  0
 10 12  1  0
 11 10  2  0
 12 13  1  0
 13 14  1  6
 14 15  1  0
 16 18  1  0
 16 13  1  0
 17 16  2  0
 18 22  1  0
 19 18  1  0
 20 21  1  0
 20 19  1  0
 21 22  1  0
 22 23  1  6
 23 25  1  0
 24 23  2  0
M  END
$$$$
