RCP.pdb
     RDKit          3D

 25 25  0  0  1  0  0  0  0  0999 V2000
   26.4721  -14.7096  -16.9236 N   0  0  0  0  0  0  0  0  0  0  0  0
   25.7133  -15.6107  -16.1118 C   0  0  0  0  0  0  0  0  0  0  0  0
   24.5084  -15.8936  -16.4568 N   0  0  0  0  0  0  0  0  0  0  0  0
   26.2775  -16.1757  -14.9576 N   0  0  0  0  0  0  0  0  0  0  0  0
   27.2615  -17.2689  -15.0987 C   0  0  0  0  0  0  0  0  0  0  0  0
   27.0239  -17.8981  -16.4208 C   0  0  0  0  0  0  0  0  0  0  0  0
   27.4053  -19.3139  -16.5901 C   0  0  0  0  0  0  0  0  0  0  0  0
   28.3570  -19.7972  -15.5479 C   0  0  2  0  0  0  0  0  0  0  0  0
   29.3601  -20.6454  -16.1367 N   0  0  0  0  0  0  0  0  0  0  0  0
   27.5391  -20.5930  -14.5623 C   0  0  0  0  0  0  0  0  0  0  0  0
   27.2567  -21.7984  -14.7868 O   0  0  0  0  0  0  0  0  0  0  0  0
   23.8420  -16.4611  -15.9030 N   0  0  0  0  0  0  0  0  0  0  0  0
   27.0786  -19.9848  -13.3669 C   0  0  2  0  0  0  0  0  0  0  0  0
   26.2748  -20.8113  -12.4549 C   0  0  0  0  0  0  0  0  0  0  0  0
   26.6205  -20.3651  -11.0368 S   0  0  0  0  0  0  0  0  0  0  0  0
   25.3019  -20.8921   -9.9181 C   0  0  0  0  0  0  0  0  0  0  0  0
   24.8431  -20.5489  -12.6961 O   0  0  0  0  0  0  0  0  0  0  0  0
   24.4111  -19.3722  -12.3840 N   0  0  0  0  0  0  0  0  0  0  0  0
   23.9744  -21.5025  -13.2356 C   0  0  0  0  0  0  0  0  0  0  0  0
   24.3171  -22.8157  -13.7238 C   0  0  0  0  0  0  0  0  0  0  0  0
   23.0726  -23.5860  -13.2405 C   0  0  0  0  0  0  0  0  0  0  0  0
   22.0091  -22.6666  -13.8597 C   0  0  1  0  0  0  0  0  0  0  0  0
   22.5223  -21.3045  -13.4444 C   0  0  0  0  0  0  0  0  0  0  0  0
   21.8432  -20.9723  -12.1586 O   0  0  0  0  0  0  0  0  0  0  0  0
   22.4869  -21.1867  -11.1025 O   0  0  0  0  0  0  0  0  0  0  0  0
  1  2  1  0
  2  3  2  0
  4  2  1  0
  5  4  1  0
  6  5  1  0
  7  6  1  0
  8  9  1  6
  8 10  1  0
  8  7  1  0
 10 12  1  0
 11 10  2  0
 12 13  1  0
 13 14  1  1
 14 15  1  0
 16 18  1  0
 16 13  1  0
 17 16  2  0
 18 22  1  0
 19 18  1  0
 20 21  1  0
 20 19  1  0
 21 22  1  0
 22 23  1  1
 23 25  1  0
 24 23  2  0
M  END
$$$$
