RCP.pdb
     RDKit          3D

 25 25  0  0  1  0  0  0  0  0999 V2000
   19.2365  -22.9159  -11.4044 N   0  0  0  0  0  0  0  0  0  0  0  0
   18.8146  -22.6913  -12.7528 C   0  0  0  0  0  0  0  0  0  0  0  0
   17.5655  -22.5064  -12.9906 N   0  0  0  0  0  0  0  0  0  0  0  0
   19.7512  -22.6736  -13.7979 N   0  0  0  0  0  0  0  0  0  0  0  0
   20.9200  -21.7749  -13.7015 C   0  0  0  0  0  0  0  0  0  0  0  0
   21.3367  -21.4551  -15.0887 C   0  0  0  0  0  0  0  0  0  0  0  0
   21.1767  -20.0636  -15.5542 C   0  0  0  0  0  0  0  0  0  0  0  0
   21.4149  -19.0523  -14.4837 C   0  0  2  0  0  0  0  0  0  0  0  0
   20.3389  -18.0967  -14.4455 N   0  0  0  0  0  0  0  0  0  0  0  0
   22.7004  -18.3501  -14.8414 C   0  0  0  0  0  0  0  0  0  0  0  0
   22.6904  -17.3191  -15.5627 O   0  0  0  0  0  0  0  0  0  0  0  0
   17.1395  -22.4150  -13.9302 N   0  0  0  0  0  0  0  0  0  0  0  0
   23.9390  -18.8497  -14.3646 C   0  0  2  0  0  0  0  0  0  0  0  0
   25.1498  -18.0878  -14.7030 C   0  0  0  0  0  0  0  0  0  0  0  0
   26.2755  -18.6421  -13.8338 S   0  0  0  0  0  0  0  0  0  0  0  0
   27.8243  -17.8303  -14.2921 C   0  0  0  0  0  0  0  0  0  0  0  0
   25.4897  -18.3202  -16.1197 O   0  0  0  0  0  0  0  0  0  0  0  0
   25.5937  -19.5522  -16.4941 N   0  0  0  0  0  0  0  0  0  0  0  0
   25.6922  -17.2824  -17.0345 C   0  0  0  0  0  0  0  0  0  0  0  0
   25.5230  -15.8693  -16.8001 C   0  0  0  0  0  0  0  0  0  0  0  0
   26.7027  -15.3416  -17.6401 C   0  0  0  0  0  0  0  0  0  0  0  0
   26.3595  -16.0636  -18.9519 C   0  0  1  0  0  0  0  0  0  0  0  0
   26.0824  -17.4647  -18.4508 C   0  0  0  0  0  0  0  0  0  0  0  0
   27.3697  -18.2113  -18.5532 O   0  0  0  0  0  0  0  0  0  0  0  0
   27.6585  -18.6974  -19.6739 O   0  0  0  0  0  0  0  0  0  0  0  0
  1  2  1  0
  2  3  2  0
  4  2  1  0
  5  4  1  0
  6  5  1  0
  7  6  1  0
  8  9  1  6
  8 10  1  0
  8  7  1  0
 10 12  1  0
 11 10  2  0
 12 13  1  0
 13 14  1  1
 14 15  1  0
 16 18  1  0
 16 13  1  0
 17 16  2  0
 18 22  1  0
 19 18  1  0
 20 21  1  0
 20 19  1  0
 21 22  1  0
 22 23  1  6
 23 25  1  0
 24 23  2  0
M  END
$$$$
