RCP.pdb
     RDKit          3D

 25 25  0  0  1  0  0  0  0  0999 V2000
   26.5021  -20.9974   -9.3794 N   0  0  0  0  0  0  0  0  0  0  0  0
   25.2303  -20.9807  -10.0344 C   0  0  0  0  0  0  0  0  0  0  0  0
   24.2053  -20.5496   -9.3906 N   0  0  0  0  0  0  0  0  0  0  0  0
   25.1061  -21.4286  -11.3586 N   0  0  0  0  0  0  0  0  0  0  0  0
   26.3135  -21.8755  -12.0834 C   0  0  0  0  0  0  0  0  0  0  0  0
   26.9662  -20.6603  -12.6292 C   0  0  0  0  0  0  0  0  0  0  0  0
   26.2945  -19.9548  -13.7380 C   0  0  0  0  0  0  0  0  0  0  0  0
   26.5982  -20.5365  -15.0776 C   0  0  2  0  0  0  0  0  0  0  0  0
   27.7784  -19.9288  -15.6346 N   0  0  0  0  0  0  0  0  0  0  0  0
   25.4106  -20.2276  -15.9539 C   0  0  0  0  0  0  0  0  0  0  0  0
   25.0938  -19.0373  -16.2106 O   0  0  0  0  0  0  0  0  0  0  0  0
   23.2415  -20.4903   -9.7651 N   0  0  0  0  0  0  0  0  0  0  0  0
   24.6364  -21.2833  -16.4988 C   0  0  2  0  0  0  0  0  0  0  0  0
   23.4809  -20.9143  -17.3293 C   0  0  0  0  0  0  0  0  0  0  0  0
   23.2297  -22.0835  -18.2778 S   0  0  0  0  0  0  0  0  0  0  0  0
   21.7398  -21.7452  -19.2441 C   0  0  0  0  0  0  0  0  0  0  0  0
   22.2967  -20.7445  -16.4660 O   0  0  0  0  0  0  0  0  0  0  0  0
   22.0584  -21.6911  -15.6197 N   0  0  0  0  0  0  0  0  0  0  0  0
   21.4582  -19.6277  -16.5342 C   0  0  0  0  0  0  0  0  0  0  0  0
   21.6634  -18.4307  -17.3124 C   0  0  0  0  0  0  0  0  0  0  0  0
   20.2042  -18.1593  -17.7283 C   0  0  0  0  0  0  0  0  0  0  0  0
   19.5800  -18.2008  -16.3252 C   0  0  1  0  0  0  0  0  0  0  0  0
   20.2051  -19.4600  -15.7641 C   0  0  0  0  0  0  0  0  0  0  0  0
   19.2521  -20.5698  -16.0559 O   0  0  0  0  0  0  0  0  0  0  0  0
   19.4694  -21.2505  -17.0880 O   0  0  0  0  0  0  0  0  0  0  0  0
  1  2  1  0
  2  3  2  0
  4  2  1  0
  5  4  1  0
  6  5  1  0
  7  6  1  0
  8  9  1  6
  8 10  1  0
  8  7  1  0
 10 12  1  0
 11 10  2  0
 12 13  1  0
 13 14  1  1
 14 15  1  0
 16 18  1  0
 16 13  1  0
 17 16  2  0
 18 22  1  0
 19 18  1  0
 20 21  1  0
 20 19  1  0
 21 22  1  0
 22 23  1  6
 23 25  1  0
 24 23  2  0
M  END
$$$$
