RCP.pdb
     RDKit          3D

 25 25  0  0  1  0  0  0  0  0999 V2000
   18.8812  -21.1018  -11.0134 N   0  0  0  0  0  0  0  0  0  0  0  0
   18.9034  -22.2565  -10.1691 C   0  0  0  0  0  0  0  0  0  0  0  0
   18.0750  -23.2111  -10.3999 N   0  0  0  0  0  0  0  0  0  0  0  0
   19.8159  -22.3434   -9.1063 N   0  0  0  0  0  0  0  0  0  0  0  0
   20.9508  -21.3988   -9.0533 C   0  0  0  0  0  0  0  0  0  0  0  0
   21.5618  -21.3786  -10.4048 C   0  0  0  0  0  0  0  0  0  0  0  0
   22.7022  -20.4701  -10.6334 C   0  0  0  0  0  0  0  0  0  0  0  0
   24.0203  -21.0807  -10.2940 C   0  0  2  0  0  0  0  0  0  0  0  0
   24.4105  -20.7241   -8.9550 N   0  0  0  0  0  0  0  0  0  0  0  0
   25.0153  -20.5162  -11.2763 C   0  0  0  0  0  0  0  0  0  0  0  0
   25.6541  -19.4650  -11.0116 O   0  0  0  0  0  0  0  0  0  0  0  0
   18.0208  -24.1007   -9.8721 N   0  0  0  0  0  0  0  0  0  0  0  0
   25.2402  -21.1700  -12.5145 C   0  0  2  0  0  0  0  0  0  0  0  0
   26.2684  -20.6045  -13.3999 C   0  0  0  0  0  0  0  0  0  0  0  0
   26.9914  -21.7844  -14.0440 S   0  0  0  0  0  0  0  0  0  0  0  0
   28.6700  -21.2758  -14.4815 C   0  0  0  0  0  0  0  0  0  0  0  0
   25.6148  -19.8153  -14.4612 O   0  0  0  0  0  0  0  0  0  0  0  0
   24.6355  -20.3834  -15.0833 N   0  0  0  0  0  0  0  0  0  0  0  0
   26.0099  -18.5170  -14.7977 C   0  0  0  0  0  0  0  0  0  0  0  0
   26.9219  -17.6681  -14.0710 C   0  0  0  0  0  0  0  0  0  0  0  0
   27.6284  -16.9946  -15.2640 C   0  0  0  0  0  0  0  0  0  0  0  0
   26.3703  -16.5088  -15.9997 C   0  0  1  0  0  0  0  0  0  0  0  0
   25.5117  -17.7549  -15.9650 C   0  0  0  0  0  0  0  0  0  0  0  0
   25.7852  -18.4907  -17.2333 O   0  0  0  0  0  0  0  0  0  0  0  0
   26.6628  -19.3874  -17.1936 O   0  0  0  0  0  0  0  0  0  0  0  0
  1  2  1  0
  2  3  2  0
  4  2  1  0
  5  4  1  0
  6  5  1  0
  7  6  1  0
  8  9  1  1
  8 10  1  0
  8  7  1  0
 10 12  1  0
 11 10  2  0
 12 13  1  0
 13 14  1  1
 14 15  1  0
 16 18  1  0
 16 13  1  0
 17 16  2  0
 18 22  1  0
 19 18  1  0
 20 21  1  0
 20 19  1  0
 21 22  1  0
 22 23  1  6
 23 25  1  0
 24 23  2  0
M  END
$$$$
