RCP.pdb
     RDKit          3D

 25 25  0  0  1  0  0  0  0  0999 V2000
   30.8150  -22.1324  -18.6978 N   0  0  0  0  0  0  0  0  0  0  0  0
   30.3712  -21.5135  -19.9088 C   0  0  0  0  0  0  0  0  0  0  0  0
   31.0315  -21.7216  -20.9912 N   0  0  0  0  0  0  0  0  0  0  0  0
   29.2330  -20.6925  -19.9127 N   0  0  0  0  0  0  0  0  0  0  0  0
   28.1053  -21.0216  -19.0166 C   0  0  0  0  0  0  0  0  0  0  0  0
   28.2137  -20.1283  -17.8372 C   0  0  0  0  0  0  0  0  0  0  0  0
   27.3666  -20.4258  -16.6658 C   0  0  0  0  0  0  0  0  0  0  0  0
   27.9882  -21.3970  -15.7194 C   0  0  2  0  0  0  0  0  0  0  0  0
   28.3893  -22.5917  -16.4153 N   0  0  0  0  0  0  0  0  0  0  0  0
   26.9278  -21.7376  -14.7030 C   0  0  0  0  0  0  0  0  0  0  0  0
   26.0900  -22.6488  -14.9290 O   0  0  0  0  0  0  0  0  0  0  0  0
   30.8642  -21.2493  -21.8977 N   0  0  0  0  0  0  0  0  0  0  0  0
   26.8661  -21.0287  -13.4763 C   0  0  2  0  0  0  0  0  0  0  0  0
   25.8390  -21.4412  -12.5088 C   0  0  0  0  0  0  0  0  0  0  0  0
   26.2352  -20.8393  -11.1633 S   0  0  0  0  0  0  0  0  0  0  0  0
   24.9125  -21.1481   -9.9704 C   0  0  0  0  0  0  0  0  0  0  0  0
   24.5369  -20.8774  -12.9128 O   0  0  0  0  0  0  0  0  0  0  0  0
   24.4302  -19.5904  -12.8818 N   0  0  0  0  0  0  0  0  0  0  0  0
   23.4565  -21.6683  -13.3157 C   0  0  0  0  0  0  0  0  0  0  0  0
   23.4400  -23.1009  -13.4822 C   0  0  0  0  0  0  0  0  0  0  0  0
   22.0176  -23.3886  -12.9627 C   0  0  0  0  0  0  0  0  0  0  0  0
   21.2670  -22.3899  -13.8566 C   0  0  1  0  0  0  0  0  0  0  0  0
   22.1217  -21.1514  -13.6932 C   0  0  0  0  0  0  0  0  0  0  0  0
   21.5211  -20.3693  -12.5741 O   0  0  0  0  0  0  0  0  0  0  0  0
   22.0607  -20.4824  -11.4464 O   0  0  0  0  0  0  0  0  0  0  0  0
  1  2  1  0
  2  3  2  0
  4  2  1  0
  5  4  1  0
  6  5  1  0
  7  6  1  0
  8  9  1  6
  8 10  1  0
  8  7  1  0
 10 12  1  0
 11 10  2  0
 12 13  1  0
 13 14  1  6
 14 15  1  0
 16 18  1  0
 16 13  1  0
 17 16  2  0
 18 22  1  0
 19 18  1  0
 20 21  1  0
 20 19  1  0
 21 22  1  0
 22 23  1  1
 23 25  1  0
 24 23  2  0
M  END
$$$$
