RCP.pdb
     RDKit          3D

 25 25  0  0  1  0  0  0  0  0999 V2000
   13.6405  -10.7753  -15.5182 N   0  0  0  0  0  0  0  0  0  0  0  0
   12.9940  -11.9383  -16.0438 C   0  0  0  0  0  0  0  0  0  0  0  0
   11.9569  -12.3986  -15.4412 N   0  0  0  0  0  0  0  0  0  0  0  0
   13.4862  -12.5649  -17.1991 N   0  0  0  0  0  0  0  0  0  0  0  0
   14.6827  -12.0096  -17.8648 C   0  0  0  0  0  0  0  0  0  0  0  0
   15.8660  -12.6033  -17.1956 C   0  0  0  0  0  0  0  0  0  0  0  0
   17.2009  -12.2674  -17.7280 C   0  0  0  0  0  0  0  0  0  0  0  0
   18.1445  -13.4229  -17.7270 C   0  0  2  0  0  0  0  0  0  0  0  0
   17.5718  -14.5399  -17.0223 N   0  0  0  0  0  0  0  0  0  0  0  0
   19.3859  -12.9568  -17.0092 C   0  0  0  0  0  0  0  0  0  0  0  0
   19.5526  -13.2043  -15.7868 O   0  0  0  0  0  0  0  0  0  0  0  0
   11.4319  -13.2492  -15.7127 N   0  0  0  0  0  0  0  0  0  0  0  0
   20.3817  -12.2308  -17.7109 C   0  0  2  0  0  0  0  0  0  0  0  0
   21.5621  -11.7957  -16.9504 C   0  0  0  0  0  0  0  0  0  0  0  0
   22.7644  -11.9502  -17.8780 S   0  0  0  0  0  0  0  0  0  0  0  0
   24.2270  -11.2721  -17.0603 C   0  0  0  0  0  0  0  0  0  0  0  0
   21.4162  -10.3699  -16.6008 O   0  0  0  0  0  0  0  0  0  0  0  0
   21.1577   -9.5602  -17.5737 N   0  0  0  0  0  0  0  0  0  0  0  0
   21.5426   -9.8893  -15.2938 C   0  0  0  0  0  0  0  0  0  0  0  0
   21.8006  -10.6613  -14.1031 C   0  0  0  0  0  0  0  0  0  0  0  0
   22.7233   -9.6699  -13.3671 C   0  0  0  0  0  0  0  0  0  0  0  0
   21.8029   -8.4421  -13.4378 C   0  0  1  0  0  0  0  0  0  0  0  0
   21.3847   -8.4733  -14.8922 C   0  0  0  0  0  0  0  0  0  0  0  0
   22.3490   -7.6042  -15.6268 O   0  0  0  0  0  0  0  0  0  0  0  0
   23.2220   -8.1813  -16.3201 O   0  0  0  0  0  0  0  0  0  0  0  0
  1  2  1  0
  2  3  2  0
  4  2  1  0
  5  4  1  0
  6  5  1  0
  7  6  1  0
  8  9  1  1
  8 10  1  0
  8  7  1  0
 10 12  1  0
 11 10  2  0
 12 13  1  0
 13 14  1  6
 14 15  1  0
 16 18  1  0
 16 13  1  0
 17 16  2  0
 18 22  1  0
 19 18  1  0
 20 21  1  0
 20 19  1  0
 21 22  1  0
 22 23  1  6
 23 25  1  0
 24 23  2  0
M  END
$$$$
