ARE.pdb
     RDKit          3D

 26 25  0  0  1  0  0  0  0  0999 V2000
   24.6016  -10.9560  -14.8618 C   0  0  0  0  0  0  0  0  0  0  0  0
   23.8501  -11.4939  -16.0388 C   0  0  2  0  0  0  0  0  0  0  0  0
   24.6801  -11.6176  -17.2186 N   0  0  0  0  0  0  0  0  0  0  0  0
   22.5983  -10.7642  -16.3190 C   0  0  0  0  0  0  0  0  0  0  0  0
   22.6561   -9.7813  -17.1016 O   0  0  0  0  0  0  0  0  0  0  0  0
   15.4836  -15.2672  -16.6683 N   0  0  0  0  0  0  0  0  0  0  0  0
   16.5596  -15.4202  -17.5917 C   0  0  0  0  0  0  0  0  0  0  0  0
   16.5462  -16.4164  -18.4208 N   0  0  0  0  0  0  0  0  0  0  0  0
   17.6098  -14.4756  -17.5718 N   0  0  0  0  0  0  0  0  0  0  0  0
   17.5919  -13.3586  -16.6654 C   0  0  0  0  0  0  0  0  0  0  0  0
   18.7780  -12.4898  -16.8787 C   0  0  0  0  0  0  0  0  0  0  0  0
   18.9331  -11.3487  -15.9646 C   0  0  0  0  0  0  0  0  0  0  0  0
   20.0887  -10.4375  -16.1590 C   0  0  2  0  0  0  0  0  0  0  0  0
   21.3432  -11.1070  -15.7593 N   0  0  0  0  0  0  0  0  0  0  0  0
   19.8942   -9.2151  -15.3328 C   0  0  0  0  0  0  0  0  0  0  0  0
   20.2431   -9.2005  -14.1291 O   0  0  0  0  0  0  0  0  0  0  0  0
   17.3054  -16.4766  -19.1239 N   0  0  0  0  0  0  0  0  0  0  0  0
   19.3136   -8.0305  -15.8651 C   0  0  1  0  0  0  0  0  0  0  0  0
   19.1704   -6.8525  -14.9911 C   0  0  0  0  0  0  0  0  0  0  0  0
   20.5525   -6.4299  -14.5271 C   0  0  0  0  0  0  0  0  0  0  0  0
   20.5426   -5.2597  -13.5924 C   0  0  0  0  0  0  0  0  0  0  0  0
   21.9554   -4.9589  -13.1672 O   0  0  0  0  0  0  0  0  0  0  0  0
   22.6860   -4.2144  -13.8594 C   0  0  0  0  0  0  0  0  0  0  0  0
   18.4076   -5.7967  -15.6533 O   0  0  0  0  0  0  0  0  0  0  0  0
   18.0648   -5.7682  -16.9877 O   0  0  0  0  0  0  0  0  0  0  0  0
   22.4229   -5.5223  -11.9999 O   0  0  0  0  0  0  0  0  0  0  0  0
  2  1  1  1
  2  3  1  0
  4  5  2  0
  4  2  1  0
  6  7  1  0
  7  8  2  0
  7  9  1  0
  9 10  1  0
 10 11  1  0
 13 12  1  1
 12 11  1  0
 13 14  1  0
 14  4  1  0
 15 17  1  0
 15 13  1  0
 16 15  2  0
 18 19  1  1
 18 17  1  0
 19 20  1  0
 20 21  1  0
 21 22  2  0
 23 18  1  0
 24 23  1  0
 25 21  1  0
 26 23  2  0
M  END
$$$$
