ARE.pdb
     RDKit          3D

 26 25  0  0  1  0  0  0  0  0999 V2000
   31.9751  -11.0519  -19.7636 C   0  0  0  0  0  0  0  0  0  0  0  0
   32.0603  -11.7854  -18.4620 C   0  0  2  0  0  0  0  0  0  0  0  0
   30.7821  -12.3188  -18.0401 N   0  0  0  0  0  0  0  0  0  0  0  0
   32.7136  -11.0073  -17.3917 C   0  0  0  0  0  0  0  0  0  0  0  0
   31.9747  -10.4141  -16.5645 O   0  0  0  0  0  0  0  0  0  0  0  0
   40.5149  -12.0504  -13.2336 N   0  0  0  0  0  0  0  0  0  0  0  0
   39.8254  -11.0293  -12.5155 C   0  0  0  0  0  0  0  0  0  0  0  0
   40.3183  -10.5983  -11.3969 N   0  0  0  0  0  0  0  0  0  0  0  0
   38.6216  -10.5189  -13.0504 N   0  0  0  0  0  0  0  0  0  0  0  0
   38.0326  -11.0837  -14.2351 C   0  0  0  0  0  0  0  0  0  0  0  0
   36.8160  -10.3273  -14.6289 C   0  0  0  0  0  0  0  0  0  0  0  0
   35.9999  -10.9052  -15.7067 C   0  0  0  0  0  0  0  0  0  0  0  0
   34.7399  -10.2186  -16.0868 C   0  0  2  0  0  0  0  0  0  0  0  0
   34.1177  -10.8919  -17.2449 N   0  0  0  0  0  0  0  0  0  0  0  0
   35.0387   -8.8035  -16.4378 C   0  0  0  0  0  0  0  0  0  0  0  0
   35.6174   -8.5253  -17.5141 O   0  0  0  0  0  0  0  0  0  0  0  0
   39.7399   -9.9570  -10.8236 N   0  0  0  0  0  0  0  0  0  0  0  0
   34.6860   -7.7242  -15.5809 C   0  0  2  0  0  0  0  0  0  0  0  0
   34.9398   -6.3442  -16.0321 C   0  0  0  0  0  0  0  0  0  0  0  0
   33.6693   -5.8065  -16.6653 C   0  0  0  0  0  0  0  0  0  0  0  0
   32.6475   -5.3488  -15.6704 C   0  0  0  0  0  0  0  0  0  0  0  0
   31.4588   -4.7922  -16.4082 O   0  0  0  0  0  0  0  0  0  0  0  0
   30.6108   -5.5564  -16.9220 C   0  0  0  0  0  0  0  0  0  0  0  0
   35.4649   -5.5237  -14.9430 O   0  0  0  0  0  0  0  0  0  0  0  0
   35.5702   -5.9093  -13.6242 O   0  0  0  0  0  0  0  0  0  0  0  0
   31.3281   -3.4239  -16.5035 O   0  0  0  0  0  0  0  0  0  0  0  0
  2  1  1  6
  2  3  1  0
  4  5  2  0
  4  2  1  0
  6  7  1  0
  7  8  2  0
  7  9  1  0
  9 10  1  0
 10 11  1  0
 13 12  1  6
 12 11  1  0
 13 14  1  0
 14  4  1  0
 15 17  1  0
 15 13  1  0
 16 15  2  0
 18 19  1  1
 18 17  1  0
 19 20  1  0
 20 21  1  0
 21 22  2  0
 23 18  1  0
 24 23  1  0
 25 21  1  0
 26 23  2  0
M  END
$$$$
