ARE.pdb
     RDKit          3D

 26 25  0  0  1  0  0  0  0  0999 V2000
   49.1442   -9.5382  -10.3354 C   0  0  0  0  0  0  0  0  0  0  0  0
   48.2596  -10.7233  -10.1063 C   0  0  2  0  0  0  0  0  0  0  0  0
   48.5822  -11.8341  -10.9770 N   0  0  0  0  0  0  0  0  0  0  0  0
   46.8208  -10.3966  -10.1389 C   0  0  0  0  0  0  0  0  0  0  0  0
   46.1938  -10.6198  -11.2061 O   0  0  0  0  0  0  0  0  0  0  0  0
   39.6526   -9.0949   -7.5562 N   0  0  0  0  0  0  0  0  0  0  0  0
   39.7405  -10.1098   -6.5582 C   0  0  0  0  0  0  0  0  0  0  0  0
   38.6545  -10.6735   -6.1304 N   0  0  0  0  0  0  0  0  0  0  0  0
   41.0152  -10.4688   -6.0666 N   0  0  0  0  0  0  0  0  0  0  0  0
   42.1258   -9.5572   -6.1359 C   0  0  0  0  0  0  0  0  0  0  0  0
   42.6471   -9.4687   -7.5244 C   0  0  0  0  0  0  0  0  0  0  0  0
   44.0832   -9.7250   -7.7076 C   0  0  0  0  0  0  0  0  0  0  0  0
   44.6512   -9.6268   -9.0755 C   0  0  2  0  0  0  0  0  0  0  0  0
   46.1111   -9.8491   -9.0422 N   0  0  0  0  0  0  0  0  0  0  0  0
   44.3682   -8.2745   -9.6286 C   0  0  0  0  0  0  0  0  0  0  0  0
   44.9699   -7.2686   -9.1846 O   0  0  0  0  0  0  0  0  0  0  0  0
   38.7331  -11.3632   -5.3606 N   0  0  0  0  0  0  0  0  0  0  0  0
   43.4185   -8.0691  -10.6675 C   0  0  2  0  0  0  0  0  0  0  0  0
   43.1093   -6.6906  -11.0876 C   0  0  0  0  0  0  0  0  0  0  0  0
   42.7091   -6.7149  -12.5516 C   0  0  0  0  0  0  0  0  0  0  0  0
   43.8351   -7.0568  -13.4783 C   0  0  0  0  0  0  0  0  0  0  0  0
   43.3186   -7.0760  -14.8925 O   0  0  0  0  0  0  0  0  0  0  0  0
   42.1127   -6.8435  -15.1353 C   0  0  0  0  0  0  0  0  0  0  0  0
   42.1197   -6.0810  -10.2020 O   0  0  0  0  0  0  0  0  0  0  0  0
   41.8681   -4.7312  -10.0852 O   0  0  0  0  0  0  0  0  0  0  0  0
   44.2042   -7.3554  -15.9104 O   0  0  0  0  0  0  0  0  0  0  0  0
  2  1  1  6
  2  3  1  0
  4  5  2  0
  4  2  1  0
  6  7  1  0
  7  8  2  0
  7  9  1  0
  9 10  1  0
 10 11  1  0
 13 12  1  1
 12 11  1  0
 13 14  1  0
 14  4  1  0
 15 17  1  0
 15 13  1  0
 16 15  2  0
 18 19  1  6
 18 17  1  0
 19 20  1  0
 20 21  1  0
 21 22  2  0
 23 18  1  0
 24 23  1  0
 25 21  1  0
 26 23  2  0
M  END
$$$$
