ARE.pdb
     RDKit          3D

 26 25  0  0  1  0  0  0  0  0999 V2000
   21.7021  -10.7665  -14.4920 C   0  0  0  0  0  0  0  0  0  0  0  0
   20.4367  -10.6248  -15.2783 C   0  0  2  0  0  0  0  0  0  0  0  0
   20.6739  -10.1937  -16.6399 N   0  0  0  0  0  0  0  0  0  0  0  0
   19.4182   -9.7947  -14.6064 C   0  0  0  0  0  0  0  0  0  0  0  0
   19.4570   -8.5521  -14.7967 O   0  0  0  0  0  0  0  0  0  0  0  0
   12.0709  -12.4560  -10.9022 N   0  0  0  0  0  0  0  0  0  0  0  0
   13.4549  -12.7906  -10.9802 C   0  0  0  0  0  0  0  0  0  0  0  0
   13.8257  -14.0110  -10.7490 N   0  0  0  0  0  0  0  0  0  0  0  0
   14.3806  -11.7754  -11.3089 N   0  0  0  0  0  0  0  0  0  0  0  0
   13.9428  -10.4491  -11.6532 C   0  0  0  0  0  0  0  0  0  0  0  0
   15.0983   -9.5968  -12.0349 C   0  0  0  0  0  0  0  0  0  0  0  0
   16.2516  -10.2805  -12.6383 C   0  0  0  0  0  0  0  0  0  0  0  0
   17.3869   -9.4580  -13.1262 C   0  0  2  0  0  0  0  0  0  0  0  0
   18.4056  -10.3162  -13.7643 N   0  0  0  0  0  0  0  0  0  0  0  0
   17.9973   -8.7337  -11.9783 C   0  0  0  0  0  0  0  0  0  0  0  0
   18.7015   -9.3475  -11.1428 O   0  0  0  0  0  0  0  0  0  0  0  0
   14.8312  -14.2427  -10.8482 N   0  0  0  0  0  0  0  0  0  0  0  0
   17.8106   -7.3370  -11.7837 C   0  0  1  0  0  0  0  0  0  0  0  0
   18.5916   -6.6529  -10.7375 C   0  0  0  0  0  0  0  0  0  0  0  0
   19.3771   -5.5273  -11.3857 C   0  0  0  0  0  0  0  0  0  0  0  0
   20.8206   -5.8545  -11.6152 C   0  0  0  0  0  0  0  0  0  0  0  0
   21.5151   -4.6429  -12.1784 O   0  0  0  0  0  0  0  0  0  0  0  0
   20.9957   -3.5078  -12.0846 C   0  0  0  0  0  0  0  0  0  0  0  0
   17.7335   -6.2311   -9.6326 O   0  0  0  0  0  0  0  0  0  0  0  0
   18.1652   -5.8284   -8.3874 O   0  0  0  0  0  0  0  0  0  0  0  0
   22.7336   -4.8146  -12.7982 O   0  0  0  0  0  0  0  0  0  0  0  0
  2  1  1  1
  2  3  1  0
  4  5  2  0
  4  2  1  0
  6  7  1  0
  7  8  2  0
  7  9  1  0
  9 10  1  0
 10 11  1  0
 13 12  1  1
 12 11  1  0
 13 14  1  0
 14  4  1  0
 15 17  1  0
 15 13  1  0
 16 15  2  0
 18 19  1  1
 18 17  1  0
 19 20  1  0
 20 21  1  0
 21 22  2  0
 23 18  1  0
 24 23  1  0
 25 21  1  0
 26 23  2  0
M  END
$$$$
