ARE.pdb
     RDKit          3D

 26 25  0  0  1  0  0  0  0  0999 V2000
   26.0295  -16.0957  -16.6448 C   0  0  0  0  0  0  0  0  0  0  0  0
   26.1440  -17.5301  -16.2337 C   0  0  2  0  0  0  0  0  0  0  0  0
   27.2176  -18.2200  -16.9174 N   0  0  0  0  0  0  0  0  0  0  0  0
   24.8696  -18.2690  -16.3210 C   0  0  0  0  0  0  0  0  0  0  0  0
   24.5949  -18.8360  -17.4097 O   0  0  0  0  0  0  0  0  0  0  0  0
   19.4515  -23.1608  -14.3500 N   0  0  0  0  0  0  0  0  0  0  0  0
   20.6048  -23.6343  -13.6576 C   0  0  0  0  0  0  0  0  0  0  0  0
   20.9623  -24.8726  -13.7949 N   0  0  0  0  0  0  0  0  0  0  0  0
   21.3230  -22.7329  -12.8407 N   0  0  0  0  0  0  0  0  0  0  0  0
   20.9252  -21.3557  -12.7199 C   0  0  0  0  0  0  0  0  0  0  0  0
   21.1539  -20.6290  -13.9954 C   0  0  0  0  0  0  0  0  0  0  0  0
   22.3882  -19.8357  -14.0906 C   0  0  0  0  0  0  0  0  0  0  0  0
   22.6879  -19.1428  -15.3687 C   0  0  2  0  0  0  0  0  0  0  0  0
   23.9443  -18.3748  -15.2539 N   0  0  0  0  0  0  0  0  0  0  0  0
   21.5699  -18.2178  -15.6995 C   0  0  0  0  0  0  0  0  0  0  0  0
   21.3988  -17.1671  -15.0380 O   0  0  0  0  0  0  0  0  0  0  0  0
   21.8253  -25.1876  -13.3148 N   0  0  0  0  0  0  0  0  0  0  0  0
   20.6629  -18.4823  -16.7629 C   0  0  2  0  0  0  0  0  0  0  0  0
   19.5410  -17.5537  -16.9898 C   0  0  0  0  0  0  0  0  0  0  0  0
   19.4957  -17.2099  -18.4676 C   0  0  0  0  0  0  0  0  0  0  0  0
   19.9189  -15.8059  -18.7727 C   0  0  0  0  0  0  0  0  0  0  0  0
   19.7735  -15.5595  -20.2510 O   0  0  0  0  0  0  0  0  0  0  0  0
   20.6806  -15.8933  -21.0465 C   0  0  0  0  0  0  0  0  0  0  0  0
   18.2932  -18.0977  -16.4587 O   0  0  0  0  0  0  0  0  0  0  0  0
   17.1717  -17.3666  -16.1319 O   0  0  0  0  0  0  0  0  0  0  0  0
   18.6196  -14.9588  -20.7052 O   0  0  0  0  0  0  0  0  0  0  0  0
  2  1  1  6
  2  3  1  0
  4  5  2  0
  4  2  1  0
  6  7  1  0
  7  8  2  0
  7  9  1  0
  9 10  1  0
 10 11  1  0
 13 12  1  1
 12 11  1  0
 13 14  1  0
 14  4  1  0
 15 17  1  0
 15 13  1  0
 16 15  2  0
 18 19  1  1
 18 17  1  0
 19 20  1  0
 20 21  1  0
 21 22  2  0
 23 18  1  0
 24 23  1  0
 25 21  1  0
 26 23  2  0
M  END
$$$$
