ARE.pdb
     RDKit          3D

 26 25  0  0  1  0  0  0  0  0999 V2000
   46.3568   -8.7813   -7.0870 C   0  0  0  0  0  0  0  0  0  0  0  0
   47.4714   -9.7646   -6.9124 C   0  0  2  0  0  0  0  0  0  0  0  0
   48.7694   -9.1890   -7.1950 N   0  0  0  0  0  0  0  0  0  0  0  0
   47.2579  -11.0292   -7.6425 C   0  0  0  0  0  0  0  0  0  0  0  0
   47.4546  -11.0285   -8.8848 O   0  0  0  0  0  0  0  0  0  0  0  0
   43.1291  -17.6949   -6.2597 N   0  0  0  0  0  0  0  0  0  0  0  0
   43.9579  -18.4503   -7.1408 C   0  0  0  0  0  0  0  0  0  0  0  0
   43.4154  -19.3325   -7.9203 N   0  0  0  0  0  0  0  0  0  0  0  0
   45.3500  -18.2105   -7.1346 N   0  0  0  0  0  0  0  0  0  0  0  0
   45.9051  -17.0532   -6.4851 C   0  0  0  0  0  0  0  0  0  0  0  0
   45.9168  -15.8882   -7.4070 C   0  0  0  0  0  0  0  0  0  0  0  0
   46.4694  -14.6330   -6.8772 C   0  0  0  0  0  0  0  0  0  0  0  0
   46.5982  -13.4730   -7.7944 C   0  0  2  0  0  0  0  0  0  0  0  0
   46.8464  -12.2362   -7.0260 N   0  0  0  0  0  0  0  0  0  0  0  0
   45.3421  -13.3257   -8.5788 C   0  0  0  0  0  0  0  0  0  0  0  0
   44.2780  -12.9800   -8.0138 O   0  0  0  0  0  0  0  0  0  0  0  0
   44.0315  -19.8542   -8.5704 N   0  0  0  0  0  0  0  0  0  0  0  0
   45.2962  -13.5668   -9.9799 C   0  0  2  0  0  0  0  0  0  0  0  0
   44.0021  -13.4658  -10.6781 C   0  0  0  0  0  0  0  0  0  0  0  0
   44.2291  -12.7716  -12.0088 C   0  0  0  0  0  0  0  0  0  0  0  0
   42.9974  -12.6745  -12.8554 C   0  0  0  0  0  0  0  0  0  0  0  0
   43.3340  -11.9474  -14.1303 O   0  0  0  0  0  0  0  0  0  0  0  0
   42.6359  -12.1029  -15.1577 C   0  0  0  0  0  0  0  0  0  0  0  0
   43.3578  -14.7732  -10.7821 O   0  0  0  0  0  0  0  0  0  0  0  0
   43.9394  -15.9833  -10.4720 O   0  0  0  0  0  0  0  0  0  0  0  0
   44.4271  -11.1086  -14.1378 O   0  0  0  0  0  0  0  0  0  0  0  0
  2  1  1  6
  2  3  1  0
  4  5  2  0
  4  2  1  0
  6  7  1  0
  7  8  2  0
  7  9  1  0
  9 10  1  0
 10 11  1  0
 13 12  1  1
 12 11  1  0
 13 14  1  0
 14  4  1  0
 15 17  1  0
 15 13  1  0
 16 15  2  0
 18 19  1  6
 18 17  1  0
 19 20  1  0
 20 21  1  0
 21 22  2  0
 23 18  1  0
 24 23  1  0
 25 21  1  0
 26 23  2  0
M  END
$$$$
