ARE.pdb
     RDKit          3D

 26 25  0  0  1  0  0  0  0  0999 V2000
   13.5030  -11.9200  -14.7704 C   0  0  0  0  0  0  0  0  0  0  0  0
   14.8834  -12.4973  -14.7403 C   0  0  2  0  0  0  0  0  0  0  0  0
   14.8970  -13.8829  -14.3207 N   0  0  0  0  0  0  0  0  0  0  0  0
   15.8448  -11.6797  -13.9753 C   0  0  0  0  0  0  0  0  0  0  0  0
   15.7774  -11.7183  -12.7199 O   0  0  0  0  0  0  0  0  0  0  0  0
   20.4691   -5.3374  -14.8785 N   0  0  0  0  0  0  0  0  0  0  0  0
   21.4603   -5.9032  -14.0234 C   0  0  0  0  0  0  0  0  0  0  0  0
   22.0005   -5.1654  -13.1047 N   0  0  0  0  0  0  0  0  0  0  0  0
   21.8221   -7.2563  -14.2072 N   0  0  0  0  0  0  0  0  0  0  0  0
   20.9584   -8.1719  -14.9037 C   0  0  0  0  0  0  0  0  0  0  0  0
   19.8058   -8.5596  -14.0501 C   0  0  0  0  0  0  0  0  0  0  0  0
   18.9113   -9.5985  -14.5813 C   0  0  0  0  0  0  0  0  0  0  0  0
   17.7258   -9.9905  -13.7786 C   0  0  2  0  0  0  0  0  0  0  0  0
   16.8330  -10.8592  -14.5723 N   0  0  0  0  0  0  0  0  0  0  0  0
   16.9870   -8.7667  -13.3645 C   0  0  0  0  0  0  0  0  0  0  0  0
   16.2141   -8.1905  -14.1654 O   0  0  0  0  0  0  0  0  0  0  0  0
   22.6308   -5.6219  -12.4201 N   0  0  0  0  0  0  0  0  0  0  0  0
   17.1242   -8.2080  -12.0635 C   0  0  2  0  0  0  0  0  0  0  0  0
   16.3690   -6.9873  -11.7292 C   0  0  0  0  0  0  0  0  0  0  0  0
   16.2598   -6.8907  -10.2184 C   0  0  0  0  0  0  0  0  0  0  0  0
   15.5823   -5.6428   -9.7419 C   0  0  0  0  0  0  0  0  0  0  0  0
   15.6371   -5.5980   -8.2378 O   0  0  0  0  0  0  0  0  0  0  0  0
   15.1355   -4.6391   -7.6086 C   0  0  0  0  0  0  0  0  0  0  0  0
   16.9595   -5.8130  -12.3675 O   0  0  0  0  0  0  0  0  0  0  0  0
   16.2627   -4.7397  -12.8789 O   0  0  0  0  0  0  0  0  0  0  0  0
   16.2519   -6.6365   -7.5729 O   0  0  0  0  0  0  0  0  0  0  0  0
  2  1  1  1
  2  3  1  0
  4  5  2  0
  4  2  1  0
  6  7  1  0
  7  8  2  0
  7  9  1  0
  9 10  1  0
 10 11  1  0
 13 12  1  6
 12 11  1  0
 13 14  1  0
 14  4  1  0
 15 17  1  0
 15 13  1  0
 16 15  2  0
 18 19  1  1
 18 17  1  0
 19 20  1  0
 20 21  1  0
 21 22  2  0
 23 18  1  0
 24 23  1  0
 25 21  1  0
 26 23  2  0
M  END
$$$$
