ARE.pdb
     RDKit          3D

 26 25  0  0  1  0  0  0  0  0999 V2000
   25.9111  -18.7799  -19.1487 C   0  0  0  0  0  0  0  0  0  0  0  0
   26.9850  -19.2405  -18.2137 C   0  0  2  0  0  0  0  0  0  0  0  0
   28.0256  -19.9879  -18.8879 N   0  0  0  0  0  0  0  0  0  0  0  0
   26.4668  -19.9584  -17.0331 C   0  0  0  0  0  0  0  0  0  0  0  0
   25.8021  -21.0077  -17.2309 O   0  0  0  0  0  0  0  0  0  0  0  0
   24.3100  -19.9800  -10.0073 N   0  0  0  0  0  0  0  0  0  0  0  0
   25.2754  -20.6520   -9.2010 C   0  0  0  0  0  0  0  0  0  0  0  0
   24.8970  -21.2151   -8.0966 N   0  0  0  0  0  0  0  0  0  0  0  0
   26.6193  -20.6816   -9.6354 N   0  0  0  0  0  0  0  0  0  0  0  0
   27.0484  -19.9328  -10.7862 C   0  0  0  0  0  0  0  0  0  0  0  0
   26.3667  -20.4190  -12.0135 C   0  0  0  0  0  0  0  0  0  0  0  0
   26.7891  -19.8156  -13.2860 C   0  0  0  0  0  0  0  0  0  0  0  0
   26.1401  -20.2772  -14.5386 C   0  0  2  0  0  0  0  0  0  0  0  0
   26.6750  -19.5342  -15.6978 N   0  0  0  0  0  0  0  0  0  0  0  0
   24.6719  -20.0545  -14.4417 C   0  0  0  0  0  0  0  0  0  0  0  0
   24.1514  -19.0287  -14.9395 O   0  0  0  0  0  0  0  0  0  0  0  0
   25.6090  -21.7188   -7.5365 N   0  0  0  0  0  0  0  0  0  0  0  0
   23.8107  -20.9809  -13.7908 C   0  0  1  0  0  0  0  0  0  0  0  0
   22.3530  -20.7826  -13.8805 C   0  0  0  0  0  0  0  0  0  0  0  0
   22.0874  -19.3232  -14.2025 C   0  0  0  0  0  0  0  0  0  0  0  0
   21.8010  -19.0683  -15.6504 C   0  0  0  0  0  0  0  0  0  0  0  0
   21.3093  -17.6542  -15.8120 O   0  0  0  0  0  0  0  0  0  0  0  0
   22.0554  -16.7692  -16.2885 C   0  0  0  0  0  0  0  0  0  0  0  0
   21.7513  -21.7266  -14.8196 O   0  0  0  0  0  0  0  0  0  0  0  0
   22.4389  -22.6045  -15.6292 O   0  0  0  0  0  0  0  0  0  0  0  0
   20.0207  -17.3596  -15.4233 O   0  0  0  0  0  0  0  0  0  0  0  0
  2  1  1  6
  2  3  1  0
  4  5  2  0
  4  2  1  0
  6  7  1  0
  7  8  2  0
  7  9  1  0
  9 10  1  0
 10 11  1  0
 13 12  1  1
 12 11  1  0
 13 14  1  0
 14  4  1  0
 15 17  1  0
 15 13  1  0
 16 15  2  0
 18 19  1  1
 18 17  1  0
 19 20  1  0
 20 21  1  0
 21 22  2  0
 23 18  1  0
 24 23  1  0
 25 21  1  0
 26 23  2  0
M  END
$$$$
