ARE.pdb
     RDKit          3D

 26 25  0  0  1  0  0  0  0  0999 V2000
   16.6675  -26.7033   -7.5879 C   0  0  0  0  0  0  0  0  0  0  0  0
   16.8650  -25.2324   -7.7802 C   0  0  2  0  0  0  0  0  0  0  0  0
   18.2276  -24.8966   -8.1362 N   0  0  0  0  0  0  0  0  0  0  0  0
   16.3747  -24.4217   -6.6487 C   0  0  0  0  0  0  0  0  0  0  0  0
   17.2140  -24.0461   -5.7905 O   0  0  0  0  0  0  0  0  0  0  0  0
   10.0440  -18.6592   -7.4468 N   0  0  0  0  0  0  0  0  0  0  0  0
   11.2430  -18.8171   -8.2026 C   0  0  0  0  0  0  0  0  0  0  0  0
   11.3316  -18.2662   -9.3726 N   0  0  0  0  0  0  0  0  0  0  0  0
   12.2998  -19.5726   -7.6479 N   0  0  0  0  0  0  0  0  0  0  0  0
   12.1879  -20.1661   -6.3423 C   0  0  0  0  0  0  0  0  0  0  0  0
   13.4453  -20.8665   -5.9738 C   0  0  0  0  0  0  0  0  0  0  0  0
   13.3888  -22.3343   -5.9106 C   0  0  0  0  0  0  0  0  0  0  0  0
   14.5935  -23.0704   -5.4521 C   0  0  2  0  0  0  0  0  0  0  0  0
   15.0201  -24.0453   -6.4764 N   0  0  0  0  0  0  0  0  0  0  0  0
   14.2788  -23.7869   -4.1863 C   0  0  0  0  0  0  0  0  0  0  0  0
   13.7878  -24.9397   -4.2149 O   0  0  0  0  0  0  0  0  0  0  0  0
   12.2280  -18.3520   -9.8859 N   0  0  0  0  0  0  0  0  0  0  0  0
   14.5178  -23.2037   -2.9110 C   0  0  2  0  0  0  0  0  0  0  0  0
   14.2845  -24.0140   -1.7022 C   0  0  0  0  0  0  0  0  0  0  0  0
   15.1994  -23.5070   -0.6023 C   0  0  0  0  0  0  0  0  0  0  0  0
   15.0503  -24.2443    0.6930 C   0  0  0  0  0  0  0  0  0  0  0  0
   15.9920  -23.6507    1.7070 O   0  0  0  0  0  0  0  0  0  0  0  0
   15.6545  -22.6543    2.3855 C   0  0  0  0  0  0  0  0  0  0  0  0
   12.8671  -24.0318   -1.3472 O   0  0  0  0  0  0  0  0  0  0  0  0
   12.1637  -25.1292   -0.9001 O   0  0  0  0  0  0  0  0  0  0  0  0
   17.2314  -24.2304    1.8691 O   0  0  0  0  0  0  0  0  0  0  0  0
  2  1  1  1
  2  3  1  0
  4  5  2  0
  4  2  1  0
  6  7  1  0
  7  8  2  0
  7  9  1  0
  9 10  1  0
 10 11  1  0
 13 12  1  6
 12 11  1  0
 13 14  1  0
 14  4  1  0
 15 17  1  0
 15 13  1  0
 16 15  2  0
 18 19  1  6
 18 17  1  0
 19 20  1  0
 20 21  1  0
 21 22  2  0
 23 18  1  0
 24 23  1  0
 25 21  1  0
 26 23  2  0
M  END
$$$$
