GPE.pdb
     RDKit          3D

 21 21  0  0  1  0  0  0  0  0999 V2000
    5.6659  -17.9363   17.8925 N   0  0  0  0  0  0  0  0  0  0  0  0
    5.7106  -16.8987   18.8522 C   0  0  0  0  0  0  0  0  0  0  0  0
    7.0282  -16.3483   19.1851 C   0  0  0  0  0  0  0  0  0  0  0  0
    8.0620  -17.0445   18.8473 O   0  0  0  0  0  0  0  0  0  0  0  0
    7.3051  -15.1265   19.8430 N   0  0  0  0  0  0  0  0  0  0  0  0
    6.3767  -14.0951   20.2512 C   0  0  0  0  0  0  0  0  0  0  0  0
    7.2270  -12.8279   20.0434 C   0  0  0  0  0  0  0  0  0  0  0  0
    8.5411  -13.2596   20.6326 C   0  0  0  0  0  0  0  0  0  0  0  0
    8.6443  -14.6940   20.2232 C   0  0  1  0  0  0  0  0  0  0  0  0
    9.2054  -15.5549   21.2931 C   0  0  0  0  0  0  0  0  0  0  0  0
    8.4085  -16.0435   22.1337 O   0  0  0  0  0  0  0  0  0  0  0  0
   10.5732  -15.8660   21.4354 N   0  0  0  0  0  0  0  0  0  0  0  0
   11.0751  -16.7787   22.5030 C   0  0  1  0  0  0  0  0  0  0  0  0
   12.3381  -17.3585   21.9862 C   0  0  0  0  0  0  0  0  0  0  0  0
   13.0527  -18.3491   22.8327 C   0  0  0  0  0  0  0  0  0  0  0  0
   14.2687  -18.8491   22.2010 C   0  0  0  0  0  0  0  0  0  0  0  0
   14.1838  -19.3658   21.0490 O   0  0  0  0  0  0  0  0  0  0  0  0
   11.0266  -16.1522   23.7961 C   0  0  0  0  0  0  0  0  0  0  0  0
   10.7751  -16.8185   24.9929 O   0  0  0  0  0  0  0  0  0  0  0  0
   15.5141  -18.7640   22.8370 O   0  0  0  0  0  0  0  0  0  0  0  0
   11.2100  -14.8950   23.9435 O   0  0  0  0  0  0  0  0  0  0  0  0
  1  2  1  0
  2  3  1  0
  3  4  2  0
  5  9  1  0
  5  3  1  0
  6  5  1  0
  7  6  1  0
  7  8  1  0
  8  9  1  0
 10 12  1  0
  9 10  1  1
 11 10  2  0
 13 12  1  0
 13 14  1  6
 14 15  1  0
 16 15  1  0
 16 20  1  0
 17 16  2  0
 18 13  1  0
 19 18  1  0
 21 18  2  0
M  END
$$$$
