GPE.pdb
     RDKit          3D

 21 21  0  0  1  0  0  0  0  0999 V2000
    6.0434  -17.8335   17.8588 N   0  0  0  0  0  0  0  0  0  0  0  0
    6.1222  -16.6304   18.5978 C   0  0  0  0  0  0  0  0  0  0  0  0
    7.4598  -16.0896   18.8594 C   0  0  0  0  0  0  0  0  0  0  0  0
    8.4692  -16.8053   18.4901 O   0  0  0  0  0  0  0  0  0  0  0  0
    7.7801  -14.8581   19.4783 N   0  0  0  0  0  0  0  0  0  0  0  0
    6.8844  -13.7997   19.8907 C   0  0  0  0  0  0  0  0  0  0  0  0
    7.7505  -12.5543   19.6251 C   0  0  0  0  0  0  0  0  0  0  0  0
    9.0749  -12.9968   20.1825 C   0  0  0  0  0  0  0  0  0  0  0  0
    9.1385  -14.4423   19.8050 C   0  0  1  0  0  0  0  0  0  0  0  0
    9.7180  -15.2881   20.8771 C   0  0  0  0  0  0  0  0  0  0  0  0
    8.9563  -15.6712   21.8008 O   0  0  0  0  0  0  0  0  0  0  0  0
   11.0668  -15.6952   20.9346 N   0  0  0  0  0  0  0  0  0  0  0  0
   11.5837  -16.5871   22.0125 C   0  0  1  0  0  0  0  0  0  0  0  0
   12.3480  -17.6573   21.3275 C   0  0  0  0  0  0  0  0  0  0  0  0
   11.7827  -18.2336   20.0797 C   0  0  0  0  0  0  0  0  0  0  0  0
   12.6671  -19.2203   19.4700 C   0  0  0  0  0  0  0  0  0  0  0  0
   12.2568  -19.8557   18.4554 O   0  0  0  0  0  0  0  0  0  0  0  0
   12.1732  -15.8307   23.0836 C   0  0  0  0  0  0  0  0  0  0  0  0
   12.4404  -16.3301   24.3558 O   0  0  0  0  0  0  0  0  0  0  0  0
   13.9484  -19.4704   19.9782 O   0  0  0  0  0  0  0  0  0  0  0  0
   12.4984  -14.6018   22.9416 O   0  0  0  0  0  0  0  0  0  0  0  0
  1  2  1  0
  2  3  1  0
  3  4  2  0
  5  9  1  0
  5  3  1  0
  6  5  1  0
  7  6  1  0
  7  8  1  0
  8  9  1  0
 10 12  1  0
  9 10  1  1
 11 10  2  0
 13 12  1  0
 13 14  1  6
 14 15  1  0
 16 15  1  0
 16 20  1  0
 17 16  2  0
 18 13  1  0
 19 18  1  0
 21 18  2  0
M  END
$$$$
