GPE.pdb
     RDKit          3D

 21 21  0  0  1  0  0  0  0  0999 V2000
   13.1536  -13.7915   17.8973 N   0  0  0  0  0  0  0  0  0  0  0  0
   11.7522  -13.9649   17.9718 C   0  0  0  0  0  0  0  0  0  0  0  0
   11.1447  -13.9573   19.3062 C   0  0  0  0  0  0  0  0  0  0  0  0
   11.9447  -13.9744   20.3198 O   0  0  0  0  0  0  0  0  0  0  0  0
    9.7650  -13.9336   19.6195 N   0  0  0  0  0  0  0  0  0  0  0  0
    8.6409  -13.8035   18.7185 C   0  0  0  0  0  0  0  0  0  0  0  0
    7.6573  -12.9923   19.5823 C   0  0  0  0  0  0  0  0  0  0  0  0
    7.7831  -13.6960   20.9049 C   0  0  0  0  0  0  0  0  0  0  0  0
    9.2380  -14.0343   20.9749 C   0  0  1  0  0  0  0  0  0  0  0  0
    9.4852  -15.3787   21.5511 C   0  0  0  0  0  0  0  0  0  0  0  0
    9.4135  -16.3706   20.7822 O   0  0  0  0  0  0  0  0  0  0  0  0
    9.7967  -15.6249   22.9040 N   0  0  0  0  0  0  0  0  0  0  0  0
   10.0746  -16.9964   23.4200 C   0  0  1  0  0  0  0  0  0  0  0  0
   11.4344  -16.9450   24.0090 C   0  0  0  0  0  0  0  0  0  0  0  0
   11.9708  -18.1774   24.6430 C   0  0  0  0  0  0  0  0  0  0  0  0
   13.3631  -18.0333   25.0534 C   0  0  0  0  0  0  0  0  0  0  0  0
   13.9613  -16.9487   24.7943 O   0  0  0  0  0  0  0  0  0  0  0  0
    8.9636  -17.5098   24.1743 C   0  0  0  0  0  0  0  0  0  0  0  0
    7.9491  -16.7307   24.7249 O   0  0  0  0  0  0  0  0  0  0  0  0
   14.0398  -19.0596   25.7253 O   0  0  0  0  0  0  0  0  0  0  0  0
    8.8272  -18.7601   24.4073 O   0  0  0  0  0  0  0  0  0  0  0  0
  1  2  1  0
  2  3  1  0
  3  4  2  0
  5  9  1  0
  5  3  1  0
  6  5  1  0
  7  6  1  0
  7  8  1  0
  8  9  1  0
 10 12  1  0
  9 10  1  6
 11 10  2  0
 13 12  1  0
 13 14  1  1
 14 15  1  0
 16 15  1  0
 16 20  1  0
 17 16  2  0
 18 13  1  0
 19 18  1  0
 21 18  2  0
M  END
$$$$
