GPE.pdb
     RDKit          3D

 21 21  0  0  1  0  0  0  0  0999 V2000
    9.7602  -15.3440   15.1661 N   0  0  0  0  0  0  0  0  0  0  0  0
    8.9309  -15.3551   16.3114 C   0  0  0  0  0  0  0  0  0  0  0  0
    9.4813  -14.7840   17.5446 C   0  0  0  0  0  0  0  0  0  0  0  0
   10.7663  -14.7822   17.6728 O   0  0  0  0  0  0  0  0  0  0  0  0
    8.7603  -14.2268   18.6271 N   0  0  0  0  0  0  0  0  0  0  0  0
    7.3339  -14.0165   18.7437 C   0  0  0  0  0  0  0  0  0  0  0  0
    7.2895  -12.7146   19.5653 C   0  0  0  0  0  0  0  0  0  0  0  0
    8.3324  -12.9951   20.6113 C   0  0  0  0  0  0  0  0  0  0  0  0
    9.3816  -13.7456   19.8549 C   0  0  1  0  0  0  0  0  0  0  0  0
    9.9624  -14.8629   20.6390 C   0  0  0  0  0  0  0  0  0  0  0  0
    9.4926  -16.0148   20.4587 O   0  0  0  0  0  0  0  0  0  0  0  0
   11.0078  -14.7254   21.5752 N   0  0  0  0  0  0  0  0  0  0  0  0
   11.4745  -15.8625   22.4199 C   0  0  1  0  0  0  0  0  0  0  0  0
   12.9529  -15.7588   22.4664 C   0  0  0  0  0  0  0  0  0  0  0  0
   13.6868  -15.6224   21.1813 C   0  0  0  0  0  0  0  0  0  0  0  0
   15.1331  -15.5812   21.3662 C   0  0  0  0  0  0  0  0  0  0  0  0
   15.6120  -14.7741   22.2152 O   0  0  0  0  0  0  0  0  0  0  0  0
   10.7049  -15.9699   23.6295 C   0  0  0  0  0  0  0  0  0  0  0  0
   10.7050  -17.0757   24.4759 O   0  0  0  0  0  0  0  0  0  0  0  0
   15.9904  -16.4122   20.6333 O   0  0  0  0  0  0  0  0  0  0  0  0
    9.9339  -15.0285   24.0237 O   0  0  0  0  0  0  0  0  0  0  0  0
  1  2  1  0
  2  3  1  0
  3  4  2  0
  5  9  1  0
  5  3  1  0
  6  5  1  0
  7  6  1  0
  7  8  1  0
  8  9  1  0
 10 12  1  0
  9 10  1  1
 11 10  2  0
 13 12  1  0
 13 14  1  1
 14 15  1  0
 16 15  1  0
 16 20  1  0
 17 16  2  0
 18 13  1  0
 19 18  1  0
 21 18  2  0
M  END
$$$$
