GPE.pdb
     RDKit          3D

 21 21  0  0  1  0  0  0  0  0999 V2000
    5.9929  -18.8468   26.7045 N   0  0  0  0  0  0  0  0  0  0  0  0
    6.3113  -17.4796   26.8745 C   0  0  0  0  0  0  0  0  0  0  0  0
    6.7975  -16.7521   25.6979 C   0  0  0  0  0  0  0  0  0  0  0  0
    7.1778  -17.4554   24.6838 O   0  0  0  0  0  0  0  0  0  0  0  0
    6.9014  -15.3498   25.5400 N   0  0  0  0  0  0  0  0  0  0  0  0
    6.4585  -14.3087   26.4413 C   0  0  0  0  0  0  0  0  0  0  0  0
    6.0289  -13.2145   25.4464 C   0  0  0  0  0  0  0  0  0  0  0  0
    7.1680  -13.2494   24.4658 C   0  0  0  0  0  0  0  0  0  0  0  0
    7.4967  -14.7053   24.3759 C   0  0  1  0  0  0  0  0  0  0  0  0
    8.9568  -14.9585   24.3073 C   0  0  0  0  0  0  0  0  0  0  0  0
    9.6934  -14.3864   25.1501 O   0  0  0  0  0  0  0  0  0  0  0  0
    9.5802  -15.7982   23.3615 N   0  0  0  0  0  0  0  0  0  0  0  0
   11.0634  -15.9015   23.2442 C   0  0  1  0  0  0  0  0  0  0  0  0
   11.4621  -17.0529   24.0890 C   0  0  0  0  0  0  0  0  0  0  0  0
   11.0842  -17.0321   25.5261 C   0  0  0  0  0  0  0  0  0  0  0  0
   10.9370  -18.3717   26.0841 C   0  0  0  0  0  0  0  0  0  0  0  0
   10.4894  -19.2917   25.3394 O   0  0  0  0  0  0  0  0  0  0  0  0
   11.4904  -15.8097   21.8744 C   0  0  0  0  0  0  0  0  0  0  0  0
   12.8106  -15.6440   21.4631 O   0  0  0  0  0  0  0  0  0  0  0  0
   11.2827  -18.6555   27.4117 O   0  0  0  0  0  0  0  0  0  0  0  0
   10.6594  -15.8684   20.9038 O   0  0  0  0  0  0  0  0  0  0  0  0
  1  2  1  0
  2  3  1  0
  3  4  2  0
  5  9  1  0
  5  3  1  0
  6  5  1  0
  7  6  1  0
  7  8  1  0
  8  9  1  0
 10 12  1  0
  9 10  1  1
 11 10  2  0
 13 12  1  0
 13 14  1  6
 14 15  1  0
 16 15  1  0
 16 20  1  0
 17 16  2  0
 18 13  1  0
 19 18  1  0
 21 18  2  0
M  END
$$$$
