GPE.pdb
     RDKit          3D

 21 21  0  0  1  0  0  0  0  0999 V2000
    7.6169  -17.4549   16.7276 N   0  0  0  0  0  0  0  0  0  0  0  0
    7.1571  -16.4390   17.5972 C   0  0  0  0  0  0  0  0  0  0  0  0
    8.1371  -15.8422   18.5100 C   0  0  0  0  0  0  0  0  0  0  0  0
    9.3094  -16.3821   18.5536 O   0  0  0  0  0  0  0  0  0  0  0  0
    7.9474  -14.7284   19.3619 N   0  0  0  0  0  0  0  0  0  0  0  0
    6.7716  -13.8985   19.5079 C   0  0  0  0  0  0  0  0  0  0  0  0
    7.4082  -12.5240   19.7856 C   0  0  0  0  0  0  0  0  0  0  0  0
    8.4810  -12.8942   20.7717 C   0  0  0  0  0  0  0  0  0  0  0  0
    8.9684  -14.2145   20.2666 C   0  0  1  0  0  0  0  0  0  0  0  0
    9.2527  -15.1754   21.3603 C   0  0  0  0  0  0  0  0  0  0  0  0
    8.2816  -15.7869   21.8735 O   0  0  0  0  0  0  0  0  0  0  0  0
   10.5386  -15.4537   21.8674 N   0  0  0  0  0  0  0  0  0  0  0  0
   10.7770  -16.5023   22.9009 C   0  0  1  0  0  0  0  0  0  0  0  0
   11.1644  -17.7270   22.1603 C   0  0  0  0  0  0  0  0  0  0  0  0
   11.4527  -18.9574   22.9424 C   0  0  0  0  0  0  0  0  0  0  0  0
   11.8516  -20.0763   22.0958 C   0  0  0  0  0  0  0  0  0  0  0  0
   12.2447  -19.8336   20.9177 O   0  0  0  0  0  0  0  0  0  0  0  0
   11.5888  -16.0044   23.9779 C   0  0  0  0  0  0  0  0  0  0  0  0
   12.5073  -14.9637   23.8652 O   0  0  0  0  0  0  0  0  0  0  0  0
   11.8124  -21.3976   22.5596 O   0  0  0  0  0  0  0  0  0  0  0  0
   11.5284  -16.5035   25.1541 O   0  0  0  0  0  0  0  0  0  0  0  0
  1  2  1  0
  2  3  1  0
  3  4  2  0
  5  9  1  0
  5  3  1  0
  6  5  1  0
  7  6  1  0
  7  8  1  0
  8  9  1  0
 10 12  1  0
  9 10  1  1
 11 10  2  0
 13 12  1  0
 13 14  1  6
 14 15  1  0
 16 15  1  0
 16 20  1  0
 17 16  2  0
 18 13  1  0
 19 18  1  0
 21 18  2  0
M  END
$$$$
