GPE.pdb
     RDKit          3D

 21 21  0  0  1  0  0  0  0  0999 V2000
    9.3346  -12.7224   18.0068 N   0  0  0  0  0  0  0  0  0  0  0  0
    9.0301  -13.9906   18.5532 C   0  0  0  0  0  0  0  0  0  0  0  0
    9.0733  -14.1206   20.0130 C   0  0  0  0  0  0  0  0  0  0  0  0
   10.1564  -13.7457   20.6079 O   0  0  0  0  0  0  0  0  0  0  0  0
    8.0535  -14.6162   20.8596 N   0  0  0  0  0  0  0  0  0  0  0  0
    6.7703  -15.1725   20.4905 C   0  0  0  0  0  0  0  0  0  0  0  0
    5.8878  -14.6884   21.6561 C   0  0  0  0  0  0  0  0  0  0  0  0
    6.7809  -14.9683   22.8327 C   0  0  0  0  0  0  0  0  0  0  0  0
    8.1432  -14.6348   22.3145 C   0  0  1  0  0  0  0  0  0  0  0  0
    9.1806  -15.5883   22.7785 C   0  0  0  0  0  0  0  0  0  0  0  0
    9.5256  -16.5094   21.9957 O   0  0  0  0  0  0  0  0  0  0  0  0
    9.8103  -15.5353   24.0390 N   0  0  0  0  0  0  0  0  0  0  0  0
   10.7301  -16.6086   24.5150 C   0  0  1  0  0  0  0  0  0  0  0  0
   11.4100  -16.0634   25.7146 C   0  0  0  0  0  0  0  0  0  0  0  0
   11.2731  -16.8045   26.9955 C   0  0  0  0  0  0  0  0  0  0  0  0
   11.0486  -15.9181   28.1320 C   0  0  0  0  0  0  0  0  0  0  0  0
   10.9781  -14.6720   27.9229 O   0  0  0  0  0  0  0  0  0  0  0  0
   10.0709  -17.8855   24.5579 C   0  0  0  0  0  0  0  0  0  0  0  0
   10.7148  -19.1160   24.4552 O   0  0  0  0  0  0  0  0  0  0  0  0
   10.9064  -16.4159   29.4337 O   0  0  0  0  0  0  0  0  0  0  0  0
    8.8027  -17.9853   24.6909 O   0  0  0  0  0  0  0  0  0  0  0  0
  1  2  1  0
  2  3  1  0
  3  4  2  0
  5  9  1  0
  5  3  1  0
  6  5  1  0
  7  6  1  0
  7  8  1  0
  8  9  1  0
 10 12  1  0
  9 10  1  6
 11 10  2  0
 13 12  1  0
 13 14  1  1
 14 15  1  0
 16 15  1  0
 16 20  1  0
 17 16  2  0
 18 13  1  0
 19 18  1  0
 21 18  2  0
M  END
$$$$
