ESF.pdb
     RDKit          3D

 27 27  0  0  1  0  0  0  0  0999 V2000
   20.2964  -14.3622  -18.7045 N   0  0  0  0  0  0  0  0  0  0  0  0
   21.4965  -13.6035  -18.3673 C   0  0  1  0  0  0  0  0  0  0  0  0
   22.5045  -13.9316  -19.4446 C   0  0  0  0  0  0  0  0  0  0  0  0
   23.8487  -13.3135  -19.2425 C   0  0  0  0  0  0  0  0  0  0  0  0
   24.0355  -12.0203  -19.9290 C   0  0  0  0  0  0  0  0  0  0  0  0
   23.5024  -10.9736  -19.5021 O   0  0  0  0  0  0  0  0  0  0  0  0
   21.1517  -12.1474  -18.4887 C   0  0  0  0  0  0  0  0  0  0  0  0
   20.6526  -11.6937  -19.5494 O   0  0  0  0  0  0  0  0  0  0  0  0
   24.8174  -11.9672  -21.0689 O   0  0  0  0  0  0  0  0  0  0  0  0
   19.0239   -8.4425  -17.8833 O   0  0  0  0  0  0  0  0  0  0  0  0
   19.4463   -9.7703  -17.8183 C   0  0  0  0  0  0  0  0  0  0  0  0
   20.9469   -9.8669  -17.5687 C   0  0  2  0  0  0  0  0  0  0  0  0
   21.3749  -11.2412  -17.4206 N   0  0  0  0  0  0  0  0  0  0  0  0
   21.2838   -9.0846  -16.3373 C   0  0  0  0  0  0  0  0  0  0  0  0
   21.0001   -9.5087  -15.1883 O   0  0  0  0  0  0  0  0  0  0  0  0
   21.9401   -7.8254  -16.4091 N   0  0  0  0  0  0  0  0  0  0  0  0
   22.3641   -7.1282  -15.1877 C   0  0  1  0  0  0  0  0  0  0  0  0
   23.8402   -6.8655  -15.3739 C   0  0  0  0  0  0  0  0  0  0  0  0
   24.5898   -8.1215  -15.5183 C   0  0  0  0  0  0  0  0  0  0  0  0
   24.3631   -9.1589  -14.6461 C   0  0  0  0  0  0  0  0  0  0  0  0
   25.0676  -10.3575  -14.7759 C   0  0  0  0  0  0  0  0  0  0  0  0
   25.9931  -10.4829  -15.7917 C   0  0  0  0  0  0  0  0  0  0  0  0
   26.2172   -9.4290  -16.6702 C   0  0  0  0  0  0  0  0  0  0  0  0
   25.5227   -8.2460  -16.5433 C   0  0  0  0  0  0  0  0  0  0  0  0
   21.5549   -5.9254  -14.9901 C   0  0  0  0  0  0  0  0  0  0  0  0
   21.6104   -5.1697  -13.8288 O   0  0  0  0  0  0  0  0  0  0  0  0
   20.7740   -5.5515  -15.9006 O   0  0  0  0  0  0  0  0  0  0  0  0
  2  1  1  6
  2  7  1  0
  3  2  1  0
  4  3  1  0
  4  5  1  0
  5  6  2  0
  5  9  1  0
  7  8  2  0
  7 13  1  0
 10 11  1  0
 12 14  1  0
 12 11  1  1
 13 12  1  0
 14 15  2  0
 16 17  1  0
 16 14  1  0
 17 18  1  6
 18 19  1  0
 19 20  2  0
 20 21  1  0
 22 21  2  0
 23 22  1  0
 24 23  2  0
 24 19  1  0
 25 26  1  0
 25 17  1  0
 27 25  2  0
M  END
$$$$
