ESF.pdb
     RDKit          3D

 27 27  0  0  1  0  0  0  0  0999 V2000
   14.1660  -19.9164    2.9021 N   0  0  0  0  0  0  0  0  0  0  0  0
   15.0899  -20.4438    3.9010 C   0  0  1  0  0  0  0  0  0  0  0  0
   16.3821  -20.7098    3.1636 C   0  0  0  0  0  0  0  0  0  0  0  0
   16.3605  -21.9260    2.2973 C   0  0  0  0  0  0  0  0  0  0  0  0
   16.6385  -23.1882    3.0100 C   0  0  0  0  0  0  0  0  0  0  0  0
   17.5083  -23.2524    3.9053 O   0  0  0  0  0  0  0  0  0  0  0  0
   15.3450  -19.3476    4.8945 C   0  0  0  0  0  0  0  0  0  0  0  0
   15.0545  -18.1555    4.6216 O   0  0  0  0  0  0  0  0  0  0  0  0
   15.9204  -24.3233    2.6792 O   0  0  0  0  0  0  0  0  0  0  0  0
   17.3260  -19.9917    8.5501 O   0  0  0  0  0  0  0  0  0  0  0  0
   16.2876  -19.0606    8.5297 C   0  0  0  0  0  0  0  0  0  0  0  0
   16.0353  -18.5369    7.1205 C   0  0  2  0  0  0  0  0  0  0  0  0
   15.9174  -19.6164    6.1642 N   0  0  0  0  0  0  0  0  0  0  0  0
   17.1585  -17.6248    6.7353 C   0  0  0  0  0  0  0  0  0  0  0  0
   18.1396  -18.0339    6.0640 O   0  0  0  0  0  0  0  0  0  0  0  0
   17.1688  -16.2534    7.1102 N   0  0  0  0  0  0  0  0  0  0  0  0
   18.3368  -15.4071    6.8327 C   0  0  1  0  0  0  0  0  0  0  0  0
   17.8063  -13.9926    6.8181 C   0  0  0  0  0  0  0  0  0  0  0  0
   18.8652  -13.0310    6.4795 C   0  0  0  0  0  0  0  0  0  0  0  0
   19.7314  -12.5948    7.4530 C   0  0  0  0  0  0  0  0  0  0  0  0
   20.7426  -11.6836    7.1418 C   0  0  0  0  0  0  0  0  0  0  0  0
   20.8576  -11.2293    5.8438 C   0  0  0  0  0  0  0  0  0  0  0  0
   19.9774  -11.6750    4.8643 C   0  0  0  0  0  0  0  0  0  0  0  0
   18.9794  -12.5741    5.1702 C   0  0  0  0  0  0  0  0  0  0  0  0
   19.3814  -15.6520    7.8273 C   0  0  0  0  0  0  0  0  0  0  0  0
   20.7274  -15.7097    7.4989 O   0  0  0  0  0  0  0  0  0  0  0  0
   19.0600  -15.8191    9.0304 O   0  0  0  0  0  0  0  0  0  0  0  0
  2  1  1  6
  2  7  1  0
  3  2  1  0
  4  3  1  0
  4  5  1  0
  5  6  2  0
  5  9  1  0
  7  8  2  0
  7 13  1  0
 10 11  1  0
 12 14  1  0
 12 11  1  1
 13 12  1  0
 14 15  2  0
 16 17  1  0
 16 14  1  0
 17 18  1  1
 18 19  1  0
 19 20  2  0
 20 21  1  0
 22 21  2  0
 23 22  1  0
 24 23  2  0
 24 19  1  0
 25 26  1  0
 25 17  1  0
 27 25  2  0
M  END
$$$$
