ESF.pdb
     RDKit          3D

 27 27  0  0  1  0  0  0  0  0999 V2000
   17.4485  -13.2920  -18.7355 N   0  0  0  0  0  0  0  0  0  0  0  0
   16.6291  -12.3517  -17.9779 C   0  0  1  0  0  0  0  0  0  0  0  0
   16.2389  -13.0771  -16.7108 C   0  0  0  0  0  0  0  0  0  0  0  0
   17.1080  -14.2437  -16.3736 C   0  0  0  0  0  0  0  0  0  0  0  0
   16.6445  -15.0365  -15.2182 C   0  0  0  0  0  0  0  0  0  0  0  0
   15.5816  -14.7586  -14.6223 O   0  0  0  0  0  0  0  0  0  0  0  0
   17.5122  -11.1997  -17.5947 C   0  0  0  0  0  0  0  0  0  0  0  0
   18.7631  -11.3001  -17.6662 O   0  0  0  0  0  0  0  0  0  0  0  0
   17.4035  -16.1095  -14.7867 O   0  0  0  0  0  0  0  0  0  0  0  0
   16.0707   -7.4671  -16.0652 O   0  0  0  0  0  0  0  0  0  0  0  0
   17.1817   -7.5316  -16.9062 C   0  0  0  0  0  0  0  0  0  0  0  0
   17.8734   -8.8868  -16.8141 C   0  0  2  0  0  0  0  0  0  0  0  0
   16.9708   -9.9690  -17.1427 N   0  0  0  0  0  0  0  0  0  0  0  0
   18.4092   -9.0631  -15.4271 C   0  0  0  0  0  0  0  0  0  0  0  0
   17.8708   -9.8493  -14.6070 O   0  0  0  0  0  0  0  0  0  0  0  0
   19.5518   -8.3499  -14.9719 N   0  0  0  0  0  0  0  0  0  0  0  0
   20.0738   -8.5545  -13.6143 C   0  0  1  0  0  0  0  0  0  0  0  0
   21.5500   -8.2463  -13.7070 C   0  0  0  0  0  0  0  0  0  0  0  0
   21.7779   -6.8705  -14.1716 C   0  0  0  0  0  0  0  0  0  0  0  0
   21.8046   -5.8373  -13.2661 C   0  0  0  0  0  0  0  0  0  0  0  0
   22.0231   -4.5268  -13.6961 C   0  0  0  0  0  0  0  0  0  0  0  0
   22.2111   -4.2870  -15.0421 C   0  0  0  0  0  0  0  0  0  0  0  0
   22.1826   -5.3375  -15.9522 C   0  0  0  0  0  0  0  0  0  0  0  0
   21.9672   -6.6308  -15.5291 C   0  0  0  0  0  0  0  0  0  0  0  0
   19.3393   -7.7198  -12.6633 C   0  0  0  0  0  0  0  0  0  0  0  0
   19.3743   -7.9385  -11.2945 O   0  0  0  0  0  0  0  0  0  0  0  0
   18.6449   -6.7639  -13.0905 O   0  0  0  0  0  0  0  0  0  0  0  0
  2  1  1  6
  2  7  1  0
  3  2  1  0
  4  3  1  0
  4  5  1  0
  5  6  2  0
  5  9  1  0
  7  8  2  0
  7 13  1  0
 10 11  1  0
 12 14  1  0
 12 11  1  1
 13 12  1  0
 14 15  2  0
 16 17  1  0
 16 14  1  0
 17 18  1  6
 18 19  1  0
 19 20  2  0
 20 21  1  0
 22 21  2  0
 23 22  1  0
 24 23  2  0
 24 19  1  0
 25 26  1  0
 25 17  1  0
 27 25  2  0
M  END
$$$$
