ESF.pdb
     RDKit          3D

 27 27  0  0  1  0  0  0  0  0999 V2000
   19.6234   -1.6837  -19.7707 N   0  0  0  0  0  0  0  0  0  0  0  0
   19.6114   -3.1417  -19.8311 C   0  0  1  0  0  0  0  0  0  0  0  0
   20.4695   -3.5093  -21.0197 C   0  0  0  0  0  0  0  0  0  0  0  0
   19.7868   -3.3733  -22.3408 C   0  0  0  0  0  0  0  0  0  0  0  0
   18.8550   -4.4719  -22.6623 C   0  0  0  0  0  0  0  0  0  0  0  0
   19.1220   -5.6580  -22.3723 O   0  0  0  0  0  0  0  0  0  0  0  0
   20.2991   -3.6443  -18.5948 C   0  0  0  0  0  0  0  0  0  0  0  0
   21.0046   -2.8736  -17.8961 O   0  0  0  0  0  0  0  0  0  0  0  0
   17.6613   -4.1812  -23.2981 O   0  0  0  0  0  0  0  0  0  0  0  0
   18.9277   -6.8202  -16.4359 O   0  0  0  0  0  0  0  0  0  0  0  0
   19.7933   -5.8619  -15.9086 C   0  0  0  0  0  0  0  0  0  0  0  0
   20.8149   -5.4034  -16.9429 C   0  0  2  0  0  0  0  0  0  0  0  0
   20.1777   -4.9941  -18.1759 N   0  0  0  0  0  0  0  0  0  0  0  0
   21.7750   -6.5223  -17.2033 C   0  0  0  0  0  0  0  0  0  0  0  0
   21.6637   -7.2659  -18.2110 O   0  0  0  0  0  0  0  0  0  0  0  0
   22.8577   -6.7971  -16.3237 N   0  0  0  0  0  0  0  0  0  0  0  0
   23.7558   -7.9331  -16.5692 C   0  0  1  0  0  0  0  0  0  0  0  0
   24.9491   -7.6951  -15.6736 C   0  0  0  0  0  0  0  0  0  0  0  0
   25.9489   -8.7620  -15.8251 C   0  0  0  0  0  0  0  0  0  0  0  0
   26.8642   -8.7027  -16.8483 C   0  0  0  0  0  0  0  0  0  0  0  0
   27.8201   -9.7093  -16.9999 C   0  0  0  0  0  0  0  0  0  0  0  0
   27.8303  -10.7620  -16.1076 C   0  0  0  0  0  0  0  0  0  0  0  0
   26.9009  -10.8151  -15.0750 C   0  0  0  0  0  0  0  0  0  0  0  0
   25.9575   -9.8226  -14.9245 C   0  0  0  0  0  0  0  0  0  0  0  0
   23.0526   -9.1916  -16.3198 C   0  0  0  0  0  0  0  0  0  0  0  0
   23.3303  -10.3547  -17.0217 O   0  0  0  0  0  0  0  0  0  0  0  0
   22.1588   -9.2338  -15.4378 O   0  0  0  0  0  0  0  0  0  0  0  0
  2  1  1  1
  2  7  1  0
  3  2  1  0
  4  3  1  0
  4  5  1  0
  5  6  2  0
  5  9  1  0
  7  8  2  0
  7 13  1  0
 10 11  1  0
 12 14  1  0
 12 11  1  1
 13 12  1  0
 14 15  2  0
 16 17  1  0
 16 14  1  0
 17 18  1  1
 18 19  1  0
 19 20  2  0
 20 21  1  0
 22 21  2  0
 23 22  1  0
 24 23  2  0
 24 19  1  0
 25 26  1  0
 25 17  1  0
 27 25  2  0
M  END
$$$$
