ESF.pdb
     RDKit          3D

 27 27  0  0  1  0  0  0  0  0999 V2000
   17.2030  -11.9688  -18.6646 N   0  0  0  0  0  0  0  0  0  0  0  0
   17.7509  -11.4006  -17.4372 C   0  0  1  0  0  0  0  0  0  0  0  0
   17.4914  -12.4275  -16.3591 C   0  0  0  0  0  0  0  0  0  0  0  0
   16.0826  -12.4628  -15.8651 C   0  0  0  0  0  0  0  0  0  0  0  0
   15.7509  -11.4057  -14.8900 C   0  0  0  0  0  0  0  0  0  0  0  0
   16.6080  -10.9586  -14.0977 O   0  0  0  0  0  0  0  0  0  0  0  0
   19.2369  -11.2926  -17.6210 C   0  0  0  0  0  0  0  0  0  0  0  0
   19.9451  -12.3251  -17.7325 O   0  0  0  0  0  0  0  0  0  0  0  0
   14.4639  -10.9000  -14.8532 O   0  0  0  0  0  0  0  0  0  0  0  0
   21.0683   -9.0421  -20.1376 O   0  0  0  0  0  0  0  0  0  0  0  0
   21.6153  -10.1068  -19.4215 C   0  0  0  0  0  0  0  0  0  0  0  0
   21.3110   -9.9925  -17.9322 C   0  0  2  0  0  0  0  0  0  0  0  0
   19.8877  -10.0334  -17.6747 N   0  0  0  0  0  0  0  0  0  0  0  0
   21.8935   -8.7133  -17.4164 C   0  0  0  0  0  0  0  0  0  0  0  0
   21.2619   -7.6281  -17.4797 O   0  0  0  0  0  0  0  0  0  0  0  0
   23.1882   -8.6652  -16.8306 N   0  0  0  0  0  0  0  0  0  0  0  0
   23.7457   -7.3969  -16.3428 C   0  0  1  0  0  0  0  0  0  0  0  0
   24.5199   -7.7580  -15.0967 C   0  0  0  0  0  0  0  0  0  0  0  0
   25.4314   -8.8841  -15.3446 C   0  0  0  0  0  0  0  0  0  0  0  0
   25.1005  -10.1431  -14.9045 C   0  0  0  0  0  0  0  0  0  0  0  0
   25.9578  -11.2205  -15.1371 C   0  0  0  0  0  0  0  0  0  0  0  0
   27.1399  -11.0009  -15.8143 C   0  0  0  0  0  0  0  0  0  0  0  0
   27.4679   -9.7242  -16.2564 C   0  0  0  0  0  0  0  0  0  0  0  0
   26.6229   -8.6605  -16.0276 C   0  0  0  0  0  0  0  0  0  0  0  0
   24.5462   -6.7645  -17.3914 C   0  0  0  0  0  0  0  0  0  0  0  0
   25.0230   -5.4666  -17.2875 O   0  0  0  0  0  0  0  0  0  0  0  0
   24.8194   -7.4117  -18.4331 O   0  0  0  0  0  0  0  0  0  0  0  0
  2  1  1  6
  2  7  1  0
  3  2  1  0
  4  3  1  0
  4  5  1  0
  5  6  2  0
  5  9  1  0
  7  8  2  0
  7 13  1  0
 10 11  1  0
 12 14  1  0
 12 11  1  6
 13 12  1  0
 14 15  2  0
 16 17  1  0
 16 14  1  0
 17 18  1  1
 18 19  1  0
 19 20  2  0
 20 21  1  0
 22 21  2  0
 23 22  1  0
 24 23  2  0
 24 19  1  0
 25 26  1  0
 25 17  1  0
 27 25  2  0
M  END
$$$$
