ESF.pdb
     RDKit          3D

 27 27  0  0  1  0  0  0  0  0999 V2000
   20.7242  -15.6760  -16.9262 N   0  0  0  0  0  0  0  0  0  0  0  0
   19.7735  -14.5714  -16.8520 C   0  0  1  0  0  0  0  0  0  0  0  0
   19.1746  -14.6389  -15.4660 C   0  0  0  0  0  0  0  0  0  0  0  0
   18.0785  -15.6415  -15.3143 C   0  0  0  0  0  0  0  0  0  0  0  0
   16.8135  -15.2680  -15.9766 C   0  0  0  0  0  0  0  0  0  0  0  0
   16.4891  -15.7534  -17.0818 O   0  0  0  0  0  0  0  0  0  0  0  0
   20.5621  -13.2977  -16.9504 C   0  0  0  0  0  0  0  0  0  0  0  0
   21.7532  -13.2494  -16.5517 O   0  0  0  0  0  0  0  0  0  0  0  0
   15.9700  -14.3614  -15.3601 O   0  0  0  0  0  0  0  0  0  0  0  0
   19.0174   -9.6706  -18.5955 O   0  0  0  0  0  0  0  0  0  0  0  0
   20.3366  -10.0693  -18.8107 C   0  0  0  0  0  0  0  0  0  0  0  0
   20.8428  -10.9570  -17.6796 C   0  0  2  0  0  0  0  0  0  0  0  0
   19.9959  -12.1151  -17.4916 N   0  0  0  0  0  0  0  0  0  0  0  0
   20.9018  -10.1493  -16.4203 C   0  0  0  0  0  0  0  0  0  0  0  0
   19.9718  -10.1770  -15.5748 O   0  0  0  0  0  0  0  0  0  0  0  0
   22.0120   -9.3129  -16.1211 N   0  0  0  0  0  0  0  0  0  0  0  0
   22.0359   -8.5061  -14.8939 C   0  0  1  0  0  0  0  0  0  0  0  0
   23.0469   -9.1806  -13.9963 C   0  0  0  0  0  0  0  0  0  0  0  0
   24.2877   -9.4813  -14.7247 C   0  0  0  0  0  0  0  0  0  0  0  0
   24.8509  -10.7312  -14.6317 C   0  0  0  0  0  0  0  0  0  0  0  0
   26.0280  -11.0285  -15.3216 C   0  0  0  0  0  0  0  0  0  0  0  0
   26.6150  -10.0490  -16.0964 C   0  0  0  0  0  0  0  0  0  0  0  0
   26.0393   -8.7867  -16.1855 C   0  0  0  0  0  0  0  0  0  0  0  0
   24.8780   -8.4922  -15.5053 C   0  0  0  0  0  0  0  0  0  0  0  0
   22.3456   -7.1128  -15.2155 C   0  0  0  0  0  0  0  0  0  0  0  0
   22.3304   -6.1049  -14.2634 O   0  0  0  0  0  0  0  0  0  0  0  0
   22.6379   -6.8035  -16.3976 O   0  0  0  0  0  0  0  0  0  0  0  0
  2  1  1  1
  2  7  1  0
  3  2  1  0
  4  3  1  0
  4  5  1  0
  5  6  2  0
  5  9  1  0
  7  8  2  0
  7 13  1  0
 10 11  1  0
 12 14  1  0
 12 11  1  6
 13 12  1  0
 14 15  2  0
 16 17  1  0
 16 14  1  0
 17 18  1  1
 18 19  1  0
 19 20  2  0
 20 21  1  0
 22 21  2  0
 23 22  1  0
 24 23  2  0
 24 19  1  0
 25 26  1  0
 25 17  1  0
 27 25  2  0
M  END
$$$$
