ESF.pdb
     RDKit          3D

 27 27  0  0  1  0  0  0  0  0999 V2000
   18.6417  -14.0055  -18.4902 N   0  0  0  0  0  0  0  0  0  0  0  0
   19.8185  -13.5148  -17.7805 C   0  0  1  0  0  0  0  0  0  0  0  0
   21.0045  -14.1627  -18.4571 C   0  0  0  0  0  0  0  0  0  0  0  0
   21.1374  -15.6281  -18.2021 C   0  0  0  0  0  0  0  0  0  0  0  0
   22.3756  -16.2304  -18.7334 C   0  0  0  0  0  0  0  0  0  0  0  0
   23.2350  -15.5398  -19.3222 O   0  0  0  0  0  0  0  0  0  0  0  0
   19.9015  -12.0359  -18.0248 C   0  0  0  0  0  0  0  0  0  0  0  0
   19.3178  -11.5156  -19.0090 O   0  0  0  0  0  0  0  0  0  0  0  0
   22.5882  -17.5882  -18.5759 O   0  0  0  0  0  0  0  0  0  0  0  0
   18.5174   -9.5770  -16.0008 O   0  0  0  0  0  0  0  0  0  0  0  0
   19.0724   -9.2862  -17.2469 C   0  0  0  0  0  0  0  0  0  0  0  0
   20.5220   -9.7496  -17.3341 C   0  0  2  0  0  0  0  0  0  0  0  0
   20.6346  -11.1819  -17.1616 N   0  0  0  0  0  0  0  0  0  0  0  0
   21.3210   -9.0380  -16.2868 C   0  0  0  0  0  0  0  0  0  0  0  0
   21.2896   -9.3904  -15.0804 O   0  0  0  0  0  0  0  0  0  0  0  0
   22.1530   -7.9303  -16.6068 N   0  0  0  0  0  0  0  0  0  0  0  0
   22.9208   -7.2404  -15.5618 C   0  0  1  0  0  0  0  0  0  0  0  0
   24.3169   -7.1019  -16.1226 C   0  0  0  0  0  0  0  0  0  0  0  0
   25.0833   -8.3449  -15.9544 C   0  0  0  0  0  0  0  0  0  0  0  0
   26.3868   -8.4096  -16.3846 C   0  0  0  0  0  0  0  0  0  0  0  0
   27.1249   -9.5845  -16.2273 C   0  0  0  0  0  0  0  0  0  0  0  0
   26.5253  -10.6769  -15.6344 C   0  0  0  0  0  0  0  0  0  0  0  0
   25.2061  -10.6039  -15.2018 C   0  0  0  0  0  0  0  0  0  0  0  0
   24.4769   -9.4453  -15.3564 C   0  0  0  0  0  0  0  0  0  0  0  0
   22.2765   -5.9720  -15.2206 C   0  0  0  0  0  0  0  0  0  0  0  0
   22.5203   -5.3068  -14.0287 O   0  0  0  0  0  0  0  0  0  0  0  0
   21.4675   -5.4542  -16.0305 O   0  0  0  0  0  0  0  0  0  0  0  0
  2  1  1  6
  2  7  1  0
  3  2  1  0
  4  3  1  0
  4  5  1  0
  5  6  2  0
  5  9  1  0
  7  8  2  0
  7 13  1  0
 10 11  1  0
 12 14  1  0
 12 11  1  1
 13 12  1  0
 14 15  2  0
 16 17  1  0
 16 14  1  0
 17 18  1  6
 18 19  1  0
 19 20  2  0
 20 21  1  0
 22 21  2  0
 23 22  1  0
 24 23  2  0
 24 19  1  0
 25 26  1  0
 25 17  1  0
 27 25  2  0
M  END
$$$$
