ESF.pdb
     RDKit          3D

 27 27  0  0  1  0  0  0  0  0999 V2000
   17.2169  -12.7091  -18.5895 N   0  0  0  0  0  0  0  0  0  0  0  0
   17.3242  -12.1844  -17.2321 C   0  0  1  0  0  0  0  0  0  0  0  0
   18.1148  -13.2130  -16.4568 C   0  0  0  0  0  0  0  0  0  0  0  0
   17.3445  -14.4396  -16.0934 C   0  0  0  0  0  0  0  0  0  0  0  0
   16.3240  -14.2321  -15.0475 C   0  0  0  0  0  0  0  0  0  0  0  0
   16.1408  -13.1091  -14.5303 O   0  0  0  0  0  0  0  0  0  0  0  0
   18.1467  -10.9305  -17.3030 C   0  0  0  0  0  0  0  0  0  0  0  0
   19.0184  -10.7861  -18.1970 O   0  0  0  0  0  0  0  0  0  0  0  0
   15.5549  -15.3041  -14.6317 O   0  0  0  0  0  0  0  0  0  0  0  0
   17.7940   -7.7840  -14.4963 O   0  0  0  0  0  0  0  0  0  0  0  0
   18.1102   -7.4835  -15.8211 C   0  0  0  0  0  0  0  0  0  0  0  0
   18.7590   -8.6709  -16.5231 C   0  0  2  0  0  0  0  0  0  0  0  0
   17.9705   -9.8747  -16.3723 N   0  0  0  0  0  0  0  0  0  0  0  0
   20.1302   -8.8765  -15.9581 C   0  0  0  0  0  0  0  0  0  0  0  0
   20.4160   -9.8912  -15.2731 O   0  0  0  0  0  0  0  0  0  0  0  0
   21.1738   -7.9343  -16.1694 N   0  0  0  0  0  0  0  0  0  0  0  0
   22.5185   -8.1679  -15.6265 C   0  0  1  0  0  0  0  0  0  0  0  0
   23.0142   -9.4154  -16.3199 C   0  0  0  0  0  0  0  0  0  0  0  0
   24.4407   -9.6435  -16.0485 C   0  0  0  0  0  0  0  0  0  0  0  0
   24.8220  -10.3376  -14.9255 C   0  0  0  0  0  0  0  0  0  0  0  0
   26.1742  -10.5624  -14.6594 C   0  0  0  0  0  0  0  0  0  0  0  0
   27.1191  -10.0772  -15.5405 C   0  0  0  0  0  0  0  0  0  0  0  0
   26.7256   -9.3757  -16.6745 C   0  0  0  0  0  0  0  0  0  0  0  0
   25.3918   -9.1534  -16.9380 C   0  0  0  0  0  0  0  0  0  0  0  0
   23.3557   -6.9861  -15.8343 C   0  0  0  0  0  0  0  0  0  0  0  0
   23.1334   -6.0843  -16.8638 O   0  0  0  0  0  0  0  0  0  0  0  0
   24.3181   -6.7682  -15.0565 O   0  0  0  0  0  0  0  0  0  0  0  0
  2  1  1  6
  2  7  1  0
  3  2  1  0
  4  3  1  0
  4  5  1  0
  5  6  2  0
  5  9  1  0
  7  8  2  0
  7 13  1  0
 10 11  1  0
 12 14  1  0
 12 11  1  1
 13 12  1  0
 14 15  2  0
 16 17  1  0
 16 14  1  0
 17 18  1  6
 18 19  1  0
 19 20  2  0
 20 21  1  0
 22 21  2  0
 23 22  1  0
 24 23  2  0
 24 19  1  0
 25 26  1  0
 25 17  1  0
 27 25  2  0
M  END
$$$$
