FAE.pdb
     RDKit          3D

 26 26  0  0  1  0  0  0  0  0999 V2000
   25.8435  -12.4363  -16.8357 N   0  0  0  0  0  0  0  0  0  0  0  0
   25.7937  -11.1071  -16.3019 C   0  0  1  0  0  0  0  0  0  0  0  0
   26.2567  -10.1050  -17.3531 C   0  0  0  0  0  0  0  0  0  0  0  0
   27.6606  -10.2629  -17.7322 C   0  0  0  0  0  0  0  0  0  0  0  0
   28.0020  -10.9024  -18.9043 C   0  0  0  0  0  0  0  0  0  0  0  0
   29.3245  -11.0550  -19.2729 C   0  0  0  0  0  0  0  0  0  0  0  0
   30.3524  -10.5705  -18.4764 C   0  0  0  0  0  0  0  0  0  0  0  0
   30.0046   -9.9336  -17.3078 C   0  0  0  0  0  0  0  0  0  0  0  0
   28.6768   -9.7763  -16.9313 C   0  0  0  0  0  0  0  0  0  0  0  0
   24.3917  -10.6969  -15.9674 C   0  0  0  0  0  0  0  0  0  0  0  0
   23.4627  -10.8416  -16.7960 O   0  0  0  0  0  0  0  0  0  0  0  0
   22.4959   -9.5420  -12.9070 C   0  0  0  0  0  0  0  0  0  0  0  0
   22.7119   -9.7598  -14.3921 C   0  0  2  0  0  0  0  0  0  0  0  0
   24.0516  -10.1312  -14.7098 N   0  0  0  0  0  0  0  0  0  0  0  0
   22.3036   -8.5327  -15.1396 C   0  0  0  0  0  0  0  0  0  0  0  0
   23.1730   -7.6791  -15.4819 O   0  0  0  0  0  0  0  0  0  0  0  0
   20.9570   -8.2761  -15.4883 N   0  0  0  0  0  0  0  0  0  0  0  0
   20.6288   -6.9999  -16.2013 C   0  0  1  0  0  0  0  0  0  0  0  0
   19.9260   -7.4600  -17.4433 C   0  0  0  0  0  0  0  0  0  0  0  0
   19.3728   -6.4702  -18.3775 C   0  0  0  0  0  0  0  0  0  0  0  0
   18.7428   -6.9098  -19.6098 C   0  0  0  0  0  0  0  0  0  0  0  0
   18.6388   -8.1337  -19.9556 O   0  0  0  0  0  0  0  0  0  0  0  0
   19.7820   -6.1883  -15.3292 C   0  0  0  0  0  0  0  0  0  0  0  0
   19.8030   -4.7902  -15.5043 O   0  0  0  0  0  0  0  0  0  0  0  0
   18.2128   -5.9449  -20.4753 O   0  0  0  0  0  0  0  0  0  0  0  0
   19.0363   -6.6097  -14.4398 O   0  0  0  0  0  0  0  0  0  0  0  0
  2  1  1  6
  3  2  1  0
  3  4  1  0
  4  9  2  0
  5  4  1  0
  5  6  2  0
  6  7  1  0
  7  8  2  0
  9  8  1  0
 10  2  1  0
 10 11  2  0
 13 12  1  1
 13 14  1  0
 13 15  1  0
 14 10  1  0
 15 17  1  0
 16 15  2  0
 17 18  1  0
 18 19  1  6
 19 20  1  0
 20 21  1  0
 21 22  2  0
 21 25  1  0
 23 24  1  0
 23 18  1  0
 26 23  2  0
M  END
$$$$
