FAE.pdb
     RDKit          3D

 26 26  0  0  1  0  0  0  0  0999 V2000
   24.5787  -12.3462  -17.9836 N   0  0  0  0  0  0  0  0  0  0  0  0
   24.2792  -11.8371  -16.6778 C   0  0  1  0  0  0  0  0  0  0  0  0
   25.3938  -10.9076  -16.2119 C   0  0  0  0  0  0  0  0  0  0  0  0
   26.6852  -11.5766  -16.0556 C   0  0  0  0  0  0  0  0  0  0  0  0
   26.7826  -12.7547  -15.3471 C   0  0  0  0  0  0  0  0  0  0  0  0
   27.9967  -13.3958  -15.1953 C   0  0  0  0  0  0  0  0  0  0  0  0
   29.1576  -12.8758  -15.7499 C   0  0  0  0  0  0  0  0  0  0  0  0
   29.0533  -11.6996  -16.4555 C   0  0  0  0  0  0  0  0  0  0  0  0
   27.8356  -11.0499  -16.6125 C   0  0  0  0  0  0  0  0  0  0  0  0
   23.0446  -10.9877  -16.6844 C   0  0  0  0  0  0  0  0  0  0  0  0
   22.7843  -10.2362  -17.6530 O   0  0  0  0  0  0  0  0  0  0  0  0
   19.9028  -10.6996  -14.5988 C   0  0  0  0  0  0  0  0  0  0  0  0
   20.8891  -10.2761  -15.6700 C   0  0  2  0  0  0  0  0  0  0  0  0
   22.1201  -10.9933  -15.6062 N   0  0  0  0  0  0  0  0  0  0  0  0
   21.1208   -8.8033  -15.5787 C   0  0  0  0  0  0  0  0  0  0  0  0
   21.9986   -8.3463  -14.7898 O   0  0  0  0  0  0  0  0  0  0  0  0
   20.3845   -7.8755  -16.3519 N   0  0  0  0  0  0  0  0  0  0  0  0
   20.6970   -6.4165  -16.2154 C   0  0  1  0  0  0  0  0  0  0  0  0
   20.5343   -5.8887  -17.6093 C   0  0  0  0  0  0  0  0  0  0  0  0
   19.2197   -5.4123  -18.0601 C   0  0  0  0  0  0  0  0  0  0  0  0
   19.0322   -5.0008  -19.4400 C   0  0  0  0  0  0  0  0  0  0  0  0
   19.9512   -5.0448  -20.3242 O   0  0  0  0  0  0  0  0  0  0  0  0
   19.7544   -5.8293  -15.2651 C   0  0  0  0  0  0  0  0  0  0  0  0
   20.1043   -4.6061  -14.6592 O   0  0  0  0  0  0  0  0  0  0  0  0
   17.7744   -4.5293  -19.8361 O   0  0  0  0  0  0  0  0  0  0  0  0
   18.6632   -6.3030  -14.9338 O   0  0  0  0  0  0  0  0  0  0  0  0
  2  1  1  6
  3  2  1  0
  3  4  1  0
  4  9  2  0
  5  4  1  0
  5  6  2  0
  6  7  1  0
  7  8  2  0
  9  8  1  0
 10  2  1  0
 10 11  2  0
 13 12  1  1
 13 14  1  0
 13 15  1  0
 14 10  1  0
 15 17  1  0
 16 15  2  0
 17 18  1  0
 18 19  1  6
 19 20  1  0
 20 21  1  0
 21 22  2  0
 21 25  1  0
 23 24  1  0
 23 18  1  0
 26 23  2  0
M  END
$$$$
