FAE.pdb
     RDKit          3D

 26 26  0  0  1  0  0  0  0  0999 V2000
   16.1297  -13.5183    3.5871 N   0  0  0  0  0  0  0  0  0  0  0  0
   16.8805  -14.6778    3.2052 C   0  0  1  0  0  0  0  0  0  0  0  0
   18.3424  -14.3045    2.9881 C   0  0  0  0  0  0  0  0  0  0  0  0
   19.1235  -15.3565    2.3380 C   0  0  0  0  0  0  0  0  0  0  0  0
   18.4952  -16.4277    1.7403 C   0  0  0  0  0  0  0  0  0  0  0  0
   19.2232  -17.4254    1.1218 C   0  0  0  0  0  0  0  0  0  0  0  0
   20.6096  -17.3832    1.0817 C   0  0  0  0  0  0  0  0  0  0  0  0
   21.2303  -16.3115    1.6804 C   0  0  0  0  0  0  0  0  0  0  0  0
   20.5044  -15.3044    2.3038 C   0  0  0  0  0  0  0  0  0  0  0  0
   16.9018  -15.7071    4.2943 C   0  0  0  0  0  0  0  0  0  0  0  0
   17.1897  -15.3928    5.4728 O   0  0  0  0  0  0  0  0  0  0  0  0
   15.7131  -19.2494    4.7489 C   0  0  0  0  0  0  0  0  0  0  0  0
   16.5458  -18.0319    5.1007 C   0  0  2  0  0  0  0  0  0  0  0  0
   16.5997  -17.0726    4.0467 N   0  0  0  0  0  0  0  0  0  0  0  0
   17.9176  -18.4661    5.5017 C   0  0  0  0  0  0  0  0  0  0  0  0
   18.8375  -18.5436    4.6361 O   0  0  0  0  0  0  0  0  0  0  0  0
   18.2407  -18.8037    6.8367 N   0  0  0  0  0  0  0  0  0  0  0  0
   19.6200  -19.3048    7.1387 C   0  0  1  0  0  0  0  0  0  0  0  0
   20.0773  -18.4245    8.2629 C   0  0  0  0  0  0  0  0  0  0  0  0
   21.3831  -18.6638    8.8921 C   0  0  0  0  0  0  0  0  0  0  0  0
   21.8285  -17.8149    9.9828 C   0  0  0  0  0  0  0  0  0  0  0  0
   22.1026  -16.5758    9.8505 O   0  0  0  0  0  0  0  0  0  0  0  0
   19.5273  -20.7145    7.5142 C   0  0  0  0  0  0  0  0  0  0  0  0
   20.6680  -21.5217    7.3331 O   0  0  0  0  0  0  0  0  0  0  0  0
   21.9662  -18.3761   11.2584 O   0  0  0  0  0  0  0  0  0  0  0  0
   18.5348  -21.2800    7.9829 O   0  0  0  0  0  0  0  0  0  0  0  0
  2  1  1  1
  3  2  1  0
  3  4  1  0
  4  9  2  0
  5  4  1  0
  5  6  2  0
  6  7  1  0
  7  8  2  0
  9  8  1  0
 10  2  1  0
 10 11  2  0
 13 12  1  6
 13 14  1  0
 13 15  1  0
 14 10  1  0
 15 17  1  0
 16 15  2  0
 17 18  1  0
 18 19  1  1
 19 20  1  0
 20 21  1  0
 21 22  2  0
 21 25  1  0
 23 24  1  0
 23 18  1  0
 26 23  2  0
M  END
$$$$
