FAE.pdb
     RDKit          3D

 26 26  0  0  1  0  0  0  0  0999 V2000
   21.4394  -14.4465  -19.5458 N   0  0  0  0  0  0  0  0  0  0  0  0
   20.4997  -14.0353  -18.5448 C   0  0  1  0  0  0  0  0  0  0  0  0
   20.9095  -14.5900  -17.1854 C   0  0  0  0  0  0  0  0  0  0  0  0
   20.7779  -16.0432  -17.0837 C   0  0  0  0  0  0  0  0  0  0  0  0
   19.6021  -16.6110  -16.6426 C   0  0  0  0  0  0  0  0  0  0  0  0
   19.4665  -17.9822  -16.5449 C   0  0  0  0  0  0  0  0  0  0  0  0
   20.5081  -18.8330  -16.8866 C   0  0  0  0  0  0  0  0  0  0  0  0
   21.6789  -18.2597  -17.3257 C   0  0  0  0  0  0  0  0  0  0  0  0
   21.8220  -16.8816  -17.4269 C   0  0  0  0  0  0  0  0  0  0  0  0
   20.4932  -12.5470  -18.3694 C   0  0  0  0  0  0  0  0  0  0  0  0
   21.5476  -11.8797  -18.4856 O   0  0  0  0  0  0  0  0  0  0  0  0
   17.9220   -9.8405  -18.4528 C   0  0  0  0  0  0  0  0  0  0  0  0
   19.2734  -10.4032  -18.0570 C   0  0  2  0  0  0  0  0  0  0  0  0
   19.3058  -11.8289  -18.0669 N   0  0  0  0  0  0  0  0  0  0  0  0
   19.6629   -9.8670  -16.7184 C   0  0  0  0  0  0  0  0  0  0  0  0
   19.4225  -10.5365  -15.6717 O   0  0  0  0  0  0  0  0  0  0  0  0
   20.3021   -8.6144  -16.5655 N   0  0  0  0  0  0  0  0  0  0  0  0
   20.6627   -8.1540  -15.1861 C   0  0  1  0  0  0  0  0  0  0  0  0
   21.4961   -6.9314  -15.4285 C   0  0  0  0  0  0  0  0  0  0  0  0
   21.9281   -6.1061  -14.2924 C   0  0  0  0  0  0  0  0  0  0  0  0
   22.5436   -4.8124  -14.5292 C   0  0  0  0  0  0  0  0  0  0  0  0
   22.8795   -4.3878  -15.6847 O   0  0  0  0  0  0  0  0  0  0  0  0
   19.4282   -7.8723  -14.4558 C   0  0  0  0  0  0  0  0  0  0  0  0
   19.4082   -8.1288  -13.0704 O   0  0  0  0  0  0  0  0  0  0  0  0
   22.7851   -3.9723  -13.4351 O   0  0  0  0  0  0  0  0  0  0  0  0
   18.3832   -7.4237  -14.9369 O   0  0  0  0  0  0  0  0  0  0  0  0
  2  1  1  6
  3  2  1  0
  3  4  1  0
  4  9  2  0
  5  4  1  0
  5  6  2  0
  6  7  1  0
  7  8  2  0
  9  8  1  0
 10  2  1  0
 10 11  2  0
 13 12  1  1
 13 14  1  0
 13 15  1  0
 14 10  1  0
 15 17  1  0
 16 15  2  0
 17 18  1  0
 18 19  1  6
 19 20  1  0
 20 21  1  0
 21 22  2  0
 21 25  1  0
 23 24  1  0
 23 18  1  0
 26 23  2  0
M  END
$$$$
