FAE.pdb
     RDKit          3D

 26 26  0  0  1  0  0  0  0  0999 V2000
   24.3224  -12.6744  -16.2327 N   0  0  0  0  0  0  0  0  0  0  0  0
   24.3213  -11.3074  -15.8022 C   0  0  1  0  0  0  0  0  0  0  0  0
   25.0741  -10.4433  -16.8073 C   0  0  0  0  0  0  0  0  0  0  0  0
   26.5059  -10.7353  -16.8717 C   0  0  0  0  0  0  0  0  0  0  0  0
   27.3571  -10.2886  -15.8842 C   0  0  0  0  0  0  0  0  0  0  0  0
   28.7105  -10.5606  -15.9341 C   0  0  0  0  0  0  0  0  0  0  0  0
   29.2580  -11.2914  -16.9791 C   0  0  0  0  0  0  0  0  0  0  0  0
   28.4028  -11.7340  -17.9614 C   0  0  0  0  0  0  0  0  0  0  0  0
   27.0408  -11.4645  -17.9172 C   0  0  0  0  0  0  0  0  0  0  0  0
   22.9349  -10.7395  -15.7657 C   0  0  0  0  0  0  0  0  0  0  0  0
   22.0538  -11.1382  -16.5627 O   0  0  0  0  0  0  0  0  0  0  0  0
   20.5564   -9.2650  -13.4962 C   0  0  0  0  0  0  0  0  0  0  0  0
   21.2500   -9.1625  -14.8408 C   0  0  2  0  0  0  0  0  0  0  0  0
   22.5565   -9.7340  -14.8367 N   0  0  0  0  0  0  0  0  0  0  0  0
   21.2910   -7.7329  -15.2718 C   0  0  0  0  0  0  0  0  0  0  0  0
   20.2145   -7.0878  -15.4351 O   0  0  0  0  0  0  0  0  0  0  0  0
   22.5079   -7.0533  -15.5124 N   0  0  0  0  0  0  0  0  0  0  0  0
   22.4574   -5.6368  -15.9980 C   0  0  1  0  0  0  0  0  0  0  0  0
   22.1970   -4.8452  -14.7516 C   0  0  0  0  0  0  0  0  0  0  0  0
   21.2336   -3.7364  -14.7796 C   0  0  0  0  0  0  0  0  0  0  0  0
   19.9645   -3.8613  -14.0851 C   0  0  0  0  0  0  0  0  0  0  0  0
   19.6334   -4.8794  -13.3908 O   0  0  0  0  0  0  0  0  0  0  0  0
   23.7389   -5.3173  -16.6243 C   0  0  0  0  0  0  0  0  0  0  0  0
   24.8722   -6.0502  -16.2189 O   0  0  0  0  0  0  0  0  0  0  0  0
   19.0439   -2.8096  -14.1724 O   0  0  0  0  0  0  0  0  0  0  0  0
   23.9334   -4.4566  -17.4881 O   0  0  0  0  0  0  0  0  0  0  0  0
  2  1  1  6
  3  2  1  0
  3  4  1  0
  4  9  2  0
  5  4  1  0
  5  6  2  0
  6  7  1  0
  7  8  2  0
  9  8  1  0
 10  2  1  0
 10 11  2  0
 13 12  1  1
 13 14  1  0
 13 15  1  0
 14 10  1  0
 15 17  1  0
 16 15  2  0
 17 18  1  0
 18 19  1  1
 19 20  1  0
 20 21  1  0
 21 22  2  0
 21 25  1  0
 23 24  1  0
 23 18  1  0
 26 23  2  0
M  END
$$$$
