FAE.pdb
     RDKit          3D

 26 26  0  0  1  0  0  0  0  0999 V2000
   28.4647  -21.5286   -8.7829 N   0  0  0  0  0  0  0  0  0  0  0  0
   27.1014  -21.1395   -8.9927 C   0  0  1  0  0  0  0  0  0  0  0  0
   26.7785  -19.9021   -8.1633 C   0  0  0  0  0  0  0  0  0  0  0  0
   27.3984  -19.9088   -6.8385 C   0  0  0  0  0  0  0  0  0  0  0  0
   26.9461  -20.7649   -5.8578 C   0  0  0  0  0  0  0  0  0  0  0  0
   27.5258  -20.7810   -4.6040 C   0  0  0  0  0  0  0  0  0  0  0  0
   28.5812  -19.9365   -4.2900 C   0  0  0  0  0  0  0  0  0  0  0  0
   29.0275  -19.0844   -5.2734 C   0  0  0  0  0  0  0  0  0  0  0  0
   28.4495  -19.0633   -6.5364 C   0  0  0  0  0  0  0  0  0  0  0  0
   26.8552  -20.7285  -10.4127 C   0  0  0  0  0  0  0  0  0  0  0  0
   27.7943  -20.3303  -11.1406 O   0  0  0  0  0  0  0  0  0  0  0  0
   26.0844  -22.0526  -13.0203 C   0  0  0  0  0  0  0  0  0  0  0  0
   25.3763  -20.8601  -12.4070 C   0  0  2  0  0  0  0  0  0  0  0  0
   25.5607  -20.7703  -10.9958 N   0  0  0  0  0  0  0  0  0  0  0  0
   23.9249  -20.9095  -12.7565 C   0  0  0  0  0  0  0  0  0  0  0  0
   23.5663  -21.0329  -13.9639 O   0  0  0  0  0  0  0  0  0  0  0  0
   22.9103  -20.8210  -11.7749 N   0  0  0  0  0  0  0  0  0  0  0  0
   21.4790  -20.9040  -12.2098 C   0  0  1  0  0  0  0  0  0  0  0  0
   20.7692  -21.4163  -10.9925 C   0  0  0  0  0  0  0  0  0  0  0  0
   19.3164  -21.6315  -11.0316 C   0  0  0  0  0  0  0  0  0  0  0  0
   18.7775  -22.9703  -10.8711 C   0  0  0  0  0  0  0  0  0  0  0  0
   18.6884  -23.5687   -9.7476 O   0  0  0  0  0  0  0  0  0  0  0  0
   21.0401  -19.5689  -12.6114 C   0  0  0  0  0  0  0  0  0  0  0  0
   20.1004  -19.4700  -13.6568 O   0  0  0  0  0  0  0  0  0  0  0  0
   18.3239  -23.6531  -12.0065 O   0  0  0  0  0  0  0  0  0  0  0  0
   21.4143  -18.5001  -12.1191 O   0  0  0  0  0  0  0  0  0  0  0  0
  2  1  1  6
  3  2  1  0
  3  4  1  0
  4  9  2  0
  5  4  1  0
  5  6  2  0
  6  7  1  0
  7  8  2  0
  9  8  1  0
 10  2  1  0
 10 11  2  0
 13 12  1  1
 13 14  1  0
 13 15  1  0
 14 10  1  0
 15 17  1  0
 16 15  2  0
 17 18  1  0
 18 19  1  1
 19 20  1  0
 20 21  1  0
 21 22  2  0
 21 25  1  0
 23 24  1  0
 23 18  1  0
 26 23  2  0
M  END
$$$$
