FAE.pdb
     RDKit          3D

 26 26  0  0  1  0  0  0  0  0999 V2000
   28.7611  -21.1396   -9.0451 N   0  0  0  0  0  0  0  0  0  0  0  0
   27.3471  -20.9462   -8.9135 C   0  0  1  0  0  0  0  0  0  0  0  0
   27.0652  -19.6380   -8.1836 C   0  0  0  0  0  0  0  0  0  0  0  0
   27.5747  -19.6124   -6.8128 C   0  0  0  0  0  0  0  0  0  0  0  0
   26.9939  -20.3909   -5.8350 C   0  0  0  0  0  0  0  0  0  0  0  0
   27.4685  -20.3760   -4.5378 C   0  0  0  0  0  0  0  0  0  0  0  0
   28.5442  -19.5775   -4.1758 C   0  0  0  0  0  0  0  0  0  0  0  0
   29.1189  -18.8028   -5.1565 C   0  0  0  0  0  0  0  0  0  0  0  0
   28.6471  -18.8133   -6.4631 C   0  0  0  0  0  0  0  0  0  0  0  0
   26.6822  -20.7957  -10.2480 C   0  0  0  0  0  0  0  0  0  0  0  0
   27.0950  -19.9573  -11.0830 O   0  0  0  0  0  0  0  0  0  0  0  0
   24.6658  -22.8815  -12.5066 C   0  0  0  0  0  0  0  0  0  0  0  0
   25.0075  -21.5179  -11.9378 C   0  0  2  0  0  0  0  0  0  0  0  0
   25.5653  -21.5869  -10.6271 N   0  0  0  0  0  0  0  0  0  0  0  0
   23.7912  -20.6511  -11.9585 C   0  0  0  0  0  0  0  0  0  0  0  0
   23.1110  -20.4864  -10.9041 O   0  0  0  0  0  0  0  0  0  0  0  0
   23.3555  -19.9923  -13.1319 N   0  0  0  0  0  0  0  0  0  0  0  0
   22.0222  -19.3090  -13.1207 C   0  0  1  0  0  0  0  0  0  0  0  0
   22.0168  -18.5243  -14.3983 C   0  0  0  0  0  0  0  0  0  0  0  0
   20.8374  -17.7261  -14.7592 C   0  0  0  0  0  0  0  0  0  0  0  0
   20.8334  -16.9543  -15.9892 C   0  0  0  0  0  0  0  0  0  0  0  0
   21.8445  -16.8427  -16.7595 O   0  0  0  0  0  0  0  0  0  0  0  0
   20.9794  -20.3321  -13.0705 C   0  0  0  0  0  0  0  0  0  0  0  0
   19.8061  -20.0431  -12.3456 O   0  0  0  0  0  0  0  0  0  0  0  0
   19.6577  -16.2921  -16.3637 O   0  0  0  0  0  0  0  0  0  0  0  0
   21.0216  -21.4426  -13.6087 O   0  0  0  0  0  0  0  0  0  0  0  0
  2  1  1  6
  3  2  1  0
  3  4  1  0
  4  9  2  0
  5  4  1  0
  5  6  2  0
  6  7  1  0
  7  8  2  0
  9  8  1  0
 10  2  1  0
 10 11  2  0
 13 12  1  1
 13 14  1  0
 13 15  1  0
 14 10  1  0
 15 17  1  0
 16 15  2  0
 17 18  1  0
 18 19  1  6
 19 20  1  0
 20 21  1  0
 21 22  2  0
 21 25  1  0
 23 24  1  0
 23 18  1  0
 26 23  2  0
M  END
$$$$
