FAE.pdb
     RDKit          3D

 26 26  0  0  1  0  0  0  0  0999 V2000
   26.0315  -22.4881   -9.6536 N   0  0  0  0  0  0  0  0  0  0  0  0
   25.6533  -21.1869  -10.1204 C   0  0  1  0  0  0  0  0  0  0  0  0
   26.8859  -20.2988  -10.2451 C   0  0  0  0  0  0  0  0  0  0  0  0
   27.4780  -19.9373   -8.9574 C   0  0  0  0  0  0  0  0  0  0  0  0
   26.8802  -18.9919   -8.1522 C   0  0  0  0  0  0  0  0  0  0  0  0
   27.4298  -18.6447   -6.9334 C   0  0  0  0  0  0  0  0  0  0  0  0
   28.6009  -19.2349   -6.4794 C   0  0  0  0  0  0  0  0  0  0  0  0
   29.1924  -20.1774   -7.2881 C   0  0  0  0  0  0  0  0  0  0  0  0
   28.6449  -20.5317   -8.5147 C   0  0  0  0  0  0  0  0  0  0  0  0
   25.0740  -21.2409  -11.5015 C   0  0  0  0  0  0  0  0  0  0  0  0
   25.7145  -21.7522  -12.4496 O   0  0  0  0  0  0  0  0  0  0  0  0
   21.7656  -20.4217  -13.1578 C   0  0  0  0  0  0  0  0  0  0  0  0
   23.2368  -20.7866  -13.1139 C   0  0  2  0  0  0  0  0  0  0  0  0
   23.7861  -20.7216  -11.7994 N   0  0  0  0  0  0  0  0  0  0  0  0
   23.9952  -19.9101  -14.0562 C   0  0  0  0  0  0  0  0  0  0  0  0
   24.4845  -18.8156  -13.6509 O   0  0  0  0  0  0  0  0  0  0  0  0
   24.1939  -20.2569  -15.4130 N   0  0  0  0  0  0  0  0  0  0  0  0
   25.0013  -19.3394  -16.2796 C   0  0  1  0  0  0  0  0  0  0  0  0
   26.4182  -19.7301  -15.9839 C   0  0  0  0  0  0  0  0  0  0  0  0
   26.9425  -21.0077  -16.4853 C   0  0  0  0  0  0  0  0  0  0  0  0
   27.5994  -21.9288  -15.5750 C   0  0  0  0  0  0  0  0  0  0  0  0
   28.0135  -21.6028  -14.4129 O   0  0  0  0  0  0  0  0  0  0  0  0
   24.6215  -19.5668  -17.6727 C   0  0  0  0  0  0  0  0  0  0  0  0
   23.8379  -20.7006  -17.9661 O   0  0  0  0  0  0  0  0  0  0  0  0
   27.7929  -23.2543  -15.9833 O   0  0  0  0  0  0  0  0  0  0  0  0
   24.9212  -18.8540  -18.6354 O   0  0  0  0  0  0  0  0  0  0  0  0
  2  1  1  6
  3  2  1  0
  3  4  1  0
  4  9  2  0
  5  4  1  0
  5  6  2  0
  6  7  1  0
  7  8  2  0
  9  8  1  0
 10  2  1  0
 10 11  2  0
 13 12  1  1
 13 14  1  0
 13 15  1  0
 14 10  1  0
 15 17  1  0
 16 15  2  0
 17 18  1  0
 18 19  1  6
 19 20  1  0
 20 21  1  0
 21 22  2  0
 21 25  1  0
 23 24  1  0
 23 18  1  0
 26 23  2  0
M  END
$$$$
