KDK.pdb
     RDKit          3D

 27 26  0  0  1  0  0  0  0  0999 V2000
   17.2148  -12.7990  -15.3978 N   0  0  0  0  0  0  0  0  0  0  0  0
   16.6156  -11.4804  -15.2179 C   0  0  1  0  0  0  0  0  0  0  0  0
   15.1164  -11.6356  -15.1252 C   0  0  0  0  0  0  0  0  0  0  0  0
   14.5863  -12.2503  -16.3774 C   0  0  0  0  0  0  0  0  0  0  0  0
   13.5613  -13.3467  -16.1397 C   0  0  0  0  0  0  0  0  0  0  0  0
   13.0313  -13.8249  -17.4696 C   0  0  0  0  0  0  0  0  0  0  0  0
   12.7831  -12.6672  -18.3334 N   0  0  0  0  0  0  0  0  0  0  0  0
   17.1946  -10.7311  -14.0954 C   0  0  0  0  0  0  0  0  0  0  0  0
   17.4734  -11.3461  -13.0403 O   0  0  0  0  0  0  0  0  0  0  0  0
   17.4668   -9.3209  -14.1165 N   0  0  0  0  0  0  0  0  0  0  0  0
   18.1420   -8.6517  -13.0414 C   0  0  1  0  0  0  0  0  0  0  0  0
   19.2670   -7.7544  -13.4305 C   0  0  0  0  0  0  0  0  0  0  0  0
   19.8770   -7.0031  -12.3186 C   0  0  0  0  0  0  0  0  0  0  0  0
   19.4516   -5.9066  -11.8779 O   0  0  0  0  0  0  0  0  0  0  0  0
   17.0898   -7.8787  -12.2752 C   0  0  0  0  0  0  0  0  0  0  0  0
   16.3850   -7.0144  -12.8444 O   0  0  0  0  0  0  0  0  0  0  0  0
   21.0231   -7.4910  -11.6595 O   0  0  0  0  0  0  0  0  0  0  0  0
   16.8629   -8.0995  -10.8956 N   0  0  0  0  0  0  0  0  0  0  0  0
   15.8362   -7.3226  -10.2012 C   0  0  1  0  0  0  0  0  0  0  0  0
   14.9020   -8.2426   -9.4453 C   0  0  0  0  0  0  0  0  0  0  0  0
   13.8106   -7.5292   -8.7002 C   0  0  0  0  0  0  0  0  0  0  0  0
   12.9176   -8.5209   -7.9866 C   0  0  0  0  0  0  0  0  0  0  0  0
   11.8512   -7.8489   -7.1666 C   0  0  0  0  0  0  0  0  0  0  0  0
   11.0462   -8.7893   -6.4004 N   0  0  0  0  0  0  0  0  0  0  0  0
   16.5263   -6.4550   -9.2317 C   0  0  0  0  0  0  0  0  0  0  0  0
   15.9968   -5.5089   -8.6143 O   0  0  0  0  0  0  0  0  0  0  0  0
   17.8708   -6.6827   -8.9626 O   0  0  0  0  0  0  0  0  0  0  0  0
  2  8  1  0
  2  1  1  1
  3  2  1  0
  4  3  1  0
  5  6  1  0
  5  4  1  0
  7  6  1  0
  8  9  2  0
 10 11  1  0
 10  8  1  0
 12 13  1  0
 11 12  1  6
 13 14  2  0
 15 16  2  0
 15 11  1  0
 17 13  1  0
 18 15  1  0
 19 25  1  0
 19 18  1  0
 19 20  1  1
 21 20  1  0
 22 21  1  0
 23 22  1  0
 23 24  1  0
 25 27  1  0
 26 25  2  0
M  END
$$$$
