KDK.pdb
     RDKit          3D

 27 26  0  0  1  0  0  0  0  0999 V2000
   20.6574  -12.8951  -16.8303 N   0  0  0  0  0  0  0  0  0  0  0  0
   19.7031  -11.8469  -17.1778 C   0  0  1  0  0  0  0  0  0  0  0  0
   18.3229  -12.4537  -17.2619 C   0  0  0  0  0  0  0  0  0  0  0  0
   18.4210  -13.9398  -17.3548 C   0  0  0  0  0  0  0  0  0  0  0  0
   17.0874  -14.6325  -17.5803 C   0  0  0  0  0  0  0  0  0  0  0  0
   17.3192  -16.1174  -17.7210 C   0  0  0  0  0  0  0  0  0  0  0  0
   16.0255  -16.8055  -17.7552 N   0  0  0  0  0  0  0  0  0  0  0  0
   19.7746  -10.6820  -16.2863 C   0  0  0  0  0  0  0  0  0  0  0  0
   19.4008  -10.8092  -15.0975 O   0  0  0  0  0  0  0  0  0  0  0  0
   20.2463   -9.3848  -16.6837 N   0  0  0  0  0  0  0  0  0  0  0  0
   20.3370   -8.2850  -15.7662 C   0  0  1  0  0  0  0  0  0  0  0  0
   21.7141   -7.8555  -15.3907 C   0  0  0  0  0  0  0  0  0  0  0  0
   22.4648   -8.8215  -14.5684 C   0  0  0  0  0  0  0  0  0  0  0  0
   22.1085   -9.2233  -13.4330 O   0  0  0  0  0  0  0  0  0  0  0  0
   19.5739   -7.1329  -16.3846 C   0  0  0  0  0  0  0  0  0  0  0  0
   19.8107   -6.7598  -17.5561 O   0  0  0  0  0  0  0  0  0  0  0  0
   23.6786   -9.3714  -15.0268 O   0  0  0  0  0  0  0  0  0  0  0  0
   18.5709   -6.4365  -15.6687 N   0  0  0  0  0  0  0  0  0  0  0  0
   17.8670   -5.3266  -16.3109 C   0  0  1  0  0  0  0  0  0  0  0  0
   16.5815   -5.0215  -15.5726 C   0  0  0  0  0  0  0  0  0  0  0  0
   15.7828   -3.8998  -16.1719 C   0  0  0  0  0  0  0  0  0  0  0  0
   14.4917   -3.6992  -15.4085 C   0  0  0  0  0  0  0  0  0  0  0  0
   13.6293   -2.6233  -16.0086 C   0  0  0  0  0  0  0  0  0  0  0  0
   12.4553   -2.3204  -15.2028 N   0  0  0  0  0  0  0  0  0  0  0  0
   18.7455   -4.1473  -16.2304 C   0  0  0  0  0  0  0  0  0  0  0  0
   19.4621   -3.8541  -15.2520 O   0  0  0  0  0  0  0  0  0  0  0  0
   18.8021   -3.2753  -17.3114 O   0  0  0  0  0  0  0  0  0  0  0  0
  2  8  1  0
  2  1  1  1
  3  2  1  0
  4  3  1  0
  5  6  1  0
  5  4  1  0
  7  6  1  0
  8  9  2  0
 10 11  1  0
 10  8  1  0
 12 13  1  0
 11 12  1  6
 13 14  2  0
 15 16  2  0
 15 11  1  0
 17 13  1  0
 18 15  1  0
 19 25  1  0
 19 18  1  0
 19 20  1  1
 21 20  1  0
 22 21  1  0
 23 22  1  0
 23 24  1  0
 25 27  1  0
 26 25  2  0
M  END
$$$$
