KDK.pdb
     RDKit          3D

 27 26  0  0  1  0  0  0  0  0999 V2000
   24.0852  -16.6534  -19.1644 N   0  0  0  0  0  0  0  0  0  0  0  0
   22.6991  -16.4161  -18.7740 C   0  0  1  0  0  0  0  0  0  0  0  0
   22.2477  -17.5409  -17.8734 C   0  0  0  0  0  0  0  0  0  0  0  0
   22.3700  -18.8474  -18.5841 C   0  0  0  0  0  0  0  0  0  0  0  0
   21.3593  -19.0372  -19.7029 C   0  0  0  0  0  0  0  0  0  0  0  0
   21.5878  -20.3801  -20.3530 C   0  0  0  0  0  0  0  0  0  0  0  0
   21.4161  -21.4357  -19.3508 N   0  0  0  0  0  0  0  0  0  0  0  0
   22.4817  -15.0835  -18.1963 C   0  0  0  0  0  0  0  0  0  0  0  0
   22.0603  -14.9983  -17.0197 O   0  0  0  0  0  0  0  0  0  0  0  0
   22.7174  -13.8497  -18.8928 N   0  0  0  0  0  0  0  0  0  0  0  0
   22.5515  -12.5691  -18.2666 C   0  0  1  0  0  0  0  0  0  0  0  0
   23.2303  -11.4206  -18.9315 C   0  0  0  0  0  0  0  0  0  0  0  0
   23.0411  -10.1174  -18.2690 C   0  0  0  0  0  0  0  0  0  0  0  0
   22.9446   -9.9536  -17.0275 O   0  0  0  0  0  0  0  0  0  0  0  0
   21.0619  -12.3179  -18.1680 C   0  0  0  0  0  0  0  0  0  0  0  0
   20.3527  -12.2437  -19.1973 O   0  0  0  0  0  0  0  0  0  0  0  0
   22.9512   -8.9298  -19.0223 O   0  0  0  0  0  0  0  0  0  0  0  0
   20.4164  -12.1573  -16.9186 N   0  0  0  0  0  0  0  0  0  0  0  0
   18.9735  -11.9198  -16.8787 C   0  0  1  0  0  0  0  0  0  0  0  0
   18.3153  -12.8465  -15.8795 C   0  0  0  0  0  0  0  0  0  0  0  0
   16.8217  -12.7076  -15.8073 C   0  0  0  0  0  0  0  0  0  0  0  0
   16.2495  -13.6493  -14.7701 C   0  0  0  0  0  0  0  0  0  0  0  0
   14.7504  -13.5679  -14.6834 C   0  0  0  0  0  0  0  0  0  0  0  0
   14.1668  -14.6483  -13.9014 N   0  0  0  0  0  0  0  0  0  0  0  0
   18.7718  -10.5304  -16.4335 C   0  0  0  0  0  0  0  0  0  0  0  0
   19.5772   -9.8771  -15.7399 O   0  0  0  0  0  0  0  0  0  0  0  0
   17.6046   -9.8697  -16.7982 O   0  0  0  0  0  0  0  0  0  0  0  0
  2  8  1  0
  2  1  1  1
  3  2  1  0
  4  3  1  0
  5  6  1  0
  5  4  1  0
  7  6  1  0
  8  9  2  0
 10 11  1  0
 10  8  1  0
 12 13  1  0
 11 12  1  6
 13 14  2  0
 15 16  2  0
 15 11  1  0
 17 13  1  0
 18 15  1  0
 19 25  1  0
 19 18  1  0
 19 20  1  1
 21 20  1  0
 22 21  1  0
 23 22  1  0
 23 24  1  0
 25 27  1  0
 26 25  2  0
M  END
$$$$
