KDK.pdb
     RDKit          3D

 27 26  0  0  1  0  0  0  0  0999 V2000
   15.8302  -12.5046  -13.7202 N   0  0  0  0  0  0  0  0  0  0  0  0
   15.1082  -11.2579  -13.4864 C   0  0  1  0  0  0  0  0  0  0  0  0
   13.8128  -11.5714  -12.7765 C   0  0  0  0  0  0  0  0  0  0  0  0
   12.9552  -12.4403  -13.6346 C   0  0  0  0  0  0  0  0  0  0  0  0
   11.6124  -12.7869  -13.0133 C   0  0  0  0  0  0  0  0  0  0  0  0
   10.8198  -13.6263  -13.9855 C   0  0  0  0  0  0  0  0  0  0  0  0
    9.5803  -14.0688  -13.3405 N   0  0  0  0  0  0  0  0  0  0  0  0
   15.9173  -10.2415  -12.8015 C   0  0  0  0  0  0  0  0  0  0  0  0
   16.5592  -10.5718  -11.7778 O   0  0  0  0  0  0  0  0  0  0  0  0
   16.0268   -8.8729  -13.2235 N   0  0  0  0  0  0  0  0  0  0  0  0
   16.8318   -7.9139  -12.5222 C   0  0  1  0  0  0  0  0  0  0  0  0
   17.8732   -7.2162  -13.3288 C   0  0  0  0  0  0  0  0  0  0  0  0
   18.6561   -6.2060  -12.5944 C   0  0  0  0  0  0  0  0  0  0  0  0
   19.5235   -5.4589  -13.1112 O   0  0  0  0  0  0  0  0  0  0  0  0
   15.8813   -6.9105  -11.9043 C   0  0  0  0  0  0  0  0  0  0  0  0
   15.0622   -6.2806  -12.6114 O   0  0  0  0  0  0  0  0  0  0  0  0
   18.4709   -6.0135  -11.2107 O   0  0  0  0  0  0  0  0  0  0  0  0
   15.8812   -6.6456  -10.5138 N   0  0  0  0  0  0  0  0  0  0  0  0
   14.9578   -5.6495   -9.9706 C   0  0  1  0  0  0  0  0  0  0  0  0
   14.5339   -6.0342   -8.5696 C   0  0  0  0  0  0  0  0  0  0  0  0
   13.5529   -5.0845   -7.9444 C   0  0  0  0  0  0  0  0  0  0  0  0
   13.2431   -5.4994   -6.5225 C   0  0  0  0  0  0  0  0  0  0  0  0
   12.1581   -4.6631   -5.9021 C   0  0  0  0  0  0  0  0  0  0  0  0
   11.7791   -5.1190   -4.5725 N   0  0  0  0  0  0  0  0  0  0  0  0
   15.6843   -4.3700   -9.9062 C   0  0  0  0  0  0  0  0  0  0  0  0
   16.9249   -4.2480   -9.9572 O   0  0  0  0  0  0  0  0  0  0  0  0
   14.9599   -3.1906   -9.7789 O   0  0  0  0  0  0  0  0  0  0  0  0
  2  8  1  0
  2  1  1  1
  3  2  1  0
  4  3  1  0
  5  6  1  0
  5  4  1  0
  7  6  1  0
  8  9  2  0
 10 11  1  0
 10  8  1  0
 12 13  1  0
 11 12  1  6
 13 14  2  0
 15 16  2  0
 15 11  1  0
 17 13  1  0
 18 15  1  0
 19 25  1  0
 19 18  1  0
 19 20  1  1
 21 20  1  0
 22 21  1  0
 23 22  1  0
 23 24  1  0
 25 27  1  0
 26 25  2  0
M  END
$$$$
