KDK.pdb
     RDKit          3D

 27 26  0  0  1  0  0  0  0  0999 V2000
   23.2374  -14.9209  -17.6237 N   0  0  0  0  0  0  0  0  0  0  0  0
   22.1691  -15.8438  -17.9944 C   0  0  1  0  0  0  0  0  0  0  0  0
   22.1373  -15.9725  -19.4986 C   0  0  0  0  0  0  0  0  0  0  0  0
   21.8700  -14.6430  -20.1214 C   0  0  0  0  0  0  0  0  0  0  0  0
   20.5086  -14.0631  -19.7758 C   0  0  0  0  0  0  0  0  0  0  0  0
   20.2974  -12.7934  -20.5642 C   0  0  0  0  0  0  0  0  0  0  0  0
   19.0802  -12.1289  -20.0898 N   0  0  0  0  0  0  0  0  0  0  0  0
   22.2548  -17.1352  -17.3004 C   0  0  0  0  0  0  0  0  0  0  0  0
   21.4431  -18.0388  -17.6067 O   0  0  0  0  0  0  0  0  0  0  0  0
   23.2142  -17.4434  -16.2769 N   0  0  0  0  0  0  0  0  0  0  0  0
   23.2933  -18.7374  -15.6613 C   0  0  1  0  0  0  0  0  0  0  0  0
   24.6101  -19.1009  -15.0647 C   0  0  0  0  0  0  0  0  0  0  0  0
   25.6569  -19.4595  -16.0386 C   0  0  0  0  0  0  0  0  0  0  0  0
   26.1799  -18.6596  -16.8535 O   0  0  0  0  0  0  0  0  0  0  0  0
   22.2040  -18.7916  -14.6112 C   0  0  0  0  0  0  0  0  0  0  0  0
   22.1350  -17.9243  -13.7108 O   0  0  0  0  0  0  0  0  0  0  0  0
   26.1505  -20.7772  -16.1169 O   0  0  0  0  0  0  0  0  0  0  0  0
   21.2284  -19.8171  -14.6049 N   0  0  0  0  0  0  0  0  0  0  0  0
   20.1999  -19.8261  -13.5647 C   0  0  1  0  0  0  0  0  0  0  0  0
   19.0359  -20.6982  -13.9835 C   0  0  0  0  0  0  0  0  0  0  0  0
   17.9191  -20.7514  -12.9809 C   0  0  0  0  0  0  0  0  0  0  0  0
   16.8273  -21.6883  -13.4502 C   0  0  0  0  0  0  0  0  0  0  0  0
   15.6213  -21.6624  -12.5522 C   0  0  0  0  0  0  0  0  0  0  0  0
   14.5270  -22.4856  -13.0464 N   0  0  0  0  0  0  0  0  0  0  0  0
   20.8079  -20.4046  -12.3544 C   0  0  0  0  0  0  0  0  0  0  0  0
   20.4503  -20.1562  -11.1852 O   0  0  0  0  0  0  0  0  0  0  0  0
   21.8626  -21.2992  -12.4930 O   0  0  0  0  0  0  0  0  0  0  0  0
  2  8  1  0
  2  1  1  6
  3  2  1  0
  4  3  1  0
  5  6  1  0
  5  4  1  0
  7  6  1  0
  8  9  2  0
 10 11  1  0
 10  8  1  0
 12 13  1  0
 11 12  1  1
 13 14  2  0
 15 16  2  0
 15 11  1  0
 17 13  1  0
 18 15  1  0
 19 25  1  0
 19 18  1  0
 19 20  1  6
 21 20  1  0
 22 21  1  0
 23 22  1  0
 23 24  1  0
 25 27  1  0
 26 25  2  0
M  END
$$$$
