KDK.pdb
     RDKit          3D

 27 26  0  0  1  0  0  0  0  0999 V2000
   19.0528  -13.4498  -15.9065 N   0  0  0  0  0  0  0  0  0  0  0  0
   19.8406  -12.4685  -16.6458 C   0  0  1  0  0  0  0  0  0  0  0  0
   19.5110  -12.5866  -18.1147 C   0  0  0  0  0  0  0  0  0  0  0  0
   19.8443  -13.9556  -18.6064 C   0  0  0  0  0  0  0  0  0  0  0  0
   19.5967  -14.1539  -20.0925 C   0  0  0  0  0  0  0  0  0  0  0  0
   19.9552  -15.5710  -20.4687 C   0  0  0  0  0  0  0  0  0  0  0  0
   19.8432  -15.7264  -21.9217 N   0  0  0  0  0  0  0  0  0  0  0  0
   19.6989  -11.1029  -16.1244 C   0  0  0  0  0  0  0  0  0  0  0  0
   18.5495  -10.6181  -16.0093 O   0  0  0  0  0  0  0  0  0  0  0  0
   20.7989  -10.2664  -15.7329 N   0  0  0  0  0  0  0  0  0  0  0  0
   20.6239   -8.8939  -15.3520 C   0  0  1  0  0  0  0  0  0  0  0  0
   21.4129   -8.4341  -14.1738 C   0  0  0  0  0  0  0  0  0  0  0  0
   21.1997   -7.0262  -13.7929 C   0  0  0  0  0  0  0  0  0  0  0  0
   20.2767   -6.6197  -13.0444 O   0  0  0  0  0  0  0  0  0  0  0  0
   20.9526   -8.0549  -16.5685 C   0  0  0  0  0  0  0  0  0  0  0  0
   21.9757   -8.2865  -17.2522 O   0  0  0  0  0  0  0  0  0  0  0  0
   22.0537   -6.0113  -14.2689 O   0  0  0  0  0  0  0  0  0  0  0  0
   20.1237   -6.9830  -16.9781 N   0  0  0  0  0  0  0  0  0  0  0  0
   20.5126   -6.1723  -18.1318 C   0  0  1  0  0  0  0  0  0  0  0  0
   19.3739   -6.0913  -19.1255 C   0  0  0  0  0  0  0  0  0  0  0  0
   19.6556   -5.2109  -20.3090 C   0  0  0  0  0  0  0  0  0  0  0  0
   18.4750   -5.1982  -21.2556 C   0  0  0  0  0  0  0  0  0  0  0  0
   18.7573   -4.4309  -22.5178 C   0  0  0  0  0  0  0  0  0  0  0  0
   17.6067   -4.3553  -23.4064 N   0  0  0  0  0  0  0  0  0  0  0  0
   20.7993   -4.8156  -17.6355 C   0  0  0  0  0  0  0  0  0  0  0  0
   20.1827   -4.2461  -16.7124 O   0  0  0  0  0  0  0  0  0  0  0  0
   21.8299   -4.0889  -18.2201 O   0  0  0  0  0  0  0  0  0  0  0  0
  2  8  1  0
  2  1  1  1
  3  2  1  0
  4  3  1  0
  5  6  1  0
  5  4  1  0
  7  6  1  0
  8  9  2  0
 10 11  1  0
 10  8  1  0
 12 13  1  0
 11 12  1  1
 13 14  2  0
 15 16  2  0
 15 11  1  0
 17 13  1  0
 18 15  1  0
 19 25  1  0
 19 18  1  0
 19 20  1  6
 21 20  1  0
 22 21  1  0
 23 22  1  0
 23 24  1  0
 25 27  1  0
 26 25  2  0
M  END
$$$$
