KDK.pdb
     RDKit          3D

 27 26  0  0  1  0  0  0  0  0999 V2000
   25.0349  -23.6027  -16.3029 N   0  0  0  0  0  0  0  0  0  0  0  0
   24.9823  -22.1447  -16.3436 C   0  0  1  0  0  0  0  0  0  0  0  0
   25.4210  -21.6799  -17.7118 C   0  0  0  0  0  0  0  0  0  0  0  0
   26.8745  -21.9567  -17.9057 C   0  0  0  0  0  0  0  0  0  0  0  0
   27.3579  -23.2223  -17.2175 C   0  0  0  0  0  0  0  0  0  0  0  0
   28.8155  -23.4374  -17.5453 C   0  0  0  0  0  0  0  0  0  0  0  0
   29.2987  -24.6247  -16.8348 N   0  0  0  0  0  0  0  0  0  0  0  0
   23.6810  -21.6019  -15.9329 C   0  0  0  0  0  0  0  0  0  0  0  0
   22.7114  -21.7007  -16.7199 O   0  0  0  0  0  0  0  0  0  0  0  0
   23.4338  -20.9524  -14.6759 N   0  0  0  0  0  0  0  0  0  0  0  0
   22.1238  -20.5239  -14.2761 C   0  0  1  0  0  0  0  0  0  0  0  0
   21.9407  -20.2406  -12.8241 C   0  0  0  0  0  0  0  0  0  0  0  0
   20.5527  -19.9599  -12.4149 C   0  0  0  0  0  0  0  0  0  0  0  0
   19.5657  -19.9521  -13.1917 O   0  0  0  0  0  0  0  0  0  0  0  0
   21.7919  -19.2980  -15.1000 C   0  0  0  0  0  0  0  0  0  0  0  0
   22.6520  -18.4128  -15.3111 O   0  0  0  0  0  0  0  0  0  0  0  0
   20.2397  -19.6689  -11.0720 O   0  0  0  0  0  0  0  0  0  0  0  0
   20.5062  -19.1044  -15.6595 N   0  0  0  0  0  0  0  0  0  0  0  0
   20.2467  -17.9173  -16.4740 C   0  0  1  0  0  0  0  0  0  0  0  0
   20.8310  -18.0919  -17.8592 C   0  0  0  0  0  0  0  0  0  0  0  0
   20.5224  -16.9631  -18.8005 C   0  0  0  0  0  0  0  0  0  0  0  0
   21.1169  -17.2316  -20.1659 C   0  0  0  0  0  0  0  0  0  0  0  0
   20.9031  -16.0902  -21.1214 C   0  0  0  0  0  0  0  0  0  0  0  0
   21.6066  -16.2662  -22.3837 N   0  0  0  0  0  0  0  0  0  0  0  0
   18.7851  -17.7819  -16.5951 C   0  0  0  0  0  0  0  0  0  0  0  0
   17.9676  -18.7171  -16.4785 O   0  0  0  0  0  0  0  0  0  0  0  0
   18.2450  -16.5287  -16.8591 O   0  0  0  0  0  0  0  0  0  0  0  0
  2  8  1  0
  2  1  1  6
  3  2  1  0
  4  3  1  0
  5  6  1  0
  5  4  1  0
  7  6  1  0
  8  9  2  0
 10 11  1  0
 10  8  1  0
 12 13  1  0
 11 12  1  1
 13 14  2  0
 15 16  2  0
 15 11  1  0
 17 13  1  0
 18 15  1  0
 19 25  1  0
 19 18  1  0
 19 20  1  6
 21 20  1  0
 22 21  1  0
 23 22  1  0
 23 24  1  0
 25 27  1  0
 26 25  2  0
M  END
$$$$
