KDK.pdb
     RDKit          3D

 27 26  0  0  1  0  0  0  0  0999 V2000
   27.3169  -20.1861  -15.2131 N   0  0  0  0  0  0  0  0  0  0  0  0
   26.4126  -21.0537  -15.9612 C   0  0  1  0  0  0  0  0  0  0  0  0
   27.0885  -22.3857  -16.1828 C   0  0  0  0  0  0  0  0  0  0  0  0
   28.4869  -22.1780  -16.6606 C   0  0  0  0  0  0  0  0  0  0  0  0
   28.6359  -22.2297  -18.1719 C   0  0  0  0  0  0  0  0  0  0  0  0
   30.0964  -22.0986  -18.5295 C   0  0  0  0  0  0  0  0  0  0  0  0
   30.2343  -22.0709  -19.9885 N   0  0  0  0  0  0  0  0  0  0  0  0
   25.0835  -21.1691  -15.3476 C   0  0  0  0  0  0  0  0  0  0  0  0
   24.2053  -21.8426  -15.9344 O   0  0  0  0  0  0  0  0  0  0  0  0
   24.7081  -20.5543  -14.1049 N   0  0  0  0  0  0  0  0  0  0  0  0
   23.3571  -20.5608  -13.6208 C   0  0  1  0  0  0  0  0  0  0  0  0
   23.1764  -20.2435  -12.1755 C   0  0  0  0  0  0  0  0  0  0  0  0
   21.7945  -20.3705  -11.6785 C   0  0  0  0  0  0  0  0  0  0  0  0
   21.4190  -20.0574  -10.5215 O   0  0  0  0  0  0  0  0  0  0  0  0
   22.5786  -19.5853  -14.4776 C   0  0  0  0  0  0  0  0  0  0  0  0
   22.9202  -18.3832  -14.5557 O   0  0  0  0  0  0  0  0  0  0  0  0
   20.7718  -20.8743  -12.5068 O   0  0  0  0  0  0  0  0  0  0  0  0
   21.4421  -19.9895  -15.2182 N   0  0  0  0  0  0  0  0  0  0  0  0
   20.6794  -18.9920  -15.9686 C   0  0  1  0  0  0  0  0  0  0  0  0
   21.0522  -19.0386  -17.4347 C   0  0  0  0  0  0  0  0  0  0  0  0
   20.3014  -18.0577  -18.2888 C   0  0  0  0  0  0  0  0  0  0  0  0
   20.6436  -18.2536  -19.7498 C   0  0  0  0  0  0  0  0  0  0  0  0
   19.9374  -17.2713  -20.6431 C   0  0  0  0  0  0  0  0  0  0  0  0
   20.2038  -17.4951  -22.0567 N   0  0  0  0  0  0  0  0  0  0  0  0
   19.2547  -19.3407  -15.8356 C   0  0  0  0  0  0  0  0  0  0  0  0
   18.8196  -20.4712  -15.5367 O   0  0  0  0  0  0  0  0  0  0  0  0
   18.2978  -18.3565  -16.0535 O   0  0  0  0  0  0  0  0  0  0  0  0
  2  8  1  0
  2  1  1  1
  3  2  1  0
  4  3  1  0
  5  6  1  0
  5  4  1  0
  7  6  1  0
  8  9  2  0
 10 11  1  0
 10  8  1  0
 12 13  1  0
 11 12  1  1
 13 14  2  0
 15 16  2  0
 15 11  1  0
 17 13  1  0
 18 15  1  0
 19 25  1  0
 19 18  1  0
 19 20  1  6
 21 20  1  0
 22 21  1  0
 23 22  1  0
 23 24  1  0
 25 27  1  0
 26 25  2  0
M  END
$$$$
