VKV.pdb
     RDKit          3D

 24 23  0  0  1  0  0  0  0  0999 V2000
   16.7644  -12.0238  -18.2809 C   0  0  0  0  0  0  0  0  0  0  0  0
   16.8258  -12.6795  -16.9259 C   0  0  2  0  0  0  0  0  0  0  0  0
   15.5692  -13.4981  -16.7476 C   0  0  0  0  0  0  0  0  0  0  0  0
   17.0229  -11.6859  -15.8160 C   0  0  2  0  0  0  0  0  0  0  0  0
   15.8409  -10.8733  -15.7138 N   0  0  0  0  0  0  0  0  0  0  0  0
   18.2034  -10.8388  -16.0350 C   0  0  0  0  0  0  0  0  0  0  0  0
   19.3790  -11.3379  -15.9678 O   0  0  0  0  0  0  0  0  0  0  0  0
   18.1479   -9.4513  -16.3332 N   0  0  0  0  0  0  0  0  0  0  0  0
   19.2428   -8.6103  -16.6206 C   0  0  1  0  0  0  0  0  0  0  0  0
   19.0071   -7.5199  -17.6296 C   0  0  0  0  0  0  0  0  0  0  0  0
   19.0583   -8.0710  -19.0411 C   0  0  0  0  0  0  0  0  0  0  0  0
   18.9473   -7.0064  -20.1036 C   0  0  0  0  0  0  0  0  0  0  0  0
   19.0047   -7.6183  -21.4928 C   0  0  0  0  0  0  0  0  0  0  0  0
   18.9751   -6.6156  -22.5366 N   0  0  0  0  0  0  0  0  0  0  0  0
   19.8205   -7.9950  -15.4102 C   0  0  0  0  0  0  0  0  0  0  0  0
   19.0167   -7.5123  -14.5464 O   0  0  0  0  0  0  0  0  0  0  0  0
   21.1841   -9.3666  -12.3673 C   0  0  0  0  0  0  0  0  0  0  0  0
   22.1358   -8.2661  -12.8027 C   0  0  1  0  0  0  0  0  0  0  0  0
   23.3655   -8.9760  -13.3442 C   0  0  0  0  0  0  0  0  0  0  0  0
   21.5563   -7.3308  -13.7864 C   0  0  2  0  0  0  0  0  0  0  0  0
   21.1910   -7.8648  -15.0793 N   0  0  0  0  0  0  0  0  0  0  0  0
   22.4624   -6.1219  -13.9855 C   0  0  0  0  0  0  0  0  0  0  0  0
   22.7684   -5.2883  -12.9315 O   0  0  0  0  0  0  0  0  0  0  0  0
   22.9578   -5.8381  -15.0883 O   0  0  0  0  0  0  0  0  0  0  0  0
  2  1  1  6
  2  4  1  0
  2  3  1  0
  4  5  1  6
  6  4  1  0
  7  6  2  0
  8  6  1  0
  9 10  1  6
  9  8  1  0
 10 11  1  0
 11 12  1  0
 13 12  1  0
 14 13  1  0
 15  9  1  0
 16 15  2  0
 18 17  1  6
 18 19  1  0
 18 20  1  0
 20 21  1  6
 21 15  1  0
 22 20  1  0
 22 23  1  0
 24 22  2  0
M  END
$$$$
