VKV.pdb
     RDKit          3D

 24 23  0  0  1  0  0  0  0  0999 V2000
   28.5027  -25.0147  -17.8199 C   0  0  0  0  0  0  0  0  0  0  0  0
   28.8088  -26.4817  -17.9743 C   0  0  2  0  0  0  0  0  0  0  0  0
   29.2880  -27.0002  -16.6392 C   0  0  0  0  0  0  0  0  0  0  0  0
   29.7927  -26.7496  -19.0779 C   0  0  2  0  0  0  0  0  0  0  0  0
   29.2087  -26.3309  -20.3235 N   0  0  0  0  0  0  0  0  0  0  0  0
   30.1734  -28.1672  -19.1474 C   0  0  0  0  0  0  0  0  0  0  0  0
   29.3826  -29.0241  -19.6729 O   0  0  0  0  0  0  0  0  0  0  0  0
   31.4020  -28.6901  -18.6634 N   0  0  0  0  0  0  0  0  0  0  0  0
   31.8275  -30.0328  -18.7314 C   0  0  1  0  0  0  0  0  0  0  0  0
   33.3098  -30.2644  -18.8389 C   0  0  0  0  0  0  0  0  0  0  0  0
   33.6095  -31.7276  -19.0995 C   0  0  0  0  0  0  0  0  0  0  0  0
   35.0819  -32.0204  -19.2437 C   0  0  0  0  0  0  0  0  0  0  0  0
   35.3108  -33.4686  -19.6410 C   0  0  0  0  0  0  0  0  0  0  0  0
   36.7053  -33.7517  -19.9074 N   0  0  0  0  0  0  0  0  0  0  0  0
   31.3180  -30.8483  -17.6120 C   0  0  0  0  0  0  0  0  0  0  0  0
   31.6970  -30.5441  -16.4334 O   0  0  0  0  0  0  0  0  0  0  0  0
   28.0839  -32.9888  -14.8344 C   0  0  0  0  0  0  0  0  0  0  0  0
   28.5345  -32.2900  -16.1053 C   0  0  1  0  0  0  0  0  0  0  0  0
   28.2571  -30.8124  -15.8827 C   0  0  0  0  0  0  0  0  0  0  0  0
   29.9452  -32.5433  -16.4574 C   0  0  2  0  0  0  0  0  0  0  0  0
   30.4420  -31.9584  -17.6826 N   0  0  0  0  0  0  0  0  0  0  0  0
   30.2437  -34.0376  -16.4629 C   0  0  0  0  0  0  0  0  0  0  0  0
   30.2570  -34.7587  -15.2884 O   0  0  0  0  0  0  0  0  0  0  0  0
   30.4844  -34.6626  -17.5086 O   0  0  0  0  0  0  0  0  0  0  0  0
  2  1  1  1
  2  4  1  0
  2  3  1  0
  4  5  1  6
  6  4  1  0
  7  6  2  0
  8  6  1  0
  9 10  1  1
  9  8  1  0
 10 11  1  0
 11 12  1  0
 13 12  1  0
 14 13  1  0
 15  9  1  0
 16 15  2  0
 18 17  1  1
 18 19  1  0
 18 20  1  0
 20 21  1  6
 21 15  1  0
 22 20  1  0
 22 23  1  0
 24 22  2  0
M  END
$$$$
