VKV.pdb
     RDKit          3D

 24 23  0  0  1  0  0  0  0  0999 V2000
   24.0776  -13.7182  -15.7985 C   0  0  0  0  0  0  0  0  0  0  0  0
   23.2879  -12.4439  -15.9477 C   0  0  2  0  0  0  0  0  0  0  0  0
   23.6201  -11.5506  -14.7761 C   0  0  0  0  0  0  0  0  0  0  0  0
   21.8118  -12.6950  -16.0743 C   0  0  2  0  0  0  0  0  0  0  0  0
   21.5982  -13.6455  -17.1321 N   0  0  0  0  0  0  0  0  0  0  0  0
   21.0617  -11.4603  -16.3429 C   0  0  0  0  0  0  0  0  0  0  0  0
   21.1832  -10.8613  -17.4663 O   0  0  0  0  0  0  0  0  0  0  0  0
   20.1694  -10.8502  -15.4216 N   0  0  0  0  0  0  0  0  0  0  0  0
   19.4291   -9.6678  -15.6280 C   0  0  1  0  0  0  0  0  0  0  0  0
   17.9787   -9.7040  -15.2310 C   0  0  0  0  0  0  0  0  0  0  0  0
   17.1878  -10.6045  -16.1596 C   0  0  0  0  0  0  0  0  0  0  0  0
   15.7156  -10.6532  -15.8356 C   0  0  0  0  0  0  0  0  0  0  0  0
   14.9749  -11.5522  -16.8106 C   0  0  0  0  0  0  0  0  0  0  0  0
   13.5539  -11.6045  -16.5392 N   0  0  0  0  0  0  0  0  0  0  0  0
   20.0480   -8.4904  -14.9890 C   0  0  0  0  0  0  0  0  0  0  0  0
   20.4105   -8.5960  -13.7713 O   0  0  0  0  0  0  0  0  0  0  0  0
   23.3258   -6.8764  -15.4113 C   0  0  0  0  0  0  0  0  0  0  0  0
   22.2998   -5.7632  -15.2914 C   0  0  1  0  0  0  0  0  0  0  0  0
   22.2083   -5.1376  -16.6734 C   0  0  0  0  0  0  0  0  0  0  0  0
   20.9841   -6.2150  -14.7982 C   0  0  2  0  0  0  0  0  0  0  0  0
   20.2927   -7.2228  -15.5703 N   0  0  0  0  0  0  0  0  0  0  0  0
   20.0511   -5.0306  -14.5773 C   0  0  0  0  0  0  0  0  0  0  0  0
   20.3279   -4.0844  -13.6142 O   0  0  0  0  0  0  0  0  0  0  0  0
   19.0164   -4.8673  -15.2443 O   0  0  0  0  0  0  0  0  0  0  0  0
  2  1  1  1
  2  4  1  0
  2  3  1  0
  4  5  1  6
  6  4  1  0
  7  6  2  0
  8  6  1  0
  9 10  1  1
  9  8  1  0
 10 11  1  0
 11 12  1  0
 13 12  1  0
 14 13  1  0
 15  9  1  0
 16 15  2  0
 18 17  1  6
 18 19  1  0
 18 20  1  0
 20 21  1  6
 21 15  1  0
 22 20  1  0
 22 23  1  0
 24 22  2  0
M  END
$$$$
