VKV.pdb
     RDKit          3D

 24 23  0  0  1  0  0  0  0  0999 V2000
   26.9050  -14.7947  -15.5633 C   0  0  0  0  0  0  0  0  0  0  0  0
   25.7340  -13.9712  -16.0328 C   0  0  2  0  0  0  0  0  0  0  0  0
   25.8170  -12.6199  -15.3633 C   0  0  0  0  0  0  0  0  0  0  0  0
   24.4175  -14.6518  -15.7848 C   0  0  2  0  0  0  0  0  0  0  0  0
   24.4308  -15.9289  -16.4457 N   0  0  0  0  0  0  0  0  0  0  0  0
   23.2817  -13.8481  -16.2573 C   0  0  0  0  0  0  0  0  0  0  0  0
   23.0103  -13.7830  -17.5054 O   0  0  0  0  0  0  0  0  0  0  0  0
   22.4174  -13.1077  -15.4075 N   0  0  0  0  0  0  0  0  0  0  0  0
   21.3493  -12.2806  -15.8120 C   0  0  1  0  0  0  0  0  0  0  0  0
   19.9668  -12.7293  -15.4249 C   0  0  0  0  0  0  0  0  0  0  0  0
   19.5981  -14.0157  -16.1375 C   0  0  0  0  0  0  0  0  0  0  0  0
   18.2711  -14.5832  -15.6998 C   0  0  0  0  0  0  0  0  0  0  0  0
   17.9065  -15.8071  -16.5224 C   0  0  0  0  0  0  0  0  0  0  0  0
   16.6778  -16.4260  -16.0719 N   0  0  0  0  0  0  0  0  0  0  0  0
   21.5151  -10.8817  -15.3722 C   0  0  0  0  0  0  0  0  0  0  0  0
   21.9471  -10.6766  -14.1905 O   0  0  0  0  0  0  0  0  0  0  0  0
   23.7531   -8.0893  -16.6978 C   0  0  0  0  0  0  0  0  0  0  0  0
   22.4026   -7.5046  -16.3228 C   0  0  1  0  0  0  0  0  0  0  0  0
   21.7478   -7.1068  -17.6353 C   0  0  0  0  0  0  0  0  0  0  0  0
   21.5545   -8.4195  -15.5340 C   0  0  2  0  0  0  0  0  0  0  0  0
   21.2434   -9.7067  -16.1139 N   0  0  0  0  0  0  0  0  0  0  0  0
   20.2582   -7.7350  -15.1178 C   0  0  0  0  0  0  0  0  0  0  0  0
   20.2697   -6.6859  -14.2241 O   0  0  0  0  0  0  0  0  0  0  0  0
   19.1513   -8.0859  -15.5581 O   0  0  0  0  0  0  0  0  0  0  0  0
  2  1  1  1
  2  4  1  0
  2  3  1  0
  4  5  1  6
  6  4  1  0
  7  6  2  0
  8  6  1  0
  9 10  1  1
  9  8  1  0
 10 11  1  0
 11 12  1  0
 13 12  1  0
 14 13  1  0
 15  9  1  0
 16 15  2  0
 18 17  1  6
 18 19  1  0
 18 20  1  0
 20 21  1  6
 21 15  1  0
 22 20  1  0
 22 23  1  0
 24 22  2  0
M  END
$$$$
