VKV.pdb
     RDKit          3D

 24 23  0  0  1  0  0  0  0  0999 V2000
   15.4727  -10.0550  -17.3154 C   0  0  0  0  0  0  0  0  0  0  0  0
   16.7068   -9.4784  -16.6716 C   0  0  2  0  0  0  0  0  0  0  0  0
   17.1625   -8.3054  -17.5067 C   0  0  0  0  0  0  0  0  0  0  0  0
   17.7899  -10.5034  -16.4868 C   0  0  2  0  0  0  0  0  0  0  0  0
   17.2611  -11.5936  -15.7123 N   0  0  0  0  0  0  0  0  0  0  0  0
   18.9766   -9.9414  -15.8272 C   0  0  0  0  0  0  0  0  0  0  0  0
   18.9601   -9.6867  -14.5741 O   0  0  0  0  0  0  0  0  0  0  0  0
   20.1972   -9.6481  -16.4915 N   0  0  0  0  0  0  0  0  0  0  0  0
   21.3500   -9.0760  -15.9149 C   0  0  1  0  0  0  0  0  0  0  0  0
   22.6749   -9.5789  -16.4191 C   0  0  0  0  0  0  0  0  0  0  0  0
   23.0221  -10.9121  -15.7862 C   0  0  0  0  0  0  0  0  0  0  0  0
   24.2845  -11.5258  -16.3378 C   0  0  0  0  0  0  0  0  0  0  0  0
   24.6305  -12.8089  -15.6020 C   0  0  0  0  0  0  0  0  0  0  0  0
   25.8740  -13.3888  -16.0633 N   0  0  0  0  0  0  0  0  0  0  0  0
   21.3579   -7.6029  -16.0011 C   0  0  0  0  0  0  0  0  0  0  0  0
   21.2060   -7.0733  -17.1508 O   0  0  0  0  0  0  0  0  0  0  0  0
   19.0452   -5.3207  -16.0693 C   0  0  0  0  0  0  0  0  0  0  0  0
   20.0571   -4.6658  -15.1453 C   0  0  1  0  0  0  0  0  0  0  0  0
   19.4622   -4.7614  -13.7500 C   0  0  0  0  0  0  0  0  0  0  0  0
   21.4046   -5.2635  -15.2166 C   0  0  2  0  0  0  0  0  0  0  0  0
   21.5220   -6.6780  -14.9418 N   0  0  0  0  0  0  0  0  0  0  0  0
   22.3840   -4.5020  -14.3317 C   0  0  0  0  0  0  0  0  0  0  0  0
   22.7930   -3.2288  -14.6652 O   0  0  0  0  0  0  0  0  0  0  0  0
   22.8499   -4.9863  -13.2875 O   0  0  0  0  0  0  0  0  0  0  0  0
  2  1  1  6
  2  4  1  0
  2  3  1  0
  4  5  1  1
  6  4  1  0
  7  6  2  0
  8  6  1  0
  9 10  1  6
  9  8  1  0
 10 11  1  0
 11 12  1  0
 13 12  1  0
 14 13  1  0
 15  9  1  0
 16 15  2  0
 18 17  1  6
 18 19  1  0
 18 20  1  0
 20 21  1  1
 21 15  1  0
 22 20  1  0
 22 23  1  0
 24 22  2  0
M  END
$$$$
