VKV.pdb
     RDKit          3D

 24 23  0  0  1  0  0  0  0  0999 V2000
   23.6647  -10.9162  -15.8009 C   0  0  0  0  0  0  0  0  0  0  0  0
   22.9120  -11.9437  -14.9962 C   0  0  2  0  0  0  0  0  0  0  0  0
   23.7986  -13.1570  -14.8448 C   0  0  0  0  0  0  0  0  0  0  0  0
   21.5787  -12.2821  -15.6009 C   0  0  2  0  0  0  0  0  0  0  0  0
   21.7991  -12.8774  -16.8911 N   0  0  0  0  0  0  0  0  0  0  0  0
   20.7134  -11.1013  -15.7283 C   0  0  0  0  0  0  0  0  0  0  0  0
   20.6707  -10.4463  -16.8259 O   0  0  0  0  0  0  0  0  0  0  0  0
   19.8791  -10.6055  -14.6913 N   0  0  0  0  0  0  0  0  0  0  0  0
   18.9696   -9.5320  -14.7869 C   0  0  1  0  0  0  0  0  0  0  0  0
   17.5930   -9.7644  -14.2270 C   0  0  0  0  0  0  0  0  0  0  0  0
   16.8391  -10.7857  -15.0559 C   0  0  0  0  0  0  0  0  0  0  0  0
   15.4377  -11.0417  -14.5606 C   0  0  0  0  0  0  0  0  0  0  0  0
   14.6967  -11.9851  -15.4925 C   0  0  0  0  0  0  0  0  0  0  0  0
   13.3132  -12.1652  -15.1060 N   0  0  0  0  0  0  0  0  0  0  0  0
   19.4971   -8.2856  -14.1989 C   0  0  0  0  0  0  0  0  0  0  0  0
   20.1512   -8.3724  -13.1082 O   0  0  0  0  0  0  0  0  0  0  0  0
   21.8278   -5.6388  -15.9594 C   0  0  0  0  0  0  0  0  0  0  0  0
   21.5756   -5.8372  -14.4750 C   0  0  1  0  0  0  0  0  0  0  0  0
   22.2847   -4.6867  -13.7799 C   0  0  0  0  0  0  0  0  0  0  0  0
   20.1455   -5.9058  -14.1167 C   0  0  2  0  0  0  0  0  0  0  0  0
   19.3614   -6.9695  -14.7031 N   0  0  0  0  0  0  0  0  0  0  0  0
   19.4546   -4.5739  -14.3827 C   0  0  0  0  0  0  0  0  0  0  0  0
   19.8044   -3.4439  -13.6753 O   0  0  0  0  0  0  0  0  0  0  0  0
   18.5600   -4.4487  -15.2348 O   0  0  0  0  0  0  0  0  0  0  0  0
  2  1  1  6
  2  4  1  0
  2  3  1  0
  4  5  1  6
  6  4  1  0
  7  6  2  0
  8  6  1  0
  9 10  1  1
  9  8  1  0
 10 11  1  0
 11 12  1  0
 13 12  1  0
 14 13  1  0
 15  9  1  0
 16 15  2  0
 18 17  1  6
 18 19  1  0
 18 20  1  0
 20 21  1  6
 21 15  1  0
 22 20  1  0
 22 23  1  0
 24 22  2  0
M  END
$$$$
