PWL.pdb
     RDKit          3D

 30 32  0  0  1  0  0  0  0  0999 V2000
   28.2815  -23.3397  -16.6001 N   0  0  0  0  0  0  0  0  0  0  0  0
   27.7051  -23.8389  -17.8121 C   0  0  0  0  0  0  0  0  0  0  0  0
   27.3163  -22.5693  -18.5503 C   0  0  0  0  0  0  0  0  0  0  0  0
   26.6940  -21.7782  -17.4187 C   0  0  0  0  0  0  0  0  0  0  0  0
   27.6797  -22.0724  -16.2968 C   0  0  1  0  0  0  0  0  0  0  0  0
   26.9500  -22.1177  -14.9877 C   0  0  0  0  0  0  0  0  0  0  0  0
   26.5485  -23.2329  -14.6025 O   0  0  0  0  0  0  0  0  0  0  0  0
   26.7875  -20.8884  -14.3143 N   0  0  0  0  0  0  0  0  0  0  0  0
   26.0665  -20.8645  -13.0398 C   0  0  1  0  0  0  0  0  0  0  0  0
   26.8143  -19.9550  -12.1520 C   0  0  0  0  0  0  0  0  0  0  0  0
   27.7152  -20.5373  -11.1461 C   0  0  0  0  0  0  0  0  0  0  0  0
   28.9290  -21.1955  -11.3030 C   0  0  0  0  0  0  0  0  0  0  0  0
   29.3980  -21.5661  -10.1016 N   0  0  0  0  0  0  0  0  0  0  0  0
   28.5543  -21.1882   -9.1227 C   0  0  0  0  0  0  0  0  0  0  0  0
   28.6013  -21.3202   -7.7487 C   0  0  0  0  0  0  0  0  0  0  0  0
   27.5648  -20.7920   -7.0167 C   0  0  0  0  0  0  0  0  0  0  0  0
   26.4949  -20.1427   -7.6228 C   0  0  0  0  0  0  0  0  0  0  0  0
   26.4828  -20.0319   -8.9872 C   0  0  0  0  0  0  0  0  0  0  0  0
   27.5042  -20.5481   -9.7613 C   0  0  0  0  0  0  0  0  0  0  0  0
   24.6527  -20.5787  -13.3087 C   0  0  0  0  0  0  0  0  0  0  0  0
   24.3229  -19.6391  -14.0990 O   0  0  0  0  0  0  0  0  0  0  0  0
   21.5738  -21.8933  -15.9678 C   0  0  0  0  0  0  0  0  0  0  0  0
   21.7897  -22.7282  -14.7611 C   0  0  2  0  0  0  0  0  0  0  0  0
   20.9821  -24.0431  -14.9190 C   0  0  0  0  0  0  0  0  0  0  0  0
   21.4525  -22.0984  -13.4766 C   0  0  0  0  0  0  0  0  0  0  0  0
   22.2024  -20.8802  -13.0559 C   0  0  2  0  0  0  0  0  0  0  0  0
   23.5909  -21.3215  -12.7253 N   0  0  0  0  0  0  0  0  0  0  0  0
   21.7035  -20.2016  -11.8592 C   0  0  0  0  0  0  0  0  0  0  0  0
   20.5356  -19.3896  -11.9359 O   0  0  0  0  0  0  0  0  0  0  0  0
   22.2062  -20.2467  -10.7101 O   0  0  0  0  0  0  0  0  0  0  0  0
  1  2  1  0
  3  2  1  0
  4  3  1  0
  5  4  1  0
  5  1  1  0
  6  7  2  0
  5  6  1  1
  8  6  1  0
  9  8  1  0
 10 11  1  0
  9 10  1  1
 11 19  1  0
 11 12  2  0
 12 13  1  0
 14 13  1  0
 14 15  2  0
 16 15  1  0
 17 16  2  0
 18 19  2  0
 18 17  1  0
 19 14  1  0
 20 27  1  0
 20  9  1  0
 21 20  2  0
 23 22  1  6
 23 25  1  0
 24 23  1  0
 26 25  1  1
 26 27  1  0
 26 28  1  0
 28 29  1  0
 30 28  2  0
M  END
$$$$
