PWL.pdb
     RDKit          3D

 30 32  0  0  1  0  0  0  0  0999 V2000
   28.4587  -21.2285  -15.2537 N   0  0  0  0  0  0  0  0  0  0  0  0
   28.0030  -21.2609  -16.6108 C   0  0  0  0  0  0  0  0  0  0  0  0
   28.4196  -19.8993  -17.1406 C   0  0  0  0  0  0  0  0  0  0  0  0
   27.9989  -19.0182  -15.9831 C   0  0  0  0  0  0  0  0  0  0  0  0
   28.4597  -19.8650  -14.8052 C   0  0  1  0  0  0  0  0  0  0  0  0
   27.5210  -19.6725  -13.6520 C   0  0  0  0  0  0  0  0  0  0  0  0
   27.3668  -18.5076  -13.2367 O   0  0  0  0  0  0  0  0  0  0  0  0
   26.8994  -20.8335  -13.1454 N   0  0  0  0  0  0  0  0  0  0  0  0
   25.8653  -20.6967  -12.1173 C   0  0  1  0  0  0  0  0  0  0  0  0
   24.6439  -21.3141  -12.6665 C   0  0  0  0  0  0  0  0  0  0  0  0
   23.4962  -20.4483  -12.9757 C   0  0  0  0  0  0  0  0  0  0  0  0
   22.4188  -20.0701  -12.1835 C   0  0  0  0  0  0  0  0  0  0  0  0
   21.6018  -19.2715  -12.8873 N   0  0  0  0  0  0  0  0  0  0  0  0
   22.0749  -19.0844  -14.1340 C   0  0  0  0  0  0  0  0  0  0  0  0
   21.6126  -18.3458  -15.2055 C   0  0  0  0  0  0  0  0  0  0  0  0
   22.3610  -18.3489  -16.3585 C   0  0  0  0  0  0  0  0  0  0  0  0
   23.5474  -19.0668  -16.4610 C   0  0  0  0  0  0  0  0  0  0  0  0
   23.9733  -19.7877  -15.3780 C   0  0  0  0  0  0  0  0  0  0  0  0
   23.2522  -19.8121  -14.1997 C   0  0  0  0  0  0  0  0  0  0  0  0
   26.3991  -21.2036  -10.8480 C   0  0  0  0  0  0  0  0  0  0  0  0
   27.0954  -22.2667  -10.8191 O   0  0  0  0  0  0  0  0  0  0  0  0
   28.8765  -18.7836   -6.7713 C   0  0  0  0  0  0  0  0  0  0  0  0
   27.5967  -19.3679   -7.2409 C   0  0  2  0  0  0  0  0  0  0  0  0
   26.5611  -19.2791   -6.0895 C   0  0  0  0  0  0  0  0  0  0  0  0
   27.6650  -20.7516   -7.7316 C   0  0  0  0  0  0  0  0  0  0  0  0
   26.4566  -21.3467   -8.3711 C   0  0  2  0  0  0  0  0  0  0  0  0
   26.1850  -20.5492   -9.6049 N   0  0  0  0  0  0  0  0  0  0  0  0
   25.2241  -21.2966   -7.5839 C   0  0  0  0  0  0  0  0  0  0  0  0
   24.0733  -20.6376   -8.1040 O   0  0  0  0  0  0  0  0  0  0  0  0
   25.0458  -21.7874   -6.4425 O   0  0  0  0  0  0  0  0  0  0  0  0
  1  2  1  0
  3  2  1  0
  4  3  1  0
  5  4  1  0
  5  1  1  0
  6  7  2  0
  5  6  1  1
  8  6  1  0
  9  8  1  0
 10 11  1  0
  9 10  1  6
 11 19  1  0
 11 12  2  0
 12 13  1  0
 14 13  1  0
 14 15  2  0
 16 15  1  0
 17 16  2  0
 18 19  2  0
 18 17  1  0
 19 14  1  0
 20 27  1  0
 20  9  1  0
 21 20  2  0
 23 22  1  1
 23 25  1  0
 24 23  1  0
 26 25  1  1
 26 27  1  0
 26 28  1  0
 28 29  1  0
 30 28  2  0
M  END
$$$$
