PWL.pdb
     RDKit          3D

 30 32  0  0  1  0  0  0  0  0999 V2000
   27.8904  -20.9358  -14.4035 N   0  0  0  0  0  0  0  0  0  0  0  0
   27.2931  -20.9068  -15.7045 C   0  0  0  0  0  0  0  0  0  0  0  0
   27.6539  -19.5210  -16.2121 C   0  0  0  0  0  0  0  0  0  0  0  0
   27.3603  -18.6955  -14.9769 C   0  0  0  0  0  0  0  0  0  0  0  0
   27.9418  -19.5944  -13.8950 C   0  0  1  0  0  0  0  0  0  0  0  0
   27.1313  -19.4581  -12.6410 C   0  0  0  0  0  0  0  0  0  0  0  0
   26.9878  -18.3081  -12.1826 O   0  0  0  0  0  0  0  0  0  0  0  0
   26.6060  -20.6499  -12.0979 N   0  0  0  0  0  0  0  0  0  0  0  0
   25.7620  -20.5766  -10.9032 C   0  0  1  0  0  0  0  0  0  0  0  0
   24.5004  -21.2627  -11.2385 C   0  0  0  0  0  0  0  0  0  0  0  0
   23.5502  -20.5887  -12.1357 C   0  0  0  0  0  0  0  0  0  0  0  0
   23.4389  -20.6319  -13.5203 C   0  0  0  0  0  0  0  0  0  0  0  0
   22.4246  -19.8466  -13.9144 N   0  0  0  0  0  0  0  0  0  0  0  0
   21.8323  -19.2642  -12.8547 C   0  0  0  0  0  0  0  0  0  0  0  0
   20.7574  -18.4042  -12.7434 C   0  0  0  0  0  0  0  0  0  0  0  0
   20.3834  -18.0030  -11.4831 C   0  0  0  0  0  0  0  0  0  0  0  0
   21.0541  -18.4383  -10.3455 C   0  0  0  0  0  0  0  0  0  0  0  0
   22.1154  -19.2900  -10.4956 C   0  0  0  0  0  0  0  0  0  0  0  0
   22.5247  -19.7184  -11.7437 C   0  0  0  0  0  0  0  0  0  0  0  0
   26.5380  -21.0550   -9.7535 C   0  0  0  0  0  0  0  0  0  0  0  0
   27.3377  -22.0353   -9.8773 O   0  0  0  0  0  0  0  0  0  0  0  0
   28.2533  -17.7509   -6.1085 C   0  0  0  0  0  0  0  0  0  0  0  0
   27.7362  -19.1240   -5.8913 C   0  0  2  0  0  0  0  0  0  0  0  0
   28.1043  -19.5686   -4.4515 C   0  0  0  0  0  0  0  0  0  0  0  0
   28.1934  -20.1407   -6.8491 C   0  0  0  0  0  0  0  0  0  0  0  0
   27.2088  -21.1343   -7.3655 C   0  0  2  0  0  0  0  0  0  0  0  0
   26.4537  -20.4614   -8.4652 N   0  0  0  0  0  0  0  0  0  0  0  0
   26.1993  -21.5926   -6.4104 C   0  0  0  0  0  0  0  0  0  0  0  0
   26.6002  -22.2402   -5.2066 O   0  0  0  0  0  0  0  0  0  0  0  0
   24.9546  -21.4820   -6.5277 O   0  0  0  0  0  0  0  0  0  0  0  0
  1  2  1  0
  3  2  1  0
  4  3  1  0
  5  4  1  0
  5  1  1  0
  6  7  2  0
  5  6  1  1
  8  6  1  0
  9  8  1  0
 10 11  1  0
  9 10  1  6
 11 19  1  0
 11 12  2  0
 12 13  1  0
 14 13  1  0
 14 15  2  0
 16 15  1  0
 17 16  2  0
 18 19  2  0
 18 17  1  0
 19 14  1  0
 20 27  1  0
 20  9  1  0
 21 20  2  0
 23 22  1  6
 23 25  1  0
 24 23  1  0
 26 25  1  1
 26 27  1  0
 26 28  1  0
 28 29  1  0
 30 28  2  0
M  END
$$$$
