PWL.pdb
     RDKit          3D

 30 32  0  0  1  0  0  0  0  0999 V2000
   28.0027  -21.1524  -14.4559 N   0  0  0  0  0  0  0  0  0  0  0  0
   27.5318  -21.1490  -15.8082 C   0  0  0  0  0  0  0  0  0  0  0  0
   28.0721  -19.8372  -16.3517 C   0  0  0  0  0  0  0  0  0  0  0  0
   27.7504  -18.9126  -15.1964 C   0  0  0  0  0  0  0  0  0  0  0  0
   28.1398  -19.7926  -14.0171 C   0  0  1  0  0  0  0  0  0  0  0  0
   27.2362  -19.5036  -12.8561 C   0  0  0  0  0  0  0  0  0  0  0  0
   27.0801  -18.3067  -12.5453 O   0  0  0  0  0  0  0  0  0  0  0  0
   26.6463  -20.6188  -12.2241 N   0  0  0  0  0  0  0  0  0  0  0  0
   25.6428  -20.3977  -11.1805 C   0  0  1  0  0  0  0  0  0  0  0  0
   24.3935  -21.0152  -11.6625 C   0  0  0  0  0  0  0  0  0  0  0  0
   23.4768  -20.2042  -12.4775 C   0  0  0  0  0  0  0  0  0  0  0  0
   23.6065  -19.7419  -13.7817 C   0  0  0  0  0  0  0  0  0  0  0  0
   22.5211  -19.0269  -14.1152 N   0  0  0  0  0  0  0  0  0  0  0  0
   21.6481  -18.9789  -13.0912 C   0  0  0  0  0  0  0  0  0  0  0  0
   20.4048  -18.3938  -12.9526 C   0  0  0  0  0  0  0  0  0  0  0  0
   19.7491  -18.5543  -11.7552 C   0  0  0  0  0  0  0  0  0  0  0  0
   20.3044  -19.2786  -10.7062 C   0  0  0  0  0  0  0  0  0  0  0  0
   21.5391  -19.8435  -10.8806 C   0  0  0  0  0  0  0  0  0  0  0  0
   22.2328  -19.7074  -12.0677 C   0  0  0  0  0  0  0  0  0  0  0  0
   26.1976  -20.8438   -9.8975 C   0  0  0  0  0  0  0  0  0  0  0  0
   26.6492  -22.0246   -9.7650 O   0  0  0  0  0  0  0  0  0  0  0  0
   29.4351  -20.1554   -6.6361 C   0  0  0  0  0  0  0  0  0  0  0  0
   28.3546  -19.1410   -6.6955 C   0  0  2  0  0  0  0  0  0  0  0  0
   28.6547  -18.0375   -5.6475 C   0  0  0  0  0  0  0  0  0  0  0  0
   26.9888  -19.6461   -6.4964 C   0  0  0  0  0  0  0  0  0  0  0  0
   26.4610  -20.6771   -7.4354 C   0  0  2  0  0  0  0  0  0  0  0  0
   26.2721  -20.0022   -8.7549 N   0  0  0  0  0  0  0  0  0  0  0  0
   25.1601  -21.2520   -7.0911 C   0  0  0  0  0  0  0  0  0  0  0  0
   25.0797  -22.3203   -6.1523 O   0  0  0  0  0  0  0  0  0  0  0  0
   24.0442  -20.9028   -7.5475 O   0  0  0  0  0  0  0  0  0  0  0  0
  1  2  1  0
  3  2  1  0
  4  3  1  0
  5  4  1  0
  5  1  1  0
  6  7  2  0
  5  6  1  1
  8  6  1  0
  9  8  1  0
 10 11  1  0
  9 10  1  6
 11 19  1  0
 11 12  2  0
 12 13  1  0
 14 13  1  0
 14 15  2  0
 16 15  1  0
 17 16  2  0
 18 19  2  0
 18 17  1  0
 19 14  1  0
 20 27  1  0
 20  9  1  0
 21 20  2  0
 23 22  1  1
 23 25  1  0
 24 23  1  0
 26 25  1  1
 26 27  1  0
 26 28  1  0
 28 29  1  0
 30 28  2  0
M  END
$$$$
