PWL.pdb
     RDKit          3D

 30 32  0  0  1  0  0  0  0  0999 V2000
   27.8354  -21.2159  -18.0259 N   0  0  0  0  0  0  0  0  0  0  0  0
   27.9106  -21.0981  -19.4510 C   0  0  0  0  0  0  0  0  0  0  0  0
   29.0058  -20.0638  -19.6480 C   0  0  0  0  0  0  0  0  0  0  0  0
   28.6105  -19.0476  -18.5971 C   0  0  0  0  0  0  0  0  0  0  0  0
   28.2405  -19.9683  -17.4430 C   0  0  1  0  0  0  0  0  0  0  0  0
   27.1273  -19.3537  -16.6486 C   0  0  0  0  0  0  0  0  0  0  0  0
   27.3345  -18.2240  -16.1649 O   0  0  0  0  0  0  0  0  0  0  0  0
   25.9465  -20.1163  -16.5247 N   0  0  0  0  0  0  0  0  0  0  0  0
   24.7724  -19.5129  -15.8902 C   0  0  1  0  0  0  0  0  0  0  0  0
   23.8289  -19.1892  -16.9763 C   0  0  0  0  0  0  0  0  0  0  0  0
   22.5602  -18.5299  -16.6326 C   0  0  0  0  0  0  0  0  0  0  0  0
   22.2911  -17.5310  -15.7047 C   0  0  0  0  0  0  0  0  0  0  0  0
   20.9813  -17.2402  -15.7244 N   0  0  0  0  0  0  0  0  0  0  0  0
   20.3373  -18.0000  -16.6304 C   0  0  0  0  0  0  0  0  0  0  0  0
   19.0156  -18.0598  -17.0265 C   0  0  0  0  0  0  0  0  0  0  0  0
   18.6815  -18.9522  -18.0172 C   0  0  0  0  0  0  0  0  0  0  0  0
   19.6301  -19.7764  -18.6124 C   0  0  0  0  0  0  0  0  0  0  0  0
   20.9303  -19.6891  -18.1930 C   0  0  0  0  0  0  0  0  0  0  0  0
   21.3097  -18.8059  -17.2006 C   0  0  0  0  0  0  0  0  0  0  0  0
   24.3219  -20.3949  -14.8077 C   0  0  0  0  0  0  0  0  0  0  0  0
   24.2647  -21.6529  -14.9814 O   0  0  0  0  0  0  0  0  0  0  0  0
   26.2659  -21.7273  -11.1747 C   0  0  0  0  0  0  0  0  0  0  0  0
   25.5394  -20.4391  -11.0612 C   0  0  2  0  0  0  0  0  0  0  0  0
   25.8868  -19.7947   -9.6937 C   0  0  0  0  0  0  0  0  0  0  0  0
   24.0791  -20.5108  -11.2112 C   0  0  0  0  0  0  0  0  0  0  0  0
   23.5124  -20.9330  -12.5242 C   0  0  2  0  0  0  0  0  0  0  0  0
   23.9406  -19.9115  -13.5269 N   0  0  0  0  0  0  0  0  0  0  0  0
   22.0523  -20.9848  -12.6055 C   0  0  0  0  0  0  0  0  0  0  0  0
   21.3451  -19.9976  -13.3502 O   0  0  0  0  0  0  0  0  0  0  0  0
   21.3036  -21.8372  -12.0686 O   0  0  0  0  0  0  0  0  0  0  0  0
  1  2  1  0
  3  2  1  0
  4  3  1  0
  5  4  1  0
  5  1  1  0
  6  7  2  0
  5  6  1  6
  8  6  1  0
  9  8  1  0
 10 11  1  0
  9 10  1  6
 11 19  1  0
 11 12  2  0
 12 13  1  0
 14 13  1  0
 14 15  2  0
 16 15  1  0
 17 16  2  0
 18 19  2  0
 18 17  1  0
 19 14  1  0
 20 27  1  0
 20  9  1  0
 21 20  2  0
 23 22  1  1
 23 25  1  0
 24 23  1  0
 26 25  1  1
 26 27  1  0
 26 28  1  0
 28 29  1  0
 30 28  2  0
M  END
$$$$
