PWL.pdb
     RDKit          3D

 30 32  0  0  1  0  0  0  0  0999 V2000
   27.2602  -19.7178  -16.5070 N   0  0  0  0  0  0  0  0  0  0  0  0
   27.5273  -18.3113  -16.5319 C   0  0  0  0  0  0  0  0  0  0  0  0
   29.0362  -18.2501  -16.3663 C   0  0  0  0  0  0  0  0  0  0  0  0
   29.2287  -19.2679  -15.2616 C   0  0  0  0  0  0  0  0  0  0  0  0
   28.2728  -20.3607  -15.7185 C   0  0  1  0  0  0  0  0  0  0  0  0
   27.6784  -21.0395  -14.5210 C   0  0  0  0  0  0  0  0  0  0  0  0
   28.4102  -21.8354  -13.9010 O   0  0  0  0  0  0  0  0  0  0  0  0
   26.3421  -20.7107  -14.2093 N   0  0  0  0  0  0  0  0  0  0  0  0
   25.8287  -21.0104  -12.8708 C   0  0  1  0  0  0  0  0  0  0  0  0
   26.7510  -20.3699  -11.9148 C   0  0  0  0  0  0  0  0  0  0  0  0
   26.3983  -20.3733  -10.4873 C   0  0  0  0  0  0  0  0  0  0  0  0
   25.1622  -20.2306   -9.8685 C   0  0  0  0  0  0  0  0  0  0  0  0
   25.3168  -20.2887   -8.5368 N   0  0  0  0  0  0  0  0  0  0  0  0
   26.6119  -20.4664   -8.2140 C   0  0  0  0  0  0  0  0  0  0  0  0
   27.2605  -20.6034   -7.0024 C   0  0  0  0  0  0  0  0  0  0  0  0
   28.6211  -20.7981   -7.0205 C   0  0  0  0  0  0  0  0  0  0  0  0
   29.3378  -20.8576   -8.2106 C   0  0  0  0  0  0  0  0  0  0  0  0
   28.6603  -20.7170   -9.3918 C   0  0  0  0  0  0  0  0  0  0  0  0
   27.2931  -20.5199   -9.4195 C   0  0  0  0  0  0  0  0  0  0  0  0
   24.4071  -20.6499  -12.8246 C   0  0  0  0  0  0  0  0  0  0  0  0
   24.0352  -19.4582  -13.0644 O   0  0  0  0  0  0  0  0  0  0  0  0
   21.0015  -20.5897  -15.6225 C   0  0  0  0  0  0  0  0  0  0  0  0
   21.4950  -21.8699  -15.0591 C   0  0  2  0  0  0  0  0  0  0  0  0
   20.8205  -23.0389  -15.8237 C   0  0  0  0  0  0  0  0  0  0  0  0
   21.2988  -22.0530  -13.6141 C   0  0  0  0  0  0  0  0  0  0  0  0
   21.9738  -21.1133  -12.6735 C   0  0  2  0  0  0  0  0  0  0  0  0
   23.3826  -21.5884  -12.5265 N   0  0  0  0  0  0  0  0  0  0  0  0
   21.4267  -21.0604  -11.3173 C   0  0  0  0  0  0  0  0  0  0  0  0
   20.2822  -20.2581  -11.0420 O   0  0  0  0  0  0  0  0  0  0  0  0
   21.8665  -21.6660  -10.3098 O   0  0  0  0  0  0  0  0  0  0  0  0
  1  2  1  0
  3  2  1  0
  4  3  1  0
  5  4  1  0
  5  1  1  0
  6  7  2  0
  5  6  1  1
  8  6  1  0
  9  8  1  0
 10 11  1  0
  9 10  1  1
 11 19  1  0
 11 12  2  0
 12 13  1  0
 14 13  1  0
 14 15  2  0
 16 15  1  0
 17 16  2  0
 18 19  2  0
 18 17  1  0
 19 14  1  0
 20 27  1  0
 20  9  1  0
 21 20  2  0
 23 22  1  6
 23 25  1  0
 24 23  1  0
 26 25  1  6
 26 27  1  0
 26 28  1  0
 28 29  1  0
 30 28  2  0
M  END
$$$$
