PWL.pdb
     RDKit          3D

 30 32  0  0  1  0  0  0  0  0999 V2000
   27.0179  -17.9743  -15.0151 N   0  0  0  0  0  0  0  0  0  0  0  0
   28.0956  -17.0460  -14.8500 C   0  0  0  0  0  0  0  0  0  0  0  0
   28.9655  -17.3174  -16.0656 C   0  0  0  0  0  0  0  0  0  0  0  0
   28.9639  -18.8317  -16.0669 C   0  0  0  0  0  0  0  0  0  0  0  0
   27.5021  -19.1101  -15.7471 C   0  0  1  0  0  0  0  0  0  0  0  0
   27.3973  -20.3650  -14.9331 C   0  0  0  0  0  0  0  0  0  0  0  0
   27.5979  -21.4424  -15.5267 O   0  0  0  0  0  0  0  0  0  0  0  0
   27.0807  -20.2052  -13.5673 N   0  0  0  0  0  0  0  0  0  0  0  0
   26.8706  -21.3960  -12.7410 C   0  0  1  0  0  0  0  0  0  0  0  0
   27.6051  -21.1681  -11.4828 C   0  0  0  0  0  0  0  0  0  0  0  0
   26.8662  -20.6534  -10.3203 C   0  0  0  0  0  0  0  0  0  0  0  0
   25.5174  -20.3505  -10.1772 C   0  0  0  0  0  0  0  0  0  0  0  0
   25.2879  -19.8972   -8.9353 N   0  0  0  0  0  0  0  0  0  0  0  0
   26.4264  -19.8766   -8.2167 C   0  0  0  0  0  0  0  0  0  0  0  0
   26.6987  -19.5169   -6.9114 C   0  0  0  0  0  0  0  0  0  0  0  0
   27.9946  -19.6366   -6.4690 C   0  0  0  0  0  0  0  0  0  0  0  0
   29.0115  -20.1024   -7.2950 C   0  0  0  0  0  0  0  0  0  0  0  0
   28.7033  -20.4487   -8.5831 C   0  0  0  0  0  0  0  0  0  0  0  0
   27.4141  -20.3444   -9.0686 C   0  0  0  0  0  0  0  0  0  0  0  0
   25.4307  -21.6697  -12.6743 C   0  0  0  0  0  0  0  0  0  0  0  0
   24.9895  -22.6415  -11.9836 O   0  0  0  0  0  0  0  0  0  0  0  0
   21.3141  -20.9236  -10.6393 C   0  0  0  0  0  0  0  0  0  0  0  0
   22.0252  -19.8284  -11.3427 C   0  0  2  0  0  0  0  0  0  0  0  0
   21.2131  -18.5187  -11.1664 C   0  0  0  0  0  0  0  0  0  0  0  0
   22.2918  -20.0501  -12.7710 C   0  0  0  0  0  0  0  0  0  0  0  0
   23.0331  -21.2773  -13.1806 C   0  0  2  0  0  0  0  0  0  0  0  0
   24.4630  -20.8800  -13.3521 N   0  0  0  0  0  0  0  0  0  0  0  0
   22.6293  -21.8752  -14.4537 C   0  0  0  0  0  0  0  0  0  0  0  0
   21.3923  -22.5748  -14.5513 O   0  0  0  0  0  0  0  0  0  0  0  0
   23.2746  -21.8487  -15.5299 O   0  0  0  0  0  0  0  0  0  0  0  0
  1  2  1  0
  3  2  1  0
  4  3  1  0
  5  4  1  0
  5  1  1  0
  6  7  2  0
  5  6  1  1
  8  6  1  0
  9  8  1  0
 10 11  1  0
  9 10  1  1
 11 19  1  0
 11 12  2  0
 12 13  1  0
 14 13  1  0
 14 15  2  0
 16 15  1  0
 17 16  2  0
 18 19  2  0
 18 17  1  0
 19 14  1  0
 20 27  1  0
 20  9  1  0
 21 20  2  0
 23 22  1  6
 23 25  1  0
 24 23  1  0
 26 25  1  6
 26 27  1  0
 26 28  1  0
 28 29  1  0
 30 28  2  0
M  END
$$$$
