YIF.pdb
     RDKit          3D

 32 33  0  0  1  0  0  0  0  0999 V2000
   17.5379  -17.7417  -17.4982 O   0  0  0  0  0  0  0  0  0  0  0  0
   18.5175  -18.3973  -16.7504 C   0  0  0  0  0  0  0  0  0  0  0  0
   19.7684  -17.8582  -16.6271 C   0  0  0  0  0  0  0  0  0  0  0  0
   20.7495  -18.4631  -15.9090 C   0  0  0  0  0  0  0  0  0  0  0  0
   20.4918  -19.6568  -15.2798 C   0  0  0  0  0  0  0  0  0  0  0  0
   21.5564  -20.3163  -14.5277 C   0  0  0  0  0  0  0  0  0  0  0  0
   22.6996  -20.6904  -15.4216 C   0  0  2  0  0  0  0  0  0  0  0  0
   22.2737  -21.7916  -16.3020 N   0  0  0  0  0  0  0  0  0  0  0  0
   23.8235  -21.2001  -14.6068 C   0  0  0  0  0  0  0  0  0  0  0  0
   23.7458  -22.3881  -14.1790 O   0  0  0  0  0  0  0  0  0  0  0  0
   19.2506  -20.2356  -15.3762 C   0  0  0  0  0  0  0  0  0  0  0  0
   18.2768  -19.5972  -16.1117 C   0  0  0  0  0  0  0  0  0  0  0  0
   28.9004  -20.6169  -15.8660 C   0  0  0  0  0  0  0  0  0  0  0  0
   27.5731  -21.0169  -15.3078 C   0  0  0  0  0  0  0  0  0  0  0  0
   27.3526  -20.4565  -13.9069 C   0  0  2  0  0  0  0  0  0  0  0  0
   28.4836  -20.7573  -12.9947 C   0  0  0  0  0  0  0  0  0  0  0  0
   26.0197  -20.9062  -13.3598 C   0  0  2  0  0  0  0  0  0  0  0  0
   24.9568  -20.4267  -14.2926 N   0  0  0  0  0  0  0  0  0  0  0  0
   25.7321  -20.4026  -12.0105 C   0  0  0  0  0  0  0  0  0  0  0  0
   25.4970  -19.1479  -11.8784 O   0  0  0  0  0  0  0  0  0  0  0  0
   25.6736  -21.1269  -10.8115 N   0  0  0  0  0  0  0  0  0  0  0  0
   25.4433  -20.5215   -9.4946 C   0  0  1  0  0  0  0  0  0  0  0  0
   24.2144  -21.0755   -8.8492 C   0  0  0  0  0  0  0  0  0  0  0  0
   23.0146  -20.5819   -9.5501 C   0  0  0  0  0  0  0  0  0  0  0  0
   23.0599  -19.8564  -10.7081 C   0  0  0  0  0  0  0  0  0  0  0  0
   21.9270  -19.4161  -11.3316 C   0  0  0  0  0  0  0  0  0  0  0  0
   20.6876  -19.7128  -10.7742 C   0  0  0  0  0  0  0  0  0  0  0  0
   20.5893  -20.4395   -9.6109 C   0  0  0  0  0  0  0  0  0  0  0  0
   21.7738  -20.8593   -9.0239 C   0  0  0  0  0  0  0  0  0  0  0  0
   26.6522  -20.5713   -8.6656 C   0  0  0  0  0  0  0  0  0  0  0  0
   27.6166  -21.2855   -9.0351 O   0  0  0  0  0  0  0  0  0  0  0  0
   26.8192  -19.8782   -7.4852 O   0  0  0  0  0  0  0  0  0  0  0  0
  2  1  1  0
  3  2  2  0
  4  3  1  0
  5 11  1  0
  5  4  2  0
  6  5  1  0
  7  8  1  6
  7  6  1  0
  9 10  2  0
  9  7  1  0
 11 12  2  0
 12  2  1  0
 14 13  1  0
 15 14  1  0
 15 16  1  1
 17 15  1  0
 17 18  1  6
 18  9  1  0
 19 17  1  0
 20 19  2  0
 21 19  1  0
 22 23  1  1
 22 21  1  0
 23 24  1  0
 24 29  1  0
 25 24  2  0
 25 26  1  0
 26 27  2  0
 27 28  1  0
 29 28  2  0
 30 32  1  0
 30 22  1  0
 31 30  2  0
M  END
$$$$
