YIF.pdb
     RDKit          3D

 32 33  0  0  1  0  0  0  0  0999 V2000
   20.1203  -14.1508  -18.7580 O   0  0  0  0  0  0  0  0  0  0  0  0
   20.6594  -15.2404  -18.0721 C   0  0  0  0  0  0  0  0  0  0  0  0
   19.9052  -16.3600  -17.8523 C   0  0  0  0  0  0  0  0  0  0  0  0
   20.3913  -17.4415  -17.1901 C   0  0  0  0  0  0  0  0  0  0  0  0
   21.6818  -17.4249  -16.7194 C   0  0  0  0  0  0  0  0  0  0  0  0
   22.1936  -18.5807  -15.9871 C   0  0  0  0  0  0  0  0  0  0  0  0
   23.4150  -19.1436  -16.6485 C   0  0  2  0  0  0  0  0  0  0  0  0
   22.9953  -20.0016  -17.7697 N   0  0  0  0  0  0  0  0  0  0  0  0
   24.1452  -20.0067  -15.6953 C   0  0  0  0  0  0  0  0  0  0  0  0
   23.6897  -21.1688  -15.4893 O   0  0  0  0  0  0  0  0  0  0  0  0
   22.4757  -16.3223  -16.9164 C   0  0  0  0  0  0  0  0  0  0  0  0
   21.9536  -15.2416  -17.5918 C   0  0  0  0  0  0  0  0  0  0  0  0
   29.6129  -20.7443  -12.9148 C   0  0  0  0  0  0  0  0  0  0  0  0
   28.1471  -21.0322  -12.9611 C   0  0  0  0  0  0  0  0  0  0  0  0
   27.4285  -20.1631  -13.9874 C   0  0  2  0  0  0  0  0  0  0  0  0
   27.7840  -18.7282  -13.8590 C   0  0  0  0  0  0  0  0  0  0  0  0
   25.9398  -20.4071  -13.9392 C   0  0  2  0  0  0  0  0  0  0  0  0
   25.3072  -19.5914  -15.0182 N   0  0  0  0  0  0  0  0  0  0  0  0
   25.3228  -20.0568  -12.6533 C   0  0  0  0  0  0  0  0  0  0  0  0
   24.9810  -18.8338  -12.4679 O   0  0  0  0  0  0  0  0  0  0  0  0
   25.0441  -20.9013  -11.5694 N   0  0  0  0  0  0  0  0  0  0  0  0
   24.5257  -20.4380  -10.2770 C   0  0  1  0  0  0  0  0  0  0  0  0
   23.1763  -21.0148   -9.9944 C   0  0  0  0  0  0  0  0  0  0  0  0
   22.1737  -20.4044  -10.8869 C   0  0  0  0  0  0  0  0  0  0  0  0
   21.9573  -20.8137  -12.1735 C   0  0  0  0  0  0  0  0  0  0  0  0
   21.0181  -20.2255  -12.9722 C   0  0  0  0  0  0  0  0  0  0  0  0
   20.2567  -19.1780  -12.4648 C   0  0  0  0  0  0  0  0  0  0  0  0
   20.4365  -18.7300  -11.1771 C   0  0  0  0  0  0  0  0  0  0  0  0
   21.4044  -19.3660  -10.4142 C   0  0  0  0  0  0  0  0  0  0  0  0
   25.5131  -20.6239   -9.2084 C   0  0  0  0  0  0  0  0  0  0  0  0
   26.4874  -21.3912   -9.4045 O   0  0  0  0  0  0  0  0  0  0  0  0
   25.4564  -20.0070   -7.9765 O   0  0  0  0  0  0  0  0  0  0  0  0
  2  1  1  0
  3  2  2  0
  4  3  1  0
  5 11  1  0
  5  4  2  0
  6  5  1  0
  7  8  1  6
  7  6  1  0
  9 10  2  0
  9  7  1  0
 11 12  2  0
 12  2  1  0
 14 13  1  0
 15 14  1  0
 15 16  1  1
 17 15  1  0
 17 18  1  6
 18  9  1  0
 19 17  1  0
 20 19  2  0
 21 19  1  0
 22 23  1  1
 22 21  1  0
 23 24  1  0
 24 29  1  0
 25 24  2  0
 25 26  1  0
 26 27  2  0
 27 28  1  0
 29 28  2  0
 30 32  1  0
 30 22  1  0
 31 30  2  0
M  END
$$$$
