YIF.pdb
     RDKit          3D

 32 33  0  0  1  0  0  0  0  0999 V2000
   26.1758  -12.3916  -17.9154 O   0  0  0  0  0  0  0  0  0  0  0  0
   25.9132  -13.4423  -17.0347 C   0  0  0  0  0  0  0  0  0  0  0  0
   26.9404  -14.0843  -16.3996 C   0  0  0  0  0  0  0  0  0  0  0  0
   26.7285  -15.1103  -15.5355 C   0  0  0  0  0  0  0  0  0  0  0  0
   25.4449  -15.5284  -15.2809 C   0  0  0  0  0  0  0  0  0  0  0  0
   25.2222  -16.6476  -14.3689 C   0  0  0  0  0  0  0  0  0  0  0  0
   25.7824  -17.9208  -14.9267 C   0  0  2  0  0  0  0  0  0  0  0  0
   24.9886  -18.3138  -16.1034 N   0  0  0  0  0  0  0  0  0  0  0  0
   25.6430  -19.0053  -13.9311 C   0  0  0  0  0  0  0  0  0  0  0  0
   24.5335  -19.6104  -13.8751 O   0  0  0  0  0  0  0  0  0  0  0  0
   24.3825  -14.9137  -15.8959 C   0  0  0  0  0  0  0  0  0  0  0  0
   24.6304  -13.8760  -16.7668 C   0  0  0  0  0  0  0  0  0  0  0  0
   30.0213  -22.1379  -12.1848 C   0  0  0  0  0  0  0  0  0  0  0  0
   28.9864  -21.0697  -12.0381 C   0  0  0  0  0  0  0  0  0  0  0  0
   27.6074  -21.5491  -12.4780 C   0  0  2  0  0  0  0  0  0  0  0  0
   27.5735  -21.9295  -13.9119 C   0  0  0  0  0  0  0  0  0  0  0  0
   26.5519  -20.5335  -12.1136 C   0  0  2  0  0  0  0  0  0  0  0  0
   26.6794  -19.3827  -13.0565 N   0  0  0  0  0  0  0  0  0  0  0  0
   26.6590  -20.0351  -10.7363 C   0  0  0  0  0  0  0  0  0  0  0  0
   27.5894  -19.1900  -10.4772 O   0  0  0  0  0  0  0  0  0  0  0  0
   25.8578  -20.3628   -9.6334 N   0  0  0  0  0  0  0  0  0  0  0  0
   26.3608  -20.4956   -8.2611 C   0  0  1  0  0  0  0  0  0  0  0  0
   26.8624  -19.1889   -7.7373 C   0  0  0  0  0  0  0  0  0  0  0  0
   27.3963  -19.3672   -6.3745 C   0  0  0  0  0  0  0  0  0  0  0  0
   26.6089  -19.5436   -5.2707 C   0  0  0  0  0  0  0  0  0  0  0  0
   27.1383  -19.7073   -4.0221 C   0  0  0  0  0  0  0  0  0  0  0  0
   28.5203  -19.6947   -3.8649 C   0  0  0  0  0  0  0  0  0  0  0  0
   29.3548  -19.5207   -4.9439 C   0  0  0  0  0  0  0  0  0  0  0  0
   28.7593  -19.3596   -6.1861 C   0  0  0  0  0  0  0  0  0  0  0  0
   25.3869  -21.1737   -7.3992 C   0  0  0  0  0  0  0  0  0  0  0  0
   24.2034  -21.3019   -7.7987 O   0  0  0  0  0  0  0  0  0  0  0  0
   25.6745  -21.6959   -6.1558 O   0  0  0  0  0  0  0  0  0  0  0  0
  2  1  1  0
  3  2  2  0
  4  3  1  0
  5 11  1  0
  5  4  2  0
  6  5  1  0
  7  8  1  6
  7  6  1  0
  9 10  2  0
  9  7  1  0
 11 12  2  0
 12  2  1  0
 14 13  1  0
 15 14  1  0
 15 16  1  6
 17 15  1  0
 17 18  1  6
 18  9  1  0
 19 17  1  0
 20 19  2  0
 21 19  1  0
 22 23  1  1
 22 21  1  0
 23 24  1  0
 24 29  1  0
 25 24  2  0
 25 26  1  0
 26 27  2  0
 27 28  1  0
 29 28  2  0
 30 32  1  0
 30 22  1  0
 31 30  2  0
M  END
$$$$
