YIF.pdb
     RDKit          3D

 32 33  0  0  1  0  0  0  0  0999 V2000
   19.2669    0.8896  -13.3117 O   0  0  0  0  0  0  0  0  0  0  0  0
   20.3592    1.0565  -12.4587 C   0  0  0  0  0  0  0  0  0  0  0  0
   20.2140    1.7217  -11.2726 C   0  0  0  0  0  0  0  0  0  0  0  0
   21.2504    1.9055  -10.4144 C   0  0  0  0  0  0  0  0  0  0  0  0
   22.4919    1.4125  -10.7348 C   0  0  0  0  0  0  0  0  0  0  0  0
   23.6096    1.6324   -9.8202 C   0  0  0  0  0  0  0  0  0  0  0  0
   24.0253    3.0722   -9.8091 C   0  0  2  0  0  0  0  0  0  0  0  0
   24.7916    3.3549  -11.0348 N   0  0  0  0  0  0  0  0  0  0  0  0
   24.9316    3.3208   -8.6674 C   0  0  0  0  0  0  0  0  0  0  0  0
   26.0910    2.8175   -8.7190 O   0  0  0  0  0  0  0  0  0  0  0  0
   22.6848    0.7383  -11.9152 C   0  0  0  0  0  0  0  0  0  0  0  0
   21.6138    0.5682  -12.7641 C   0  0  0  0  0  0  0  0  0  0  0  0
   25.2276    7.4442   -7.8790 C   0  0  0  0  0  0  0  0  0  0  0  0
   26.1668    6.5900   -7.0905 C   0  0  0  0  0  0  0  0  0  0  0  0
   25.4373    5.7673   -6.0341 C   0  0  2  0  0  0  0  0  0  0  0  0
   25.9290    6.0474   -4.6625 C   0  0  0  0  0  0  0  0  0  0  0  0
   25.4763    4.2998   -6.3849 C   0  0  2  0  0  0  0  0  0  0  0  0
   24.5594    4.0815   -7.5431 N   0  0  0  0  0  0  0  0  0  0  0  0
   25.0719    3.4159   -5.2840 C   0  0  0  0  0  0  0  0  0  0  0  0
   23.8387    3.4294   -4.9289 O   0  0  0  0  0  0  0  0  0  0  0  0
   25.8714    2.5299   -4.5480 N   0  0  0  0  0  0  0  0  0  0  0  0
   25.4135    1.8019   -3.3589 C   0  0  1  0  0  0  0  0  0  0  0  0
   26.0730    0.4650   -3.2529 C   0  0  0  0  0  0  0  0  0  0  0  0
   25.5872   -0.2393   -2.0519 C   0  0  0  0  0  0  0  0  0  0  0  0
   24.4192   -0.9490   -2.0117 C   0  0  0  0  0  0  0  0  0  0  0  0
   24.0004   -1.5908   -0.8809 C   0  0  0  0  0  0  0  0  0  0  0  0
   24.7834   -1.5227    0.2667 C   0  0  0  0  0  0  0  0  0  0  0  0
   25.9664   -0.8217    0.2768 C   0  0  0  0  0  0  0  0  0  0  0  0
   26.3395   -0.1910   -0.9007 C   0  0  0  0  0  0  0  0  0  0  0  0
   25.5072    2.6341   -2.1548 C   0  0  0  0  0  0  0  0  0  0  0  0
   24.5012    2.7488   -1.4124 O   0  0  0  0  0  0  0  0  0  0  0  0
   26.6400    3.3156   -1.7624 O   0  0  0  0  0  0  0  0  0  0  0  0
  2  1  1  0
  3  2  2  0
  4  3  1  0
  5 11  1  0
  5  4  2  0
  6  5  1  0
  7  8  1  6
  7  6  1  0
  9 10  2  0
  9  7  1  0
 11 12  2  0
 12  2  1  0
 14 13  1  0
 15 14  1  0
 15 16  1  1
 17 15  1  0
 17 18  1  6
 18  9  1  0
 19 17  1  0
 20 19  2  0
 21 19  1  0
 22 23  1  1
 22 21  1  0
 23 24  1  0
 24 29  1  0
 25 24  2  0
 25 26  1  0
 26 27  2  0
 27 28  1  0
 29 28  2  0
 30 32  1  0
 30 22  1  0
 31 30  2  0
M  END
$$$$
