YIF.pdb
     RDKit          3D

 32 33  0  0  1  0  0  0  0  0999 V2000
   28.6612  -20.2150   -6.4857 O   0  0  0  0  0  0  0  0  0  0  0  0
   28.0306  -20.4053   -7.7164 C   0  0  0  0  0  0  0  0  0  0  0  0
   26.8288  -19.8065   -7.9767 C   0  0  0  0  0  0  0  0  0  0  0  0
   26.1824  -19.9653   -9.1605 C   0  0  0  0  0  0  0  0  0  0  0  0
   26.7421  -20.7508  -10.1387 C   0  0  0  0  0  0  0  0  0  0  0  0
   26.0328  -20.9382  -11.4020 C   0  0  0  0  0  0  0  0  0  0  0  0
   26.9911  -21.0910  -12.5440 C   0  0  2  0  0  0  0  0  0  0  0  0
   27.9949  -20.0157  -12.4689 N   0  0  0  0  0  0  0  0  0  0  0  0
   26.2719  -20.9204  -13.8247 C   0  0  0  0  0  0  0  0  0  0  0  0
   26.5569  -19.9073  -14.5266 O   0  0  0  0  0  0  0  0  0  0  0  0
   27.9471  -21.3720   -9.9218 C   0  0  0  0  0  0  0  0  0  0  0  0
   28.5777  -21.1910   -8.7109 C   0  0  0  0  0  0  0  0  0  0  0  0
   26.0153  -24.1217  -18.5863 C   0  0  0  0  0  0  0  0  0  0  0  0
   25.2617  -23.0449  -17.8750 C   0  0  0  0  0  0  0  0  0  0  0  0
   25.6415  -22.9632  -16.4005 C   0  0  2  0  0  0  0  0  0  0  0  0
   25.5322  -24.2755  -15.7165 C   0  0  0  0  0  0  0  0  0  0  0  0
   24.8578  -21.8731  -15.7109 C   0  0  2  0  0  0  0  0  0  0  0  0
   25.2972  -21.8259  -14.2846 N   0  0  0  0  0  0  0  0  0  0  0  0
   23.4031  -22.0700  -15.7550 C   0  0  0  0  0  0  0  0  0  0  0  0
   22.9660  -23.2105  -16.1487 O   0  0  0  0  0  0  0  0  0  0  0  0
   22.3961  -21.1567  -15.4119 N   0  0  0  0  0  0  0  0  0  0  0  0
   21.6863  -21.1581  -14.1274 C   0  0  1  0  0  0  0  0  0  0  0  0
   22.5814  -21.5933  -13.0125 C   0  0  0  0  0  0  0  0  0  0  0  0
   21.8366  -21.5850  -11.7399 C   0  0  0  0  0  0  0  0  0  0  0  0
   20.9623  -22.5685  -11.3687 C   0  0  0  0  0  0  0  0  0  0  0  0
   20.2898  -22.5290  -10.1803 C   0  0  0  0  0  0  0  0  0  0  0  0
   20.4983  -21.4569   -9.3189 C   0  0  0  0  0  0  0  0  0  0  0  0
   21.3674  -20.4430   -9.6467 C   0  0  0  0  0  0  0  0  0  0  0  0
   22.0212  -20.5381  -10.8661 C   0  0  0  0  0  0  0  0  0  0  0  0
   20.9908  -19.8869  -13.9008 C   0  0  0  0  0  0  0  0  0  0  0  0
   19.7656  -19.9020  -13.6264 O   0  0  0  0  0  0  0  0  0  0  0  0
   21.5897  -18.6464  -13.9648 O   0  0  0  0  0  0  0  0  0  0  0  0
  2  1  1  0
  3  2  2  0
  4  3  1  0
  5 11  1  0
  5  4  2  0
  6  5  1  0
  7  8  1  1
  7  6  1  0
  9 10  2  0
  9  7  1  0
 11 12  2  0
 12  2  1  0
 14 13  1  0
 15 14  1  0
 15 16  1  1
 17 15  1  0
 17 18  1  1
 18  9  1  0
 19 17  1  0
 20 19  2  0
 21 19  1  0
 22 23  1  1
 22 21  1  0
 23 24  1  0
 24 29  1  0
 25 24  2  0
 25 26  1  0
 26 27  2  0
 27 28  1  0
 29 28  2  0
 30 32  1  0
 30 22  1  0
 31 30  2  0
M  END
$$$$
