YIF.pdb
     RDKit          3D

 32 33  0  0  1  0  0  0  0  0999 V2000
   17.0866  -18.5975  -18.8762 O   0  0  0  0  0  0  0  0  0  0  0  0
   17.6037  -17.3060  -18.7605 C   0  0  0  0  0  0  0  0  0  0  0  0
   16.7676  -16.2237  -18.7713 C   0  0  0  0  0  0  0  0  0  0  0  0
   17.2294  -14.9514  -18.6610 C   0  0  0  0  0  0  0  0  0  0  0  0
   18.5790  -14.7283  -18.5338 C   0  0  0  0  0  0  0  0  0  0  0  0
   19.0741  -13.3573  -18.4389 C   0  0  0  0  0  0  0  0  0  0  0  0
   18.8532  -12.6116  -19.7200 C   0  0  2  0  0  0  0  0  0  0  0  0
   19.7514  -13.1604  -20.7501 N   0  0  0  0  0  0  0  0  0  0  0  0
   19.2213  -11.1908  -19.5398 C   0  0  0  0  0  0  0  0  0  0  0  0
   20.4521  -10.8985  -19.5492 O   0  0  0  0  0  0  0  0  0  0  0  0
   19.4561  -15.7844  -18.5184 C   0  0  0  0  0  0  0  0  0  0  0  0
   18.9564  -17.0628  -18.6321 C   0  0  0  0  0  0  0  0  0  0  0  0
   15.9106   -8.1933  -21.4948 C   0  0  0  0  0  0  0  0  0  0  0  0
   17.3334   -7.9513  -21.1066 C   0  0  0  0  0  0  0  0  0  0  0  0
   17.5056   -7.8772  -19.5933 C   0  0  2  0  0  0  0  0  0  0  0  0
   17.6082   -6.4797  -19.1052 C   0  0  0  0  0  0  0  0  0  0  0  0
   18.6598   -8.7421  -19.1482 C   0  0  2  0  0  0  0  0  0  0  0  0
   18.2710  -10.1683  -19.3593 N   0  0  0  0  0  0  0  0  0  0  0  0
   19.0337   -8.5536  -17.7406 C   0  0  0  0  0  0  0  0  0  0  0  0
   18.2952   -9.1042  -16.8471 O   0  0  0  0  0  0  0  0  0  0  0  0
   20.1218   -7.8362  -17.2235 N   0  0  0  0  0  0  0  0  0  0  0  0
   20.4115   -7.6993  -15.7913 C   0  0  1  0  0  0  0  0  0  0  0  0
   21.8599   -7.9318  -15.5053 C   0  0  0  0  0  0  0  0  0  0  0  0
   22.1247   -7.7344  -14.0682 C   0  0  0  0  0  0  0  0  0  0  0  0
   22.3666   -6.5124  -13.5045 C   0  0  0  0  0  0  0  0  0  0  0  0
   22.6070   -6.3664  -12.1677 C   0  0  0  0  0  0  0  0  0  0  0  0
   22.6064   -7.4930  -11.3519 C   0  0  0  0  0  0  0  0  0  0  0  0
   22.3683   -8.7439  -11.8711 C   0  0  0  0  0  0  0  0  0  0  0  0
   22.1307   -8.8293  -13.2348 C   0  0  0  0  0  0  0  0  0  0  0  0
   19.8693   -6.4466  -15.2547 C   0  0  0  0  0  0  0  0  0  0  0  0
   19.9160   -5.4093  -15.9606 O   0  0  0  0  0  0  0  0  0  0  0  0
   19.2967   -6.3143  -14.0072 O   0  0  0  0  0  0  0  0  0  0  0  0
  2  1  1  0
  3  2  2  0
  4  3  1  0
  5 11  1  0
  5  4  2  0
  6  5  1  0
  7  8  1  6
  7  6  1  0
  9 10  2  0
  9  7  1  0
 11 12  2  0
 12  2  1  0
 14 13  1  0
 15 14  1  0
 15 16  1  6
 17 15  1  0
 17 18  1  1
 18  9  1  0
 19 17  1  0
 20 19  2  0
 21 19  1  0
 22 23  1  6
 22 21  1  0
 23 24  1  0
 24 29  1  0
 25 24  2  0
 25 26  1  0
 26 27  2  0
 27 28  1  0
 29 28  2  0
 30 32  1  0
 30 22  1  0
 31 30  2  0
M  END
$$$$
