YIF.pdb
     RDKit          3D

 32 33  0  0  1  0  0  0  0  0999 V2000
   18.6492  -25.3438  -11.8314 O   0  0  0  0  0  0  0  0  0  0  0  0
   19.1845  -26.4457  -11.1623 C   0  0  0  0  0  0  0  0  0  0  0  0
   20.4546  -26.8714  -11.4386 C   0  0  0  0  0  0  0  0  0  0  0  0
   21.0129  -27.9382  -10.8106 C   0  0  0  0  0  0  0  0  0  0  0  0
   20.2901  -28.6225   -9.8637 C   0  0  0  0  0  0  0  0  0  0  0  0
   20.8854  -29.7837   -9.2070 C   0  0  0  0  0  0  0  0  0  0  0  0
   21.3066  -30.8158  -10.2086 C   0  0  2  0  0  0  0  0  0  0  0  0
   20.1023  -31.4097  -10.8139 N   0  0  0  0  0  0  0  0  0  0  0  0
   22.0289  -31.9095   -9.5240 C   0  0  0  0  0  0  0  0  0  0  0  0
   21.3502  -32.8983   -9.1217 O   0  0  0  0  0  0  0  0  0  0  0  0
   19.0111  -28.2313   -9.5539 C   0  0  0  0  0  0  0  0  0  0  0  0
   18.4732  -27.1453  -10.2083 C   0  0  0  0  0  0  0  0  0  0  0  0
   26.5114  -33.6947  -11.5433 C   0  0  0  0  0  0  0  0  0  0  0  0
   25.2344  -33.6561  -10.7680 C   0  0  0  0  0  0  0  0  0  0  0  0
   25.4568  -33.2100   -9.3269 C   0  0  2  0  0  0  0  0  0  0  0  0
   26.3732  -34.1161   -8.5912 C   0  0  0  0  0  0  0  0  0  0  0  0
   24.1362  -33.0111   -8.6237 C   0  0  2  0  0  0  0  0  0  0  0  0
   23.4192  -31.8922   -9.3046 N   0  0  0  0  0  0  0  0  0  0  0  0
   24.2666  -32.6943   -7.1956 C   0  0  0  0  0  0  0  0  0  0  0  0
   24.7411  -31.5446   -6.8793 O   0  0  0  0  0  0  0  0  0  0  0  0
   23.9300  -33.4982   -6.0973 N   0  0  0  0  0  0  0  0  0  0  0  0
   23.9767  -33.0466   -4.7017 C   0  0  1  0  0  0  0  0  0  0  0  0
   23.0579  -31.8901   -4.4738 C   0  0  0  0  0  0  0  0  0  0  0  0
   21.6592  -32.3566   -4.4607 C   0  0  0  0  0  0  0  0  0  0  0  0
   20.7876  -32.1633   -5.4963 C   0  0  0  0  0  0  0  0  0  0  0  0
   19.4977  -32.6108   -5.4503 C   0  0  0  0  0  0  0  0  0  0  0  0
   19.0538  -33.2840   -4.3170 C   0  0  0  0  0  0  0  0  0  0  0  0
   19.8920  -33.5034   -3.2491 C   0  0  0  0  0  0  0  0  0  0  0  0
   21.1900  -33.0261   -3.3538 C   0  0  0  0  0  0  0  0  0  0  0  0
   23.8012  -34.1674   -3.7721 C   0  0  0  0  0  0  0  0  0  0  0  0
   23.9984  -33.9802   -2.5463 O   0  0  0  0  0  0  0  0  0  0  0  0
   23.4260  -35.4407   -4.1456 O   0  0  0  0  0  0  0  0  0  0  0  0
  2  1  1  0
  3  2  2  0
  4  3  1  0
  5 11  1  0
  5  4  2  0
  6  5  1  0
  7  8  1  1
  7  6  1  0
  9 10  2  0
  9  7  1  0
 11 12  2  0
 12  2  1  0
 14 13  1  0
 15 14  1  0
 15 16  1  1
 17 15  1  0
 17 18  1  6
 18  9  1  0
 19 17  1  0
 20 19  2  0
 21 19  1  0
 22 23  1  6
 22 21  1  0
 23 24  1  0
 24 29  1  0
 25 24  2  0
 25 26  1  0
 26 27  2  0
 27 28  1  0
 29 28  2  0
 30 32  1  0
 30 22  1  0
 31 30  2  0
M  END
$$$$
