YIF.pdb
     RDKit          3D

 32 33  0  0  1  0  0  0  0  0999 V2000
   15.4172  -22.0067   -1.5009 O   0  0  0  0  0  0  0  0  0  0  0  0
   15.4821  -21.3049   -0.2961 C   0  0  0  0  0  0  0  0  0  0  0  0
   14.3628  -20.7104    0.2182 C   0  0  0  0  0  0  0  0  0  0  0  0
   14.3827  -20.0189    1.3868 C   0  0  0  0  0  0  0  0  0  0  0  0
   15.5591  -19.9042    2.0871 C   0  0  0  0  0  0  0  0  0  0  0  0
   15.5818  -19.1399    3.3318 C   0  0  0  0  0  0  0  0  0  0  0  0
   15.8793  -20.0238    4.5049 C   0  0  2  0  0  0  0  0  0  0  0  0
   14.8356  -21.0590    4.5965 N   0  0  0  0  0  0  0  0  0  0  0  0
   15.8138  -19.2342    5.7535 C   0  0  0  0  0  0  0  0  0  0  0  0
   14.9987  -19.6123    6.6440 O   0  0  0  0  0  0  0  0  0  0  0  0
   16.7079  -20.4842    1.6090 C   0  0  0  0  0  0  0  0  0  0  0  0
   16.6550  -21.1789    0.4210 C   0  0  0  0  0  0  0  0  0  0  0  0
   19.5069  -19.9297    8.5844 C   0  0  0  0  0  0  0  0  0  0  0  0
   18.7936  -18.9898    7.6673 C   0  0  0  0  0  0  0  0  0  0  0  0
   17.4296  -18.5851    8.2157 C   0  0  2  0  0  0  0  0  0  0  0  0
   16.5390  -19.7524    8.4301 C   0  0  0  0  0  0  0  0  0  0  0  0
   16.8045  -17.5196    7.3484 C   0  0  2  0  0  0  0  0  0  0  0  0
   16.6089  -18.0959    5.9848 N   0  0  0  0  0  0  0  0  0  0  0  0
   17.6103  -16.2968    7.2377 C   0  0  0  0  0  0  0  0  0  0  0  0
   17.9613  -15.9166    6.0633 O   0  0  0  0  0  0  0  0  0  0  0  0
   18.0592  -15.4606    8.2697 N   0  0  0  0  0  0  0  0  0  0  0  0
   18.4202  -14.0498    8.0878 C   0  0  1  0  0  0  0  0  0  0  0  0
   17.3352  -13.2971    7.3879 C   0  0  0  0  0  0  0  0  0  0  0  0
   17.6597  -13.1669    5.9554 C   0  0  0  0  0  0  0  0  0  0  0  0
   16.9197  -13.7377    4.9573 C   0  0  0  0  0  0  0  0  0  0  0  0
   17.2493  -13.5949    3.6393 C   0  0  0  0  0  0  0  0  0  0  0  0
   18.3712  -12.8468    3.2983 C   0  0  0  0  0  0  0  0  0  0  0  0
   19.1477  -12.2527    4.2654 C   0  0  0  0  0  0  0  0  0  0  0  0
   18.7633  -12.4328    5.5858 C   0  0  0  0  0  0  0  0  0  0  0  0
   18.8761  -13.4492    9.3459 C   0  0  0  0  0  0  0  0  0  0  0  0
   18.5826  -14.0088   10.4309 O   0  0  0  0  0  0  0  0  0  0  0  0
   19.6210  -12.2921    9.4343 O   0  0  0  0  0  0  0  0  0  0  0  0
  2  1  1  0
  3  2  2  0
  4  3  1  0
  5 11  1  0
  5  4  2  0
  6  5  1  0
  7  8  1  1
  7  6  1  0
  9 10  2  0
  9  7  1  0
 11 12  2  0
 12  2  1  0
 14 13  1  0
 15 14  1  0
 15 16  1  6
 17 15  1  0
 17 18  1  6
 18  9  1  0
 19 17  1  0
 20 19  2  0
 21 19  1  0
 22 23  1  1
 22 21  1  0
 23 24  1  0
 24 29  1  0
 25 24  2  0
 25 26  1  0
 26 27  2  0
 27 28  1  0
 29 28  2  0
 30 32  1  0
 30 22  1  0
 31 30  2  0
M  END
$$$$
