YIF.pdb
     RDKit          3D

 32 33  0  0  1  0  0  0  0  0999 V2000
   17.0784  -18.9705  -14.9699 O   0  0  0  0  0  0  0  0  0  0  0  0
   18.2321  -19.5975  -14.4963 C   0  0  0  0  0  0  0  0  0  0  0  0
   19.0436  -18.9626  -13.5968 C   0  0  0  0  0  0  0  0  0  0  0  0
   20.1743  -19.5369  -13.1112 C   0  0  0  0  0  0  0  0  0  0  0  0
   20.5278  -20.7973  -13.5281 C   0  0  0  0  0  0  0  0  0  0  0  0
   21.7570  -21.4025  -13.0214 C   0  0  0  0  0  0  0  0  0  0  0  0
   22.9604  -20.8600  -13.7310 C   0  0  2  0  0  0  0  0  0  0  0  0
   22.9462  -21.3382  -15.1240 N   0  0  0  0  0  0  0  0  0  0  0  0
   24.1902  -21.3920  -13.1053 C   0  0  0  0  0  0  0  0  0  0  0  0
   24.4532  -22.6172  -13.2787 O   0  0  0  0  0  0  0  0  0  0  0  0
   19.7437  -21.4726  -14.4302 C   0  0  0  0  0  0  0  0  0  0  0  0
   18.6031  -20.8631  -14.9040 C   0  0  0  0  0  0  0  0  0  0  0  0
   28.7685  -19.4723  -14.0239 C   0  0  0  0  0  0  0  0  0  0  0  0
   27.5732  -20.2568  -13.5888 C   0  0  0  0  0  0  0  0  0  0  0  0
   27.4604  -20.3266  -12.0697 C   0  0  2  0  0  0  0  0  0  0  0  0
   28.7248  -20.7668  -11.4300 C   0  0  0  0  0  0  0  0  0  0  0  0
   26.2728  -21.1652  -11.6644 C   0  0  2  0  0  0  0  0  0  0  0  0
   25.0639  -20.6013  -12.3354 N   0  0  0  0  0  0  0  0  0  0  0  0
   26.0396  -21.2017  -10.2149 C   0  0  0  0  0  0  0  0  0  0  0  0
   25.8744  -22.3494   -9.6648 O   0  0  0  0  0  0  0  0  0  0  0  0
   25.9746  -20.1227   -9.3220 N   0  0  0  0  0  0  0  0  0  0  0  0
   26.4958  -20.1565   -7.9506 C   0  0  1  0  0  0  0  0  0  0  0  0
   27.9338  -20.5629   -7.9256 C   0  0  0  0  0  0  0  0  0  0  0  0
   28.4806  -20.3870   -6.5676 C   0  0  0  0  0  0  0  0  0  0  0  0
   28.4446  -19.2028   -5.8851 C   0  0  0  0  0  0  0  0  0  0  0  0
   28.9603  -19.0763   -4.6265 C   0  0  0  0  0  0  0  0  0  0  0  0
   29.5404  -20.1840   -4.0172 C   0  0  0  0  0  0  0  0  0  0  0  0
   29.6008  -21.3970   -4.6620 C   0  0  0  0  0  0  0  0  0  0  0  0
   29.0609  -21.4642   -5.9378 C   0  0  0  0  0  0  0  0  0  0  0  0
   26.1928  -18.9133   -7.2337 C   0  0  0  0  0  0  0  0  0  0  0  0
   25.5468  -18.9707   -6.1586 O   0  0  0  0  0  0  0  0  0  0  0  0
   26.5715  -17.6562   -7.6555 O   0  0  0  0  0  0  0  0  0  0  0  0
  2  1  1  0
  3  2  2  0
  4  3  1  0
  5 11  1  0
  5  4  2  0
  6  5  1  0
  7  8  1  6
  7  6  1  0
  9 10  2  0
  9  7  1  0
 11 12  2  0
 12  2  1  0
 14 13  1  0
 15 14  1  0
 15 16  1  1
 17 15  1  0
 17 18  1  6
 18  9  1  0
 19 17  1  0
 20 19  2  0
 21 19  1  0
 22 23  1  6
 22 21  1  0
 23 24  1  0
 24 29  1  0
 25 24  2  0
 25 26  1  0
 26 27  2  0
 27 28  1  0
 29 28  2  0
 30 32  1  0
 30 22  1  0
 31 30  2  0
M  END
$$$$
