YIF.pdb
     RDKit          3D

 32 33  0  0  1  0  0  0  0  0999 V2000
   17.2955  -14.0322  -16.1205 O   0  0  0  0  0  0  0  0  0  0  0  0
   18.3110  -14.9622  -15.8917 C   0  0  0  0  0  0  0  0  0  0  0  0
   19.5902  -14.5426  -15.6503 C   0  0  0  0  0  0  0  0  0  0  0  0
   20.6068  -15.4139  -15.4227 C   0  0  0  0  0  0  0  0  0  0  0  0
   20.3572  -16.7647  -15.4321 C   0  0  0  0  0  0  0  0  0  0  0  0
   21.4575  -17.6995  -15.2101 C   0  0  0  0  0  0  0  0  0  0  0  0
   22.4642  -17.6244  -16.3178 C   0  0  2  0  0  0  0  0  0  0  0  0
   21.8211  -18.0469  -17.5736 N   0  0  0  0  0  0  0  0  0  0  0  0
   23.5655  -18.5759  -16.0562 C   0  0  0  0  0  0  0  0  0  0  0  0
   23.3482  -19.8010  -16.2847 O   0  0  0  0  0  0  0  0  0  0  0  0
   19.0884  -17.2320  -15.6703 C   0  0  0  0  0  0  0  0  0  0  0  0
   18.0790  -16.3230  -15.8975 C   0  0  0  0  0  0  0  0  0  0  0  0
   28.1796  -17.8773  -18.2136 C   0  0  0  0  0  0  0  0  0  0  0  0
   26.9632  -18.4096  -17.5278 C   0  0  0  0  0  0  0  0  0  0  0  0
   27.1772  -18.5608  -16.0256 C   0  0  2  0  0  0  0  0  0  0  0  0
   28.4143  -19.3150  -15.7054 C   0  0  0  0  0  0  0  0  0  0  0  0
   25.9476  -19.1420  -15.3709 C   0  0  2  0  0  0  0  0  0  0  0  0
   24.8247  -18.1780  -15.5690 N   0  0  0  0  0  0  0  0  0  0  0  0
   26.1066  -19.3995  -13.9338 C   0  0  0  0  0  0  0  0  0  0  0  0
   26.4726  -18.4211  -13.1883 O   0  0  0  0  0  0  0  0  0  0  0  0
   25.9035  -20.6026  -13.2432 N   0  0  0  0  0  0  0  0  0  0  0  0
   26.2266  -20.8027  -11.8257 C   0  0  1  0  0  0  0  0  0  0  0  0
   25.7002  -19.6846  -10.9853 C   0  0  0  0  0  0  0  0  0  0  0  0
   26.0309  -19.9243   -9.5684 C   0  0  0  0  0  0  0  0  0  0  0  0
   25.3099  -20.7518   -8.7529 C   0  0  0  0  0  0  0  0  0  0  0  0
   25.6462  -20.9516   -7.4441 C   0  0  0  0  0  0  0  0  0  0  0  0
   26.7555  -20.2950   -6.9215 C   0  0  0  0  0  0  0  0  0  0  0  0
   27.5129  -19.4526   -7.7011 C   0  0  0  0  0  0  0  0  0  0  0  0
   27.1226  -19.2895   -9.0219 C   0  0  0  0  0  0  0  0  0  0  0  0
   25.8455  -22.1457  -11.3760 C   0  0  0  0  0  0  0  0  0  0  0  0
   26.6869  -22.8445  -10.7593 O   0  0  0  0  0  0  0  0  0  0  0  0
   24.6064  -22.7155  -11.5797 O   0  0  0  0  0  0  0  0  0  0  0  0
  2  1  1  0
  3  2  2  0
  4  3  1  0
  5 11  1  0
  5  4  2  0
  6  5  1  0
  7  8  1  6
  7  6  1  0
  9 10  2  0
  9  7  1  0
 11 12  2  0
 12  2  1  0
 14 13  1  0
 15 14  1  0
 15 16  1  6
 17 15  1  0
 17 18  1  1
 18  9  1  0
 19 17  1  0
 20 19  2  0
 21 19  1  0
 22 23  1  1
 22 21  1  0
 23 24  1  0
 24 29  1  0
 25 24  2  0
 25 26  1  0
 26 27  2  0
 27 28  1  0
 29 28  2  0
 30 32  1  0
 30 22  1  0
 31 30  2  0
M  END
$$$$
