IAG.pdb
     RDKit          3D

 18 17  0  0  1  0  0  0  0  0999 V2000
    6.1634  -11.4769   26.9569 C   0  0  0  0  0  0  0  0  0  0  0  0
    5.8566  -12.8232   26.4018 C   0  0  0  0  0  0  0  0  0  0  0  0
    7.0748  -13.5745   25.8788 C   0  0  2  0  0  0  0  0  0  0  0  0
    7.6811  -12.6697   24.8275 C   0  0  0  0  0  0  0  0  0  0  0  0
    6.5706  -14.8543   25.2472 C   0  0  2  0  0  0  0  0  0  0  0  0
    5.9971  -15.6576   26.3324 N   0  0  0  0  0  0  0  0  0  0  0  0
    7.6020  -15.6535   24.5879 C   0  0  0  0  0  0  0  0  0  0  0  0
    8.4792  -16.2582   25.2997 O   0  0  0  0  0  0  0  0  0  0  0  0
    8.6823  -16.7974   21.1323 C   0  0  0  0  0  0  0  0  0  0  0  0
    8.8761  -16.5323   22.5884 C   0  0  2  0  0  0  0  0  0  0  0  0
    7.7549  -15.8498   23.1941 N   0  0  0  0  0  0  0  0  0  0  0  0
   10.1446  -15.7942   22.7738 C   0  0  0  0  0  0  0  0  0  0  0  0
   10.2233  -14.6100   22.3821 O   0  0  0  0  0  0  0  0  0  0  0  0
   11.2698  -16.3942   23.3826 N   0  0  0  0  0  0  0  0  0  0  0  0
   12.5240  -15.6829   23.5917 C   0  0  0  0  0  0  0  0  0  0  0  0
   13.6571  -16.4392   22.9777 C   0  0  0  0  0  0  0  0  0  0  0  0
   14.9449  -16.0701   23.2860 O   0  0  0  0  0  0  0  0  0  0  0  0
   13.4617  -17.3834   22.2037 O   0  0  0  0  0  0  0  0  0  0  0  0
  2  1  1  0
  3  2  1  0
  3  4  1  6
  5  7  1  0
  5  3  1  0
  5  6  1  1
  7  8  2  0
 10  9  1  6
 10 12  1  0
 11 10  1  0
 11  7  1  0
 12 13  2  0
 12 14  1  0
 14 15  1  0
 15 16  1  0
 16 18  2  0
 16 17  1  0
M  END
$$$$
