IAG.pdb
     RDKit          3D

 18 17  0  0  1  0  0  0  0  0999 V2000
    6.1206  -11.5707   27.3855 C   0  0  0  0  0  0  0  0  0  0  0  0
    5.7906  -12.8335   26.6704 C   0  0  0  0  0  0  0  0  0  0  0  0
    6.9958  -13.5366   26.0580 C   0  0  2  0  0  0  0  0  0  0  0  0
    7.6306  -12.5144   25.1397 C   0  0  0  0  0  0  0  0  0  0  0  0
    6.4681  -14.7090   25.2592 C   0  0  2  0  0  0  0  0  0  0  0  0
    5.9496  -15.6772   26.2316 N   0  0  0  0  0  0  0  0  0  0  0  0
    7.4710  -15.3845   24.4375 C   0  0  0  0  0  0  0  0  0  0  0  0
    8.3245  -16.1587   24.9977 O   0  0  0  0  0  0  0  0  0  0  0  0
    8.5341  -15.7269   20.8028 C   0  0  0  0  0  0  0  0  0  0  0  0
    8.6356  -15.9728   22.2716 C   0  0  2  0  0  0  0  0  0  0  0  0
    7.6189  -15.2827   23.0332 N   0  0  0  0  0  0  0  0  0  0  0  0
   10.0013  -15.6238   22.7200 C   0  0  0  0  0  0  0  0  0  0  0  0
   10.3396  -14.4214   22.7639 O   0  0  0  0  0  0  0  0  0  0  0  0
   10.9334  -16.6154   23.1002 N   0  0  0  0  0  0  0  0  0  0  0  0
   12.2285  -16.2949   23.6856 C   0  0  0  0  0  0  0  0  0  0  0  0
   13.3307  -16.7377   22.7789 C   0  0  0  0  0  0  0  0  0  0  0  0
   14.1101  -15.7843   22.1681 O   0  0  0  0  0  0  0  0  0  0  0  0
   13.5546  -17.9353   22.5684 O   0  0  0  0  0  0  0  0  0  0  0  0
  2  1  1  0
  3  2  1  0
  3  4  1  6
  5  7  1  0
  5  3  1  0
  5  6  1  1
  7  8  2  0
 10  9  1  6
 10 12  1  0
 11 10  1  0
 11  7  1  0
 12 13  2  0
 12 14  1  0
 14 15  1  0
 15 16  1  0
 16 18  2  0
 16 17  1  0
M  END
$$$$
