IAG.pdb
     RDKit          3D

 18 17  0  0  1  0  0  0  0  0999 V2000
    6.2260  -11.5403   27.5394 C   0  0  0  0  0  0  0  0  0  0  0  0
    5.8146  -12.7899   26.8438 C   0  0  0  0  0  0  0  0  0  0  0  0
    6.9536  -13.5135   26.1359 C   0  0  2  0  0  0  0  0  0  0  0  0
    7.5654  -12.4848   25.2093 C   0  0  0  0  0  0  0  0  0  0  0  0
    6.3358  -14.6419   25.3383 C   0  0  2  0  0  0  0  0  0  0  0  0
    5.8380  -15.6185   26.3132 N   0  0  0  0  0  0  0  0  0  0  0  0
    7.2626  -15.3295   24.4408 C   0  0  0  0  0  0  0  0  0  0  0  0
    8.1230  -16.1436   24.9293 O   0  0  0  0  0  0  0  0  0  0  0  0
    8.1147  -15.5860   20.7437 C   0  0  0  0  0  0  0  0  0  0  0  0
    8.2892  -15.8805   22.1967 C   0  0  2  0  0  0  0  0  0  0  0  0
    7.3264  -15.1992   23.0324 N   0  0  0  0  0  0  0  0  0  0  0  0
    9.6826  -15.5677   22.5824 C   0  0  0  0  0  0  0  0  0  0  0  0
   10.0355  -14.3723   22.6746 O   0  0  0  0  0  0  0  0  0  0  0  0
   10.6249  -16.5862   22.8494 N   0  0  0  0  0  0  0  0  0  0  0  0
   11.9697  -16.3064   23.3350 C   0  0  0  0  0  0  0  0  0  0  0  0
   12.9613  -16.4501   22.2263 C   0  0  0  0  0  0  0  0  0  0  0  0
   14.3001  -16.3321   22.5147 O   0  0  0  0  0  0  0  0  0  0  0  0
   12.6048  -16.6714   21.0632 O   0  0  0  0  0  0  0  0  0  0  0  0
  2  1  1  0
  3  2  1  0
  3  4  1  6
  5  7  1  0
  5  3  1  0
  5  6  1  1
  7  8  2  0
 10  9  1  6
 10 12  1  0
 11 10  1  0
 11  7  1  0
 12 13  2  0
 12 14  1  0
 14 15  1  0
 15 16  1  0
 16 18  2  0
 16 17  1  0
M  END
$$$$
