IAG.pdb
     RDKit          3D

 18 17  0  0  1  0  0  0  0  0999 V2000
    7.3130  -11.9365   20.2722 C   0  0  0  0  0  0  0  0  0  0  0  0
    7.1391  -13.3530   20.6943 C   0  0  0  0  0  0  0  0  0  0  0  0
    8.4358  -14.1517   20.7468 C   0  0  2  0  0  0  0  0  0  0  0  0
    8.9255  -14.2128   19.3158 C   0  0  0  0  0  0  0  0  0  0  0  0
    8.0847  -15.5372   21.2447 C   0  0  2  0  0  0  0  0  0  0  0  0
    6.8400  -15.4032   22.0094 N   0  0  0  0  0  0  0  0  0  0  0  0
    9.0899  -16.1418   22.1173 C   0  0  0  0  0  0  0  0  0  0  0  0
    9.0567  -15.9008   23.3753 O   0  0  0  0  0  0  0  0  0  0  0  0
   11.6677  -18.8553   22.2201 C   0  0  0  0  0  0  0  0  0  0  0  0
   11.1551  -17.5115   22.6196 C   0  0  2  0  0  0  0  0  0  0  0  0
   10.1431  -17.0014   21.7221 N   0  0  0  0  0  0  0  0  0  0  0  0
   12.3004  -16.5849   22.7530 C   0  0  0  0  0  0  0  0  0  0  0  0
   12.6444  -15.8956   21.7688 O   0  0  0  0  0  0  0  0  0  0  0  0
   13.0155  -16.4591   23.9653 N   0  0  0  0  0  0  0  0  0  0  0  0
   14.1141  -15.5177   24.1367 C   0  0  0  0  0  0  0  0  0  0  0  0
   15.3914  -16.1165   23.6439 C   0  0  0  0  0  0  0  0  0  0  0  0
   16.5475  -15.3783   23.7330 O   0  0  0  0  0  0  0  0  0  0  0  0
   15.4295  -17.2541   23.1610 O   0  0  0  0  0  0  0  0  0  0  0  0
  2  1  1  0
  3  2  1  0
  3  4  1  6
  5  7  1  0
  5  3  1  0
  5  6  1  1
  7  8  2  0
 10  9  1  6
 10 12  1  0
 11 10  1  0
 11  7  1  0
 12 13  2  0
 12 14  1  0
 14 15  1  0
 15 16  1  0
 16 18  2  0
 16 17  1  0
M  END
$$$$
