IAG.pdb
     RDKit          3D

 18 17  0  0  1  0  0  0  0  0999 V2000
    7.6299  -12.1500   19.3814 C   0  0  0  0  0  0  0  0  0  0  0  0
    7.2685  -13.5385   19.7768 C   0  0  0  0  0  0  0  0  0  0  0  0
    7.4129  -13.8200   21.2675 C   0  0  2  0  0  0  0  0  0  0  0  0
    8.8874  -13.6511   21.5649 C   0  0  0  0  0  0  0  0  0  0  0  0
    6.9897  -15.2558   21.4918 C   0  0  2  0  0  0  0  0  0  0  0  0
    5.6122  -15.3669   20.9996 N   0  0  0  0  0  0  0  0  0  0  0  0
    7.0072  -15.6827   22.8899 C   0  0  0  0  0  0  0  0  0  0  0  0
    6.5014  -14.9196   23.7864 O   0  0  0  0  0  0  0  0  0  0  0  0
    6.8239  -18.1609   25.3685 C   0  0  0  0  0  0  0  0  0  0  0  0
    7.7689  -17.1556   24.7988 C   0  0  2  0  0  0  0  0  0  0  0  0
    7.5391  -16.8933   23.3959 N   0  0  0  0  0  0  0  0  0  0  0  0
    9.1546  -17.6009   25.0631 C   0  0  0  0  0  0  0  0  0  0  0  0
    9.4849  -17.9047   26.2296 O   0  0  0  0  0  0  0  0  0  0  0  0
   10.1145  -17.6915   24.0301 N   0  0  0  0  0  0  0  0  0  0  0  0
   11.4529  -18.2255   24.2443 C   0  0  0  0  0  0  0  0  0  0  0  0
   12.3873  -17.1334   24.6534 C   0  0  0  0  0  0  0  0  0  0  0  0
   13.1289  -16.4983   23.6858 O   0  0  0  0  0  0  0  0  0  0  0  0
   12.5062  -16.7918   25.8357 O   0  0  0  0  0  0  0  0  0  0  0  0
  2  1  1  0
  3  2  1  0
  3  4  1  6
  5  7  1  0
  5  3  1  0
  5  6  1  1
  7  8  2  0
 10  9  1  6
 10 12  1  0
 11 10  1  0
 11  7  1  0
 12 13  2  0
 12 14  1  0
 14 15  1  0
 15 16  1  0
 16 18  2  0
 16 17  1  0
M  END
$$$$
