IAG.pdb
     RDKit          3D

 18 17  0  0  1  0  0  0  0  0999 V2000
    6.2438  -11.4888   26.5878 C   0  0  0  0  0  0  0  0  0  0  0  0
    6.6855  -12.8971   26.3971 C   0  0  0  0  0  0  0  0  0  0  0  0
    7.2045  -13.2039   24.9976 C   0  0  2  0  0  0  0  0  0  0  0  0
    5.9856  -13.1607   24.1012 C   0  0  0  0  0  0  0  0  0  0  0  0
    7.7839  -14.6017   25.0347 C   0  0  2  0  0  0  0  0  0  0  0  0
    6.7863  -15.4498   25.6960 N   0  0  0  0  0  0  0  0  0  0  0  0
    9.0399  -14.7191   25.7734 C   0  0  0  0  0  0  0  0  0  0  0  0
   10.1434  -14.4395   25.1853 O   0  0  0  0  0  0  0  0  0  0  0  0
   10.5001  -14.7155   29.1546 C   0  0  0  0  0  0  0  0  0  0  0  0
   10.4665  -15.2960   27.7798 C   0  0  2  0  0  0  0  0  0  0  0  0
    9.1909  -15.1219   27.1223 N   0  0  0  0  0  0  0  0  0  0  0  0
   10.8666  -16.7182   27.8531 C   0  0  0  0  0  0  0  0  0  0  0  0
   10.3499  -17.4525   28.7225 O   0  0  0  0  0  0  0  0  0  0  0  0
   11.8183  -17.2679   26.9649 N   0  0  0  0  0  0  0  0  0  0  0  0
   11.9756  -18.7030   26.7698 C   0  0  0  0  0  0  0  0  0  0  0  0
   13.0222  -19.2396   27.6916 C   0  0  0  0  0  0  0  0  0  0  0  0
   14.1881  -19.7326   27.1558 O   0  0  0  0  0  0  0  0  0  0  0  0
   12.8622  -19.2491   28.9176 O   0  0  0  0  0  0  0  0  0  0  0  0
  2  1  1  0
  3  2  1  0
  3  4  1  6
  5  7  1  0
  5  3  1  0
  5  6  1  1
  7  8  2  0
 10  9  1  1
 10 12  1  0
 11 10  1  0
 11  7  1  0
 12 13  2  0
 12 14  1  0
 14 15  1  0
 15 16  1  0
 16 18  2  0
 16 17  1  0
M  END
$$$$
