IAG.pdb
     RDKit          3D

 18 17  0  0  1  0  0  0  0  0999 V2000
    7.0584  -12.0971   19.5132 C   0  0  0  0  0  0  0  0  0  0  0  0
    7.7262  -13.2042   18.7761 C   0  0  0  0  0  0  0  0  0  0  0  0
    8.3316  -14.2757   19.6748 C   0  0  2  0  0  0  0  0  0  0  0  0
    9.4234  -13.5736   20.4535 C   0  0  0  0  0  0  0  0  0  0  0  0
    8.9251  -15.3327   18.7686 C   0  0  2  0  0  0  0  0  0  0  0  0
    7.8330  -15.8113   17.9141 N   0  0  0  0  0  0  0  0  0  0  0  0
    9.4910  -16.4847   19.4686 C   0  0  0  0  0  0  0  0  0  0  0  0
    8.7059  -17.3778   19.9459 O   0  0  0  0  0  0  0  0  0  0  0  0
   12.4898  -18.5790   19.6288 C   0  0  0  0  0  0  0  0  0  0  0  0
   11.3694  -17.9213   20.3638 C   0  0  2  0  0  0  0  0  0  0  0  0
   10.8646  -16.7449   19.6923 N   0  0  0  0  0  0  0  0  0  0  0  0
   11.8122  -17.6284   21.7445 C   0  0  0  0  0  0  0  0  0  0  0  0
   12.1060  -18.5763   22.5042 O   0  0  0  0  0  0  0  0  0  0  0  0
   11.9114  -16.3038   22.2264 N   0  0  0  0  0  0  0  0  0  0  0  0
   12.2775  -15.9922   23.6017 C   0  0  0  0  0  0  0  0  0  0  0  0
   13.7641  -15.9292   23.7406 C   0  0  0  0  0  0  0  0  0  0  0  0
   14.3016  -15.5442   24.9457 O   0  0  0  0  0  0  0  0  0  0  0  0
   14.5151  -16.2142   22.8006 O   0  0  0  0  0  0  0  0  0  0  0  0
  2  1  1  0
  3  2  1  0
  3  4  1  6
  5  7  1  0
  5  3  1  0
  5  6  1  6
  7  8  2  0
 10  9  1  6
 10 12  1  0
 11 10  1  0
 11  7  1  0
 12 13  2  0
 12 14  1  0
 14 15  1  0
 15 16  1  0
 16 18  2  0
 16 17  1  0
M  END
$$$$
