PYI.pdb
     RDKit          3D

 28 29  0  0  1  0  0  0  0  0999 V2000
   27.4609  -20.9792  -15.5741 N   0  0  0  0  0  0  0  0  0  0  0  0
   28.2841  -20.8221  -16.7830 C   0  0  0  0  0  0  0  0  0  0  0  0
   28.4164  -19.3154  -16.9643 C   0  0  0  0  0  0  0  0  0  0  0  0
   27.8595  -18.7241  -15.6842 C   0  0  0  0  0  0  0  0  0  0  0  0
   27.9808  -19.9062  -14.7564 C   0  0  1  0  0  0  0  0  0  0  0  0
   27.2846  -19.7463  -13.4878 C   0  0  0  0  0  0  0  0  0  0  0  0
   27.5418  -18.7761  -12.7395 O   0  0  0  0  0  0  0  0  0  0  0  0
   21.4835  -18.0229  -16.7734 O   0  0  0  0  0  0  0  0  0  0  0  0
   22.0954  -18.7490  -15.7543 C   0  0  0  0  0  0  0  0  0  0  0  0
   22.8637  -19.8646  -16.0139 C   0  0  0  0  0  0  0  0  0  0  0  0
   23.4814  -20.6027  -15.0232 C   0  0  0  0  0  0  0  0  0  0  0  0
   23.3461  -20.2369  -13.7048 C   0  0  0  0  0  0  0  0  0  0  0  0
   23.9640  -20.9333  -12.5840 C   0  0  0  0  0  0  0  0  0  0  0  0
   25.2409  -20.3466  -12.0963 C   0  0  2  0  0  0  0  0  0  0  0  0
   26.3091  -20.6947  -13.0969 N   0  0  0  0  0  0  0  0  0  0  0  0
   25.6998  -20.9452  -10.8527 C   0  0  0  0  0  0  0  0  0  0  0  0
   26.0165  -22.1932  -10.8557 O   0  0  0  0  0  0  0  0  0  0  0  0
   22.5803  -19.1221  -13.4223 C   0  0  0  0  0  0  0  0  0  0  0  0
   21.9756  -18.4043  -14.4249 C   0  0  0  0  0  0  0  0  0  0  0  0
   27.6333  -18.4837   -5.9622 C   0  0  0  0  0  0  0  0  0  0  0  0
   26.8780  -18.8914   -7.1816 C   0  0  0  0  0  0  0  0  0  0  0  0
   27.1878  -20.2248   -7.7378 C   0  0  2  0  0  0  0  0  0  0  0  0
   28.4952  -20.3042   -8.5067 C   0  0  0  0  0  0  0  0  0  0  0  0
   26.0851  -20.9947   -8.3905 C   0  0  2  0  0  0  0  0  0  0  0  0
   25.8292  -20.2449   -9.6505 N   0  0  0  0  0  0  0  0  0  0  0  0
   24.8915  -21.2307   -7.6204 C   0  0  0  0  0  0  0  0  0  0  0  0
   23.6540  -20.7315   -7.9608 O   0  0  0  0  0  0  0  0  0  0  0  0
   24.9371  -21.9234   -6.5726 O   0  0  0  0  0  0  0  0  0  0  0  0
  1  2  1  0
  3  2  1  0
  4  5  1  0
  4  3  1  0
  5  1  1  0
  6 15  1  0
  5  6  1  1
  7  6  2  0
  9  8  1  0
 10  9  2  0
 11 10  1  0
 12 11  2  0
 12 18  1  0
 14 13  1  6
 13 12  1  0
 14 15  1  0
 16 17  2  0
 16 14  1  0
 18 19  2  0
 19  9  1  0
 21 20  1  0
 21 22  1  0
 22 23  1  6
 24 22  1  0
 24 25  1  6
 25 16  1  0
 26 24  1  0
 27 26  1  0
 28 26  2  0
M  END
$$$$
