PYI.pdb
     RDKit          3D

 28 29  0  0  1  0  0  0  0  0999 V2000
   26.9394  -22.4018  -17.1219 N   0  0  0  0  0  0  0  0  0  0  0  0
   27.8218  -23.0537  -18.1018 C   0  0  0  0  0  0  0  0  0  0  0  0
   29.1399  -22.2978  -17.9941 C   0  0  0  0  0  0  0  0  0  0  0  0
   28.9819  -21.4233  -16.7657 C   0  0  0  0  0  0  0  0  0  0  0  0
   27.8737  -22.1506  -16.0476 C   0  0  1  0  0  0  0  0  0  0  0  0
   27.2986  -21.4142  -14.9312 C   0  0  0  0  0  0  0  0  0  0  0  0
   28.0056  -21.0950  -13.9485 O   0  0  0  0  0  0  0  0  0  0  0  0
   19.8001  -22.0478  -16.5251 O   0  0  0  0  0  0  0  0  0  0  0  0
   20.9414  -21.3498  -16.1374 C   0  0  0  0  0  0  0  0  0  0  0  0
   22.0580  -21.2730  -16.9432 C   0  0  0  0  0  0  0  0  0  0  0  0
   23.2024  -20.5881  -16.5840 C   0  0  0  0  0  0  0  0  0  0  0  0
   23.2667  -19.9401  -15.3731 C   0  0  0  0  0  0  0  0  0  0  0  0
   24.4155  -19.1784  -14.9008 C   0  0  0  0  0  0  0  0  0  0  0  0
   25.3982  -19.9463  -14.0902 C   0  0  2  0  0  0  0  0  0  0  0  0
   25.9294  -21.0559  -14.9563 N   0  0  0  0  0  0  0  0  0  0  0  0
   24.7884  -20.6287  -12.9597 C   0  0  0  0  0  0  0  0  0  0  0  0
   24.3977  -21.8452  -13.1187 O   0  0  0  0  0  0  0  0  0  0  0  0
   22.1589  -20.0044  -14.5498 C   0  0  0  0  0  0  0  0  0  0  0  0
   21.0322  -20.6920  -14.9292 C   0  0  0  0  0  0  0  0  0  0  0  0
   27.1320  -20.3324   -8.4253 C   0  0  0  0  0  0  0  0  0  0  0  0
   26.2574  -20.8983   -9.4923 C   0  0  0  0  0  0  0  0  0  0  0  0
   24.8213  -20.5575   -9.4217 C   0  0  2  0  0  0  0  0  0  0  0  0
   24.1440  -20.9285   -8.1139 C   0  0  0  0  0  0  0  0  0  0  0  0
   23.9666  -20.8374  -10.6158 C   0  0  2  0  0  0  0  0  0  0  0  0
   24.6082  -20.0475  -11.7018 N   0  0  0  0  0  0  0  0  0  0  0  0
   22.5532  -20.5897  -10.4955 C   0  0  0  0  0  0  0  0  0  0  0  0
   21.6685  -21.4821   -9.9322 O   0  0  0  0  0  0  0  0  0  0  0  0
   22.0579  -19.5137  -10.9159 O   0  0  0  0  0  0  0  0  0  0  0  0
  1  2  1  0
  3  2  1  0
  4  5  1  0
  4  3  1  0
  5  1  1  0
  6 15  1  0
  5  6  1  1
  7  6  2  0
  9  8  1  0
 10  9  2  0
 11 10  1  0
 12 11  2  0
 12 18  1  0
 14 13  1  6
 13 12  1  0
 14 15  1  0
 16 17  2  0
 16 14  1  0
 18 19  2  0
 19  9  1  0
 21 20  1  0
 21 22  1  0
 22 23  1  1
 24 22  1  0
 24 25  1  6
 25 16  1  0
 26 24  1  0
 27 26  1  0
 28 26  2  0
M  END
$$$$
