PYI.pdb
     RDKit          3D

 28 29  0  0  1  0  0  0  0  0999 V2000
   28.6322  -21.3715  -17.3266 N   0  0  0  0  0  0  0  0  0  0  0  0
   29.7154  -21.3974  -18.3215 C   0  0  0  0  0  0  0  0  0  0  0  0
   29.8927  -19.9418  -18.7341 C   0  0  0  0  0  0  0  0  0  0  0  0
   29.0550  -19.1571  -17.7437 C   0  0  0  0  0  0  0  0  0  0  0  0
   28.9515  -20.1532  -16.6167 C   0  0  1  0  0  0  0  0  0  0  0  0
   27.9792  -19.8000  -15.5923 C   0  0  0  0  0  0  0  0  0  0  0  0
   28.1033  -18.7410  -14.9362 O   0  0  0  0  0  0  0  0  0  0  0  0
   19.6141  -19.1247  -12.6931 O   0  0  0  0  0  0  0  0  0  0  0  0
   20.8095  -19.4923  -13.3064 C   0  0  0  0  0  0  0  0  0  0  0  0
   21.3915  -20.7237  -13.0899 C   0  0  0  0  0  0  0  0  0  0  0  0
   22.5755  -21.1140  -13.6846 C   0  0  0  0  0  0  0  0  0  0  0  0
   23.2322  -20.2601  -14.5390 C   0  0  0  0  0  0  0  0  0  0  0  0
   24.4764  -20.5736  -15.2296 C   0  0  0  0  0  0  0  0  0  0  0  0
   25.7192  -20.2097  -14.4979 C   0  0  2  0  0  0  0  0  0  0  0  0
   26.8849  -20.6604  -15.3355 N   0  0  0  0  0  0  0  0  0  0  0  0
   25.8707  -20.9338  -13.2456 C   0  0  0  0  0  0  0  0  0  0  0  0
   26.1182  -22.1964  -13.2960 O   0  0  0  0  0  0  0  0  0  0  0  0
   22.6665  -19.0209  -14.7700 C   0  0  0  0  0  0  0  0  0  0  0  0
   21.4881  -18.6554  -14.1665 C   0  0  0  0  0  0  0  0  0  0  0  0
   27.0841  -19.2643   -7.7984 C   0  0  0  0  0  0  0  0  0  0  0  0
   26.3926  -19.4355   -9.1085 C   0  0  0  0  0  0  0  0  0  0  0  0
   26.6621  -20.6903   -9.8409 C   0  0  2  0  0  0  0  0  0  0  0  0
   28.0677  -20.8074  -10.4042 C   0  0  0  0  0  0  0  0  0  0  0  0
   25.6177  -21.2014  -10.7803 C   0  0  2  0  0  0  0  0  0  0  0  0
   25.7744  -20.3404  -11.9842 N   0  0  0  0  0  0  0  0  0  0  0  0
   24.2616  -21.2606  -10.2999 C   0  0  0  0  0  0  0  0  0  0  0  0
   23.8308  -22.1513   -9.3420 O   0  0  0  0  0  0  0  0  0  0  0  0
   23.3911  -20.4756  -10.7537 O   0  0  0  0  0  0  0  0  0  0  0  0
  1  2  1  0
  3  2  1  0
  4  5  1  0
  4  3  1  0
  5  1  1  0
  6 15  1  0
  5  6  1  1
  7  6  2  0
  9  8  1  0
 10  9  2  0
 11 10  1  0
 12 11  2  0
 12 18  1  0
 14 13  1  6
 13 12  1  0
 14 15  1  0
 16 17  2  0
 16 14  1  0
 18 19  2  0
 19  9  1  0
 21 20  1  0
 21 22  1  0
 22 23  1  6
 24 22  1  0
 24 25  1  6
 25 16  1  0
 26 24  1  0
 27 26  1  0
 28 26  2  0
M  END
$$$$
