PYI.pdb
     RDKit          3D

 28 29  0  0  1  0  0  0  0  0999 V2000
   28.0844  -21.5639  -18.3553 N   0  0  0  0  0  0  0  0  0  0  0  0
   29.3685  -21.8708  -19.0040 C   0  0  0  0  0  0  0  0  0  0  0  0
   30.0759  -20.5260  -19.1107 C   0  0  0  0  0  0  0  0  0  0  0  0
   29.2335  -19.5816  -18.2759 C   0  0  0  0  0  0  0  0  0  0  0  0
   28.5018  -20.5645  -17.3977 C   0  0  1  0  0  0  0  0  0  0  0  0
   27.4030  -19.9865  -16.6375 C   0  0  0  0  0  0  0  0  0  0  0  0
   27.6211  -19.1078  -15.7728 O   0  0  0  0  0  0  0  0  0  0  0  0
   18.8392  -17.8394  -15.1622 O   0  0  0  0  0  0  0  0  0  0  0  0
   20.0544  -18.2973  -15.6659 C   0  0  0  0  0  0  0  0  0  0  0  0
   20.9943  -17.4382  -16.1958 C   0  0  0  0  0  0  0  0  0  0  0  0
   22.2066  -17.8648  -16.7018 C   0  0  0  0  0  0  0  0  0  0  0  0
   22.5254  -19.2022  -16.6926 C   0  0  0  0  0  0  0  0  0  0  0  0
   23.7781  -19.7589  -17.1864 C   0  0  0  0  0  0  0  0  0  0  0  0
   24.9052  -19.7487  -16.2158 C   0  0  2  0  0  0  0  0  0  0  0  0
   26.0773  -20.4210  -16.8774 N   0  0  0  0  0  0  0  0  0  0  0  0
   24.6423  -20.5568  -15.0354 C   0  0  0  0  0  0  0  0  0  0  0  0
   24.6165  -21.8376  -15.1651 O   0  0  0  0  0  0  0  0  0  0  0  0
   21.5978  -20.0807  -16.1664 C   0  0  0  0  0  0  0  0  0  0  0  0
   20.3986  -19.6323  -15.6692 C   0  0  0  0  0  0  0  0  0  0  0  0
   27.6442  -20.7322  -11.0495 C   0  0  0  0  0  0  0  0  0  0  0  0
   26.5772  -21.0123  -12.0529 C   0  0  0  0  0  0  0  0  0  0  0  0
   25.1898  -20.7048  -11.6479 C   0  0  2  0  0  0  0  0  0  0  0  0
   24.8243  -21.1518  -10.2431 C   0  0  0  0  0  0  0  0  0  0  0  0
   24.0932  -20.9445  -12.6351 C   0  0  2  0  0  0  0  0  0  0  0  0
   24.4250  -20.0285  -13.7602 N   0  0  0  0  0  0  0  0  0  0  0  0
   22.7373  -20.8030  -12.1715 C   0  0  0  0  0  0  0  0  0  0  0  0
   21.9732  -21.8553  -11.7183 O   0  0  0  0  0  0  0  0  0  0  0  0
   22.1818  -19.6755  -12.1644 O   0  0  0  0  0  0  0  0  0  0  0  0
  1  2  1  0
  3  2  1  0
  4  5  1  0
  4  3  1  0
  5  1  1  0
  6 15  1  0
  5  6  1  6
  7  6  2  0
  9  8  1  0
 10  9  2  0
 11 10  1  0
 12 11  2  0
 12 18  1  0
 14 13  1  6
 13 12  1  0
 14 15  1  0
 16 17  2  0
 16 14  1  0
 18 19  2  0
 19  9  1  0
 21 20  1  0
 21 22  1  0
 22 23  1  1
 24 22  1  0
 24 25  1  6
 25 16  1  0
 26 24  1  0
 27 26  1  0
 28 26  2  0
M  END
$$$$
