PYI.pdb
     RDKit          3D

 28 29  0  0  1  0  0  0  0  0999 V2000
   28.6470  -21.6985  -18.4070 N   0  0  0  0  0  0  0  0  0  0  0  0
   29.2931  -20.9407  -19.4898 C   0  0  0  0  0  0  0  0  0  0  0  0
   28.4052  -19.7184  -19.6857 C   0  0  0  0  0  0  0  0  0  0  0  0
   27.4459  -19.7485  -18.5122 C   0  0  0  0  0  0  0  0  0  0  0  0
   28.2122  -20.6192  -17.5490 C   0  0  1  0  0  0  0  0  0  0  0  0
   27.4402  -21.0615  -16.3967 C   0  0  0  0  0  0  0  0  0  0  0  0
   26.6767  -22.0498  -16.4844 O   0  0  0  0  0  0  0  0  0  0  0  0
   24.5446  -20.7270   -7.9126 O   0  0  0  0  0  0  0  0  0  0  0  0
   25.2520  -20.5929   -9.1050 C   0  0  0  0  0  0  0  0  0  0  0  0
   25.4159  -19.3704   -9.7220 C   0  0  0  0  0  0  0  0  0  0  0  0
   26.1122  -19.2088  -10.9039 C   0  0  0  0  0  0  0  0  0  0  0  0
   26.6827  -20.2962  -11.5223 C   0  0  0  0  0  0  0  0  0  0  0  0
   27.4485  -20.2379  -12.7606 C   0  0  0  0  0  0  0  0  0  0  0  0
   26.7636  -20.7929  -13.9588 C   0  0  2  0  0  0  0  0  0  0  0  0
   27.5533  -20.3691  -15.1672 N   0  0  0  0  0  0  0  0  0  0  0  0
   25.4426  -20.2220  -14.1702 C   0  0  0  0  0  0  0  0  0  0  0  0
   25.3618  -19.0043  -14.5804 O   0  0  0  0  0  0  0  0  0  0  0  0
   26.5305  -21.5309  -10.9212 C   0  0  0  0  0  0  0  0  0  0  0  0
   25.8332  -21.6664   -9.7457 C   0  0  0  0  0  0  0  0  0  0  0  0
   20.9483  -22.9290  -16.0519 C   0  0  0  0  0  0  0  0  0  0  0  0
   21.7046  -22.2752  -14.9454 C   0  0  0  0  0  0  0  0  0  0  0  0
   22.2729  -20.9411  -15.2292 C   0  0  2  0  0  0  0  0  0  0  0  0
   23.0241  -20.8376  -16.5451 C   0  0  0  0  0  0  0  0  0  0  0  0
   22.9506  -20.2077  -14.1168 C   0  0  2  0  0  0  0  0  0  0  0  0
   24.2491  -20.9191  -13.9649 N   0  0  0  0  0  0  0  0  0  0  0  0
   22.2330  -20.0694  -12.8762 C   0  0  0  0  0  0  0  0  0  0  0  0
   21.2273  -19.1500  -12.6761 O   0  0  0  0  0  0  0  0  0  0  0  0
   22.5083  -20.8068  -11.8963 O   0  0  0  0  0  0  0  0  0  0  0  0
  1  2  1  0
  3  2  1  0
  4  5  1  0
  4  3  1  0
  5  1  1  0
  6 15  1  0
  5  6  1  1
  7  6  2  0
  9  8  1  0
 10  9  2  0
 11 10  1  0
 12 11  2  0
 12 18  1  0
 14 13  1  1
 13 12  1  0
 14 15  1  0
 16 17  2  0
 16 14  1  0
 18 19  2  0
 19  9  1  0
 21 20  1  0
 21 22  1  0
 22 23  1  6
 24 22  1  0
 24 25  1  1
 25 16  1  0
 26 24  1  0
 27 26  1  0
 28 26  2  0
M  END
$$$$
