PYI.pdb
     RDKit          3D

 28 29  0  0  1  0  0  0  0  0999 V2000
   26.9638  -17.8932  -17.1155 N   0  0  0  0  0  0  0  0  0  0  0  0
   28.1826  -18.1723  -17.8906 C   0  0  0  0  0  0  0  0  0  0  0  0
   29.2742  -18.3420  -16.8416 C   0  0  0  0  0  0  0  0  0  0  0  0
   28.5324  -18.3948  -15.5205 C   0  0  0  0  0  0  0  0  0  0  0  0
   27.1535  -18.7821  -15.9913 C   0  0  1  0  0  0  0  0  0  0  0  0
   26.1189  -18.6684  -14.9734 C   0  0  0  0  0  0  0  0  0  0  0  0
   25.4641  -17.6086  -14.8481 O   0  0  0  0  0  0  0  0  0  0  0  0
   19.2914  -20.3484   -9.7830 O   0  0  0  0  0  0  0  0  0  0  0  0
   20.3418  -20.3283  -10.6975 C   0  0  0  0  0  0  0  0  0  0  0  0
   20.6473  -19.2018  -11.4322 C   0  0  0  0  0  0  0  0  0  0  0  0
   21.6826  -19.1540  -12.3452 C   0  0  0  0  0  0  0  0  0  0  0  0
   22.4669  -20.2632  -12.5571 C   0  0  0  0  0  0  0  0  0  0  0  0
   23.5904  -20.3192  -13.4832 C   0  0  0  0  0  0  0  0  0  0  0  0
   24.8371  -19.6590  -13.0115 C   0  0  2  0  0  0  0  0  0  0  0  0
   25.8506  -19.7642  -14.1184 N   0  0  0  0  0  0  0  0  0  0  0  0
   25.4527  -20.3493  -11.8891 C   0  0  0  0  0  0  0  0  0  0  0  0
   25.9597  -21.5152  -12.0925 O   0  0  0  0  0  0  0  0  0  0  0  0
   22.1781  -21.4030  -11.8315 C   0  0  0  0  0  0  0  0  0  0  0  0
   21.1429  -21.4261  -10.9292 C   0  0  0  0  0  0  0  0  0  0  0  0
   28.5939  -19.5917   -6.8285 C   0  0  0  0  0  0  0  0  0  0  0  0
   27.6333  -20.4648   -7.5624 C   0  0  0  0  0  0  0  0  0  0  0  0
   26.9219  -19.8538   -8.7044 C   0  0  2  0  0  0  0  0  0  0  0  0
   26.4011  -18.4498   -8.4506 C   0  0  0  0  0  0  0  0  0  0  0  0
   25.9576  -20.6985   -9.4732 C   0  0  2  0  0  0  0  0  0  0  0  0
   25.5385  -19.8197  -10.5989 N   0  0  0  0  0  0  0  0  0  0  0  0
   24.8463  -21.2637   -8.7529 C   0  0  0  0  0  0  0  0  0  0  0  0
   24.9182  -22.4418   -8.0433 O   0  0  0  0  0  0  0  0  0  0  0  0
   23.7313  -20.6836   -8.7461 O   0  0  0  0  0  0  0  0  0  0  0  0
  1  2  1  0
  3  2  1  0
  4  5  1  0
  4  3  1  0
  5  1  1  0
  6 15  1  0
  5  6  1  1
  7  6  2  0
  9  8  1  0
 10  9  2  0
 11 10  1  0
 12 11  2  0
 12 18  1  0
 14 13  1  6
 13 12  1  0
 14 15  1  0
 16 17  2  0
 16 14  1  0
 18 19  2  0
 19  9  1  0
 21 20  1  0
 21 22  1  0
 22 23  1  1
 24 22  1  0
 24 25  1  6
 25 16  1  0
 26 24  1  0
 27 26  1  0
 28 26  2  0
M  END
$$$$
