PYI.pdb
     RDKit          3D

 28 29  0  0  1  0  0  0  0  0999 V2000
   27.6220  -22.4742  -17.3843 N   0  0  0  0  0  0  0  0  0  0  0  0
   28.2293  -21.8709  -18.5806 C   0  0  0  0  0  0  0  0  0  0  0  0
   27.4851  -20.5548  -18.7667 C   0  0  0  0  0  0  0  0  0  0  0  0
   26.6708  -20.3913  -17.4984 C   0  0  0  0  0  0  0  0  0  0  0  0
   27.4274  -21.3002  -16.5633 C   0  0  1  0  0  0  0  0  0  0  0  0
   26.7437  -21.5707  -15.3068 C   0  0  0  0  0  0  0  0  0  0  0  0
   25.9096  -22.5006  -15.2243 O   0  0  0  0  0  0  0  0  0  0  0  0
   25.0387  -20.5503   -6.5271 O   0  0  0  0  0  0  0  0  0  0  0  0
   25.5572  -20.5247   -7.8197 C   0  0  0  0  0  0  0  0  0  0  0  0
   25.6855  -21.6705   -8.5766 C   0  0  0  0  0  0  0  0  0  0  0  0
   26.1959  -21.6740   -9.8600 C   0  0  0  0  0  0  0  0  0  0  0  0
   26.6050  -20.4977  -10.4426 C   0  0  0  0  0  0  0  0  0  0  0  0
   27.1439  -20.3847  -11.7917 C   0  0  0  0  0  0  0  0  0  0  0  0
   26.3235  -21.0168  -12.8594 C   0  0  2  0  0  0  0  0  0  0  0  0
   27.0238  -20.7764  -14.1691 N   0  0  0  0  0  0  0  0  0  0  0  0
   25.0233  -20.3855  -13.0219 C   0  0  0  0  0  0  0  0  0  0  0  0
   24.9663  -19.2518  -13.6295 O   0  0  0  0  0  0  0  0  0  0  0  0
   26.4855  -19.3377   -9.7017 C   0  0  0  0  0  0  0  0  0  0  0  0
   25.9749  -19.3596   -8.4269 C   0  0  0  0  0  0  0  0  0  0  0  0
   20.9808  -22.7776  -15.3514 C   0  0  0  0  0  0  0  0  0  0  0  0
   21.5872  -22.2521  -14.0946 C   0  0  0  0  0  0  0  0  0  0  0  0
   22.0731  -20.8570  -14.1263 C   0  0  2  0  0  0  0  0  0  0  0  0
   22.9732  -20.5245  -15.3036 C   0  0  0  0  0  0  0  0  0  0  0  0
   22.5410  -20.2397  -12.8477 C   0  0  2  0  0  0  0  0  0  0  0  0
   23.8240  -20.9398  -12.5669 N   0  0  0  0  0  0  0  0  0  0  0  0
   21.6329  -20.2533  -11.7304 C   0  0  0  0  0  0  0  0  0  0  0  0
   21.8615  -20.9610  -10.5713 O   0  0  0  0  0  0  0  0  0  0  0  0
   20.5609  -19.5986  -11.7739 O   0  0  0  0  0  0  0  0  0  0  0  0
  1  2  1  0
  3  2  1  0
  4  5  1  0
  4  3  1  0
  5  1  1  0
  6 15  1  0
  5  6  1  1
  7  6  2  0
  9  8  1  0
 10  9  2  0
 11 10  1  0
 12 11  2  0
 12 18  1  0
 14 13  1  1
 13 12  1  0
 14 15  1  0
 16 17  2  0
 16 14  1  0
 18 19  2  0
 19  9  1  0
 21 20  1  0
 21 22  1  0
 22 23  1  6
 24 22  1  0
 24 25  1  1
 25 16  1  0
 26 24  1  0
 27 26  1  0
 28 26  2  0
M  END
$$$$
