AWT.pdb
     RDKit          3D

 27 28  0  0  1  0  0  0  0  0999 V2000
    6.8465  -14.2452   20.5226 C   0  0  0  0  0  0  0  0  0  0  0  0
    7.6012  -15.5044   20.8093 C   0  0  2  0  0  0  0  0  0  0  0  0
    6.6534  -16.5319   21.1803 N   0  0  0  0  0  0  0  0  0  0  0  0
    8.5966  -15.3460   21.9123 C   0  0  0  0  0  0  0  0  0  0  0  0
    9.5609  -14.5253   21.7369 O   0  0  0  0  0  0  0  0  0  0  0  0
    8.4699  -16.0830   23.1088 N   0  0  0  0  0  0  0  0  0  0  0  0
    9.4084  -15.9207   24.1626 C   0  0  1  0  0  0  0  0  0  0  0  0
    8.7885  -15.9757   25.5337 C   0  0  0  0  0  0  0  0  0  0  0  0
    7.6084  -15.1166   25.6727 C   0  0  0  0  0  0  0  0  0  0  0  0
    6.2966  -15.4908   25.5668 C   0  0  0  0  0  0  0  0  0  0  0  0
    5.5071  -14.4225   25.7556 N   0  0  0  0  0  0  0  0  0  0  0  0
    6.2901  -13.3400   25.9867 C   0  0  0  0  0  0  0  0  0  0  0  0
    5.9723  -12.0074   26.2390 C   0  0  0  0  0  0  0  0  0  0  0  0
    6.9629  -11.0792   26.4451 C   0  0  0  0  0  0  0  0  0  0  0  0
    8.2723  -11.4973   26.3961 C   0  0  0  0  0  0  0  0  0  0  0  0
    8.5875  -12.8104   26.1475 C   0  0  0  0  0  0  0  0  0  0  0  0
    7.5982  -13.7732   25.9349 C   0  0  0  0  0  0  0  0  0  0  0  0
   10.4218  -17.0375   24.1201 C   0  0  0  0  0  0  0  0  0  0  0  0
   10.0694  -18.2470   24.1821 O   0  0  0  0  0  0  0  0  0  0  0  0
   13.5762  -16.9738   21.6325 C   0  0  0  0  0  0  0  0  0  0  0  0
   13.9625  -17.4348   22.9955 C   0  0  1  0  0  0  0  0  0  0  0  0
   14.6956  -16.4692   23.6615 O   0  0  0  0  0  0  0  0  0  0  0  0
   12.8048  -17.8217   23.8822 C   0  0  2  0  0  0  0  0  0  0  0  0
   11.8099  -16.7763   24.0089 N   0  0  0  0  0  0  0  0  0  0  0  0
   13.2218  -18.3148   25.1990 C   0  0  0  0  0  0  0  0  0  0  0  0
   13.9506  -19.4521   25.4279 O   0  0  0  0  0  0  0  0  0  0  0  0
   12.8861  -17.6411   26.2265 O   0  0  0  0  0  0  0  0  0  0  0  0
  2  1  1  1
  2  3  1  0
  4  5  2  0
  4  2  1  0
  6  4  1  0
  7  6  1  0
  8  9  1  0
  7  8  1  1
  9 17  1  0
 10  9  2  0
 10 11  1  0
 11 12  1  0
 12 13  1  0
 13 14  2  0
 15 14  1  0
 16 15  2  0
 17 12  2  0
 17 16  1  0
 18  7  1  0
 18 19  2  0
 21 20  1  6
 22 21  1  0
 23 24  1  1
 23 21  1  0
 24 18  1  0
 25 23  1  0
 26 25  1  0
 27 25  2  0
M  END
$$$$
