AWT.pdb
     RDKit          3D

 27 28  0  0  1  0  0  0  0  0999 V2000
    7.6487  -18.1896   19.0056 C   0  0  0  0  0  0  0  0  0  0  0  0
    8.1117  -16.7679   19.0463 C   0  0  2  0  0  0  0  0  0  0  0  0
    9.1853  -16.6083   18.0904 N   0  0  0  0  0  0  0  0  0  0  0  0
    8.6031  -16.3562   20.3960 C   0  0  0  0  0  0  0  0  0  0  0  0
    9.8466  -16.5048   20.6527 O   0  0  0  0  0  0  0  0  0  0  0  0
    7.7161  -15.8200   21.3533 N   0  0  0  0  0  0  0  0  0  0  0  0
    8.1894  -15.4020   22.6256 C   0  0  1  0  0  0  0  0  0  0  0  0
    7.1377  -14.7286   23.4670 C   0  0  0  0  0  0  0  0  0  0  0  0
    7.6114  -14.3613   24.8050 C   0  0  0  0  0  0  0  0  0  0  0  0
    8.6209  -14.9517   25.5153 C   0  0  0  0  0  0  0  0  0  0  0  0
    8.7581  -14.3357   26.6994 N   0  0  0  0  0  0  0  0  0  0  0  0
    7.8433  -13.3382   26.7780 C   0  0  0  0  0  0  0  0  0  0  0  0
    7.5704  -12.4126   27.7825 C   0  0  0  0  0  0  0  0  0  0  0  0
    6.5733  -11.4819   27.6238 C   0  0  0  0  0  0  0  0  0  0  0  0
    5.8534  -11.4871   26.4519 C   0  0  0  0  0  0  0  0  0  0  0  0
    6.1210  -12.3988   25.4606 C   0  0  0  0  0  0  0  0  0  0  0  0
    7.1298  -13.3549   25.5981 C   0  0  0  0  0  0  0  0  0  0  0  0
    8.6502  -16.6003   23.4179 C   0  0  0  0  0  0  0  0  0  0  0  0
    7.8585  -17.5370   23.7125 O   0  0  0  0  0  0  0  0  0  0  0  0
   11.3711  -18.9174   22.2695 C   0  0  0  0  0  0  0  0  0  0  0  0
   11.6899  -18.5033   23.6646 C   0  0  1  0  0  0  0  0  0  0  0  0
   12.6997  -17.5583   23.6878 O   0  0  0  0  0  0  0  0  0  0  0  0
   10.5223  -17.9432   24.4388 C   0  0  2  0  0  0  0  0  0  0  0  0
    9.9892  -16.7249   23.8639 N   0  0  0  0  0  0  0  0  0  0  0  0
   10.8019  -17.7729   25.8684 C   0  0  0  0  0  0  0  0  0  0  0  0
   10.8376  -16.5763   26.5346 O   0  0  0  0  0  0  0  0  0  0  0  0
   11.0333  -18.8149   26.5633 O   0  0  0  0  0  0  0  0  0  0  0  0
  2  1  1  1
  2  3  1  0
  4  5  2  0
  4  2  1  0
  6  4  1  0
  7  6  1  0
  8  9  1  0
  7  8  1  1
  9 17  1  0
 10  9  2  0
 10 11  1  0
 11 12  1  0
 12 13  1  0
 13 14  2  0
 15 14  1  0
 16 15  2  0
 17 12  2  0
 17 16  1  0
 18  7  1  0
 18 19  2  0
 21 20  1  6
 22 21  1  0
 23 24  1  6
 23 21  1  0
 24 18  1  0
 25 23  1  0
 26 25  1  0
 27 25  2  0
M  END
$$$$
