AWT.pdb
     RDKit          3D

 27 28  0  0  1  0  0  0  0  0999 V2000
    6.6700  -14.4842   20.3770 C   0  0  0  0  0  0  0  0  0  0  0  0
    7.4720  -15.7096   20.6814 C   0  0  2  0  0  0  0  0  0  0  0  0
    6.5653  -16.7617   21.0848 N   0  0  0  0  0  0  0  0  0  0  0  0
    8.4728  -15.4926   21.7694 C   0  0  0  0  0  0  0  0  0  0  0  0
    9.4398  -14.6876   21.5431 O   0  0  0  0  0  0  0  0  0  0  0  0
    8.3483  -16.1590   23.0068 N   0  0  0  0  0  0  0  0  0  0  0  0
    9.2780  -15.9220   24.0542 C   0  0  1  0  0  0  0  0  0  0  0  0
    8.6951  -16.1108   25.4297 C   0  0  0  0  0  0  0  0  0  0  0  0
    7.5290  -15.2604   25.6883 C   0  0  0  0  0  0  0  0  0  0  0  0
    6.2127  -15.6332   25.6649 C   0  0  0  0  0  0  0  0  0  0  0  0
    5.4400  -14.5747   25.9526 N   0  0  0  0  0  0  0  0  0  0  0  0
    6.2385  -13.5003   26.1671 C   0  0  0  0  0  0  0  0  0  0  0  0
    5.9409  -12.1792   26.4936 C   0  0  0  0  0  0  0  0  0  0  0  0
    6.9446  -11.2574   26.6620 C   0  0  0  0  0  0  0  0  0  0  0  0
    8.2466  -11.6703   26.5005 C   0  0  0  0  0  0  0  0  0  0  0  0
    8.5418  -12.9721   26.1787 C   0  0  0  0  0  0  0  0  0  0  0  0
    7.5389  -13.9282   26.0024 C   0  0  0  0  0  0  0  0  0  0  0  0
   10.4232  -16.8986   23.9510 C   0  0  0  0  0  0  0  0  0  0  0  0
   10.2218  -18.1301   23.7674 O   0  0  0  0  0  0  0  0  0  0  0  0
   15.2017  -17.6501   22.8996 C   0  0  0  0  0  0  0  0  0  0  0  0
   13.9598  -16.8302   22.9698 C   0  0  1  0  0  0  0  0  0  0  0  0
   13.3886  -16.6787   21.7192 O   0  0  0  0  0  0  0  0  0  0  0  0
   12.8977  -17.3719   23.8943 C   0  0  2  0  0  0  0  0  0  0  0  0
   11.7713  -16.4753   24.0556 N   0  0  0  0  0  0  0  0  0  0  0  0
   13.4230  -17.7975   25.1958 C   0  0  0  0  0  0  0  0  0  0  0  0
   14.0140  -19.0053   25.4583 O   0  0  0  0  0  0  0  0  0  0  0  0
   13.3298  -16.9882   26.1749 O   0  0  0  0  0  0  0  0  0  0  0  0
  2  1  1  1
  2  3  1  0
  4  5  2  0
  4  2  1  0
  6  4  1  0
  7  6  1  0
  8  9  1  0
  7  8  1  1
  9 17  1  0
 10  9  2  0
 10 11  1  0
 11 12  1  0
 12 13  1  0
 13 14  2  0
 15 14  1  0
 16 15  2  0
 17 12  2  0
 17 16  1  0
 18  7  1  0
 18 19  2  0
 21 20  1  6
 22 21  1  0
 23 24  1  1
 23 21  1  0
 24 18  1  0
 25 23  1  0
 26 25  1  0
 27 25  2  0
M  END
$$$$
