AWT.pdb
     RDKit          3D

 27 28  0  0  1  0  0  0  0  0999 V2000
    7.3558  -18.1170   20.0060 C   0  0  0  0  0  0  0  0  0  0  0  0
    7.0002  -16.8177   20.6561 C   0  0  2  0  0  0  0  0  0  0  0  0
    6.7028  -15.8535   19.6199 N   0  0  0  0  0  0  0  0  0  0  0  0
    8.0978  -16.2790   21.5149 C   0  0  0  0  0  0  0  0  0  0  0  0
    8.9799  -15.5351   20.9646 O   0  0  0  0  0  0  0  0  0  0  0  0
    8.1528  -16.5859   22.8910 N   0  0  0  0  0  0  0  0  0  0  0  0
    9.1854  -16.0570   23.7105 C   0  0  1  0  0  0  0  0  0  0  0  0
    8.8141  -15.9748   25.1675 C   0  0  0  0  0  0  0  0  0  0  0  0
    7.6237  -15.1563   25.4184 C   0  0  0  0  0  0  0  0  0  0  0  0
    6.3197  -15.5703   25.4120 C   0  0  0  0  0  0  0  0  0  0  0  0
    5.5161  -14.5311   25.6850 N   0  0  0  0  0  0  0  0  0  0  0  0
    6.2820  -13.4283   25.8727 C   0  0  0  0  0  0  0  0  0  0  0  0
    5.9454  -12.1110   26.1757 C   0  0  0  0  0  0  0  0  0  0  0  0
    6.9208  -11.1552   26.3187 C   0  0  0  0  0  0  0  0  0  0  0  0
    8.2339  -11.5303   26.1555 C   0  0  0  0  0  0  0  0  0  0  0  0
    8.5676  -12.8283   25.8568 C   0  0  0  0  0  0  0  0  0  0  0  0
    7.5940  -13.8185   25.7065 C   0  0  0  0  0  0  0  0  0  0  0  0
   10.3997  -16.9497   23.6414 C   0  0  0  0  0  0  0  0  0  0  0  0
   10.2905  -18.2057   23.6054 O   0  0  0  0  0  0  0  0  0  0  0  0
   15.2660  -17.3162   22.5918 C   0  0  0  0  0  0  0  0  0  0  0  0
   13.9756  -16.5731   22.6411 C   0  0  1  0  0  0  0  0  0  0  0  0
   13.4684  -16.3660   21.3710 O   0  0  0  0  0  0  0  0  0  0  0  0
   12.8968  -17.2362   23.4612 C   0  0  2  0  0  0  0  0  0  0  0  0
   11.7121  -16.4165   23.6139 N   0  0  0  0  0  0  0  0  0  0  0  0
   13.3720  -17.7229   24.7606 C   0  0  0  0  0  0  0  0  0  0  0  0
   13.1287  -17.1273   25.9702 O   0  0  0  0  0  0  0  0  0  0  0  0
   14.0711  -18.7873   24.7842 O   0  0  0  0  0  0  0  0  0  0  0  0
  2  1  1  6
  2  3  1  0
  4  5  2  0
  4  2  1  0
  6  4  1  0
  7  6  1  0
  8  9  1  0
  7  8  1  1
  9 17  1  0
 10  9  2  0
 10 11  1  0
 11 12  1  0
 12 13  1  0
 13 14  2  0
 15 14  1  0
 16 15  2  0
 17 12  2  0
 17 16  1  0
 18  7  1  0
 18 19  2  0
 21 20  1  6
 22 21  1  0
 23 24  1  1
 23 21  1  0
 24 18  1  0
 25 23  1  0
 26 25  1  0
 27 25  2  0
M  END
$$$$
