AWT.pdb
     RDKit          3D

 27 28  0  0  1  0  0  0  0  0999 V2000
    6.5196  -14.6421   20.5486 C   0  0  0  0  0  0  0  0  0  0  0  0
    7.4288  -15.8035   20.7974 C   0  0  2  0  0  0  0  0  0  0  0  0
    6.6216  -16.9473   21.1606 N   0  0  0  0  0  0  0  0  0  0  0  0
    8.4158  -15.5442   21.8888 C   0  0  0  0  0  0  0  0  0  0  0  0
    9.2816  -14.6212   21.7078 O   0  0  0  0  0  0  0  0  0  0  0  0
    8.3875  -16.2990   23.0805 N   0  0  0  0  0  0  0  0  0  0  0  0
    9.3602  -16.0895   24.0942 C   0  0  1  0  0  0  0  0  0  0  0  0
    8.8071  -16.2003   25.4904 C   0  0  0  0  0  0  0  0  0  0  0  0
    7.6729  -15.3049   25.7388 C   0  0  0  0  0  0  0  0  0  0  0  0
    6.3427  -15.6189   25.6750 C   0  0  0  0  0  0  0  0  0  0  0  0
    5.6096  -14.5336   25.9666 N   0  0  0  0  0  0  0  0  0  0  0  0
    6.4484  -13.5000   26.2239 C   0  0  0  0  0  0  0  0  0  0  0  0
    6.2004  -12.1741   26.5716 C   0  0  0  0  0  0  0  0  0  0  0  0
    7.2385  -11.3010   26.7845 C   0  0  0  0  0  0  0  0  0  0  0  0
    8.5250  -11.7674   26.6461 C   0  0  0  0  0  0  0  0  0  0  0  0
    8.7714  -13.0740   26.3034 C   0  0  0  0  0  0  0  0  0  0  0  0
    7.7327  -13.9812   26.0818 C   0  0  0  0  0  0  0  0  0  0  0  0
   10.4394  -17.1386   23.9908 C   0  0  0  0  0  0  0  0  0  0  0  0
   10.1991  -18.3539   24.2279 O   0  0  0  0  0  0  0  0  0  0  0  0
   15.0956  -18.2979   22.5310 C   0  0  0  0  0  0  0  0  0  0  0  0
   13.9669  -17.3312   22.6361 C   0  0  1  0  0  0  0  0  0  0  0  0
   13.4409  -17.0385   21.3908 O   0  0  0  0  0  0  0  0  0  0  0  0
   12.8292  -17.7834   23.5177 C   0  0  2  0  0  0  0  0  0  0  0  0
   11.7664  -16.8045   23.6234 N   0  0  0  0  0  0  0  0  0  0  0  0
   13.2655  -18.2328   24.8438 C   0  0  0  0  0  0  0  0  0  0  0  0
   13.5662  -19.5248   25.1864 O   0  0  0  0  0  0  0  0  0  0  0  0
   13.3794  -17.3615   25.7658 O   0  0  0  0  0  0  0  0  0  0  0  0
  2  1  1  1
  2  3  1  0
  4  5  2  0
  4  2  1  0
  6  4  1  0
  7  6  1  0
  8  9  1  0
  7  8  1  1
  9 17  1  0
 10  9  2  0
 10 11  1  0
 11 12  1  0
 12 13  1  0
 13 14  2  0
 15 14  1  0
 16 15  2  0
 17 12  2  0
 17 16  1  0
 18  7  1  0
 18 19  2  0
 21 20  1  6
 22 21  1  0
 23 24  1  1
 23 21  1  0
 24 18  1  0
 25 23  1  0
 26 25  1  0
 27 25  2  0
M  END
$$$$
