AWT.pdb
     RDKit          3D

 27 28  0  0  1  0  0  0  0  0999 V2000
    7.0788  -17.6923   20.0500 C   0  0  0  0  0  0  0  0  0  0  0  0
    6.8504  -16.3700   20.7107 C   0  0  2  0  0  0  0  0  0  0  0  0
    6.6444  -15.3739   19.6825 N   0  0  0  0  0  0  0  0  0  0  0  0
    7.9962  -15.9452   21.5704 C   0  0  0  0  0  0  0  0  0  0  0  0
    8.9257  -15.2523   21.0318 O   0  0  0  0  0  0  0  0  0  0  0  0
    8.0443  -16.3015   22.9348 N   0  0  0  0  0  0  0  0  0  0  0  0
    9.0964  -15.8366   23.7683 C   0  0  1  0  0  0  0  0  0  0  0  0
    8.7260  -15.7756   25.2266 C   0  0  0  0  0  0  0  0  0  0  0  0
    7.5372  -14.9589   25.4904 C   0  0  0  0  0  0  0  0  0  0  0  0
    6.2332  -15.3730   25.4898 C   0  0  0  0  0  0  0  0  0  0  0  0
    5.4313  -14.3357   25.7746 N   0  0  0  0  0  0  0  0  0  0  0  0
    6.1983  -13.2339   25.9644 C   0  0  0  0  0  0  0  0  0  0  0  0
    5.8636  -11.9186   26.2780 C   0  0  0  0  0  0  0  0  0  0  0  0
    6.8399  -10.9637   26.4208 C   0  0  0  0  0  0  0  0  0  0  0  0
    8.1520  -11.3376   26.2467 C   0  0  0  0  0  0  0  0  0  0  0  0
    8.4838  -12.6336   25.9375 C   0  0  0  0  0  0  0  0  0  0  0  0
    7.5093  -13.6229   25.7872 C   0  0  0  0  0  0  0  0  0  0  0  0
   10.2727  -16.7769   23.6779 C   0  0  0  0  0  0  0  0  0  0  0  0
   10.1121  -18.0268   23.6241 O   0  0  0  0  0  0  0  0  0  0  0  0
   15.1211  -17.3224   22.6103 C   0  0  0  0  0  0  0  0  0  0  0  0
   13.8686  -16.5194   22.6879 C   0  0  1  0  0  0  0  0  0  0  0  0
   13.3776  -16.2347   21.4264 O   0  0  0  0  0  0  0  0  0  0  0  0
   12.7550  -17.1624   23.4770 C   0  0  2  0  0  0  0  0  0  0  0  0
   11.6057  -16.2974   23.6493 N   0  0  0  0  0  0  0  0  0  0  0  0
   13.1974  -17.7133   24.7622 C   0  0  0  0  0  0  0  0  0  0  0  0
   13.8753  -18.8918   24.9311 O   0  0  0  0  0  0  0  0  0  0  0  0
   12.9372  -17.0532   25.8200 O   0  0  0  0  0  0  0  0  0  0  0  0
  2  1  1  6
  2  3  1  0
  4  5  2  0
  4  2  1  0
  6  4  1  0
  7  6  1  0
  8  9  1  0
  7  8  1  1
  9 17  1  0
 10  9  2  0
 10 11  1  0
 11 12  1  0
 12 13  1  0
 13 14  2  0
 15 14  1  0
 16 15  2  0
 17 12  2  0
 17 16  1  0
 18  7  1  0
 18 19  2  0
 21 20  1  6
 22 21  1  0
 23 24  1  1
 23 21  1  0
 24 18  1  0
 25 23  1  0
 26 25  1  0
 27 25  2  0
M  END
$$$$
