AWT.pdb
     RDKit          3D

 27 28  0  0  1  0  0  0  0  0999 V2000
    6.8326  -18.3381   20.3747 C   0  0  0  0  0  0  0  0  0  0  0  0
    6.4447  -17.1689   21.2232 C   0  0  2  0  0  0  0  0  0  0  0  0
    5.8068  -16.1825   20.3796 N   0  0  0  0  0  0  0  0  0  0  0  0
    7.6125  -16.5354   21.9070 C   0  0  0  0  0  0  0  0  0  0  0  0
    8.2346  -15.6034   21.2918 O   0  0  0  0  0  0  0  0  0  0  0  0
    8.0109  -16.9578   23.1929 N   0  0  0  0  0  0  0  0  0  0  0  0
    9.0876  -16.3192   23.8641 C   0  0  1  0  0  0  0  0  0  0  0  0
    8.8290  -16.0854   25.3290 C   0  0  0  0  0  0  0  0  0  0  0  0
    7.6392  -15.2680   25.5857 C   0  0  0  0  0  0  0  0  0  0  0  0
    6.3382  -15.6903   25.6208 C   0  0  0  0  0  0  0  0  0  0  0  0
    5.5340  -14.6492   25.8848 N   0  0  0  0  0  0  0  0  0  0  0  0
    6.2964  -13.5370   26.0252 C   0  0  0  0  0  0  0  0  0  0  0  0
    5.9578  -12.2142   26.3010 C   0  0  0  0  0  0  0  0  0  0  0  0
    6.9296  -11.2488   26.3957 C   0  0  0  0  0  0  0  0  0  0  0  0
    8.2412  -11.6199   26.2119 C   0  0  0  0  0  0  0  0  0  0  0  0
    8.5768  -12.9233   25.9401 C   0  0  0  0  0  0  0  0  0  0  0  0
    7.6069  -13.9232   25.8389 C   0  0  0  0  0  0  0  0  0  0  0  0
   10.3198  -17.1867   23.7933 C   0  0  0  0  0  0  0  0  0  0  0  0
   10.3178  -18.3679   24.2357 O   0  0  0  0  0  0  0  0  0  0  0  0
   12.8682  -17.2388   20.6099 C   0  0  0  0  0  0  0  0  0  0  0  0
   13.5732  -17.1695   21.9205 C   0  0  1  0  0  0  0  0  0  0  0  0
   14.0959  -15.9080   22.1417 O   0  0  0  0  0  0  0  0  0  0  0  0
   12.7226  -17.5270   23.1141 C   0  0  2  0  0  0  0  0  0  0  0  0
   11.5295  -16.7130   23.2280 N   0  0  0  0  0  0  0  0  0  0  0  0
   13.4706  -17.5451   24.3755 C   0  0  0  0  0  0  0  0  0  0  0  0
   14.5251  -18.3711   24.6629 O   0  0  0  0  0  0  0  0  0  0  0  0
   13.1233  -16.7309   25.2914 O   0  0  0  0  0  0  0  0  0  0  0  0
  2  1  1  6
  2  3  1  0
  4  5  2  0
  4  2  1  0
  6  4  1  0
  7  6  1  0
  8  9  1  0
  7  8  1  1
  9 17  1  0
 10  9  2  0
 10 11  1  0
 11 12  1  0
 12 13  1  0
 13 14  2  0
 15 14  1  0
 16 15  2  0
 17 12  2  0
 17 16  1  0
 18  7  1  0
 18 19  2  0
 21 20  1  6
 22 21  1  0
 23 24  1  1
 23 21  1  0
 24 18  1  0
 25 23  1  0
 26 25  1  0
 27 25  2  0
M  END
$$$$
