AWT.pdb
     RDKit          3D

 27 28  0  0  1  0  0  0  0  0999 V2000
    6.6834  -14.3677   20.5717 C   0  0  0  0  0  0  0  0  0  0  0  0
    7.4564  -15.6215   20.8322 C   0  0  2  0  0  0  0  0  0  0  0  0
    6.5331  -16.6470   21.2655 N   0  0  0  0  0  0  0  0  0  0  0  0
    8.5089  -15.4475   21.8783 C   0  0  0  0  0  0  0  0  0  0  0  0
    9.4772  -14.6512   21.6284 O   0  0  0  0  0  0  0  0  0  0  0  0
    8.4302  -16.1441   23.1028 N   0  0  0  0  0  0  0  0  0  0  0  0
    9.4068  -15.9436   24.1145 C   0  0  1  0  0  0  0  0  0  0  0  0
    8.8577  -16.0592   25.5118 C   0  0  0  0  0  0  0  0  0  0  0  0
    7.6474  -15.2604   25.7283 C   0  0  0  0  0  0  0  0  0  0  0  0
    6.3503  -15.6906   25.6621 C   0  0  0  0  0  0  0  0  0  0  0  0
    5.5226  -14.6666   25.9202 N   0  0  0  0  0  0  0  0  0  0  0  0
    6.2657  -13.5577   26.1577 C   0  0  0  0  0  0  0  0  0  0  0  0
    5.8997  -12.2503   26.4695 C   0  0  0  0  0  0  0  0  0  0  0  0
    6.8558  -11.2850   26.6683 C   0  0  0  0  0  0  0  0  0  0  0  0
    8.1793  -11.6406   26.5520 C   0  0  0  0  0  0  0  0  0  0  0  0
    8.5419  -12.9288   26.2447 C   0  0  0  0  0  0  0  0  0  0  0  0
    7.5884  -13.9284   26.0380 C   0  0  0  0  0  0  0  0  0  0  0  0
   10.4814  -16.9965   24.0024 C   0  0  0  0  0  0  0  0  0  0  0  0
   10.1963  -18.2056   23.7842 O   0  0  0  0  0  0  0  0  0  0  0  0
   13.0242  -17.0195   21.3901 C   0  0  0  0  0  0  0  0  0  0  0  0
   13.7701  -17.1905   22.6684 C   0  0  1  0  0  0  0  0  0  0  0  0
   14.4306  -16.0277   23.0220 O   0  0  0  0  0  0  0  0  0  0  0  0
   12.9208  -17.6085   23.8432 C   0  0  2  0  0  0  0  0  0  0  0  0
   11.8543  -16.6730   24.1369 N   0  0  0  0  0  0  0  0  0  0  0  0
   13.7029  -17.9108   25.0465 C   0  0  0  0  0  0  0  0  0  0  0  0
   14.5877  -18.9482   25.1799 O   0  0  0  0  0  0  0  0  0  0  0  0
   13.5591  -17.1553   26.0618 O   0  0  0  0  0  0  0  0  0  0  0  0
  2  1  1  1
  2  3  1  0
  4  5  2  0
  4  2  1  0
  6  4  1  0
  7  6  1  0
  8  9  1  0
  7  8  1  1
  9 17  1  0
 10  9  2  0
 10 11  1  0
 11 12  1  0
 12 13  1  0
 13 14  2  0
 15 14  1  0
 16 15  2  0
 17 12  2  0
 17 16  1  0
 18  7  1  0
 18 19  2  0
 21 20  1  6
 22 21  1  0
 23 24  1  1
 23 21  1  0
 24 18  1  0
 25 23  1  0
 26 25  1  0
 27 25  2  0
M  END
$$$$
