AWT.pdb
     RDKit          3D

 27 28  0  0  1  0  0  0  0  0999 V2000
    7.2388  -16.9997   19.8599 C   0  0  0  0  0  0  0  0  0  0  0  0
    7.0064  -15.7562   20.6581 C   0  0  2  0  0  0  0  0  0  0  0  0
    7.0047  -14.6263   19.7553 N   0  0  0  0  0  0  0  0  0  0  0  0
    8.0495  -15.5352   21.7047 C   0  0  0  0  0  0  0  0  0  0  0  0
    9.0515  -14.7991   21.4072 O   0  0  0  0  0  0  0  0  0  0  0  0
    7.9260  -16.1239   22.9811 N   0  0  0  0  0  0  0  0  0  0  0  0
    8.9304  -15.9333   23.9672 C   0  0  1  0  0  0  0  0  0  0  0  0
    8.4071  -15.9930   25.3779 C   0  0  0  0  0  0  0  0  0  0  0  0
    7.3678  -14.9965   25.6547 C   0  0  0  0  0  0  0  0  0  0  0  0
    6.0211  -15.2142   25.7596 C   0  0  0  0  0  0  0  0  0  0  0  0
    5.3966  -14.0554   26.0193 N   0  0  0  0  0  0  0  0  0  0  0  0
    6.3241  -13.0688   26.0874 C   0  0  0  0  0  0  0  0  0  0  0  0
    6.2025  -11.7023   26.3291 C   0  0  0  0  0  0  0  0  0  0  0  0
    7.3124  -10.8941   26.3481 C   0  0  0  0  0  0  0  0  0  0  0  0
    8.5428  -11.4661   26.1229 C   0  0  0  0  0  0  0  0  0  0  0  0
    8.6645  -12.8129   25.8844 C   0  0  0  0  0  0  0  0  0  0  0  0
    7.5509  -13.6557   25.8602 C   0  0  0  0  0  0  0  0  0  0  0  0
    9.9639  -17.0271   23.8612 C   0  0  0  0  0  0  0  0  0  0  0  0
    9.7057  -18.2111   24.2111 O   0  0  0  0  0  0  0  0  0  0  0  0
   12.9796  -17.0989   20.9775 C   0  0  0  0  0  0  0  0  0  0  0  0
   13.4223  -17.4329   22.3603 C   0  0  1  0  0  0  0  0  0  0  0  0
   14.1428  -16.3932   22.9200 O   0  0  0  0  0  0  0  0  0  0  0  0
   12.3057  -17.7800   23.3136 C   0  0  2  0  0  0  0  0  0  0  0  0
   11.2663  -16.7721   23.3649 N   0  0  0  0  0  0  0  0  0  0  0  0
   12.7768  -18.1202   24.6602 C   0  0  0  0  0  0  0  0  0  0  0  0
   12.4411  -17.4572   25.8111 O   0  0  0  0  0  0  0  0  0  0  0  0
   13.5650  -19.1125   24.7878 O   0  0  0  0  0  0  0  0  0  0  0  0
  2  1  1  6
  2  3  1  0
  4  5  2  0
  4  2  1  0
  6  4  1  0
  7  6  1  0
  8  9  1  0
  7  8  1  1
  9 17  1  0
 10  9  2  0
 10 11  1  0
 11 12  1  0
 12 13  1  0
 13 14  2  0
 15 14  1  0
 16 15  2  0
 17 12  2  0
 17 16  1  0
 18  7  1  0
 18 19  2  0
 21 20  1  6
 22 21  1  0
 23 24  1  1
 23 21  1  0
 24 18  1  0
 25 23  1  0
 26 25  1  0
 27 25  2  0
M  END
$$$$
