SYF.pdb
     RDKit          3D

 30 31  0  0  1  0  0  0  0  0999 V2000
    8.4763  -14.0317   21.0256 O   0  0  0  0  0  0  0  0  0  0  0  0
    8.2067  -15.0699   20.1493 C   0  0  0  0  0  0  0  0  0  0  0  0
    6.9740  -15.8575   20.5303 C   0  0  2  0  0  0  0  0  0  0  0  0
    5.8192  -15.0183   20.2812 N   0  0  0  0  0  0  0  0  0  0  0  0
    6.9726  -16.2721   21.9351 C   0  0  0  0  0  0  0  0  0  0  0  0
    6.1368  -15.7897   22.7411 O   0  0  0  0  0  0  0  0  0  0  0  0
    7.9138  -21.1728   29.1870 O   0  0  0  0  0  0  0  0  0  0  0  0
    7.9699  -20.6495   27.8821 C   0  0  0  0  0  0  0  0  0  0  0  0
    9.1960  -20.3198   27.3454 C   0  0  0  0  0  0  0  0  0  0  0  0
    9.2842  -19.8047   26.0688 C   0  0  0  0  0  0  0  0  0  0  0  0
    8.1708  -19.6020   25.2919 C   0  0  0  0  0  0  0  0  0  0  0  0
    8.2509  -19.0527   23.9384 C   0  0  0  0  0  0  0  0  0  0  0  0
    7.8684  -17.6140   23.8887 C   0  0  2  0  0  0  0  0  0  0  0  0
    7.8852  -17.2210   22.4818 N   0  0  0  0  0  0  0  0  0  0  0  0
    8.7403  -16.7676   24.7038 C   0  0  0  0  0  0  0  0  0  0  0  0
    9.8698  -16.3675   24.3794 O   0  0  0  0  0  0  0  0  0  0  0  0
    6.9384  -19.9419   25.8527 C   0  0  0  0  0  0  0  0  0  0  0  0
    6.8408  -20.4561   27.1246 C   0  0  0  0  0  0  0  0  0  0  0  0
    8.2616  -16.3593   25.9869 N   0  0  0  0  0  0  0  0  0  0  0  0
    9.0558  -15.4702   26.8302 C   0  0  1  0  0  0  0  0  0  0  0  0
    8.2160  -14.5450   27.6242 C   0  0  0  0  0  0  0  0  0  0  0  0
    7.7203  -13.4323   26.7967 C   0  0  0  0  0  0  0  0  0  0  0  0
    6.3987  -13.1344   26.6332 C   0  0  0  0  0  0  0  0  0  0  0  0
    6.0197  -12.0728   25.8506 C   0  0  0  0  0  0  0  0  0  0  0  0
    6.9296  -11.2713   25.2041 C   0  0  0  0  0  0  0  0  0  0  0  0
    8.2631  -11.5518   25.3536 C   0  0  0  0  0  0  0  0  0  0  0  0
    8.6416  -12.6100   26.1339 C   0  0  0  0  0  0  0  0  0  0  0  0
    9.8530  -16.3174   27.7151 C   0  0  0  0  0  0  0  0  0  0  0  0
    9.6873  -17.5489   27.7340 O   0  0  0  0  0  0  0  0  0  0  0  0
   10.8022  -15.7585   28.5427 O   0  0  0  0  0  0  0  0  0  0  0  0
  1  2  1  0
  2  3  1  0
  3  5  1  0
  3  4  1  1
  5 14  1  0
  6  5  2  0
  8  7  1  0
  9  8  2  0
 10  9  1  0
 11 10  2  0
 11 17  1  0
 12 11  1  0
 13 12  1  6
 14 13  1  0
 15 13  1  0
 16 15  2  0
 17 18  2  0
 18  8  1  0
 19 15  1  0
 20 19  1  0
 21 22  1  0
 20 21  1  1
 22 23  2  0
 23 24  1  0
 25 24  2  0
 26 25  1  0
 27 26  2  0
 27 22  1  0
 28 20  1  0
 28 30  1  0
 29 28  2  0
M  END
$$$$
