SYF.pdb
     RDKit          3D

 30 31  0  0  1  0  0  0  0  0999 V2000
   10.9127  -17.3944   17.4190 O   0  0  0  0  0  0  0  0  0  0  0  0
   10.0361  -16.8894   18.3650 C   0  0  0  0  0  0  0  0  0  0  0  0
    8.8591  -17.8019   18.6243 C   0  0  2  0  0  0  0  0  0  0  0  0
    7.9360  -17.6576   17.5166 N   0  0  0  0  0  0  0  0  0  0  0  0
    8.1615  -17.4930   19.8746 C   0  0  0  0  0  0  0  0  0  0  0  0
    7.5293  -16.4137   20.0017 O   0  0  0  0  0  0  0  0  0  0  0  0
    1.9506  -20.3094   19.9818 O   0  0  0  0  0  0  0  0  0  0  0  0
    3.1385  -20.0339   20.6838 C   0  0  0  0  0  0  0  0  0  0  0  0
    4.3368  -20.4876   20.1756 C   0  0  0  0  0  0  0  0  0  0  0  0
    5.5186  -20.2339   20.8403 C   0  0  0  0  0  0  0  0  0  0  0  0
    5.5492  -19.5294   22.0182 C   0  0  0  0  0  0  0  0  0  0  0  0
    6.7954  -19.2573   22.7346 C   0  0  0  0  0  0  0  0  0  0  0  0
    7.4643  -18.0164   22.2536 C   0  0  2  0  0  0  0  0  0  0  0  0
    8.1437  -18.3592   21.0066 N   0  0  0  0  0  0  0  0  0  0  0  0
    8.3844  -17.4501   23.2404 C   0  0  0  0  0  0  0  0  0  0  0  0
    9.6122  -17.6306   23.2724 O   0  0  0  0  0  0  0  0  0  0  0  0
    4.3258  -19.0783   22.5168 C   0  0  0  0  0  0  0  0  0  0  0  0
    3.1427  -19.3265   21.8609 C   0  0  0  0  0  0  0  0  0  0  0  0
    7.8343  -16.6148   24.2611 N   0  0  0  0  0  0  0  0  0  0  0  0
    8.6972  -15.9975   25.2644 C   0  0  1  0  0  0  0  0  0  0  0  0
    7.9493  -15.1124   26.1857 C   0  0  0  0  0  0  0  0  0  0  0  0
    8.8064  -14.6441   27.2878 C   0  0  0  0  0  0  0  0  0  0  0  0
    8.6990  -15.0827   28.5756 C   0  0  0  0  0  0  0  0  0  0  0  0
    9.5442  -14.6017   29.5438 C   0  0  0  0  0  0  0  0  0  0  0  0
   10.5213  -13.6736   29.2749 C   0  0  0  0  0  0  0  0  0  0  0  0
   10.6476  -13.2183   27.9880 C   0  0  0  0  0  0  0  0  0  0  0  0
    9.8054  -13.6976   27.0223 C   0  0  0  0  0  0  0  0  0  0  0  0
    9.3337  -17.0825   26.0087 C   0  0  0  0  0  0  0  0  0  0  0  0
   10.5447  -17.0384   26.2841 O   0  0  0  0  0  0  0  0  0  0  0  0
    8.5955  -18.1722   26.4160 O   0  0  0  0  0  0  0  0  0  0  0  0
  1  2  1  0
  2  3  1  0
  3  5  1  0
  3  4  1  6
  5 14  1  0
  6  5  2  0
  8  7  1  0
  9  8  2  0
 10  9  1  0
 11 10  2  0
 11 17  1  0
 12 11  1  0
 13 12  1  1
 14 13  1  0
 15 13  1  0
 16 15  2  0
 17 18  2  0
 18  8  1  0
 19 15  1  0
 20 19  1  0
 21 22  1  0
 20 21  1  1
 22 23  2  0
 23 24  1  0
 25 24  2  0
 26 25  1  0
 27 26  2  0
 27 22  1  0
 28 20  1  0
 28 30  1  0
 29 28  2  0
M  END
$$$$
