SYF.pdb
     RDKit          3D

 30 31  0  0  1  0  0  0  0  0999 V2000
    8.8755  -24.1179   18.9745 O   0  0  0  0  0  0  0  0  0  0  0  0
    9.6212  -24.8300   18.0497 C   0  0  0  0  0  0  0  0  0  0  0  0
   10.0059  -26.2079   18.5384 C   0  0  2  0  0  0  0  0  0  0  0  0
    8.7859  -26.9135   18.8752 N   0  0  0  0  0  0  0  0  0  0  0  0
   10.8811  -26.1739   19.7123 C   0  0  0  0  0  0  0  0  0  0  0  0
   10.3994  -26.2734   20.8694 O   0  0  0  0  0  0  0  0  0  0  0  0
   18.2029  -26.8888   24.6325 O   0  0  0  0  0  0  0  0  0  0  0  0
   17.2997  -26.6822   23.5736 C   0  0  0  0  0  0  0  0  0  0  0  0
   16.7116  -27.7745   22.9727 C   0  0  0  0  0  0  0  0  0  0  0  0
   15.8220  -27.6049   21.9321 C   0  0  0  0  0  0  0  0  0  0  0  0
   15.4909  -26.3595   21.4591 C   0  0  0  0  0  0  0  0  0  0  0  0
   14.5521  -26.1669   20.3538 C   0  0  0  0  0  0  0  0  0  0  0  0
   13.1499  -25.9967   20.8264 C   0  0  2  0  0  0  0  0  0  0  0  0
   12.2976  -26.0305   19.6404 N   0  0  0  0  0  0  0  0  0  0  0  0
   12.9587  -24.7715   21.6030 C   0  0  0  0  0  0  0  0  0  0  0  0
   12.8491  -23.6271   21.1344 O   0  0  0  0  0  0  0  0  0  0  0  0
   16.0966  -25.2659   22.0803 C   0  0  0  0  0  0  0  0  0  0  0  0
   16.9846  -25.4254   23.1185 C   0  0  0  0  0  0  0  0  0  0  0  0
   12.8906  -24.8889   23.0257 N   0  0  0  0  0  0  0  0  0  0  0  0
   12.6024  -23.7233   23.8567 C   0  0  1  0  0  0  0  0  0  0  0  0
   11.2350  -23.7568   24.4227 C   0  0  0  0  0  0  0  0  0  0  0  0
   10.9758  -25.0307   25.1146 C   0  0  0  0  0  0  0  0  0  0  0  0
   11.2357  -25.2462   26.4369 C   0  0  0  0  0  0  0  0  0  0  0  0
   10.9561  -26.4620   27.0085 C   0  0  0  0  0  0  0  0  0  0  0  0
   10.4124  -27.5040   26.2965 C   0  0  0  0  0  0  0  0  0  0  0  0
   10.1431  -27.3106   24.9663 C   0  0  0  0  0  0  0  0  0  0  0  0
   10.4214  -26.0987   24.3959 C   0  0  0  0  0  0  0  0  0  0  0  0
   13.5950  -23.7055   24.9294 C   0  0  0  0  0  0  0  0  0  0  0  0
   13.6983  -22.7224   25.6826 O   0  0  0  0  0  0  0  0  0  0  0  0
   14.4319  -24.7833   25.1197 O   0  0  0  0  0  0  0  0  0  0  0  0
  1  2  1  0
  2  3  1  0
  3  5  1  0
  3  4  1  1
  5 14  1  0
  6  5  2  0
  8  7  1  0
  9  8  2  0
 10  9  1  0
 11 10  2  0
 11 17  1  0
 12 11  1  0
 13 12  1  6
 14 13  1  0
 15 13  1  0
 16 15  2  0
 17 18  2  0
 18  8  1  0
 19 15  1  0
 20 19  1  0
 21 22  1  0
 20 21  1  1
 22 23  2  0
 23 24  1  0
 25 24  2  0
 26 25  1  0
 27 26  2  0
 27 22  1  0
 28 20  1  0
 28 30  1  0
 29 28  2  0
M  END
$$$$
