SYF.pdb
     RDKit          3D

 30 31  0  0  1  0  0  0  0  0999 V2000
    7.0799  -20.4119   21.2896 O   0  0  0  0  0  0  0  0  0  0  0  0
    7.7464  -21.3415   22.0705 C   0  0  0  0  0  0  0  0  0  0  0  0
    7.2689  -21.3569   23.5048 C   0  0  2  0  0  0  0  0  0  0  0  0
    6.0151  -22.0822   23.5451 N   0  0  0  0  0  0  0  0  0  0  0  0
    7.0652  -20.0142   24.0534 C   0  0  0  0  0  0  0  0  0  0  0  0
    5.9166  -19.5033   24.0777 O   0  0  0  0  0  0  0  0  0  0  0  0
    7.8552  -21.4569   30.2916 O   0  0  0  0  0  0  0  0  0  0  0  0
    8.1125  -20.5160   29.2776 C   0  0  0  0  0  0  0  0  0  0  0  0
    7.1219  -19.6249   28.9244 C   0  0  0  0  0  0  0  0  0  0  0  0
    7.3433  -18.6904   27.9341 C   0  0  0  0  0  0  0  0  0  0  0  0
    8.5417  -18.6109   27.2694 C   0  0  0  0  0  0  0  0  0  0  0  0
    8.7873  -17.6271   26.2147 C   0  0  0  0  0  0  0  0  0  0  0  0
    7.9047  -17.8334   25.0328 C   0  0  2  0  0  0  0  0  0  0  0  0
    8.1140  -19.2080   24.5844 N   0  0  0  0  0  0  0  0  0  0  0  0
    8.1536  -16.8654   23.9642 C   0  0  0  0  0  0  0  0  0  0  0  0
    8.9072  -17.0373   22.9928 O   0  0  0  0  0  0  0  0  0  0  0  0
    9.5323  -19.5216   27.6410 C   0  0  0  0  0  0  0  0  0  0  0  0
    9.3206  -20.4566   28.6273 C   0  0  0  0  0  0  0  0  0  0  0  0
    7.4762  -15.6089   24.0333 N   0  0  0  0  0  0  0  0  0  0  0  0
    7.6220  -14.6240   22.9651 C   0  0  1  0  0  0  0  0  0  0  0  0
    6.8311  -13.3978   23.2151 C   0  0  0  0  0  0  0  0  0  0  0  0
    7.0377  -12.9007   24.5858 C   0  0  0  0  0  0  0  0  0  0  0  0
    7.9984  -11.9951   24.9310 C   0  0  0  0  0  0  0  0  0  0  0  0
    8.1194  -11.5757   26.2320 C   0  0  0  0  0  0  0  0  0  0  0  0
    7.2988  -12.0347   27.2341 C   0  0  0  0  0  0  0  0  0  0  0  0
    6.3265  -12.9454   26.9108 C   0  0  0  0  0  0  0  0  0  0  0  0
    6.2052  -13.3638   25.6139 C   0  0  0  0  0  0  0  0  0  0  0  0
    9.0442  -14.2998   22.8720 C   0  0  0  0  0  0  0  0  0  0  0  0
    9.8394  -14.6737   23.7508 O   0  0  0  0  0  0  0  0  0  0  0  0
    9.5227  -13.5727   21.8040 O   0  0  0  0  0  0  0  0  0  0  0  0
  1  2  1  0
  2  3  1  0
  3  5  1  0
  3  4  1  6
  5 14  1  0
  6  5  2  0
  8  7  1  0
  9  8  2  0
 10  9  1  0
 11 10  2  0
 11 17  1  0
 12 11  1  0
 13 12  1  1
 14 13  1  0
 15 13  1  0
 16 15  2  0
 17 18  2  0
 18  8  1  0
 19 15  1  0
 20 19  1  0
 21 22  1  0
 20 21  1  1
 22 23  2  0
 23 24  1  0
 25 24  2  0
 26 25  1  0
 27 26  2  0
 27 22  1  0
 28 20  1  0
 28 30  1  0
 29 28  2  0
M  END
$$$$
