SYF.pdb
     RDKit          3D

 30 31  0  0  1  0  0  0  0  0999 V2000
    9.2059  -16.9334   17.1156 O   0  0  0  0  0  0  0  0  0  0  0  0
    8.9914  -16.6888   18.4619 C   0  0  0  0  0  0  0  0  0  0  0  0
    7.8817  -17.5338   19.0448 C   0  0  2  0  0  0  0  0  0  0  0  0
    6.6421  -17.1343   18.4094 N   0  0  0  0  0  0  0  0  0  0  0  0
    7.7492  -17.3809   20.4955 C   0  0  0  0  0  0  0  0  0  0  0  0
    7.0161  -16.4800   20.9769 O   0  0  0  0  0  0  0  0  0  0  0  0
    8.3847  -19.2830   29.1549 O   0  0  0  0  0  0  0  0  0  0  0  0
    8.4116  -19.3139   27.7485 C   0  0  0  0  0  0  0  0  0  0  0  0
    7.2197  -19.3124   27.0561 C   0  0  0  0  0  0  0  0  0  0  0  0
    7.2127  -19.3423   25.6769 C   0  0  0  0  0  0  0  0  0  0  0  0
    8.3756  -19.3744   24.9482 C   0  0  0  0  0  0  0  0  0  0  0  0
    8.3813  -19.4103   23.4856 C   0  0  0  0  0  0  0  0  0  0  0  0
    8.2504  -18.0529   22.8865 C   0  0  2  0  0  0  0  0  0  0  0  0
    8.4161  -18.2105   21.4436 N   0  0  0  0  0  0  0  0  0  0  0  0
    9.2030  -17.0929   23.4451 C   0  0  0  0  0  0  0  0  0  0  0  0
   10.4175  -17.0474   23.1919 O   0  0  0  0  0  0  0  0  0  0  0  0
    9.5723  -19.3753   25.6671 C   0  0  0  0  0  0  0  0  0  0  0  0
    9.5888  -19.3456   27.0421 C   0  0  0  0  0  0  0  0  0  0  0  0
    8.7044  -16.1178   24.3632 N   0  0  0  0  0  0  0  0  0  0  0  0
    9.6019  -15.1397   24.9717 C   0  0  1  0  0  0  0  0  0  0  0  0
    9.2551  -13.7485   24.6032 C   0  0  0  0  0  0  0  0  0  0  0  0
    8.0268  -13.3071   25.2853 C   0  0  0  0  0  0  0  0  0  0  0  0
    6.8482  -13.9941   25.2524 C   0  0  0  0  0  0  0  0  0  0  0  0
    5.7501  -13.5180   25.9236 C   0  0  0  0  0  0  0  0  0  0  0  0
    5.7775  -12.3506   26.6481 C   0  0  0  0  0  0  0  0  0  0  0  0
    6.9509  -11.6433   26.6951 C   0  0  0  0  0  0  0  0  0  0  0  0
    8.0461  -12.1175   26.0263 C   0  0  0  0  0  0  0  0  0  0  0  0
    9.5124  -15.3182   26.4196 C   0  0  0  0  0  0  0  0  0  0  0  0
    8.5638  -15.9422   26.9248 O   0  0  0  0  0  0  0  0  0  0  0  0
   10.4829  -14.7946   27.2456 O   0  0  0  0  0  0  0  0  0  0  0  0
  1  2  1  0
  2  3  1  0
  3  5  1  0
  3  4  1  6
  5 14  1  0
  6  5  2  0
  8  7  1  0
  9  8  2  0
 10  9  1  0
 11 10  2  0
 11 17  1  0
 12 11  1  0
 13 12  1  1
 14 13  1  0
 15 13  1  0
 16 15  2  0
 17 18  2  0
 18  8  1  0
 19 15  1  0
 20 19  1  0
 21 22  1  0
 20 21  1  1
 22 23  2  0
 23 24  1  0
 25 24  2  0
 26 25  1  0
 27 26  2  0
 27 22  1  0
 28 20  1  0
 28 30  1  0
 29 28  2  0
M  END
$$$$
