SYF.pdb
     RDKit          3D

 30 31  0  0  1  0  0  0  0  0999 V2000
   12.9140  -18.7282   22.1364 O   0  0  0  0  0  0  0  0  0  0  0  0
   12.0391  -18.8349   21.0680 C   0  0  0  0  0  0  0  0  0  0  0  0
   11.5445  -17.4941   20.5752 C   0  0  2  0  0  0  0  0  0  0  0  0
   12.6979  -16.7279   20.1479 N   0  0  0  0  0  0  0  0  0  0  0  0
   10.8200  -16.7403   21.6010 C   0  0  0  0  0  0  0  0  0  0  0  0
   11.4100  -15.8656   22.2848 O   0  0  0  0  0  0  0  0  0  0  0  0
    7.5777  -12.0269   18.4424 O   0  0  0  0  0  0  0  0  0  0  0  0
    7.5430  -12.9679   19.4879 C   0  0  0  0  0  0  0  0  0  0  0  0
    7.3650  -14.3004   19.1834 C   0  0  0  0  0  0  0  0  0  0  0  0
    7.3265  -15.2472   20.1860 C   0  0  0  0  0  0  0  0  0  0  0  0
    7.4618  -14.9060   21.5088 C   0  0  0  0  0  0  0  0  0  0  0  0
    7.4188  -15.9001   22.5812 C   0  0  0  0  0  0  0  0  0  0  0  0
    8.7795  -16.2993   23.0368 C   0  0  2  0  0  0  0  0  0  0  0  0
    9.4384  -16.9305   21.8959 N   0  0  0  0  0  0  0  0  0  0  0  0
    8.7502  -17.1777   24.2066 C   0  0  0  0  0  0  0  0  0  0  0  0
    9.0532  -18.3816   24.2156 O   0  0  0  0  0  0  0  0  0  0  0  0
    7.6413  -13.5520   21.7971 C   0  0  0  0  0  0  0  0  0  0  0  0
    7.6811  -12.6011   20.8041 C   0  0  0  0  0  0  0  0  0  0  0  0
    8.3388  -16.6127   25.4531 N   0  0  0  0  0  0  0  0  0  0  0  0
    8.2992  -17.4281   26.6639 C   0  0  1  0  0  0  0  0  0  0  0  0
    7.9870  -16.6312   27.8719 C   0  0  0  0  0  0  0  0  0  0  0  0
    8.8786  -15.4648   27.9860 C   0  0  0  0  0  0  0  0  0  0  0  0
    8.6296  -14.2557   27.4045 C   0  0  0  0  0  0  0  0  0  0  0  0
    9.5088  -13.2147   27.5671 C   0  0  0  0  0  0  0  0  0  0  0  0
   10.6610  -13.3313   28.3068 C   0  0  0  0  0  0  0  0  0  0  0  0
   10.9322  -14.5371   28.9001 C   0  0  0  0  0  0  0  0  0  0  0  0
   10.0559  -15.5752   28.7385 C   0  0  0  0  0  0  0  0  0  0  0  0
    7.2799  -18.4548   26.4563 C   0  0  0  0  0  0  0  0  0  0  0  0
    6.5162  -18.4024   25.4773 O   0  0  0  0  0  0  0  0  0  0  0  0
    7.1527  -19.4980   27.3473 O   0  0  0  0  0  0  0  0  0  0  0  0
  1  2  1  0
  2  3  1  0
  3  5  1  0
  3  4  1  1
  5 14  1  0
  6  5  2  0
  8  7  1  0
  9  8  2  0
 10  9  1  0
 11 10  2  0
 11 17  1  0
 12 11  1  0
 13 12  1  6
 14 13  1  0
 15 13  1  0
 16 15  2  0
 17 18  2  0
 18  8  1  0
 19 15  1  0
 20 19  1  0
 21 22  1  0
 20 21  1  1
 22 23  2  0
 23 24  1  0
 25 24  2  0
 26 25  1  0
 27 26  2  0
 27 22  1  0
 28 20  1  0
 28 30  1  0
 29 28  2  0
M  END
$$$$
