SYF.pdb
     RDKit          3D

 30 31  0  0  1  0  0  0  0  0999 V2000
    7.1605  -20.6548   21.1383 O   0  0  0  0  0  0  0  0  0  0  0  0
    7.4314  -21.7564   21.9329 C   0  0  0  0  0  0  0  0  0  0  0  0
    6.6289  -21.7705   23.2139 C   0  0  2  0  0  0  0  0  0  0  0  0
    5.2850  -22.2037   22.8883 N   0  0  0  0  0  0  0  0  0  0  0  0
    6.5670  -20.4593   23.8637 C   0  0  0  0  0  0  0  0  0  0  0  0
    5.5162  -19.7710   23.8110 O   0  0  0  0  0  0  0  0  0  0  0  0
    6.6216  -22.9321   29.6690 O   0  0  0  0  0  0  0  0  0  0  0  0
    7.0162  -21.8419   28.8718 C   0  0  0  0  0  0  0  0  0  0  0  0
    8.3035  -21.8035   28.3803 C   0  0  0  0  0  0  0  0  0  0  0  0
    8.7207  -20.7483   27.5958 C   0  0  0  0  0  0  0  0  0  0  0  0
    7.8832  -19.7082   27.2773 C   0  0  0  0  0  0  0  0  0  0  0  0
    8.3150  -18.5817   26.4497 C   0  0  0  0  0  0  0  0  0  0  0  0
    7.5989  -18.5321   25.1447 C   0  0  2  0  0  0  0  0  0  0  0  0
    7.6532  -19.8791   24.5818 N   0  0  0  0  0  0  0  0  0  0  0  0
    8.1556  -17.5342   24.2307 C   0  0  0  0  0  0  0  0  0  0  0  0
    9.0274  -17.7452   23.3725 O   0  0  0  0  0  0  0  0  0  0  0  0
    6.5837  -19.7651   27.7842 C   0  0  0  0  0  0  0  0  0  0  0  0
    6.1590  -20.8132   28.5670 C   0  0  0  0  0  0  0  0  0  0  0  0
    7.6610  -16.1967   24.3241 N   0  0  0  0  0  0  0  0  0  0  0  0
    8.1864  -15.1457   23.4572 C   0  0  1  0  0  0  0  0  0  0  0  0
    7.4034  -13.8927   23.5496 C   0  0  0  0  0  0  0  0  0  0  0  0
    7.2844  -13.4405   24.9460 C   0  0  0  0  0  0  0  0  0  0  0  0
    8.1707  -12.5984   25.5523 C   0  0  0  0  0  0  0  0  0  0  0  0
    7.9825  -12.2175   26.8571 C   0  0  0  0  0  0  0  0  0  0  0  0
    6.9162  -12.6536   27.6063 C   0  0  0  0  0  0  0  0  0  0  0  0
    6.0130  -13.5007   27.0181 C   0  0  0  0  0  0  0  0  0  0  0  0
    6.1999  -13.8808   25.7172 C   0  0  0  0  0  0  0  0  0  0  0  0
    9.5711  -14.9092   23.8609 C   0  0  0  0  0  0  0  0  0  0  0  0
   10.3260  -14.2121   23.1618 O   0  0  0  0  0  0  0  0  0  0  0  0
   10.0585  -15.4585   25.0267 O   0  0  0  0  0  0  0  0  0  0  0  0
  1  2  1  0
  2  3  1  0
  3  5  1  0
  3  4  1  6
  5 14  1  0
  6  5  2  0
  8  7  1  0
  9  8  2  0
 10  9  1  0
 11 10  2  0
 11 17  1  0
 12 11  1  0
 13 12  1  1
 14 13  1  0
 15 13  1  0
 16 15  2  0
 17 18  2  0
 18  8  1  0
 19 15  1  0
 20 19  1  0
 21 22  1  0
 20 21  1  1
 22 23  2  0
 23 24  1  0
 25 24  2  0
 26 25  1  0
 27 26  2  0
 27 22  1  0
 28 20  1  0
 28 30  1  0
 29 28  2  0
M  END
$$$$
