LDG.pdb
     RDKit          3D

 21 20  0  0  1  0  0  0  0  0999 V2000
    6.6630  -11.8963   24.6315 C   0  0  0  0  0  0  0  0  0  0  0  0
    6.3352  -12.7545   25.8273 C   0  0  2  0  0  0  0  0  0  0  0  0
    6.4314  -11.8909   27.0553 C   0  0  0  0  0  0  0  0  0  0  0  0
    7.2667  -13.9250   25.9652 C   0  0  0  0  0  0  0  0  0  0  0  0
    7.0377  -14.9554   24.9105 C   0  0  2  0  0  0  0  0  0  0  0  0
    5.7245  -15.4965   24.9896 N   0  0  0  0  0  0  0  0  0  0  0  0
    8.0676  -16.0495   25.0301 C   0  0  0  0  0  0  0  0  0  0  0  0
    7.6496  -17.1245   25.4828 O   0  0  0  0  0  0  0  0  0  0  0  0
    9.3891  -15.8096   24.6408 N   0  0  0  0  0  0  0  0  0  0  0  0
   10.4829  -16.7025   24.7803 C   0  0  1  0  0  0  0  0  0  0  0  0
   11.7592  -16.1747   24.1836 C   0  0  0  0  0  0  0  0  0  0  0  0
   11.9344  -16.6059   22.7945 C   0  0  0  0  0  0  0  0  0  0  0  0
   12.6579  -15.8985   22.0329 O   0  0  0  0  0  0  0  0  0  0  0  0
   10.6030  -17.1701   26.1578 C   0  0  0  0  0  0  0  0  0  0  0  0
   11.2426  -18.2549   26.3744 O   0  0  0  0  0  0  0  0  0  0  0  0
   11.3571  -17.7525   22.2492 O   0  0  0  0  0  0  0  0  0  0  0  0
   10.0542  -16.4987   27.2825 N   0  0  0  0  0  0  0  0  0  0  0  0
   10.1807  -17.0998   28.5785 C   0  0  0  0  0  0  0  0  0  0  0  0
   11.5044  -16.7851   29.1690 C   0  0  0  0  0  0  0  0  0  0  0  0
   11.8370  -17.1512   30.3128 O   0  0  0  0  0  0  0  0  0  0  0  0
   12.4166  -16.0541   28.4279 O   0  0  0  0  0  0  0  0  0  0  0  0
  2  3  1  1
  2  1  1  0
  4  2  1  0
  5  4  1  0
  5  6  1  1
  7  5  1  0
  7  9  1  0
  8  7  2  0
 10 14  1  0
 10  9  1  0
 10 11  1  1
 12 11  1  0
 12 16  1  0
 13 12  2  0
 14 17  1  0
 15 14  2  0
 17 18  1  0
 19 18  1  0
 20 19  2  0
 21 19  1  0
M  END
$$$$
