LDG.pdb
     RDKit          3D

 21 20  0  0  1  0  0  0  0  0999 V2000
   -2.4532  -19.5466   22.8538 C   0  0  0  0  0  0  0  0  0  0  0  0
   -3.9311  -19.7895   22.6777 C   0  0  2  0  0  0  0  0  0  0  0  0
   -4.4226  -18.8744   21.5896 C   0  0  0  0  0  0  0  0  0  0  0  0
   -4.7082  -19.5312   23.9371 C   0  0  0  0  0  0  0  0  0  0  0  0
   -4.3322  -20.4699   25.0344 C   0  0  2  0  0  0  0  0  0  0  0  0
   -3.6194  -21.5946   24.5341 N   0  0  0  0  0  0  0  0  0  0  0  0
   -5.5677  -20.9145   25.7748 C   0  0  0  0  0  0  0  0  0  0  0  0
   -6.2760  -20.0012   26.2215 O   0  0  0  0  0  0  0  0  0  0  0  0
   -5.8440  -22.2781   25.9158 N   0  0  0  0  0  0  0  0  0  0  0  0
   -7.0129  -22.8454   26.4858 C   0  0  1  0  0  0  0  0  0  0  0  0
   -7.6674  -23.8703   25.5999 C   0  0  0  0  0  0  0  0  0  0  0  0
   -8.2577  -23.2643   24.4037 C   0  0  0  0  0  0  0  0  0  0  0  0
   -8.8171  -22.1338   24.5171 O   0  0  0  0  0  0  0  0  0  0  0  0
   -6.7631  -23.2931   27.8525 C   0  0  0  0  0  0  0  0  0  0  0  0
   -7.7578  -23.6890   28.5502 O   0  0  0  0  0  0  0  0  0  0  0  0
   -8.2434  -23.8499   23.1380 O   0  0  0  0  0  0  0  0  0  0  0  0
   -5.4824  -23.3192   28.4656 N   0  0  0  0  0  0  0  0  0  0  0  0
   -5.3714  -23.7763   29.8204 C   0  0  0  0  0  0  0  0  0  0  0  0
   -5.0608  -25.2262   29.8546 C   0  0  0  0  0  0  0  0  0  0  0  0
   -4.9917  -25.9257   28.8256 O   0  0  0  0  0  0  0  0  0  0  0  0
   -4.8368  -25.8391   31.0753 O   0  0  0  0  0  0  0  0  0  0  0  0
  2  3  1  6
  2  1  1  0
  4  2  1  0
  5  4  1  0
  5  6  1  6
  7  5  1  0
  7  9  1  0
  8  7  2  0
 10 14  1  0
 10  9  1  0
 10 11  1  6
 12 11  1  0
 12 16  1  0
 13 12  2  0
 14 17  1  0
 15 14  2  0
 17 18  1  0
 19 18  1  0
 20 19  2  0
 21 19  1  0
M  END
$$$$
