LDG.pdb
     RDKit          3D

 21 20  0  0  1  0  0  0  0  0999 V2000
    5.4592  -12.1747   26.8462 C   0  0  0  0  0  0  0  0  0  0  0  0
    6.7635  -12.4778   26.1525 C   0  0  2  0  0  0  0  0  0  0  0  0
    7.3177  -11.1824   25.6256 C   0  0  0  0  0  0  0  0  0  0  0  0
    6.5970  -13.4485   25.0181 C   0  0  0  0  0  0  0  0  0  0  0  0
    6.8745  -14.8545   25.4336 C   0  0  2  0  0  0  0  0  0  0  0  0
    7.5166  -14.9041   26.7020 N   0  0  0  0  0  0  0  0  0  0  0  0
    7.7161  -15.5415   24.3886 C   0  0  0  0  0  0  0  0  0  0  0  0
    7.1532  -15.7447   23.3036 O   0  0  0  0  0  0  0  0  0  0  0  0
    9.0355  -15.9010   24.6807 N   0  0  0  0  0  0  0  0  0  0  0  0
    9.9343  -16.5780   23.8166 C   0  0  1  0  0  0  0  0  0  0  0  0
   10.8013  -15.6462   23.0144 C   0  0  0  0  0  0  0  0  0  0  0  0
   11.5938  -16.3618   22.0113 C   0  0  0  0  0  0  0  0  0  0  0  0
   10.9928  -16.8560   21.0121 O   0  0  0  0  0  0  0  0  0  0  0  0
   10.6623  -17.6207   24.5332 C   0  0  0  0  0  0  0  0  0  0  0  0
   11.5704  -18.2643   23.9055 O   0  0  0  0  0  0  0  0  0  0  0  0
   12.9761  -16.5353   22.0799 O   0  0  0  0  0  0  0  0  0  0  0  0
   10.4298  -17.9727   25.8893 N   0  0  0  0  0  0  0  0  0  0  0  0
   11.1698  -19.0606   26.4599 C   0  0  0  0  0  0  0  0  0  0  0  0
   10.8386  -19.2154   27.8974 C   0  0  0  0  0  0  0  0  0  0  0  0
    9.6765  -19.1161   28.3363 O   0  0  0  0  0  0  0  0  0  0  0  0
   11.8549  -19.4808   28.7986 O   0  0  0  0  0  0  0  0  0  0  0  0
  2  3  1  6
  2  1  1  0
  4  2  1  0
  5  4  1  0
  5  6  1  1
  7  5  1  0
  7  9  1  0
  8  7  2  0
 10 14  1  0
 10  9  1  0
 10 11  1  1
 12 11  1  0
 12 16  1  0
 13 12  2  0
 14 17  1  0
 15 14  2  0
 17 18  1  0
 19 18  1  0
 20 19  2  0
 21 19  1  0
M  END
$$$$
