LDG.pdb
     RDKit          3D

 21 20  0  0  1  0  0  0  0  0999 V2000
    7.3229  -11.6999   24.7012 C   0  0  0  0  0  0  0  0  0  0  0  0
    6.6411  -12.7761   25.5081 C   0  0  2  0  0  0  0  0  0  0  0  0
    6.2647  -12.1858   26.8396 C   0  0  0  0  0  0  0  0  0  0  0  0
    7.5207  -13.9747   25.7235 C   0  0  0  0  0  0  0  0  0  0  0  0
    7.8284  -14.6850   24.4478 C   0  0  2  0  0  0  0  0  0  0  0  0
    6.6399  -15.0421   23.7525 N   0  0  0  0  0  0  0  0  0  0  0  0
    8.6627  -15.9082   24.7302 C   0  0  0  0  0  0  0  0  0  0  0  0
    8.0241  -16.9356   24.9987 O   0  0  0  0  0  0  0  0  0  0  0  0
   10.0579  -15.8289   24.6775 N   0  0  0  0  0  0  0  0  0  0  0  0
   10.9727  -16.8613   25.0095 C   0  0  1  0  0  0  0  0  0  0  0  0
   12.3764  -16.5816   24.5458 C   0  0  0  0  0  0  0  0  0  0  0  0
   12.4431  -16.3667   23.0981 C   0  0  0  0  0  0  0  0  0  0  0  0
   11.8122  -17.1639   22.3431 O   0  0  0  0  0  0  0  0  0  0  0  0
   10.8587  -17.2272   26.4179 C   0  0  0  0  0  0  0  0  0  0  0  0
   11.1392  -16.3431   27.2968 O   0  0  0  0  0  0  0  0  0  0  0  0
   13.1570  -15.3346   22.4894 O   0  0  0  0  0  0  0  0  0  0  0  0
   10.4553  -18.5070   26.8831 N   0  0  0  0  0  0  0  0  0  0  0  0
   10.3678  -18.7352   28.2962 C   0  0  0  0  0  0  0  0  0  0  0  0
   11.5835  -19.4300   28.7854 C   0  0  0  0  0  0  0  0  0  0  0  0
   12.5620  -19.6735   28.0531 O   0  0  0  0  0  0  0  0  0  0  0  0
   11.6448  -19.8300   30.1090 O   0  0  0  0  0  0  0  0  0  0  0  0
  2  3  1  1
  2  1  1  0
  4  2  1  0
  5  4  1  0
  5  6  1  1
  7  5  1  0
  7  9  1  0
  8  7  2  0
 10 14  1  0
 10  9  1  0
 10 11  1  1
 12 11  1  0
 12 16  1  0
 13 12  2  0
 14 17  1  0
 15 14  2  0
 17 18  1  0
 19 18  1  0
 20 19  2  0
 21 19  1  0
M  END
$$$$
