LDG.pdb
     RDKit          3D

 21 20  0  0  1  0  0  0  0  0999 V2000
    9.0658  -11.9182   18.9565 C   0  0  0  0  0  0  0  0  0  0  0  0
    8.2366  -13.1772   18.9168 C   0  0  2  0  0  0  0  0  0  0  0  0
    6.7882  -12.7741   18.8655 C   0  0  0  0  0  0  0  0  0  0  0  0
    8.4692  -14.0545   20.1139 C   0  0  0  0  0  0  0  0  0  0  0  0
    9.9144  -14.3700   20.3095 C   0  0  2  0  0  0  0  0  0  0  0  0
   10.5259  -14.7799   19.0924 N   0  0  0  0  0  0  0  0  0  0  0  0
   10.0683  -15.4370   21.3632 C   0  0  0  0  0  0  0  0  0  0  0  0
    9.4361  -15.2430   22.4111 O   0  0  0  0  0  0  0  0  0  0  0  0
   10.8821  -16.5475   21.1182 N   0  0  0  0  0  0  0  0  0  0  0  0
   11.2391  -17.5522   22.0543 C   0  0  1  0  0  0  0  0  0  0  0  0
   11.1920  -18.9419   21.4797 C   0  0  0  0  0  0  0  0  0  0  0  0
   11.2771  -19.9689   22.5211 C   0  0  0  0  0  0  0  0  0  0  0  0
   12.3632  -20.6079   22.6469 O   0  0  0  0  0  0  0  0  0  0  0  0
   12.4878  -17.2156   22.7310 C   0  0  0  0  0  0  0  0  0  0  0  0
   12.6856  -17.6844   23.9031 O   0  0  0  0  0  0  0  0  0  0  0  0
   10.2369  -20.2922   23.3923 O   0  0  0  0  0  0  0  0  0  0  0  0
   13.5058  -16.3971   22.1736 N   0  0  0  0  0  0  0  0  0  0  0  0
   14.6805  -16.1260   22.9503 C   0  0  0  0  0  0  0  0  0  0  0  0
   15.6383  -15.3034   22.1720 C   0  0  0  0  0  0  0  0  0  0  0  0
   15.4125  -14.9281   21.0053 O   0  0  0  0  0  0  0  0  0  0  0  0
   16.8370  -14.9315   22.7555 O   0  0  0  0  0  0  0  0  0  0  0  0
  2  3  1  1
  2  1  1  0
  4  2  1  0
  5  4  1  0
  5  6  1  6
  7  5  1  0
  7  9  1  0
  8  7  2  0
 10 14  1  0
 10  9  1  0
 10 11  1  6
 12 11  1  0
 12 16  1  0
 13 12  2  0
 14 17  1  0
 15 14  2  0
 17 18  1  0
 19 18  1  0
 20 19  2  0
 21 19  1  0
M  END
$$$$
