LDG.pdb
     RDKit          3D

 21 20  0  0  1  0  0  0  0  0999 V2000
    8.5636  -12.2909   18.4158 C   0  0  0  0  0  0  0  0  0  0  0  0
    7.9592  -13.5461   18.9934 C   0  0  2  0  0  0  0  0  0  0  0  0
    6.5491  -13.2292   19.4109 C   0  0  0  0  0  0  0  0  0  0  0  0
    8.7277  -14.0596   20.1776 C   0  0  0  0  0  0  0  0  0  0  0  0
   10.1478  -14.3672   19.8381 C   0  0  2  0  0  0  0  0  0  0  0  0
   10.2412  -15.1431   18.6496 N   0  0  0  0  0  0  0  0  0  0  0  0
   10.8068  -15.0833   20.9893 C   0  0  0  0  0  0  0  0  0  0  0  0
   10.5487  -14.6305   22.1134 O   0  0  0  0  0  0  0  0  0  0  0  0
   11.6419  -16.1778   20.7442 N   0  0  0  0  0  0  0  0  0  0  0  0
   12.4389  -16.8590   21.7001 C   0  0  1  0  0  0  0  0  0  0  0  0
   12.5724  -18.3312   21.4202 C   0  0  0  0  0  0  0  0  0  0  0  0
   11.3025  -19.0402   21.5964 C   0  0  0  0  0  0  0  0  0  0  0  0
   10.5175  -18.6479   22.5095 O   0  0  0  0  0  0  0  0  0  0  0  0
   13.7040  -16.1636   21.9160 C   0  0  0  0  0  0  0  0  0  0  0  0
   14.4585  -16.5626   22.8670 O   0  0  0  0  0  0  0  0  0  0  0  0
   10.8938  -20.1243   20.8198 O   0  0  0  0  0  0  0  0  0  0  0  0
   14.1581  -15.0661   21.1374 N   0  0  0  0  0  0  0  0  0  0  0  0
   15.3655  -14.3950   21.5228 C   0  0  0  0  0  0  0  0  0  0  0  0
   16.5171  -14.9114   20.7434 C   0  0  0  0  0  0  0  0  0  0  0  0
   16.4173  -15.8586   19.9398 O   0  0  0  0  0  0  0  0  0  0  0  0
   17.7598  -14.3247   20.9079 O   0  0  0  0  0  0  0  0  0  0  0  0
  2  3  1  1
  2  1  1  0
  4  2  1  0
  5  4  1  0
  5  6  1  6
  7  5  1  0
  7  9  1  0
  8  7  2  0
 10 14  1  0
 10  9  1  0
 10 11  1  6
 12 11  1  0
 12 16  1  0
 13 12  2  0
 14 17  1  0
 15 14  2  0
 17 18  1  0
 19 18  1  0
 20 19  2  0
 21 19  1  0
M  END
$$$$
