LDG.pdb
     RDKit          3D

 21 20  0  0  1  0  0  0  0  0999 V2000
   -1.1671  -23.1313   38.9828 C   0  0  0  0  0  0  0  0  0  0  0  0
   -2.5792  -23.2459   39.4997 C   0  0  2  0  0  0  0  0  0  0  0  0
   -2.5278  -23.9432   40.8317 C   0  0  0  0  0  0  0  0  0  0  0  0
   -3.4702  -24.0155   38.5666 C   0  0  0  0  0  0  0  0  0  0  0  0
   -3.5010  -23.4215   37.1981 C   0  0  2  0  0  0  0  0  0  0  0  0
   -4.0959  -22.1294   37.2061 N   0  0  0  0  0  0  0  0  0  0  0  0
   -4.2416  -24.3379   36.2579 C   0  0  0  0  0  0  0  0  0  0  0  0
   -3.6502  -25.3861   35.9630 O   0  0  0  0  0  0  0  0  0  0  0  0
   -5.5067  -23.9771   35.7838 N   0  0  0  0  0  0  0  0  0  0  0  0
   -6.3639  -24.7743   34.9821 C   0  0  1  0  0  0  0  0  0  0  0  0
   -7.8226  -24.5693   35.2883 C   0  0  0  0  0  0  0  0  0  0  0  0
   -8.1848  -25.0929   36.6078 C   0  0  0  0  0  0  0  0  0  0  0  0
   -8.8028  -24.3299   37.4076 O   0  0  0  0  0  0  0  0  0  0  0  0
   -6.0164  -24.6568   33.5693 C   0  0  0  0  0  0  0  0  0  0  0  0
   -6.6832  -25.3446   32.7236 O   0  0  0  0  0  0  0  0  0  0  0  0
   -7.8962  -26.3851   37.0463 O   0  0  0  0  0  0  0  0  0  0  0  0
   -4.9811  -23.8256   33.0653 N   0  0  0  0  0  0  0  0  0  0  0  0
   -4.7236  -23.8171   31.6545 C   0  0  0  0  0  0  0  0  0  0  0  0
   -3.8370  -24.9465   31.2825 C   0  0  0  0  0  0  0  0  0  0  0  0
   -3.4831  -25.8223   32.0954 O   0  0  0  0  0  0  0  0  0  0  0  0
   -3.3766  -25.0417   29.9807 O   0  0  0  0  0  0  0  0  0  0  0  0
  2  3  1  1
  2  1  1  0
  4  2  1  0
  5  4  1  0
  5  6  1  1
  7  5  1  0
  7  9  1  0
  8  7  2  0
 10 14  1  0
 10  9  1  0
 10 11  1  6
 12 11  1  0
 12 16  1  0
 13 12  2  0
 14 17  1  0
 15 14  2  0
 17 18  1  0
 19 18  1  0
 20 19  2  0
 21 19  1  0
M  END
$$$$
