LDG.pdb
     RDKit          3D

 21 20  0  0  1  0  0  0  0  0999 V2000
    9.1684  -12.5133   18.6898 C   0  0  0  0  0  0  0  0  0  0  0  0
    7.9420  -13.2668   19.1398 C   0  0  2  0  0  0  0  0  0  0  0  0
    6.8946  -12.2570   19.5223 C   0  0  0  0  0  0  0  0  0  0  0  0
    8.2198  -14.1667   20.3102 C   0  0  0  0  0  0  0  0  0  0  0  0
    9.3045  -15.1497   20.0209 C   0  0  2  0  0  0  0  0  0  0  0  0
    8.9648  -15.9902   18.9247 N   0  0  0  0  0  0  0  0  0  0  0  0
    9.5903  -15.9744   21.2498 C   0  0  0  0  0  0  0  0  0  0  0  0
    8.8170  -15.7947   22.2011 O   0  0  0  0  0  0  0  0  0  0  0  0
   10.6682  -16.8653   21.2573 N   0  0  0  0  0  0  0  0  0  0  0  0
   11.0054  -17.7697   22.2971 C   0  0  1  0  0  0  0  0  0  0  0  0
   11.6623  -19.0282   21.7988 C   0  0  0  0  0  0  0  0  0  0  0  0
   11.7250  -20.0615   22.8356 C   0  0  0  0  0  0  0  0  0  0  0  0
   11.2896  -19.7799   23.9910 O   0  0  0  0  0  0  0  0  0  0  0  0
   11.7277  -17.0891   23.3675 C   0  0  0  0  0  0  0  0  0  0  0  0
   12.8472  -16.5404   23.0875 O   0  0  0  0  0  0  0  0  0  0  0  0
   12.2326  -21.3451   22.6355 O   0  0  0  0  0  0  0  0  0  0  0  0
   11.2698  -16.9939   24.7085 N   0  0  0  0  0  0  0  0  0  0  0  0
   11.9938  -16.1687   25.6313 C   0  0  0  0  0  0  0  0  0  0  0  0
   12.8959  -16.9960   26.4690 C   0  0  0  0  0  0  0  0  0  0  0  0
   13.5072  -16.5406   27.4549 O   0  0  0  0  0  0  0  0  0  0  0  0
   13.0746  -18.3313   26.1516 O   0  0  0  0  0  0  0  0  0  0  0  0
  2  3  1  1
  2  1  1  0
  4  2  1  0
  5  4  1  0
  5  6  1  6
  7  5  1  0
  7  9  1  0
  8  7  2  0
 10 14  1  0
 10  9  1  0
 10 11  1  6
 12 11  1  0
 12 16  1  0
 13 12  2  0
 14 17  1  0
 15 14  2  0
 17 18  1  0
 19 18  1  0
 20 19  2  0
 21 19  1  0
M  END
$$$$
