LDG.pdb
     RDKit          3D

 21 20  0  0  1  0  0  0  0  0999 V2000
    5.8756  -12.0306   24.9072 C   0  0  0  0  0  0  0  0  0  0  0  0
    6.3481  -12.6177   26.2134 C   0  0  2  0  0  0  0  0  0  0  0  0
    7.0041  -11.5181   27.0030 C   0  0  0  0  0  0  0  0  0  0  0  0
    7.3243  -13.7424   26.0163 C   0  0  0  0  0  0  0  0  0  0  0  0
    6.7452  -14.8573   25.2111 C   0  0  2  0  0  0  0  0  0  0  0  0
    5.6502  -15.4684   25.8826 N   0  0  0  0  0  0  0  0  0  0  0  0
    7.8123  -15.8769   24.9049 C   0  0  0  0  0  0  0  0  0  0  0  0
    7.8672  -16.8381   25.6849 O   0  0  0  0  0  0  0  0  0  0  0  0
    8.6533  -15.6973   23.8022 N   0  0  0  0  0  0  0  0  0  0  0  0
    9.6903  -16.5704   23.3836 C   0  0  1  0  0  0  0  0  0  0  0  0
   10.2212  -16.2469   22.0135 C   0  0  0  0  0  0  0  0  0  0  0  0
   11.2191  -17.2225   21.5676 C   0  0  0  0  0  0  0  0  0  0  0  0
   11.0054  -18.4489   21.7999 O   0  0  0  0  0  0  0  0  0  0  0  0
   10.7128  -16.7004   24.4171 C   0  0  0  0  0  0  0  0  0  0  0  0
   11.4188  -15.6740   24.7015 O   0  0  0  0  0  0  0  0  0  0  0  0
   12.3965  -16.8913   20.8972 O   0  0  0  0  0  0  0  0  0  0  0  0
   10.9799  -17.8970   25.1339 N   0  0  0  0  0  0  0  0  0  0  0  0
   11.9924  -17.8855   26.1495 C   0  0  0  0  0  0  0  0  0  0  0  0
   12.0730  -19.2080   26.8162 C   0  0  0  0  0  0  0  0  0  0  0  0
   11.7442  -19.3852   28.0051 O   0  0  0  0  0  0  0  0  0  0  0  0
   12.5318  -20.2983   26.0977 O   0  0  0  0  0  0  0  0  0  0  0  0
  2  3  1  1
  2  1  1  0
  4  2  1  0
  5  4  1  0
  5  6  1  1
  7  5  1  0
  7  9  1  0
  8  7  2  0
 10 14  1  0
 10  9  1  0
 10 11  1  6
 12 11  1  0
 12 16  1  0
 13 12  2  0
 14 17  1  0
 15 14  2  0
 17 18  1  0
 19 18  1  0
 20 19  2  0
 21 19  1  0
M  END
$$$$
