CMR.pdb
     RDKit          3D

 26 25  0  0  1  0  0  0  0  0999 V2000
    6.0955  -15.6715   20.7961 N   0  0  0  0  0  0  0  0  0  0  0  0
    7.1677  -14.7672   20.4899 C   0  0  1  0  0  0  0  0  0  0  0  0
    6.5903  -13.4766   19.9583 C   0  0  0  0  0  0  0  0  0  0  0  0
    7.6973  -12.9372   18.6031 S   0  0  0  0  0  0  0  0  0  0  0  0
    8.0252  -14.5759   21.6744 C   0  0  0  0  0  0  0  0  0  0  0  0
    9.2121  -14.1874   21.5257 O   0  0  0  0  0  0  0  0  0  0  0  0
    6.0851  -10.3721   26.2967 C   0  0  0  0  0  0  0  0  0  0  0  0
    7.1200  -11.7907   26.7258 S   0  0  0  0  0  0  0  0  0  0  0  0
    7.6636  -12.5648   25.1798 C   0  0  0  0  0  0  0  0  0  0  0  0
    7.7330  -14.0807   25.3367 C   0  0  0  0  0  0  0  0  0  0  0  0
    8.4393  -14.7116   24.1565 C   0  0  2  0  0  0  0  0  0  0  0  0
    7.5775  -14.8111   23.0060 N   0  0  0  0  0  0  0  0  0  0  0  0
    9.0516  -16.0167   24.5180 C   0  0  0  0  0  0  0  0  0  0  0  0
    8.2918  -17.0004   24.6876 O   0  0  0  0  0  0  0  0  0  0  0  0
   15.7645  -14.2608   21.7999 N   0  0  0  0  0  0  0  0  0  0  0  0
   14.7796  -14.5554   20.8444 C   0  0  0  0  0  0  0  0  0  0  0  0
   14.8328  -14.0016   19.6852 N   0  0  0  0  0  0  0  0  0  0  0  0
   13.7354  -15.4584   21.1701 N   0  0  0  0  0  0  0  0  0  0  0  0
   13.7179  -16.0353   22.4947 C   0  0  0  0  0  0  0  0  0  0  0  0
   12.4936  -16.8692   22.7305 C   0  0  0  0  0  0  0  0  0  0  0  0
   12.4506  -17.4470   24.0970 C   0  0  0  0  0  0  0  0  0  0  0  0
   11.1590  -17.4151   24.8105 C   0  0  2  0  0  0  0  0  0  0  0  0
   10.4543  -16.1587   24.6695 N   0  0  0  0  0  0  0  0  0  0  0  0
   11.2035  -17.8814   26.2292 C   0  0  0  0  0  0  0  0  0  0  0  0
   11.6677  -19.1330   26.6023 O   0  0  0  0  0  0  0  0  0  0  0  0
   10.8171  -17.1588   27.1932 O   0  0  0  0  0  0  0  0  0  0  0  0
  2  1  1  1
  2  3  1  0
  4  3  1  0
  5  2  1  0
  5  6  2  0
  7  8  1  0
  8  9  1  0
  9 10  1  0
 11 10  1  1
 11 12  1  0
 12  5  1  0
 13 11  1  0
 14 13  2  0
 16 15  1  0
 16 18  1  0
 17 16  2  0
 19 18  1  0
 19 20  1  0
 20 21  1  0
 22 23  1  0
 22 21  1  1
 23 13  1  0
 24 22  1  0
 25 24  1  0
 26 24  2  0
M  END
$$$$
