CMR.pdb
     RDKit          3D

 26 25  0  0  1  0  0  0  0  0999 V2000
    8.7733  -15.9987   19.3475 N   0  0  0  0  0  0  0  0  0  0  0  0
    7.9679  -16.4563   20.4442 C   0  0  1  0  0  0  0  0  0  0  0  0
    7.9320  -17.9664   20.4360 C   0  0  0  0  0  0  0  0  0  0  0  0
    7.1837  -18.4547   18.8377 S   0  0  0  0  0  0  0  0  0  0  0  0
    8.4687  -15.8938   21.7121 C   0  0  0  0  0  0  0  0  0  0  0  0
    9.7078  -15.8358   21.9194 O   0  0  0  0  0  0  0  0  0  0  0  0
    7.2077  -10.9658   26.9023 C   0  0  0  0  0  0  0  0  0  0  0  0
    6.4566  -12.6089   26.9623 S   0  0  0  0  0  0  0  0  0  0  0  0
    7.5940  -13.7654   26.1536 C   0  0  0  0  0  0  0  0  0  0  0  0
    7.1177  -14.0825   24.7394 C   0  0  0  0  0  0  0  0  0  0  0  0
    8.0856  -15.0135   24.0422 C   0  0  2  0  0  0  0  0  0  0  0  0
    7.6116  -15.4019   22.7381 N   0  0  0  0  0  0  0  0  0  0  0  0
    8.4268  -16.1849   24.8909 C   0  0  0  0  0  0  0  0  0  0  0  0
    7.4979  -16.9496   25.2459 O   0  0  0  0  0  0  0  0  0  0  0  0
   16.0715  -20.1744   24.5358 N   0  0  0  0  0  0  0  0  0  0  0  0
   15.4982  -20.5725   25.7535 C   0  0  0  0  0  0  0  0  0  0  0  0
   15.8904  -21.6607   26.3149 N   0  0  0  0  0  0  0  0  0  0  0  0
   14.4907  -19.7711   26.3486 N   0  0  0  0  0  0  0  0  0  0  0  0
   13.1500  -19.8493   25.8152 C   0  0  0  0  0  0  0  0  0  0  0  0
   12.1697  -19.0657   26.6366 C   0  0  0  0  0  0  0  0  0  0  0  0
   11.6344  -17.8847   25.9142 C   0  0  0  0  0  0  0  0  0  0  0  0
   10.1978  -17.5840   26.0693 C   0  0  2  0  0  0  0  0  0  0  0  0
    9.7617  -16.4419   25.2944 N   0  0  0  0  0  0  0  0  0  0  0  0
    9.7071  -17.5302   27.4794 C   0  0  0  0  0  0  0  0  0  0  0  0
    9.0236  -18.5728   28.0852 O   0  0  0  0  0  0  0  0  0  0  0  0
    9.8842  -16.5207   28.2213 O   0  0  0  0  0  0  0  0  0  0  0  0
  2  1  1  6
  2  3  1  0
  4  3  1  0
  5  2  1  0
  5  6  2  0
  7  8  1  0
  8  9  1  0
  9 10  1  0
 11 10  1  1
 11 12  1  0
 12  5  1  0
 13 11  1  0
 14 13  2  0
 16 15  1  0
 16 18  1  0
 17 16  2  0
 19 18  1  0
 19 20  1  0
 20 21  1  0
 22 23  1  0
 22 21  1  1
 23 13  1  0
 24 22  1  0
 25 24  1  0
 26 24  2  0
M  END
$$$$
