CMR.pdb
     RDKit          3D

 26 25  0  0  1  0  0  0  0  0999 V2000
    8.0373  -12.5523   19.4005 N   0  0  0  0  0  0  0  0  0  0  0  0
    7.1404  -13.1947   20.3192 C   0  0  1  0  0  0  0  0  0  0  0  0
    6.5744  -14.4367   19.6720 C   0  0  0  0  0  0  0  0  0  0  0  0
    7.9638  -15.6207   19.5279 S   0  0  0  0  0  0  0  0  0  0  0  0
    7.8282  -13.4662   21.5951 C   0  0  0  0  0  0  0  0  0  0  0  0
    9.0842  -13.4248   21.6448 O   0  0  0  0  0  0  0  0  0  0  0  0
    7.6122  -11.3005   27.7868 C   0  0  0  0  0  0  0  0  0  0  0  0
    6.0991  -11.8851   26.9892 S   0  0  0  0  0  0  0  0  0  0  0  0
    6.5195  -12.3646   25.2926 C   0  0  0  0  0  0  0  0  0  0  0  0
    6.9344  -13.8317   25.2392 C   0  0  0  0  0  0  0  0  0  0  0  0
    7.8100  -14.0992   24.0344 C   0  0  2  0  0  0  0  0  0  0  0  0
    7.1374  -13.7799   22.8008 N   0  0  0  0  0  0  0  0  0  0  0  0
    8.3454  -15.4856   24.0431 C   0  0  0  0  0  0  0  0  0  0  0  0
    7.5629  -16.4244   23.7603 O   0  0  0  0  0  0  0  0  0  0  0  0
   13.8739  -19.3965   19.5561 N   0  0  0  0  0  0  0  0  0  0  0  0
   13.8454  -20.3461   20.5893 C   0  0  0  0  0  0  0  0  0  0  0  0
   14.3522  -21.5118   20.3952 N   0  0  0  0  0  0  0  0  0  0  0  0
   13.2552  -20.0094   21.8342 N   0  0  0  0  0  0  0  0  0  0  0  0
   12.6883  -18.6892   21.9881 C   0  0  0  0  0  0  0  0  0  0  0  0
   12.2154  -18.4384   23.3892 C   0  0  0  0  0  0  0  0  0  0  0  0
   11.5563  -17.1172   23.5416 C   0  0  0  0  0  0  0  0  0  0  0  0
   10.3228  -17.0598   24.3501 C   0  0  2  0  0  0  0  0  0  0  0  0
    9.7015  -15.7526   24.3603 N   0  0  0  0  0  0  0  0  0  0  0  0
   10.4321  -17.6438   25.7209 C   0  0  0  0  0  0  0  0  0  0  0  0
    9.3457  -18.1441   26.4213 O   0  0  0  0  0  0  0  0  0  0  0  0
   11.5331  -17.7213   26.3395 O   0  0  0  0  0  0  0  0  0  0  0  0
  2  1  1  6
  2  3  1  0
  4  3  1  0
  5  2  1  0
  5  6  2  0
  7  8  1  0
  8  9  1  0
  9 10  1  0
 11 10  1  1
 11 12  1  0
 12  5  1  0
 13 11  1  0
 14 13  2  0
 16 15  1  0
 16 18  1  0
 17 16  2  0
 19 18  1  0
 19 20  1  0
 20 21  1  0
 22 23  1  0
 22 21  1  1
 23 13  1  0
 24 22  1  0
 25 24  1  0
 26 24  2  0
M  END
$$$$
