CMR.pdb
     RDKit          3D

 26 25  0  0  1  0  0  0  0  0999 V2000
    9.9096  -17.5917   29.1879 N   0  0  0  0  0  0  0  0  0  0  0  0
    9.8087  -16.3183   28.5326 C   0  0  1  0  0  0  0  0  0  0  0  0
   11.1742  -15.9087   28.0333 C   0  0  0  0  0  0  0  0  0  0  0  0
   12.0841  -15.2705   29.4886 S   0  0  0  0  0  0  0  0  0  0  0  0
    8.7925  -16.3751   27.4653 C   0  0  0  0  0  0  0  0  0  0  0  0
    8.2501  -17.4739   27.1820 O   0  0  0  0  0  0  0  0  0  0  0  0
    7.6501  -10.9390   26.0316 C   0  0  0  0  0  0  0  0  0  0  0  0
    5.9776  -11.5284   26.3819 S   0  0  0  0  0  0  0  0  0  0  0  0
    6.0405  -13.3367   26.4874 C   0  0  0  0  0  0  0  0  0  0  0  0
    6.8574  -13.9112   25.3341 C   0  0  0  0  0  0  0  0  0  0  0  0
    7.3842  -15.2866   25.6813 C   0  0  2  0  0  0  0  0  0  0  0  0
    8.3813  -15.2329   26.7201 N   0  0  0  0  0  0  0  0  0  0  0  0
    7.8640  -16.0102   24.4750 C   0  0  0  0  0  0  0  0  0  0  0  0
    7.0210  -16.3332   23.6040 O   0  0  0  0  0  0  0  0  0  0  0  0
    7.1450  -13.8232   18.9766 N   0  0  0  0  0  0  0  0  0  0  0  0
    8.4175  -13.2487   18.8328 C   0  0  0  0  0  0  0  0  0  0  0  0
    8.5220  -12.0048   18.5243 N   0  0  0  0  0  0  0  0  0  0  0  0
    9.5730  -14.0480   19.0265 N   0  0  0  0  0  0  0  0  0  0  0  0
    9.4038  -15.3737   19.5759 C   0  0  0  0  0  0  0  0  0  0  0  0
   10.3316  -15.6300   20.7263 C   0  0  0  0  0  0  0  0  0  0  0  0
    9.6581  -15.5018   22.0427 C   0  0  0  0  0  0  0  0  0  0  0  0
    9.8840  -16.5740   23.0315 C   0  0  2  0  0  0  0  0  0  0  0  0
    9.2341  -16.3319   24.3019 N   0  0  0  0  0  0  0  0  0  0  0  0
   11.3070  -16.9981   23.1970 C   0  0  0  0  0  0  0  0  0  0  0  0
   12.0551  -17.5600   22.1744 O   0  0  0  0  0  0  0  0  0  0  0  0
   11.9297  -16.8716   24.2911 O   0  0  0  0  0  0  0  0  0  0  0  0
  2  1  1  6
  2  3  1  0
  4  3  1  0
  5  2  1  0
  5  6  2  0
  7  8  1  0
  8  9  1  0
  9 10  1  0
 11 10  1  6
 11 12  1  0
 12  5  1  0
 13 11  1  0
 14 13  2  0
 16 15  1  0
 16 18  1  0
 17 16  2  0
 19 18  1  0
 19 20  1  0
 20 21  1  0
 22 23  1  0
 22 21  1  6
 23 13  1  0
 24 22  1  0
 25 24  1  0
 26 24  2  0
M  END
$$$$
