CMR.pdb
     RDKit          3D

 26 25  0  0  1  0  0  0  0  0999 V2000
    6.4999  -15.6536   20.1535 N   0  0  0  0  0  0  0  0  0  0  0  0
    7.5046  -14.6283   20.1753 C   0  0  1  0  0  0  0  0  0  0  0  0
    6.9595  -13.3867   19.5097 C   0  0  0  0  0  0  0  0  0  0  0  0
    8.3751  -12.2408   19.3201 S   0  0  0  0  0  0  0  0  0  0  0  0
    7.9616  -14.3938   21.5576 C   0  0  0  0  0  0  0  0  0  0  0  0
    9.1502  -14.0401   21.7673 O   0  0  0  0  0  0  0  0  0  0  0  0
    8.3511  -11.7915   28.1972 C   0  0  0  0  0  0  0  0  0  0  0  0
    7.8525  -11.9705   26.4689 S   0  0  0  0  0  0  0  0  0  0  0  0
    6.8926  -13.5014   26.3273 C   0  0  0  0  0  0  0  0  0  0  0  0
    6.4300  -13.7110   24.8888 C   0  0  0  0  0  0  0  0  0  0  0  0
    7.5492  -14.2752   24.0409 C   0  0  2  0  0  0  0  0  0  0  0  0
    7.1166  -14.5484   22.6939 N   0  0  0  0  0  0  0  0  0  0  0  0
    8.1796  -15.4584   24.6824 C   0  0  0  0  0  0  0  0  0  0  0  0
    7.4292  -16.3387   25.1679 O   0  0  0  0  0  0  0  0  0  0  0  0
   14.6471  -19.2648   21.0311 N   0  0  0  0  0  0  0  0  0  0  0  0
   14.2934  -20.2825   21.9307 C   0  0  0  0  0  0  0  0  0  0  0  0
   14.9658  -21.3783   21.9471 N   0  0  0  0  0  0  0  0  0  0  0  0
   13.1962  -20.0910   22.8089 N   0  0  0  0  0  0  0  0  0  0  0  0
   12.4456  -18.8604   22.7081 C   0  0  0  0  0  0  0  0  0  0  0  0
   12.2907  -18.1839   24.0378 C   0  0  0  0  0  0  0  0  0  0  0  0
   11.4642  -16.9535   23.9597 C   0  0  0  0  0  0  0  0  0  0  0  0
   10.3006  -16.8553   24.8623 C   0  0  2  0  0  0  0  0  0  0  0  0
    9.5889  -15.6000   24.7497 N   0  0  0  0  0  0  0  0  0  0  0  0
   10.5646  -17.2290   26.2846 C   0  0  0  0  0  0  0  0  0  0  0  0
   10.1270  -16.4737   27.3612 O   0  0  0  0  0  0  0  0  0  0  0  0
   11.2108  -18.2688   26.6041 O   0  0  0  0  0  0  0  0  0  0  0  0
  2  1  1  1
  2  3  1  0
  4  3  1  0
  5  2  1  0
  5  6  2  0
  7  8  1  0
  8  9  1  0
  9 10  1  0
 11 10  1  1
 11 12  1  0
 12  5  1  0
 13 11  1  0
 14 13  2  0
 16 15  1  0
 16 18  1  0
 17 16  2  0
 19 18  1  0
 19 20  1  0
 20 21  1  0
 22 23  1  0
 22 21  1  6
 23 13  1  0
 24 22  1  0
 25 24  1  0
 26 24  2  0
M  END
$$$$
