CMR.pdb
     RDKit          3D

 26 25  0  0  1  0  0  0  0  0999 V2000
    8.5377  -14.6023   19.3120 N   0  0  0  0  0  0  0  0  0  0  0  0
    7.8085  -15.2533   20.3635 C   0  0  1  0  0  0  0  0  0  0  0  0
    7.7756  -16.7397   20.0966 C   0  0  0  0  0  0  0  0  0  0  0  0
    6.2536  -17.0552   19.1287 S   0  0  0  0  0  0  0  0  0  0  0  0
    8.3919  -14.9109   21.6740 C   0  0  0  0  0  0  0  0  0  0  0  0
    9.6419  -14.8606   21.8034 O   0  0  0  0  0  0  0  0  0  0  0  0
    5.3104  -11.8021   26.3347 C   0  0  0  0  0  0  0  0  0  0  0  0
    6.6974  -12.3006   27.3811 S   0  0  0  0  0  0  0  0  0  0  0  0
    7.7920  -13.3469   26.3851 C   0  0  0  0  0  0  0  0  0  0  0  0
    7.2185  -13.5394   24.9846 C   0  0  0  0  0  0  0  0  0  0  0  0
    8.1738  -14.3287   24.1162 C   0  0  2  0  0  0  0  0  0  0  0  0
    7.6045  -14.6281   22.8269 N   0  0  0  0  0  0  0  0  0  0  0  0
    8.6684  -15.5456   24.8115 C   0  0  0  0  0  0  0  0  0  0  0  0
    7.8840  -16.5168   24.9353 O   0  0  0  0  0  0  0  0  0  0  0  0
   15.8423  -15.9096   23.2586 N   0  0  0  0  0  0  0  0  0  0  0  0
   15.2240  -16.9281   22.5168 C   0  0  0  0  0  0  0  0  0  0  0  0
   15.8476  -17.4616   21.5270 N   0  0  0  0  0  0  0  0  0  0  0  0
   13.9172  -17.3546   22.8662 N   0  0  0  0  0  0  0  0  0  0  0  0
   13.2024  -16.6112   23.8783 C   0  0  0  0  0  0  0  0  0  0  0  0
   12.7755  -17.4826   25.0220 C   0  0  0  0  0  0  0  0  0  0  0  0
   12.0338  -16.7322   26.0660 C   0  0  0  0  0  0  0  0  0  0  0  0
   10.5593  -16.7602   26.0079 C   0  0  2  0  0  0  0  0  0  0  0  0
    9.9882  -15.6192   25.3246 N   0  0  0  0  0  0  0  0  0  0  0  0
    9.8761  -17.0406   27.3067 C   0  0  0  0  0  0  0  0  0  0  0  0
    9.6047  -18.3220   27.7600 O   0  0  0  0  0  0  0  0  0  0  0  0
    9.4963  -16.1192   28.0862 O   0  0  0  0  0  0  0  0  0  0  0  0
  2  1  1  6
  2  3  1  0
  4  3  1  0
  5  2  1  0
  5  6  2  0
  7  8  1  0
  8  9  1  0
  9 10  1  0
 11 10  1  1
 11 12  1  0
 12  5  1  0
 13 11  1  0
 14 13  2  0
 16 15  1  0
 16 18  1  0
 17 16  2  0
 19 18  1  0
 19 20  1  0
 20 21  1  0
 22 23  1  0
 22 21  1  1
 23 13  1  0
 24 22  1  0
 25 24  1  0
 26 24  2  0
M  END
$$$$
