CMR.pdb
     RDKit          3D

 26 25  0  0  1  0  0  0  0  0999 V2000
    8.4011  -13.0235   19.2528 N   0  0  0  0  0  0  0  0  0  0  0  0
    7.5975  -13.8193   20.1371 C   0  0  1  0  0  0  0  0  0  0  0  0
    7.4260  -15.1981   19.5445 C   0  0  0  0  0  0  0  0  0  0  0  0
    6.3588  -16.1283   20.7058 S   0  0  0  0  0  0  0  0  0  0  0  0
    8.1918  -13.8366   21.4867 C   0  0  0  0  0  0  0  0  0  0  0  0
    9.4203  -13.6068   21.6274 O   0  0  0  0  0  0  0  0  0  0  0  0
    6.3139  -10.5006   27.0785 C   0  0  0  0  0  0  0  0  0  0  0  0
    6.2284  -12.2817   27.3751 S   0  0  0  0  0  0  0  0  0  0  0  0
    7.4620  -13.0779   26.3124 C   0  0  0  0  0  0  0  0  0  0  0  0
    6.8940  -13.3107   24.9158 C   0  0  0  0  0  0  0  0  0  0  0  0
    7.9495  -13.8828   23.9947 C   0  0  2  0  0  0  0  0  0  0  0  0
    7.4387  -14.1047   22.6658 N   0  0  0  0  0  0  0  0  0  0  0  0
    8.5761  -15.1018   24.5696 C   0  0  0  0  0  0  0  0  0  0  0  0
    8.9269  -15.0755   25.7737 O   0  0  0  0  0  0  0  0  0  0  0  0
   10.6505  -18.6884   16.9915 N   0  0  0  0  0  0  0  0  0  0  0  0
   11.1182  -18.7784   18.3117 C   0  0  0  0  0  0  0  0  0  0  0  0
   12.2493  -19.3422   18.5483 N   0  0  0  0  0  0  0  0  0  0  0  0
   10.3358  -18.2490   19.3697 N   0  0  0  0  0  0  0  0  0  0  0  0
   10.8500  -18.3470   20.7165 C   0  0  0  0  0  0  0  0  0  0  0  0
    9.8981  -17.7781   21.7264 C   0  0  0  0  0  0  0  0  0  0  0  0
   10.3250  -18.0385   23.1239 C   0  0  0  0  0  0  0  0  0  0  0  0
    9.5206  -17.4380   24.2058 C   0  0  2  0  0  0  0  0  0  0  0  0
    8.7768  -16.2684   23.7889 N   0  0  0  0  0  0  0  0  0  0  0  0
   10.2477  -17.2159   25.4919 C   0  0  0  0  0  0  0  0  0  0  0  0
   10.3129  -15.9839   26.1236 O   0  0  0  0  0  0  0  0  0  0  0  0
   10.8577  -18.1455   26.0956 O   0  0  0  0  0  0  0  0  0  0  0  0
  2  1  1  6
  2  3  1  0
  4  3  1  0
  5  2  1  0
  5  6  2  0
  7  8  1  0
  8  9  1  0
  9 10  1  0
 11 10  1  1
 11 12  1  0
 12  5  1  0
 13 11  1  0
 14 13  2  0
 16 15  1  0
 16 18  1  0
 17 16  2  0
 19 18  1  0
 19 20  1  0
 20 21  1  0
 22 23  1  0
 22 21  1  6
 23 13  1  0
 24 22  1  0
 25 24  1  0
 26 24  2  0
M  END
$$$$
