CMR.pdb
     RDKit          3D

 26 25  0  0  1  0  0  0  0  0999 V2000
    7.7732  -12.5488   19.3842 N   0  0  0  0  0  0  0  0  0  0  0  0
    7.5334  -13.8274   19.9916 C   0  0  1  0  0  0  0  0  0  0  0  0
    8.1628  -14.9055   19.1412 C   0  0  0  0  0  0  0  0  0  0  0  0
    6.8258  -15.5715   18.0820 S   0  0  0  0  0  0  0  0  0  0  0  0
    8.0193  -13.8278   21.3840 C   0  0  0  0  0  0  0  0  0  0  0  0
    9.1775  -13.4082   21.6378 O   0  0  0  0  0  0  0  0  0  0  0  0
    5.0504  -11.0511   26.8407 C   0  0  0  0  0  0  0  0  0  0  0  0
    5.7384  -12.7202   26.7493 S   0  0  0  0  0  0  0  0  0  0  0  0
    6.0302  -13.1019   25.0018 C   0  0  0  0  0  0  0  0  0  0  0  0
    6.6695  -14.4792   24.8550 C   0  0  0  0  0  0  0  0  0  0  0  0
    7.7650  -14.4550   23.8115 C   0  0  2  0  0  0  0  0  0  0  0  0
    7.2360  -14.2862   22.4819 N   0  0  0  0  0  0  0  0  0  0  0  0
    8.6515  -15.6430   23.9200 C   0  0  0  0  0  0  0  0  0  0  0  0
    8.2112  -16.7485   23.5230 O   0  0  0  0  0  0  0  0  0  0  0  0
   15.9120  -14.8314   19.9817 N   0  0  0  0  0  0  0  0  0  0  0  0
   15.7176  -16.2206   20.0292 C   0  0  0  0  0  0  0  0  0  0  0  0
   16.3080  -16.9747   19.1713 N   0  0  0  0  0  0  0  0  0  0  0  0
   14.8697  -16.7758   21.0214 N   0  0  0  0  0  0  0  0  0  0  0  0
   14.1491  -15.8727   21.8892 C   0  0  0  0  0  0  0  0  0  0  0  0
   13.2336  -16.6021   22.8270 C   0  0  0  0  0  0  0  0  0  0  0  0
   12.0704  -15.7800   23.2445 C   0  0  0  0  0  0  0  0  0  0  0  0
   11.0698  -16.4123   24.1261 C   0  0  2  0  0  0  0  0  0  0  0  0
    9.9608  -15.5423   24.4551 N   0  0  0  0  0  0  0  0  0  0  0  0
   11.6258  -17.0986   25.3311 C   0  0  0  0  0  0  0  0  0  0  0  0
   12.5121  -18.1616   25.2573 O   0  0  0  0  0  0  0  0  0  0  0  0
   11.3223  -16.7522   26.5096 O   0  0  0  0  0  0  0  0  0  0  0  0
  2  1  1  6
  2  3  1  0
  4  3  1  0
  5  2  1  0
  5  6  2  0
  7  8  1  0
  8  9  1  0
  9 10  1  0
 11 10  1  1
 11 12  1  0
 12  5  1  0
 13 11  1  0
 14 13  2  0
 16 15  1  0
 16 18  1  0
 17 16  2  0
 19 18  1  0
 19 20  1  0
 20 21  1  0
 22 23  1  0
 22 21  1  1
 23 13  1  0
 24 22  1  0
 25 24  1  0
 26 24  2  0
M  END
$$$$
