SVC.pdb
     RDKit          3D

 20 19  0  0  1  0  0  0  0  0999 V2000
    8.8800  -17.8166   21.3221 O   0  0  0  0  0  0  0  0  0  0  0  0
    8.0179  -17.1539   22.1949 C   0  0  0  0  0  0  0  0  0  0  0  0
    7.9972  -15.6664   21.9325 C   0  0  2  0  0  0  0  0  0  0  0  0
    8.8587  -15.3975   20.7973 N   0  0  0  0  0  0  0  0  0  0  0  0
    8.5147  -14.9614   23.1534 C   0  0  0  0  0  0  0  0  0  0  0  0
    9.7337  -14.6901   23.2865 O   0  0  0  0  0  0  0  0  0  0  0  0
    6.4266  -12.1211   25.2332 C   0  0  0  0  0  0  0  0  0  0  0  0
    7.0036  -13.2164   26.0622 C   0  0  2  0  0  0  0  0  0  0  0  0
    7.4526  -12.7424   27.4099 C   0  0  0  0  0  0  0  0  0  0  0  0
    8.1918  -13.9020   25.3985 C   0  0  2  0  0  0  0  0  0  0  0  0
    7.6630  -14.5639   24.2195 N   0  0  0  0  0  0  0  0  0  0  0  0
    8.7274  -14.9212   26.3629 C   0  0  0  0  0  0  0  0  0  0  0  0
    8.0583  -15.9102   26.7186 O   0  0  0  0  0  0  0  0  0  0  0  0
   10.0327  -14.7660   26.8928 N   0  0  0  0  0  0  0  0  0  0  0  0
   10.5295  -15.7751   27.8102 C   0  0  1  0  0  0  0  0  0  0  0  0
   11.9724  -16.1348   27.5005 C   0  0  0  0  0  0  0  0  0  0  0  0
   12.1679  -16.4464   25.7452 S   0  0  0  0  0  0  0  0  0  0  0  0
   10.4082  -15.2953   29.2256 C   0  0  0  0  0  0  0  0  0  0  0  0
   10.0655  -14.1207   29.4908 O   0  0  0  0  0  0  0  0  0  0  0  0
   10.6782  -16.1600   30.2749 O   0  0  0  0  0  0  0  0  0  0  0  0
  2  1  1  0
  3  5  1  0
  3  2  1  0
  3  4  1  6
  5  6  2  0
  8  7  1  6
  8  9  1  0
  8 10  1  0
 10 12  1  0
 10 11  1  6
 11  5  1  0
 12 14  1  0
 12 13  2  0
 14 15  1  0
 15 18  1  0
 15 16  1  6
 17 16  1  0
 18 19  2  0
 18 20  1  0
M  END
$$$$
