SVC.pdb
     RDKit          3D

 20 19  0  0  1  0  0  0  0  0999 V2000
    6.6384  -17.5591   20.9356 O   0  0  0  0  0  0  0  0  0  0  0  0
    7.3942  -16.9180   21.9165 C   0  0  0  0  0  0  0  0  0  0  0  0
    7.2849  -15.4153   21.8082 C   0  0  2  0  0  0  0  0  0  0  0  0
    7.9082  -15.0071   20.5639 N   0  0  0  0  0  0  0  0  0  0  0  0
    8.0058  -14.8013   22.9739 C   0  0  0  0  0  0  0  0  0  0  0  0
    9.2536  -14.6591   22.9720 O   0  0  0  0  0  0  0  0  0  0  0  0
    6.3241  -12.0781   25.5548 C   0  0  0  0  0  0  0  0  0  0  0  0
    7.0186  -13.2240   26.2065 C   0  0  2  0  0  0  0  0  0  0  0  0
    7.7135  -12.8305   27.4733 C   0  0  0  0  0  0  0  0  0  0  0  0
    8.0527  -13.8846   25.3029 C   0  0  2  0  0  0  0  0  0  0  0  0
    7.3242  -14.3498   24.1364 N   0  0  0  0  0  0  0  0  0  0  0  0
    8.6292  -15.0541   26.0485 C   0  0  0  0  0  0  0  0  0  0  0  0
    7.9619  -16.0783   26.2893 O   0  0  0  0  0  0  0  0  0  0  0  0
    9.9724  -15.0049   26.4981 N   0  0  0  0  0  0  0  0  0  0  0  0
   10.5024  -16.1500   27.2153 C   0  0  1  0  0  0  0  0  0  0  0  0
   11.9349  -16.4405   26.8022 C   0  0  0  0  0  0  0  0  0  0  0  0
   12.6304  -17.7225   27.8458 S   0  0  0  0  0  0  0  0  0  0  0  0
   10.4276  -15.9165   28.6946 C   0  0  0  0  0  0  0  0  0  0  0  0
   10.5043  -14.7649   29.1796 O   0  0  0  0  0  0  0  0  0  0  0  0
   10.2700  -16.9900   29.5574 O   0  0  0  0  0  0  0  0  0  0  0  0
  2  1  1  0
  3  5  1  0
  3  2  1  0
  3  4  1  6
  5  6  2  0
  8  7  1  6
  8  9  1  0
  8 10  1  0
 10 12  1  0
 10 11  1  6
 11  5  1  0
 12 14  1  0
 12 13  2  0
 14 15  1  0
 15 18  1  0
 15 16  1  6
 17 16  1  0
 18 19  2  0
 18 20  1  0
M  END
$$$$
