SVC.pdb
     RDKit          3D

 20 19  0  0  1  0  0  0  0  0999 V2000
    7.4414  -19.1247   18.4694 O   0  0  0  0  0  0  0  0  0  0  0  0
    6.4705  -18.2004   18.0858 C   0  0  0  0  0  0  0  0  0  0  0  0
    7.0918  -16.9346   17.5438 C   0  0  2  0  0  0  0  0  0  0  0  0
    7.8051  -17.2690   16.3261 N   0  0  0  0  0  0  0  0  0  0  0  0
    8.0457  -16.3960   18.5711 C   0  0  0  0  0  0  0  0  0  0  0  0
    9.2501  -16.7510   18.5973 O   0  0  0  0  0  0  0  0  0  0  0  0
    6.6589  -14.1233   21.8950 C   0  0  0  0  0  0  0  0  0  0  0  0
    7.8995  -13.7292   21.1702 C   0  0  2  0  0  0  0  0  0  0  0  0
    7.6452  -12.7020   20.1107 C   0  0  0  0  0  0  0  0  0  0  0  0
    8.6006  -14.9081   20.5064 C   0  0  2  0  0  0  0  0  0  0  0  0
    7.6447  -15.4619   19.5644 N   0  0  0  0  0  0  0  0  0  0  0  0
    8.9103  -15.9159   21.5761 C   0  0  0  0  0  0  0  0  0  0  0  0
    8.0826  -16.7759   21.9335 O   0  0  0  0  0  0  0  0  0  0  0  0
   10.1792  -15.8999   22.2074 N   0  0  0  0  0  0  0  0  0  0  0  0
   10.4585  -16.9010   23.2205 C   0  0  1  0  0  0  0  0  0  0  0  0
   11.5350  -17.8663   22.7552 C   0  0  0  0  0  0  0  0  0  0  0  0
   12.9660  -16.9588   22.1678 S   0  0  0  0  0  0  0  0  0  0  0  0
   10.8734  -16.2416   24.5018 C   0  0  0  0  0  0  0  0  0  0  0  0
   11.0339  -16.9005   25.5541 O   0  0  0  0  0  0  0  0  0  0  0  0
   11.0877  -14.8726   24.5375 O   0  0  0  0  0  0  0  0  0  0  0  0
  2  1  1  0
  3  5  1  0
  3  2  1  0
  3  4  1  6
  5  6  2  0
  8  7  1  6
  8  9  1  0
  8 10  1  0
 10 12  1  0
 10 11  1  6
 11  5  1  0
 12 14  1  0
 12 13  2  0
 14 15  1  0
 15 18  1  0
 15 16  1  6
 17 16  1  0
 18 19  2  0
 18 20  1  0
M  END
$$$$
