SVC.pdb
     RDKit          3D

 20 19  0  0  1  0  0  0  0  0999 V2000
    8.2472  -19.5432   19.5247 O   0  0  0  0  0  0  0  0  0  0  0  0
    7.2049  -18.8044   18.9660 C   0  0  0  0  0  0  0  0  0  0  0  0
    7.7219  -17.7117   18.0601 C   0  0  2  0  0  0  0  0  0  0  0  0
    8.6823  -18.3007   17.1469 N   0  0  0  0  0  0  0  0  0  0  0  0
    8.3881  -16.6668   18.9086 C   0  0  0  0  0  0  0  0  0  0  0  0
    9.6323  -16.6564   19.0793 O   0  0  0  0  0  0  0  0  0  0  0  0
    7.2388  -12.9144   18.8236 C   0  0  0  0  0  0  0  0  0  0  0  0
    7.4478  -13.3670   20.2277 C   0  0  2  0  0  0  0  0  0  0  0  0
    8.0612  -12.3065   21.0889 C   0  0  0  0  0  0  0  0  0  0  0  0
    8.3297  -14.6057   20.3283 C   0  0  2  0  0  0  0  0  0  0  0  0
    7.6561  -15.6384   19.5617 N   0  0  0  0  0  0  0  0  0  0  0  0
    8.3965  -15.0017   21.7756 C   0  0  0  0  0  0  0  0  0  0  0  0
    7.3797  -15.0569   22.4934 O   0  0  0  0  0  0  0  0  0  0  0  0
    9.6484  -15.3251   22.3562 N   0  0  0  0  0  0  0  0  0  0  0  0
    9.6647  -15.8734   23.6999 C   0  0  1  0  0  0  0  0  0  0  0  0
    8.9233  -17.1977   23.7607 C   0  0  0  0  0  0  0  0  0  0  0  0
    7.2677  -16.9494   24.4041 S   0  0  0  0  0  0  0  0  0  0  0  0
   11.0770  -16.0490   24.1722 C   0  0  0  0  0  0  0  0  0  0  0  0
   12.0481  -15.9197   23.3926 O   0  0  0  0  0  0  0  0  0  0  0  0
   11.3291  -16.3616   25.4989 O   0  0  0  0  0  0  0  0  0  0  0  0
  2  1  1  0
  3  5  1  0
  3  2  1  0
  3  4  1  6
  5  6  2  0
  8  7  1  6
  8  9  1  0
  8 10  1  0
 10 12  1  0
 10 11  1  6
 11  5  1  0
 12 14  1  0
 12 13  2  0
 14 15  1  0
 15 18  1  0
 15 16  1  6
 17 16  1  0
 18 19  2  0
 18 20  1  0
M  END
$$$$
