SVC.pdb
     RDKit          3D

 20 19  0  0  1  0  0  0  0  0999 V2000
    7.7942  -19.6012   18.2361 O   0  0  0  0  0  0  0  0  0  0  0  0
    6.7866  -18.7054   17.8804 C   0  0  0  0  0  0  0  0  0  0  0  0
    7.3504  -17.4669   17.2245 C   0  0  2  0  0  0  0  0  0  0  0  0
    8.1801  -17.8852   16.1110 N   0  0  0  0  0  0  0  0  0  0  0  0
    8.1774  -16.7278   18.2370 C   0  0  0  0  0  0  0  0  0  0  0  0
    9.4164  -16.9109   18.3313 O   0  0  0  0  0  0  0  0  0  0  0  0
    7.1074  -12.9456   19.6841 C   0  0  0  0  0  0  0  0  0  0  0  0
    7.5380  -13.9734   20.6731 C   0  0  2  0  0  0  0  0  0  0  0  0
    8.2629  -13.3797   21.8413 C   0  0  0  0  0  0  0  0  0  0  0  0
    8.4419  -15.0402   20.0671 C   0  0  2  0  0  0  0  0  0  0  0  0
    7.6115  -15.7867   19.1393 N   0  0  0  0  0  0  0  0  0  0  0  0
    8.9004  -15.9365   21.1817 C   0  0  0  0  0  0  0  0  0  0  0  0
    8.1258  -16.7248   21.7569 O   0  0  0  0  0  0  0  0  0  0  0  0
   10.2531  -15.8950   21.6026 N   0  0  0  0  0  0  0  0  0  0  0  0
   10.6604  -16.7510   22.7016 C   0  0  1  0  0  0  0  0  0  0  0  0
   12.1534  -17.0267   22.6575 C   0  0  0  0  0  0  0  0  0  0  0  0
   12.6519  -17.9608   24.1050 S   0  0  0  0  0  0  0  0  0  0  0  0
   10.2881  -16.1257   24.0127 C   0  0  0  0  0  0  0  0  0  0  0  0
   10.4329  -14.8991   24.2166 O   0  0  0  0  0  0  0  0  0  0  0  0
    9.7708  -16.9106   25.0314 O   0  0  0  0  0  0  0  0  0  0  0  0
  2  1  1  0
  3  5  1  0
  3  2  1  0
  3  4  1  6
  5  6  2  0
  8  7  1  6
  8  9  1  0
  8 10  1  0
 10 12  1  0
 10 11  1  6
 11  5  1  0
 12 14  1  0
 12 13  2  0
 14 15  1  0
 15 18  1  0
 15 16  1  1
 17 16  1  0
 18 19  2  0
 18 20  1  0
M  END
$$$$
