SVC.pdb
     RDKit          3D

 20 19  0  0  1  0  0  0  0  0999 V2000
    9.1521  -18.5836   20.0275 O   0  0  0  0  0  0  0  0  0  0  0  0
    9.5766  -18.5316   18.7004 C   0  0  0  0  0  0  0  0  0  0  0  0
    9.0812  -17.2842   18.0072 C   0  0  2  0  0  0  0  0  0  0  0  0
    9.7012  -17.2205   16.6977 N   0  0  0  0  0  0  0  0  0  0  0  0
    9.4830  -16.0929   18.8286 C   0  0  0  0  0  0  0  0  0  0  0  0
   10.6568  -15.6467   18.8060 O   0  0  0  0  0  0  0  0  0  0  0  0
    6.5738  -14.0007   21.0552 C   0  0  0  0  0  0  0  0  0  0  0  0
    7.8674  -13.3686   20.6718 C   0  0  2  0  0  0  0  0  0  0  0  0
    7.7907  -12.6515   19.3594 C   0  0  0  0  0  0  0  0  0  0  0  0
    9.0141  -14.3681   20.5814 C   0  0  2  0  0  0  0  0  0  0  0  0
    8.5668  -15.4073   19.6716 N   0  0  0  0  0  0  0  0  0  0  0  0
    9.2274  -14.9428   21.9526 C   0  0  0  0  0  0  0  0  0  0  0  0
    8.7229  -14.4302   22.9699 O   0  0  0  0  0  0  0  0  0  0  0  0
   10.0250  -16.1039   22.1091 N   0  0  0  0  0  0  0  0  0  0  0  0
   10.3345  -16.5522   23.4544 C   0  0  1  0  0  0  0  0  0  0  0  0
    9.5290  -17.7872   23.8195 C   0  0  0  0  0  0  0  0  0  0  0  0
    7.8545  -17.3232   24.2633 S   0  0  0  0  0  0  0  0  0  0  0  0
   11.8015  -16.8344   23.5834 C   0  0  0  0  0  0  0  0  0  0  0  0
   12.2905  -17.2815   24.6456 O   0  0  0  0  0  0  0  0  0  0  0  0
   12.6480  -16.6000   22.5110 O   0  0  0  0  0  0  0  0  0  0  0  0
  2  1  1  0
  3  5  1  0
  3  2  1  0
  3  4  1  6
  5  6  2  0
  8  7  1  6
  8  9  1  0
  8 10  1  0
 10 12  1  0
 10 11  1  6
 11  5  1  0
 12 14  1  0
 12 13  2  0
 14 15  1  0
 15 18  1  0
 15 16  1  6
 17 16  1  0
 18 19  2  0
 18 20  1  0
M  END
$$$$
