SVC.pdb
     RDKit          3D

 20 19  0  0  1  0  0  0  0  0999 V2000
    5.5297  -19.5739   23.9507 O   0  0  0  0  0  0  0  0  0  0  0  0
    6.5444  -18.6271   24.0860 C   0  0  0  0  0  0  0  0  0  0  0  0
    6.2212  -17.3556   23.3373 C   0  0  2  0  0  0  0  0  0  0  0  0
    6.4017  -17.6089   21.9208 N   0  0  0  0  0  0  0  0  0  0  0  0
    7.1655  -16.2815   23.7953 C   0  0  0  0  0  0  0  0  0  0  0  0
    8.3397  -16.2095   23.3555 O   0  0  0  0  0  0  0  0  0  0  0  0
    7.8521  -12.2511   26.6285 C   0  0  0  0  0  0  0  0  0  0  0  0
    6.9833  -13.2635   25.9651 C   0  0  2  0  0  0  0  0  0  0  0  0
    5.9851  -13.8684   26.9032 C   0  0  0  0  0  0  0  0  0  0  0  0
    7.7733  -14.4058   25.3379 C   0  0  2  0  0  0  0  0  0  0  0  0
    6.7890  -15.2929   24.7445 N   0  0  0  0  0  0  0  0  0  0  0  0
    8.5044  -15.1148   26.4418 C   0  0  0  0  0  0  0  0  0  0  0  0
    7.9447  -15.9547   27.1723 O   0  0  0  0  0  0  0  0  0  0  0  0
    9.8736  -14.8295   26.6712 N   0  0  0  0  0  0  0  0  0  0  0  0
   10.6303  -15.7229   27.5292 C   0  0  1  0  0  0  0  0  0  0  0  0
   12.1065  -15.7059   27.1722 C   0  0  0  0  0  0  0  0  0  0  0  0
   12.7320  -14.0255   27.2115 S   0  0  0  0  0  0  0  0  0  0  0  0
   10.4414  -15.3451   28.9679 C   0  0  0  0  0  0  0  0  0  0  0  0
    9.8725  -14.2789   29.2948 O   0  0  0  0  0  0  0  0  0  0  0  0
   10.9017  -16.1850   29.9700 O   0  0  0  0  0  0  0  0  0  0  0  0
  2  1  1  0
  3  5  1  0
  3  2  1  0
  3  4  1  6
  5  6  2  0
  8  7  1  1
  8  9  1  0
  8 10  1  0
 10 12  1  0
 10 11  1  1
 11  5  1  0
 12 14  1  0
 12 13  2  0
 14 15  1  0
 15 18  1  0
 15 16  1  6
 17 16  1  0
 18 19  2  0
 18 20  1  0
M  END
$$$$
