SVC.pdb
     RDKit          3D

 20 19  0  0  1  0  0  0  0  0999 V2000
   -2.0791  -28.2042   28.0032 O   0  0  0  0  0  0  0  0  0  0  0  0
   -2.7122  -27.0450   28.4502 C   0  0  0  0  0  0  0  0  0  0  0  0
   -2.3901  -25.8611   27.5690 C   0  0  2  0  0  0  0  0  0  0  0  0
   -0.9506  -25.6852   27.5597 N   0  0  0  0  0  0  0  0  0  0  0  0
   -3.0564  -24.6448   28.1452 C   0  0  0  0  0  0  0  0  0  0  0  0
   -2.8557  -24.2878   29.3325 O   0  0  0  0  0  0  0  0  0  0  0  0
   -4.8877  -21.9355   25.6006 C   0  0  0  0  0  0  0  0  0  0  0  0
   -4.4657  -21.5526   26.9773 C   0  0  2  0  0  0  0  0  0  0  0  0
   -3.0455  -21.0810   27.0335 C   0  0  0  0  0  0  0  0  0  0  0  0
   -4.6110  -22.6894   27.9818 C   0  0  2  0  0  0  0  0  0  0  0  0
   -3.9448  -23.8343   27.3876 N   0  0  0  0  0  0  0  0  0  0  0  0
   -6.0773  -22.9734   28.1402 C   0  0  0  0  0  0  0  0  0  0  0  0
   -6.6808  -23.7684   27.3945 O   0  0  0  0  0  0  0  0  0  0  0  0
   -6.8098  -22.3243   29.1652 N   0  0  0  0  0  0  0  0  0  0  0  0
   -8.2016  -22.6891   29.3557 C   0  0  1  0  0  0  0  0  0  0  0  0
   -8.3345  -24.1411   29.7811 C   0  0  0  0  0  0  0  0  0  0  0  0
  -10.0277  -24.4929   30.2561 S   0  0  0  0  0  0  0  0  0  0  0  0
   -8.8393  -21.7913   30.3734 C   0  0  0  0  0  0  0  0  0  0  0  0
   -8.1512  -21.1006   31.1588 O   0  0  0  0  0  0  0  0  0  0  0  0
  -10.2207  -21.7136   30.4587 O   0  0  0  0  0  0  0  0  0  0  0  0
  2  1  1  0
  3  5  1  0
  3  2  1  0
  3  4  1  1
  5  6  2  0
  8  7  1  6
  8  9  1  0
  8 10  1  0
 10 12  1  0
 10 11  1  6
 11  5  1  0
 12 14  1  0
 12 13  2  0
 14 15  1  0
 15 18  1  0
 15 16  1  1
 17 16  1  0
 18 19  2  0
 18 20  1  0
M  END
$$$$
