SVC.pdb
     RDKit          3D

 20 19  0  0  1  0  0  0  0  0999 V2000
    8.5888  -19.3850   18.5308 O   0  0  0  0  0  0  0  0  0  0  0  0
    7.5069  -18.6879   17.9942 C   0  0  0  0  0  0  0  0  0  0  0  0
    7.9543  -17.4404   17.2693 C   0  0  2  0  0  0  0  0  0  0  0  0
    8.8717  -17.8352   16.2178 N   0  0  0  0  0  0  0  0  0  0  0  0
    8.6494  -16.5430   18.2526 C   0  0  0  0  0  0  0  0  0  0  0  0
    9.9019  -16.5117   18.3399 O   0  0  0  0  0  0  0  0  0  0  0  0
    7.2862  -12.8392   19.5939 C   0  0  0  0  0  0  0  0  0  0  0  0
    7.6178  -13.8626   20.6246 C   0  0  2  0  0  0  0  0  0  0  0  0
    8.1641  -13.2579   21.8810 C   0  0  0  0  0  0  0  0  0  0  0  0
    8.6279  -14.8937   20.1357 C   0  0  2  0  0  0  0  0  0  0  0  0
    7.9370  -15.6850   19.1336 N   0  0  0  0  0  0  0  0  0  0  0  0
    9.0000  -15.7583   21.3061 C   0  0  0  0  0  0  0  0  0  0  0  0
    8.2375  -16.6405   21.7450 O   0  0  0  0  0  0  0  0  0  0  0  0
   10.2540  -15.5762   21.9409 N   0  0  0  0  0  0  0  0  0  0  0  0
   10.5761  -16.4098   23.0845 C   0  0  1  0  0  0  0  0  0  0  0  0
   12.0774  -16.4853   23.3024 C   0  0  0  0  0  0  0  0  0  0  0  0
   12.4395  -17.4253   24.7862 S   0  0  0  0  0  0  0  0  0  0  0  0
    9.9002  -15.8856   24.3161 C   0  0  0  0  0  0  0  0  0  0  0  0
    9.7349  -14.6583   24.4992 O   0  0  0  0  0  0  0  0  0  0  0  0
    9.4427  -16.7676   25.2828 O   0  0  0  0  0  0  0  0  0  0  0  0
  2  1  1  0
  3  5  1  0
  3  2  1  0
  3  4  1  6
  5  6  2  0
  8  7  1  6
  8  9  1  0
  8 10  1  0
 10 12  1  0
 10 11  1  6
 11  5  1  0
 12 14  1  0
 12 13  2  0
 14 15  1  0
 15 18  1  0
 15 16  1  1
 17 16  1  0
 18 19  2  0
 18 20  1  0
M  END
$$$$
