DHC.pdb
     RDKit          3D

 25 25  0  0  1  0  0  0  0  0999 V2000
   12.3666  -16.6193   18.0018 N   0  0  0  0  0  0  0  0  0  0  0  0
   13.1160  -15.6646   18.7571 C   0  0  1  0  0  0  0  0  0  0  0  0
   13.4633  -14.4341   17.9675 C   0  0  0  0  0  0  0  0  0  0  0  0
   14.4846  -14.8066   16.9583 C   0  0  0  0  0  0  0  0  0  0  0  0
   14.9269  -13.9639   16.1234 O   0  0  0  0  0  0  0  0  0  0  0  0
   12.3535  -15.2572   19.9907 C   0  0  0  0  0  0  0  0  0  0  0  0
   12.8045  -14.4403   20.8082 O   0  0  0  0  0  0  0  0  0  0  0  0
   14.9932  -16.0946   16.8929 O   0  0  0  0  0  0  0  0  0  0  0  0
   11.0747  -15.8165   20.2423 N   0  0  0  0  0  0  0  0  0  0  0  0
   10.2832  -15.4577   21.3976 C   0  0  1  0  0  0  0  0  0  0  0  0
    8.8354  -15.3337   20.9767 C   0  0  0  0  0  0  0  0  0  0  0  0
    8.6721  -14.3417   19.8789 C   0  0  0  0  0  0  0  0  0  0  0  0
    8.6111  -12.9855   20.0876 C   0  0  0  0  0  0  0  0  0  0  0  0
    8.4621  -12.3664   18.9076 N   0  0  0  0  0  0  0  0  0  0  0  0
    8.4286  -13.3159   17.9577 C   0  0  0  0  0  0  0  0  0  0  0  0
    8.5580  -14.5326   18.5567 N   0  0  0  0  0  0  0  0  0  0  0  0
   10.3304  -16.5992   22.3798 C   0  0  0  0  0  0  0  0  0  0  0  0
   10.2094  -17.7922   21.9660 O   0  0  0  0  0  0  0  0  0  0  0  0
   10.5063  -16.3910   23.7604 N   0  0  0  0  0  0  0  0  0  0  0  0
   10.7237  -17.5270   24.6187 C   0  0  1  0  0  0  0  0  0  0  0  0
   12.1971  -17.8264   24.7990 C   0  0  0  0  0  0  0  0  0  0  0  0
   13.0895  -16.4131   25.4910 S   0  0  0  0  0  0  0  0  0  0  0  0
   10.0448  -17.3003   25.9109 C   0  0  0  0  0  0  0  0  0  0  0  0
   10.0320  -18.2393   26.9258 O   0  0  0  0  0  0  0  0  0  0  0  0
    9.4555  -16.2094   26.0939 O   0  0  0  0  0  0  0  0  0  0  0  0
  2  1  1  6
  3  2  1  0
  3  4  1  0
  4  8  1  0
  5  4  2  0
  6  7  2  0
  6  2  1  0
  9  6  1  0
 10 11  1  6
 10  9  1  0
 11 12  1  0
 12 16  1  0
 12 13  2  0
 13 14  1  0
 15 14  1  0
 16 15  2  0
 17 10  1  0
 18 17  2  0
 19 17  1  0
 20 19  1  0
 20 21  1  1
 21 22  1  0
 23 24  1  0
 23 20  1  0
 25 23  2  0
M  END
$$$$
