DHC.pdb
     RDKit          3D

 25 25  0  0  1  0  0  0  0  0999 V2000
    9.1986  -16.0356   19.5755 N   0  0  0  0  0  0  0  0  0  0  0  0
    7.7707  -16.0093   19.6387 C   0  0  1  0  0  0  0  0  0  0  0  0
    7.1258  -17.0522   18.7700 C   0  0  0  0  0  0  0  0  0  0  0  0
    7.9902  -17.2628   17.5831 C   0  0  0  0  0  0  0  0  0  0  0  0
    7.5697  -17.0365   16.4106 O   0  0  0  0  0  0  0  0  0  0  0  0
    7.3054  -16.1973   21.0591 C   0  0  0  0  0  0  0  0  0  0  0  0
    6.1039  -16.1956   21.3678 O   0  0  0  0  0  0  0  0  0  0  0  0
    9.2936  -17.7164   17.7153 O   0  0  0  0  0  0  0  0  0  0  0  0
    8.2596  -16.3841   22.0915 N   0  0  0  0  0  0  0  0  0  0  0  0
    7.8833  -16.5370   23.4790 C   0  0  1  0  0  0  0  0  0  0  0  0
    8.5907  -17.7486   24.0448 C   0  0  0  0  0  0  0  0  0  0  0  0
    8.1981  -17.9953   25.4593 C   0  0  0  0  0  0  0  0  0  0  0  0
    7.1694  -17.3347   26.0852 C   0  0  0  0  0  0  0  0  0  0  0  0
    7.0668  -17.7775   27.3467 N   0  0  0  0  0  0  0  0  0  0  0  0
    8.0183  -18.7093   27.5234 C   0  0  0  0  0  0  0  0  0  0  0  0
    8.7150  -18.8431   26.3603 N   0  0  0  0  0  0  0  0  0  0  0  0
    8.4122  -15.3544   24.2483 C   0  0  0  0  0  0  0  0  0  0  0  0
    9.5392  -14.8578   23.9447 O   0  0  0  0  0  0  0  0  0  0  0  0
    7.6936  -14.7695   25.3076 N   0  0  0  0  0  0  0  0  0  0  0  0
    8.2283  -13.5999   25.9559 C   0  0  1  0  0  0  0  0  0  0  0  0
    7.1909  -12.5054   26.0944 C   0  0  0  0  0  0  0  0  0  0  0  0
    5.5078  -13.1674   26.0570 S   0  0  0  0  0  0  0  0  0  0  0  0
    8.8022  -13.9841   27.2617 C   0  0  0  0  0  0  0  0  0  0  0  0
    9.5668  -13.1231   28.0271 O   0  0  0  0  0  0  0  0  0  0  0  0
    8.5860  -15.1409   27.6932 O   0  0  0  0  0  0  0  0  0  0  0  0
  2  1  1  1
  3  2  1  0
  3  4  1  0
  4  8  1  0
  5  4  2  0
  6  7  2  0
  6  2  1  0
  9  6  1  0
 10 11  1  1
 10  9  1  0
 11 12  1  0
 12 16  1  0
 12 13  2  0
 13 14  1  0
 15 14  1  0
 16 15  2  0
 17 10  1  0
 18 17  2  0
 19 17  1  0
 20 19  1  0
 20 21  1  1
 21 22  1  0
 23 24  1  0
 23 20  1  0
 25 23  2  0
M  END
$$$$
