DHC.pdb
     RDKit          3D

 25 25  0  0  1  0  0  0  0  0999 V2000
   12.5326  -16.6794   19.2032 N   0  0  0  0  0  0  0  0  0  0  0  0
   12.9726  -15.3547   19.5117 C   0  0  1  0  0  0  0  0  0  0  0  0
   13.3204  -14.5525   18.2896 C   0  0  0  0  0  0  0  0  0  0  0  0
   14.6474  -15.0037   17.8039 C   0  0  0  0  0  0  0  0  0  0  0  0
   15.4454  -15.6379   18.5548 O   0  0  0  0  0  0  0  0  0  0  0  0
   11.9164  -14.6210   20.2963 C   0  0  0  0  0  0  0  0  0  0  0  0
   12.1114  -13.4936   20.7757 O   0  0  0  0  0  0  0  0  0  0  0  0
   15.0627  -14.7465   16.5066 O   0  0  0  0  0  0  0  0  0  0  0  0
   10.6499  -15.2246   20.5039 N   0  0  0  0  0  0  0  0  0  0  0  0
    9.5887  -14.5716   21.2370 C   0  0  1  0  0  0  0  0  0  0  0  0
    8.2638  -14.9356   20.6038 C   0  0  0  0  0  0  0  0  0  0  0  0
    8.1808  -14.4481   19.1998 C   0  0  0  0  0  0  0  0  0  0  0  0
    8.1363  -13.1175   18.8624 C   0  0  0  0  0  0  0  0  0  0  0  0
    8.0644  -13.0054   17.5281 N   0  0  0  0  0  0  0  0  0  0  0  0
    8.0630  -14.2493   17.0206 C   0  0  0  0  0  0  0  0  0  0  0  0
    8.1347  -15.1377   18.0509 N   0  0  0  0  0  0  0  0  0  0  0  0
    9.5508  -15.1442   22.6301 C   0  0  0  0  0  0  0  0  0  0  0  0
   10.3500  -16.0755   22.9508 O   0  0  0  0  0  0  0  0  0  0  0  0
    8.6491  -14.6791   23.6054 N   0  0  0  0  0  0  0  0  0  0  0  0
    8.6795  -15.2609   24.9225 C   0  0  1  0  0  0  0  0  0  0  0  0
    7.8149  -14.4933   25.9004 C   0  0  0  0  0  0  0  0  0  0  0  0
    8.0228  -12.7053   25.7200 S   0  0  0  0  0  0  0  0  0  0  0  0
    8.2876  -16.6827   24.8381 C   0  0  0  0  0  0  0  0  0  0  0  0
    8.2946  -17.5284   25.9319 O   0  0  0  0  0  0  0  0  0  0  0  0
    7.9337  -17.1407   23.7264 O   0  0  0  0  0  0  0  0  0  0  0  0
  2  1  1  6
  3  2  1  0
  3  4  1  0
  4  8  1  0
  5  4  2  0
  6  7  2  0
  6  2  1  0
  9  6  1  0
 10 11  1  6
 10  9  1  0
 11 12  1  0
 12 16  1  0
 12 13  2  0
 13 14  1  0
 15 14  1  0
 16 15  2  0
 17 10  1  0
 18 17  2  0
 19 17  1  0
 20 19  1  0
 20 21  1  1
 21 22  1  0
 23 24  1  0
 23 20  1  0
 25 23  2  0
M  END
$$$$
