DHC.pdb
     RDKit          3D

 25 25  0  0  1  0  0  0  0  0999 V2000
   12.4423  -21.0939   15.6594 N   0  0  0  0  0  0  0  0  0  0  0  0
   11.8022  -19.8512   15.3603 C   0  0  1  0  0  0  0  0  0  0  0  0
   10.7743  -19.9682   14.2704 C   0  0  0  0  0  0  0  0  0  0  0  0
   11.4743  -20.3277   13.0129 C   0  0  0  0  0  0  0  0  0  0  0  0
   11.9421  -21.4891   12.8257 O   0  0  0  0  0  0  0  0  0  0  0  0
   11.1469  -19.2887   16.5946 C   0  0  0  0  0  0  0  0  0  0  0  0
   10.6528  -18.1511   16.6220 O   0  0  0  0  0  0  0  0  0  0  0  0
   11.6419  -19.4022   11.9945 O   0  0  0  0  0  0  0  0  0  0  0  0
   11.0836  -20.0724   17.7750 N   0  0  0  0  0  0  0  0  0  0  0  0
   10.5249  -19.5721   19.0109 C   0  0  1  0  0  0  0  0  0  0  0  0
    9.4672  -20.5397   19.4942 C   0  0  0  0  0  0  0  0  0  0  0  0
    9.9841  -21.9351   19.5317 C   0  0  0  0  0  0  0  0  0  0  0  0
   11.2890  -22.2661   19.2594 C   0  0  0  0  0  0  0  0  0  0  0  0
   11.4385  -23.5934   19.3764 N   0  0  0  0  0  0  0  0  0  0  0  0
   10.2437  -24.1030   19.7191 C   0  0  0  0  0  0  0  0  0  0  0  0
    9.3480  -23.0810   19.8147 N   0  0  0  0  0  0  0  0  0  0  0  0
   11.6054  -19.5845   20.0608 C   0  0  0  0  0  0  0  0  0  0  0  0
   12.8112  -19.3758   19.7269 O   0  0  0  0  0  0  0  0  0  0  0  0
   11.3253  -19.8223   21.4193 N   0  0  0  0  0  0  0  0  0  0  0  0
   11.7913  -18.8825   22.4062 C   0  0  1  0  0  0  0  0  0  0  0  0
   11.2508  -17.4893   22.1607 C   0  0  0  0  0  0  0  0  0  0  0  0
   11.9259  -16.2909   23.3357 S   0  0  0  0  0  0  0  0  0  0  0  0
   11.4467  -19.3781   23.7544 C   0  0  0  0  0  0  0  0  0  0  0  0
   12.3689  -19.4603   24.7812 O   0  0  0  0  0  0  0  0  0  0  0  0
   10.2670  -19.7393   23.9755 O   0  0  0  0  0  0  0  0  0  0  0  0
  2  1  1  1
  3  2  1  0
  3  4  1  0
  4  8  1  0
  5  4  2  0
  6  7  2  0
  6  2  1  0
  9  6  1  0
 10 11  1  1
 10  9  1  0
 11 12  1  0
 12 16  1  0
 12 13  2  0
 13 14  1  0
 15 14  1  0
 16 15  2  0
 17 10  1  0
 18 17  2  0
 19 17  1  0
 20 19  1  0
 20 21  1  6
 21 22  1  0
 23 24  1  0
 23 20  1  0
 25 23  2  0
M  END
$$$$
