DHC.pdb
     RDKit          3D

 25 25  0  0  1  0  0  0  0  0999 V2000
   11.8696  -17.9979   16.1059 N   0  0  0  0  0  0  0  0  0  0  0  0
   12.3475  -16.6513   16.1470 C   0  0  1  0  0  0  0  0  0  0  0  0
   11.9527  -15.8515   14.9376 C   0  0  0  0  0  0  0  0  0  0  0  0
   12.6816  -16.3965   13.7661 C   0  0  0  0  0  0  0  0  0  0  0  0
   12.1644  -17.2760   13.0166 O   0  0  0  0  0  0  0  0  0  0  0  0
   11.8429  -15.9535   17.3830 C   0  0  0  0  0  0  0  0  0  0  0  0
   12.1949  -14.8026   17.6840 O   0  0  0  0  0  0  0  0  0  0  0  0
   13.9590  -15.9611   13.4491 O   0  0  0  0  0  0  0  0  0  0  0  0
   10.9337  -16.6199   18.2437 N   0  0  0  0  0  0  0  0  0  0  0  0
   10.4409  -16.0239   19.4651 C   0  0  1  0  0  0  0  0  0  0  0  0
    8.9284  -16.0282   19.4335 C   0  0  0  0  0  0  0  0  0  0  0  0
    8.4042  -15.0942   18.3997 C   0  0  0  0  0  0  0  0  0  0  0  0
    8.3905  -13.7292   18.5506 C   0  0  0  0  0  0  0  0  0  0  0  0
    7.8598  -13.1717   17.4527 N   0  0  0  0  0  0  0  0  0  0  0  0
    7.5389  -14.1690   16.6116 C   0  0  0  0  0  0  0  0  0  0  0  0
    7.8745  -15.3532   17.1956 N   0  0  0  0  0  0  0  0  0  0  0  0
   10.8315  -16.9110   20.6186 C   0  0  0  0  0  0  0  0  0  0  0  0
   11.3551  -18.0442   20.3931 O   0  0  0  0  0  0  0  0  0  0  0  0
   10.6352  -16.5260   21.9579 N   0  0  0  0  0  0  0  0  0  0  0  0
   10.9673  -17.4523   23.0095 C   0  0  1  0  0  0  0  0  0  0  0  0
   10.9770  -16.7853   24.3690 C   0  0  0  0  0  0  0  0  0  0  0  0
   12.1518  -15.4112   24.4341 S   0  0  0  0  0  0  0  0  0  0  0  0
   10.0360  -18.5980   22.9639 C   0  0  0  0  0  0  0  0  0  0  0  0
   10.2073  -19.7342   23.7330 O   0  0  0  0  0  0  0  0  0  0  0  0
    9.0486  -18.5361   22.1945 O   0  0  0  0  0  0  0  0  0  0  0  0
  2  1  1  6
  3  2  1  0
  3  4  1  0
  4  8  1  0
  5  4  2  0
  6  7  2  0
  6  2  1  0
  9  6  1  0
 10 11  1  6
 10  9  1  0
 11 12  1  0
 12 16  1  0
 12 13  2  0
 13 14  1  0
 15 14  1  0
 16 15  2  0
 17 10  1  0
 18 17  2  0
 19 17  1  0
 20 19  1  0
 20 21  1  1
 21 22  1  0
 23 24  1  0
 23 20  1  0
 25 23  2  0
M  END
$$$$
