DHC.pdb
     RDKit          3D

 25 25  0  0  1  0  0  0  0  0999 V2000
   11.0188  -17.6480   20.7610 N   0  0  0  0  0  0  0  0  0  0  0  0
   10.1526  -16.7402   20.0761 C   0  0  1  0  0  0  0  0  0  0  0  0
    9.6237  -17.2960   18.7840 C   0  0  0  0  0  0  0  0  0  0  0  0
   10.7354  -17.3186   17.8022 C   0  0  0  0  0  0  0  0  0  0  0  0
   11.9406  -17.1823   18.1651 O   0  0  0  0  0  0  0  0  0  0  0  0
    8.9923  -16.3573   20.9573 C   0  0  0  0  0  0  0  0  0  0  0  0
    8.0894  -15.5994   20.5708 O   0  0  0  0  0  0  0  0  0  0  0  0
   10.4939  -17.4901   16.4479 O   0  0  0  0  0  0  0  0  0  0  0  0
    8.9130  -16.8714   22.2767 N   0  0  0  0  0  0  0  0  0  0  0  0
    7.7924  -16.6024   23.1495 C   0  0  1  0  0  0  0  0  0  0  0  0
    7.5665  -17.8063   24.0373 C   0  0  0  0  0  0  0  0  0  0  0  0
    6.7702  -18.8533   23.3404 C   0  0  0  0  0  0  0  0  0  0  0  0
    6.1378  -18.6480   22.1386 C   0  0  0  0  0  0  0  0  0  0  0  0
    5.5087  -19.7751   21.7757 N   0  0  0  0  0  0  0  0  0  0  0  0
    5.7370  -20.6883   22.7343 C   0  0  0  0  0  0  0  0  0  0  0  0
    6.5142  -20.1199   23.6980 N   0  0  0  0  0  0  0  0  0  0  0  0
    8.1695  -15.4738   24.0736 C   0  0  0  0  0  0  0  0  0  0  0  0
    9.3924  -15.2376   24.3138 O   0  0  0  0  0  0  0  0  0  0  0  0
    7.2030  -14.6582   24.6910 N   0  0  0  0  0  0  0  0  0  0  0  0
    7.6322  -13.6347   25.6088 C   0  0  1  0  0  0  0  0  0  0  0  0
    6.5901  -12.5482   25.7726 C   0  0  0  0  0  0  0  0  0  0  0  0
    7.0230  -11.3976   27.0998 S   0  0  0  0  0  0  0  0  0  0  0  0
    7.9897  -14.2552   26.9008 C   0  0  0  0  0  0  0  0  0  0  0  0
    9.0227  -13.7920   27.6945 O   0  0  0  0  0  0  0  0  0  0  0  0
    7.3271  -15.2442   27.2932 O   0  0  0  0  0  0  0  0  0  0  0  0
  2  1  1  1
  3  2  1  0
  3  4  1  0
  4  8  1  0
  5  4  2  0
  6  7  2  0
  6  2  1  0
  9  6  1  0
 10 11  1  1
 10  9  1  0
 11 12  1  0
 12 16  1  0
 12 13  2  0
 13 14  1  0
 15 14  1  0
 16 15  2  0
 17 10  1  0
 18 17  2  0
 19 17  1  0
 20 19  1  0
 20 21  1  1
 21 22  1  0
 23 24  1  0
 23 20  1  0
 25 23  2  0
M  END
$$$$
