KSL.pdb
     RDKit          3D

 24 23  0  0  1  0  0  0  0  0999 V2000
    9.4827  -15.1210   18.6071 N   0  0  0  0  0  0  0  0  0  0  0  0
    8.4583  -14.2972   19.2174 C   0  0  1  0  0  0  0  0  0  0  0  0
    7.2776  -14.2042   18.3033 C   0  0  0  0  0  0  0  0  0  0  0  0
    7.5823  -14.6411   16.9112 C   0  0  0  0  0  0  0  0  0  0  0  0
    8.0384  -13.5284   16.0072 C   0  0  0  0  0  0  0  0  0  0  0  0
    8.2194  -14.0624   14.5828 C   0  0  0  0  0  0  0  0  0  0  0  0
    8.7554  -13.0188   13.7334 N   0  0  0  0  0  0  0  0  0  0  0  0
    8.0593  -14.8772   20.5485 C   0  0  0  0  0  0  0  0  0  0  0  0
    7.0608  -14.4161   21.1337 O   0  0  0  0  0  0  0  0  0  0  0  0
   10.5980  -17.5845   22.4798 O   0  0  0  0  0  0  0  0  0  0  0  0
    9.2422  -17.8309   22.4783 C   0  0  0  0  0  0  0  0  0  0  0  0
    8.4236  -16.5397   22.3428 C   0  0  2  0  0  0  0  0  0  0  0  0
    8.8298  -15.9287   21.0958 N   0  0  0  0  0  0  0  0  0  0  0  0
    8.7569  -15.6180   23.4805 C   0  0  0  0  0  0  0  0  0  0  0  0
    9.8561  -15.0029   23.5249 O   0  0  0  0  0  0  0  0  0  0  0  0
    7.7220  -11.4749   25.3829 C   0  0  0  0  0  0  0  0  0  0  0  0
    7.2871  -12.3392   26.5426 C   0  0  1  0  0  0  0  0  0  0  0  0
    5.9527  -11.7457   27.0216 C   0  0  0  0  0  0  0  0  0  0  0  0
    7.0173  -13.7573   26.1881 C   0  0  0  0  0  0  0  0  0  0  0  0
    8.1625  -14.5625   25.6965 C   0  0  2  0  0  0  0  0  0  0  0  0
    7.8508  -15.3992   24.5538 N   0  0  0  0  0  0  0  0  0  0  0  0
    8.8545  -15.3838   26.6998 C   0  0  0  0  0  0  0  0  0  0  0  0
    9.8104  -14.8600   27.5787 O   0  0  0  0  0  0  0  0  0  0  0  0
    8.6252  -16.6155   26.8278 O   0  0  0  0  0  0  0  0  0  0  0  0
  2  1  1  6
  3  2  1  0
  4  3  1  0
  5  4  1  0
  5  6  1  0
  7  6  1  0
  8  2  1  0
  8  9  2  0
 12 11  1  1
 11 10  1  0
 12 13  1  0
 13  8  1  0
 14 12  1  0
 15 14  2  0
 17 16  1  6
 18 17  1  0
 19 17  1  0
 20 19  1  1
 20 21  1  0
 21 14  1  0
 22 20  1  0
 23 22  1  0
 24 22  2  0
M  END
$$$$
