KSL.pdb
     RDKit          3D

 24 23  0  0  1  0  0  0  0  0999 V2000
    8.4874  -18.8051   18.5525 N   0  0  0  0  0  0  0  0  0  0  0  0
    8.6673  -17.5431   19.2420 C   0  0  1  0  0  0  0  0  0  0  0  0
    7.8239  -16.4914   18.5933 C   0  0  0  0  0  0  0  0  0  0  0  0
    8.5989  -15.6037   17.6804 C   0  0  0  0  0  0  0  0  0  0  0  0
    7.7504  -14.6314   16.9072 C   0  0  0  0  0  0  0  0  0  0  0  0
    8.6487  -13.7139   16.0717 C   0  0  0  0  0  0  0  0  0  0  0  0
    7.8334  -12.7733   15.3310 N   0  0  0  0  0  0  0  0  0  0  0  0
    8.3056  -17.6967   20.6956 C   0  0  0  0  0  0  0  0  0  0  0  0
    7.1515  -18.0563   20.9966 O   0  0  0  0  0  0  0  0  0  0  0  0
   11.0685  -18.6304   23.4600 O   0  0  0  0  0  0  0  0  0  0  0  0
    9.7053  -18.7623   23.6125 C   0  0  0  0  0  0  0  0  0  0  0  0
    8.9465  -17.5394   23.0791 C   0  0  2  0  0  0  0  0  0  0  0  0
    9.2870  -17.4281   21.6773 N   0  0  0  0  0  0  0  0  0  0  0  0
    9.4130  -16.3097   23.8039 C   0  0  0  0  0  0  0  0  0  0  0  0
   10.3581  -15.6052   23.3578 O   0  0  0  0  0  0  0  0  0  0  0  0
    7.5224  -12.0258   27.3007 C   0  0  0  0  0  0  0  0  0  0  0  0
    7.3037  -13.2047   26.3825 C   0  0  1  0  0  0  0  0  0  0  0  0
    6.1131  -12.8177   25.4908 C   0  0  0  0  0  0  0  0  0  0  0  0
    8.4402  -13.4951   25.4696 C   0  0  0  0  0  0  0  0  0  0  0  0
    9.2422  -14.7112   25.7516 C   0  0  2  0  0  0  0  0  0  0  0  0
    8.8115  -15.8873   25.0207 N   0  0  0  0  0  0  0  0  0  0  0  0
    9.3934  -15.0730   27.1680 C   0  0  0  0  0  0  0  0  0  0  0  0
   10.0899  -14.2746   28.0835 O   0  0  0  0  0  0  0  0  0  0  0  0
    8.9006  -16.1300   27.6435 O   0  0  0  0  0  0  0  0  0  0  0  0
  2  1  1  6
  3  2  1  0
  4  3  1  0
  5  4  1  0
  5  6  1  0
  7  6  1  0
  8  2  1  0
  8  9  2  0
 12 11  1  1
 11 10  1  0
 12 13  1  0
 13  8  1  0
 14 12  1  0
 15 14  2  0
 17 16  1  1
 18 17  1  0
 19 17  1  0
 20 19  1  1
 20 21  1  0
 21 14  1  0
 22 20  1  0
 23 22  1  0
 24 22  2  0
M  END
$$$$
