KSL.pdb
     RDKit          3D

 24 23  0  0  1  0  0  0  0  0999 V2000
   10.1372  -20.1070   22.0963 N   0  0  0  0  0  0  0  0  0  0  0  0
    9.3639  -19.2233   22.9458 C   0  0  1  0  0  0  0  0  0  0  0  0
    9.7854  -19.3997   24.3704 C   0  0  0  0  0  0  0  0  0  0  0  0
   10.2493  -20.7834   24.6740 C   0  0  0  0  0  0  0  0  0  0  0  0
   10.7068  -20.9771   26.0940 C   0  0  0  0  0  0  0  0  0  0  0  0
   11.0577  -22.4500   26.3265 C   0  0  0  0  0  0  0  0  0  0  0  0
   11.6341  -22.6134   27.6452 N   0  0  0  0  0  0  0  0  0  0  0  0
    9.5514  -17.7955   22.5060 C   0  0  0  0  0  0  0  0  0  0  0  0
   10.7046  -17.3751   22.2927 O   0  0  0  0  0  0  0  0  0  0  0  0
    6.1603  -15.5927   21.9064 O   0  0  0  0  0  0  0  0  0  0  0  0
    7.2843  -15.2018   21.2115 C   0  0  0  0  0  0  0  0  0  0  0  0
    8.5763  -15.5938   21.9414 C   0  0  2  0  0  0  0  0  0  0  0  0
    8.4125  -16.9727   22.3477 N   0  0  0  0  0  0  0  0  0  0  0  0
    8.7402  -14.7318   23.1601 C   0  0  0  0  0  0  0  0  0  0  0  0
    8.9274  -13.4892   23.0633 O   0  0  0  0  0  0  0  0  0  0  0  0
    5.4441  -12.5643   26.0016 C   0  0  0  0  0  0  0  0  0  0  0  0
    6.7996  -12.9361   25.4490 C   0  0  1  0  0  0  0  0  0  0  0  0
    7.6571  -11.6665   25.5708 C   0  0  0  0  0  0  0  0  0  0  0  0
    7.5060  -13.9993   26.2106 C   0  0  0  0  0  0  0  0  0  0  0  0
    8.8057  -14.4696   25.6710 C   0  0  2  0  0  0  0  0  0  0  0  0
    8.6917  -15.2772   24.4719 N   0  0  0  0  0  0  0  0  0  0  0  0
    9.6865  -15.1661   26.6192 C   0  0  0  0  0  0  0  0  0  0  0  0
   10.1908  -14.5550   27.7736 O   0  0  0  0  0  0  0  0  0  0  0  0
   10.0406  -16.3623   26.4465 O   0  0  0  0  0  0  0  0  0  0  0  0
  2  1  1  6
  3  2  1  0
  4  3  1  0
  5  4  1  0
  5  6  1  0
  7  6  1  0
  8  2  1  0
  8  9  2  0
 12 11  1  1
 11 10  1  0
 12 13  1  0
 13  8  1  0
 14 12  1  0
 15 14  2  0
 17 16  1  1
 18 17  1  0
 19 17  1  0
 20 19  1  1
 20 21  1  0
 21 14  1  0
 22 20  1  0
 23 22  1  0
 24 22  2  0
M  END
$$$$
