KSL.pdb
     RDKit          3D

 24 23  0  0  1  0  0  0  0  0999 V2000
    6.8131  -16.2942   19.8379 N   0  0  0  0  0  0  0  0  0  0  0  0
    7.7106  -15.4252   20.5725 C   0  0  1  0  0  0  0  0  0  0  0  0
    7.2223  -14.0134   20.4906 C   0  0  0  0  0  0  0  0  0  0  0  0
    7.2503  -13.4665   19.1042 C   0  0  0  0  0  0  0  0  0  0  0  0
    8.4392  -13.9098   18.2960 C   0  0  0  0  0  0  0  0  0  0  0  0
    8.4361  -13.1967   16.9401 C   0  0  0  0  0  0  0  0  0  0  0  0
    9.5283  -13.6887   16.1260 N   0  0  0  0  0  0  0  0  0  0  0  0
    7.8023  -15.8765   22.0061 C   0  0  0  0  0  0  0  0  0  0  0  0
    6.8126  -15.7339   22.7492 O   0  0  0  0  0  0  0  0  0  0  0  0
   11.3355  -17.7330   23.3808 O   0  0  0  0  0  0  0  0  0  0  0  0
   10.0791  -18.1271   23.7872 C   0  0  0  0  0  0  0  0  0  0  0  0
    9.0917  -16.9526   23.8216 C   0  0  2  0  0  0  0  0  0  0  0  0
    9.0098  -16.4493   22.4677 N   0  0  0  0  0  0  0  0  0  0  0  0
    9.6295  -15.8769   24.7209 C   0  0  0  0  0  0  0  0  0  0  0  0
   10.5749  -15.1284   24.3542 O   0  0  0  0  0  0  0  0  0  0  0  0
    6.8352  -12.1494   27.1435 C   0  0  0  0  0  0  0  0  0  0  0  0
    7.5955  -13.3151   26.5569 C   0  0  1  0  0  0  0  0  0  0  0  0
    7.5629  -13.1048   25.0347 C   0  0  0  0  0  0  0  0  0  0  0  0
    9.0289  -13.3754   26.9458 C   0  0  0  0  0  0  0  0  0  0  0  0
    9.6709  -14.7130   26.9618 C   0  0  2  0  0  0  0  0  0  0  0  0
    9.0981  -15.6561   26.0207 N   0  0  0  0  0  0  0  0  0  0  0  0
    9.7711  -15.3675   28.2739 C   0  0  0  0  0  0  0  0  0  0  0  0
    9.3671  -16.6900   28.4935 O   0  0  0  0  0  0  0  0  0  0  0  0
   10.2303  -14.7715   29.2840 O   0  0  0  0  0  0  0  0  0  0  0  0
  2  1  1  6
  3  2  1  0
  4  3  1  0
  5  4  1  0
  5  6  1  0
  7  6  1  0
  8  2  1  0
  8  9  2  0
 12 11  1  6
 11 10  1  0
 12 13  1  0
 13  8  1  0
 14 12  1  0
 15 14  2  0
 17 16  1  1
 18 17  1  0
 19 17  1  0
 20 19  1  1
 20 21  1  0
 21 14  1  0
 22 20  1  0
 23 22  1  0
 24 22  2  0
M  END
$$$$
