KSL.pdb
     RDKit          3D

 24 23  0  0  1  0  0  0  0  0999 V2000
   10.1306  -15.3695   19.2670 N   0  0  0  0  0  0  0  0  0  0  0  0
    9.1831  -14.3843   19.7486 C   0  0  1  0  0  0  0  0  0  0  0  0
    8.0643  -14.2407   18.7658 C   0  0  0  0  0  0  0  0  0  0  0  0
    8.5387  -13.9993   17.3735 C   0  0  0  0  0  0  0  0  0  0  0  0
    7.4313  -13.7731   16.3807 C   0  0  0  0  0  0  0  0  0  0  0  0
    8.0225  -13.6078   14.9772 C   0  0  0  0  0  0  0  0  0  0  0  0
    6.9632  -13.3278   14.0299 N   0  0  0  0  0  0  0  0  0  0  0  0
    8.6586  -14.7944   21.0992 C   0  0  0  0  0  0  0  0  0  0  0  0
    7.7442  -14.1278   21.6204 O   0  0  0  0  0  0  0  0  0  0  0  0
   10.5624  -17.8429   23.2659 O   0  0  0  0  0  0  0  0  0  0  0  0
    9.1877  -17.8337   23.1704 C   0  0  0  0  0  0  0  0  0  0  0  0
    8.6354  -16.4164   22.9661 C   0  0  2  0  0  0  0  0  0  0  0  0
    9.2194  -15.9248   21.7370 N   0  0  0  0  0  0  0  0  0  0  0  0
    9.0707  -15.5436   24.1079 C   0  0  0  0  0  0  0  0  0  0  0  0
   10.2195  -15.0259   24.1360 O   0  0  0  0  0  0  0  0  0  0  0  0
    5.3740  -12.3112   26.2650 C   0  0  0  0  0  0  0  0  0  0  0  0
    6.6275  -12.9573   25.7245 C   0  0  1  0  0  0  0  0  0  0  0  0
    7.3828  -11.8397   24.9877 C   0  0  0  0  0  0  0  0  0  0  0  0
    7.5515  -13.4780   26.7659 C   0  0  0  0  0  0  0  0  0  0  0  0
    8.5992  -14.4323   26.3262 C   0  0  2  0  0  0  0  0  0  0  0  0
    8.2095  -15.2637   25.2037 N   0  0  0  0  0  0  0  0  0  0  0  0
    9.1671  -15.2966   27.3704 C   0  0  0  0  0  0  0  0  0  0  0  0
    9.2033  -16.6921   27.2617 O   0  0  0  0  0  0  0  0  0  0  0  0
    9.6582  -14.8277   28.4312 O   0  0  0  0  0  0  0  0  0  0  0  0
  2  1  1  6
  3  2  1  0
  4  3  1  0
  5  4  1  0
  5  6  1  0
  7  6  1  0
  8  2  1  0
  8  9  2  0
 12 11  1  1
 11 10  1  0
 12 13  1  0
 13  8  1  0
 14 12  1  0
 15 14  2  0
 17 16  1  1
 18 17  1  0
 19 17  1  0
 20 19  1  1
 20 21  1  0
 21 14  1  0
 22 20  1  0
 23 22  1  0
 24 22  2  0
M  END
$$$$
