KSL.pdb
     RDKit          3D

 24 23  0  0  1  0  0  0  0  0999 V2000
    9.9399  -16.4563   18.6472 N   0  0  0  0  0  0  0  0  0  0  0  0
   10.3936  -16.8511   19.9658 C   0  0  1  0  0  0  0  0  0  0  0  0
   11.7398  -16.2558   20.2332 C   0  0  0  0  0  0  0  0  0  0  0  0
   12.6159  -16.2303   19.0275 C   0  0  0  0  0  0  0  0  0  0  0  0
   13.2257  -14.8847   18.7432 C   0  0  0  0  0  0  0  0  0  0  0  0
   14.6716  -15.0634   18.2695 C   0  0  0  0  0  0  0  0  0  0  0  0
   14.8319  -14.4763   16.9552 N   0  0  0  0  0  0  0  0  0  0  0  0
    9.3976  -16.4083   21.0047 C   0  0  0  0  0  0  0  0  0  0  0  0
    8.7255  -15.3798   20.7981 O   0  0  0  0  0  0  0  0  0  0  0  0
    8.4643  -19.0584   24.0399 O   0  0  0  0  0  0  0  0  0  0  0  0
    7.5535  -18.1490   23.5474 C   0  0  0  0  0  0  0  0  0  0  0  0
    8.2225  -16.8292   23.1398 C   0  0  2  0  0  0  0  0  0  0  0  0
    9.2540  -17.1730   22.1852 N   0  0  0  0  0  0  0  0  0  0  0  0
    8.8527  -16.1972   24.3475 C   0  0  0  0  0  0  0  0  0  0  0  0
   10.0611  -16.4040   24.6398 O   0  0  0  0  0  0  0  0  0  0  0  0
    6.0509  -11.9971   26.7435 C   0  0  0  0  0  0  0  0  0  0  0  0
    6.9408  -12.9776   26.0173 C   0  0  1  0  0  0  0  0  0  0  0  0
    7.5312  -12.1985   24.8312 C   0  0  0  0  0  0  0  0  0  0  0  0
    8.0933  -13.4728   26.8148 C   0  0  0  0  0  0  0  0  0  0  0  0
    8.6647  -14.7884   26.4351 C   0  0  2  0  0  0  0  0  0  0  0  0
    8.1169  -15.3410   25.2113 N   0  0  0  0  0  0  0  0  0  0  0  0
    8.6344  -15.8307   27.4708 C   0  0  0  0  0  0  0  0  0  0  0  0
    9.2816  -15.6915   28.7046 O   0  0  0  0  0  0  0  0  0  0  0  0
    8.0192  -16.9174   27.3068 O   0  0  0  0  0  0  0  0  0  0  0  0
  2  1  1  6
  3  2  1  0
  4  3  1  0
  5  4  1  0
  5  6  1  0
  7  6  1  0
  8  2  1  0
  8  9  2  0
 12 11  1  1
 11 10  1  0
 12 13  1  0
 13  8  1  0
 14 12  1  0
 15 14  2  0
 17 16  1  1
 18 17  1  0
 19 17  1  0
 20 19  1  1
 20 21  1  0
 21 14  1  0
 22 20  1  0
 23 22  1  0
 24 22  2  0
M  END
$$$$
