KSL.pdb
     RDKit          3D

 24 23  0  0  1  0  0  0  0  0999 V2000
   10.9691  -17.2381   18.4536 N   0  0  0  0  0  0  0  0  0  0  0  0
   10.3418  -17.6973   19.6767 C   0  0  1  0  0  0  0  0  0  0  0  0
   11.3510  -18.4060   20.5238 C   0  0  0  0  0  0  0  0  0  0  0  0
   11.8527  -19.6646   19.9026 C   0  0  0  0  0  0  0  0  0  0  0  0
   12.8581  -20.4030   20.7436 C   0  0  0  0  0  0  0  0  0  0  0  0
   13.3704  -21.6275   19.9788 C   0  0  0  0  0  0  0  0  0  0  0  0
   14.3166  -22.3558   20.7986 N   0  0  0  0  0  0  0  0  0  0  0  0
    9.7475  -16.5292   20.4182 C   0  0  0  0  0  0  0  0  0  0  0  0
   10.3833  -15.4590   20.4692 O   0  0  0  0  0  0  0  0  0  0  0  0
    5.9943  -16.9876   22.1929 O   0  0  0  0  0  0  0  0  0  0  0  0
    6.3745  -15.7674   21.6777 C   0  0  0  0  0  0  0  0  0  0  0  0
    7.8945  -15.5648   21.7421 C   0  0  2  0  0  0  0  0  0  0  0  0
    8.4846  -16.6809   21.0354 N   0  0  0  0  0  0  0  0  0  0  0  0
    8.3395  -15.5922   23.1761 C   0  0  0  0  0  0  0  0  0  0  0  0
    9.0197  -16.5500   23.6328 O   0  0  0  0  0  0  0  0  0  0  0  0
    6.8835  -11.4557   27.2508 C   0  0  0  0  0  0  0  0  0  0  0  0
    6.9444  -12.8197   26.6054 C   0  0  1  0  0  0  0  0  0  0  0  0
    6.0567  -12.7241   25.3544 C   0  0  0  0  0  0  0  0  0  0  0  0
    8.2967  -13.2203   26.1358 C   0  0  0  0  0  0  0  0  0  0  0  0
    8.4193  -14.5412   25.4711 C   0  0  2  0  0  0  0  0  0  0  0  0
    8.0144  -14.5432   24.0786 N   0  0  0  0  0  0  0  0  0  0  0  0
    7.7649  -15.6698   26.1477 C   0  0  0  0  0  0  0  0  0  0  0  0
    8.2654  -16.2411   27.3240 O   0  0  0  0  0  0  0  0  0  0  0  0
    6.7075  -16.1916   25.7050 O   0  0  0  0  0  0  0  0  0  0  0  0
  2  1  1  6
  3  2  1  0
  4  3  1  0
  5  4  1  0
  5  6  1  0
  7  6  1  0
  8  2  1  0
  8  9  2  0
 12 11  1  1
 11 10  1  0
 12 13  1  0
 13  8  1  0
 14 12  1  0
 15 14  2  0
 17 16  1  6
 18 17  1  0
 19 17  1  0
 20 19  1  1
 20 21  1  0
 21 14  1  0
 22 20  1  0
 23 22  1  0
 24 22  2  0
M  END
$$$$
