KSL.pdb
     RDKit          3D

 24 23  0  0  1  0  0  0  0  0999 V2000
    7.1476  -17.8892   19.4511 N   0  0  0  0  0  0  0  0  0  0  0  0
    8.1782  -17.0570   20.0392 C   0  0  1  0  0  0  0  0  0  0  0  0
    7.9745  -15.6347   19.6223 C   0  0  0  0  0  0  0  0  0  0  0  0
    8.2210  -15.4123   18.1692 C   0  0  0  0  0  0  0  0  0  0  0  0
    8.0132  -13.9901   17.7245 C   0  0  0  0  0  0  0  0  0  0  0  0
    8.2198  -13.8879   16.2100 C   0  0  0  0  0  0  0  0  0  0  0  0
    7.9074  -12.5460   15.7631 N   0  0  0  0  0  0  0  0  0  0  0  0
    8.1459  -17.1839   21.5393 C   0  0  0  0  0  0  0  0  0  0  0  0
    7.0443  -17.2008   22.1209 O   0  0  0  0  0  0  0  0  0  0  0  0
   11.7658  -17.5666   23.6734 O   0  0  0  0  0  0  0  0  0  0  0  0
   10.6163  -18.2302   24.0441 C   0  0  0  0  0  0  0  0  0  0  0  0
    9.3531  -17.4368   23.6830 C   0  0  2  0  0  0  0  0  0  0  0  0
    9.3674  -17.2803   22.2447 N   0  0  0  0  0  0  0  0  0  0  0  0
    9.4133  -16.0838   24.3316 C   0  0  0  0  0  0  0  0  0  0  0  0
   10.0692  -15.1389   23.8163 O   0  0  0  0  0  0  0  0  0  0  0  0
    6.1525  -11.6821   26.5994 C   0  0  0  0  0  0  0  0  0  0  0  0
    7.4120  -12.4745   26.8571 C   0  0  1  0  0  0  0  0  0  0  0  0
    7.3878  -12.8117   28.3564 C   0  0  0  0  0  0  0  0  0  0  0  0
    7.4849  -13.7704   26.1324 C   0  0  0  0  0  0  0  0  0  0  0  0
    8.7669  -14.5141   26.2014 C   0  0  2  0  0  0  0  0  0  0  0  0
    8.7357  -15.8097   25.5507 N   0  0  0  0  0  0  0  0  0  0  0  0
    9.3479  -14.6800   27.5411 C   0  0  0  0  0  0  0  0  0  0  0  0
   10.1025  -13.6812   28.1685 O   0  0  0  0  0  0  0  0  0  0  0  0
    9.1987  -15.7384   28.2073 O   0  0  0  0  0  0  0  0  0  0  0  0
  2  1  1  6
  3  2  1  0
  4  3  1  0
  5  4  1  0
  5  6  1  0
  7  6  1  0
  8  2  1  0
  8  9  2  0
 12 11  1  1
 11 10  1  0
 12 13  1  0
 13  8  1  0
 14 12  1  0
 15 14  2  0
 17 16  1  6
 18 17  1  0
 19 17  1  0
 20 19  1  1
 20 21  1  0
 21 14  1  0
 22 20  1  0
 23 22  1  0
 24 22  2  0
M  END
$$$$
