QCD.pdb
     RDKit          3D

 24 23  0  0  1  0  0  0  0  0999 V2000
   11.6474  -21.0003   17.9060 N   0  0  0  0  0  0  0  0  0  0  0  0
   10.5749  -21.0949   16.9708 C   0  0  0  0  0  0  0  0  0  0  0  0
   10.3399  -22.1962   16.4198 O   0  0  0  0  0  0  0  0  0  0  0  0
    9.7241  -19.9379   16.6290 C   0  0  0  0  0  0  0  0  0  0  0  0
   10.1221  -18.6615   17.2981 C   0  0  0  0  0  0  0  0  0  0  0  0
    9.0790  -17.9254   18.0336 C   0  0  2  0  0  0  0  0  0  0  0  0
    8.1276  -17.2038   17.2331 N   0  0  0  0  0  0  0  0  0  0  0  0
    9.5910  -17.0400   19.1066 C   0  0  0  0  0  0  0  0  0  0  0  0
   10.2166  -16.0045   18.7736 O   0  0  0  0  0  0  0  0  0  0  0  0
    9.4161  -17.2939   20.4809 N   0  0  0  0  0  0  0  0  0  0  0  0
    9.9449  -16.4205   21.5368 C   0  0  1  0  0  0  0  0  0  0  0  0
    8.7962  -16.2517   22.5283 C   0  0  0  0  0  0  0  0  0  0  0  0
    9.3466  -15.4606   24.0264 S   0  0  0  0  0  0  0  0  0  0  0  0
   11.1523  -17.0027   22.1390 C   0  0  0  0  0  0  0  0  0  0  0  0
   11.1431  -18.2608   22.3802 O   0  0  0  0  0  0  0  0  0  0  0  0
   12.3244  -16.2854   22.4715 N   0  0  0  0  0  0  0  0  0  0  0  0
   13.4264  -16.9732   23.1171 C   0  0  1  0  0  0  0  0  0  0  0  0
   14.7622  -16.4369   22.6825 C   0  0  0  0  0  0  0  0  0  0  0  0
   15.0084  -16.9095   21.2954 C   0  0  0  0  0  0  0  0  0  0  0  0
   14.6410  -18.0726   20.9975 O   0  0  0  0  0  0  0  0  0  0  0  0
   13.2990  -16.8973   24.5923 C   0  0  0  0  0  0  0  0  0  0  0  0
   12.3831  -16.2266   25.1208 O   0  0  0  0  0  0  0  0  0  0  0  0
   15.6200  -16.1272   20.3295 O   0  0  0  0  0  0  0  0  0  0  0  0
   14.1890  -17.5655   25.4073 O   0  0  0  0  0  0  0  0  0  0  0  0
  2  1  1  0
  3  2  2  0
  4  2  1  0
  5  4  1  0
  6  7  1  6
  6  8  1  0
  6  5  1  0
  8 10  1  0
  8  9  2  0
 10 11  1  0
 11 14  1  0
 12 13  1  0
 11 12  1  1
 14 16  1  0
 14 15  2  0
 16 17  1  0
 17 21  1  0
 17 18  1  1
 19 18  1  0
 20 19  2  0
 21 22  2  0
 21 24  1  0
 23 19  1  0
M  END
$$$$
