QCD.pdb
     RDKit          3D

 24 23  0  0  1  0  0  0  0  0999 V2000
   10.8313  -18.9618   17.0537 N   0  0  0  0  0  0  0  0  0  0  0  0
   10.0328  -18.6354   15.9181 C   0  0  0  0  0  0  0  0  0  0  0  0
    9.8021  -19.5188   15.0589 O   0  0  0  0  0  0  0  0  0  0  0  0
    9.4615  -17.2890   15.7182 C   0  0  0  0  0  0  0  0  0  0  0  0
    9.8545  -16.2920   16.7608 C   0  0  0  0  0  0  0  0  0  0  0  0
    8.7772  -15.6865   17.5630 C   0  0  2  0  0  0  0  0  0  0  0  0
    7.9522  -14.7199   16.8908 N   0  0  0  0  0  0  0  0  0  0  0  0
    9.2162  -15.1362   18.8676 C   0  0  0  0  0  0  0  0  0  0  0  0
   10.0146  -14.1682   18.8651 O   0  0  0  0  0  0  0  0  0  0  0  0
    8.7886  -15.6376   20.1124 N   0  0  0  0  0  0  0  0  0  0  0  0
    9.3501  -15.1971   21.3961 C   0  0  1  0  0  0  0  0  0  0  0  0
    8.2248  -14.4250   22.0806 C   0  0  0  0  0  0  0  0  0  0  0  0
    6.6269  -15.0363   21.5846 S   0  0  0  0  0  0  0  0  0  0  0  0
    9.8269  -16.3461   22.1784 C   0  0  0  0  0  0  0  0  0  0  0  0
   10.0732  -17.4308   21.5430 O   0  0  0  0  0  0  0  0  0  0  0  0
   10.0377  -16.3493   23.5764 N   0  0  0  0  0  0  0  0  0  0  0  0
   11.3545  -16.6561   24.1018 C   0  0  1  0  0  0  0  0  0  0  0  0
   12.4072  -15.7202   23.5755 C   0  0  0  0  0  0  0  0  0  0  0  0
   13.3740  -16.5267   22.7864 C   0  0  0  0  0  0  0  0  0  0  0  0
   13.4248  -17.7620   23.0055 O   0  0  0  0  0  0  0  0  0  0  0  0
   11.3450  -16.6352   25.5843 C   0  0  0  0  0  0  0  0  0  0  0  0
   12.3542  -16.9908   26.2347 O   0  0  0  0  0  0  0  0  0  0  0  0
   14.2118  -15.9763   21.8302 O   0  0  0  0  0  0  0  0  0  0  0  0
   10.2223  -16.2228   26.2715 O   0  0  0  0  0  0  0  0  0  0  0  0
  2  1  1  0
  3  2  2  0
  4  2  1  0
  5  4  1  0
  6  7  1  6
  6  8  1  0
  6  5  1  0
  8 10  1  0
  8  9  2  0
 10 11  1  0
 11 14  1  0
 12 13  1  0
 11 12  1  1
 14 16  1  0
 14 15  2  0
 16 17  1  0
 17 21  1  0
 17 18  1  6
 19 18  1  0
 20 19  2  0
 21 22  2  0
 21 24  1  0
 23 19  1  0
M  END
$$$$
