QCD.pdb
     RDKit          3D

 24 23  0  0  1  0  0  0  0  0999 V2000
    9.5405  -15.0426   14.5683 N   0  0  0  0  0  0  0  0  0  0  0  0
    8.4667  -14.5859   15.3883 C   0  0  0  0  0  0  0  0  0  0  0  0
    7.8211  -13.5694   15.0395 O   0  0  0  0  0  0  0  0  0  0  0  0
    8.0830  -15.2725   16.6374 C   0  0  0  0  0  0  0  0  0  0  0  0
    8.8649  -16.5145   16.9230 C   0  0  0  0  0  0  0  0  0  0  0  0
    8.5969  -17.2095   18.1942 C   0  0  2  0  0  0  0  0  0  0  0  0
    7.2272  -17.5671   18.4453 N   0  0  0  0  0  0  0  0  0  0  0  0
    9.1580  -16.5401   19.3919 C   0  0  0  0  0  0  0  0  0  0  0  0
   10.3583  -16.1758   19.3605 O   0  0  0  0  0  0  0  0  0  0  0  0
    8.4209  -16.2887   20.5655 N   0  0  0  0  0  0  0  0  0  0  0  0
    8.9662  -15.5656   21.7218 C   0  0  1  0  0  0  0  0  0  0  0  0
    7.7505  -15.1765   22.5594 C   0  0  0  0  0  0  0  0  0  0  0  0
    6.9002  -13.7791   21.8542 S   0  0  0  0  0  0  0  0  0  0  0  0
    9.9318  -16.4000   22.4505 C   0  0  0  0  0  0  0  0  0  0  0  0
    9.5931  -17.6091   22.7043 O   0  0  0  0  0  0  0  0  0  0  0  0
   11.2060  -15.9754   22.8920 N   0  0  0  0  0  0  0  0  0  0  0  0
   12.0416  -16.8865   23.6509 C   0  0  1  0  0  0  0  0  0  0  0  0
   13.4774  -16.4412   23.6886 C   0  0  0  0  0  0  0  0  0  0  0  0
   13.9418  -16.2965   22.2846 C   0  0  0  0  0  0  0  0  0  0  0  0
   13.6726  -17.2211   21.4788 O   0  0  0  0  0  0  0  0  0  0  0  0
   11.5198  -17.0513   25.0289 C   0  0  0  0  0  0  0  0  0  0  0  0
   10.5419  -16.3777   25.4266 O   0  0  0  0  0  0  0  0  0  0  0  0
   14.6516  -15.1951   21.8348 O   0  0  0  0  0  0  0  0  0  0  0  0
   12.1043  -17.9508   25.8961 O   0  0  0  0  0  0  0  0  0  0  0  0
  2  1  1  0
  3  2  2  0
  4  2  1  0
  5  4  1  0
  6  7  1  1
  6  8  1  0
  6  5  1  0
  8 10  1  0
  8  9  2  0
 10 11  1  0
 11 14  1  0
 12 13  1  0
 11 12  1  1
 14 16  1  0
 14 15  2  0
 16 17  1  0
 17 21  1  0
 17 18  1  1
 19 18  1  0
 20 19  2  0
 21 22  2  0
 21 24  1  0
 23 19  1  0
M  END
$$$$
