QCD.pdb
     RDKit          3D

 24 23  0  0  1  0  0  0  0  0999 V2000
    9.3576  -14.4217   14.3344 N   0  0  0  0  0  0  0  0  0  0  0  0
    7.9579  -14.2403   14.5387 C   0  0  0  0  0  0  0  0  0  0  0  0
    7.1739  -14.3976   13.5731 O   0  0  0  0  0  0  0  0  0  0  0  0
    7.3951  -13.8759   15.8538 C   0  0  0  0  0  0  0  0  0  0  0  0
    8.4045  -13.7895   16.9534 C   0  0  0  0  0  0  0  0  0  0  0  0
    8.4891  -14.9242   17.8895 C   0  0  2  0  0  0  0  0  0  0  0  0
    7.3573  -15.8102   17.9163 N   0  0  0  0  0  0  0  0  0  0  0  0
    8.8551  -14.5516   19.2768 C   0  0  0  0  0  0  0  0  0  0  0  0
    9.8189  -13.7662   19.4458 O   0  0  0  0  0  0  0  0  0  0  0  0
    8.1827  -15.0290   20.4187 N   0  0  0  0  0  0  0  0  0  0  0  0
    8.5610  -14.6630   21.7900 C   0  0  1  0  0  0  0  0  0  0  0  0
    7.2407  -14.4193   22.5170 C   0  0  0  0  0  0  0  0  0  0  0  0
    7.5026  -14.1450   24.2575 S   0  0  0  0  0  0  0  0  0  0  0  0
    9.3774  -15.7188   22.4049 C   0  0  0  0  0  0  0  0  0  0  0  0
    9.0129  -16.9321   22.2153 O   0  0  0  0  0  0  0  0  0  0  0  0
   10.5348  -15.5024   23.1876 N   0  0  0  0  0  0  0  0  0  0  0  0
   11.1879  -16.6286   23.8275 C   0  0  1  0  0  0  0  0  0  0  0  0
   12.6808  -16.4590   23.8878 C   0  0  0  0  0  0  0  0  0  0  0  0
   13.2172  -16.6964   22.5226 C   0  0  0  0  0  0  0  0  0  0  0  0
   12.5876  -16.2094   21.5515 O   0  0  0  0  0  0  0  0  0  0  0  0
   10.6415  -16.8469   25.1884 C   0  0  0  0  0  0  0  0  0  0  0  0
    9.8539  -16.0192   25.7010 O   0  0  0  0  0  0  0  0  0  0  0  0
   14.3704  -17.4252   22.2816 O   0  0  0  0  0  0  0  0  0  0  0  0
   10.9928  -17.9671   25.9126 O   0  0  0  0  0  0  0  0  0  0  0  0
  2  1  1  0
  3  2  2  0
  4  2  1  0
  5  4  1  0
  6  7  1  1
  6  8  1  0
  6  5  1  0
  8 10  1  0
  8  9  2  0
 10 11  1  0
 11 14  1  0
 12 13  1  0
 11 12  1  1
 14 16  1  0
 14 15  2  0
 16 17  1  0
 17 21  1  0
 17 18  1  1
 19 18  1  0
 20 19  2  0
 21 22  2  0
 21 24  1  0
 23 19  1  0
M  END
$$$$
