QCD.pdb
     RDKit          3D

 24 23  0  0  1  0  0  0  0  0999 V2000
    8.0962  -12.7408   16.0749 N   0  0  0  0  0  0  0  0  0  0  0  0
    7.9225  -14.0586   15.5579 C   0  0  0  0  0  0  0  0  0  0  0  0
    7.2631  -14.2195   14.5039 O   0  0  0  0  0  0  0  0  0  0  0  0
    8.4973  -15.2461   16.2202 C   0  0  0  0  0  0  0  0  0  0  0  0
    9.3220  -14.9387   17.4287 C   0  0  0  0  0  0  0  0  0  0  0  0
    9.2079  -15.8513   18.5799 C   0  0  2  0  0  0  0  0  0  0  0  0
    7.9740  -16.5807   18.6913 N   0  0  0  0  0  0  0  0  0  0  0  0
    9.5354  -15.2358   19.8881 C   0  0  0  0  0  0  0  0  0  0  0  0
   10.6025  -14.5831   19.9864 O   0  0  0  0  0  0  0  0  0  0  0  0
    8.7170  -15.3413   21.0295 N   0  0  0  0  0  0  0  0  0  0  0  0
    9.1328  -14.8932   22.3650 C   0  0  1  0  0  0  0  0  0  0  0  0
    7.8692  -14.3261   23.0076 C   0  0  0  0  0  0  0  0  0  0  0  0
    6.7056  -15.6179   23.3951 S   0  0  0  0  0  0  0  0  0  0  0  0
    9.7250  -16.0020   23.1261 C   0  0  0  0  0  0  0  0  0  0  0  0
    9.4442  -17.1932   22.7479 O   0  0  0  0  0  0  0  0  0  0  0  0
   10.5822  -15.8589   24.2414 N   0  0  0  0  0  0  0  0  0  0  0  0
   11.1267  -17.0406   24.8827 C   0  0  1  0  0  0  0  0  0  0  0  0
   12.6228  -17.1175   24.7535 C   0  0  0  0  0  0  0  0  0  0  0  0
   13.0039  -18.5536   24.7702 C   0  0  0  0  0  0  0  0  0  0  0  0
   12.1212  -19.3987   24.4818 O   0  0  0  0  0  0  0  0  0  0  0  0
   10.7325  -17.0900   26.3112 C   0  0  0  0  0  0  0  0  0  0  0  0
   10.2286  -16.0890   26.8699 O   0  0  0  0  0  0  0  0  0  0  0  0
   14.2791  -18.9918   25.0877 O   0  0  0  0  0  0  0  0  0  0  0  0
   10.9149  -18.2415   27.0485 O   0  0  0  0  0  0  0  0  0  0  0  0
  2  1  1  0
  3  2  2  0
  4  2  1  0
  5  4  1  0
  6  7  1  1
  6  8  1  0
  6  5  1  0
  8 10  1  0
  8  9  2  0
 10 11  1  0
 11 14  1  0
 12 13  1  0
 11 12  1  1
 14 16  1  0
 14 15  2  0
 16 17  1  0
 17 21  1  0
 17 18  1  1
 19 18  1  0
 20 19  2  0
 21 22  2  0
 21 24  1  0
 23 19  1  0
M  END
$$$$
