QCD.pdb
     RDKit          3D

 24 23  0  0  1  0  0  0  0  0999 V2000
    7.8351  -12.4674   16.8144 N   0  0  0  0  0  0  0  0  0  0  0  0
    8.2100  -13.6966   16.1960 C   0  0  0  0  0  0  0  0  0  0  0  0
    7.9404  -13.8787   14.9853 O   0  0  0  0  0  0  0  0  0  0  0  0
    8.9113  -14.7666   16.9325 C   0  0  0  0  0  0  0  0  0  0  0  0
    9.1494  -14.4658   18.3776 C   0  0  0  0  0  0  0  0  0  0  0  0
    9.0027  -15.5751   19.3361 C   0  0  2  0  0  0  0  0  0  0  0  0
    7.7757  -16.3204   19.2609 N   0  0  0  0  0  0  0  0  0  0  0  0
    9.2697  -15.2084   20.7474 C   0  0  0  0  0  0  0  0  0  0  0  0
   10.4353  -14.8659   21.0613 O   0  0  0  0  0  0  0  0  0  0  0  0
    8.2895  -15.2224   21.7587 N   0  0  0  0  0  0  0  0  0  0  0  0
    8.5766  -14.9129   23.1655 C   0  0  1  0  0  0  0  0  0  0  0  0
    7.2511  -14.4261   23.7461 C   0  0  0  0  0  0  0  0  0  0  0  0
    7.3570  -14.2173   25.5120 S   0  0  0  0  0  0  0  0  0  0  0  0
    9.1178  -16.0904   23.8584 C   0  0  0  0  0  0  0  0  0  0  0  0
    8.6005  -17.2285   23.5791 O   0  0  0  0  0  0  0  0  0  0  0  0
   10.1656  -16.0677   24.8073 N   0  0  0  0  0  0  0  0  0  0  0  0
   10.7157  -17.3173   25.2973 C   0  0  1  0  0  0  0  0  0  0  0  0
   11.9975  -17.6841   24.6019 C   0  0  0  0  0  0  0  0  0  0  0  0
   12.4902  -18.9506   25.2027 C   0  0  0  0  0  0  0  0  0  0  0  0
   11.6405  -19.8160   25.5276 O   0  0  0  0  0  0  0  0  0  0  0  0
   10.9272  -17.2573   26.7636 C   0  0  0  0  0  0  0  0  0  0  0  0
   10.7398  -16.1911   27.3930 O   0  0  0  0  0  0  0  0  0  0  0  0
   13.8339  -19.2112   25.4164 O   0  0  0  0  0  0  0  0  0  0  0  0
   11.3343  -18.3770   27.4587 O   0  0  0  0  0  0  0  0  0  0  0  0
  2  1  1  0
  3  2  2  0
  4  2  1  0
  5  4  1  0
  6  7  1  1
  6  8  1  0
  6  5  1  0
  8 10  1  0
  8  9  2  0
 10 11  1  0
 11 14  1  0
 12 13  1  0
 11 12  1  1
 14 16  1  0
 14 15  2  0
 16 17  1  0
 17 21  1  0
 17 18  1  6
 19 18  1  0
 20 19  2  0
 21 22  2  0
 21 24  1  0
 23 19  1  0
M  END
$$$$
