QCD.pdb
     RDKit          3D

 24 23  0  0  1  0  0  0  0  0999 V2000
    7.9698  -15.1244   18.5150 N   0  0  0  0  0  0  0  0  0  0  0  0
    7.7368  -14.0521   19.4259 C   0  0  0  0  0  0  0  0  0  0  0  0
    6.8609  -13.1977   19.1529 O   0  0  0  0  0  0  0  0  0  0  0  0
    8.4907  -13.9130   20.6875 C   0  0  0  0  0  0  0  0  0  0  0  0
    9.4777  -15.0073   20.9392 C   0  0  0  0  0  0  0  0  0  0  0  0
    9.2118  -15.9165   22.0677 C   0  0  2  0  0  0  0  0  0  0  0  0
    7.8398  -16.2977   22.2656 N   0  0  0  0  0  0  0  0  0  0  0  0
    9.7924  -15.4800   23.3599 C   0  0  0  0  0  0  0  0  0  0  0  0
   10.9575  -15.0143   23.3600 O   0  0  0  0  0  0  0  0  0  0  0  0
    9.1111  -15.5577   24.5902 N   0  0  0  0  0  0  0  0  0  0  0  0
    9.7253  -15.2045   25.8767 C   0  0  1  0  0  0  0  0  0  0  0  0
    8.7592  -14.2139   26.5221 C   0  0  0  0  0  0  0  0  0  0  0  0
    9.3521  -13.6766   28.1136 S   0  0  0  0  0  0  0  0  0  0  0  0
    9.9572  -16.4055   26.6910 C   0  0  0  0  0  0  0  0  0  0  0  0
    8.9373  -17.1198   26.9923 O   0  0  0  0  0  0  0  0  0  0  0  0
   11.2166  -16.8371   27.1668 N   0  0  0  0  0  0  0  0  0  0  0  0
   11.2945  -17.9895   28.0445 C   0  0  1  0  0  0  0  0  0  0  0  0
   12.5883  -18.7386   27.8834 C   0  0  0  0  0  0  0  0  0  0  0  0
   12.4289  -19.6734   26.7395 C   0  0  0  0  0  0  0  0  0  0  0  0
   11.3089  -19.7239   26.1742 O   0  0  0  0  0  0  0  0  0  0  0  0
   11.1095  -17.5843   29.4587 C   0  0  0  0  0  0  0  0  0  0  0  0
   11.2037  -16.3821   29.7964 O   0  0  0  0  0  0  0  0  0  0  0  0
   13.4546  -20.4821   26.2779 O   0  0  0  0  0  0  0  0  0  0  0  0
   10.8304  -18.5268   30.4263 O   0  0  0  0  0  0  0  0  0  0  0  0
  2  1  1  0
  3  2  2  0
  4  2  1  0
  5  4  1  0
  6  7  1  1
  6  8  1  0
  6  5  1  0
  8 10  1  0
  8  9  2  0
 10 11  1  0
 11 14  1  0
 12 13  1  0
 11 12  1  1
 14 16  1  0
 14 15  2  0
 16 17  1  0
 17 21  1  0
 17 18  1  1
 19 18  1  0
 20 19  2  0
 21 22  2  0
 21 24  1  0
 23 19  1  0
M  END
$$$$
