QCD.pdb
     RDKit          3D

 24 23  0  0  1  0  0  0  0  0999 V2000
    8.4309  -12.7689   16.9484 N   0  0  0  0  0  0  0  0  0  0  0  0
    7.8883  -14.0528   16.6464 C   0  0  0  0  0  0  0  0  0  0  0  0
    7.1758  -14.1901   15.6241 O   0  0  0  0  0  0  0  0  0  0  0  0
    8.1399  -15.2333   17.4963 C   0  0  0  0  0  0  0  0  0  0  0  0
    8.9829  -14.9577   18.6998 C   0  0  0  0  0  0  0  0  0  0  0  0
    8.5967  -15.6085   19.9641 C   0  0  2  0  0  0  0  0  0  0  0  0
    7.1973  -15.8933   20.1293 N   0  0  0  0  0  0  0  0  0  0  0  0
    9.1097  -14.9387   21.1829 C   0  0  0  0  0  0  0  0  0  0  0  0
   10.3125  -14.5820   21.2026 O   0  0  0  0  0  0  0  0  0  0  0  0
    8.3241  -14.6790   22.3228 N   0  0  0  0  0  0  0  0  0  0  0  0
    8.8776  -14.1775   23.5874 C   0  0  1  0  0  0  0  0  0  0  0  0
    7.7687  -13.3244   24.1986 C   0  0  0  0  0  0  0  0  0  0  0  0
    6.3512  -14.3156   24.6245 S   0  0  0  0  0  0  0  0  0  0  0  0
    9.2980  -15.2903   24.4502 C   0  0  0  0  0  0  0  0  0  0  0  0
    8.3873  -15.8964   25.1168 O   0  0  0  0  0  0  0  0  0  0  0  0
   10.6274  -15.7471   24.6017 N   0  0  0  0  0  0  0  0  0  0  0  0
   10.8771  -17.0283   25.2345 C   0  0  1  0  0  0  0  0  0  0  0  0
   10.2326  -18.1641   24.4892 C   0  0  0  0  0  0  0  0  0  0  0  0
   10.6101  -19.4264   25.1762 C   0  0  0  0  0  0  0  0  0  0  0  0
   10.8509  -19.3754   26.4074 O   0  0  0  0  0  0  0  0  0  0  0  0
   12.3335  -17.2682   25.3748 C   0  0  0  0  0  0  0  0  0  0  0  0
   13.0421  -17.5030   24.3694 O   0  0  0  0  0  0  0  0  0  0  0  0
   10.7060  -20.6426   24.5199 O   0  0  0  0  0  0  0  0  0  0  0  0
   12.9319  -17.2367   26.6173 O   0  0  0  0  0  0  0  0  0  0  0  0
  2  1  1  0
  3  2  2  0
  4  2  1  0
  5  4  1  0
  6  7  1  1
  6  8  1  0
  6  5  1  0
  8 10  1  0
  8  9  2  0
 10 11  1  0
 11 14  1  0
 12 13  1  0
 11 12  1  1
 14 16  1  0
 14 15  2  0
 16 17  1  0
 17 21  1  0
 17 18  1  6
 19 18  1  0
 20 19  2  0
 21 22  2  0
 21 24  1  0
 23 19  1  0
M  END
$$$$
