TEI.pdb
     RDKit          3D

 25 24  0  0  1  0  0  0  0  0999 V2000
    8.4890  -12.6715   18.8259 C   0  0  0  0  0  0  0  0  0  0  0  0
    8.5957  -13.3317   20.1839 C   0  0  1  0  0  0  0  0  0  0  0  0
    8.0229  -12.5252   21.1353 O   0  0  0  0  0  0  0  0  0  0  0  0
    7.9983  -14.7251   20.1674 C   0  0  2  0  0  0  0  0  0  0  0  0
    6.5987  -14.5904   19.8213 N   0  0  0  0  0  0  0  0  0  0  0  0
    8.1120  -15.2900   21.5095 C   0  0  0  0  0  0  0  0  0  0  0  0
    7.2154  -15.0589   22.3581 O   0  0  0  0  0  0  0  0  0  0  0  0
    9.1967  -16.1084   21.9417 N   0  0  0  0  0  0  0  0  0  0  0  0
    9.3162  -16.6772   23.2610 C   0  0  1  0  0  0  0  0  0  0  0  0
   10.2562  -17.8422   23.3544 C   0  0  0  0  0  0  0  0  0  0  0  0
   10.3822  -18.4957   24.6795 C   0  0  0  0  0  0  0  0  0  0  0  0
   11.3364  -19.6103   24.6407 C   0  0  0  0  0  0  0  0  0  0  0  0
   12.0395  -19.8659   25.6341 O   0  0  0  0  0  0  0  0  0  0  0  0
    9.5507  -15.6998   24.3341 C   0  0  0  0  0  0  0  0  0  0  0  0
   10.4803  -14.8668   24.1905 O   0  0  0  0  0  0  0  0  0  0  0  0
   11.4515  -20.3729   23.5007 O   0  0  0  0  0  0  0  0  0  0  0  0
    6.5159  -12.0438   25.9949 C   0  0  0  0  0  0  0  0  0  0  0  0
    7.7016  -12.9682   25.6606 C   0  0  0  0  0  0  0  0  0  0  0  0
    8.0683  -13.7215   26.9078 C   0  0  2  0  0  0  0  0  0  0  0  0
    8.3750  -12.7857   28.0564 C   0  0  0  0  0  0  0  0  0  0  0  0
    9.1546  -14.7001   26.6324 C   0  0  2  0  0  0  0  0  0  0  0  0
    8.8064  -15.6148   25.5436 N   0  0  0  0  0  0  0  0  0  0  0  0
    9.5805  -15.5291   27.7714 C   0  0  0  0  0  0  0  0  0  0  0  0
   10.4404  -15.1253   28.7731 O   0  0  0  0  0  0  0  0  0  0  0  0
    9.1461  -16.7029   27.8675 O   0  0  0  0  0  0  0  0  0  0  0  0
  2  3  1  0
  2  1  1  6
  4  5  1  1
  4  2  1  0
  6  4  1  0
  7  6  2  0
  8  6  1  0
  9  8  1  0
  9 10  1  6
 11 10  1  0
 12 11  1  0
 13 12  2  0
 14  9  1  0
 14 22  1  0
 15 14  2  0
 16 12  1  0
 17 18  1  0
 19 18  1  0
 19 21  1  0
 19 20  1  1
 21 22  1  6
 21 23  1  0
 23 25  2  0
 23 24  1  0
M  END
$$$$
