TEI.pdb
     RDKit          3D

 25 24  0  0  1  0  0  0  0  0999 V2000
    8.8241  -15.4627   18.1699 C   0  0  0  0  0  0  0  0  0  0  0  0
    8.5887  -15.6046   19.6585 C   0  0  1  0  0  0  0  0  0  0  0  0
    9.4309  -14.7630   20.3411 O   0  0  0  0  0  0  0  0  0  0  0  0
    7.1313  -15.3783   20.0097 C   0  0  2  0  0  0  0  0  0  0  0  0
    6.7993  -14.0233   19.6217 N   0  0  0  0  0  0  0  0  0  0  0  0
    6.9798  -15.5177   21.4557 C   0  0  0  0  0  0  0  0  0  0  0  0
    6.7241  -14.5052   22.1534 O   0  0  0  0  0  0  0  0  0  0  0  0
    7.1041  -16.7537   22.1557 N   0  0  0  0  0  0  0  0  0  0  0  0
    6.9243  -16.9093   23.5776 C   0  0  1  0  0  0  0  0  0  0  0  0
    6.9221  -18.3317   24.0533 C   0  0  0  0  0  0  0  0  0  0  0  0
    6.8453  -18.5471   25.5185 C   0  0  0  0  0  0  0  0  0  0  0  0
    6.8515  -19.9762   25.8528 C   0  0  0  0  0  0  0  0  0  0  0  0
    6.9326  -20.8286   24.9509 O   0  0  0  0  0  0  0  0  0  0  0  0
    7.7928  -16.0588   24.4049 C   0  0  0  0  0  0  0  0  0  0  0  0
    8.9762  -15.8685   24.0282 O   0  0  0  0  0  0  0  0  0  0  0  0
    6.7670  -20.3714   27.1685 O   0  0  0  0  0  0  0  0  0  0  0  0
    5.6827  -11.6781   26.5673 C   0  0  0  0  0  0  0  0  0  0  0  0
    6.6505  -12.6448   25.8593 C   0  0  0  0  0  0  0  0  0  0  0  0
    7.4572  -13.3482   26.9137 C   0  0  2  0  0  0  0  0  0  0  0  0
    8.2878  -12.3767   27.7231 C   0  0  0  0  0  0  0  0  0  0  0  0
    8.2516  -14.4562   26.3178 C   0  0  2  0  0  0  0  0  0  0  0  0
    7.4050  -15.4237   25.6174 N   0  0  0  0  0  0  0  0  0  0  0  0
    9.0960  -15.2192   27.2509 C   0  0  0  0  0  0  0  0  0  0  0  0
    8.9070  -16.5425   27.5964 O   0  0  0  0  0  0  0  0  0  0  0  0
   10.0734  -14.6492   27.7943 O   0  0  0  0  0  0  0  0  0  0  0  0
  2  3  1  0
  2  1  1  6
  4  5  1  1
  4  2  1  0
  6  4  1  0
  7  6  2  0
  8  6  1  0
  9  8  1  0
  9 10  1  1
 11 10  1  0
 12 11  1  0
 13 12  2  0
 14  9  1  0
 14 22  1  0
 15 14  2  0
 16 12  1  0
 17 18  1  0
 19 18  1  0
 19 21  1  0
 19 20  1  6
 21 22  1  1
 21 23  1  0
 23 25  2  0
 23 24  1  0
M  END
$$$$
