TEI.pdb
     RDKit          3D

 25 24  0  0  1  0  0  0  0  0999 V2000
    8.8680  -12.5623   20.2542 C   0  0  0  0  0  0  0  0  0  0  0  0
    7.7880  -13.2871   19.4797 C   0  0  1  0  0  0  0  0  0  0  0  0
    7.5513  -12.6336   18.2963 O   0  0  0  0  0  0  0  0  0  0  0  0
    8.1418  -14.7472   19.2763 C   0  0  2  0  0  0  0  0  0  0  0  0
    7.0239  -15.3720   18.6005 N   0  0  0  0  0  0  0  0  0  0  0  0
    8.3194  -15.3643   20.5882 C   0  0  0  0  0  0  0  0  0  0  0  0
    7.3198  -15.5577   21.3236 O   0  0  0  0  0  0  0  0  0  0  0  0
    9.5800  -15.7760   21.1125 N   0  0  0  0  0  0  0  0  0  0  0  0
    9.7690  -16.3757   22.4098 C   0  0  1  0  0  0  0  0  0  0  0  0
   10.9499  -17.2955   22.5048 C   0  0  0  0  0  0  0  0  0  0  0  0
   11.2252  -17.8959   23.8325 C   0  0  0  0  0  0  0  0  0  0  0  0
   12.4779  -18.6607   23.8273 C   0  0  0  0  0  0  0  0  0  0  0  0
   13.5341  -18.1272   23.4445 O   0  0  0  0  0  0  0  0  0  0  0  0
    9.7199  -15.4329   23.5371 C   0  0  0  0  0  0  0  0  0  0  0  0
   10.4759  -14.4298   23.5101 O   0  0  0  0  0  0  0  0  0  0  0  0
   12.4810  -19.9713   24.2474 O   0  0  0  0  0  0  0  0  0  0  0  0
    6.5464  -11.8591   26.9022 C   0  0  0  0  0  0  0  0  0  0  0  0
    7.8203  -12.7246   26.9265 C   0  0  0  0  0  0  0  0  0  0  0  0
    7.7160  -13.7343   25.8187 C   0  0  2  0  0  0  0  0  0  0  0  0
    6.4041  -14.4862   25.8691 C   0  0  0  0  0  0  0  0  0  0  0  0
    8.9095  -14.6224   25.8009 C   0  0  2  0  0  0  0  0  0  0  0  0
    8.8788  -15.5607   24.6774 N   0  0  0  0  0  0  0  0  0  0  0  0
    9.1417  -15.4160   27.0183 C   0  0  0  0  0  0  0  0  0  0  0  0
    9.1683  -16.7951   27.0774 O   0  0  0  0  0  0  0  0  0  0  0  0
    9.3325  -14.8210   28.1070 O   0  0  0  0  0  0  0  0  0  0  0  0
  2  3  1  0
  2  1  1  6
  4  5  1  1
  4  2  1  0
  6  4  1  0
  7  6  2  0
  8  6  1  0
  9  8  1  0
  9 10  1  6
 11 10  1  0
 12 11  1  0
 13 12  2  0
 14  9  1  0
 14 22  1  0
 15 14  2  0
 16 12  1  0
 17 18  1  0
 19 18  1  0
 19 21  1  0
 19 20  1  1
 21 22  1  6
 21 23  1  0
 23 25  2  0
 23 24  1  0
M  END
$$$$
