TEI.pdb
     RDKit          3D

 25 24  0  0  1  0  0  0  0  0999 V2000
    9.1394  -12.4147   18.2554 C   0  0  0  0  0  0  0  0  0  0  0  0
    9.0344  -13.1198   19.5908 C   0  0  1  0  0  0  0  0  0  0  0  0
    8.6981  -12.2141   20.5656 O   0  0  0  0  0  0  0  0  0  0  0  0
    8.0683  -14.2862   19.5234 C   0  0  2  0  0  0  0  0  0  0  0  0
    6.7585  -13.7450   19.2260 N   0  0  0  0  0  0  0  0  0  0  0  0
    8.0376  -14.9341   20.8321 C   0  0  0  0  0  0  0  0  0  0  0  0
    7.2331  -14.5282   21.7068 O   0  0  0  0  0  0  0  0  0  0  0  0
    8.8775  -16.0253   21.2022 N   0  0  0  0  0  0  0  0  0  0  0  0
    8.8532  -16.6756   22.4887 C   0  0  1  0  0  0  0  0  0  0  0  0
    9.5989  -17.9757   22.5438 C   0  0  0  0  0  0  0  0  0  0  0  0
    9.5699  -18.7096   23.8320 C   0  0  0  0  0  0  0  0  0  0  0  0
   10.4327  -19.8964   23.7941 C   0  0  0  0  0  0  0  0  0  0  0  0
   11.4294  -19.9208   23.0508 O   0  0  0  0  0  0  0  0  0  0  0  0
    9.1896  -15.8052   23.6251 C   0  0  0  0  0  0  0  0  0  0  0  0
   10.2164  -15.0859   23.5429 O   0  0  0  0  0  0  0  0  0  0  0  0
   10.1357  -20.9836   24.5841 O   0  0  0  0  0  0  0  0  0  0  0  0
    6.1060  -12.2026   25.5183 C   0  0  0  0  0  0  0  0  0  0  0  0
    7.3002  -13.0805   25.0994 C   0  0  0  0  0  0  0  0  0  0  0  0
    7.7310  -13.8794   26.2968 C   0  0  2  0  0  0  0  0  0  0  0  0
    8.0665  -12.9881   27.4724 C   0  0  0  0  0  0  0  0  0  0  0  0
    8.8232  -14.8230   25.9358 C   0  0  2  0  0  0  0  0  0  0  0  0
    8.4429  -15.7065   24.8321 N   0  0  0  0  0  0  0  0  0  0  0  0
    9.3200  -15.6815   27.0229 C   0  0  0  0  0  0  0  0  0  0  0  0
   10.2873  -15.3249   27.9411 O   0  0  0  0  0  0  0  0  0  0  0  0
    8.8475  -16.8374   27.1515 O   0  0  0  0  0  0  0  0  0  0  0  0
  2  3  1  0
  2  1  1  6
  4  5  1  1
  4  2  1  0
  6  4  1  0
  7  6  2  0
  8  6  1  0
  9  8  1  0
  9 10  1  6
 11 10  1  0
 12 11  1  0
 13 12  2  0
 14  9  1  0
 14 22  1  0
 15 14  2  0
 16 12  1  0
 17 18  1  0
 19 18  1  0
 19 21  1  0
 19 20  1  1
 21 22  1  6
 21 23  1  0
 23 25  2  0
 23 24  1  0
M  END
$$$$
