TEI.pdb
     RDKit          3D

 25 24  0  0  1  0  0  0  0  0999 V2000
    8.3902  -12.4588   18.6105 C   0  0  0  0  0  0  0  0  0  0  0  0
    8.5623  -13.2204   19.9073 C   0  0  1  0  0  0  0  0  0  0  0  0
    7.8876  -12.5760   20.9139 O   0  0  0  0  0  0  0  0  0  0  0  0
    8.1369  -14.6677   19.7566 C   0  0  2  0  0  0  0  0  0  0  0  0
    6.7441  -14.6690   19.3604 N   0  0  0  0  0  0  0  0  0  0  0  0
    8.2705  -15.3238   21.0548 C   0  0  0  0  0  0  0  0  0  0  0  0
    7.2679  -15.4271   21.8041 O   0  0  0  0  0  0  0  0  0  0  0  0
    9.4901  -15.8721   21.5501 N   0  0  0  0  0  0  0  0  0  0  0  0
    9.6166  -16.5951   22.7909 C   0  0  1  0  0  0  0  0  0  0  0  0
   10.6412  -17.6902   22.7721 C   0  0  0  0  0  0  0  0  0  0  0  0
   10.5740  -18.6499   21.6437 C   0  0  0  0  0  0  0  0  0  0  0  0
   11.8749  -19.2842   21.3992 C   0  0  0  0  0  0  0  0  0  0  0  0
   12.4598  -19.1126   20.3152 O   0  0  0  0  0  0  0  0  0  0  0  0
    9.7447  -15.7487   23.9865 C   0  0  0  0  0  0  0  0  0  0  0  0
   10.7249  -14.9664   24.0621 O   0  0  0  0  0  0  0  0  0  0  0  0
   12.4465  -20.0704   22.3736 O   0  0  0  0  0  0  0  0  0  0  0  0
    6.2259  -12.4258   25.5778 C   0  0  0  0  0  0  0  0  0  0  0  0
    7.4719  -13.2751   25.2638 C   0  0  0  0  0  0  0  0  0  0  0  0
    7.8569  -14.0136   26.5143 C   0  0  2  0  0  0  0  0  0  0  0  0
    8.0444  -13.0727   27.6841 C   0  0  0  0  0  0  0  0  0  0  0  0
    9.0300  -14.8945   26.2664 C   0  0  2  0  0  0  0  0  0  0  0  0
    8.8419  -15.7399   25.0860 N   0  0  0  0  0  0  0  0  0  0  0  0
    9.4162  -15.7823   27.3747 C   0  0  0  0  0  0  0  0  0  0  0  0
   10.2525  -15.4373   28.4175 O   0  0  0  0  0  0  0  0  0  0  0  0
    8.9673  -16.9543   27.4020 O   0  0  0  0  0  0  0  0  0  0  0  0
  2  3  1  0
  2  1  1  6
  4  5  1  1
  4  2  1  0
  6  4  1  0
  7  6  2  0
  8  6  1  0
  9  8  1  0
  9 10  1  6
 11 10  1  0
 12 11  1  0
 13 12  2  0
 14  9  1  0
 14 22  1  0
 15 14  2  0
 16 12  1  0
 17 18  1  0
 19 18  1  0
 19 21  1  0
 19 20  1  1
 21 22  1  6
 21 23  1  0
 23 25  2  0
 23 24  1  0
M  END
$$$$
