TEI.pdb
     RDKit          3D

 25 24  0  0  1  0  0  0  0  0999 V2000
    8.8958  -12.4119   18.3847 C   0  0  0  0  0  0  0  0  0  0  0  0
    8.8420  -13.1355   19.7132 C   0  0  1  0  0  0  0  0  0  0  0  0
    8.3703  -12.2861   20.6825 O   0  0  0  0  0  0  0  0  0  0  0  0
    8.0290  -14.4112   19.6130 C   0  0  2  0  0  0  0  0  0  0  0  0
    6.6758  -14.0340   19.2618 N   0  0  0  0  0  0  0  0  0  0  0  0
    8.0257  -15.0585   20.9224 C   0  0  0  0  0  0  0  0  0  0  0  0
    7.1193  -14.7851   21.7475 O   0  0  0  0  0  0  0  0  0  0  0  0
    9.0035  -16.0055   21.3469 N   0  0  0  0  0  0  0  0  0  0  0  0
    9.0407  -16.6115   22.6545 C   0  0  1  0  0  0  0  0  0  0  0  0
    9.8834  -17.8490   22.7440 C   0  0  0  0  0  0  0  0  0  0  0  0
    9.8521  -18.5883   24.0290 C   0  0  0  0  0  0  0  0  0  0  0  0
   10.7064  -19.7809   23.9840 C   0  0  0  0  0  0  0  0  0  0  0  0
   10.5996  -20.5910   23.0464 O   0  0  0  0  0  0  0  0  0  0  0  0
    9.3207  -15.6800   23.7572 C   0  0  0  0  0  0  0  0  0  0  0  0
   10.3123  -14.9152   23.6556 O   0  0  0  0  0  0  0  0  0  0  0  0
   11.6271  -20.0011   24.9831 O   0  0  0  0  0  0  0  0  0  0  0  0
    5.8426  -12.3341   25.4753 C   0  0  0  0  0  0  0  0  0  0  0  0
    7.1322  -13.0832   25.0902 C   0  0  0  0  0  0  0  0  0  0  0  0
    7.6688  -13.7481   26.3260 C   0  0  2  0  0  0  0  0  0  0  0  0
    7.9259  -12.7483   27.4321 C   0  0  0  0  0  0  0  0  0  0  0  0
    8.8509  -14.5908   26.0003 C   0  0  2  0  0  0  0  0  0  0  0  0
    8.5556  -15.5688   24.9515 N   0  0  0  0  0  0  0  0  0  0  0  0
    9.4451  -15.3315   27.1246 C   0  0  0  0  0  0  0  0  0  0  0  0
   10.3263  -14.8057   28.0481 O   0  0  0  0  0  0  0  0  0  0  0  0
    9.1482  -16.5408   27.2830 O   0  0  0  0  0  0  0  0  0  0  0  0
  2  3  1  0
  2  1  1  6
  4  5  1  1
  4  2  1  0
  6  4  1  0
  7  6  2  0
  8  6  1  0
  9  8  1  0
  9 10  1  6
 11 10  1  0
 12 11  1  0
 13 12  2  0
 14  9  1  0
 14 22  1  0
 15 14  2  0
 16 12  1  0
 17 18  1  0
 19 18  1  0
 19 21  1  0
 19 20  1  1
 21 22  1  6
 21 23  1  0
 23 25  2  0
 23 24  1  0
M  END
$$$$
