TEI.pdb
     RDKit          3D

 25 24  0  0  1  0  0  0  0  0999 V2000
    8.7518  -12.5521   20.0880 C   0  0  0  0  0  0  0  0  0  0  0  0
    8.0197  -13.3523   19.0320 C   0  0  1  0  0  0  0  0  0  0  0  0
    8.1404  -12.7296   17.8149 O   0  0  0  0  0  0  0  0  0  0  0  0
    8.5000  -14.7900   18.9991 C   0  0  2  0  0  0  0  0  0  0  0  0
    7.7240  -15.4811   17.9906 N   0  0  0  0  0  0  0  0  0  0  0  0
    8.2405  -15.3914   20.3046 C   0  0  0  0  0  0  0  0  0  0  0  0
    7.0731  -15.7446   20.6042 O   0  0  0  0  0  0  0  0  0  0  0  0
    9.2428  -15.6143   21.2940 N   0  0  0  0  0  0  0  0  0  0  0  0
    9.0201  -16.2990   22.5430 C   0  0  1  0  0  0  0  0  0  0  0  0
    9.6209  -17.6713   22.6169 C   0  0  0  0  0  0  0  0  0  0  0  0
   10.8107  -17.9272   21.7696 C   0  0  0  0  0  0  0  0  0  0  0  0
   11.3310  -19.2850   21.9695 C   0  0  0  0  0  0  0  0  0  0  0  0
   12.2287  -19.7254   21.2301 O   0  0  0  0  0  0  0  0  0  0  0  0
    9.3237  -15.5053   23.7430 C   0  0  0  0  0  0  0  0  0  0  0  0
   10.4256  -14.9043   23.7985 O   0  0  0  0  0  0  0  0  0  0  0  0
   10.8222  -20.0709   22.9785 O   0  0  0  0  0  0  0  0  0  0  0  0
    5.7852  -12.2497   25.7491 C   0  0  0  0  0  0  0  0  0  0  0  0
    7.0225  -13.0238   25.2570 C   0  0  0  0  0  0  0  0  0  0  0  0
    7.6716  -13.6671   26.4495 C   0  0  2  0  0  0  0  0  0  0  0  0
    8.0491  -12.6454   27.4997 C   0  0  0  0  0  0  0  0  0  0  0  0
    8.8056  -14.5336   26.0290 C   0  0  2  0  0  0  0  0  0  0  0  0
    8.4653  -15.3580   24.8680 N   0  0  0  0  0  0  0  0  0  0  0  0
    9.3419  -15.4391   27.0576 C   0  0  0  0  0  0  0  0  0  0  0  0
   10.2968  -15.1023   27.9962 O   0  0  0  0  0  0  0  0  0  0  0  0
    8.9189  -16.6198   27.1113 O   0  0  0  0  0  0  0  0  0  0  0  0
  2  3  1  0
  2  1  1  1
  4  5  1  6
  4  2  1  0
  6  4  1  0
  7  6  2  0
  8  6  1  0
  9  8  1  0
  9 10  1  6
 11 10  1  0
 12 11  1  0
 13 12  2  0
 14  9  1  0
 14 22  1  0
 15 14  2  0
 16 12  1  0
 17 18  1  0
 19 18  1  0
 19 21  1  0
 19 20  1  1
 21 22  1  6
 21 23  1  0
 23 25  2  0
 23 24  1  0
M  END
$$$$
