WVA.pdb
     RDKit          3D

 27 28  0  0  1  0  0  0  0  0999 V2000
    6.2124  -18.3065   24.3789 N   0  0  0  0  0  0  0  0  0  0  0  0
    6.6071  -16.9437   24.1393 C   0  0  1  0  0  0  0  0  0  0  0  0
    7.4200  -16.3056   25.2113 C   0  0  0  0  0  0  0  0  0  0  0  0
    6.7018  -15.1661   25.7999 C   0  0  0  0  0  0  0  0  0  0  0  0
    5.4114  -15.1895   26.2738 C   0  0  0  0  0  0  0  0  0  0  0  0
    5.1285  -13.9796   26.7562 N   0  0  0  0  0  0  0  0  0  0  0  0
    6.2137  -13.1734   26.6021 C   0  0  0  0  0  0  0  0  0  0  0  0
    6.4450  -11.8566   26.9160 C   0  0  0  0  0  0  0  0  0  0  0  0
    7.6741  -11.3035   26.6180 C   0  0  0  0  0  0  0  0  0  0  0  0
    8.6752  -12.0194   26.0194 C   0  0  0  0  0  0  0  0  0  0  0  0
    8.4421  -13.3578   25.7001 C   0  0  0  0  0  0  0  0  0  0  0  0
    7.2108  -13.9062   26.0013 C   0  0  0  0  0  0  0  0  0  0  0  0
    7.4035  -16.8665   22.8730 C   0  0  0  0  0  0  0  0  0  0  0  0
    7.7153  -17.9107   22.2478 O   0  0  0  0  0  0  0  0  0  0  0  0
    8.7993  -13.0957   21.1062 C   0  0  0  0  0  0  0  0  0  0  0  0
    8.2084  -14.2569   20.3622 C   0  0  2  0  0  0  0  0  0  0  0  0
    6.7148  -13.9363   20.1964 C   0  0  0  0  0  0  0  0  0  0  0  0
    8.4179  -15.5957   20.9886 C   0  0  2  0  0  0  0  0  0  0  0  0
    7.8319  -15.6267   22.3375 N   0  0  0  0  0  0  0  0  0  0  0  0
    9.8659  -15.8114   21.2104 C   0  0  0  0  0  0  0  0  0  0  0  0
   10.6730  -15.7760   20.2167 O   0  0  0  0  0  0  0  0  0  0  0  0
   12.4585  -15.8042   23.8859 C   0  0  0  0  0  0  0  0  0  0  0  0
   11.9123  -16.2578   22.5465 C   0  0  2  0  0  0  0  0  0  0  0  0
   10.4859  -16.0603   22.4593 N   0  0  0  0  0  0  0  0  0  0  0  0
   12.2334  -17.6569   22.2527 C   0  0  0  0  0  0  0  0  0  0  0  0
   11.3121  -18.4803   22.0637 O   0  0  0  0  0  0  0  0  0  0  0  0
   13.5382  -18.0752   22.1824 O   0  0  0  0  0  0  0  0  0  0  0  0
  2  1  1  1
  3  4  1  0
  3  2  1  0
  4  5  2  0
  6  5  1  0
  7  6  1  0
  8  7  2  0
  9  8  1  0
 10  9  2  0
 10 11  1  0
 11 12  2  0
 12  7  1  0
 12  4  1  0
 13  2  1  0
 13 14  2  0
 16 15  1  1
 16 17  1  0
 16 18  1  0
 18 19  1  1
 19 13  1  0
 20 18  1  0
 21 20  2  0
 23 22  1  1
 23 24  1  0
 23 25  1  0
 24 20  1  0
 25 27  1  0
 26 25  2  0
M  END
$$$$
