WVA.pdb
     RDKit          3D

 27 28  0  0  1  0  0  0  0  0999 V2000
    6.3487  -18.6165   24.6617 N   0  0  0  0  0  0  0  0  0  0  0  0
    6.5957  -17.2138   24.4567 C   0  0  1  0  0  0  0  0  0  0  0  0
    7.4179  -16.5406   25.4999 C   0  0  0  0  0  0  0  0  0  0  0  0
    6.7540  -15.3190   25.9769 C   0  0  0  0  0  0  0  0  0  0  0  0
    5.4433  -15.2239   26.3812 C   0  0  0  0  0  0  0  0  0  0  0  0
    5.2234  -13.9685   26.7715 N   0  0  0  0  0  0  0  0  0  0  0  0
    6.3693  -13.2494   26.6261 C   0  0  0  0  0  0  0  0  0  0  0  0
    6.6774  -11.9334   26.8693 C   0  0  0  0  0  0  0  0  0  0  0  0
    7.9558  -11.4853   26.6040 C   0  0  0  0  0  0  0  0  0  0  0  0
    8.9320  -12.3051   26.1059 C   0  0  0  0  0  0  0  0  0  0  0  0
    8.6208  -13.6427   25.8585 C   0  0  0  0  0  0  0  0  0  0  0  0
    7.3404  -14.0857   26.1266 C   0  0  0  0  0  0  0  0  0  0  0  0
    7.2911  -17.0125   23.1453 C   0  0  0  0  0  0  0  0  0  0  0  0
    7.7238  -17.9948   22.4925 O   0  0  0  0  0  0  0  0  0  0  0  0
    8.2051  -13.9566   19.3030 C   0  0  0  0  0  0  0  0  0  0  0  0
    7.6398  -14.2561   20.6601 C   0  0  2  0  0  0  0  0  0  0  0  0
    8.1217  -13.1220   21.5780 C   0  0  0  0  0  0  0  0  0  0  0  0
    7.9818  -15.5982   21.2172 C   0  0  2  0  0  0  0  0  0  0  0  0
    7.4862  -15.7208   22.5968 N   0  0  0  0  0  0  0  0  0  0  0  0
    9.4525  -15.7164   21.3418 C   0  0  0  0  0  0  0  0  0  0  0  0
   10.1872  -15.6351   20.2960 O   0  0  0  0  0  0  0  0  0  0  0  0
   12.2440  -15.3086   23.6966 C   0  0  0  0  0  0  0  0  0  0  0  0
   11.6065  -16.0455   22.5353 C   0  0  2  0  0  0  0  0  0  0  0  0
   10.1698  -15.9150   22.5469 N   0  0  0  0  0  0  0  0  0  0  0  0
   11.9706  -17.4644   22.5014 C   0  0  0  0  0  0  0  0  0  0  0  0
   13.1721  -17.7964   22.4079 O   0  0  0  0  0  0  0  0  0  0  0  0
   11.0047  -18.4363   22.5715 O   0  0  0  0  0  0  0  0  0  0  0  0
  2  1  1  1
  3  4  1  0
  3  2  1  0
  4  5  2  0
  6  5  1  0
  7  6  1  0
  8  7  2  0
  9  8  1  0
 10  9  2  0
 10 11  1  0
 11 12  2  0
 12  7  1  0
 12  4  1  0
 13  2  1  0
 13 14  2  0
 16 15  1  6
 16 17  1  0
 16 18  1  0
 18 19  1  1
 19 13  1  0
 20 18  1  0
 21 20  2  0
 23 22  1  1
 23 24  1  0
 23 25  1  0
 24 20  1  0
 25 27  1  0
 26 25  2  0
M  END
$$$$
