WVA.pdb
     RDKit          3D

 27 28  0  0  1  0  0  0  0  0999 V2000
    5.5411  -18.3201   24.5204 N   0  0  0  0  0  0  0  0  0  0  0  0
    6.2437  -17.0655   24.4706 C   0  0  1  0  0  0  0  0  0  0  0  0
    6.9600  -16.6730   25.7157 C   0  0  0  0  0  0  0  0  0  0  0  0
    6.4830  -15.3702   26.2014 C   0  0  0  0  0  0  0  0  0  0  0  0
    5.2186  -15.1031   26.6705 C   0  0  0  0  0  0  0  0  0  0  0  0
    5.1809  -13.8247   27.0460 N   0  0  0  0  0  0  0  0  0  0  0  0
    6.3993  -13.2598   26.8272 C   0  0  0  0  0  0  0  0  0  0  0  0
    6.8845  -11.9908   27.0275 C   0  0  0  0  0  0  0  0  0  0  0  0
    8.1933  -11.7134   26.6878 C   0  0  0  0  0  0  0  0  0  0  0  0
    9.0294  -12.6578   26.1568 C   0  0  0  0  0  0  0  0  0  0  0  0
    8.5383  -13.9480   25.9530 C   0  0  0  0  0  0  0  0  0  0  0  0
    7.2282  -14.2201   26.2955 C   0  0  0  0  0  0  0  0  0  0  0  0
    7.2571  -17.1006   23.3680 C   0  0  0  0  0  0  0  0  0  0  0  0
    7.8225  -18.1770   23.0519 O   0  0  0  0  0  0  0  0  0  0  0  0
    8.8981  -13.5623   21.3715 C   0  0  0  0  0  0  0  0  0  0  0  0
    8.4579  -14.8089   20.6621 C   0  0  2  0  0  0  0  0  0  0  0  0
    7.0442  -14.5179   20.1350 C   0  0  0  0  0  0  0  0  0  0  0  0
    8.4953  -16.0595   21.4764 C   0  0  2  0  0  0  0  0  0  0  0  0
    7.6138  -15.9340   22.6474 N   0  0  0  0  0  0  0  0  0  0  0  0
    9.8494  -16.2297   22.0506 C   0  0  0  0  0  0  0  0  0  0  0  0
   10.2402  -15.4591   22.9959 O   0  0  0  0  0  0  0  0  0  0  0  0
   12.7342  -18.6232   22.1370 C   0  0  0  0  0  0  0  0  0  0  0  0
   12.1017  -17.2530   22.2798 C   0  0  2  0  0  0  0  0  0  0  0  0
   10.8031  -17.1988   21.6537 N   0  0  0  0  0  0  0  0  0  0  0  0
   12.9495  -16.1837   21.7462 C   0  0  0  0  0  0  0  0  0  0  0  0
   12.7189  -15.7150   20.6106 O   0  0  0  0  0  0  0  0  0  0  0  0
   13.9971  -15.6890   22.4812 O   0  0  0  0  0  0  0  0  0  0  0  0
  2  1  1  1
  3  4  1  0
  3  2  1  0
  4  5  2  0
  6  5  1  0
  7  6  1  0
  8  7  2  0
  9  8  1  0
 10  9  2  0
 10 11  1  0
 11 12  2  0
 12  7  1  0
 12  4  1  0
 13  2  1  0
 13 14  2  0
 16 15  1  1
 16 17  1  0
 16 18  1  0
 18 19  1  1
 19 13  1  0
 20 18  1  0
 21 20  2  0
 23 22  1  6
 23 24  1  0
 23 25  1  0
 24 20  1  0
 25 27  1  0
 26 25  2  0
M  END
$$$$
