WVA.pdb
     RDKit          3D

 27 28  0  0  1  0  0  0  0  0999 V2000
    6.3380  -18.7362   24.9205 N   0  0  0  0  0  0  0  0  0  0  0  0
    6.6520  -17.3413   24.7591 C   0  0  1  0  0  0  0  0  0  0  0  0
    7.4601  -16.7278   25.8489 C   0  0  0  0  0  0  0  0  0  0  0  0
    6.9259  -15.4074   26.2122 C   0  0  0  0  0  0  0  0  0  0  0  0
    5.6143  -15.1286   26.5157 C   0  0  0  0  0  0  0  0  0  0  0  0
    5.5294  -13.8343   26.8227 N   0  0  0  0  0  0  0  0  0  0  0  0
    6.7637  -13.2706   26.7224 C   0  0  0  0  0  0  0  0  0  0  0  0
    7.2188  -11.9897   26.9177 C   0  0  0  0  0  0  0  0  0  0  0  0
    8.5580  -11.7181   26.7218 C   0  0  0  0  0  0  0  0  0  0  0  0
    9.4533  -12.6797   26.3388 C   0  0  0  0  0  0  0  0  0  0  0  0
    8.9927  -13.9820   26.1403 C   0  0  0  0  0  0  0  0  0  0  0  0
    7.6520  -14.2481   26.3386 C   0  0  0  0  0  0  0  0  0  0  0  0
    7.4064  -17.1408   23.4806 C   0  0  0  0  0  0  0  0  0  0  0  0
    7.8899  -18.1214   22.8617 O   0  0  0  0  0  0  0  0  0  0  0  0
    6.4321  -14.2912   20.5561 C   0  0  0  0  0  0  0  0  0  0  0  0
    7.8676  -14.4296   20.9699 C   0  0  2  0  0  0  0  0  0  0  0  0
    8.6992  -14.1609   19.7061 C   0  0  0  0  0  0  0  0  0  0  0  0
    8.2319  -15.7319   21.6022 C   0  0  2  0  0  0  0  0  0  0  0  0
    7.6023  -15.8517   22.9262 N   0  0  0  0  0  0  0  0  0  0  0  0
    9.6858  -15.7506   21.8820 C   0  0  0  0  0  0  0  0  0  0  0  0
   10.5200  -15.7376   20.9105 O   0  0  0  0  0  0  0  0  0  0  0  0
   12.1453  -14.8813   24.4772 C   0  0  0  0  0  0  0  0  0  0  0  0
   11.7183  -15.7502   23.3108 C   0  0  2  0  0  0  0  0  0  0  0  0
   10.2832  -15.7787   23.1660 N   0  0  0  0  0  0  0  0  0  0  0  0
   12.2290  -17.1198   23.4131 C   0  0  0  0  0  0  0  0  0  0  0  0
   12.3990  -17.6381   24.5378 O   0  0  0  0  0  0  0  0  0  0  0  0
   12.5236  -17.8426   22.2847 O   0  0  0  0  0  0  0  0  0  0  0  0
  2  1  1  1
  3  4  1  0
  3  2  1  0
  4  5  2  0
  6  5  1  0
  7  6  1  0
  8  7  2  0
  9  8  1  0
 10  9  2  0
 10 11  1  0
 11 12  2  0
 12  7  1  0
 12  4  1  0
 13  2  1  0
 13 14  2  0
 16 15  1  6
 16 17  1  0
 16 18  1  0
 18 19  1  1
 19 13  1  0
 20 18  1  0
 21 20  2  0
 23 22  1  1
 23 24  1  0
 23 25  1  0
 24 20  1  0
 25 27  1  0
 26 25  2  0
M  END
$$$$
