WVA.pdb
     RDKit          3D

 27 28  0  0  1  0  0  0  0  0999 V2000
    6.2049  -18.8933   24.9321 N   0  0  0  0  0  0  0  0  0  0  0  0
    6.5386  -17.5030   24.7700 C   0  0  1  0  0  0  0  0  0  0  0  0
    7.1731  -16.8466   25.9464 C   0  0  0  0  0  0  0  0  0  0  0  0
    6.6324  -15.4938   26.1414 C   0  0  0  0  0  0  0  0  0  0  0  0
    5.2990  -15.1611   26.1827 C   0  0  0  0  0  0  0  0  0  0  0  0
    5.2090  -13.8502   26.4069 N   0  0  0  0  0  0  0  0  0  0  0  0
    6.4615  -13.3289   26.5109 C   0  0  0  0  0  0  0  0  0  0  0  0
    6.9218  -12.0531   26.7265 C   0  0  0  0  0  0  0  0  0  0  0  0
    8.2836  -11.8314   26.7698 C   0  0  0  0  0  0  0  0  0  0  0  0
    9.1964  -12.8378   26.6056 C   0  0  0  0  0  0  0  0  0  0  0  0
    8.7304  -14.1349   26.3869 C   0  0  0  0  0  0  0  0  0  0  0  0
    7.3669  -14.3510   26.3453 C   0  0  0  0  0  0  0  0  0  0  0  0
    7.4767  -17.3430   23.6132 C   0  0  0  0  0  0  0  0  0  0  0  0
    7.8975  -18.3471   22.9863 O   0  0  0  0  0  0  0  0  0  0  0  0
    6.7144  -13.9574   21.3688 C   0  0  0  0  0  0  0  0  0  0  0  0
    8.1303  -14.4536   21.3774 C   0  0  2  0  0  0  0  0  0  0  0  0
    8.6787  -14.1898   19.9665 C   0  0  0  0  0  0  0  0  0  0  0  0
    8.3094  -15.8800   21.7799 C   0  0  2  0  0  0  0  0  0  0  0  0
    7.9213  -16.0672   23.1863 N   0  0  0  0  0  0  0  0  0  0  0  0
    9.7498  -16.2212   21.7461 C   0  0  0  0  0  0  0  0  0  0  0  0
   10.4125  -16.0732   20.6603 O   0  0  0  0  0  0  0  0  0  0  0  0
   12.5591  -15.4520   22.3745 C   0  0  0  0  0  0  0  0  0  0  0  0
   11.9500  -16.7881   22.7510 C   0  0  2  0  0  0  0  0  0  0  0  0
   10.5118  -16.7124   22.8343 N   0  0  0  0  0  0  0  0  0  0  0  0
   12.4877  -17.3175   24.0071 C   0  0  0  0  0  0  0  0  0  0  0  0
   12.1919  -16.7691   25.0907 O   0  0  0  0  0  0  0  0  0  0  0  0
   13.3149  -18.4121   24.0076 O   0  0  0  0  0  0  0  0  0  0  0  0
  2  1  1  1
  3  4  1  0
  3  2  1  0
  4  5  2  0
  6  5  1  0
  7  6  1  0
  8  7  2  0
  9  8  1  0
 10  9  2  0
 10 11  1  0
 11 12  2  0
 12  7  1  0
 12  4  1  0
 13  2  1  0
 13 14  2  0
 16 15  1  6
 16 17  1  0
 16 18  1  0
 18 19  1  1
 19 13  1  0
 20 18  1  0
 21 20  2  0
 23 22  1  1
 23 24  1  0
 23 25  1  0
 24 20  1  0
 25 27  1  0
 26 25  2  0
M  END
$$$$
