WVA.pdb
     RDKit          3D

 27 28  0  0  1  0  0  0  0  0999 V2000
    6.0273  -18.2898   24.0755 N   0  0  0  0  0  0  0  0  0  0  0  0
    6.4416  -16.9141   23.9983 C   0  0  1  0  0  0  0  0  0  0  0  0
    7.3776  -16.4576   25.0627 C   0  0  0  0  0  0  0  0  0  0  0  0
    6.7790  -15.3703   25.8503 C   0  0  0  0  0  0  0  0  0  0  0  0
    5.7339  -15.5013   26.7339 C   0  0  0  0  0  0  0  0  0  0  0  0
    5.4991  -14.3052   27.2732 N   0  0  0  0  0  0  0  0  0  0  0  0
    6.3741  -13.4023   26.7532 C   0  0  0  0  0  0  0  0  0  0  0  0
    6.5518  -12.0561   26.9586 C   0  0  0  0  0  0  0  0  0  0  0  0
    7.5407  -11.3968   26.2566 C   0  0  0  0  0  0  0  0  0  0  0  0
    8.3541  -12.0353   25.3602 C   0  0  0  0  0  0  0  0  0  0  0  0
    8.1753  -13.4033   25.1504 C   0  0  0  0  0  0  0  0  0  0  0  0
    7.1849  -14.0579   25.8562 C   0  0  0  0  0  0  0  0  0  0  0  0
    7.1111  -16.6641   22.6818 C   0  0  0  0  0  0  0  0  0  0  0  0
    7.6241  -17.6105   22.0343 O   0  0  0  0  0  0  0  0  0  0  0  0
    8.0861  -13.5267   18.9106 C   0  0  0  0  0  0  0  0  0  0  0  0
    7.4919  -13.8369   20.2528 C   0  0  2  0  0  0  0  0  0  0  0  0
    7.9857  -12.7314   21.1990 C   0  0  0  0  0  0  0  0  0  0  0  0
    7.7929  -15.1967   20.7906 C   0  0  2  0  0  0  0  0  0  0  0  0
    7.1913  -15.3648   22.1223 N   0  0  0  0  0  0  0  0  0  0  0  0
    9.2496  -15.3188   21.0258 C   0  0  0  0  0  0  0  0  0  0  0  0
   10.0624  -15.2251   20.0405 O   0  0  0  0  0  0  0  0  0  0  0  0
   11.8094  -15.2933   23.7567 C   0  0  0  0  0  0  0  0  0  0  0  0
   11.3058  -15.6661   22.3764 C   0  0  2  0  0  0  0  0  0  0  0  0
    9.8724  -15.5341   22.2796 N   0  0  0  0  0  0  0  0  0  0  0  0
   11.7024  -17.0196   21.9795 C   0  0  0  0  0  0  0  0  0  0  0  0
   10.8306  -17.8996   21.8121 O   0  0  0  0  0  0  0  0  0  0  0  0
   13.0244  -17.3334   21.7885 O   0  0  0  0  0  0  0  0  0  0  0  0
  2  1  1  1
  3  4  1  0
  3  2  1  0
  4  5  2  0
  6  5  1  0
  7  6  1  0
  8  7  2  0
  9  8  1  0
 10  9  2  0
 10 11  1  0
 11 12  2  0
 12  7  1  0
 12  4  1  0
 13  2  1  0
 13 14  2  0
 16 15  1  6
 16 17  1  0
 16 18  1  0
 18 19  1  1
 19 13  1  0
 20 18  1  0
 21 20  2  0
 23 22  1  1
 23 24  1  0
 23 25  1  0
 24 20  1  0
 25 27  1  0
 26 25  2  0
M  END
$$$$
