WVA.pdb
     RDKit          3D

 27 28  0  0  1  0  0  0  0  0999 V2000
    6.7423  -17.2263   25.2393 N   0  0  0  0  0  0  0  0  0  0  0  0
    7.2416  -15.9848   24.7103 C   0  0  1  0  0  0  0  0  0  0  0  0
    8.4759  -15.4553   25.3531 C   0  0  0  0  0  0  0  0  0  0  0  0
    8.1436  -14.6791   26.5564 C   0  0  0  0  0  0  0  0  0  0  0  0
    8.4798  -15.0157   27.8463 C   0  0  0  0  0  0  0  0  0  0  0  0
    8.0328  -14.0528   28.6524 N   0  0  0  0  0  0  0  0  0  0  0  0
    7.4125  -13.0991   27.9061 C   0  0  0  0  0  0  0  0  0  0  0  0
    6.7821  -11.9248   28.2369 C   0  0  0  0  0  0  0  0  0  0  0  0
    6.2253  -11.1582   27.2330 C   0  0  0  0  0  0  0  0  0  0  0  0
    6.2773  -11.5247   25.9155 C   0  0  0  0  0  0  0  0  0  0  0  0
    6.9179  -12.7175   25.5773 C   0  0  0  0  0  0  0  0  0  0  0  0
    7.4739  -13.4800   26.5858 C   0  0  0  0  0  0  0  0  0  0  0  0
    7.5346  -16.1426   23.2498 C   0  0  0  0  0  0  0  0  0  0  0  0
    7.3306  -17.2386   22.6705 O   0  0  0  0  0  0  0  0  0  0  0  0
    6.8978  -13.0892   20.5424 C   0  0  0  0  0  0  0  0  0  0  0  0
    8.1418  -13.9038   20.3429 C   0  0  2  0  0  0  0  0  0  0  0  0
    8.3213  -14.0351   18.8225 C   0  0  0  0  0  0  0  0  0  0  0  0
    8.1527  -15.2364   21.0156 C   0  0  2  0  0  0  0  0  0  0  0  0
    8.0482  -15.0742   22.4739 N   0  0  0  0  0  0  0  0  0  0  0  0
    9.4710  -15.8782   20.8095 C   0  0  0  0  0  0  0  0  0  0  0  0
    9.7605  -16.3829   19.6686 O   0  0  0  0  0  0  0  0  0  0  0  0
   12.9347  -15.9817   21.9953 C   0  0  0  0  0  0  0  0  0  0  0  0
   11.7118  -16.7152   21.4808 C   0  0  2  0  0  0  0  0  0  0  0  0
   10.4964  -15.9977   21.7793 N   0  0  0  0  0  0  0  0  0  0  0  0
   11.6157  -18.0819   22.0005 C   0  0  0  0  0  0  0  0  0  0  0  0
   10.5923  -18.4407   22.6221 O   0  0  0  0  0  0  0  0  0  0  0  0
   12.6396  -18.9755   21.8119 O   0  0  0  0  0  0  0  0  0  0  0  0
  2  1  1  1
  3  4  1  0
  3  2  1  0
  4  5  2  0
  6  5  1  0
  7  6  1  0
  8  7  2  0
  9  8  1  0
 10  9  2  0
 10 11  1  0
 11 12  2  0
 12  7  1  0
 12  4  1  0
 13  2  1  0
 13 14  2  0
 16 15  1  6
 16 17  1  0
 16 18  1  0
 18 19  1  1
 19 13  1  0
 20 18  1  0
 21 20  2  0
 23 22  1  1
 23 24  1  0
 23 25  1  0
 24 20  1  0
 25 27  1  0
 26 25  2  0
M  END
$$$$
