WVA.pdb
     RDKit          3D

 27 28  0  0  1  0  0  0  0  0999 V2000
   10.7204  -16.2013   21.8634 N   0  0  0  0  0  0  0  0  0  0  0  0
    9.6854  -15.7709   22.7655 C   0  0  1  0  0  0  0  0  0  0  0  0
    8.4174  -16.5502   22.7175 C   0  0  0  0  0  0  0  0  0  0  0  0
    7.4325  -15.8877   21.8505 C   0  0  0  0  0  0  0  0  0  0  0  0
    6.1965  -16.3868   21.5132 C   0  0  0  0  0  0  0  0  0  0  0  0
    5.5867  -15.4875   20.7412 N   0  0  0  0  0  0  0  0  0  0  0  0
    6.4071  -14.4152   20.5727 C   0  0  0  0  0  0  0  0  0  0  0  0
    6.2697  -13.2410   19.8739 C   0  0  0  0  0  0  0  0  0  0  0  0
    7.3074  -12.3308   19.8841 C   0  0  0  0  0  0  0  0  0  0  0  0
    8.4726  -12.5541   20.5663 C   0  0  0  0  0  0  0  0  0  0  0  0
    8.6138  -13.7466   21.2773 C   0  0  0  0  0  0  0  0  0  0  0  0
    7.5720  -14.6532   21.2642 C   0  0  0  0  0  0  0  0  0  0  0  0
   10.1901  -15.8311   24.1746 C   0  0  0  0  0  0  0  0  0  0  0  0
   11.2967  -16.3650   24.4362 O   0  0  0  0  0  0  0  0  0  0  0  0
    9.1883  -12.8939   26.9715 C   0  0  0  0  0  0  0  0  0  0  0  0
    9.3077  -14.3031   27.4725 C   0  0  2  0  0  0  0  0  0  0  0  0
    9.9432  -14.2028   28.8679 C   0  0  0  0  0  0  0  0  0  0  0  0
   10.0651  -15.2378   26.5886 C   0  0  2  0  0  0  0  0  0  0  0  0
    9.4468  -15.2948   25.2551 N   0  0  0  0  0  0  0  0  0  0  0  0
    9.9397  -16.6170   27.1125 C   0  0  0  0  0  0  0  0  0  0  0  0
    8.7788  -17.1367   27.2619 O   0  0  0  0  0  0  0  0  0  0  0  0
   11.7842  -19.7874   27.5527 C   0  0  0  0  0  0  0  0  0  0  0  0
   10.7598  -18.7761   28.0279 C   0  0  2  0  0  0  0  0  0  0  0  0
   11.0125  -17.4656   27.4802 N   0  0  0  0  0  0  0  0  0  0  0  0
   10.6879  -18.6923   29.4890 C   0  0  0  0  0  0  0  0  0  0  0  0
   11.0124  -17.6333   30.0683 O   0  0  0  0  0  0  0  0  0  0  0  0
   10.2667  -19.7667   30.2313 O   0  0  0  0  0  0  0  0  0  0  0  0
  2  1  1  6
  3  4  1  0
  3  2  1  0
  4  5  2  0
  6  5  1  0
  7  6  1  0
  8  7  2  0
  9  8  1  0
 10  9  2  0
 10 11  1  0
 11 12  2  0
 12  7  1  0
 12  4  1  0
 13  2  1  0
 13 14  2  0
 16 15  1  6
 16 17  1  0
 16 18  1  0
 18 19  1  6
 19 13  1  0
 20 18  1  0
 21 20  2  0
 23 22  1  1
 23 24  1  0
 23 25  1  0
 24 20  1  0
 25 27  1  0
 26 25  2  0
M  END
$$$$
