WVA.pdb
     RDKit          3D

 27 28  0  0  1  0  0  0  0  0999 V2000
    6.2961  -18.4930   25.2902 N   0  0  0  0  0  0  0  0  0  0  0  0
    6.6758  -17.1343   25.0075 C   0  0  1  0  0  0  0  0  0  0  0  0
    7.4119  -16.4272   26.0917 C   0  0  0  0  0  0  0  0  0  0  0  0
    6.7530  -15.1560   26.4241 C   0  0  0  0  0  0  0  0  0  0  0  0
    5.4277  -15.0023   26.7565 C   0  0  0  0  0  0  0  0  0  0  0  0
    5.2168  -13.7129   27.0202 N   0  0  0  0  0  0  0  0  0  0  0  0
    6.3829  -13.0294   26.8637 C   0  0  0  0  0  0  0  0  0  0  0  0
    6.7073  -11.7020   27.0003 C   0  0  0  0  0  0  0  0  0  0  0  0
    8.0054  -11.3016   26.7554 C   0  0  0  0  0  0  0  0  0  0  0  0
    8.9856  -12.1799   26.3799 C   0  0  0  0  0  0  0  0  0  0  0  0
    8.6579  -13.5292   26.2410 C   0  0  0  0  0  0  0  0  0  0  0  0
    7.3577  -13.9242   26.4882 C   0  0  0  0  0  0  0  0  0  0  0  0
    7.5427  -17.0986   23.7863 C   0  0  0  0  0  0  0  0  0  0  0  0
    7.9936  -18.1609   23.2898 O   0  0  0  0  0  0  0  0  0  0  0  0
    6.9480  -14.3108   20.8105 C   0  0  0  0  0  0  0  0  0  0  0  0
    8.3787  -14.6475   21.1121 C   0  0  2  0  0  0  0  0  0  0  0  0
    9.1042  -14.6598   19.7576 C   0  0  0  0  0  0  0  0  0  0  0  0
    8.5954  -15.9186   21.8643 C   0  0  2  0  0  0  0  0  0  0  0  0
    7.8845  -15.8790   23.1514 N   0  0  0  0  0  0  0  0  0  0  0  0
   10.0244  -16.0304   22.2355 C   0  0  0  0  0  0  0  0  0  0  0  0
   10.6505  -15.0010   22.6697 O   0  0  0  0  0  0  0  0  0  0  0  0
   12.6796  -18.5586   22.9825 C   0  0  0  0  0  0  0  0  0  0  0  0
   12.2007  -17.1870   22.5498 C   0  0  2  0  0  0  0  0  0  0  0  0
   10.8108  -17.2063   22.1635 N   0  0  0  0  0  0  0  0  0  0  0  0
   13.0056  -16.6279   21.4605 C   0  0  0  0  0  0  0  0  0  0  0  0
   12.5943  -16.7004   20.2824 O   0  0  0  0  0  0  0  0  0  0  0  0
   14.2097  -16.0234   21.7197 O   0  0  0  0  0  0  0  0  0  0  0  0
  2  1  1  1
  3  4  1  0
  3  2  1  0
  4  5  2  0
  6  5  1  0
  7  6  1  0
  8  7  2  0
  9  8  1  0
 10  9  2  0
 10 11  1  0
 11 12  2  0
 12  7  1  0
 12  4  1  0
 13  2  1  0
 13 14  2  0
 16 15  1  6
 16 17  1  0
 16 18  1  0
 18 19  1  1
 19 13  1  0
 20 18  1  0
 21 20  2  0
 23 22  1  6
 23 24  1  0
 23 25  1  0
 24 20  1  0
 25 27  1  0
 26 25  2  0
M  END
$$$$
