WVA.pdb
     RDKit          3D

 27 28  0  0  1  0  0  0  0  0999 V2000
    5.9550  -17.8308   24.3827 N   0  0  0  0  0  0  0  0  0  0  0  0
    6.5999  -16.5709   24.1238 C   0  0  1  0  0  0  0  0  0  0  0  0
    7.6085  -16.1392   25.1306 C   0  0  0  0  0  0  0  0  0  0  0  0
    7.0358  -15.1416   26.0456 C   0  0  0  0  0  0  0  0  0  0  0  0
    6.0976  -15.3912   27.0191 C   0  0  0  0  0  0  0  0  0  0  0  0
    5.8540  -14.2472   27.6585 N   0  0  0  0  0  0  0  0  0  0  0  0
    6.6182  -13.2614   27.1149 C   0  0  0  0  0  0  0  0  0  0  0  0
    6.7411  -11.9219   27.3914 C   0  0  0  0  0  0  0  0  0  0  0  0
    7.6130  -11.1605   26.6393 C   0  0  0  0  0  0  0  0  0  0  0  0
    8.3627  -11.6911   25.6247 C   0  0  0  0  0  0  0  0  0  0  0  0
    8.2395  -13.0522   25.3426 C   0  0  0  0  0  0  0  0  0  0  0  0
    7.3662  -13.8092   26.0988 C   0  0  0  0  0  0  0  0  0  0  0  0
    7.2926  -16.6245   22.7966 C   0  0  0  0  0  0  0  0  0  0  0  0
    7.6135  -17.7264   22.2857 O   0  0  0  0  0  0  0  0  0  0  0  0
    6.7657  -13.7983   19.7100 C   0  0  0  0  0  0  0  0  0  0  0  0
    8.1554  -14.2759   20.0131 C   0  0  2  0  0  0  0  0  0  0  0  0
    8.8823  -14.3454   18.6611 C   0  0  0  0  0  0  0  0  0  0  0  0
    8.2437  -15.5696   20.7527 C   0  0  2  0  0  0  0  0  0  0  0  0
    7.6098  -15.4475   22.0745 N   0  0  0  0  0  0  0  0  0  0  0  0
    9.6632  -15.8675   21.0505 C   0  0  0  0  0  0  0  0  0  0  0  0
   10.3393  -15.0673   21.7871 O   0  0  0  0  0  0  0  0  0  0  0  0
   12.0470  -18.5461   21.5050 C   0  0  0  0  0  0  0  0  0  0  0  0
   11.7782  -17.1661   20.9382 C   0  0  2  0  0  0  0  0  0  0  0  0
   10.3883  -16.9946   20.5922 N   0  0  0  0  0  0  0  0  0  0  0  0
   12.6153  -16.8632   19.7743 C   0  0  0  0  0  0  0  0  0  0  0  0
   12.1193  -16.8901   18.6273 O   0  0  0  0  0  0  0  0  0  0  0  0
   13.9418  -16.5489   19.9295 O   0  0  0  0  0  0  0  0  0  0  0  0
  2  1  1  1
  3  4  1  0
  3  2  1  0
  4  5  2  0
  6  5  1  0
  7  6  1  0
  8  7  2  0
  9  8  1  0
 10  9  2  0
 10 11  1  0
 11 12  2  0
 12  7  1  0
 12  4  1  0
 13  2  1  0
 13 14  2  0
 16 15  1  6
 16 17  1  0
 16 18  1  0
 18 19  1  1
 19 13  1  0
 20 18  1  0
 21 20  2  0
 23 22  1  6
 23 24  1  0
 23 25  1  0
 24 20  1  0
 25 27  1  0
 26 25  2  0
M  END
$$$$
