ITH.pdb
     RDKit          3D

 26 26  0  0  1  0  0  0  0  0999 V2000
   27.2634  -20.5121   -8.6399 C   0  0  0  0  0  0  0  0  0  0  0  0
   27.3295  -21.3129   -9.9473 C   0  0  0  0  0  0  0  0  0  0  0  0
   26.3713  -20.7387  -10.9270 C   0  0  2  0  0  0  0  0  0  0  0  0
   24.9890  -20.8025  -10.3099 C   0  0  0  0  0  0  0  0  0  0  0  0
   26.4067  -21.3128  -12.3060 C   0  0  2  0  0  0  0  0  0  0  0  0
   27.8201  -21.2753  -12.7332 N   0  0  0  0  0  0  0  0  0  0  0  0
   25.5900  -20.6093  -13.3109 C   0  0  0  0  0  0  0  0  0  0  0  0
   26.1297  -19.7145  -14.0286 O   0  0  0  0  0  0  0  0  0  0  0  0
   25.3375  -19.8844  -15.8651 C   0  0  0  0  0  0  0  0  0  0  0  0
   23.9334  -20.5089  -15.8004 C   0  0  1  0  0  0  0  0  0  0  0  0
   23.9347  -21.7543  -16.4075 O   0  0  0  0  0  0  0  0  0  0  0  0
   23.3254  -20.4173  -14.4666 C   0  0  2  0  0  0  0  0  0  0  0  0
   24.2429  -20.9215  -13.4779 N   0  0  0  0  0  0  0  0  0  0  0  0
   21.9361  -20.8940  -14.3103 C   0  0  0  0  0  0  0  0  0  0  0  0
   21.7073  -21.7620  -13.4342 O   0  0  0  0  0  0  0  0  0  0  0  0
   20.8444  -20.4379  -15.0806 N   0  0  0  0  0  0  0  0  0  0  0  0
   19.6482  -19.8608  -14.4864 C   0  0  1  0  0  0  0  0  0  0  0  0
   19.9901  -18.6411  -13.6723 C   0  0  0  0  0  0  0  0  0  0  0  0
   20.1181  -18.9791  -12.2273 C   0  0  0  0  0  0  0  0  0  0  0  0
   19.9665  -20.2312  -11.6414 C   0  0  0  0  0  0  0  0  0  0  0  0
   20.1600  -20.1184  -10.3239 N   0  0  0  0  0  0  0  0  0  0  0  0
   20.4302  -18.8351  -10.0505 C   0  0  0  0  0  0  0  0  0  0  0  0
   20.4016  -18.1617  -11.2047 N   0  0  0  0  0  0  0  0  0  0  0  0
   18.6760  -19.4576  -15.5542 C   0  0  0  0  0  0  0  0  0  0  0  0
   17.3154  -19.6126  -15.4183 O   0  0  0  0  0  0  0  0  0  0  0  0
   19.1216  -18.9582  -16.6161 O   0  0  0  0  0  0  0  0  0  0  0  0
  2  3  1  0
  2  1  1  0
  3  5  1  0
  3  4  1  1
  5  7  1  0
  5  6  1  6
  7  8  2  0
 10  9  1  1
 10 12  1  0
 11 10  1  0
 12 13  1  1
 13  7  1  0
 14 15  2  0
 14 12  1  0
 16 14  1  0
 17 24  1  0
 17 16  1  0
 17 18  1  6
 19 18  1  0
 20 19  2  0
 21 20  1  0
 22 21  1  0
 22 23  2  0
 23 19  1  0
 24 25  1  0
 26 24  2  0
M  END
$$$$
