ITH.pdb
     RDKit          3D

 26 26  0  0  1  0  0  0  0  0999 V2000
   23.0906  -23.2040  -16.3840 C   0  0  0  0  0  0  0  0  0  0  0  0
   24.6075  -23.1698  -16.1546 C   0  0  0  0  0  0  0  0  0  0  0  0
   25.2346  -24.3388  -16.8240 C   0  0  2  0  0  0  0  0  0  0  0  0
   24.4884  -25.5795  -16.3770 C   0  0  0  0  0  0  0  0  0  0  0  0
   26.7143  -24.4776  -16.6706 C   0  0  2  0  0  0  0  0  0  0  0  0
   27.3010  -23.2134  -17.1599 N   0  0  0  0  0  0  0  0  0  0  0  0
   27.3290  -25.5990  -17.4029 C   0  0  0  0  0  0  0  0  0  0  0  0
   26.9450  -25.8492  -18.5848 O   0  0  0  0  0  0  0  0  0  0  0  0
   30.5006  -26.0947  -18.7212 C   0  0  0  0  0  0  0  0  0  0  0  0
   30.3760  -27.2131  -17.6727 C   0  0  1  0  0  0  0  0  0  0  0  0
   31.2331  -26.9720  -16.6111 O   0  0  0  0  0  0  0  0  0  0  0  0
   28.9821  -27.5393  -17.3442 C   0  0  2  0  0  0  0  0  0  0  0  0
   28.3226  -26.3755  -16.8113 N   0  0  0  0  0  0  0  0  0  0  0  0
   28.7267  -28.7846  -16.5920 C   0  0  0  0  0  0  0  0  0  0  0  0
   28.0766  -28.7025  -15.5224 O   0  0  0  0  0  0  0  0  0  0  0  0
   29.1639  -30.0648  -16.9956 N   0  0  0  0  0  0  0  0  0  0  0  0
   28.9249  -31.2635  -16.2063 C   0  0  1  0  0  0  0  0  0  0  0  0
   27.4587  -31.4198  -15.9013 C   0  0  0  0  0  0  0  0  0  0  0  0
   27.1867  -32.7193  -15.2260 C   0  0  0  0  0  0  0  0  0  0  0  0
   27.2637  -32.9898  -13.8640 C   0  0  0  0  0  0  0  0  0  0  0  0
   26.9450  -34.2713  -13.6590 N   0  0  0  0  0  0  0  0  0  0  0  0
   26.6672  -34.8270  -14.8459 C   0  0  0  0  0  0  0  0  0  0  0  0
   26.8167  -33.8818  -15.7791 N   0  0  0  0  0  0  0  0  0  0  0  0
   29.3839  -32.4807  -16.9515 C   0  0  0  0  0  0  0  0  0  0  0  0
   29.8708  -32.4259  -18.2375 O   0  0  0  0  0  0  0  0  0  0  0  0
   29.3215  -33.5959  -16.3788 O   0  0  0  0  0  0  0  0  0  0  0  0
  2  3  1  0
  2  1  1  0
  3  5  1  0
  3  4  1  1
  5  7  1  0
  5  6  1  6
  7  8  2  0
 10  9  1  6
 10 12  1  0
 11 10  1  0
 12 13  1  1
 13  7  1  0
 14 15  2  0
 14 12  1  0
 16 14  1  0
 17 24  1  0
 17 16  1  0
 17 18  1  6
 19 18  1  0
 20 19  2  0
 21 20  1  0
 22 21  1  0
 22 23  2  0
 23 19  1  0
 24 25  1  0
 26 24  2  0
M  END
$$$$
