ITH.pdb
     RDKit          3D

 26 26  0  0  1  0  0  0  0  0999 V2000
   28.4251  -20.3776   -5.3237 C   0  0  0  0  0  0  0  0  0  0  0  0
   26.9845  -20.3737   -5.8525 C   0  0  0  0  0  0  0  0  0  0  0  0
   26.9950  -20.0940   -7.3117 C   0  0  2  0  0  0  0  0  0  0  0  0
   27.8169  -18.8407   -7.5339 C   0  0  0  0  0  0  0  0  0  0  0  0
   25.6630  -20.0287   -7.9855 C   0  0  2  0  0  0  0  0  0  0  0  0
   24.9669  -21.2871   -7.6479 N   0  0  0  0  0  0  0  0  0  0  0  0
   25.6961  -19.8852   -9.4517 C   0  0  0  0  0  0  0  0  0  0  0  0
   26.3326  -18.9155   -9.9631 O   0  0  0  0  0  0  0  0  0  0  0  0
   26.9661  -22.1554  -11.9464 C   0  0  0  0  0  0  0  0  0  0  0  0
   25.4774  -21.9812  -12.2911 C   0  0  1  0  0  0  0  0  0  0  0  0
   24.7972  -23.1717  -12.0921 O   0  0  0  0  0  0  0  0  0  0  0  0
   24.8898  -20.7705  -11.7027 C   0  0  2  0  0  0  0  0  0  0  0  0
   25.0419  -20.8021  -10.2712 N   0  0  0  0  0  0  0  0  0  0  0  0
   23.5476  -20.3631  -12.1658 C   0  0  0  0  0  0  0  0  0  0  0  0
   22.5922  -20.4624  -11.3592 O   0  0  0  0  0  0  0  0  0  0  0  0
   23.2653  -19.8671  -13.4570 N   0  0  0  0  0  0  0  0  0  0  0  0
   21.9227  -19.5050  -13.8851 C   0  0  1  0  0  0  0  0  0  0  0  0
   21.9675  -18.6648  -15.1338 C   0  0  0  0  0  0  0  0  0  0  0  0
   20.5965  -18.2806  -15.5714 C   0  0  0  0  0  0  0  0  0  0  0  0
   19.5261  -17.9210  -14.7596 C   0  0  0  0  0  0  0  0  0  0  0  0
   18.4704  -17.6476  -15.5320 N   0  0  0  0  0  0  0  0  0  0  0  0
   18.8326  -17.8211  -16.8101 C   0  0  0  0  0  0  0  0  0  0  0  0
   20.1139  -18.2017  -16.8184 N   0  0  0  0  0  0  0  0  0  0  0  0
   21.1160  -20.7355  -14.1735 C   0  0  0  0  0  0  0  0  0  0  0  0
   19.8081  -20.8789  -13.7700 O   0  0  0  0  0  0  0  0  0  0  0  0
   21.6559  -21.6736  -14.8092 O   0  0  0  0  0  0  0  0  0  0  0  0
  2  3  1  0
  2  1  1  0
  3  5  1  0
  3  4  1  1
  5  7  1  0
  5  6  1  6
  7  8  2  0
 10  9  1  1
 10 12  1  0
 11 10  1  0
 12 13  1  1
 13  7  1  0
 14 15  2  0
 14 12  1  0
 16 14  1  0
 17 24  1  0
 17 16  1  0
 17 18  1  6
 19 18  1  0
 20 19  2  0
 21 20  1  0
 22 21  1  0
 22 23  2  0
 23 19  1  0
 24 25  1  0
 26 24  2  0
M  END
$$$$
