ITH.pdb
     RDKit          3D

 26 26  0  0  1  0  0  0  0  0999 V2000
   30.1453  -21.1909  -10.4700 C   0  0  0  0  0  0  0  0  0  0  0  0
   29.5775  -21.3203  -11.8897 C   0  0  0  0  0  0  0  0  0  0  0  0
   28.1896  -20.7903  -11.9166 C   0  0  2  0  0  0  0  0  0  0  0  0
   27.3883  -21.5465  -10.8765 C   0  0  0  0  0  0  0  0  0  0  0  0
   27.5136  -20.7649  -13.2488 C   0  0  2  0  0  0  0  0  0  0  0  0
   28.4312  -20.0567  -14.1645 N   0  0  0  0  0  0  0  0  0  0  0  0
   26.2006  -20.0969  -13.2852 C   0  0  0  0  0  0  0  0  0  0  0  0
   26.1396  -18.8443  -13.0996 O   0  0  0  0  0  0  0  0  0  0  0  0
   24.1442  -18.6971  -15.2396 C   0  0  0  0  0  0  0  0  0  0  0  0
   23.2459  -19.8410  -14.7397 C   0  0  1  0  0  0  0  0  0  0  0  0
   23.0225  -20.7543  -15.7573 O   0  0  0  0  0  0  0  0  0  0  0  0
   23.6714  -20.3796  -13.4412 C   0  0  2  0  0  0  0  0  0  0  0  0
   25.0379  -20.8259  -13.5239 N   0  0  0  0  0  0  0  0  0  0  0  0
   22.7618  -21.3201  -12.7558 C   0  0  0  0  0  0  0  0  0  0  0  0
   22.9092  -22.5461  -12.9754 O   0  0  0  0  0  0  0  0  0  0  0  0
   21.7356  -20.9331  -11.8668 N   0  0  0  0  0  0  0  0  0  0  0  0
   20.8438  -21.8900  -11.2294 C   0  0  1  0  0  0  0  0  0  0  0  0
   20.5339  -21.4735   -9.8161 C   0  0  0  0  0  0  0  0  0  0  0  0
   19.6632  -22.4753   -9.1402 C   0  0  0  0  0  0  0  0  0  0  0  0
   19.1059  -23.6186   -9.7027 C   0  0  0  0  0  0  0  0  0  0  0  0
   18.3891  -24.2537   -8.7706 N   0  0  0  0  0  0  0  0  0  0  0  0
   18.4711  -23.5527   -7.6319 C   0  0  0  0  0  0  0  0  0  0  0  0
   19.2405  -22.4858   -7.8691 N   0  0  0  0  0  0  0  0  0  0  0  0
   19.5532  -21.9867  -11.9863 C   0  0  0  0  0  0  0  0  0  0  0  0
   18.8896  -20.8821  -12.4693 O   0  0  0  0  0  0  0  0  0  0  0  0
   19.0575  -23.1222  -12.1877 O   0  0  0  0  0  0  0  0  0  0  0  0
  2  3  1  0
  2  1  1  0
  3  5  1  0
  3  4  1  1
  5  7  1  0
  5  6  1  6
  7  8  2  0
 10  9  1  6
 10 12  1  0
 11 10  1  0
 12 13  1  6
 13  7  1  0
 14 15  2  0
 14 12  1  0
 16 14  1  0
 17 24  1  0
 17 16  1  0
 17 18  1  1
 19 18  1  0
 20 19  2  0
 21 20  1  0
 22 21  1  0
 22 23  2  0
 23 19  1  0
 24 25  1  0
 26 24  2  0
M  END
$$$$
