ITH.pdb
     RDKit          3D

 26 26  0  0  1  0  0  0  0  0999 V2000
   27.6727  -12.8233  -15.6951 C   0  0  0  0  0  0  0  0  0  0  0  0
   27.8346  -14.2841  -16.1362 C   0  0  0  0  0  0  0  0  0  0  0  0
   26.5165  -14.9673  -16.0750 C   0  0  2  0  0  0  0  0  0  0  0  0
   26.0544  -14.9469  -14.6322 C   0  0  0  0  0  0  0  0  0  0  0  0
   26.4475  -16.3334  -16.6762 C   0  0  2  0  0  0  0  0  0  0  0  0
   27.0102  -16.2153  -18.0368 N   0  0  0  0  0  0  0  0  0  0  0  0
   25.0995  -16.9211  -16.7713 C   0  0  0  0  0  0  0  0  0  0  0  0
   24.3243  -16.5412  -17.6996 O   0  0  0  0  0  0  0  0  0  0  0  0
   23.1828  -18.1149  -18.2953 C   0  0  0  0  0  0  0  0  0  0  0  0
   23.2038  -19.1894  -17.1950 C   0  0  1  0  0  0  0  0  0  0  0  0
   23.9899  -20.2609  -17.5868 O   0  0  0  0  0  0  0  0  0  0  0  0
   23.4490  -18.6360  -15.8568 C   0  0  2  0  0  0  0  0  0  0  0  0
   24.6776  -17.8850  -15.8585 N   0  0  0  0  0  0  0  0  0  0  0  0
   23.2864  -19.5389  -14.6992 C   0  0  0  0  0  0  0  0  0  0  0  0
   24.2714  -19.7058  -13.9407 O   0  0  0  0  0  0  0  0  0  0  0  0
   22.0949  -20.2283  -14.3859 N   0  0  0  0  0  0  0  0  0  0  0  0
   21.9663  -21.0881  -13.2192 C   0  0  1  0  0  0  0  0  0  0  0  0
   22.2894  -20.3311  -11.9584 C   0  0  0  0  0  0  0  0  0  0  0  0
   23.6458  -20.6835  -11.4537 C   0  0  0  0  0  0  0  0  0  0  0  0
   24.5927  -21.4859  -12.0811 C   0  0  0  0  0  0  0  0  0  0  0  0
   25.6795  -21.5582  -11.3068 N   0  0  0  0  0  0  0  0  0  0  0  0
   25.4567  -20.8280  -10.2060 C   0  0  0  0  0  0  0  0  0  0  0  0
   24.2296  -20.3079  -10.3081 N   0  0  0  0  0  0  0  0  0  0  0  0
   20.5664  -21.6133  -13.1081 C   0  0  0  0  0  0  0  0  0  0  0  0
   20.2545  -22.7580  -12.4109 O   0  0  0  0  0  0  0  0  0  0  0  0
   19.6406  -20.9827  -13.6746 O   0  0  0  0  0  0  0  0  0  0  0  0
  2  3  1  0
  2  1  1  0
  3  5  1  0
  3  4  1  1
  5  7  1  0
  5  6  1  6
  7  8  2  0
 10  9  1  6
 10 12  1  0
 11 10  1  0
 12 13  1  6
 13  7  1  0
 14 15  2  0
 14 12  1  0
 16 14  1  0
 17 24  1  0
 17 16  1  0
 17 18  1  1
 19 18  1  0
 20 19  2  0
 21 20  1  0
 22 21  1  0
 22 23  2  0
 23 19  1  0
 24 25  1  0
 26 24  2  0
M  END
$$$$
