ITH.pdb
     RDKit          3D

 26 26  0  0  1  0  0  0  0  0999 V2000
   14.1335  -13.3755  -15.7737 C   0  0  0  0  0  0  0  0  0  0  0  0
   15.4801  -13.7625  -16.3995 C   0  0  0  0  0  0  0  0  0  0  0  0
   16.5594  -12.9367  -15.7986 C   0  0  2  0  0  0  0  0  0  0  0  0
   16.1762  -11.4813  -15.9734 C   0  0  0  0  0  0  0  0  0  0  0  0
   17.9504  -13.2196  -16.2649 C   0  0  2  0  0  0  0  0  0  0  0  0
   18.1586  -14.6713  -16.0877 N   0  0  0  0  0  0  0  0  0  0  0  0
   19.0207  -12.4982  -15.5537 C   0  0  0  0  0  0  0  0  0  0  0  0
   19.1911  -12.7101  -14.3155 O   0  0  0  0  0  0  0  0  0  0  0  0
   22.5335  -12.6636  -15.8578 C   0  0  0  0  0  0  0  0  0  0  0  0
   22.1883  -11.2117  -16.2297 C   0  0  1  0  0  0  0  0  0  0  0  0
   22.4148  -10.9962  -17.5795 O   0  0  0  0  0  0  0  0  0  0  0  0
   20.8936  -10.7737  -15.6921 C   0  0  2  0  0  0  0  0  0  0  0  0
   19.8406  -11.5966  -16.2282 N   0  0  0  0  0  0  0  0  0  0  0  0
   20.6011   -9.3259  -15.6985 C   0  0  0  0  0  0  0  0  0  0  0  0
   19.6992   -8.9117  -16.4655 O   0  0  0  0  0  0  0  0  0  0  0  0
   21.2677   -8.3734  -14.8976 N   0  0  0  0  0  0  0  0  0  0  0  0
   21.0115   -6.9445  -14.9959 C   0  0  1  0  0  0  0  0  0  0  0  0
   21.7714   -6.1905  -13.9372 C   0  0  0  0  0  0  0  0  0  0  0  0
   21.5117   -4.7267  -14.0302 C   0  0  0  0  0  0  0  0  0  0  0  0
   22.3520   -3.7576  -14.5676 C   0  0  0  0  0  0  0  0  0  0  0  0
   21.7583   -2.5648  -14.4638 N   0  0  0  0  0  0  0  0  0  0  0  0
   20.5667   -2.7416  -13.8777 C   0  0  0  0  0  0  0  0  0  0  0  0
   20.4320   -4.0468  -13.6226 N   0  0  0  0  0  0  0  0  0  0  0  0
   21.4352   -6.4283  -16.3382 C   0  0  0  0  0  0  0  0  0  0  0  0
   20.7356   -5.4562  -17.0161 O   0  0  0  0  0  0  0  0  0  0  0  0
   22.4710   -6.9024  -16.8656 O   0  0  0  0  0  0  0  0  0  0  0  0
  2  3  1  0
  2  1  1  0
  3  5  1  0
  3  4  1  6
  5  7  1  0
  5  6  1  1
  7  8  2  0
 10  9  1  6
 10 12  1  0
 11 10  1  0
 12 13  1  6
 13  7  1  0
 14 15  2  0
 14 12  1  0
 16 14  1  0
 17 24  1  0
 17 16  1  0
 17 18  1  1
 19 18  1  0
 20 19  2  0
 21 20  1  0
 22 21  1  0
 22 23  2  0
 23 19  1  0
 24 25  1  0
 26 24  2  0
M  END
$$$$
