ITH.pdb
     RDKit          3D

 26 26  0  0  1  0  0  0  0  0999 V2000
   28.2057  -14.9123  -15.9560 C   0  0  0  0  0  0  0  0  0  0  0  0
   26.8696  -15.0388  -15.2118 C   0  0  0  0  0  0  0  0  0  0  0  0
   25.8762  -14.1167  -15.8204 C   0  0  2  0  0  0  0  0  0  0  0  0
   26.4729  -12.7240  -15.8071 C   0  0  0  0  0  0  0  0  0  0  0  0
   24.4976  -14.1514  -15.2453 C   0  0  2  0  0  0  0  0  0  0  0  0
   24.0904  -15.5713  -15.2333 N   0  0  0  0  0  0  0  0  0  0  0  0
   23.4815  -13.3743  -15.9769 C   0  0  0  0  0  0  0  0  0  0  0  0
   22.7985  -13.9457  -16.8792 O   0  0  0  0  0  0  0  0  0  0  0  0
   20.8771  -13.2348  -16.6631 C   0  0  0  0  0  0  0  0  0  0  0  0
   20.9145  -11.8512  -15.9923 C   0  0  1  0  0  0  0  0  0  0  0  0
   20.3934  -11.9260  -14.7108 O   0  0  0  0  0  0  0  0  0  0  0  0
   22.2075  -11.1723  -16.1484 C   0  0  2  0  0  0  0  0  0  0  0  0
   23.2665  -12.0298  -15.6831 N   0  0  0  0  0  0  0  0  0  0  0  0
   22.3084   -9.7721  -15.6891 C   0  0  0  0  0  0  0  0  0  0  0  0
   22.7881   -9.5603  -14.5496 O   0  0  0  0  0  0  0  0  0  0  0  0
   21.9023   -8.6523  -16.4468 N   0  0  0  0  0  0  0  0  0  0  0  0
   22.1059   -7.2830  -15.9991 C   0  0  1  0  0  0  0  0  0  0  0  0
   22.5433   -6.4057  -17.1419 C   0  0  0  0  0  0  0  0  0  0  0  0
   23.7547   -6.9585  -17.8095 C   0  0  0  0  0  0  0  0  0  0  0  0
   25.0555   -6.9639  -17.3177 C   0  0  0  0  0  0  0  0  0  0  0  0
   25.8543   -7.5504  -18.2143 N   0  0  0  0  0  0  0  0  0  0  0  0
   25.1053   -7.9194  -19.2619 C   0  0  0  0  0  0  0  0  0  0  0  0
   23.8447   -7.5570  -19.0045 N   0  0  0  0  0  0  0  0  0  0  0  0
   20.8350   -6.7229  -15.4344 C   0  0  0  0  0  0  0  0  0  0  0  0
   20.7752   -5.4990  -14.8080 O   0  0  0  0  0  0  0  0  0  0  0  0
   19.7819   -7.3983  -15.5371 O   0  0  0  0  0  0  0  0  0  0  0  0
  2  3  1  0
  2  1  1  0
  3  5  1  0
  3  4  1  1
  5  7  1  0
  5  6  1  6
  7  8  2  0
 10  9  1  1
 10 12  1  0
 11 10  1  0
 12 13  1  1
 13  7  1  0
 14 15  2  0
 14 12  1  0
 16 14  1  0
 17 24  1  0
 17 16  1  0
 17 18  1  6
 19 18  1  0
 20 19  2  0
 21 20  1  0
 22 21  1  0
 22 23  2  0
 23 19  1  0
 24 25  1  0
 26 24  2  0
M  END
$$$$
