ITH.pdb
     RDKit          3D

 26 26  0  0  1  0  0  0  0  0999 V2000
   15.0512  -14.1901  -18.3847 C   0  0  0  0  0  0  0  0  0  0  0  0
   16.4949  -14.1529  -18.9034 C   0  0  0  0  0  0  0  0  0  0  0  0
   17.3419  -13.3880  -17.9519 C   0  0  2  0  0  0  0  0  0  0  0  0
   16.6916  -12.0356  -17.7421 C   0  0  0  0  0  0  0  0  0  0  0  0
   18.7918  -13.2760  -18.2948 C   0  0  2  0  0  0  0  0  0  0  0  0
   19.2745  -14.6560  -18.5056 N   0  0  0  0  0  0  0  0  0  0  0  0
   19.6396  -12.6287  -17.2780 C   0  0  0  0  0  0  0  0  0  0  0  0
   19.8241  -13.2101  -16.1667 O   0  0  0  0  0  0  0  0  0  0  0  0
   23.1432  -11.7710  -17.4769 C   0  0  0  0  0  0  0  0  0  0  0  0
   22.3998  -10.4412  -17.2663 C   0  0  1  0  0  0  0  0  0  0  0  0
   22.4691   -9.6668  -18.4130 O   0  0  0  0  0  0  0  0  0  0  0  0
   21.0746  -10.6146  -16.6572 C   0  0  2  0  0  0  0  0  0  0  0  0
   20.2366  -11.3956  -17.5297 N   0  0  0  0  0  0  0  0  0  0  0  0
   20.4183   -9.4201  -16.0876 C   0  0  0  0  0  0  0  0  0  0  0  0
   19.6353   -8.7726  -16.8230 O   0  0  0  0  0  0  0  0  0  0  0  0
   20.6112   -8.9563  -14.7682 N   0  0  0  0  0  0  0  0  0  0  0  0
   19.9834   -7.7464  -14.2594 C   0  0  1  0  0  0  0  0  0  0  0  0
   19.8747   -7.7905  -12.7583 C   0  0  0  0  0  0  0  0  0  0  0  0
   18.7648   -8.6851  -12.3268 C   0  0  0  0  0  0  0  0  0  0  0  0
   17.8275   -9.3124  -13.1405 C   0  0  0  0  0  0  0  0  0  0  0  0
   16.9994  -10.0282  -12.3738 N   0  0  0  0  0  0  0  0  0  0  0  0
   17.3780   -9.8780  -11.0976 C   0  0  0  0  0  0  0  0  0  0  0  0
   18.4409   -9.0677  -11.0846 N   0  0  0  0  0  0  0  0  0  0  0  0
   20.7890   -6.5400  -14.6386 C   0  0  0  0  0  0  0  0  0  0  0  0
   22.0741   -6.6260  -15.1231 O   0  0  0  0  0  0  0  0  0  0  0  0
   20.2696   -5.4047  -14.5087 O   0  0  0  0  0  0  0  0  0  0  0  0
  2  3  1  0
  2  1  1  0
  3  5  1  0
  3  4  1  6
  5  7  1  0
  5  6  1  1
  7  8  2  0
 10  9  1  6
 10 12  1  0
 11 10  1  0
 12 13  1  6
 13  7  1  0
 14 15  2  0
 14 12  1  0
 16 14  1  0
 17 24  1  0
 17 16  1  0
 17 18  1  1
 19 18  1  0
 20 19  2  0
 21 20  1  0
 22 21  1  0
 22 23  2  0
 23 19  1  0
 24 25  1  0
 26 24  2  0
M  END
$$$$
