ITH.pdb
     RDKit          3D

 26 26  0  0  1  0  0  0  0  0999 V2000
   17.8015  -16.4982  -17.2982 C   0  0  0  0  0  0  0  0  0  0  0  0
   19.2714  -16.0722  -17.4103 C   0  0  0  0  0  0  0  0  0  0  0  0
   19.4855  -14.8265  -16.6291 C   0  0  2  0  0  0  0  0  0  0  0  0
   18.4623  -13.8104  -17.0942 C   0  0  0  0  0  0  0  0  0  0  0  0
   20.8743  -14.2754  -16.6242 C   0  0  2  0  0  0  0  0  0  0  0  0
   21.7539  -15.3754  -16.1790 N   0  0  0  0  0  0  0  0  0  0  0  0
   21.0949  -13.1099  -15.7499 C   0  0  0  0  0  0  0  0  0  0  0  0
   20.7549  -13.1794  -14.5306 O   0  0  0  0  0  0  0  0  0  0  0  0
   24.0302  -11.5547  -14.5603 C   0  0  0  0  0  0  0  0  0  0  0  0
   23.3426  -10.4729  -15.4103 C   0  0  1  0  0  0  0  0  0  0  0  0
   24.0719  -10.2348  -16.5639 O   0  0  0  0  0  0  0  0  0  0  0  0
   21.8997  -10.6974  -15.5674 C   0  0  2  0  0  0  0  0  0  0  0  0
   21.6728  -11.9451  -16.2494 N   0  0  0  0  0  0  0  0  0  0  0  0
   21.0789   -9.5730  -16.0613 C   0  0  0  0  0  0  0  0  0  0  0  0
   20.7003   -9.6021  -17.2567 O   0  0  0  0  0  0  0  0  0  0  0  0
   20.6890   -8.4651  -15.2780 N   0  0  0  0  0  0  0  0  0  0  0  0
   19.9912   -7.3153  -15.8328 C   0  0  1  0  0  0  0  0  0  0  0  0
   18.7043   -7.0622  -15.0933 C   0  0  0  0  0  0  0  0  0  0  0  0
   18.0084   -5.8570  -15.6242 C   0  0  0  0  0  0  0  0  0  0  0  0
   17.6862   -5.5898  -16.9504 C   0  0  0  0  0  0  0  0  0  0  0  0
   17.0668   -4.4074  -17.0151 N   0  0  0  0  0  0  0  0  0  0  0  0
   16.9834   -3.9118  -15.7733 C   0  0  0  0  0  0  0  0  0  0  0  0
   17.5538   -4.7943  -14.9472 N   0  0  0  0  0  0  0  0  0  0  0  0
   20.8437   -6.0863  -15.7298 C   0  0  0  0  0  0  0  0  0  0  0  0
   20.6982   -5.0073  -16.5714 O   0  0  0  0  0  0  0  0  0  0  0  0
   21.7269   -6.0396  -14.8390 O   0  0  0  0  0  0  0  0  0  0  0  0
  2  3  1  0
  2  1  1  0
  3  5  1  0
  3  4  1  6
  5  7  1  0
  5  6  1  1
  7  8  2  0
 10  9  1  6
 10 12  1  0
 11 10  1  0
 12 13  1  6
 13  7  1  0
 14 15  2  0
 14 12  1  0
 16 14  1  0
 17 24  1  0
 17 16  1  0
 17 18  1  1
 19 18  1  0
 20 19  2  0
 21 20  1  0
 22 21  1  0
 22 23  2  0
 23 19  1  0
 24 25  1  0
 26 24  2  0
M  END
$$$$
