ITH.pdb
     RDKit          3D

 26 26  0  0  1  0  0  0  0  0999 V2000
   42.7607  -15.1055   -9.6256 C   0  0  0  0  0  0  0  0  0  0  0  0
   43.8631  -14.1674   -9.1162 C   0  0  0  0  0  0  0  0  0  0  0  0
   43.2486  -12.9144   -8.6061 C   0  0  2  0  0  0  0  0  0  0  0  0
   42.2999  -12.4012   -9.6702 C   0  0  0  0  0  0  0  0  0  0  0  0
   44.1914  -11.8592   -8.1264 C   0  0  2  0  0  0  0  0  0  0  0  0
   45.0648  -12.5083   -7.1276 N   0  0  0  0  0  0  0  0  0  0  0  0
   43.5648  -10.6767   -7.5094 C   0  0  0  0  0  0  0  0  0  0  0  0
   42.9355  -10.8106   -6.4171 O   0  0  0  0  0  0  0  0  0  0  0  0
   45.1555   -7.9237   -6.0926 C   0  0  0  0  0  0  0  0  0  0  0  0
   44.3181   -7.3144   -7.2297 C   0  0  1  0  0  0  0  0  0  0  0  0
   45.1457   -6.8619   -8.2445 O   0  0  0  0  0  0  0  0  0  0  0  0
   43.1818   -8.1584   -7.6216 C   0  0  2  0  0  0  0  0  0  0  0  0
   43.6622   -9.4244   -8.1114 N   0  0  0  0  0  0  0  0  0  0  0  0
   42.1232   -7.5449   -8.4490 C   0  0  0  0  0  0  0  0  0  0  0  0
   42.1152   -7.7996   -9.6772 O   0  0  0  0  0  0  0  0  0  0  0  0
   41.1158   -6.6902   -7.9512 N   0  0  0  0  0  0  0  0  0  0  0  0
   40.1291   -6.0528   -8.8098 C   0  0  1  0  0  0  0  0  0  0  0  0
   38.7734   -6.6815   -8.6254 C   0  0  0  0  0  0  0  0  0  0  0  0
   38.6296   -7.9028   -9.4658 C   0  0  0  0  0  0  0  0  0  0  0  0
   39.5798   -8.4498  -10.3214 C   0  0  0  0  0  0  0  0  0  0  0  0
   39.0679   -9.5438  -10.8933 N   0  0  0  0  0  0  0  0  0  0  0  0
   37.8222   -9.7124  -10.4303 C   0  0  0  0  0  0  0  0  0  0  0  0
   37.5722   -8.7181   -9.5727 N   0  0  0  0  0  0  0  0  0  0  0  0
   40.0197   -4.5929   -8.4865 C   0  0  0  0  0  0  0  0  0  0  0  0
   39.3729   -3.6961   -9.3059 O   0  0  0  0  0  0  0  0  0  0  0  0
   40.5395   -4.1711   -7.4247 O   0  0  0  0  0  0  0  0  0  0  0  0
  2  3  1  0
  2  1  1  0
  3  5  1  0
  3  4  1  6
  5  7  1  0
  5  6  1  1
  7  8  2  0
 10  9  1  1
 10 12  1  0
 11 10  1  0
 12 13  1  6
 13  7  1  0
 14 15  2  0
 14 12  1  0
 16 14  1  0
 17 24  1  0
 17 16  1  0
 17 18  1  1
 19 18  1  0
 20 19  2  0
 21 20  1  0
 22 21  1  0
 22 23  2  0
 23 19  1  0
 24 25  1  0
 26 24  2  0
M  END
$$$$
