ITH.pdb
     RDKit          3D

 26 26  0  0  1  0  0  0  0  0999 V2000
   17.4456  -16.5322  -17.6800 C   0  0  0  0  0  0  0  0  0  0  0  0
   17.6698  -15.4451  -16.6204 C   0  0  0  0  0  0  0  0  0  0  0  0
   18.1289  -14.1969  -17.2830 C   0  0  2  0  0  0  0  0  0  0  0  0
   19.3248  -14.5468  -18.1449 C   0  0  0  0  0  0  0  0  0  0  0  0
   18.3927  -13.0286  -16.3897 C   0  0  2  0  0  0  0  0  0  0  0  0
   17.1570  -12.8186  -15.6081 N   0  0  0  0  0  0  0  0  0  0  0  0
   18.7404  -11.7696  -17.0721 C   0  0  0  0  0  0  0  0  0  0  0  0
   19.7186  -11.7539  -17.8782 O   0  0  0  0  0  0  0  0  0  0  0  0
   16.5596   -9.6906  -19.2432 C   0  0  0  0  0  0  0  0  0  0  0  0
   16.9746   -8.8297  -18.0381 C   0  0  1  0  0  0  0  0  0  0  0  0
   15.8848   -8.6036  -17.2130 O   0  0  0  0  0  0  0  0  0  0  0  0
   18.2110   -9.2968  -17.3976 C   0  0  2  0  0  0  0  0  0  0  0  0
   18.0053  -10.6091  -16.8418 N   0  0  0  0  0  0  0  0  0  0  0  0
   18.9184   -8.3583  -16.5029 C   0  0  0  0  0  0  0  0  0  0  0  0
   18.6244   -8.3735  -15.2836 O   0  0  0  0  0  0  0  0  0  0  0  0
   19.9067   -7.4433  -16.9264 N   0  0  0  0  0  0  0  0  0  0  0  0
   20.5872   -6.5400  -16.0111 C   0  0  1  0  0  0  0  0  0  0  0  0
   22.0336   -6.9274  -15.8535 C   0  0  0  0  0  0  0  0  0  0  0  0
   22.1650   -8.2423  -15.1660 C   0  0  0  0  0  0  0  0  0  0  0  0
   21.1347   -9.0711  -14.7354 C   0  0  0  0  0  0  0  0  0  0  0  0
   21.6636  -10.1582  -14.1660 N   0  0  0  0  0  0  0  0  0  0  0  0
   22.9977  -10.0498  -14.2193 C   0  0  0  0  0  0  0  0  0  0  0  0
   23.2849   -8.8925  -14.8234 N   0  0  0  0  0  0  0  0  0  0  0  0
   20.5294   -5.1328  -16.5255 C   0  0  0  0  0  0  0  0  0  0  0  0
   20.9917   -4.0570  -15.8024 O   0  0  0  0  0  0  0  0  0  0  0  0
   20.0391   -4.9276  -17.6626 O   0  0  0  0  0  0  0  0  0  0  0  0
  2  3  1  0
  2  1  1  0
  3  5  1  0
  3  4  1  1
  5  7  1  0
  5  6  1  6
  7  8  2  0
 10  9  1  6
 10 12  1  0
 11 10  1  0
 12 13  1  1
 13  7  1  0
 14 15  2  0
 14 12  1  0
 16 14  1  0
 17 24  1  0
 17 16  1  0
 17 18  1  6
 19 18  1  0
 20 19  2  0
 21 20  1  0
 22 21  1  0
 22 23  2  0
 23 19  1  0
 24 25  1  0
 26 24  2  0
M  END
$$$$
