ITH.pdb
     RDKit          3D

 26 26  0  0  1  0  0  0  0  0999 V2000
   28.9396  -20.5740   -7.7900 C   0  0  0  0  0  0  0  0  0  0  0  0
   27.8971  -20.9384   -8.8554 C   0  0  0  0  0  0  0  0  0  0  0  0
   26.7280  -20.0295   -8.7334 C   0  0  2  0  0  0  0  0  0  0  0  0
   26.1233  -20.2398   -7.3602 C   0  0  0  0  0  0  0  0  0  0  0  0
   25.7086  -20.1081   -9.8230 C   0  0  2  0  0  0  0  0  0  0  0  0
   25.2509  -21.5120   -9.8604 N   0  0  0  0  0  0  0  0  0  0  0  0
   26.1803  -19.7285  -11.1664 C   0  0  0  0  0  0  0  0  0  0  0  0
   26.4816  -18.5187  -11.3962 O   0  0  0  0  0  0  0  0  0  0  0  0
   28.9690  -20.5817  -13.1356 C   0  0  0  0  0  0  0  0  0  0  0  0
   27.7856  -21.0607  -13.9933 C   0  0  1  0  0  0  0  0  0  0  0  0
   27.8268  -22.4378  -14.1400 O   0  0  0  0  0  0  0  0  0  0  0  0
   26.5042  -20.4712  -13.5840 C   0  0  2  0  0  0  0  0  0  0  0  0
   26.2997  -20.6824  -12.1744 N   0  0  0  0  0  0  0  0  0  0  0  0
   25.3203  -20.7505  -14.4219 C   0  0  0  0  0  0  0  0  0  0  0  0
   24.3493  -21.3399  -13.8898 O   0  0  0  0  0  0  0  0  0  0  0  0
   25.2053  -20.3978  -15.7840 N   0  0  0  0  0  0  0  0  0  0  0  0
   23.9846  -19.8490  -16.3548 C   0  0  1  0  0  0  0  0  0  0  0  0
   23.5546  -18.6128  -15.6106 C   0  0  0  0  0  0  0  0  0  0  0  0
   22.1634  -18.7525  -15.0969 C   0  0  0  0  0  0  0  0  0  0  0  0
   21.3414  -19.8701  -15.1929 C   0  0  0  0  0  0  0  0  0  0  0  0
   20.1704  -19.5969  -14.6097 N   0  0  0  0  0  0  0  0  0  0  0  0
   20.2188  -18.3415  -14.1447 C   0  0  0  0  0  0  0  0  0  0  0  0
   21.4234  -17.8461  -14.4449 N   0  0  0  0  0  0  0  0  0  0  0  0
   24.1981  -19.4832  -17.7930 C   0  0  0  0  0  0  0  0  0  0  0  0
   23.2616  -19.7308  -18.7705 O   0  0  0  0  0  0  0  0  0  0  0  0
   25.2757  -18.9280  -18.1190 O   0  0  0  0  0  0  0  0  0  0  0  0
  2  3  1  0
  2  1  1  0
  3  5  1  0
  3  4  1  1
  5  7  1  0
  5  6  1  6
  7  8  2  0
 10  9  1  1
 10 12  1  0
 11 10  1  0
 12 13  1  1
 13  7  1  0
 14 15  2  0
 14 12  1  0
 16 14  1  0
 17 24  1  0
 17 16  1  0
 17 18  1  1
 19 18  1  0
 20 19  2  0
 21 20  1  0
 22 21  1  0
 22 23  2  0
 23 19  1  0
 24 25  1  0
 26 24  2  0
M  END
$$$$
