VIK.pdb
     RDKit          3D

 25 24  0  0  1  0  0  0  0  0999 V2000
    4.8047  -19.7112   22.7914 C   0  0  0  0  0  0  0  0  0  0  0  0
    5.9268  -18.7380   23.1044 C   0  0  2  0  0  0  0  0  0  0  0  0
    6.3564  -19.0599   24.5191 C   0  0  0  0  0  0  0  0  0  0  0  0
    5.4411  -17.3098   23.0676 C   0  0  2  0  0  0  0  0  0  0  0  0
    5.0181  -16.9400   21.7261 N   0  0  0  0  0  0  0  0  0  0  0  0
    6.4508  -16.3603   23.5216 C   0  0  0  0  0  0  0  0  0  0  0  0
    7.4005  -16.0846   22.6950 O   0  0  0  0  0  0  0  0  0  0  0  0
    5.7822  -12.0546   26.9439 C   0  0  0  0  0  0  0  0  0  0  0  0
    6.2617  -12.8644   25.7322 C   0  0  0  0  0  0  0  0  0  0  0  0
    7.2492  -13.8917   26.1907 C   0  0  2  0  0  0  0  0  0  0  0  0
    8.4138  -13.1129   26.8155 C   0  0  0  0  0  0  0  0  0  0  0  0
    7.6853  -14.8785   25.1670 C   0  0  2  0  0  0  0  0  0  0  0  0
    6.5286  -15.6960   24.7506 N   0  0  0  0  0  0  0  0  0  0  0  0
    8.7598  -15.7436   25.6660 C   0  0  0  0  0  0  0  0  0  0  0  0
    8.6086  -16.4769   26.6994 O   0  0  0  0  0  0  0  0  0  0  0  0
   10.0138  -15.8046   25.0076 N   0  0  0  0  0  0  0  0  0  0  0  0
   10.9542  -16.8790   25.3576 C   0  0  1  0  0  0  0  0  0  0  0  0
   11.8665  -17.0379   24.1535 C   0  0  0  0  0  0  0  0  0  0  0  0
   11.1613  -17.4381   22.9020 C   0  0  0  0  0  0  0  0  0  0  0  0
   12.2362  -17.5995   21.8233 C   0  0  0  0  0  0  0  0  0  0  0  0
   11.5818  -17.9310   20.4855 C   0  0  0  0  0  0  0  0  0  0  0  0
   12.6043  -17.8921   19.4680 N   0  0  0  0  0  0  0  0  0  0  0  0
   11.6777  -16.5019   26.5654 C   0  0  0  0  0  0  0  0  0  0  0  0
   12.4942  -17.2804   27.0983 O   0  0  0  0  0  0  0  0  0  0  0  0
   11.5174  -15.2647   27.2077 O   0  0  0  0  0  0  0  0  0  0  0  0
  2  1  1  1
  2  4  1  0
  2  3  1  0
  4  6  1  0
  4  5  1  6
  6  7  2  0
  6 13  1  0
  9  8  1  0
 10  9  1  0
 10 11  1  6
 12 14  1  0
 12 10  1  0
 12 13  1  1
 14 15  2  0
 16 17  1  0
 16 14  1  0
 17 18  1  6
 19 18  1  0
 20 21  1  0
 20 19  1  0
 22 21  1  0
 23 25  1  0
 23 17  1  0
 24 23  2  0
M  END
$$$$
