VIK.pdb
     RDKit          3D

 25 24  0  0  1  0  0  0  0  0999 V2000
    7.4000  -18.1119   22.5345 C   0  0  0  0  0  0  0  0  0  0  0  0
    6.0252  -17.5042   22.7458 C   0  0  2  0  0  0  0  0  0  0  0  0
    5.1523  -18.0952   21.6602 C   0  0  0  0  0  0  0  0  0  0  0  0
    6.0544  -16.0058   22.5703 C   0  0  2  0  0  0  0  0  0  0  0  0
    6.2764  -15.6507   21.1775 N   0  0  0  0  0  0  0  0  0  0  0  0
    7.0762  -15.3632   23.3889 C   0  0  0  0  0  0  0  0  0  0  0  0
    7.4200  -14.1672   23.0534 O   0  0  0  0  0  0  0  0  0  0  0  0
    6.0809  -12.0267   25.8547 C   0  0  0  0  0  0  0  0  0  0  0  0
    7.0347  -12.9720   25.1126 C   0  0  0  0  0  0  0  0  0  0  0  0
    7.5028  -14.0346   26.0574 C   0  0  2  0  0  0  0  0  0  0  0  0
    8.0583  -13.2988   27.2833 C   0  0  0  0  0  0  0  0  0  0  0  0
    8.4485  -15.0354   25.4951 C   0  0  2  0  0  0  0  0  0  0  0  0
    7.7427  -15.8755   24.5073 N   0  0  0  0  0  0  0  0  0  0  0  0
    9.0383  -15.8769   26.5420 C   0  0  0  0  0  0  0  0  0  0  0  0
    8.3365  -16.3612   27.4914 O   0  0  0  0  0  0  0  0  0  0  0  0
   10.4201  -16.1936   26.5325 N   0  0  0  0  0  0  0  0  0  0  0  0
   10.8727  -17.4408   27.1659 C   0  0  1  0  0  0  0  0  0  0  0  0
   12.0934  -17.8847   26.3783 C   0  0  0  0  0  0  0  0  0  0  0  0
   11.8159  -18.1962   24.9466 C   0  0  0  0  0  0  0  0  0  0  0  0
   13.1475  -18.6243   24.3231 C   0  0  0  0  0  0  0  0  0  0  0  0
   12.9626  -18.8778   22.8300 C   0  0  0  0  0  0  0  0  0  0  0  0
   14.2651  -19.1065   22.2526 N   0  0  0  0  0  0  0  0  0  0  0  0
   11.1726  -17.1795   28.5681 C   0  0  0  0  0  0  0  0  0  0  0  0
   11.5141  -18.1003   29.3375 O   0  0  0  0  0  0  0  0  0  0  0  0
   11.1031  -15.9038   29.1485 O   0  0  0  0  0  0  0  0  0  0  0  0
  2  1  1  6
  2  4  1  0
  2  3  1  0
  4  6  1  0
  4  5  1  6
  6  7  2  0
  6 13  1  0
  9  8  1  0
 10  9  1  0
 10 11  1  1
 12 14  1  0
 12 10  1  0
 12 13  1  6
 14 15  2  0
 16 17  1  0
 16 14  1  0
 17 18  1  6
 19 18  1  0
 20 21  1  0
 20 19  1  0
 22 21  1  0
 23 25  1  0
 23 17  1  0
 24 23  2  0
M  END
$$$$
