VIK.pdb
     RDKit          3D

 25 24  0  0  1  0  0  0  0  0999 V2000
    6.8146  -15.2975   18.7540 C   0  0  0  0  0  0  0  0  0  0  0  0
    7.4708  -15.2883   20.1227 C   0  0  2  0  0  0  0  0  0  0  0  0
    6.6808  -16.2748   20.9549 C   0  0  0  0  0  0  0  0  0  0  0  0
    7.3694  -13.9296   20.7712 C   0  0  2  0  0  0  0  0  0  0  0  0
    7.9950  -12.9112   19.9425 N   0  0  0  0  0  0  0  0  0  0  0  0
    7.9730  -13.8930   22.0983 C   0  0  0  0  0  0  0  0  0  0  0  0
    9.2577  -13.8015   22.1485 O   0  0  0  0  0  0  0  0  0  0  0  0
    6.0137  -11.3114   26.4709 C   0  0  0  0  0  0  0  0  0  0  0  0
    6.9382  -11.8498   25.3712 C   0  0  0  0  0  0  0  0  0  0  0  0
    7.2708  -13.2788   25.6684 C   0  0  2  0  0  0  0  0  0  0  0  0
    7.9424  -13.2809   27.0475 C   0  0  0  0  0  0  0  0  0  0  0  0
    8.0601  -13.9933   24.6300 C   0  0  2  0  0  0  0  0  0  0  0  0
    7.3372  -13.9424   23.3437 N   0  0  0  0  0  0  0  0  0  0  0  0
    8.3212  -15.3871   25.0061 C   0  0  0  0  0  0  0  0  0  0  0  0
    7.3768  -16.1922   25.3033 O   0  0  0  0  0  0  0  0  0  0  0  0
    9.6429  -15.8980   25.0447 N   0  0  0  0  0  0  0  0  0  0  0  0
    9.8555  -17.3056   25.4121 C   0  0  1  0  0  0  0  0  0  0  0  0
   10.9148  -17.8265   24.4561 C   0  0  0  0  0  0  0  0  0  0  0  0
   10.5294  -17.7501   23.0175 C   0  0  0  0  0  0  0  0  0  0  0  0
   11.6923  -18.3446   22.2181 C   0  0  0  0  0  0  0  0  0  0  0  0
   11.4378  -18.1678   20.7241 C   0  0  0  0  0  0  0  0  0  0  0  0
   12.6140  -18.6124   20.0163 N   0  0  0  0  0  0  0  0  0  0  0  0
   10.2737  -17.3744   26.8066 C   0  0  0  0  0  0  0  0  0  0  0  0
   10.4291  -18.4712   27.3805 O   0  0  0  0  0  0  0  0  0  0  0  0
   10.5287  -16.2411   27.5937 O   0  0  0  0  0  0  0  0  0  0  0  0
  2  1  1  6
  2  4  1  0
  2  3  1  0
  4  6  1  0
  4  5  1  6
  6  7  2  0
  6 13  1  0
  9  8  1  0
 10  9  1  0
 10 11  1  1
 12 14  1  0
 12 10  1  0
 12 13  1  6
 14 15  2  0
 16 17  1  0
 16 14  1  0
 17 18  1  6
 19 18  1  0
 20 21  1  0
 20 19  1  0
 22 21  1  0
 23 25  1  0
 23 17  1  0
 24 23  2  0
M  END
$$$$
