VIK.pdb
     RDKit          3D

 25 24  0  0  1  0  0  0  0  0999 V2000
    7.7705  -17.2640   20.8482 C   0  0  0  0  0  0  0  0  0  0  0  0
    6.6279  -16.2685   20.9362 C   0  0  2  0  0  0  0  0  0  0  0  0
    5.8941  -16.3798   19.6175 C   0  0  0  0  0  0  0  0  0  0  0  0
    7.1398  -14.8563   21.0785 C   0  0  2  0  0  0  0  0  0  0  0  0
    8.0154  -14.5076   19.9708 N   0  0  0  0  0  0  0  0  0  0  0  0
    7.8558  -14.6407   22.3307 C   0  0  0  0  0  0  0  0  0  0  0  0
    9.1314  -14.8242   22.3080 O   0  0  0  0  0  0  0  0  0  0  0  0
    5.9609  -11.4320   26.3541 C   0  0  0  0  0  0  0  0  0  0  0  0
    7.0150  -11.9740   25.3798 C   0  0  0  0  0  0  0  0  0  0  0  0
    7.4200  -13.3485   25.8130 C   0  0  2  0  0  0  0  0  0  0  0  0
    8.1993  -13.1693   27.1221 C   0  0  0  0  0  0  0  0  0  0  0  0
    8.1485  -14.1615   24.8029 C   0  0  2  0  0  0  0  0  0  0  0  0
    7.3387  -14.2538   23.5718 N   0  0  0  0  0  0  0  0  0  0  0  0
    8.4577  -15.5051   25.3041 C   0  0  0  0  0  0  0  0  0  0  0  0
    7.5423  -16.3609   25.5449 O   0  0  0  0  0  0  0  0  0  0  0  0
    9.7972  -15.9092   25.5326 N   0  0  0  0  0  0  0  0  0  0  0  0
   10.0679  -17.2999   25.9251 C   0  0  1  0  0  0  0  0  0  0  0  0
   11.2210  -17.7591   25.0494 C   0  0  0  0  0  0  0  0  0  0  0  0
   11.6923  -19.1443   25.3377 C   0  0  0  0  0  0  0  0  0  0  0  0
   12.9089  -19.3909   24.4410 C   0  0  0  0  0  0  0  0  0  0  0  0
   13.4663  -20.7880   24.6968 C   0  0  0  0  0  0  0  0  0  0  0  0
   14.5680  -21.0008   23.7896 N   0  0  0  0  0  0  0  0  0  0  0  0
   10.3911  -17.3378   27.3459 C   0  0  0  0  0  0  0  0  0  0  0  0
   10.5454  -18.4218   27.9439 O   0  0  0  0  0  0  0  0  0  0  0  0
   10.5505  -16.1873   28.1331 O   0  0  0  0  0  0  0  0  0  0  0  0
  2  1  1  6
  2  4  1  0
  2  3  1  0
  4  6  1  0
  4  5  1  6
  6  7  2  0
  6 13  1  0
  9  8  1  0
 10  9  1  0
 10 11  1  1
 12 14  1  0
 12 10  1  0
 12 13  1  6
 14 15  2  0
 16 17  1  0
 16 14  1  0
 17 18  1  6
 19 18  1  0
 20 21  1  0
 20 19  1  0
 22 21  1  0
 23 25  1  0
 23 17  1  0
 24 23  2  0
M  END
$$$$
