VIK.pdb
     RDKit          3D

 25 24  0  0  1  0  0  0  0  0999 V2000
    4.6408  -20.3242   23.7144 C   0  0  0  0  0  0  0  0  0  0  0  0
    5.8021  -19.3785   23.9614 C   0  0  2  0  0  0  0  0  0  0  0  0
    6.0593  -19.4368   25.4514 C   0  0  0  0  0  0  0  0  0  0  0  0
    5.4422  -17.9596   23.5955 C   0  0  2  0  0  0  0  0  0  0  0  0
    5.0827  -17.8615   22.1896 N   0  0  0  0  0  0  0  0  0  0  0  0
    6.5193  -17.0163   23.8731 C   0  0  0  0  0  0  0  0  0  0  0  0
    7.5109  -17.0102   23.0497 O   0  0  0  0  0  0  0  0  0  0  0  0
    5.9344  -12.2143   26.5275 C   0  0  0  0  0  0  0  0  0  0  0  0
    6.4463  -13.1533   25.4274 C   0  0  0  0  0  0  0  0  0  0  0  0
    7.4393  -14.1043   26.0194 C   0  0  2  0  0  0  0  0  0  0  0  0
    8.6411  -13.2523   26.4470 C   0  0  0  0  0  0  0  0  0  0  0  0
    7.8156  -15.2655   25.1698 C   0  0  2  0  0  0  0  0  0  0  0  0
    6.6232  -16.1015   24.9267 N   0  0  0  0  0  0  0  0  0  0  0  0
    8.8776  -16.0697   25.7843 C   0  0  0  0  0  0  0  0  0  0  0  0
    8.7020  -16.6864   26.8877 O   0  0  0  0  0  0  0  0  0  0  0  0
   10.1462  -16.2001   25.1652 N   0  0  0  0  0  0  0  0  0  0  0  0
   11.0398  -17.2885   25.5873 C   0  0  1  0  0  0  0  0  0  0  0  0
   12.0628  -17.4380   24.4745 C   0  0  0  0  0  0  0  0  0  0  0  0
   13.0598  -18.5231   24.7036 C   0  0  0  0  0  0  0  0  0  0  0  0
   13.9432  -18.5803   23.4541 C   0  0  0  0  0  0  0  0  0  0  0  0
   14.9288  -19.7393   23.5691 C   0  0  0  0  0  0  0  0  0  0  0  0
   15.5903  -19.8894   22.2955 N   0  0  0  0  0  0  0  0  0  0  0  0
   11.6463  -16.9362   26.8650 C   0  0  0  0  0  0  0  0  0  0  0  0
   12.0892  -17.8140   27.6330 O   0  0  0  0  0  0  0  0  0  0  0  0
   11.7769  -15.6154   27.3204 O   0  0  0  0  0  0  0  0  0  0  0  0
  2  1  1  1
  2  4  1  0
  2  3  1  0
  4  6  1  0
  4  5  1  6
  6  7  2  0
  6 13  1  0
  9  8  1  0
 10  9  1  0
 10 11  1  6
 12 14  1  0
 12 10  1  0
 12 13  1  1
 14 15  2  0
 16 17  1  0
 16 14  1  0
 17 18  1  6
 19 18  1  0
 20 21  1  0
 20 19  1  0
 22 21  1  0
 23 25  1  0
 23 17  1  0
 24 23  2  0
M  END
$$$$
