VIK.pdb
     RDKit          3D

 25 24  0  0  1  0  0  0  0  0999 V2000
    7.7815  -17.3109   21.0905 C   0  0  0  0  0  0  0  0  0  0  0  0
    6.5682  -16.4072   21.2141 C   0  0  2  0  0  0  0  0  0  0  0  0
    5.7834  -16.6092   19.9362 C   0  0  0  0  0  0  0  0  0  0  0  0
    6.9712  -14.9557   21.3009 C   0  0  2  0  0  0  0  0  0  0  0  0
    7.7675  -14.5683   20.1471 N   0  0  0  0  0  0  0  0  0  0  0  0
    7.7211  -14.6515   22.5142 C   0  0  0  0  0  0  0  0  0  0  0  0
    9.0042  -14.7517   22.4431 O   0  0  0  0  0  0  0  0  0  0  0  0
    5.9740  -11.2897   26.4588 C   0  0  0  0  0  0  0  0  0  0  0  0
    7.0036  -11.8877   25.4910 C   0  0  0  0  0  0  0  0  0  0  0  0
    7.3777  -13.2587   25.9613 C   0  0  2  0  0  0  0  0  0  0  0  0
    8.1771  -13.0608   27.2554 C   0  0  0  0  0  0  0  0  0  0  0  0
    8.0723  -14.1209   24.9683 C   0  0  2  0  0  0  0  0  0  0  0  0
    7.2298  -14.2574   23.7636 N   0  0  0  0  0  0  0  0  0  0  0  0
    8.3831  -15.4449   25.5181 C   0  0  0  0  0  0  0  0  0  0  0  0
    7.4694  -16.2963   25.7804 O   0  0  0  0  0  0  0  0  0  0  0  0
    9.7223  -15.8345   25.7720 N   0  0  0  0  0  0  0  0  0  0  0  0
    9.9955  -17.2086   26.2175 C   0  0  1  0  0  0  0  0  0  0  0  0
   10.9992  -17.7722   25.2263 C   0  0  0  0  0  0  0  0  0  0  0  0
   11.5515  -19.1040   25.6074 C   0  0  0  0  0  0  0  0  0  0  0  0
   12.5518  -19.4946   24.5157 C   0  0  0  0  0  0  0  0  0  0  0  0
   13.2326  -20.8096   24.8834 C   0  0  0  0  0  0  0  0  0  0  0  0
   14.1295  -21.1621   23.8093 N   0  0  0  0  0  0  0  0  0  0  0  0
   10.5108  -17.1723   27.5804 C   0  0  0  0  0  0  0  0  0  0  0  0
   10.7236  -18.2233   28.2182 O   0  0  0  0  0  0  0  0  0  0  0  0
   10.8012  -15.9825   28.2653 O   0  0  0  0  0  0  0  0  0  0  0  0
  2  1  1  6
  2  4  1  0
  2  3  1  0
  4  6  1  0
  4  5  1  6
  6  7  2  0
  6 13  1  0
  9  8  1  0
 10  9  1  0
 10 11  1  1
 12 14  1  0
 12 10  1  0
 12 13  1  6
 14 15  2  0
 16 17  1  0
 16 14  1  0
 17 18  1  6
 19 18  1  0
 20 21  1  0
 20 19  1  0
 22 21  1  0
 23 25  1  0
 23 17  1  0
 24 23  2  0
M  END
$$$$
