SDF.pdb
     RDKit          3D

 26 26  0  0  1  0  0  0  0  0999 V2000
   23.9595  -14.6730  -16.3859 O   0  0  0  0  0  0  0  0  0  0  0  0
   23.4869  -15.9721  -16.4768 C   0  0  0  0  0  0  0  0  0  0  0  0
   24.3627  -16.8151  -17.4147 C   0  0  2  0  0  0  0  0  0  0  0  0
   23.8656  -16.6209  -18.7554 N   0  0  0  0  0  0  0  0  0  0  0  0
   24.2179  -18.2162  -16.9480 C   0  0  0  0  0  0  0  0  0  0  0  0
   23.4126  -18.9433  -17.5864 O   0  0  0  0  0  0  0  0  0  0  0  0
   24.9653  -18.7032  -15.8236 N   0  0  0  0  0  0  0  0  0  0  0  0
   24.7628  -20.0672  -15.4431 C   0  0  1  0  0  0  0  0  0  0  0  0
   25.9956  -20.6198  -14.7588 C   0  0  0  0  0  0  0  0  0  0  0  0
   26.7780  -21.4041  -15.7285 C   0  0  0  0  0  0  0  0  0  0  0  0
   26.2802  -21.6066  -16.8844 O   0  0  0  0  0  0  0  0  0  0  0  0
   23.6655  -20.1941  -14.4156 C   0  0  0  0  0  0  0  0  0  0  0  0
   23.8032  -19.7254  -13.2591 O   0  0  0  0  0  0  0  0  0  0  0  0
   28.0217  -21.9469  -15.4899 O   0  0  0  0  0  0  0  0  0  0  0  0
   22.4602  -20.8442  -14.7371 N   0  0  0  0  0  0  0  0  0  0  0  0
   21.3173  -20.9460  -13.8501 C   0  0  1  0  0  0  0  0  0  0  0  0
   20.2568  -20.0463  -14.4383 C   0  0  0  0  0  0  0  0  0  0  0  0
   20.5444  -18.6257  -14.1912 C   0  0  0  0  0  0  0  0  0  0  0  0
   21.2938  -17.8899  -15.0601 C   0  0  0  0  0  0  0  0  0  0  0  0
   21.5632  -16.5545  -14.8438 C   0  0  0  0  0  0  0  0  0  0  0  0
   21.0535  -15.9466  -13.7050 C   0  0  0  0  0  0  0  0  0  0  0  0
   20.2951  -16.6651  -12.8121 C   0  0  0  0  0  0  0  0  0  0  0  0
   20.0466  -17.9951  -13.0603 C   0  0  0  0  0  0  0  0  0  0  0  0
   20.7889  -22.3185  -13.7729 C   0  0  0  0  0  0  0  0  0  0  0  0
   21.1358  -23.2938  -14.4416 O   0  0  0  0  0  0  0  0  0  0  0  0
   19.7695  -22.5486  -12.8271 O   0  0  0  0  0  0  0  0  0  0  0  0
  2  1  1  0
  3  5  1  0
  3  4  1  6
  3  2  1  0
  5  6  2  0
  7  8  1  0
  7  5  1  0
  8 12  1  0
  8  9  1  1
 10  9  1  0
 11 10  2  0
 12 13  2  0
 12 15  1  0
 14 10  1  0
 15 16  1  0
 16 24  1  0
 16 17  1  6
 18 17  1  0
 19 18  2  0
 20 19  1  0
 21 20  2  0
 21 22  1  0
 22 23  2  0
 23 18  1  0
 24 25  2  0
 24 26  1  0
M  END
$$$$
