SDF.pdb
     RDKit          3D

 26 26  0  0  1  0  0  0  0  0999 V2000
   19.8895  -13.8349  -15.4780 O   0  0  0  0  0  0  0  0  0  0  0  0
   20.4450  -12.7625  -16.1566 C   0  0  0  0  0  0  0  0  0  0  0  0
   19.5488  -12.3212  -17.3224 C   0  0  2  0  0  0  0  0  0  0  0  0
   19.7166  -13.2867  -18.3817 N   0  0  0  0  0  0  0  0  0  0  0  0
   20.0216  -10.9670  -17.7023 C   0  0  0  0  0  0  0  0  0  0  0  0
   20.4185  -10.8197  -18.8878 O   0  0  0  0  0  0  0  0  0  0  0  0
   20.0205   -9.8892  -16.7544 N   0  0  0  0  0  0  0  0  0  0  0  0
   20.3805   -8.5916  -17.2368 C   0  0  1  0  0  0  0  0  0  0  0  0
   19.4944   -8.1879  -18.3968 C   0  0  0  0  0  0  0  0  0  0  0  0
   19.9584   -6.8988  -18.9356 C   0  0  0  0  0  0  0  0  0  0  0  0
   19.1487   -5.9142  -18.9297 O   0  0  0  0  0  0  0  0  0  0  0  0
   20.1464   -7.5314  -16.1895 C   0  0  0  0  0  0  0  0  0  0  0  0
   18.9974   -7.3142  -15.7325 O   0  0  0  0  0  0  0  0  0  0  0  0
   21.2126   -6.6614  -19.4544 O   0  0  0  0  0  0  0  0  0  0  0  0
   21.2186   -6.7618  -15.7028 N   0  0  0  0  0  0  0  0  0  0  0  0
   21.1142   -5.7860  -14.6350 C   0  0  1  0  0  0  0  0  0  0  0  0
   22.1621   -6.1723  -13.6188 C   0  0  0  0  0  0  0  0  0  0  0  0
   23.0130   -7.2710  -14.0992 C   0  0  0  0  0  0  0  0  0  0  0  0
   23.9824   -7.0633  -15.0346 C   0  0  0  0  0  0  0  0  0  0  0  0
   24.7927   -8.0839  -15.4868 C   0  0  0  0  0  0  0  0  0  0  0  0
   24.6107   -9.3593  -14.9705 C   0  0  0  0  0  0  0  0  0  0  0  0
   23.6405   -9.5967  -14.0266 C   0  0  0  0  0  0  0  0  0  0  0  0
   22.8509   -8.5547  -13.5989 C   0  0  0  0  0  0  0  0  0  0  0  0
   21.3840   -4.4152  -15.1007 C   0  0  0  0  0  0  0  0  0  0  0  0
   21.2895   -3.3713  -14.4526 O   0  0  0  0  0  0  0  0  0  0  0  0
   21.7984   -4.2754  -16.4406 O   0  0  0  0  0  0  0  0  0  0  0  0
  2  1  1  0
  3  5  1  0
  3  4  1  6
  3  2  1  0
  5  6  2  0
  7  8  1  0
  7  5  1  0
  8 12  1  0
  8  9  1  6
 10  9  1  0
 11 10  2  0
 12 13  2  0
 12 15  1  0
 14 10  1  0
 15 16  1  0
 16 24  1  0
 16 17  1  1
 18 17  1  0
 19 18  2  0
 20 19  1  0
 21 20  2  0
 21 22  1  0
 22 23  2  0
 23 18  1  0
 24 25  2  0
 24 26  1  0
M  END
$$$$
