SDF.pdb
     RDKit          3D

 26 26  0  0  1  0  0  0  0  0999 V2000
   15.1874  -10.6198  -13.9485 O   0  0  0  0  0  0  0  0  0  0  0  0
   15.2427  -10.9246  -15.2988 C   0  0  0  0  0  0  0  0  0  0  0  0
   16.4298  -11.8473  -15.6095 C   0  0  2  0  0  0  0  0  0  0  0  0
   16.5115  -12.8152  -14.5423 N   0  0  0  0  0  0  0  0  0  0  0  0
   17.6198  -10.9633  -15.6726 C   0  0  0  0  0  0  0  0  0  0  0  0
   18.7373  -11.5056  -15.4682 O   0  0  0  0  0  0  0  0  0  0  0  0
   17.4874   -9.5620  -15.9536 N   0  0  0  0  0  0  0  0  0  0  0  0
   18.6897   -8.7897  -16.0172 C   0  0  1  0  0  0  0  0  0  0  0  0
   18.6044   -7.7579  -17.1225 C   0  0  0  0  0  0  0  0  0  0  0  0
   19.9642   -7.3417  -17.5034 C   0  0  0  0  0  0  0  0  0  0  0  0
   20.2401   -7.2395  -18.7437 O   0  0  0  0  0  0  0  0  0  0  0  0
   18.8933   -7.9850  -14.7575 C   0  0  0  0  0  0  0  0  0  0  0  0
   18.0650   -8.0352  -13.8154 O   0  0  0  0  0  0  0  0  0  0  0  0
   20.9805   -7.0489  -16.6202 O   0  0  0  0  0  0  0  0  0  0  0  0
   20.0225   -7.1584  -14.6148 N   0  0  0  0  0  0  0  0  0  0  0  0
   20.3898   -6.4693  -13.3927 C   0  0  1  0  0  0  0  0  0  0  0  0
   20.7130   -7.5511  -12.3900 C   0  0  0  0  0  0  0  0  0  0  0  0
   21.0176   -6.9956  -11.0632 C   0  0  0  0  0  0  0  0  0  0  0  0
   22.2999   -6.7486  -10.6726 C   0  0  0  0  0  0  0  0  0  0  0  0
   22.5978   -6.2196   -9.4339 C   0  0  0  0  0  0  0  0  0  0  0  0
   21.5563   -5.9323   -8.5628 C   0  0  0  0  0  0  0  0  0  0  0  0
   20.2541   -6.1717   -8.9310 C   0  0  0  0  0  0  0  0  0  0  0  0
   19.9944   -6.6999  -10.1742 C   0  0  0  0  0  0  0  0  0  0  0  0
   21.5743   -5.6119  -13.5677 C   0  0  0  0  0  0  0  0  0  0  0  0
   21.8361   -4.5649  -12.9727 O   0  0  0  0  0  0  0  0  0  0  0  0
   22.5206   -6.0325  -14.5240 O   0  0  0  0  0  0  0  0  0  0  0  0
  2  1  1  0
  3  5  1  0
  3  4  1  1
  3  2  1  0
  5  6  2  0
  7  8  1  0
  7  5  1  0
  8 12  1  0
  8  9  1  6
 10  9  1  0
 11 10  2  0
 12 13  2  0
 12 15  1  0
 14 10  1  0
 15 16  1  0
 16 24  1  0
 16 17  1  1
 18 17  1  0
 19 18  2  0
 20 19  1  0
 21 20  2  0
 21 22  1  0
 22 23  2  0
 23 18  1  0
 24 25  2  0
 24 26  1  0
M  END
$$$$
