SDF.pdb
     RDKit          3D

 26 26  0  0  1  0  0  0  0  0999 V2000
   18.9700  -14.0154  -15.0520 O   0  0  0  0  0  0  0  0  0  0  0  0
   19.4684  -12.7861  -15.4516 C   0  0  0  0  0  0  0  0  0  0  0  0
   18.8736  -12.3601  -16.8014 C   0  0  2  0  0  0  0  0  0  0  0  0
   19.3935  -13.2603  -17.8023 N   0  0  0  0  0  0  0  0  0  0  0  0
   19.3126  -10.9581  -17.0093 C   0  0  0  0  0  0  0  0  0  0  0  0
   20.2491  -10.7757  -17.8304 O   0  0  0  0  0  0  0  0  0  0  0  0
   18.6908   -9.8748  -16.3022 N   0  0  0  0  0  0  0  0  0  0  0  0
   19.1534   -8.5524  -16.5909 C   0  0  1  0  0  0  0  0  0  0  0  0
   18.0060   -7.5646  -16.5523 C   0  0  0  0  0  0  0  0  0  0  0  0
   18.4829   -6.2494  -17.0108 C   0  0  0  0  0  0  0  0  0  0  0  0
   19.1709   -6.1956  -18.0826 O   0  0  0  0  0  0  0  0  0  0  0  0
   20.1146   -8.0637  -15.5359 C   0  0  0  0  0  0  0  0  0  0  0  0
   19.9342   -8.3288  -14.3220 O   0  0  0  0  0  0  0  0  0  0  0  0
   18.2458   -5.0526  -16.3705 O   0  0  0  0  0  0  0  0  0  0  0  0
   21.2378   -7.2971  -15.8956 N   0  0  0  0  0  0  0  0  0  0  0  0
   22.1884   -6.7368  -14.9545 C   0  0  1  0  0  0  0  0  0  0  0  0
   23.5510   -6.9443  -15.5712 C   0  0  0  0  0  0  0  0  0  0  0  0
   23.9078   -8.3687  -15.6461 C   0  0  0  0  0  0  0  0  0  0  0  0
   23.6808   -9.1006  -16.7734 C   0  0  0  0  0  0  0  0  0  0  0  0
   24.0190  -10.4352  -16.8591 C   0  0  0  0  0  0  0  0  0  0  0  0
   24.6076  -11.0464  -15.7608 C   0  0  0  0  0  0  0  0  0  0  0  0
   24.8474  -10.3321  -14.6115 C   0  0  0  0  0  0  0  0  0  0  0  0
   24.4971   -9.0028  -14.5620 C   0  0  0  0  0  0  0  0  0  0  0  0
   21.9779   -5.2957  -14.7368 C   0  0  0  0  0  0  0  0  0  0  0  0
   21.4774   -4.4849  -15.5184 O   0  0  0  0  0  0  0  0  0  0  0  0
   22.3949   -4.7790  -13.4935 O   0  0  0  0  0  0  0  0  0  0  0  0
  2  1  1  0
  3  5  1  0
  3  4  1  6
  3  2  1  0
  5  6  2  0
  7  8  1  0
  7  5  1  0
  8 12  1  0
  8  9  1  1
 10  9  1  0
 11 10  2  0
 12 13  2  0
 12 15  1  0
 14 10  1  0
 15 16  1  0
 16 24  1  0
 16 17  1  6
 18 17  1  0
 19 18  2  0
 20 19  1  0
 21 20  2  0
 21 22  1  0
 22 23  2  0
 23 18  1  0
 24 25  2  0
 24 26  1  0
M  END
$$$$
