SDF.pdb
     RDKit          3D

 26 26  0  0  1  0  0  0  0  0999 V2000
   15.7951  -13.5231    2.9094 O   0  0  0  0  0  0  0  0  0  0  0  0
   16.1911  -14.1896    4.0576 C   0  0  0  0  0  0  0  0  0  0  0  0
   15.2507  -15.3625    4.3687 C   0  0  2  0  0  0  0  0  0  0  0  0
   13.9744  -14.8017    4.7415 N   0  0  0  0  0  0  0  0  0  0  0  0
   15.8935  -16.1094    5.4781 C   0  0  0  0  0  0  0  0  0  0  0  0
   15.2024  -16.2845    6.5156 O   0  0  0  0  0  0  0  0  0  0  0  0
   17.2366  -16.6012    5.3593 N   0  0  0  0  0  0  0  0  0  0  0  0
   17.7576  -17.3563    6.4567 C   0  0  1  0  0  0  0  0  0  0  0  0
   17.9641  -18.8032    6.0598 C   0  0  0  0  0  0  0  0  0  0  0  0
   18.2818  -19.5946    7.2598 C   0  0  0  0  0  0  0  0  0  0  0  0
   19.1232  -20.5461    7.1513 O   0  0  0  0  0  0  0  0  0  0  0  0
   19.1285  -16.8700    6.8569 C   0  0  0  0  0  0  0  0  0  0  0  0
   20.0842  -16.8834    6.0428 O   0  0  0  0  0  0  0  0  0  0  0  0
   17.7388  -19.3923    8.5099 O   0  0  0  0  0  0  0  0  0  0  0  0
   19.3623  -16.3898    8.1582 N   0  0  0  0  0  0  0  0  0  0  0  0
   20.6415  -15.9054    8.6401 C   0  0  1  0  0  0  0  0  0  0  0  0
   20.4062  -14.4780    9.0725 C   0  0  0  0  0  0  0  0  0  0  0  0
   20.2382  -13.5773    7.9226 C   0  0  0  0  0  0  0  0  0  0  0  0
   19.0142  -13.3565    7.3648 C   0  0  0  0  0  0  0  0  0  0  0  0
   18.8423  -12.5073    6.2914 C   0  0  0  0  0  0  0  0  0  0  0  0
   19.9530  -11.8609    5.7672 C   0  0  0  0  0  0  0  0  0  0  0  0
   21.1988  -12.0657    6.3101 C   0  0  0  0  0  0  0  0  0  0  0  0
   21.3325  -12.9195    7.3803 C   0  0  0  0  0  0  0  0  0  0  0  0
   21.1346  -16.6778    9.7929 C   0  0  0  0  0  0  0  0  0  0  0  0
   20.5684  -17.6088   10.3687 O   0  0  0  0  0  0  0  0  0  0  0  0
   22.3987  -16.3149   10.2999 O   0  0  0  0  0  0  0  0  0  0  0  0
  2  1  1  0
  3  5  1  0
  3  4  1  1
  3  2  1  0
  5  6  2  0
  7  8  1  0
  7  5  1  0
  8 12  1  0
  8  9  1  6
 10  9  1  0
 11 10  2  0
 12 13  2  0
 12 15  1  0
 14 10  1  0
 15 16  1  0
 16 24  1  0
 16 17  1  1
 18 17  1  0
 19 18  2  0
 20 19  1  0
 21 20  2  0
 21 22  1  0
 22 23  2  0
 23 18  1  0
 24 25  2  0
 24 26  1  0
M  END
$$$$
