SDF.pdb
     RDKit          3D

 26 26  0  0  1  0  0  0  0  0999 V2000
   19.5191  -12.6493  -15.5632 O   0  0  0  0  0  0  0  0  0  0  0  0
   20.3651  -11.5746  -15.7838 C   0  0  0  0  0  0  0  0  0  0  0  0
   20.7668  -11.4811  -17.2627 C   0  0  2  0  0  0  0  0  0  0  0  0
   21.9076  -12.3442  -17.4527 N   0  0  0  0  0  0  0  0  0  0  0  0
   21.0844  -10.0517  -17.5030 C   0  0  0  0  0  0  0  0  0  0  0  0
   22.2589   -9.6826  -17.2404 O   0  0  0  0  0  0  0  0  0  0  0  0
   20.0915   -9.1475  -18.0097 N   0  0  0  0  0  0  0  0  0  0  0  0
   20.4922   -7.7929  -18.2343 C   0  0  1  0  0  0  0  0  0  0  0  0
   19.5476   -7.1093  -19.2008 C   0  0  0  0  0  0  0  0  0  0  0  0
   19.8282   -7.5795  -20.5674 C   0  0  0  0  0  0  0  0  0  0  0  0
   18.8848   -8.1333  -21.2220 O   0  0  0  0  0  0  0  0  0  0  0  0
   20.4023   -6.9761  -16.9691 C   0  0  0  0  0  0  0  0  0  0  0  0
   19.4013   -7.0566  -16.2156 O   0  0  0  0  0  0  0  0  0  0  0  0
   21.0423   -7.4710  -21.2098 O   0  0  0  0  0  0  0  0  0  0  0  0
   21.4452   -6.1038  -16.6086 N   0  0  0  0  0  0  0  0  0  0  0  0
   21.4597   -5.2885  -15.4093 C   0  0  1  0  0  0  0  0  0  0  0  0
   22.7967   -5.5411  -14.7545 C   0  0  0  0  0  0  0  0  0  0  0  0
   22.9581   -6.9490  -14.3627 C   0  0  0  0  0  0  0  0  0  0  0  0
   22.2605   -7.4817  -13.3200 C   0  0  0  0  0  0  0  0  0  0  0  0
   22.3967   -8.8031  -12.9482 C   0  0  0  0  0  0  0  0  0  0  0  0
   23.2725   -9.6101  -13.6609 C   0  0  0  0  0  0  0  0  0  0  0  0
   23.9886   -9.0986  -14.7164 C   0  0  0  0  0  0  0  0  0  0  0  0
   23.8273   -7.7762  -15.0590 C   0  0  0  0  0  0  0  0  0  0  0  0
   21.3386   -3.8515  -15.7075 C   0  0  0  0  0  0  0  0  0  0  0  0
   21.3117   -3.3160  -16.8172 O   0  0  0  0  0  0  0  0  0  0  0  0
   21.2419   -2.9845  -14.6004 O   0  0  0  0  0  0  0  0  0  0  0  0
  2  1  1  0
  3  5  1  0
  3  4  1  1
  3  2  1  0
  5  6  2  0
  7  8  1  0
  7  5  1  0
  8 12  1  0
  8  9  1  6
 10  9  1  0
 11 10  2  0
 12 13  2  0
 12 15  1  0
 14 10  1  0
 15 16  1  0
 16 24  1  0
 16 17  1  6
 18 17  1  0
 19 18  2  0
 20 19  1  0
 21 20  2  0
 21 22  1  0
 22 23  2  0
 23 18  1  0
 24 25  2  0
 24 26  1  0
M  END
$$$$
