SDF.pdb
     RDKit          3D

 26 26  0  0  1  0  0  0  0  0999 V2000
   18.7073  -15.5196  -17.6095 O   0  0  0  0  0  0  0  0  0  0  0  0
   19.1680  -14.2166  -17.7060 C   0  0  0  0  0  0  0  0  0  0  0  0
   18.0408  -13.2605  -18.1212 C   0  0  2  0  0  0  0  0  0  0  0  0
   17.9104  -13.3486  -19.5557 N   0  0  0  0  0  0  0  0  0  0  0  0
   18.4685  -11.9142  -17.6671 C   0  0  0  0  0  0  0  0  0  0  0  0
   19.1283  -11.2248  -18.4881 O   0  0  0  0  0  0  0  0  0  0  0  0
   18.1388  -11.4360  -16.3547 N   0  0  0  0  0  0  0  0  0  0  0  0
   18.6174  -10.1381  -15.9905 C   0  0  1  0  0  0  0  0  0  0  0  0
   17.8027   -9.5693  -14.8475 C   0  0  0  0  0  0  0  0  0  0  0  0
   16.3926   -9.4712  -15.2590 C   0  0  0  0  0  0  0  0  0  0  0  0
   15.5169  -10.0894  -14.5690 O   0  0  0  0  0  0  0  0  0  0  0  0
   20.0283  -10.2014  -15.4603 C   0  0  0  0  0  0  0  0  0  0  0  0
   20.5190  -11.2821  -15.0508 O   0  0  0  0  0  0  0  0  0  0  0  0
   15.9307   -8.7574  -16.3433 O   0  0  0  0  0  0  0  0  0  0  0  0
   20.8249   -9.0429  -15.4148 N   0  0  0  0  0  0  0  0  0  0  0  0
   22.2359   -9.0261  -15.0801 C   0  0  1  0  0  0  0  0  0  0  0  0
   22.9243   -9.8364  -16.1524 C   0  0  0  0  0  0  0  0  0  0  0  0
   24.3709   -9.9456  -15.9132 C   0  0  0  0  0  0  0  0  0  0  0  0
   24.8732  -10.7789  -14.9587 C   0  0  0  0  0  0  0  0  0  0  0  0
   26.2286  -10.8967  -14.7308 C   0  0  0  0  0  0  0  0  0  0  0  0
   27.1028  -10.1411  -15.4995 C   0  0  0  0  0  0  0  0  0  0  0  0
   26.6233   -9.2928  -16.4686 C   0  0  0  0  0  0  0  0  0  0  0  0
   25.2654   -9.2010  -16.6682 C   0  0  0  0  0  0  0  0  0  0  0  0
   22.7951   -7.6637  -15.0791 C   0  0  0  0  0  0  0  0  0  0  0  0
   22.5709   -6.7610  -15.8876 O   0  0  0  0  0  0  0  0  0  0  0  0
   23.6897   -7.3509  -14.0359 O   0  0  0  0  0  0  0  0  0  0  0  0
  2  1  1  0
  3  5  1  0
  3  4  1  6
  3  2  1  0
  5  6  2  0
  7  8  1  0
  7  5  1  0
  8 12  1  0
  8  9  1  1
 10  9  1  0
 11 10  2  0
 12 13  2  0
 12 15  1  0
 14 10  1  0
 15 16  1  0
 16 24  1  0
 16 17  1  6
 18 17  1  0
 19 18  2  0
 20 19  1  0
 21 20  2  0
 21 22  1  0
 22 23  2  0
 23 18  1  0
 24 25  2  0
 24 26  1  0
M  END
$$$$
