SDF.pdb
     RDKit          3D

 26 26  0  0  1  0  0  0  0  0999 V2000
   17.0879  -24.5379    1.3656 O   0  0  0  0  0  0  0  0  0  0  0  0
   16.5345  -23.3230    1.7358 C   0  0  0  0  0  0  0  0  0  0  0  0
   15.0320  -23.2812    1.4229 C   0  0  2  0  0  0  0  0  0  0  0  0
   14.8855  -23.4604   -0.0015 N   0  0  0  0  0  0  0  0  0  0  0  0
   14.5627  -21.9510    1.8835 C   0  0  0  0  0  0  0  0  0  0  0  0
   13.3188  -21.7576    1.8757 O   0  0  0  0  0  0  0  0  0  0  0  0
   15.4925  -20.9456    2.3132 N   0  0  0  0  0  0  0  0  0  0  0  0
   15.1340  -20.1681    3.4591 C   0  0  1  0  0  0  0  0  0  0  0  0
   14.9974  -21.0505    4.6823 C   0  0  0  0  0  0  0  0  0  0  0  0
   14.5465  -20.2340    5.8213 C   0  0  0  0  0  0  0  0  0  0  0  0
   13.6332  -19.3677    5.6203 O   0  0  0  0  0  0  0  0  0  0  0  0
   16.2197  -19.1836    3.8168 C   0  0  0  0  0  0  0  0  0  0  0  0
   17.3734  -19.5736    4.1220 O   0  0  0  0  0  0  0  0  0  0  0  0
   15.0350  -20.3270    7.1063 O   0  0  0  0  0  0  0  0  0  0  0  0
   15.9571  -17.8017    3.8150 N   0  0  0  0  0  0  0  0  0  0  0  0
   16.9476  -16.7747    4.0749 C   0  0  1  0  0  0  0  0  0  0  0  0
   16.6496  -15.6583    3.1028 C   0  0  0  0  0  0  0  0  0  0  0  0
   17.6961  -14.6256    3.1163 C   0  0  0  0  0  0  0  0  0  0  0  0
   18.8732  -14.7969    2.4508 C   0  0  0  0  0  0  0  0  0  0  0  0
   19.8590  -13.8320    2.4488 C   0  0  0  0  0  0  0  0  0  0  0  0
   19.6404  -12.6529    3.1476 C   0  0  0  0  0  0  0  0  0  0  0  0
   18.4628  -12.4543    3.8275 C   0  0  0  0  0  0  0  0  0  0  0  0
   17.5019  -13.4385    3.8074 C   0  0  0  0  0  0  0  0  0  0  0  0
   16.8610  -16.2477    5.4473 C   0  0  0  0  0  0  0  0  0  0  0  0
   15.8408  -15.9735    6.0819 O   0  0  0  0  0  0  0  0  0  0  0  0
   18.0823  -16.0303    6.1167 O   0  0  0  0  0  0  0  0  0  0  0  0
  2  1  1  0
  3  5  1  0
  3  4  1  6
  3  2  1  0
  5  6  2  0
  7  8  1  0
  7  5  1  0
  8 12  1  0
  8  9  1  1
 10  9  1  0
 11 10  2  0
 12 13  2  0
 12 15  1  0
 14 10  1  0
 15 16  1  0
 16 24  1  0
 16 17  1  6
 18 17  1  0
 19 18  2  0
 20 19  1  0
 21 20  2  0
 21 22  1  0
 22 23  2  0
 23 18  1  0
 24 25  2  0
 24 26  1  0
M  END
$$$$
