MVG.pdb
     RDKit          3D

 20 19  0  0  1  0  0  0  0  0999 V2000
    6.1353  -11.7396   26.1865 C   0  0  0  0  0  0  0  0  0  0  0  0
    7.3057  -12.4971   27.3361 S   0  0  0  0  0  0  0  0  0  0  0  0
    7.2793  -14.2991   27.2159 C   0  0  0  0  0  0  0  0  0  0  0  0
    7.8716  -14.7741   25.8993 C   0  0  0  0  0  0  0  0  0  0  0  0
    6.8844  -15.6130   25.1274 C   0  0  2  0  0  0  0  0  0  0  0  0
    6.6416  -16.8531   25.8259 N   0  0  0  0  0  0  0  0  0  0  0  0
    7.4157  -15.9283   23.7553 C   0  0  0  0  0  0  0  0  0  0  0  0
    7.6323  -17.1094   23.3948 O   0  0  0  0  0  0  0  0  0  0  0  0
    8.4275  -13.8836   19.3130 C   0  0  0  0  0  0  0  0  0  0  0  0
    7.9328  -13.8031   20.7385 C   0  0  1  0  0  0  0  0  0  0  0  0
    6.4797  -13.3939   20.8237 C   0  0  0  0  0  0  0  0  0  0  0  0
    8.2312  -15.0518   21.5286 C   0  0  2  0  0  0  0  0  0  0  0  0
    7.6823  -14.8953   22.8416 N   0  0  0  0  0  0  0  0  0  0  0  0
    9.6593  -15.4197   21.5276 C   0  0  0  0  0  0  0  0  0  0  0  0
   10.4622  -14.6261   22.0852 O   0  0  0  0  0  0  0  0  0  0  0  0
   10.1779  -16.5926   20.9474 N   0  0  0  0  0  0  0  0  0  0  0  0
   11.5887  -16.8769   21.0262 C   0  0  0  0  0  0  0  0  0  0  0  0
   12.0746  -17.3863   19.7216 C   0  0  0  0  0  0  0  0  0  0  0  0
   11.2784  -17.6989   18.8035 O   0  0  0  0  0  0  0  0  0  0  0  0
   13.4289  -17.5291   19.4867 O   0  0  0  0  0  0  0  0  0  0  0  0
  2  1  1  0
  3  2  1  0
  4  5  1  0
  4  3  1  0
  5  6  1  1
  7  5  1  0
  8  7  2  0
 10  9  1  6
 10 11  1  0
 12 10  1  0
 12 13  1  1
 13  7  1  0
 14 16  1  0
 14 12  1  0
 15 14  2  0
 17 18  1  0
 17 16  1  0
 18 20  1  0
 19 18  2  0
M  END
$$$$
