MVG.pdb
     RDKit          3D

 20 19  0  0  1  0  0  0  0  0999 V2000
    9.9193  -13.0759   28.1574 C   0  0  0  0  0  0  0  0  0  0  0  0
   10.3216  -14.5683   29.0935 S   0  0  0  0  0  0  0  0  0  0  0  0
    9.4881  -16.0199   28.4151 C   0  0  0  0  0  0  0  0  0  0  0  0
    9.0434  -15.7824   26.9813 C   0  0  0  0  0  0  0  0  0  0  0  0
    8.1518  -16.8969   26.4942 C   0  0  2  0  0  0  0  0  0  0  0  0
    8.6388  -18.1650   26.9835 N   0  0  0  0  0  0  0  0  0  0  0  0
    8.1278  -16.9374   24.9901 C   0  0  0  0  0  0  0  0  0  0  0  0
    8.0517  -18.0229   24.3675 O   0  0  0  0  0  0  0  0  0  0  0  0
    7.6131  -14.0217   20.9808 C   0  0  0  0  0  0  0  0  0  0  0  0
    7.4830  -14.3507   22.4498 C   0  0  1  0  0  0  0  0  0  0  0  0
    6.0509  -14.2901   22.9309 C   0  0  0  0  0  0  0  0  0  0  0  0
    8.1647  -15.6438   22.8183 C   0  0  2  0  0  0  0  0  0  0  0  0
    8.1908  -15.7477   24.2459 N   0  0  0  0  0  0  0  0  0  0  0  0
    9.4896  -15.8082   22.1918 C   0  0  0  0  0  0  0  0  0  0  0  0
    9.5253  -15.9473   20.9409 O   0  0  0  0  0  0  0  0  0  0  0  0
   10.7072  -15.8195   22.8978 N   0  0  0  0  0  0  0  0  0  0  0  0
   11.9583  -15.8572   22.1831 C   0  0  0  0  0  0  0  0  0  0  0  0
   12.4878  -17.2418   22.1650 C   0  0  0  0  0  0  0  0  0  0  0  0
   11.7875  -18.2151   22.5351 O   0  0  0  0  0  0  0  0  0  0  0  0
   13.7772  -17.4922   21.7358 O   0  0  0  0  0  0  0  0  0  0  0  0
  2  1  1  0
  3  2  1  0
  4  5  1  0
  4  3  1  0
  5  6  1  1
  7  5  1  0
  8  7  2  0
 10  9  1  6
 10 11  1  0
 12 10  1  0
 12 13  1  1
 13  7  1  0
 14 16  1  0
 14 12  1  0
 15 14  2  0
 17 18  1  0
 17 16  1  0
 18 20  1  0
 19 18  2  0
M  END
$$$$
