MVG.pdb
     RDKit          3D

 20 19  0  0  1  0  0  0  0  0999 V2000
    7.2888  -11.3620   26.5370 C   0  0  0  0  0  0  0  0  0  0  0  0
    6.6659  -12.4282   27.8562 S   0  0  0  0  0  0  0  0  0  0  0  0
    6.1583  -14.0406   27.2199 C   0  0  0  0  0  0  0  0  0  0  0  0
    7.0451  -14.4846   26.0683 C   0  0  0  0  0  0  0  0  0  0  0  0
    6.5457  -15.7704   25.4586 C   0  0  2  0  0  0  0  0  0  0  0  0
    6.6187  -16.8357   26.4304 N   0  0  0  0  0  0  0  0  0  0  0  0
    7.3788  -16.1492   24.2641 C   0  0  0  0  0  0  0  0  0  0  0  0
    7.8425  -17.3065   24.1323 O   0  0  0  0  0  0  0  0  0  0  0  0
    8.6805  -14.6547   19.7016 C   0  0  0  0  0  0  0  0  0  0  0  0
    7.9327  -14.4942   21.0047 C   0  0  1  0  0  0  0  0  0  0  0  0
    6.4331  -14.5538   20.8216 C   0  0  0  0  0  0  0  0  0  0  0  0
    8.4242  -15.4338   22.0763 C   0  0  2  0  0  0  0  0  0  0  0  0
    7.6564  -15.2042   23.2626 N   0  0  0  0  0  0  0  0  0  0  0  0
    9.8809  -15.3639   22.2951 C   0  0  0  0  0  0  0  0  0  0  0  0
   10.3102  -14.4512   23.0488 O   0  0  0  0  0  0  0  0  0  0  0  0
   10.8147  -16.2459   21.7195 N   0  0  0  0  0  0  0  0  0  0  0  0
   12.2264  -16.0424   21.9270 C   0  0  0  0  0  0  0  0  0  0  0  0
   12.6947  -16.8727   23.0622 C   0  0  0  0  0  0  0  0  0  0  0  0
   12.2698  -16.6865   24.2282 O   0  0  0  0  0  0  0  0  0  0  0  0
   13.6186  -17.8799   22.8582 O   0  0  0  0  0  0  0  0  0  0  0  0
  2  1  1  0
  3  2  1  0
  4  5  1  0
  4  3  1  0
  5  6  1  1
  7  5  1  0
  8  7  2  0
 10  9  1  6
 10 11  1  0
 12 10  1  0
 12 13  1  1
 13  7  1  0
 14 16  1  0
 14 12  1  0
 15 14  2  0
 17 18  1  0
 17 16  1  0
 18 20  1  0
 19 18  2  0
M  END
$$$$
