MVG.pdb
     RDKit          3D

 20 19  0  0  1  0  0  0  0  0999 V2000
    7.6054  -12.1030   28.2086 C   0  0  0  0  0  0  0  0  0  0  0  0
    6.6206  -11.5502   26.7981 S   0  0  0  0  0  0  0  0  0  0  0  0
    5.9727  -12.9478   25.8549 C   0  0  0  0  0  0  0  0  0  0  0  0
    7.0481  -13.9922   25.6050 C   0  0  0  0  0  0  0  0  0  0  0  0
    6.5044  -15.1589   24.8191 C   0  0  2  0  0  0  0  0  0  0  0  0
    5.3836  -15.7421   25.5178 N   0  0  0  0  0  0  0  0  0  0  0  0
    7.5616  -16.2142   24.6374 C   0  0  0  0  0  0  0  0  0  0  0  0
    7.5912  -17.2394   25.3586 O   0  0  0  0  0  0  0  0  0  0  0  0
    8.8522  -17.0198   20.9356 C   0  0  0  0  0  0  0  0  0  0  0  0
    9.9930  -16.8145   21.9048 C   0  0  1  0  0  0  0  0  0  0  0  0
   10.7107  -15.5023   21.6831 C   0  0  0  0  0  0  0  0  0  0  0  0
    9.5790  -17.0139   23.3405 C   0  0  2  0  0  0  0  0  0  0  0  0
    8.5465  -16.0705   23.6462 N   0  0  0  0  0  0  0  0  0  0  0  0
   10.7087  -16.9777   24.2877 C   0  0  0  0  0  0  0  0  0  0  0  0
   11.1139  -15.8461   24.6627 O   0  0  0  0  0  0  0  0  0  0  0  0
   11.3578  -18.1188   24.7953 N   0  0  0  0  0  0  0  0  0  0  0  0
   12.4101  -17.9798   25.7704 C   0  0  0  0  0  0  0  0  0  0  0  0
   12.0874  -18.7764   26.9783 C   0  0  0  0  0  0  0  0  0  0  0  0
   10.9925  -19.3791   27.0915 O   0  0  0  0  0  0  0  0  0  0  0  0
   12.9950  -18.8729   28.0158 O   0  0  0  0  0  0  0  0  0  0  0  0
  2  1  1  0
  3  2  1  0
  4  5  1  0
  4  3  1  0
  5  6  1  1
  7  5  1  0
  8  7  2  0
 10  9  1  6
 10 11  1  0
 12 10  1  0
 12 13  1  1
 13  7  1  0
 14 16  1  0
 14 12  1  0
 15 14  2  0
 17 18  1  0
 17 16  1  0
 18 20  1  0
 19 18  2  0
M  END
$$$$
