MVG.pdb
     RDKit          3D

 20 19  0  0  1  0  0  0  0  0999 V2000
    5.4337  -11.2113   26.5992 C   0  0  0  0  0  0  0  0  0  0  0  0
    6.8394  -12.1258   27.2721 S   0  0  0  0  0  0  0  0  0  0  0  0
    6.7253  -13.8880   26.8929 C   0  0  0  0  0  0  0  0  0  0  0  0
    6.9257  -14.1482   25.4089 C   0  0  0  0  0  0  0  0  0  0  0  0
    6.7579  -15.6112   25.0834 C   0  0  2  0  0  0  0  0  0  0  0  0
    7.6992  -16.3954   25.8473 N   0  0  0  0  0  0  0  0  0  0  0  0
    6.9997  -15.8593   23.6191 C   0  0  0  0  0  0  0  0  0  0  0  0
    6.0648  -16.1829   22.8488 O   0  0  0  0  0  0  0  0  0  0  0  0
    6.5008  -14.1096   21.6689 C   0  0  0  0  0  0  0  0  0  0  0  0
    7.9673  -14.1697   21.3103 C   0  0  1  0  0  0  0  0  0  0  0  0
    8.7342  -12.9662   21.8098 C   0  0  0  0  0  0  0  0  0  0  0  0
    8.6102  -15.4737   21.7088 C   0  0  2  0  0  0  0  0  0  0  0  0
    8.2906  -15.7322   23.0802 N   0  0  0  0  0  0  0  0  0  0  0  0
   10.0555  -15.5278   21.4208 C   0  0  0  0  0  0  0  0  0  0  0  0
   10.4079  -15.4695   20.2134 O   0  0  0  0  0  0  0  0  0  0  0  0
   11.0582  -15.6397   22.4022 N   0  0  0  0  0  0  0  0  0  0  0  0
   12.4407  -15.7652   22.0140 C   0  0  0  0  0  0  0  0  0  0  0  0
   12.8467  -17.1905   22.0465 C   0  0  0  0  0  0  0  0  0  0  0  0
   12.0985  -18.0944   21.6016 O   0  0  0  0  0  0  0  0  0  0  0  0
   14.0705  -17.5576   22.5730 O   0  0  0  0  0  0  0  0  0  0  0  0
  2  1  1  0
  3  2  1  0
  4  5  1  0
  4  3  1  0
  5  6  1  1
  7  5  1  0
  8  7  2  0
 10  9  1  1
 10 11  1  0
 12 10  1  0
 12 13  1  1
 13  7  1  0
 14 16  1  0
 14 12  1  0
 15 14  2  0
 17 18  1  0
 17 16  1  0
 18 20  1  0
 19 18  2  0
M  END
$$$$
