QYF.pdb
     RDKit          3D

 33 34  0  0  1  0  0  0  0  0999 V2000
    3.9743  -21.8271   21.5069 N   0  0  0  0  0  0  0  0  0  0  0  0
    4.5824  -21.2748   20.3627 C   0  0  0  0  0  0  0  0  0  0  0  0
    4.4078  -21.8698   19.2665 O   0  0  0  0  0  0  0  0  0  0  0  0
    5.3867  -20.0391   20.4981 C   0  0  0  0  0  0  0  0  0  0  0  0
    5.2831  -19.4535   21.8903 C   0  0  0  0  0  0  0  0  0  0  0  0
    6.0990  -18.2035   22.0391 C   0  0  2  0  0  0  0  0  0  0  0  0
    7.3918  -18.3264   21.3905 N   0  0  0  0  0  0  0  0  0  0  0  0
    6.2323  -17.8574   23.4734 C   0  0  0  0  0  0  0  0  0  0  0  0
    5.3341  -18.2027   24.2588 O   0  0  0  0  0  0  0  0  0  0  0  0
    6.7614  -22.7728   28.7701 O   0  0  0  0  0  0  0  0  0  0  0  0
    7.1686  -21.7874   27.8706 C   0  0  0  0  0  0  0  0  0  0  0  0
    7.9003  -22.1714   26.7704 C   0  0  0  0  0  0  0  0  0  0  0  0
    8.3285  -21.2235   25.8456 C   0  0  0  0  0  0  0  0  0  0  0  0
    8.0416  -19.8897   25.9927 C   0  0  0  0  0  0  0  0  0  0  0  0
    8.4735  -18.9071   25.0263 C   0  0  0  0  0  0  0  0  0  0  0  0
    8.0380  -17.4850   25.2137 C   0  0  2  0  0  0  0  0  0  0  0  0
    7.3415  -17.1548   23.9556 N   0  0  0  0  0  0  0  0  0  0  0  0
    9.1254  -16.5537   25.4650 C   0  0  0  0  0  0  0  0  0  0  0  0
   10.3140  -17.0431   25.3746 O   0  0  0  0  0  0  0  0  0  0  0  0
    7.2960  -19.5322   27.1223 C   0  0  0  0  0  0  0  0  0  0  0  0
    6.8630  -20.4561   28.0497 C   0  0  0  0  0  0  0  0  0  0  0  0
    9.0495  -15.1785   25.7890 N   0  0  0  0  0  0  0  0  0  0  0  0
    9.6747  -14.6557   27.0067 C   0  0  1  0  0  0  0  0  0  0  0  0
    8.5504  -14.0472   27.8287 C   0  0  0  0  0  0  0  0  0  0  0  0
    7.6751  -13.1405   27.0868 C   0  0  0  0  0  0  0  0  0  0  0  0
    8.0978  -11.8315   26.8253 C   0  0  0  0  0  0  0  0  0  0  0  0
    7.2766  -10.9920   26.1175 C   0  0  0  0  0  0  0  0  0  0  0  0
    6.0543  -11.4189   25.6667 C   0  0  0  0  0  0  0  0  0  0  0  0
    5.6374  -12.7147   25.9263 C   0  0  0  0  0  0  0  0  0  0  0  0
    6.4485  -13.5785   26.6377 C   0  0  0  0  0  0  0  0  0  0  0  0
   10.3326  -15.6953   27.8133 C   0  0  0  0  0  0  0  0  0  0  0  0
   11.0662  -15.4045   28.8109 O   0  0  0  0  0  0  0  0  0  0  0  0
   10.2084  -17.0466   27.5575 O   0  0  0  0  0  0  0  0  0  0  0  0
  2  1  1  0
  3  2  2  0
  4  2  1  0
  5  4  1  0
  6  5  1  0
  6  7  1  1
  8  6  1  0
  8  9  2  0
 10 11  1  0
 11 12  2  0
 12 13  1  0
 14 13  2  0
 14 15  1  0
 16 15  1  6
 16 17  1  0
 17  8  1  0
 18 16  1  0
 19 18  2  0
 20 14  1  0
 21 20  2  0
 21 11  1  0
 22 18  1  0
 23 24  1  1
 23 22  1  0
 24 25  1  0
 25 26  2  0
 26 27  1  0
 28 27  2  0
 29 28  1  0
 30 25  1  0
 30 29  2  0
 31 33  1  0
 31 23  1  0
 32 31  2  0
M  END
$$$$
