QYF.pdb
     RDKit          3D

 33 34  0  0  1  0  0  0  0  0999 V2000
    9.0569  -12.6134   18.0659 N   0  0  0  0  0  0  0  0  0  0  0  0
    8.4786  -13.5103   17.1465 C   0  0  0  0  0  0  0  0  0  0  0  0
    9.0825  -13.6968   16.0572 O   0  0  0  0  0  0  0  0  0  0  0  0
    7.2068  -14.1828   17.4967 C   0  0  0  0  0  0  0  0  0  0  0  0
    6.9689  -14.1870   18.9918 C   0  0  0  0  0  0  0  0  0  0  0  0
    7.8526  -15.1699   19.7012 C   0  0  2  0  0  0  0  0  0  0  0  0
    7.9987  -16.4016   18.9471 N   0  0  0  0  0  0  0  0  0  0  0  0
    7.3348  -15.4176   21.0670 C   0  0  0  0  0  0  0  0  0  0  0  0
    6.9278  -14.4542   21.7371 O   0  0  0  0  0  0  0  0  0  0  0  0
    1.5058  -19.2886   20.1700 O   0  0  0  0  0  0  0  0  0  0  0  0
    2.7227  -19.0716   20.8165 C   0  0  0  0  0  0  0  0  0  0  0  0
    2.7011  -18.7363   22.1508 C   0  0  0  0  0  0  0  0  0  0  0  0
    3.8903  -18.5103   22.8377 C   0  0  0  0  0  0  0  0  0  0  0  0
    5.1117  -18.6121   22.2205 C   0  0  0  0  0  0  0  0  0  0  0  0
    6.3468  -18.3915   22.9360 C   0  0  0  0  0  0  0  0  0  0  0  0
    6.8927  -16.9969   23.0004 C   0  0  2  0  0  0  0  0  0  0  0  0
    7.2960  -16.7054   21.6114 N   0  0  0  0  0  0  0  0  0  0  0  0
    8.0135  -16.8339   23.9116 C   0  0  0  0  0  0  0  0  0  0  0  0
    9.1546  -17.2427   23.4743 O   0  0  0  0  0  0  0  0  0  0  0  0
    5.0988  -18.9544   20.8632 C   0  0  0  0  0  0  0  0  0  0  0  0
    3.9317  -19.1819   20.1654 C   0  0  0  0  0  0  0  0  0  0  0  0
    8.0165  -16.2787   25.2130 N   0  0  0  0  0  0  0  0  0  0  0  0
    9.2652  -16.1272   25.9646 C   0  0  1  0  0  0  0  0  0  0  0  0
    9.5109  -14.6314   26.0745 C   0  0  0  0  0  0  0  0  0  0  0  0
    8.3445  -13.8509   26.4855 C   0  0  0  0  0  0  0  0  0  0  0  0
    8.1629  -13.5398   27.8387 C   0  0  0  0  0  0  0  0  0  0  0  0
    7.0737  -12.7963   28.2139 C   0  0  0  0  0  0  0  0  0  0  0  0
    6.1672  -12.3575   27.2837 C   0  0  0  0  0  0  0  0  0  0  0  0
    6.3484  -12.6662   25.9449 C   0  0  0  0  0  0  0  0  0  0  0  0
    7.4389  -13.4144   25.5436 C   0  0  0  0  0  0  0  0  0  0  0  0
    9.1972  -16.6899   27.3221 C   0  0  0  0  0  0  0  0  0  0  0  0
   10.1794  -16.6171   28.1271 O   0  0  0  0  0  0  0  0  0  0  0  0
    8.0813  -17.3306   27.8232 O   0  0  0  0  0  0  0  0  0  0  0  0
  2  1  1  0
  3  2  2  0
  4  2  1  0
  5  4  1  0
  6  5  1  0
  6  7  1  6
  8  6  1  0
  8  9  2  0
 10 11  1  0
 11 12  2  0
 12 13  1  0
 14 13  2  0
 14 15  1  0
 16 15  1  6
 16 17  1  0
 17  8  1  0
 18 16  1  0
 19 18  2  0
 20 14  1  0
 21 20  2  0
 21 11  1  0
 22 18  1  0
 23 24  1  1
 23 22  1  0
 24 25  1  0
 25 26  2  0
 26 27  1  0
 28 27  2  0
 29 28  1  0
 30 25  1  0
 30 29  2  0
 31 33  1  0
 31 23  1  0
 32 31  2  0
M  END
$$$$
