QYF.pdb
     RDKit          3D

 33 34  0  0  1  0  0  0  0  0999 V2000
    6.2316  -21.0841   26.5770 N   0  0  0  0  0  0  0  0  0  0  0  0
    6.1205  -21.1354   25.1737 C   0  0  0  0  0  0  0  0  0  0  0  0
    5.2278  -21.8790   24.6876 O   0  0  0  0  0  0  0  0  0  0  0  0
    7.0437  -20.3256   24.3466 C   0  0  0  0  0  0  0  0  0  0  0  0
    6.3241  -19.1858   23.6573 C   0  0  0  0  0  0  0  0  0  0  0  0
    6.7910  -18.9955   22.2445 C   0  0  2  0  0  0  0  0  0  0  0  0
    7.1747  -20.2545   21.6322 N   0  0  0  0  0  0  0  0  0  0  0  0
    7.8929  -18.0060   22.2078 C   0  0  0  0  0  0  0  0  0  0  0  0
    9.0366  -18.3935   21.9166 O   0  0  0  0  0  0  0  0  0  0  0  0
    7.7172  -13.7076   16.5722 O   0  0  0  0  0  0  0  0  0  0  0  0
    7.8044  -13.8397   17.9582 C   0  0  0  0  0  0  0  0  0  0  0  0
    8.4101  -14.9647   18.4688 C   0  0  0  0  0  0  0  0  0  0  0  0
    8.5203  -15.1400   19.8452 C   0  0  0  0  0  0  0  0  0  0  0  0
    8.0370  -14.2116   20.7326 C   0  0  0  0  0  0  0  0  0  0  0  0
    8.1633  -14.3860   22.1608 C   0  0  0  0  0  0  0  0  0  0  0  0
    8.7520  -15.6662   22.6722 C   0  0  2  0  0  0  0  0  0  0  0  0
    7.6713  -16.6545   22.4924 N   0  0  0  0  0  0  0  0  0  0  0  0
    9.1833  -15.6151   24.0594 C   0  0  0  0  0  0  0  0  0  0  0  0
   10.2525  -14.9334   24.2886 O   0  0  0  0  0  0  0  0  0  0  0  0
    7.4265  -13.0791   20.1809 C   0  0  0  0  0  0  0  0  0  0  0  0
    7.3075  -12.8874   18.8208 C   0  0  0  0  0  0  0  0  0  0  0  0
    8.5787  -16.2103   25.1918 N   0  0  0  0  0  0  0  0  0  0  0  0
    9.1641  -16.0571   26.5263 C   0  0  1  0  0  0  0  0  0  0  0  0
    8.0934  -15.4005   27.3821 C   0  0  0  0  0  0  0  0  0  0  0  0
    7.7572  -14.0315   26.9934 C   0  0  0  0  0  0  0  0  0  0  0  0
    6.5559  -13.7794   26.3197 C   0  0  0  0  0  0  0  0  0  0  0  0
    6.2421  -12.4911   25.9707 C   0  0  0  0  0  0  0  0  0  0  0  0
    7.0872  -11.4547   26.2729 C   0  0  0  0  0  0  0  0  0  0  0  0
    8.2757  -11.7058   26.9397 C   0  0  0  0  0  0  0  0  0  0  0  0
    8.6127  -12.9964   27.3014 C   0  0  0  0  0  0  0  0  0  0  0  0
    9.5372  -17.3377   27.1467 C   0  0  0  0  0  0  0  0  0  0  0  0
    9.3109  -18.4505   26.5735 O   0  0  0  0  0  0  0  0  0  0  0  0
   10.1527  -17.4333   28.3791 O   0  0  0  0  0  0  0  0  0  0  0  0
  2  1  1  0
  3  2  2  0
  4  2  1  0
  5  4  1  0
  6  5  1  0
  6  7  1  1
  8  6  1  0
  8  9  2  0
 10 11  1  0
 11 12  2  0
 12 13  1  0
 14 13  2  0
 14 15  1  0
 16 15  1  1
 16 17  1  0
 17  8  1  0
 18 16  1  0
 19 18  2  0
 20 14  1  0
 21 20  2  0
 21 11  1  0
 22 18  1  0
 23 24  1  1
 23 22  1  0
 24 25  1  0
 25 26  2  0
 26 27  1  0
 28 27  2  0
 29 28  1  0
 30 25  1  0
 30 29  2  0
 31 33  1  0
 31 23  1  0
 32 31  2  0
M  END
$$$$
