QYF.pdb
     RDKit          3D

 33 34  0  0  1  0  0  0  0  0999 V2000
   11.4424  -19.5426   17.6632 N   0  0  0  0  0  0  0  0  0  0  0  0
   10.0866  -19.9212   17.6130 C   0  0  0  0  0  0  0  0  0  0  0  0
    9.7671  -20.8350   16.8074 O   0  0  0  0  0  0  0  0  0  0  0  0
    9.1135  -19.2384   18.4958 C   0  0  0  0  0  0  0  0  0  0  0  0
    9.7558  -18.1040   19.2655 C   0  0  0  0  0  0  0  0  0  0  0  0
    9.5750  -18.2535   20.7471 C   0  0  2  0  0  0  0  0  0  0  0  0
    8.2193  -18.6473   21.0850 N   0  0  0  0  0  0  0  0  0  0  0  0
    9.9722  -17.0010   21.4313 C   0  0  0  0  0  0  0  0  0  0  0  0
   11.1340  -16.5846   21.2915 O   0  0  0  0  0  0  0  0  0  0  0  0
    7.0079  -13.4725   17.0725 O   0  0  0  0  0  0  0  0  0  0  0  0
    7.3447  -13.5951   18.4206 C   0  0  0  0  0  0  0  0  0  0  0  0
    6.6911  -14.5446   19.1720 C   0  0  0  0  0  0  0  0  0  0  0  0
    6.9937  -14.7033   20.5212 C   0  0  0  0  0  0  0  0  0  0  0  0
    7.9414  -13.9313   21.1447 C   0  0  0  0  0  0  0  0  0  0  0  0
    8.2659  -14.1048   22.5413 C   0  0  0  0  0  0  0  0  0  0  0  0
    9.4016  -15.0150   22.9004 C   0  0  2  0  0  0  0  0  0  0  0  0
    9.0707  -16.2844   22.2253 N   0  0  0  0  0  0  0  0  0  0  0  0
    9.5784  -15.2174   24.3290 C   0  0  0  0  0  0  0  0  0  0  0  0
   10.2532  -14.3081   24.9440 O   0  0  0  0  0  0  0  0  0  0  0  0
    8.5875  -12.9748   20.3527 C   0  0  0  0  0  0  0  0  0  0  0  0
    8.3017  -12.8022   19.0149 C   0  0  0  0  0  0  0  0  0  0  0  0
    9.1006  -16.2786   25.1335 N   0  0  0  0  0  0  0  0  0  0  0  0
    9.4433  -16.3591   26.5559 C   0  0  1  0  0  0  0  0  0  0  0  0
    8.2146  -15.8812   27.3121 C   0  0  0  0  0  0  0  0  0  0  0  0
    7.9085  -14.4614   27.1421 C   0  0  0  0  0  0  0  0  0  0  0  0
    6.6791  -14.0805   26.5904 C   0  0  0  0  0  0  0  0  0  0  0  0
    6.3947  -12.7469   26.4468 C   0  0  0  0  0  0  0  0  0  0  0  0
    7.2958  -11.7896   26.8354 C   0  0  0  0  0  0  0  0  0  0  0  0
    8.5120  -12.1681   27.3812 C   0  0  0  0  0  0  0  0  0  0  0  0
    8.8203  -13.5065   27.5355 C   0  0  0  0  0  0  0  0  0  0  0  0
    9.7622  -17.7250   26.9995 C   0  0  0  0  0  0  0  0  0  0  0  0
   10.0821  -17.9803   28.2038 O   0  0  0  0  0  0  0  0  0  0  0  0
    9.7398  -18.8206   26.1593 O   0  0  0  0  0  0  0  0  0  0  0  0
  2  1  1  0
  3  2  2  0
  4  2  1  0
  5  4  1  0
  6  5  1  0
  6  7  1  6
  8  6  1  0
  8  9  2  0
 10 11  1  0
 11 12  2  0
 12 13  1  0
 14 13  2  0
 14 15  1  0
 16 15  1  1
 16 17  1  0
 17  8  1  0
 18 16  1  0
 19 18  2  0
 20 14  1  0
 21 20  2  0
 21 11  1  0
 22 18  1  0
 23 24  1  1
 23 22  1  0
 24 25  1  0
 25 26  2  0
 26 27  1  0
 28 27  2  0
 29 28  1  0
 30 25  1  0
 30 29  2  0
 31 33  1  0
 31 23  1  0
 32 31  2  0
M  END
$$$$
