QYF.pdb
     RDKit          3D

 33 34  0  0  1  0  0  0  0  0999 V2000
   11.2297  -16.6143   15.9063 N   0  0  0  0  0  0  0  0  0  0  0  0
   11.5992  -17.9467   16.1751 C   0  0  0  0  0  0  0  0  0  0  0  0
   12.1144  -18.6085   15.2356 O   0  0  0  0  0  0  0  0  0  0  0  0
   11.3690  -18.5004   17.5289 C   0  0  0  0  0  0  0  0  0  0  0  0
   10.7970  -17.4608   18.4692 C   0  0  0  0  0  0  0  0  0  0  0  0
   10.9201  -17.8712   19.9067 C   0  0  2  0  0  0  0  0  0  0  0  0
    9.9471  -18.8892   20.2592 N   0  0  0  0  0  0  0  0  0  0  0  0
   10.8132  -16.6799   20.7809 C   0  0  0  0  0  0  0  0  0  0  0  0
   11.6712  -15.7871   20.6842 O   0  0  0  0  0  0  0  0  0  0  0  0
    7.0296  -13.3713   16.8431 O   0  0  0  0  0  0  0  0  0  0  0  0
    7.2889  -13.7911   18.1479 C   0  0  0  0  0  0  0  0  0  0  0  0
    7.9785  -12.9406   18.9813 C   0  0  0  0  0  0  0  0  0  0  0  0
    8.2603  -13.3163   20.2915 C   0  0  0  0  0  0  0  0  0  0  0  0
    7.8669  -14.5305   20.7954 C   0  0  0  0  0  0  0  0  0  0  0  0
    8.1466  -14.9154   22.1590 C   0  0  0  0  0  0  0  0  0  0  0  0
    9.5446  -15.3273   22.5098 C   0  0  2  0  0  0  0  0  0  0  0  0
    9.7725  -16.5430   21.7055 N   0  0  0  0  0  0  0  0  0  0  0  0
    9.7538  -15.5933   23.9235 C   0  0  0  0  0  0  0  0  0  0  0  0
   10.6917  -16.4317   24.2027 O   0  0  0  0  0  0  0  0  0  0  0  0
    7.1677  -15.3721   19.9221 C   0  0  0  0  0  0  0  0  0  0  0  0
    6.8792  -15.0183   18.6211 C   0  0  0  0  0  0  0  0  0  0  0  0
    9.0670  -15.0467   25.0332 N   0  0  0  0  0  0  0  0  0  0  0  0
    8.9552  -15.7902   26.2909 C   0  0  1  0  0  0  0  0  0  0  0  0
    7.5903  -15.4452   26.8634 C   0  0  0  0  0  0  0  0  0  0  0  0
    7.3303  -14.0124   26.9977 C   0  0  0  0  0  0  0  0  0  0  0  0
    6.0637  -13.5069   26.6801 C   0  0  0  0  0  0  0  0  0  0  0  0
    5.8244  -12.1643   26.8216 C   0  0  0  0  0  0  0  0  0  0  0  0
    6.8062  -11.3179   27.2678 C   0  0  0  0  0  0  0  0  0  0  0  0
    8.0593  -11.8197   27.5817 C   0  0  0  0  0  0  0  0  0  0  0  0
    8.3233  -13.1696   27.4469 C   0  0  0  0  0  0  0  0  0  0  0  0
    9.0310  -17.2484   26.1115 C   0  0  0  0  0  0  0  0  0  0  0  0
    9.4915  -18.0116   27.0189 O   0  0  0  0  0  0  0  0  0  0  0  0
    8.6152  -17.8947   24.9642 O   0  0  0  0  0  0  0  0  0  0  0  0
  2  1  1  0
  3  2  2  0
  4  2  1  0
  5  4  1  0
  6  5  1  0
  6  7  1  1
  8  6  1  0
  8  9  2  0
 10 11  1  0
 11 12  2  0
 12 13  1  0
 14 13  2  0
 14 15  1  0
 16 15  1  1
 16 17  1  0
 17  8  1  0
 18 16  1  0
 19 18  2  0
 20 14  1  0
 21 20  2  0
 21 11  1  0
 22 18  1  0
 23 24  1  6
 23 22  1  0
 24 25  1  0
 25 26  2  0
 26 27  1  0
 28 27  2  0
 29 28  1  0
 30 25  1  0
 30 29  2  0
 31 33  1  0
 31 23  1  0
 32 31  2  0
M  END
$$$$
