QYF.pdb
     RDKit          3D

 33 34  0  0  1  0  0  0  0  0999 V2000
    9.9214  -13.8746   20.0705 N   0  0  0  0  0  0  0  0  0  0  0  0
    8.8828  -13.4607   19.2137 C   0  0  0  0  0  0  0  0  0  0  0  0
    9.2017  -13.0672   18.0606 O   0  0  0  0  0  0  0  0  0  0  0  0
    7.4849  -13.5062   19.6998 C   0  0  0  0  0  0  0  0  0  0  0  0
    7.4014  -14.0366   21.1153 C   0  0  0  0  0  0  0  0  0  0  0  0
    7.4036  -15.5361   21.1573 C   0  0  2  0  0  0  0  0  0  0  0  0
    6.5229  -16.1022   20.1519 N   0  0  0  0  0  0  0  0  0  0  0  0
    7.0562  -16.0017   22.5201 C   0  0  0  0  0  0  0  0  0  0  0  0
    6.1703  -15.4012   23.1505 O   0  0  0  0  0  0  0  0  0  0  0  0
    8.1507  -21.6587   29.4575 O   0  0  0  0  0  0  0  0  0  0  0  0
    8.1527  -20.9969   28.2295 C   0  0  0  0  0  0  0  0  0  0  0  0
    6.9439  -20.6240   27.6881 C   0  0  0  0  0  0  0  0  0  0  0  0
    6.8963  -19.9615   26.4650 C   0  0  0  0  0  0  0  0  0  0  0  0
    8.0356  -19.6587   25.7626 C   0  0  0  0  0  0  0  0  0  0  0  0
    7.9880  -18.9589   24.5001 C   0  0  0  0  0  0  0  0  0  0  0  0
    7.4400  -17.5638   24.4798 C   0  0  2  0  0  0  0  0  0  0  0  0
    7.7018  -17.0959   23.1052 N   0  0  0  0  0  0  0  0  0  0  0  0
    8.0410  -16.6699   25.4558 C   0  0  0  0  0  0  0  0  0  0  0  0
    7.5251  -16.7013   26.6362 O   0  0  0  0  0  0  0  0  0  0  0  0
    9.2485  -20.0519   26.3405 C   0  0  0  0  0  0  0  0  0  0  0  0
    9.3164  -20.7091   27.5507 C   0  0  0  0  0  0  0  0  0  0  0  0
    9.1229  -15.7748   25.2810 N   0  0  0  0  0  0  0  0  0  0  0  0
    9.6917  -15.0489   26.4196 C   0  0  1  0  0  0  0  0  0  0  0  0
    8.5159  -14.6622   27.3015 C   0  0  0  0  0  0  0  0  0  0  0  0
    7.6663  -13.6048   26.7551 C   0  0  0  0  0  0  0  0  0  0  0  0
    6.2777  -13.6799   26.9188 C   0  0  0  0  0  0  0  0  0  0  0  0
    5.4894  -12.6775   26.4150 C   0  0  0  0  0  0  0  0  0  0  0  0
    6.0437  -11.6099   25.7574 C   0  0  0  0  0  0  0  0  0  0  0  0
    7.4182  -11.5369   25.5963 C   0  0  0  0  0  0  0  0  0  0  0  0
    8.2324  -12.5357   26.0958 C   0  0  0  0  0  0  0  0  0  0  0  0
   10.6258  -15.8595   27.2162 C   0  0  0  0  0  0  0  0  0  0  0  0
   10.8569  -17.0795   26.9403 O   0  0  0  0  0  0  0  0  0  0  0  0
   11.3152  -15.3698   28.3079 O   0  0  0  0  0  0  0  0  0  0  0  0
  2  1  1  0
  3  2  2  0
  4  2  1  0
  5  4  1  0
  6  5  1  0
  6  7  1  6
  8  6  1  0
  8  9  2  0
 10 11  1  0
 11 12  2  0
 12 13  1  0
 14 13  2  0
 14 15  1  0
 16 15  1  6
 16 17  1  0
 17  8  1  0
 18 16  1  0
 19 18  2  0
 20 14  1  0
 21 20  2  0
 21 11  1  0
 22 18  1  0
 23 24  1  1
 23 22  1  0
 24 25  1  0
 25 26  2  0
 26 27  1  0
 28 27  2  0
 29 28  1  0
 30 25  1  0
 30 29  2  0
 31 33  1  0
 31 23  1  0
 32 31  2  0
M  END
$$$$
