QYF.pdb
     RDKit          3D

 33 34  0  0  1  0  0  0  0  0999 V2000
    4.9937  -18.7781   23.3007 N   0  0  0  0  0  0  0  0  0  0  0  0
    5.0306  -19.7998   22.3318 C   0  0  0  0  0  0  0  0  0  0  0  0
    3.9494  -20.0974   21.7585 O   0  0  0  0  0  0  0  0  0  0  0  0
    6.3185  -20.4675   22.0357 C   0  0  0  0  0  0  0  0  0  0  0  0
    7.4975  -19.5625   22.3238 C   0  0  0  0  0  0  0  0  0  0  0  0
    7.8459  -18.6979   21.1486 C   0  0  2  0  0  0  0  0  0  0  0  0
    8.4005  -19.4760   20.0558 N   0  0  0  0  0  0  0  0  0  0  0  0
    8.7623  -17.6148   21.5750 C   0  0  0  0  0  0  0  0  0  0  0  0
    9.9848  -17.7677   21.4172 O   0  0  0  0  0  0  0  0  0  0  0  0
    7.2562  -13.2430   16.8190 O   0  0  0  0  0  0  0  0  0  0  0  0
    7.5818  -13.4336   18.1620 C   0  0  0  0  0  0  0  0  0  0  0  0
    6.6409  -14.0076   18.9857 C   0  0  0  0  0  0  0  0  0  0  0  0
    6.9207  -14.2174   20.3328 C   0  0  0  0  0  0  0  0  0  0  0  0
    8.1276  -13.8659   20.8832 C   0  0  0  0  0  0  0  0  0  0  0  0
    8.4240  -14.0961   22.2779 C   0  0  0  0  0  0  0  0  0  0  0  0
    9.1492  -15.3531   22.6534 C   0  0  2  0  0  0  0  0  0  0  0  0
    8.2805  -16.4328   22.1472 N   0  0  0  0  0  0  0  0  0  0  0  0
    9.3876  -15.5039   24.0794 C   0  0  0  0  0  0  0  0  0  0  0  0
   10.3660  -14.8163   24.5594 O   0  0  0  0  0  0  0  0  0  0  0  0
    9.0624  -13.2842   20.0187 C   0  0  0  0  0  0  0  0  0  0  0  0
    8.8041  -13.0679   18.6818 C   0  0  0  0  0  0  0  0  0  0  0  0
    8.6815  -16.3018   25.0104 N   0  0  0  0  0  0  0  0  0  0  0  0
    9.0610  -16.3225   26.4255 C   0  0  1  0  0  0  0  0  0  0  0  0
    7.8451  -15.8318   27.1941 C   0  0  0  0  0  0  0  0  0  0  0  0
    7.4768  -14.4417   26.9289 C   0  0  0  0  0  0  0  0  0  0  0  0
    8.3969  -13.4201   27.1943 C   0  0  0  0  0  0  0  0  0  0  0  0
    8.0483  -12.1206   26.9302 C   0  0  0  0  0  0  0  0  0  0  0  0
    6.8165  -11.8139   26.4126 C   0  0  0  0  0  0  0  0  0  0  0  0
    5.9070  -12.8261   26.1504 C   0  0  0  0  0  0  0  0  0  0  0  0
    6.2365  -14.1432   26.4086 C   0  0  0  0  0  0  0  0  0  0  0  0
    9.4103  -17.6658   26.9129 C   0  0  0  0  0  0  0  0  0  0  0  0
    9.8166  -17.8619   28.1022 O   0  0  0  0  0  0  0  0  0  0  0  0
    9.3264  -18.8020   26.1326 O   0  0  0  0  0  0  0  0  0  0  0  0
  2  1  1  0
  3  2  2  0
  4  2  1  0
  5  4  1  0
  6  5  1  0
  6  7  1  6
  8  6  1  0
  8  9  2  0
 10 11  1  0
 11 12  2  0
 12 13  1  0
 14 13  2  0
 14 15  1  0
 16 15  1  1
 16 17  1  0
 17  8  1  0
 18 16  1  0
 19 18  2  0
 20 14  1  0
 21 20  2  0
 21 11  1  0
 22 18  1  0
 23 24  1  1
 23 22  1  0
 24 25  1  0
 25 26  2  0
 26 27  1  0
 28 27  2  0
 29 28  1  0
 30 25  1  0
 30 29  2  0
 31 33  1  0
 31 23  1  0
 32 31  2  0
M  END
$$$$
