QYF.pdb
     RDKit          3D

 33 34  0  0  1  0  0  0  0  0999 V2000
    8.9625  -18.8059   16.5993 N   0  0  0  0  0  0  0  0  0  0  0  0
    7.7863  -19.3914   17.1072 C   0  0  0  0  0  0  0  0  0  0  0  0
    6.9952  -19.9185   16.2811 O   0  0  0  0  0  0  0  0  0  0  0  0
    7.5371  -19.3612   18.5664 C   0  0  0  0  0  0  0  0  0  0  0  0
    8.6704  -18.6915   19.3142 C   0  0  0  0  0  0  0  0  0  0  0  0
    8.4424  -18.6850   20.7968 C   0  0  2  0  0  0  0  0  0  0  0  0
    7.0342  -18.5510   21.1224 N   0  0  0  0  0  0  0  0  0  0  0  0
    9.2578  -17.6205   21.4265 C   0  0  0  0  0  0  0  0  0  0  0  0
   10.4948  -17.7333   21.4246 O   0  0  0  0  0  0  0  0  0  0  0  0
    8.0350  -13.2152   16.7023 O   0  0  0  0  0  0  0  0  0  0  0  0
    8.1603  -13.4452   18.0725 C   0  0  0  0  0  0  0  0  0  0  0  0
    9.3987  -13.7865   18.5655 C   0  0  0  0  0  0  0  0  0  0  0  0
    9.5720  -14.0254   19.9257 C   0  0  0  0  0  0  0  0  0  0  0  0
    8.5305  -13.9309   20.8142 C   0  0  0  0  0  0  0  0  0  0  0  0
    8.7123  -14.1650   22.2277 C   0  0  0  0  0  0  0  0  0  0  0  0
    9.4283  -15.4102   22.6567 C   0  0  2  0  0  0  0  0  0  0  0  0
    8.6656  -16.5000   22.0184 N   0  0  0  0  0  0  0  0  0  0  0  0
    9.4946  -15.5971   24.0967 C   0  0  0  0  0  0  0  0  0  0  0  0
   10.3628  -14.8737   24.7159 O   0  0  0  0  0  0  0  0  0  0  0  0
    7.2842  -13.5822   20.2806 C   0  0  0  0  0  0  0  0  0  0  0  0
    7.0923  -13.3419   18.9365 C   0  0  0  0  0  0  0  0  0  0  0  0
    8.7257  -16.4645   24.9082 N   0  0  0  0  0  0  0  0  0  0  0  0
    8.9177  -16.5053   26.3602 C   0  0  1  0  0  0  0  0  0  0  0  0
    7.5909  -16.0864   26.9717 C   0  0  0  0  0  0  0  0  0  0  0  0
    7.2836  -14.6624   26.8439 C   0  0  0  0  0  0  0  0  0  0  0  0
    6.1312  -14.2629   26.1560 C   0  0  0  0  0  0  0  0  0  0  0  0
    5.8435  -12.9264   26.0523 C   0  0  0  0  0  0  0  0  0  0  0  0
    6.6672  -11.9840   26.6115 C   0  0  0  0  0  0  0  0  0  0  0  0
    7.8073  -12.3809   27.2920 C   0  0  0  0  0  0  0  0  0  0  0  0
    8.1174  -13.7226   27.4093 C   0  0  0  0  0  0  0  0  0  0  0  0
    9.2609  -17.8447   26.8626 C   0  0  0  0  0  0  0  0  0  0  0  0
    9.2454  -18.8676   26.1067 O   0  0  0  0  0  0  0  0  0  0  0  0
    9.6217  -18.0949   28.1718 O   0  0  0  0  0  0  0  0  0  0  0  0
  2  1  1  0
  3  2  2  0
  4  2  1  0
  5  4  1  0
  6  5  1  0
  6  7  1  6
  8  6  1  0
  8  9  2  0
 10 11  1  0
 11 12  2  0
 12 13  1  0
 14 13  2  0
 14 15  1  0
 16 15  1  1
 16 17  1  0
 17  8  1  0
 18 16  1  0
 19 18  2  0
 20 14  1  0
 21 20  2  0
 21 11  1  0
 22 18  1  0
 23 24  1  1
 23 22  1  0
 24 25  1  0
 25 26  2  0
 26 27  1  0
 28 27  2  0
 29 28  1  0
 30 25  1  0
 30 29  2  0
 31 33  1  0
 31 23  1  0
 32 31  2  0
M  END
$$$$
