QYF.pdb
     RDKit          3D

 33 34  0  0  1  0  0  0  0  0999 V2000
   11.8508  -18.7846   16.6663 N   0  0  0  0  0  0  0  0  0  0  0  0
   10.4693  -18.8108   16.9399 C   0  0  0  0  0  0  0  0  0  0  0  0
    9.6811  -18.6429   15.9721 O   0  0  0  0  0  0  0  0  0  0  0  0
   10.0131  -19.0311   18.3313 C   0  0  0  0  0  0  0  0  0  0  0  0
   10.2726  -17.8212   19.2036 C   0  0  0  0  0  0  0  0  0  0  0  0
    9.8703  -18.0567   20.6294 C   0  0  2  0  0  0  0  0  0  0  0  0
    8.4836  -18.4729   20.7338 N   0  0  0  0  0  0  0  0  0  0  0  0
   10.1446  -16.8448   21.4362 C   0  0  0  0  0  0  0  0  0  0  0  0
   11.3014  -16.3933   21.4647 O   0  0  0  0  0  0  0  0  0  0  0  0
    7.0462  -13.3607   17.0575 O   0  0  0  0  0  0  0  0  0  0  0  0
    7.2987  -13.5775   18.4122 C   0  0  0  0  0  0  0  0  0  0  0  0
    8.2246  -12.7758   19.0392 C   0  0  0  0  0  0  0  0  0  0  0  0
    8.5094  -12.9550   20.3897 C   0  0  0  0  0  0  0  0  0  0  0  0
    7.8869  -13.9231   21.1370 C   0  0  0  0  0  0  0  0  0  0  0  0
    8.1716  -14.1006   22.5418 C   0  0  0  0  0  0  0  0  0  0  0  0
    9.3361  -14.9616   22.9288 C   0  0  2  0  0  0  0  0  0  0  0  0
    9.1335  -16.2048   22.1606 N   0  0  0  0  0  0  0  0  0  0  0  0
    9.4280  -15.2402   24.3525 C   0  0  0  0  0  0  0  0  0  0  0  0
   10.0377  -14.3514   25.0588 O   0  0  0  0  0  0  0  0  0  0  0  0
    6.9508  -14.7216   20.4694 C   0  0  0  0  0  0  0  0  0  0  0  0
    6.6552  -14.5599   19.1325 C   0  0  0  0  0  0  0  0  0  0  0  0
    8.9295  -16.3563   25.0651 N   0  0  0  0  0  0  0  0  0  0  0  0
    9.2523  -16.5516   26.4809 C   0  0  1  0  0  0  0  0  0  0  0  0
    8.0389  -16.0701   27.2592 C   0  0  0  0  0  0  0  0  0  0  0  0
    7.8378  -14.6218   27.2393 C   0  0  0  0  0  0  0  0  0  0  0  0
    8.8144  -13.7806   27.7864 C   0  0  0  0  0  0  0  0  0  0  0  0
    8.6241  -12.4232   27.7517 C   0  0  0  0  0  0  0  0  0  0  0  0
    7.4948  -11.8854   27.1905 C   0  0  0  0  0  0  0  0  0  0  0  0
    6.5292  -12.7192   26.6494 C   0  0  0  0  0  0  0  0  0  0  0  0
    6.6997  -14.0905   26.6731 C   0  0  0  0  0  0  0  0  0  0  0  0
    9.5025  -17.9586   26.8302 C   0  0  0  0  0  0  0  0  0  0  0  0
    9.4142  -18.8886   25.9669 O   0  0  0  0  0  0  0  0  0  0  0  0
    9.8476  -18.3757   28.1005 O   0  0  0  0  0  0  0  0  0  0  0  0
  2  1  1  0
  3  2  2  0
  4  2  1  0
  5  4  1  0
  6  5  1  0
  6  7  1  6
  8  6  1  0
  8  9  2  0
 10 11  1  0
 11 12  2  0
 12 13  1  0
 14 13  2  0
 14 15  1  0
 16 15  1  1
 16 17  1  0
 17  8  1  0
 18 16  1  0
 19 18  2  0
 20 14  1  0
 21 20  2  0
 21 11  1  0
 22 18  1  0
 23 24  1  1
 23 22  1  0
 24 25  1  0
 25 26  2  0
 26 27  1  0
 28 27  2  0
 29 28  1  0
 30 25  1  0
 30 29  2  0
 31 33  1  0
 31 23  1  0
 32 31  2  0
M  END
$$$$
