DGN.pdb
     RDKit          3D

 21 20  0  0  1  0  0  0  0  0999 V2000
   16.8697  -22.6389  -11.6532 N   0  0  0  0  0  0  0  0  0  0  0  0
   18.1115  -23.2672  -12.0228 C   0  0  1  0  0  0  0  0  0  0  0  0
   19.0305  -22.3018  -12.7469 C   0  0  0  0  0  0  0  0  0  0  0  0
   18.5673  -21.9840  -14.0951 C   0  0  0  0  0  0  0  0  0  0  0  0
   19.1298  -21.0690  -14.7467 O   0  0  0  0  0  0  0  0  0  0  0  0
   18.8098  -23.7185  -10.7947 C   0  0  0  0  0  0  0  0  0  0  0  0
   19.8827  -24.3731  -10.8385 O   0  0  0  0  0  0  0  0  0  0  0  0
   17.5208  -22.6617  -14.6923 O   0  0  0  0  0  0  0  0  0  0  0  0
   18.2924  -23.4277   -9.5041 N   0  0  0  0  0  0  0  0  0  0  0  0
   18.9727  -23.8851   -8.3437 C   0  0  0  0  0  0  0  0  0  0  0  0
   18.1520  -24.7694   -7.4810 C   0  0  0  0  0  0  0  0  0  0  0  0
   17.1484  -25.3238   -7.9731 O   0  0  0  0  0  0  0  0  0  0  0  0
   17.2555  -26.6155   -1.9510 N   0  0  0  0  0  0  0  0  0  0  0  0
   17.9024  -27.0986   -3.0984 C   0  0  0  0  0  0  0  0  0  0  0  0
   17.9582  -28.3391   -3.4036 O   0  0  0  0  0  0  0  0  0  0  0  0
   18.5599  -26.1294   -4.0134 C   0  0  0  0  0  0  0  0  0  0  0  0
   17.7035  -25.8993   -5.2505 C   0  0  2  0  0  0  0  0  0  0  0  0
   18.4728  -24.9997   -6.1211 N   0  0  0  0  0  0  0  0  0  0  0  0
   16.3759  -25.3596   -4.9602 C   0  0  0  0  0  0  0  0  0  0  0  0
   15.3085  -26.1826   -4.6414 O   0  0  0  0  0  0  0  0  0  0  0  0
   16.1027  -24.1081   -4.9779 O   0  0  0  0  0  0  0  0  0  0  0  0
  2  3  1  0
  2  1  1  1
  3  4  1  0
  4  8  1  0
  4  5  2  0
  6  9  1  0
  6  2  1  0
  7  6  2  0
 10  9  1  0
 11 10  1  0
 11 18  1  0
 12 11  2  0
 13 14  1  0
 14 15  2  0
 14 16  1  0
 17 16  1  1
 17 18  1  0
 17 19  1  0
 19 21  2  0
 19 20  1  0
M  END
$$$$
