DGN.pdb
     RDKit          3D

 21 20  0  0  1  0  0  0  0  0999 V2000
   15.8305  -12.7462  -15.2241 N   0  0  0  0  0  0  0  0  0  0  0  0
   17.2646  -12.7684  -15.0960 C   0  0  1  0  0  0  0  0  0  0  0  0
   17.8651  -13.9879  -15.7693 C   0  0  0  0  0  0  0  0  0  0  0  0
   17.5626  -15.2299  -15.0628 C   0  0  0  0  0  0  0  0  0  0  0  0
   17.0408  -15.1850  -13.9210 O   0  0  0  0  0  0  0  0  0  0  0  0
   17.8282  -11.5661  -15.7563 C   0  0  0  0  0  0  0  0  0  0  0  0
   19.0668  -11.3582  -15.8211 O   0  0  0  0  0  0  0  0  0  0  0  0
   17.8293  -16.4712  -15.6098 O   0  0  0  0  0  0  0  0  0  0  0  0
   16.9856  -10.5885  -16.3499 N   0  0  0  0  0  0  0  0  0  0  0  0
   17.5390   -9.3791  -16.8496 C   0  0  0  0  0  0  0  0  0  0  0  0
   18.1638   -8.5326  -15.8042 C   0  0  0  0  0  0  0  0  0  0  0  0
   17.7089   -8.5796  -14.6434 O   0  0  0  0  0  0  0  0  0  0  0  0
   21.2689   -5.3248  -13.3015 N   0  0  0  0  0  0  0  0  0  0  0  0
   22.0316   -6.2039  -14.0848 C   0  0  0  0  0  0  0  0  0  0  0  0
   23.3030   -6.3042  -13.9927 O   0  0  0  0  0  0  0  0  0  0  0  0
   21.3382   -7.0679  -15.0757 C   0  0  0  0  0  0  0  0  0  0  0  0
   19.8462   -6.7671  -15.0930 C   0  0  2  0  0  0  0  0  0  0  0  0
   19.2556   -7.6756  -16.0854 N   0  0  0  0  0  0  0  0  0  0  0  0
   19.5265   -5.3708  -15.3865 C   0  0  0  0  0  0  0  0  0  0  0  0
   19.3151   -4.4443  -14.3790 O   0  0  0  0  0  0  0  0  0  0  0  0
   19.4193   -4.9054  -16.5753 O   0  0  0  0  0  0  0  0  0  0  0  0
  2  3  1  0
  2  1  1  6
  3  4  1  0
  4  8  1  0
  4  5  2  0
  6  9  1  0
  6  2  1  0
  7  6  2  0
 10  9  1  0
 11 10  1  0
 11 18  1  0
 12 11  2  0
 13 14  1  0
 14 15  2  0
 14 16  1  0
 17 16  1  6
 17 18  1  0
 17 19  1  0
 19 21  2  0
 19 20  1  0
M  END
$$$$
