DGN.pdb
     RDKit          3D

 21 20  0  0  1  0  0  0  0  0999 V2000
   24.0362  -18.0816  -14.9207 N   0  0  0  0  0  0  0  0  0  0  0  0
   23.9273  -19.3740  -15.5462 C   0  0  1  0  0  0  0  0  0  0  0  0
   24.0007  -19.2693  -17.0577 C   0  0  0  0  0  0  0  0  0  0  0  0
   22.8514  -18.5753  -17.6327 C   0  0  0  0  0  0  0  0  0  0  0  0
   22.9522  -17.3648  -17.9533 O   0  0  0  0  0  0  0  0  0  0  0  0
   25.0561  -20.2251  -15.0982 C   0  0  0  0  0  0  0  0  0  0  0  0
   25.1141  -21.4528  -15.3649 O   0  0  0  0  0  0  0  0  0  0  0  0
   21.6402  -19.2073  -17.8435 O   0  0  0  0  0  0  0  0  0  0  0  0
   26.1307  -19.6854  -14.3419 N   0  0  0  0  0  0  0  0  0  0  0  0
   27.1596  -20.5369  -13.8573 C   0  0  0  0  0  0  0  0  0  0  0  0
   26.7599  -21.3440  -12.6789 C   0  0  0  0  0  0  0  0  0  0  0  0
   26.7732  -22.5882  -12.7718 O   0  0  0  0  0  0  0  0  0  0  0  0
   26.5581  -19.4256   -7.3678 N   0  0  0  0  0  0  0  0  0  0  0  0
   26.4706  -19.7651   -8.7262 C   0  0  0  0  0  0  0  0  0  0  0  0
   26.2648  -18.9083   -9.6528 O   0  0  0  0  0  0  0  0  0  0  0  0
   26.6230  -21.1898   -9.1212 C   0  0  0  0  0  0  0  0  0  0  0  0
   25.7707  -21.4978  -10.3442 C   0  0  2  0  0  0  0  0  0  0  0  0
   26.3640  -20.7454  -11.4581 N   0  0  0  0  0  0  0  0  0  0  0  0
   24.3540  -21.1781  -10.1750 C   0  0  0  0  0  0  0  0  0  0  0  0
   23.6856  -20.3421  -11.0540 O   0  0  0  0  0  0  0  0  0  0  0  0
   23.6353  -21.6377   -9.2192 O   0  0  0  0  0  0  0  0  0  0  0  0
  2  3  1  0
  2  1  1  1
  3  4  1  0
  4  8  1  0
  4  5  2  0
  6  9  1  0
  6  2  1  0
  7  6  2  0
 10  9  1  0
 11 10  1  0
 11 18  1  0
 12 11  2  0
 13 14  1  0
 14 15  2  0
 14 16  1  0
 17 16  1  1
 17 18  1  0
 17 19  1  0
 19 21  2  0
 19 20  1  0
M  END
$$$$
