DGN.pdb
     RDKit          3D

 21 20  0  0  1  0  0  0  0  0999 V2000
   27.2059  -19.4623  -18.9698 N   0  0  0  0  0  0  0  0  0  0  0  0
   25.9569  -19.1848  -18.3090 C   0  0  1  0  0  0  0  0  0  0  0  0
   25.0001  -20.3574  -18.4114 C   0  0  0  0  0  0  0  0  0  0  0  0
   24.7852  -20.7930  -19.7887 C   0  0  0  0  0  0  0  0  0  0  0  0
   24.5958  -19.9378  -20.6893 O   0  0  0  0  0  0  0  0  0  0  0  0
   26.2153  -18.9385  -16.8695 C   0  0  0  0  0  0  0  0  0  0  0  0
   25.2909  -18.6633  -16.0625 O   0  0  0  0  0  0  0  0  0  0  0  0
   24.7844  -22.1282  -20.1465 O   0  0  0  0  0  0  0  0  0  0  0  0
   27.5299  -19.0039  -16.3353 N   0  0  0  0  0  0  0  0  0  0  0  0
   27.7523  -18.7471  -14.9558 C   0  0  0  0  0  0  0  0  0  0  0  0
   27.1864  -19.7830  -14.0578 C   0  0  0  0  0  0  0  0  0  0  0  0
   27.3750  -20.9848  -14.3347 O   0  0  0  0  0  0  0  0  0  0  0  0
   25.4202  -22.0549   -9.8222 N   0  0  0  0  0  0  0  0  0  0  0  0
   25.8922  -20.7821   -9.4678 C   0  0  0  0  0  0  0  0  0  0  0  0
   26.0278  -20.3952   -8.2567 O   0  0  0  0  0  0  0  0  0  0  0  0
   26.2564  -19.8259  -10.5458 C   0  0  0  0  0  0  0  0  0  0  0  0
   25.9926  -20.4393  -11.9137 C   0  0  2  0  0  0  0  0  0  0  0  0
   26.4404  -19.4481  -12.9015 N   0  0  0  0  0  0  0  0  0  0  0  0
   24.5986  -20.8229  -12.1323 C   0  0  0  0  0  0  0  0  0  0  0  0
   24.1503  -22.1104  -11.8883 O   0  0  0  0  0  0  0  0  0  0  0  0
   23.7016  -20.0134  -12.5581 O   0  0  0  0  0  0  0  0  0  0  0  0
  2  3  1  0
  2  1  1  6
  3  4  1  0
  4  8  1  0
  4  5  2  0
  6  9  1  0
  6  2  1  0
  7  6  2  0
 10  9  1  0
 11 10  1  0
 11 18  1  0
 12 11  2  0
 13 14  1  0
 14 15  2  0
 14 16  1  0
 17 16  1  1
 17 18  1  0
 17 19  1  0
 19 21  2  0
 19 20  1  0
M  END
$$$$
