DNQ.pdb
     RDKit          3D

 26 25  0  0  1  0  0  0  0  0999 V2000
    9.1483  -17.8564   16.3323 N   0  0  0  0  0  0  0  0  0  0  0  0
   10.4931  -17.4898   16.6422 C   0  0  1  0  0  0  0  0  0  0  0  0
   11.2990  -16.9698   15.4937 C   0  0  0  0  0  0  0  0  0  0  0  0
   11.6882  -18.0415   14.5717 C   0  0  0  0  0  0  0  0  0  0  0  0
   10.8398  -18.5492   13.8068 O   0  0  0  0  0  0  0  0  0  0  0  0
   10.5023  -16.5728   17.8048 C   0  0  0  0  0  0  0  0  0  0  0  0
   11.5657  -16.2572   18.4123 O   0  0  0  0  0  0  0  0  0  0  0  0
   13.0068  -18.4873   14.5557 O   0  0  0  0  0  0  0  0  0  0  0  0
    7.5335  -12.1996   20.3694 N   0  0  0  0  0  0  0  0  0  0  0  0
    7.6145  -13.6177   20.5663 C   0  0  0  0  0  0  0  0  0  0  0  0
    7.4017  -14.1372   21.6738 O   0  0  0  0  0  0  0  0  0  0  0  0
    7.9592  -14.4452   19.4109 C   0  0  0  0  0  0  0  0  0  0  0  0
    9.2693  -15.1524   19.4707 C   0  0  2  0  0  0  0  0  0  0  0  0
    9.2943  -16.0187   18.2705 N   0  0  0  0  0  0  0  0  0  0  0  0
    9.3990  -16.0680   20.6552 C   0  0  0  0  0  0  0  0  0  0  0  0
    8.8382  -17.1846   20.7384 O   0  0  0  0  0  0  0  0  0  0  0  0
   14.0877  -18.9256   23.5042 N   0  0  0  0  0  0  0  0  0  0  0  0
   13.3227  -18.3392   24.5483 C   0  0  0  0  0  0  0  0  0  0  0  0
   13.8403  -18.1435   25.6753 O   0  0  0  0  0  0  0  0  0  0  0  0
   11.8906  -17.9482   24.3148 C   0  0  0  0  0  0  0  0  0  0  0  0
   11.7886  -17.0168   23.1248 C   0  0  0  0  0  0  0  0  0  0  0  0
   10.3587  -16.5945   22.9287 C   0  0  2  0  0  0  0  0  0  0  0  0
   10.1952  -15.7119   21.7975 N   0  0  0  0  0  0  0  0  0  0  0  0
    9.8522  -15.9262   24.1576 C   0  0  0  0  0  0  0  0  0  0  0  0
    9.9011  -14.6757   24.2859 O   0  0  0  0  0  0  0  0  0  0  0  0
    9.3055  -16.6411   25.2149 O   0  0  0  0  0  0  0  0  0  0  0  0
  2  3  1  0
  2  1  1  6
  3  4  1  0
  4  8  1  0
  5  4  2  0
  6  2  1  0
  7  6  2  0
  9 10  1  0
 10 12  1  0
 11 10  2  0
 13 12  1  1
 13 14  1  0
 14  6  1  0
 15 13  1  0
 15 16  2  0
 18 17  1  0
 19 18  2  0
 20 18  1  0
 22 21  1  1
 21 20  1  0
 22 23  1  0
 23 15  1  0
 24 22  1  0
 25 24  2  0
 26 24  1  0
M  END
$$$$
