DNQ.pdb
     RDKit          3D

 26 25  0  0  1  0  0  0  0  0999 V2000
   13.9766  -22.3637   23.7771 N   0  0  0  0  0  0  0  0  0  0  0  0
   12.6445  -21.8573   23.8672 C   0  0  1  0  0  0  0  0  0  0  0  0
   11.7854  -22.0893   22.6643 C   0  0  0  0  0  0  0  0  0  0  0  0
   12.2392  -21.3052   21.5113 C   0  0  0  0  0  0  0  0  0  0  0  0
   13.3932  -20.8251   21.4949 O   0  0  0  0  0  0  0  0  0  0  0  0
   12.0140  -22.3385   25.1177 C   0  0  0  0  0  0  0  0  0  0  0  0
   11.0517  -21.7317   25.6702 O   0  0  0  0  0  0  0  0  0  0  0  0
   11.3761  -21.1008   20.4384 O   0  0  0  0  0  0  0  0  0  0  0  0
   10.1163  -25.8073   25.7252 N   0  0  0  0  0  0  0  0  0  0  0  0
   11.2908  -26.3762   26.3195 C   0  0  0  0  0  0  0  0  0  0  0  0
   11.5342  -27.5919   26.2524 O   0  0  0  0  0  0  0  0  0  0  0  0
   12.2055  -25.4722   27.0158 C   0  0  0  0  0  0  0  0  0  0  0  0
   11.8617  -24.0230   26.9758 C   0  0  2  0  0  0  0  0  0  0  0  0
   12.4863  -23.5133   25.7341 N   0  0  0  0  0  0  0  0  0  0  0  0
   12.4640  -23.2360   28.1054 C   0  0  0  0  0  0  0  0  0  0  0  0
   13.6284  -22.7752   28.0915 O   0  0  0  0  0  0  0  0  0  0  0  0
   12.6411  -18.1500   28.5764 N   0  0  0  0  0  0  0  0  0  0  0  0
   11.3375  -18.5542   28.9723 C   0  0  0  0  0  0  0  0  0  0  0  0
   10.3616  -17.7813   28.8099 O   0  0  0  0  0  0  0  0  0  0  0  0
   11.1146  -19.9071   29.5876 C   0  0  0  0  0  0  0  0  0  0  0  0
   12.4302  -20.6457   29.7209 C   0  0  0  0  0  0  0  0  0  0  0  0
   12.1906  -22.0143   30.2962 C   0  0  2  0  0  0  0  0  0  0  0  0
   11.7237  -22.9546   29.3047 N   0  0  0  0  0  0  0  0  0  0  0  0
   11.2049  -21.9338   31.4077 C   0  0  0  0  0  0  0  0  0  0  0  0
   10.0474  -22.4115   31.2871 O   0  0  0  0  0  0  0  0  0  0  0  0
   11.5090  -21.3336   32.6223 O   0  0  0  0  0  0  0  0  0  0  0  0
  2  3  1  0
  2  1  1  6
  3  4  1  0
  4  8  1  0
  5  4  2  0
  6  2  1  0
  7  6  2  0
  9 10  1  0
 10 12  1  0
 11 10  2  0
 13 12  1  1
 13 14  1  0
 14  6  1  0
 15 13  1  0
 15 16  2  0
 18 17  1  0
 19 18  2  0
 20 18  1  0
 22 21  1  6
 21 20  1  0
 22 23  1  0
 23 15  1  0
 24 22  1  0
 25 24  2  0
 26 24  1  0
M  END
$$$$
