DNQ.pdb
     RDKit          3D

 26 25  0  0  1  0  0  0  0  0999 V2000
    9.7576  -13.2063   18.9962 N   0  0  0  0  0  0  0  0  0  0  0  0
    8.3618  -13.3361   19.2680 C   0  0  1  0  0  0  0  0  0  0  0  0
    7.4981  -13.6151   18.0785 C   0  0  0  0  0  0  0  0  0  0  0  0
    8.1173  -14.5868   17.1715 C   0  0  0  0  0  0  0  0  0  0  0  0
    8.7158  -15.5823   17.6332 O   0  0  0  0  0  0  0  0  0  0  0  0
    8.1577  -14.3141   20.3610 C   0  0  0  0  0  0  0  0  0  0  0  0
    7.0088  -14.6227   20.7903 O   0  0  0  0  0  0  0  0  0  0  0  0
    8.0329  -14.3914   15.7958 O   0  0  0  0  0  0  0  0  0  0  0  0
    8.9580  -18.5267   23.3428 N   0  0  0  0  0  0  0  0  0  0  0  0
   10.0815  -18.2245   22.5044 C   0  0  0  0  0  0  0  0  0  0  0  0
   11.1369  -18.8755   22.5658 O   0  0  0  0  0  0  0  0  0  0  0  0
    9.9470  -17.1134   21.5630 C   0  0  0  0  0  0  0  0  0  0  0  0
    9.0875  -15.9771   21.9989 C   0  0  2  0  0  0  0  0  0  0  0  0
    9.2689  -14.9370   20.9611 N   0  0  0  0  0  0  0  0  0  0  0  0
    9.5278  -15.3603   23.2966 C   0  0  0  0  0  0  0  0  0  0  0  0
   10.6710  -14.8876   23.4919 O   0  0  0  0  0  0  0  0  0  0  0  0
    6.6786  -11.1332   26.3458 N   0  0  0  0  0  0  0  0  0  0  0  0
    6.0536  -12.3995   26.5054 C   0  0  0  0  0  0  0  0  0  0  0  0
    4.8432  -12.4682   26.8312 O   0  0  0  0  0  0  0  0  0  0  0  0
    6.8331  -13.6655   26.2864 C   0  0  0  0  0  0  0  0  0  0  0  0
    8.2575  -13.3417   25.8859 C   0  0  0  0  0  0  0  0  0  0  0  0
    9.0239  -14.6146   25.6539 C   0  0  2  0  0  0  0  0  0  0  0  0
    8.6428  -15.2710   24.4254 N   0  0  0  0  0  0  0  0  0  0  0  0
    8.8234  -15.5451   26.7973 C   0  0  0  0  0  0  0  0  0  0  0  0
    8.1657  -16.6091   26.6632 O   0  0  0  0  0  0  0  0  0  0  0  0
    9.3463  -15.2893   28.0579 O   0  0  0  0  0  0  0  0  0  0  0  0
  2  3  1  0
  2  1  1  6
  3  4  1  0
  4  8  1  0
  5  4  2  0
  6  2  1  0
  7  6  2  0
  9 10  1  0
 10 12  1  0
 11 10  2  0
 13 12  1  6
 13 14  1  0
 14  6  1  0
 15 13  1  0
 15 16  2  0
 18 17  1  0
 19 18  2  0
 20 18  1  0
 22 21  1  1
 21 20  1  0
 22 23  1  0
 23 15  1  0
 24 22  1  0
 25 24  2  0
 26 24  1  0
M  END
$$$$
