DNQ.pdb
     RDKit          3D

 26 25  0  0  1  0  0  0  0  0999 V2000
   12.3236  -18.2518   19.4321 N   0  0  0  0  0  0  0  0  0  0  0  0
   12.7734  -17.0270   20.0125 C   0  0  1  0  0  0  0  0  0  0  0  0
   13.6661  -16.1947   19.1470 C   0  0  0  0  0  0  0  0  0  0  0  0
   14.9524  -16.8534   18.8984 C   0  0  0  0  0  0  0  0  0  0  0  0
   15.2019  -17.3368   17.7730 O   0  0  0  0  0  0  0  0  0  0  0  0
   11.6125  -16.2669   20.5293 C   0  0  0  0  0  0  0  0  0  0  0  0
   10.9836  -15.4255   19.8249 O   0  0  0  0  0  0  0  0  0  0  0  0
   15.8904  -16.9354   19.9237 O   0  0  0  0  0  0  0  0  0  0  0  0
    6.6977  -16.8991   22.7062 N   0  0  0  0  0  0  0  0  0  0  0  0
    7.4730  -16.0421   21.8572 C   0  0  0  0  0  0  0  0  0  0  0  0
    7.0140  -14.9807   21.4052 O   0  0  0  0  0  0  0  0  0  0  0  0
    8.8371  -16.4592   21.5348 C   0  0  0  0  0  0  0  0  0  0  0  0
    9.9262  -15.8421   22.3429 C   0  0  2  0  0  0  0  0  0  0  0  0
   11.1734  -16.4705   21.8518 N   0  0  0  0  0  0  0  0  0  0  0  0
    9.8384  -16.1661   23.8077 C   0  0  0  0  0  0  0  0  0  0  0  0
   10.3563  -17.1796   24.3302 O   0  0  0  0  0  0  0  0  0  0  0  0
   11.4547  -13.9975   28.0427 N   0  0  0  0  0  0  0  0  0  0  0  0
   10.4125  -14.4126   28.9151 C   0  0  0  0  0  0  0  0  0  0  0  0
   10.6652  -14.6834   30.1146 O   0  0  0  0  0  0  0  0  0  0  0  0
    9.0014  -14.5314   28.4120 C   0  0  0  0  0  0  0  0  0  0  0  0
    8.9492  -14.2475   26.9251 C   0  0  0  0  0  0  0  0  0  0  0  0
    9.1759  -15.5190   26.1548 C   0  0  2  0  0  0  0  0  0  0  0  0
    9.1368  -15.3120   24.7263 N   0  0  0  0  0  0  0  0  0  0  0  0
    8.1582  -16.5344   26.5378 C   0  0  0  0  0  0  0  0  0  0  0  0
    8.4052  -17.4070   27.4096 O   0  0  0  0  0  0  0  0  0  0  0  0
    6.8967  -16.5704   25.9587 O   0  0  0  0  0  0  0  0  0  0  0  0
  2  3  1  0
  2  1  1  6
  3  4  1  0
  4  8  1  0
  5  4  2  0
  6  2  1  0
  7  6  2  0
  9 10  1  0
 10 12  1  0
 11 10  2  0
 13 12  1  6
 13 14  1  0
 14  6  1  0
 15 13  1  0
 15 16  2  0
 18 17  1  0
 19 18  2  0
 20 18  1  0
 22 21  1  1
 21 20  1  0
 22 23  1  0
 23 15  1  0
 24 22  1  0
 25 24  2  0
 26 24  1  0
M  END
$$$$
