DNQ.pdb
     RDKit          3D

 26 25  0  0  1  0  0  0  0  0999 V2000
    8.7701  -22.0957   20.2252 N   0  0  0  0  0  0  0  0  0  0  0  0
    7.5269  -22.0446   19.5245 C   0  0  1  0  0  0  0  0  0  0  0  0
    7.3671  -23.0458   18.4241 C   0  0  0  0  0  0  0  0  0  0  0  0
    8.5072  -23.0287   17.5021 C   0  0  0  0  0  0  0  0  0  0  0  0
    9.0613  -24.0990   17.1705 O   0  0  0  0  0  0  0  0  0  0  0  0
    6.4085  -22.0821   20.4943 C   0  0  0  0  0  0  0  0  0  0  0  0
    5.9966  -23.1587   21.0145 O   0  0  0  0  0  0  0  0  0  0  0  0
    8.9657  -21.8136   17.0009 O   0  0  0  0  0  0  0  0  0  0  0  0
    2.4707  -23.6145   22.9823 N   0  0  0  0  0  0  0  0  0  0  0  0
    2.6970  -22.3113   22.4284 C   0  0  0  0  0  0  0  0  0  0  0  0
    1.9102  -21.3714   22.6258 O   0  0  0  0  0  0  0  0  0  0  0  0
    3.8963  -22.1184   21.6140 C   0  0  0  0  0  0  0  0  0  0  0  0
    4.6925  -20.8895   21.8894 C   0  0  2  0  0  0  0  0  0  0  0  0
    5.7630  -20.8872   20.8668 N   0  0  0  0  0  0  0  0  0  0  0  0
    5.3831  -20.9132   23.2238 C   0  0  0  0  0  0  0  0  0  0  0  0
    5.2724  -20.0086   24.0827 O   0  0  0  0  0  0  0  0  0  0  0  0
    9.3657  -25.8161   25.6455 N   0  0  0  0  0  0  0  0  0  0  0  0
    8.4993  -25.4830   24.5695 C   0  0  0  0  0  0  0  0  0  0  0  0
    7.9841  -26.3903   23.8712 O   0  0  0  0  0  0  0  0  0  0  0  0
    8.1920  -24.0454   24.2573 C   0  0  0  0  0  0  0  0  0  0  0  0
    7.2415  -23.4762   25.2902 C   0  0  0  0  0  0  0  0  0  0  0  0
    6.8580  -22.0723   24.9114 C   0  0  2  0  0  0  0  0  0  0  0  0
    6.2367  -22.0032   23.6098 N   0  0  0  0  0  0  0  0  0  0  0  0
    8.0576  -21.1926   24.9368 C   0  0  0  0  0  0  0  0  0  0  0  0
    8.6788  -20.9695   26.0077 O   0  0  0  0  0  0  0  0  0  0  0  0
    8.5478  -20.5793   23.7915 O   0  0  0  0  0  0  0  0  0  0  0  0
  2  3  1  0
  2  1  1  1
  3  4  1  0
  4  8  1  0
  5  4  2  0
  6  2  1  0
  7  6  2  0
  9 10  1  0
 10 12  1  0
 11 10  2  0
 13 12  1  6
 13 14  1  0
 14  6  1  0
 15 13  1  0
 15 16  2  0
 18 17  1  0
 19 18  2  0
 20 18  1  0
 22 21  1  6
 21 20  1  0
 22 23  1  0
 23 15  1  0
 24 22  1  0
 25 24  2  0
 26 24  1  0
M  END
$$$$
