DNQ.pdb
     RDKit          3D

 26 25  0  0  1  0  0  0  0  0999 V2000
   10.4101  -18.6812   20.2252 N   0  0  0  0  0  0  0  0  0  0  0  0
   10.9500  -17.4433   20.6893 C   0  0  1  0  0  0  0  0  0  0  0  0
   10.8817  -16.3074   19.7179 C   0  0  0  0  0  0  0  0  0  0  0  0
   11.6595  -16.5800   18.5051 C   0  0  0  0  0  0  0  0  0  0  0  0
   12.1740  -17.7058   18.3303 O   0  0  0  0  0  0  0  0  0  0  0  0
   10.3569  -17.1046   22.0031 C   0  0  0  0  0  0  0  0  0  0  0  0
   10.6849  -16.0681   22.6493 O   0  0  0  0  0  0  0  0  0  0  0  0
   11.8195  -15.5772   17.5529 O   0  0  0  0  0  0  0  0  0  0  0  0
    7.0776  -17.3830   26.0722 N   0  0  0  0  0  0  0  0  0  0  0  0
    6.9343  -18.5760   25.2895 C   0  0  0  0  0  0  0  0  0  0  0  0
    6.0648  -19.4248   25.5447 O   0  0  0  0  0  0  0  0  0  0  0  0
    7.8531  -18.7669   24.1679 C   0  0  0  0  0  0  0  0  0  0  0  0
    8.8242  -17.6660   23.9133 C   0  0  2  0  0  0  0  0  0  0  0  0
    9.3897  -17.9530   22.5756 N   0  0  0  0  0  0  0  0  0  0  0  0
    9.9835  -17.6608   24.8695 C   0  0  0  0  0  0  0  0  0  0  0  0
   11.0975  -17.1495   24.6125 O   0  0  0  0  0  0  0  0  0  0  0  0
   10.3393  -13.3760   28.0128 N   0  0  0  0  0  0  0  0  0  0  0  0
   10.4248  -14.3154   29.0757 C   0  0  0  0  0  0  0  0  0  0  0  0
   10.1514  -13.9651   30.2498 O   0  0  0  0  0  0  0  0  0  0  0  0
   10.8422  -15.7336   28.8057 C   0  0  0  0  0  0  0  0  0  0  0  0
   10.1280  -16.2663   27.5808 C   0  0  0  0  0  0  0  0  0  0  0  0
   10.5378  -17.6915   27.3310 C   0  0  2  0  0  0  0  0  0  0  0  0
    9.8857  -18.2573   26.1735 N   0  0  0  0  0  0  0  0  0  0  0  0
   10.2380  -18.5243   28.5268 C   0  0  0  0  0  0  0  0  0  0  0  0
   10.8796  -18.3786   29.5991 O   0  0  0  0  0  0  0  0  0  0  0  0
    9.2452  -19.4949   28.5206 O   0  0  0  0  0  0  0  0  0  0  0  0
  2  3  1  0
  2  1  1  6
  3  4  1  0
  4  8  1  0
  5  4  2  0
  6  2  1  0
  7  6  2  0
  9 10  1  0
 10 12  1  0
 11 10  2  0
 13 12  1  1
 13 14  1  0
 14  6  1  0
 15 13  1  0
 15 16  2  0
 18 17  1  0
 19 18  2  0
 20 18  1  0
 22 21  1  1
 21 20  1  0
 22 23  1  0
 23 15  1  0
 24 22  1  0
 25 24  2  0
 26 24  1  0
M  END
$$$$
