DNQ.pdb
     RDKit          3D

 26 25  0  0  1  0  0  0  0  0999 V2000
    9.3017  -14.5954   20.2185 N   0  0  0  0  0  0  0  0  0  0  0  0
    8.1854  -13.9832   20.8653 C   0  0  1  0  0  0  0  0  0  0  0  0
    7.1719  -13.3670   19.9531 C   0  0  0  0  0  0  0  0  0  0  0  0
    7.6573  -13.2910   18.5715 C   0  0  0  0  0  0  0  0  0  0  0  0
    8.8166  -13.6664   18.2929 O   0  0  0  0  0  0  0  0  0  0  0  0
    7.5823  -14.9375   21.8236 C   0  0  0  0  0  0  0  0  0  0  0  0
    6.6179  -14.6233   22.5790 O   0  0  0  0  0  0  0  0  0  0  0  0
    6.8182  -12.7984   17.5760 O   0  0  0  0  0  0  0  0  0  0  0  0
    4.8525  -18.1225   22.3376 N   0  0  0  0  0  0  0  0  0  0  0  0
    6.0078  -18.5362   21.5956 C   0  0  0  0  0  0  0  0  0  0  0  0
    5.9207  -18.9551   20.4300 O   0  0  0  0  0  0  0  0  0  0  0  0
    7.3081  -18.4497   22.2593 C   0  0  0  0  0  0  0  0  0  0  0  0
    7.6051  -17.1738   22.9690 C   0  0  2  0  0  0  0  0  0  0  0  0
    8.0844  -16.2500   21.9160 N   0  0  0  0  0  0  0  0  0  0  0  0
    8.7224  -17.2928   23.9669 C   0  0  0  0  0  0  0  0  0  0  0  0
    9.4254  -18.3196   24.1077 O   0  0  0  0  0  0  0  0  0  0  0  0
   10.5955  -12.7589   28.1268 N   0  0  0  0  0  0  0  0  0  0  0  0
    9.2892  -13.0797   27.6683 C   0  0  0  0  0  0  0  0  0  0  0  0
    8.3389  -12.2833   27.8654 O   0  0  0  0  0  0  0  0  0  0  0  0
    9.0329  -14.3716   26.9447 C   0  0  0  0  0  0  0  0  0  0  0  0
   10.3437  -15.0343   26.5746 C   0  0  0  0  0  0  0  0  0  0  0  0
   10.0761  -16.3349   25.8686 C   0  0  2  0  0  0  0  0  0  0  0  0
    9.0645  -16.2085   24.8460 N   0  0  0  0  0  0  0  0  0  0  0  0
    9.6621  -17.3719   26.8517 C   0  0  0  0  0  0  0  0  0  0  0  0
    8.4797  -17.8001   26.8872 O   0  0  0  0  0  0  0  0  0  0  0  0
   10.5502  -17.9144   27.7709 O   0  0  0  0  0  0  0  0  0  0  0  0
  2  3  1  0
  2  1  1  6
  3  4  1  0
  4  8  1  0
  5  4  2  0
  6  2  1  0
  7  6  2  0
  9 10  1  0
 10 12  1  0
 11 10  2  0
 13 12  1  6
 13 14  1  0
 14  6  1  0
 15 13  1  0
 15 16  2  0
 18 17  1  0
 19 18  2  0
 20 18  1  0
 22 21  1  1
 21 20  1  0
 22 23  1  0
 23 15  1  0
 24 22  1  0
 25 24  2  0
 26 24  1  0
M  END
$$$$
