DNQ.pdb
     RDKit          3D

 26 25  0  0  1  0  0  0  0  0999 V2000
   12.1557  -16.5881   19.3802 N   0  0  0  0  0  0  0  0  0  0  0  0
   12.4935  -15.6123   20.3665 C   0  0  1  0  0  0  0  0  0  0  0  0
   12.6276  -14.2094   19.8638 C   0  0  0  0  0  0  0  0  0  0  0  0
   13.7419  -14.0729   18.9204 C   0  0  0  0  0  0  0  0  0  0  0  0
   14.4467  -15.0650   18.6350 O   0  0  0  0  0  0  0  0  0  0  0  0
   11.5600  -15.7196   21.5109 C   0  0  0  0  0  0  0  0  0  0  0  0
   11.4497  -14.8119   22.3846 O   0  0  0  0  0  0  0  0  0  0  0  0
   14.0072  -12.8324   18.3473 O   0  0  0  0  0  0  0  0  0  0  0  0
    8.4380  -18.7800   20.1858 N   0  0  0  0  0  0  0  0  0  0  0  0
    8.1063  -18.1082   21.4085 C   0  0  0  0  0  0  0  0  0  0  0  0
    7.0649  -17.4426   21.5270 O   0  0  0  0  0  0  0  0  0  0  0  0
    9.0414  -18.2309   22.5261 C   0  0  0  0  0  0  0  0  0  0  0  0
    9.8706  -17.0309   22.8299 C   0  0  2  0  0  0  0  0  0  0  0  0
   10.7544  -16.8658   21.6538 N   0  0  0  0  0  0  0  0  0  0  0  0
   10.7754  -17.2160   24.0154 C   0  0  0  0  0  0  0  0  0  0  0  0
   11.9916  -16.9176   24.0180 O   0  0  0  0  0  0  0  0  0  0  0  0
   10.2654  -13.5480   29.3371 N   0  0  0  0  0  0  0  0  0  0  0  0
    9.6677  -14.1990   28.2243 C   0  0  0  0  0  0  0  0  0  0  0  0
    8.9692  -13.5446   27.4119 O   0  0  0  0  0  0  0  0  0  0  0  0
    9.8653  -15.6732   28.0092 C   0  0  0  0  0  0  0  0  0  0  0  0
   10.7425  -15.9134   26.7980 C   0  0  0  0  0  0  0  0  0  0  0  0
   10.8510  -17.3895   26.5316 C   0  0  2  0  0  0  0  0  0  0  0  0
   10.2906  -17.7612   25.2537 N   0  0  0  0  0  0  0  0  0  0  0  0
   10.1720  -18.1531   27.6129 C   0  0  0  0  0  0  0  0  0  0  0  0
    9.0251  -18.6416   27.4435 O   0  0  0  0  0  0  0  0  0  0  0  0
   10.7632  -18.3634   28.8516 O   0  0  0  0  0  0  0  0  0  0  0  0
  2  3  1  0
  2  1  1  6
  3  4  1  0
  4  8  1  0
  5  4  2  0
  6  2  1  0
  7  6  2  0
  9 10  1  0
 10 12  1  0
 11 10  2  0
 13 12  1  6
 13 14  1  0
 14  6  1  0
 15 13  1  0
 15 16  2  0
 18 17  1  0
 19 18  2  0
 20 18  1  0
 22 21  1  1
 21 20  1  0
 22 23  1  0
 23 15  1  0
 24 22  1  0
 25 24  2  0
 26 24  1  0
M  END
$$$$
