WQM.pdb
     RDKit          3D

 32 33  0  0  1  0  0  0  0  0999 V2000
    8.1495  -16.4285   25.6424 N   0  0  0  0  0  0  0  0  0  0  0  0
    7.5085  -17.1819   24.5930 C   0  0  1  0  0  0  0  0  0  0  0  0
    6.3895  -16.3369   24.0340 C   0  0  0  0  0  0  0  0  0  0  0  0
    6.7830  -14.8931   23.9617 C   0  0  0  0  0  0  0  0  0  0  0  0
    7.4717  -14.2744   22.9390 C   0  0  0  0  0  0  0  0  0  0  0  0
    7.6335  -12.9762   23.2440 N   0  0  0  0  0  0  0  0  0  0  0  0
    7.0739  -12.7011   24.4426 C   0  0  0  0  0  0  0  0  0  0  0  0
    6.9728  -11.5436   25.1821 C   0  0  0  0  0  0  0  0  0  0  0  0
    6.3271  -11.5798   26.3975 C   0  0  0  0  0  0  0  0  0  0  0  0
    5.7957  -12.7906   26.8397 C   0  0  0  0  0  0  0  0  0  0  0  0
    5.8931  -13.9529   26.1048 C   0  0  0  0  0  0  0  0  0  0  0  0
    6.5386  -13.9057   24.8953 C   0  0  0  0  0  0  0  0  0  0  0  0
    8.4775  -17.4675   23.5150 C   0  0  0  0  0  0  0  0  0  0  0  0
    8.1880  -18.3064   22.6147 O   0  0  0  0  0  0  0  0  0  0  0  0
   12.4525  -14.8204   20.6820 N   0  0  0  0  0  0  0  0  0  0  0  0
   11.2777  -15.5002   20.2956 C   0  0  0  0  0  0  0  0  0  0  0  0
   10.6423  -15.0876   19.2773 O   0  0  0  0  0  0  0  0  0  0  0  0
   10.7587  -16.6773   21.0346 C   0  0  0  0  0  0  0  0  0  0  0  0
   11.7243  -17.0446   22.1216 C   0  0  0  0  0  0  0  0  0  0  0  0
   10.9546  -17.5042   23.3250 C   0  0  2  0  0  0  0  0  0  0  0  0
    9.7244  -16.7881   23.5132 N   0  0  0  0  0  0  0  0  0  0  0  0
   11.7946  -17.4599   24.5637 C   0  0  0  0  0  0  0  0  0  0  0  0
   12.8388  -16.7274   24.6307 O   0  0  0  0  0  0  0  0  0  0  0  0
    9.8209  -13.9566   28.5266 C   0  0  0  0  0  0  0  0  0  0  0  0
   11.5986  -14.1646   28.9035 S   0  0  0  0  0  0  0  0  0  0  0  0
   11.9792  -15.9257   28.6283 C   0  0  0  0  0  0  0  0  0  0  0  0
   11.6301  -16.3290   27.2212 C   0  0  0  0  0  0  0  0  0  0  0  0
   11.9502  -17.7902   27.0325 C   0  0  2  0  0  0  0  0  0  0  0  0
   11.5015  -18.2114   25.7309 N   0  0  0  0  0  0  0  0  0  0  0  0
   11.2421  -18.6119   28.0522 C   0  0  0  0  0  0  0  0  0  0  0  0
   10.1154  -19.1348   27.8225 O   0  0  0  0  0  0  0  0  0  0  0  0
   11.7888  -18.8423   29.3060 O   0  0  0  0  0  0  0  0  0  0  0  0
  2  1  1  1
  2 13  1  0
  2  3  1  0
  3  4  1  0
  4  5  2  0
  6  5  1  0
  7  6  1  0
  8  7  2  0
  9  8  1  0
 10  9  2  0
 10 11  1  0
 11 12  2  0
 12  7  1  0
 12  4  1  0
 13 21  1  0
 14 13  2  0
 16 15  1  0
 16 18  1  0
 17 16  2  0
 19 18  1  0
 20 19  1  6
 21 20  1  0
 22 20  1  0
 23 22  2  0
 25 26  1  0
 25 24  1  0
 26 27  1  0
 28 27  1  1
 28 30  1  0
 28 29  1  0
 29 22  1  0
 30 32  1  0
 31 30  2  0
M  END
$$$$
