WQM.pdb
     RDKit          3D

 32 33  0  0  1  0  0  0  0  0999 V2000
    6.9096  -18.1952   20.2807 N   0  0  0  0  0  0  0  0  0  0  0  0
    7.2174  -17.0580   21.1125 C   0  0  1  0  0  0  0  0  0  0  0  0
    6.2698  -17.0741   22.2874 C   0  0  0  0  0  0  0  0  0  0  0  0
    6.5260  -15.9202   23.2079 C   0  0  0  0  0  0  0  0  0  0  0  0
    6.4361  -15.9253   24.5844 C   0  0  0  0  0  0  0  0  0  0  0  0
    6.7392  -14.7009   25.0466 N   0  0  0  0  0  0  0  0  0  0  0  0
    7.0311  -13.8700   24.0219 C   0  0  0  0  0  0  0  0  0  0  0  0
    7.3956  -12.5429   23.9709 C   0  0  0  0  0  0  0  0  0  0  0  0
    7.6330  -11.9603   22.7463 C   0  0  0  0  0  0  0  0  0  0  0  0
    7.4961  -12.7361   21.5959 C   0  0  0  0  0  0  0  0  0  0  0  0
    7.1317  -14.0649   21.6395 C   0  0  0  0  0  0  0  0  0  0  0  0
    6.8974  -14.6354   22.8648 C   0  0  0  0  0  0  0  0  0  0  0  0
    8.6033  -17.1618   21.6135 C   0  0  0  0  0  0  0  0  0  0  0  0
    9.0614  -18.2850   21.9691 O   0  0  0  0  0  0  0  0  0  0  0  0
   13.0183  -14.0393   18.9926 N   0  0  0  0  0  0  0  0  0  0  0  0
   13.7144  -14.7376   20.0022 C   0  0  0  0  0  0  0  0  0  0  0  0
   14.9660  -14.9053   19.8745 O   0  0  0  0  0  0  0  0  0  0  0  0
   13.0385  -15.2821   21.2053 C   0  0  0  0  0  0  0  0  0  0  0  0
   11.5679  -15.0023   21.1162 C   0  0  0  0  0  0  0  0  0  0  0  0
   10.8209  -16.0690   21.8619 C   0  0  2  0  0  0  0  0  0  0  0  0
    9.3983  -15.9874   21.6860 N   0  0  0  0  0  0  0  0  0  0  0  0
   11.1811  -16.0773   23.3153 C   0  0  0  0  0  0  0  0  0  0  0  0
   12.3972  -16.1613   23.6964 O   0  0  0  0  0  0  0  0  0  0  0  0
    9.8935  -12.9378   28.6411 C   0  0  0  0  0  0  0  0  0  0  0  0
    9.2023  -12.4353   27.0239 S   0  0  0  0  0  0  0  0  0  0  0  0
    9.6640  -13.7416   25.8398 C   0  0  0  0  0  0  0  0  0  0  0  0
    9.7025  -15.0833   26.5202 C   0  0  0  0  0  0  0  0  0  0  0  0
   10.6073  -16.0055   25.7430 C   0  0  2  0  0  0  0  0  0  0  0  0
   10.2206  -15.9942   24.3562 N   0  0  0  0  0  0  0  0  0  0  0  0
   10.4804  -17.4011   26.2455 C   0  0  0  0  0  0  0  0  0  0  0  0
    9.8853  -18.2971   25.5831 O   0  0  0  0  0  0  0  0  0  0  0  0
   11.0118  -17.7836   27.4683 O   0  0  0  0  0  0  0  0  0  0  0  0
  2  1  1  6
  2 13  1  0
  2  3  1  0
  3  4  1  0
  4  5  2  0
  6  5  1  0
  7  6  1  0
  8  7  2  0
  9  8  1  0
 10  9  2  0
 10 11  1  0
 11 12  2  0
 12  7  1  0
 12  4  1  0
 13 21  1  0
 14 13  2  0
 16 15  1  0
 16 18  1  0
 17 16  2  0
 19 18  1  0
 20 19  1  6
 21 20  1  0
 22 20  1  0
 23 22  2  0
 25 26  1  0
 25 24  1  0
 26 27  1  0
 28 27  1  1
 28 30  1  0
 28 29  1  0
 29 22  1  0
 30 32  1  0
 31 30  2  0
M  END
$$$$
