WQM.pdb
     RDKit          3D

 32 33  0  0  1  0  0  0  0  0999 V2000
    6.8700  -17.2248   23.9748 N   0  0  0  0  0  0  0  0  0  0  0  0
    7.9702  -16.3550   23.6392 C   0  0  1  0  0  0  0  0  0  0  0  0
    8.3657  -15.6059   24.8887 C   0  0  0  0  0  0  0  0  0  0  0  0
    7.2396  -14.7552   25.3914 C   0  0  0  0  0  0  0  0  0  0  0  0
    6.1238  -15.1837   26.0801 C   0  0  0  0  0  0  0  0  0  0  0  0
    5.3459  -14.1235   26.3546 N   0  0  0  0  0  0  0  0  0  0  0  0
    5.9046  -12.9921   25.8713 C   0  0  0  0  0  0  0  0  0  0  0  0
    5.5098  -11.6729   25.8931 C   0  0  0  0  0  0  0  0  0  0  0  0
    6.3126  -10.7239   25.3011 C   0  0  0  0  0  0  0  0  0  0  0  0
    7.5017  -11.1319   24.6981 C   0  0  0  0  0  0  0  0  0  0  0  0
    7.9030  -12.4504   24.6726 C   0  0  0  0  0  0  0  0  0  0  0  0
    7.0957  -13.3878   25.2652 C   0  0  0  0  0  0  0  0  0  0  0  0
    9.1219  -17.1564   23.1765 C   0  0  0  0  0  0  0  0  0  0  0  0
    9.3496  -18.2874   23.6931 O   0  0  0  0  0  0  0  0  0  0  0  0
   12.9859  -15.1204   18.3432 N   0  0  0  0  0  0  0  0  0  0  0  0
   12.6027  -14.6100   19.6018 C   0  0  0  0  0  0  0  0  0  0  0  0
   13.1819  -13.5685   20.0386 O   0  0  0  0  0  0  0  0  0  0  0  0
   11.5497  -15.2447   20.4320 C   0  0  0  0  0  0  0  0  0  0  0  0
   11.9073  -16.6812   20.6720 C   0  0  0  0  0  0  0  0  0  0  0  0
   11.2907  -17.1294   21.9646 C   0  0  2  0  0  0  0  0  0  0  0  0
    9.9562  -16.6345   22.1528 N   0  0  0  0  0  0  0  0  0  0  0  0
   12.1592  -16.7862   23.1350 C   0  0  0  0  0  0  0  0  0  0  0  0
   12.5328  -15.5845   23.3535 O   0  0  0  0  0  0  0  0  0  0  0  0
   10.9304  -13.7703   27.9943 C   0  0  0  0  0  0  0  0  0  0  0  0
   10.7445  -15.5587   28.3297 S   0  0  0  0  0  0  0  0  0  0  0  0
   12.1419  -16.3845   27.5007 C   0  0  0  0  0  0  0  0  0  0  0  0
   11.7820  -16.7387   26.0831 C   0  0  0  0  0  0  0  0  0  0  0  0
   12.9715  -17.3834   25.4179 C   0  0  2  0  0  0  0  0  0  0  0  0
   12.6230  -17.7479   24.0694 N   0  0  0  0  0  0  0  0  0  0  0  0
   13.3627  -18.6230   26.1438 C   0  0  0  0  0  0  0  0  0  0  0  0
   14.1275  -18.5945   27.1487 O   0  0  0  0  0  0  0  0  0  0  0  0
   12.9036  -19.8710   25.7490 O   0  0  0  0  0  0  0  0  0  0  0  0
  2  1  1  1
  2 13  1  0
  2  3  1  0
  3  4  1  0
  4  5  2  0
  6  5  1  0
  7  6  1  0
  8  7  2  0
  9  8  1  0
 10  9  2  0
 10 11  1  0
 11 12  2  0
 12  7  1  0
 12  4  1  0
 13 21  1  0
 14 13  2  0
 16 15  1  0
 16 18  1  0
 17 16  2  0
 19 18  1  0
 20 19  1  6
 21 20  1  0
 22 20  1  0
 23 22  2  0
 25 26  1  0
 25 24  1  0
 26 27  1  0
 28 27  1  1
 28 30  1  0
 28 29  1  0
 29 22  1  0
 30 32  1  0
 31 30  2  0
M  END
$$$$
