WQM.pdb
     RDKit          3D

 32 33  0  0  1  0  0  0  0  0999 V2000
    6.7930  -17.3731   23.1781 N   0  0  0  0  0  0  0  0  0  0  0  0
    7.9476  -16.5091   23.1806 C   0  0  1  0  0  0  0  0  0  0  0  0
    8.2826  -16.1887   24.6172 C   0  0  0  0  0  0  0  0  0  0  0  0
    7.2486  -15.2942   25.2297 C   0  0  0  0  0  0  0  0  0  0  0  0
    6.2228  -15.6721   26.0710 C   0  0  0  0  0  0  0  0  0  0  0  0
    5.5086  -14.5844   26.4051 N   0  0  0  0  0  0  0  0  0  0  0  0
    6.0230  -13.4838   25.8138 C   0  0  0  0  0  0  0  0  0  0  0  0
    5.6612  -12.1552   25.8389 C   0  0  0  0  0  0  0  0  0  0  0  0
    6.3997  -11.2463   25.1150 C   0  0  0  0  0  0  0  0  0  0  0  0
    7.4923  -11.7032   24.3790 C   0  0  0  0  0  0  0  0  0  0  0  0
    7.8601  -13.0315   24.3495 C   0  0  0  0  0  0  0  0  0  0  0  0
    7.1173  -13.9286   25.0742 C   0  0  0  0  0  0  0  0  0  0  0  0
    9.0968  -17.2035   22.5642 C   0  0  0  0  0  0  0  0  0  0  0  0
    9.1386  -18.4669   22.5574 O   0  0  0  0  0  0  0  0  0  0  0  0
   14.2370  -14.8127   19.2838 N   0  0  0  0  0  0  0  0  0  0  0  0
   12.9099  -14.4063   19.5389 C   0  0  0  0  0  0  0  0  0  0  0  0
   12.3707  -13.5625   18.7589 O   0  0  0  0  0  0  0  0  0  0  0  0
   12.1229  -14.9278   20.6833 C   0  0  0  0  0  0  0  0  0  0  0  0
   12.2367  -16.4226   20.7222 C   0  0  0  0  0  0  0  0  0  0  0  0
   11.4791  -16.9402   21.9096 C   0  0  2  0  0  0  0  0  0  0  0  0
   10.1392  -16.4304   21.9880 N   0  0  0  0  0  0  0  0  0  0  0  0
   12.2221  -16.6915   23.1856 C   0  0  0  0  0  0  0  0  0  0  0  0
   13.4401  -16.3070   23.1794 O   0  0  0  0  0  0  0  0  0  0  0  0
    9.3483  -13.4662   28.3135 C   0  0  0  0  0  0  0  0  0  0  0  0
   10.0890  -15.1325   28.4559 S   0  0  0  0  0  0  0  0  0  0  0  0
   11.0649  -15.3920   26.9386 C   0  0  0  0  0  0  0  0  0  0  0  0
   11.5748  -16.8063   26.8725 C   0  0  0  0  0  0  0  0  0  0  0  0
   12.4525  -16.9586   25.6562 C   0  0  2  0  0  0  0  0  0  0  0  0
   11.6428  -16.8601   24.4698 N   0  0  0  0  0  0  0  0  0  0  0  0
   13.1104  -18.2941   25.6555 C   0  0  0  0  0  0  0  0  0  0  0  0
   12.5777  -19.3000   25.1077 O   0  0  0  0  0  0  0  0  0  0  0  0
   14.3431  -18.4964   26.2584 O   0  0  0  0  0  0  0  0  0  0  0  0
  2  1  1  1
  2 13  1  0
  2  3  1  0
  3  4  1  0
  4  5  2  0
  6  5  1  0
  7  6  1  0
  8  7  2  0
  9  8  1  0
 10  9  2  0
 10 11  1  0
 11 12  2  0
 12  7  1  0
 12  4  1  0
 13 21  1  0
 14 13  2  0
 16 15  1  0
 16 18  1  0
 17 16  2  0
 19 18  1  0
 20 19  1  6
 21 20  1  0
 22 20  1  0
 23 22  2  0
 25 26  1  0
 25 24  1  0
 26 27  1  0
 28 27  1  1
 28 30  1  0
 28 29  1  0
 29 22  1  0
 30 32  1  0
 31 30  2  0
M  END
$$$$
