WQM.pdb
     RDKit          3D

 32 33  0  0  1  0  0  0  0  0999 V2000
    6.1024  -18.2186   24.0030 N   0  0  0  0  0  0  0  0  0  0  0  0
    6.8170  -17.0400   23.5788 C   0  0  1  0  0  0  0  0  0  0  0  0
    7.5254  -16.4696   24.7837 C   0  0  0  0  0  0  0  0  0  0  0  0
    6.6203  -15.5732   25.5721 C   0  0  0  0  0  0  0  0  0  0  0  0
    5.6711  -15.9617   26.4947 C   0  0  0  0  0  0  0  0  0  0  0  0
    5.0649  -14.8678   26.9850 N   0  0  0  0  0  0  0  0  0  0  0  0
    5.5775  -13.7526   26.4201 C   0  0  0  0  0  0  0  0  0  0  0  0
    5.3018  -12.4130   26.5817 C   0  0  0  0  0  0  0  0  0  0  0  0
    6.0108  -11.4900   25.8463 C   0  0  0  0  0  0  0  0  0  0  0  0
    6.9871  -11.9442   24.9604 C   0  0  0  0  0  0  0  0  0  0  0  0
    7.2683  -13.2834   24.7938 C   0  0  0  0  0  0  0  0  0  0  0  0
    6.5559  -14.1945   25.5313 C   0  0  0  0  0  0  0  0  0  0  0  0
    7.8226  -17.4015   22.5587 C   0  0  0  0  0  0  0  0  0  0  0  0
    8.2867  -18.5767   22.5213 O   0  0  0  0  0  0  0  0  0  0  0  0
    9.5030  -13.3673   17.8293 N   0  0  0  0  0  0  0  0  0  0  0  0
    8.6700  -13.5411   18.9552 C   0  0  0  0  0  0  0  0  0  0  0  0
    7.4873  -13.0821   18.9144 O   0  0  0  0  0  0  0  0  0  0  0  0
    9.1248  -14.2392   20.1827 C   0  0  0  0  0  0  0  0  0  0  0  0
    9.6672  -15.5877   19.8132 C   0  0  0  0  0  0  0  0  0  0  0  0
    9.5301  -16.5091   20.9896 C   0  0  2  0  0  0  0  0  0  0  0  0
    8.2507  -16.4124   21.6340 N   0  0  0  0  0  0  0  0  0  0  0  0
   10.6414  -16.3121   21.9735 C   0  0  0  0  0  0  0  0  0  0  0  0
   11.8622  -16.2895   21.5989 O   0  0  0  0  0  0  0  0  0  0  0  0
   10.4958  -13.5490   28.1641 C   0  0  0  0  0  0  0  0  0  0  0  0
   11.5000  -15.0739   28.2718 S   0  0  0  0  0  0  0  0  0  0  0  0
   12.1291  -15.3942   26.5914 C   0  0  0  0  0  0  0  0  0  0  0  0
   10.9926  -15.4850   25.6091 C   0  0  0  0  0  0  0  0  0  0  0  0
   11.5245  -15.9615   24.2812 C   0  0  2  0  0  0  0  0  0  0  0  0
   10.4278  -16.1394   23.3655 N   0  0  0  0  0  0  0  0  0  0  0  0
   12.2110  -17.2732   24.4383 C   0  0  0  0  0  0  0  0  0  0  0  0
   11.6017  -18.3683   24.2798 O   0  0  0  0  0  0  0  0  0  0  0  0
   13.5562  -17.3538   24.7668 O   0  0  0  0  0  0  0  0  0  0  0  0
  2  1  1  1
  2 13  1  0
  2  3  1  0
  3  4  1  0
  4  5  2  0
  6  5  1  0
  7  6  1  0
  8  7  2  0
  9  8  1  0
 10  9  2  0
 10 11  1  0
 11 12  2  0
 12  7  1  0
 12  4  1  0
 13 21  1  0
 14 13  2  0
 16 15  1  0
 16 18  1  0
 17 16  2  0
 19 18  1  0
 20 19  1  6
 21 20  1  0
 22 20  1  0
 23 22  2  0
 25 26  1  0
 25 24  1  0
 26 27  1  0
 28 27  1  1
 28 30  1  0
 28 29  1  0
 29 22  1  0
 30 32  1  0
 31 30  2  0
M  END
$$$$
