WQM.pdb
     RDKit          3D

 32 33  0  0  1  0  0  0  0  0999 V2000
    7.1576  -17.7270   23.9942 N   0  0  0  0  0  0  0  0  0  0  0  0
    7.9595  -16.5519   23.7579 C   0  0  1  0  0  0  0  0  0  0  0  0
    8.2658  -15.9241   25.0961 C   0  0  0  0  0  0  0  0  0  0  0  0
    7.1316  -15.0653   25.5658 C   0  0  0  0  0  0  0  0  0  0  0  0
    6.0057  -15.4821   26.2452 C   0  0  0  0  0  0  0  0  0  0  0  0
    5.2229  -14.4178   26.4881 N   0  0  0  0  0  0  0  0  0  0  0  0
    5.7880  -13.2950   25.9924 C   0  0  0  0  0  0  0  0  0  0  0  0
    5.3919  -11.9761   25.9836 C   0  0  0  0  0  0  0  0  0  0  0  0
    6.2028  -11.0374   25.3863 C   0  0  0  0  0  0  0  0  0  0  0  0
    7.4013  -11.4552   24.8091 C   0  0  0  0  0  0  0  0  0  0  0  0
    7.8040  -12.7736   24.8143 C   0  0  0  0  0  0  0  0  0  0  0  0
    6.9885  -13.7006   25.4119 C   0  0  0  0  0  0  0  0  0  0  0  0
    9.2292  -16.9323   23.1055 C   0  0  0  0  0  0  0  0  0  0  0  0
    9.6094  -18.1377   23.1234 O   0  0  0  0  0  0  0  0  0  0  0  0
   12.6808  -13.5416   18.9184 N   0  0  0  0  0  0  0  0  0  0  0  0
   13.4366  -14.6927   19.2275 C   0  0  0  0  0  0  0  0  0  0  0  0
   14.5407  -14.8752   18.6288 O   0  0  0  0  0  0  0  0  0  0  0  0
   12.9888  -15.6957   20.2246 C   0  0  0  0  0  0  0  0  0  0  0  0
   11.7194  -15.2222   20.8676 C   0  0  0  0  0  0  0  0  0  0  0  0
   11.2759  -16.2368   21.8804 C   0  0  2  0  0  0  0  0  0  0  0  0
   10.0026  -15.9270   22.4669 N   0  0  0  0  0  0  0  0  0  0  0  0
   12.3152  -16.4476   22.9374 C   0  0  0  0  0  0  0  0  0  0  0  0
   13.5109  -16.7792   22.6347 O   0  0  0  0  0  0  0  0  0  0  0  0
   11.3068  -13.4678   28.3741 C   0  0  0  0  0  0  0  0  0  0  0  0
   10.9101  -15.2457   28.5382 S   0  0  0  0  0  0  0  0  0  0  0  0
   11.3115  -16.0117   26.9338 C   0  0  0  0  0  0  0  0  0  0  0  0
   12.7430  -15.7370   26.5595 C   0  0  0  0  0  0  0  0  0  0  0  0
   13.0840  -16.5102   25.3109 C   0  0  2  0  0  0  0  0  0  0  0  0
   12.0568  -16.2985   24.3246 N   0  0  0  0  0  0  0  0  0  0  0  0
   13.1469  -17.9682   25.6050 C   0  0  0  0  0  0  0  0  0  0  0  0
   12.2612  -18.7703   25.1953 O   0  0  0  0  0  0  0  0  0  0  0  0
   14.1846  -18.5155   26.3451 O   0  0  0  0  0  0  0  0  0  0  0  0
  2  1  1  1
  2 13  1  0
  2  3  1  0
  3  4  1  0
  4  5  2  0
  6  5  1  0
  7  6  1  0
  8  7  2  0
  9  8  1  0
 10  9  2  0
 10 11  1  0
 11 12  2  0
 12  7  1  0
 12  4  1  0
 13 21  1  0
 14 13  2  0
 16 15  1  0
 16 18  1  0
 17 16  2  0
 19 18  1  0
 20 19  1  6
 21 20  1  0
 22 20  1  0
 23 22  2  0
 25 26  1  0
 25 24  1  0
 26 27  1  0
 28 27  1  1
 28 30  1  0
 28 29  1  0
 29 22  1  0
 30 32  1  0
 31 30  2  0
M  END
$$$$
