WQM.pdb
     RDKit          3D

 32 33  0  0  1  0  0  0  0  0999 V2000
    7.7724  -17.2347   25.4408 N   0  0  0  0  0  0  0  0  0  0  0  0
    6.9904  -17.6149   24.2903 C   0  0  1  0  0  0  0  0  0  0  0  0
    5.7206  -16.7987   24.3037 C   0  0  0  0  0  0  0  0  0  0  0  0
    5.8224  -15.6512   25.2615 C   0  0  0  0  0  0  0  0  0  0  0  0
    5.4257  -15.6398   26.5827 C   0  0  0  0  0  0  0  0  0  0  0  0
    5.6796  -14.4283   27.1046 N   0  0  0  0  0  0  0  0  0  0  0  0
    6.2362  -13.6222   26.1740 C   0  0  0  0  0  0  0  0  0  0  0  0
    6.6703  -12.3157   26.2099 C   0  0  0  0  0  0  0  0  0  0  0  0
    7.2060  -11.7566   25.0716 C   0  0  0  0  0  0  0  0  0  0  0  0
    7.2912  -12.5344   23.9176 C   0  0  0  0  0  0  0  0  0  0  0  0
    6.8588  -13.8427   23.8745 C   0  0  0  0  0  0  0  0  0  0  0  0
    6.3266  -14.3899   25.0142 C   0  0  0  0  0  0  0  0  0  0  0  0
    7.7390  -17.3157   23.0522 C   0  0  0  0  0  0  0  0  0  0  0  0
    8.0224  -18.2483   22.2473 O   0  0  0  0  0  0  0  0  0  0  0  0
    7.4570  -12.8585   19.1015 N   0  0  0  0  0  0  0  0  0  0  0  0
    8.6217  -13.6228   18.8754 C   0  0  0  0  0  0  0  0  0  0  0  0
    8.8729  -14.0153   17.6948 O   0  0  0  0  0  0  0  0  0  0  0  0
    9.5616  -13.9840   19.9648 C   0  0  0  0  0  0  0  0  0  0  0  0
    8.7899  -14.2052   21.2315 C   0  0  0  0  0  0  0  0  0  0  0  0
    8.9093  -15.6465   21.6317 C   0  0  2  0  0  0  0  0  0  0  0  0
    8.1280  -15.9753   22.7906 N   0  0  0  0  0  0  0  0  0  0  0  0
   10.3397  -16.0474   21.8190 C   0  0  0  0  0  0  0  0  0  0  0  0
   11.2276  -15.7631   20.9460 O   0  0  0  0  0  0  0  0  0  0  0  0
   10.0650  -15.4373   28.1936 C   0  0  0  0  0  0  0  0  0  0  0  0
   11.5091  -14.5850   27.4632 S   0  0  0  0  0  0  0  0  0  0  0  0
   12.2198  -15.7349   26.2406 C   0  0  0  0  0  0  0  0  0  0  0  0
   11.1684  -16.1826   25.2614 C   0  0  0  0  0  0  0  0  0  0  0  0
   11.7532  -16.1765   23.8718 C   0  0  2  0  0  0  0  0  0  0  0  0
   10.8073  -16.7575   22.9549 N   0  0  0  0  0  0  0  0  0  0  0  0
   12.9972  -16.9932   23.8293 C   0  0  0  0  0  0  0  0  0  0  0  0
   13.0703  -18.0634   23.1623 O   0  0  0  0  0  0  0  0  0  0  0  0
   14.1378  -16.6152   24.5224 O   0  0  0  0  0  0  0  0  0  0  0  0
  2  1  1  1
  2 13  1  0
  2  3  1  0
  3  4  1  0
  4  5  2  0
  6  5  1  0
  7  6  1  0
  8  7  2  0
  9  8  1  0
 10  9  2  0
 10 11  1  0
 11 12  2  0
 12  7  1  0
 12  4  1  0
 13 21  1  0
 14 13  2  0
 16 15  1  0
 16 18  1  0
 17 16  2  0
 19 18  1  0
 20 19  1  1
 21 20  1  0
 22 20  1  0
 23 22  2  0
 25 26  1  0
 25 24  1  0
 26 27  1  0
 28 27  1  1
 28 30  1  0
 28 29  1  0
 29 22  1  0
 30 32  1  0
 31 30  2  0
M  END
$$$$
