WQM.pdb
     RDKit          3D

 32 33  0  0  1  0  0  0  0  0999 V2000
    6.2885  -18.6769   23.5072 N   0  0  0  0  0  0  0  0  0  0  0  0
    7.0606  -17.4594   23.4709 C   0  0  1  0  0  0  0  0  0  0  0  0
    7.4820  -17.1364   24.8840 C   0  0  0  0  0  0  0  0  0  0  0  0
    6.7658  -15.9265   25.4014 C   0  0  0  0  0  0  0  0  0  0  0  0
    5.7095  -15.9078   26.2884 C   0  0  0  0  0  0  0  0  0  0  0  0
    5.3432  -14.6336   26.5048 N   0  0  0  0  0  0  0  0  0  0  0  0
    6.1219  -13.7922   25.7897 C   0  0  0  0  0  0  0  0  0  0  0  0
    6.1489  -12.4205   25.6690 C   0  0  0  0  0  0  0  0  0  0  0  0
    7.0834  -11.8394   24.8418 C   0  0  0  0  0  0  0  0  0  0  0  0
    7.9736  -12.6617   24.1523 C   0  0  0  0  0  0  0  0  0  0  0  0
    7.9524  -14.0352   24.2684 C   0  0  0  0  0  0  0  0  0  0  0  0
    7.0171  -14.6038   25.0952 C   0  0  0  0  0  0  0  0  0  0  0  0
    8.2690  -17.6547   22.6436 C   0  0  0  0  0  0  0  0  0  0  0  0
    8.7847  -18.8045   22.5446 O   0  0  0  0  0  0  0  0  0  0  0  0
    8.4451  -17.7860   18.8782 N   0  0  0  0  0  0  0  0  0  0  0  0
    9.3750  -16.7409   18.6917 C   0  0  0  0  0  0  0  0  0  0  0  0
   10.2636  -16.8693   17.7945 O   0  0  0  0  0  0  0  0  0  0  0  0
    9.3526  -15.5000   19.5043 C   0  0  0  0  0  0  0  0  0  0  0  0
   10.4909  -15.5265   20.4803 C   0  0  0  0  0  0  0  0  0  0  0  0
   10.2007  -16.5458   21.5427 C   0  0  2  0  0  0  0  0  0  0  0  0
    8.8306  -16.5369   21.9717 N   0  0  0  0  0  0  0  0  0  0  0  0
   11.1281  -16.4017   22.7093 C   0  0  0  0  0  0  0  0  0  0  0  0
   12.3938  -16.4952   22.5657 O   0  0  0  0  0  0  0  0  0  0  0  0
   11.0256  -12.9057   28.4305 C   0  0  0  0  0  0  0  0  0  0  0  0
   11.1434  -14.6599   28.9347 S   0  0  0  0  0  0  0  0  0  0  0  0
   11.8543  -15.5555   27.5153 C   0  0  0  0  0  0  0  0  0  0  0  0
   10.9310  -15.4857   26.3290 C   0  0  0  0  0  0  0  0  0  0  0  0
   11.5924  -16.1505   25.1485 C   0  0  2  0  0  0  0  0  0  0  0  0
   10.6816  -16.1558   24.0335 N   0  0  0  0  0  0  0  0  0  0  0  0
   11.9324  -17.5632   25.4725 C   0  0  0  0  0  0  0  0  0  0  0  0
   11.1165  -18.5075   25.2768 O   0  0  0  0  0  0  0  0  0  0  0  0
   13.1652  -17.9093   26.0060 O   0  0  0  0  0  0  0  0  0  0  0  0
  2  1  1  1
  2 13  1  0
  2  3  1  0
  3  4  1  0
  4  5  2  0
  6  5  1  0
  7  6  1  0
  8  7  2  0
  9  8  1  0
 10  9  2  0
 10 11  1  0
 11 12  2  0
 12  7  1  0
 12  4  1  0
 13 21  1  0
 14 13  2  0
 16 15  1  0
 16 18  1  0
 17 16  2  0
 19 18  1  0
 20 19  1  6
 21 20  1  0
 22 20  1  0
 23 22  2  0
 25 26  1  0
 25 24  1  0
 26 27  1  0
 28 27  1  1
 28 30  1  0
 28 29  1  0
 29 22  1  0
 30 32  1  0
 31 30  2  0
M  END
$$$$
