TNG.pdb
     RDKit          3D

 20 19  0  0  1  0  0  0  0  0999 V2000
    9.1844  -19.1834   20.0397 C   0  0  0  0  0  0  0  0  0  0  0  0
    9.1214  -18.8837   18.5534 C   0  0  1  0  0  0  0  0  0  0  0  0
    8.7818  -19.9886   17.8079 O   0  0  0  0  0  0  0  0  0  0  0  0
    8.1137  -17.8052   18.3330 C   0  0  2  0  0  0  0  0  0  0  0  0
    7.6418  -17.6708   16.9895 N   0  0  0  0  0  0  0  0  0  0  0  0
    8.6597  -16.5166   18.8595 C   0  0  0  0  0  0  0  0  0  0  0  0
    8.8421  -15.5458   18.0836 O   0  0  0  0  0  0  0  0  0  0  0  0
    6.5214  -13.0051   19.0200 N   0  0  0  0  0  0  0  0  0  0  0  0
    7.7079  -13.4367   19.6416 C   0  0  0  0  0  0  0  0  0  0  0  0
    8.7974  -12.9310   19.2501 O   0  0  0  0  0  0  0  0  0  0  0  0
    7.7461  -14.4325   20.7096 C   0  0  0  0  0  0  0  0  0  0  0  0
    9.0598  -15.1091   20.9194 C   0  0  2  0  0  0  0  0  0  0  0  0
    8.9654  -16.4030   20.2194 N   0  0  0  0  0  0  0  0  0  0  0  0
    9.4128  -15.3470   22.3336 C   0  0  0  0  0  0  0  0  0  0  0  0
    9.5855  -14.3644   23.0879 O   0  0  0  0  0  0  0  0  0  0  0  0
    9.5518  -16.6529   22.8192 N   0  0  0  0  0  0  0  0  0  0  0  0
   10.8089  -17.3669   22.8972 C   0  0  0  0  0  0  0  0  0  0  0  0
   11.6420  -16.8783   23.9918 C   0  0  0  0  0  0  0  0  0  0  0  0
   11.2769  -15.9556   24.7562 O   0  0  0  0  0  0  0  0  0  0  0  0
   12.8912  -17.4412   24.2164 O   0  0  0  0  0  0  0  0  0  0  0  0
  2  1  1  1
  3  2  1  0
  4  5  1  6
  4  2  1  0
  6  4  1  0
  6  7  2  0
  8  9  1  0
  9 11  1  0
 10  9  2  0
 12 11  1  1
 12 13  1  0
 12 14  1  0
 13  6  1  0
 14 15  2  0
 14 16  1  0
 16 17  1  0
 18 17  1  0
 18 20  1  0
 19 18  2  0
M  END
$$$$
