TNG.pdb
     RDKit          3D

 20 19  0  0  1  0  0  0  0  0999 V2000
    8.4408  -14.3073   25.2988 C   0  0  0  0  0  0  0  0  0  0  0  0
    8.0822  -15.7484   25.6105 C   0  0  1  0  0  0  0  0  0  0  0  0
    7.8020  -15.9444   26.9429 O   0  0  0  0  0  0  0  0  0  0  0  0
    6.8934  -16.1256   24.7908 C   0  0  2  0  0  0  0  0  0  0  0  0
    6.2031  -17.3040   25.2159 N   0  0  0  0  0  0  0  0  0  0  0  0
    7.3019  -16.2109   23.3551 C   0  0  0  0  0  0  0  0  0  0  0  0
    7.4441  -17.3316   22.8060 O   0  0  0  0  0  0  0  0  0  0  0  0
    8.2891  -12.2512   18.8293 N   0  0  0  0  0  0  0  0  0  0  0  0
    7.7591  -13.4837   19.2541 C   0  0  0  0  0  0  0  0  0  0  0  0
    7.6060  -14.3907   18.3881 O   0  0  0  0  0  0  0  0  0  0  0  0
    7.3792  -13.7682   20.6356 C   0  0  0  0  0  0  0  0  0  0  0  0
    7.9378  -15.0244   21.2167 C   0  0  2  0  0  0  0  0  0  0  0  0
    7.5244  -15.0349   22.6316 N   0  0  0  0  0  0  0  0  0  0  0  0
    9.4082  -15.1397   21.1397 C   0  0  0  0  0  0  0  0  0  0  0  0
    9.9534  -15.1882   20.0152 O   0  0  0  0  0  0  0  0  0  0  0  0
   10.1768  -15.1944   22.3087 N   0  0  0  0  0  0  0  0  0  0  0  0
   11.6232  -15.2514   22.3345 C   0  0  0  0  0  0  0  0  0  0  0  0
   12.1054  -16.5247   22.8610 C   0  0  0  0  0  0  0  0  0  0  0  0
   11.3601  -17.5218   23.0001 O   0  0  0  0  0  0  0  0  0  0  0  0
   13.4372  -16.6628   23.2287 O   0  0  0  0  0  0  0  0  0  0  0  0
  2  1  1  1
  3  2  1  0
  4  5  1  1
  4  2  1  0
  6  4  1  0
  6  7  2  0
  8  9  1  0
  9 11  1  0
 10  9  2  0
 12 11  1  1
 12 13  1  0
 12 14  1  0
 13  6  1  0
 14 15  2  0
 14 16  1  0
 16 17  1  0
 18 17  1  0
 18 20  1  0
 19 18  2  0
M  END
$$$$
