TNG.pdb
     RDKit          3D

 20 19  0  0  1  0  0  0  0  0999 V2000
    7.6846  -12.4234   19.0205 C   0  0  0  0  0  0  0  0  0  0  0  0
    7.8669  -13.8286   18.4776 C   0  0  1  0  0  0  0  0  0  0  0  0
    8.2043  -13.8377   17.1441 O   0  0  0  0  0  0  0  0  0  0  0  0
    8.9388  -14.5030   19.2672 C   0  0  2  0  0  0  0  0  0  0  0  0
    9.2978  -15.8138   18.8213 N   0  0  0  0  0  0  0  0  0  0  0  0
    8.5539  -14.4958   20.7120 C   0  0  0  0  0  0  0  0  0  0  0  0
    8.1978  -13.4251   21.2639 O   0  0  0  0  0  0  0  0  0  0  0  0
    5.4613  -15.6673   22.0897 N   0  0  0  0  0  0  0  0  0  0  0  0
    6.0083  -16.8569   22.6055 C   0  0  0  0  0  0  0  0  0  0  0  0
    5.2460  -17.8582   22.7160 O   0  0  0  0  0  0  0  0  0  0  0  0
    7.4030  -16.9944   23.0173 C   0  0  0  0  0  0  0  0  0  0  0  0
    8.2465  -15.7717   22.8712 C   0  0  2  0  0  0  0  0  0  0  0  0
    8.5948  -15.6884   21.4413 N   0  0  0  0  0  0  0  0  0  0  0  0
    9.4866  -15.7778   23.6733 C   0  0  0  0  0  0  0  0  0  0  0  0
    9.4118  -15.5743   24.9050 O   0  0  0  0  0  0  0  0  0  0  0  0
   10.7249  -16.0074   23.0616 N   0  0  0  0  0  0  0  0  0  0  0  0
   11.9856  -16.0817   23.7697 C   0  0  0  0  0  0  0  0  0  0  0  0
   13.0969  -16.3692   22.8677 C   0  0  0  0  0  0  0  0  0  0  0  0
   13.5270  -17.5302   22.6775 O   0  0  0  0  0  0  0  0  0  0  0  0
   13.7180  -15.3343   22.1816 O   0  0  0  0  0  0  0  0  0  0  0  0
  2  1  1  1
  3  2  1  0
  4  5  1  6
  4  2  1  0
  6  4  1  0
  6  7  2  0
  8  9  1  0
  9 11  1  0
 10  9  2  0
 12 11  1  6
 12 13  1  0
 12 14  1  0
 13  6  1  0
 14 15  2  0
 14 16  1  0
 16 17  1  0
 18 17  1  0
 18 20  1  0
 19 18  2  0
M  END
$$$$
