TNG.pdb
     RDKit          3D

 20 19  0  0  1  0  0  0  0  0999 V2000
   10.1646  -13.9936   18.6234 C   0  0  0  0  0  0  0  0  0  0  0  0
    8.7298  -14.4691   18.4900 C   0  0  1  0  0  0  0  0  0  0  0  0
    8.5870  -15.8027   18.7952 O   0  0  0  0  0  0  0  0  0  0  0  0
    7.8769  -13.6547   19.4047 C   0  0  2  0  0  0  0  0  0  0  0  0
    7.9274  -12.2407   19.1950 N   0  0  0  0  0  0  0  0  0  0  0  0
    8.2001  -14.0164   20.8190 C   0  0  0  0  0  0  0  0  0  0  0  0
    9.0518  -13.3522   21.4604 O   0  0  0  0  0  0  0  0  0  0  0  0
    7.6228  -16.5687   25.5046 N   0  0  0  0  0  0  0  0  0  0  0  0
    6.5932  -16.8245   24.5800 C   0  0  0  0  0  0  0  0  0  0  0  0
    5.6204  -17.5349   24.9610 O   0  0  0  0  0  0  0  0  0  0  0  0
    6.5896  -16.3148   23.2111 C   0  0  0  0  0  0  0  0  0  0  0  0
    7.7802  -15.5057   22.8167 C   0  0  2  0  0  0  0  0  0  0  0  0
    7.5481  -15.0984   21.4191 N   0  0  0  0  0  0  0  0  0  0  0  0
    9.0694  -16.2204   22.9062 C   0  0  0  0  0  0  0  0  0  0  0  0
    9.4777  -16.5940   24.0278 O   0  0  0  0  0  0  0  0  0  0  0  0
    9.8209  -16.4736   21.7523 N   0  0  0  0  0  0  0  0  0  0  0  0
   11.0565  -17.2278   21.7301 C   0  0  0  0  0  0  0  0  0  0  0  0
   12.1743  -16.4510   22.2577 C   0  0  0  0  0  0  0  0  0  0  0  0
   12.1765  -15.9750   23.4163 O   0  0  0  0  0  0  0  0  0  0  0  0
   13.2904  -16.2169   21.4656 O   0  0  0  0  0  0  0  0  0  0  0  0
  2  1  1  1
  3  2  1  0
  4  5  1  1
  4  2  1  0
  6  4  1  0
  6  7  2  0
  8  9  1  0
  9 11  1  0
 10  9  2  0
 12 11  1  6
 12 13  1  0
 12 14  1  0
 13  6  1  0
 14 15  2  0
 14 16  1  0
 16 17  1  0
 18 17  1  0
 18 20  1  0
 19 18  2  0
M  END
$$$$
