TNG.pdb
     RDKit          3D

 20 19  0  0  1  0  0  0  0  0999 V2000
    7.7156  -12.3269   19.5278 C   0  0  0  0  0  0  0  0  0  0  0  0
    8.8343  -13.3379   19.6978 C   0  0  1  0  0  0  0  0  0  0  0  0
    8.5059  -14.3429   20.5777 O   0  0  0  0  0  0  0  0  0  0  0  0
    9.1435  -13.9270   18.3619 C   0  0  2  0  0  0  0  0  0  0  0  0
    8.0703  -14.6413   17.7423 N   0  0  0  0  0  0  0  0  0  0  0  0
   10.3749  -14.7673   18.4758 C   0  0  0  0  0  0  0  0  0  0  0  0
   10.3240  -15.9970   18.2245 O   0  0  0  0  0  0  0  0  0  0  0  0
   15.5408  -15.9624   18.1933 N   0  0  0  0  0  0  0  0  0  0  0  0
   15.2249  -14.5913   18.2160 C   0  0  0  0  0  0  0  0  0  0  0  0
   16.1807  -13.7652   18.2293 O   0  0  0  0  0  0  0  0  0  0  0  0
   13.8583  -14.0756   18.2245 C   0  0  0  0  0  0  0  0  0  0  0  0
   12.8535  -14.9115   18.9452 C   0  0  2  0  0  0  0  0  0  0  0  0
   11.5800  -14.1736   18.8645 N   0  0  0  0  0  0  0  0  0  0  0  0
   13.1728  -15.1752   20.3628 C   0  0  0  0  0  0  0  0  0  0  0  0
   14.3106  -15.6028   20.6576 O   0  0  0  0  0  0  0  0  0  0  0  0
   12.2147  -14.9499   21.3587 N   0  0  0  0  0  0  0  0  0  0  0  0
   12.4486  -15.1350   22.7754 C   0  0  0  0  0  0  0  0  0  0  0  0
   13.0417  -16.4381   23.0604 C   0  0  0  0  0  0  0  0  0  0  0  0
   12.4086  -17.5105   22.9257 O   0  0  0  0  0  0  0  0  0  0  0  0
   14.3567  -16.5200   23.4983 O   0  0  0  0  0  0  0  0  0  0  0  0
  2  1  1  6
  3  2  1  0
  4  5  1  1
  4  2  1  0
  6  4  1  0
  6  7  2  0
  8  9  1  0
  9 11  1  0
 10  9  2  0
 12 11  1  1
 12 13  1  0
 12 14  1  0
 13  6  1  0
 14 15  2  0
 14 16  1  0
 16 17  1  0
 18 17  1  0
 18 20  1  0
 19 18  2  0
M  END
$$$$
