TNG.pdb
     RDKit          3D

 20 19  0  0  1  0  0  0  0  0999 V2000
    7.9904  -13.4801   16.7305 C   0  0  0  0  0  0  0  0  0  0  0  0
    8.8146  -14.1879   17.7900 C   0  0  1  0  0  0  0  0  0  0  0  0
   10.1277  -13.7782   17.7958 O   0  0  0  0  0  0  0  0  0  0  0  0
    8.2018  -13.9149   19.1232 C   0  0  2  0  0  0  0  0  0  0  0  0
    8.0257  -12.5329   19.4469 N   0  0  0  0  0  0  0  0  0  0  0  0
    8.9861  -14.6340   20.1736 C   0  0  0  0  0  0  0  0  0  0  0  0
    9.4918  -13.9956   21.1299 O   0  0  0  0  0  0  0  0  0  0  0  0
    7.1340  -19.2712   20.5022 N   0  0  0  0  0  0  0  0  0  0  0  0
    7.9824  -18.4373   21.2540 C   0  0  0  0  0  0  0  0  0  0  0  0
    7.4934  -17.8504   22.2602 O   0  0  0  0  0  0  0  0  0  0  0  0
    9.3905  -18.2161   20.9346 C   0  0  0  0  0  0  0  0  0  0  0  0
    9.8783  -16.8139   21.0883 C   0  0  2  0  0  0  0  0  0  0  0  0
    9.1518  -16.0196   20.0812 N   0  0  0  0  0  0  0  0  0  0  0  0
   11.3312  -16.6402   20.8877 C   0  0  0  0  0  0  0  0  0  0  0  0
   12.1232  -17.2577   21.6331 O   0  0  0  0  0  0  0  0  0  0  0  0
   11.8113  -15.7966   19.8787 N   0  0  0  0  0  0  0  0  0  0  0  0
   13.2101  -15.6415   19.5391 C   0  0  0  0  0  0  0  0  0  0  0  0
   13.9052  -14.7781   20.4891 C   0  0  0  0  0  0  0  0  0  0  0  0
   14.7653  -13.9399   20.1333 O   0  0  0  0  0  0  0  0  0  0  0  0
   13.6201  -14.8689   21.8449 O   0  0  0  0  0  0  0  0  0  0  0  0
  2  1  1  6
  3  2  1  0
  4  5  1  1
  4  2  1  0
  6  4  1  0
  6  7  2  0
  8  9  1  0
  9 11  1  0
 10  9  2  0
 12 11  1  6
 12 13  1  0
 12 14  1  0
 13  6  1  0
 14 15  2  0
 14 16  1  0
 16 17  1  0
 18 17  1  0
 18 20  1  0
 19 18  2  0
M  END
$$$$
