TNG.pdb
     RDKit          3D

 20 19  0  0  1  0  0  0  0  0999 V2000
    7.4079  -12.1686   19.9841 C   0  0  0  0  0  0  0  0  0  0  0  0
    8.4661  -13.2544   20.0482 C   0  0  1  0  0  0  0  0  0  0  0  0
    8.0526  -14.3499   20.7700 O   0  0  0  0  0  0  0  0  0  0  0  0
    8.7968  -13.6723   18.6542 C   0  0  2  0  0  0  0  0  0  0  0  0
    7.7094  -14.2182   17.9023 N   0  0  0  0  0  0  0  0  0  0  0  0
    9.9663  -14.6031   18.6917 C   0  0  0  0  0  0  0  0  0  0  0  0
    9.8666  -15.7598   18.2123 O   0  0  0  0  0  0  0  0  0  0  0  0
   15.3169  -15.4197   17.7535 N   0  0  0  0  0  0  0  0  0  0  0  0
   14.8375  -14.6663   18.8412 C   0  0  0  0  0  0  0  0  0  0  0  0
   15.6075  -14.4987   19.8286 O   0  0  0  0  0  0  0  0  0  0  0  0
   13.5044  -14.0709   18.8884 C   0  0  0  0  0  0  0  0  0  0  0  0
   12.3948  -14.9932   19.2703 C   0  0  2  0  0  0  0  0  0  0  0  0
   11.1683  -14.1755   19.2646 N   0  0  0  0  0  0  0  0  0  0  0  0
   12.5484  -15.6286   20.5947 C   0  0  0  0  0  0  0  0  0  0  0  0
   13.5624  -16.3259   20.8175 O   0  0  0  0  0  0  0  0  0  0  0  0
   11.5723  -15.4518   21.5828 N   0  0  0  0  0  0  0  0  0  0  0  0
   11.7184  -15.8709   22.9609 C   0  0  0  0  0  0  0  0  0  0  0  0
   11.5453  -17.3127   23.1095 C   0  0  0  0  0  0  0  0  0  0  0  0
   10.5161  -17.8194   23.6124 O   0  0  0  0  0  0  0  0  0  0  0  0
   12.5445  -18.1780   22.6844 O   0  0  0  0  0  0  0  0  0  0  0  0
  2  1  1  6
  3  2  1  0
  4  5  1  1
  4  2  1  0
  6  4  1  0
  6  7  2  0
  8  9  1  0
  9 11  1  0
 10  9  2  0
 12 11  1  1
 12 13  1  0
 12 14  1  0
 13  6  1  0
 14 15  2  0
 14 16  1  0
 16 17  1  0
 18 17  1  0
 18 20  1  0
 19 18  2  0
M  END
$$$$
