TNG.pdb
     RDKit          3D

 20 19  0  0  1  0  0  0  0  0999 V2000
    2.3434  -18.7193   20.6345 C   0  0  0  0  0  0  0  0  0  0  0  0
    2.8634  -19.3774   21.8991 C   0  0  1  0  0  0  0  0  0  0  0  0
    2.4838  -20.6956   22.0005 O   0  0  0  0  0  0  0  0  0  0  0  0
    4.3532  -19.2868   21.8985 C   0  0  2  0  0  0  0  0  0  0  0  0
    5.0112  -19.9956   20.8448 N   0  0  0  0  0  0  0  0  0  0  0  0
    4.8641  -19.6944   23.2432 C   0  0  0  0  0  0  0  0  0  0  0  0
    4.4062  -19.1553   24.2812 O   0  0  0  0  0  0  0  0  0  0  0  0
    3.7947  -22.3433   25.1451 N   0  0  0  0  0  0  0  0  0  0  0  0
    4.9010  -23.1660   24.8627 C   0  0  0  0  0  0  0  0  0  0  0  0
    4.7198  -24.4163   24.8525 O   0  0  0  0  0  0  0  0  0  0  0  0
    6.2398  -22.6538   24.5820 C   0  0  0  0  0  0  0  0  0  0  0  0
    6.3875  -21.1690   24.6179 C   0  0  2  0  0  0  0  0  0  0  0  0
    5.8543  -20.6778   23.3343 N   0  0  0  0  0  0  0  0  0  0  0  0
    7.7750  -20.6904   24.7821 C   0  0  0  0  0  0  0  0  0  0  0  0
    8.4349  -20.3865   23.7641 O   0  0  0  0  0  0  0  0  0  0  0  0
    8.3401  -20.5803   26.0584 N   0  0  0  0  0  0  0  0  0  0  0  0
    9.6957  -20.1428   26.3176 C   0  0  0  0  0  0  0  0  0  0  0  0
    9.9839  -20.0918   27.7478 C   0  0  0  0  0  0  0  0  0  0  0  0
    9.1141  -20.3234   28.6189 O   0  0  0  0  0  0  0  0  0  0  0  0
   11.2633  -19.7777   28.1860 O   0  0  0  0  0  0  0  0  0  0  0  0
  2  1  1  6
  3  2  1  0
  4  5  1  6
  4  2  1  0
  6  4  1  0
  6  7  2  0
  8  9  1  0
  9 11  1  0
 10  9  2  0
 12 11  1  6
 12 13  1  0
 12 14  1  0
 13  6  1  0
 14 15  2  0
 14 16  1  0
 16 17  1  0
 18 17  1  0
 18 20  1  0
 19 18  2  0
M  END
$$$$
