TNG.pdb
     RDKit          3D

 20 19  0  0  1  0  0  0  0  0999 V2000
    8.4207  -17.8042   13.6654 C   0  0  0  0  0  0  0  0  0  0  0  0
    9.1133  -17.3220   14.9265 C   0  0  1  0  0  0  0  0  0  0  0  0
   10.4829  -17.3043   14.8006 O   0  0  0  0  0  0  0  0  0  0  0  0
    8.6237  -15.9465   15.2358 C   0  0  2  0  0  0  0  0  0  0  0  0
    8.8745  -14.9640   14.2270 N   0  0  0  0  0  0  0  0  0  0  0  0
    9.1654  -15.5265   16.5646 C   0  0  0  0  0  0  0  0  0  0  0  0
   10.1523  -14.7519   16.6263 O   0  0  0  0  0  0  0  0  0  0  0  0
    7.8888  -12.8546   18.8021 N   0  0  0  0  0  0  0  0  0  0  0  0
    7.1847  -13.8187   19.5471 C   0  0  0  0  0  0  0  0  0  0  0  0
    6.0777  -13.4809   20.0535 O   0  0  0  0  0  0  0  0  0  0  0  0
    7.6631  -15.1817   19.7643 C   0  0  0  0  0  0  0  0  0  0  0  0
    8.9418  -15.5373   19.0814 C   0  0  2  0  0  0  0  0  0  0  0  0
    8.5656  -16.0033   17.7345 N   0  0  0  0  0  0  0  0  0  0  0  0
    9.7304  -16.5881   19.7560 C   0  0  0  0  0  0  0  0  0  0  0  0
   10.1171  -16.3951   20.9296 O   0  0  0  0  0  0  0  0  0  0  0  0
   10.0391  -17.7801   19.0895 N   0  0  0  0  0  0  0  0  0  0  0  0
   10.8590  -18.8375   19.6424 C   0  0  0  0  0  0  0  0  0  0  0  0
   12.2821  -18.5771   19.4476 C   0  0  0  0  0  0  0  0  0  0  0  0
   12.8532  -17.5677   19.9208 O   0  0  0  0  0  0  0  0  0  0  0  0
   13.0553  -19.4670   18.7141 O   0  0  0  0  0  0  0  0  0  0  0  0
  2  1  1  6
  3  2  1  0
  4  5  1  6
  4  2  1  0
  6  4  1  0
  6  7  2  0
  8  9  1  0
  9 11  1  0
 10  9  2  0
 12 11  1  1
 12 13  1  0
 12 14  1  0
 13  6  1  0
 14 15  2  0
 14 16  1  0
 16 17  1  0
 18 17  1  0
 18 20  1  0
 19 18  2  0
M  END
$$$$
