RVS.pdb
     RDKit          3D

 25 24  0  0  1  0  0  0  0  0999 V2000
    7.9799  -17.8566   11.7097 N   0  0  0  0  0  0  0  0  0  0  0  0
    6.7716  -17.2169   12.1005 C   0  0  0  0  0  0  0  0  0  0  0  0
    5.9581  -16.6954   11.2354 N   0  0  0  0  0  0  0  0  0  0  0  0
    6.3799  -17.1100   13.4790 N   0  0  0  0  0  0  0  0  0  0  0  0
    7.0079  -17.8433   14.5079 C   0  0  0  0  0  0  0  0  0  0  0  0
    8.4074  -17.6095   14.8651 C   0  0  0  0  0  0  0  0  0  0  0  0
    8.8229  -16.7479   15.9704 C   0  0  0  0  0  0  0  0  0  0  0  0
    8.7643  -17.2742   17.3481 C   0  0  2  0  0  0  0  0  0  0  0  0
    7.4508  -17.5797   17.8442 N   0  0  0  0  0  0  0  0  0  0  0  0
    9.3400  -16.2870   18.3352 C   0  0  0  0  0  0  0  0  0  0  0  0
   10.4182  -15.7521   18.0741 O   0  0  0  0  0  0  0  0  0  0  0  0
    5.0177  -16.3259   11.4997 C   0  0  0  0  0  0  0  0  0  0  0  0
    7.0794  -14.8480   21.8600 C   0  0  1  0  0  0  0  0  0  0  0  0
    8.1407  -14.1413   21.0891 C   0  0  0  0  0  0  0  0  0  0  0  0
    7.5987  -13.2553   19.9995 C   0  0  1  0  0  0  0  0  0  0  0  0
    9.2084  -15.0813   20.5440 N   0  0  0  0  0  0  0  0  0  0  0  0
    8.6830  -15.9636   19.5367 C   0  0  0  0  0  0  0  0  0  0  0  0
    9.8383  -15.8616   21.6425 O   0  0  0  0  0  0  0  0  0  0  0  0
    9.1975  -16.8155   22.1699 O   0  0  0  0  0  0  0  0  0  0  0  0
   13.7064  -15.7888   22.0472 C   0  0  0  0  0  0  0  0  0  0  0  0
   13.2295  -16.1715   23.2975 C   0  0  2  0  0  0  0  0  0  0  0  0
   11.7378  -16.3060   23.2344 N   0  0  0  0  0  0  0  0  0  0  0  0
   11.1277  -15.6000   22.1420 C   0  0  0  0  0  0  0  0  0  0  0  0
   11.0809  -16.0200   24.5312 O   0  0  0  0  0  0  0  0  0  0  0  0
   10.1818  -15.1649   24.6902 O   0  0  0  0  0  0  0  0  0  0  0  0
  2  1  1  0
  3  2  2  0
  4  2  1  0
  5  4  1  0
  6  5  1  0
  7  6  1  0
  8 10  1  0
  8  7  1  0
  8  9  1  1
 10 11  2  0
 13 12  1  1
 14 13  1  0
 15 13  1  0
 16 10  1  0
 15 16  1  6
 17 22  1  0
 17 15  1  0
 18 17  2  0
 19 20  1  0
 21 20  1  6
 21 22  1  0
 23 21  1  0
 24 23  2  0
 25 23  1  0
M  END
$$$$
