RVS.pdb
     RDKit          3D

 25 24  0  0  1  0  0  0  0  0999 V2000
    7.9437  -12.8363   15.5628 N   0  0  0  0  0  0  0  0  0  0  0  0
    8.3074  -13.5423   16.7423 C   0  0  0  0  0  0  0  0  0  0  0  0
    9.1147  -13.0394   17.6238 N   0  0  0  0  0  0  0  0  0  0  0  0
    7.8012  -14.8566   17.0275 N   0  0  0  0  0  0  0  0  0  0  0  0
    7.3064  -15.2229   18.2971 C   0  0  0  0  0  0  0  0  0  0  0  0
    8.0945  -15.0123   19.5117 C   0  0  0  0  0  0  0  0  0  0  0  0
    7.5055  -14.6588   20.8021 C   0  0  0  0  0  0  0  0  0  0  0  0
    7.5982  -15.6206   21.9177 C   0  0  2  0  0  0  0  0  0  0  0  0
    6.3460  -16.0966   22.4372 N   0  0  0  0  0  0  0  0  0  0  0  0
    8.3135  -15.0162   23.1024 C   0  0  0  0  0  0  0  0  0  0  0  0
    9.4827  -14.6546   22.9641 O   0  0  0  0  0  0  0  0  0  0  0  0
    9.4472  -13.5788   18.4541 C   0  0  0  0  0  0  0  0  0  0  0  0
    6.2344  -13.8122   26.8192 C   0  0  1  0  0  0  0  0  0  0  0  0
    7.4811  -13.2677   26.2116 C   0  0  0  0  0  0  0  0  0  0  0  0
    7.2376  -12.1034   25.2888 C   0  0  1  0  0  0  0  0  0  0  0  0
    8.3272  -14.3345   25.5283 N   0  0  0  0  0  0  0  0  0  0  0  0
    7.6855  -14.8558   24.3512 C   0  0  0  0  0  0  0  0  0  0  0  0
    8.6561  -15.4353   26.4729 O   0  0  0  0  0  0  0  0  0  0  0  0
    7.7482  -16.2436   26.8211 O   0  0  0  0  0  0  0  0  0  0  0  0
   12.2774  -17.1828   26.8696 C   0  0  0  0  0  0  0  0  0  0  0  0
   11.1427  -17.7464   27.4458 C   0  0  1  0  0  0  0  0  0  0  0  0
   10.2667  -16.6524   27.9777 N   0  0  0  0  0  0  0  0  0  0  0  0
    9.9391  -15.6382   27.0144 C   0  0  0  0  0  0  0  0  0  0  0  0
   10.7683  -16.0838   29.2506 O   0  0  0  0  0  0  0  0  0  0  0  0
   10.9384  -14.8616   29.4558 O   0  0  0  0  0  0  0  0  0  0  0  0
  2  1  1  0
  3  2  2  0
  4  2  1  0
  5  4  1  0
  6  5  1  0
  7  6  1  0
  8 10  1  0
  8  7  1  0
  8  9  1  1
 10 11  2  0
 13 12  1  1
 14 13  1  0
 15 13  1  0
 16 10  1  0
 15 16  1  6
 17 22  1  0
 17 15  1  0
 18 17  2  0
 19 20  1  0
 21 20  1  6
 21 22  1  0
 23 21  1  0
 24 23  2  0
 25 23  1  0
M  END
$$$$
