RVS.pdb
     RDKit          3D

 25 24  0  0  1  0  0  0  0  0999 V2000
    7.0451  -17.1170   14.1631 N   0  0  0  0  0  0  0  0  0  0  0  0
    7.8040  -17.6787   13.0999 C   0  0  0  0  0  0  0  0  0  0  0  0
    7.4541  -17.5435   11.8585 N   0  0  0  0  0  0  0  0  0  0  0  0
    9.0052  -18.4306   13.3385 N   0  0  0  0  0  0  0  0  0  0  0  0
    9.6154  -18.5079   14.6083 C   0  0  0  0  0  0  0  0  0  0  0  0
    9.4803  -17.4274   15.5856 C   0  0  0  0  0  0  0  0  0  0  0  0
   10.0968  -17.4588   16.9106 C   0  0  0  0  0  0  0  0  0  0  0  0
    9.2325  -17.6045   18.0980 C   0  0  2  0  0  0  0  0  0  0  0  0
    7.8193  -17.5052   17.8573 N   0  0  0  0  0  0  0  0  0  0  0  0
    9.5339  -16.5414   19.1272 C   0  0  0  0  0  0  0  0  0  0  0  0
   10.7071  -16.3446   19.4461 O   0  0  0  0  0  0  0  0  0  0  0  0
    8.0116  -17.9426   11.0706 C   0  0  0  0  0  0  0  0  0  0  0  0
    7.4489  -13.0339   19.6819 C   0  0  1  0  0  0  0  0  0  0  0  0
    7.6065  -13.8368   20.9270 C   0  0  0  0  0  0  0  0  0  0  0  0
    7.7627  -12.9953   22.1655 C   0  0  2  0  0  0  0  0  0  0  0  0
    8.7181  -14.8741   20.8315 N   0  0  0  0  0  0  0  0  0  0  0  0
    8.5184  -15.7746   19.7277 C   0  0  0  0  0  0  0  0  0  0  0  0
    8.8465  -15.6319   22.1049 O   0  0  0  0  0  0  0  0  0  0  0  0
    7.8361  -16.2308   22.5730 O   0  0  0  0  0  0  0  0  0  0  0  0
   11.4864  -18.2992   22.7934 C   0  0  0  0  0  0  0  0  0  0  0  0
   10.3243  -18.0769   23.5262 C   0  0  1  0  0  0  0  0  0  0  0  0
   10.2651  -16.6339   23.9280 N   0  0  0  0  0  0  0  0  0  0  0  0
   10.0452  -15.7263   22.8363 C   0  0  0  0  0  0  0  0  0  0  0  0
   11.4072  -16.2286   24.7803 O   0  0  0  0  0  0  0  0  0  0  0  0
   12.1475  -15.2482   24.5442 O   0  0  0  0  0  0  0  0  0  0  0  0
  2  1  1  0
  3  2  2  0
  4  2  1  0
  5  4  1  0
  6  5  1  0
  7  6  1  0
  8 10  1  0
  8  7  1  0
  8  9  1  6
 10 11  2  0
 13 12  1  1
 14 13  1  0
 15 13  1  0
 16 10  1  0
 15 16  1  6
 17 22  1  0
 17 15  1  0
 18 17  2  0
 19 20  1  0
 21 20  1  1
 21 22  1  0
 23 21  1  0
 24 23  2  0
 25 23  1  0
M  END
$$$$
