RVS.pdb
     RDKit          3D

 25 24  0  0  1  0  0  0  0  0999 V2000
    9.8441  -21.5585   16.6955 N   0  0  0  0  0  0  0  0  0  0  0  0
    8.8105  -22.2907   17.3415 C   0  0  0  0  0  0  0  0  0  0  0  0
    8.3798  -23.4244   16.8820 N   0  0  0  0  0  0  0  0  0  0  0  0
    8.1811  -21.8172   18.5435 N   0  0  0  0  0  0  0  0  0  0  0  0
    8.6395  -20.6833   19.2470 C   0  0  0  0  0  0  0  0  0  0  0  0
    8.3356  -19.3276   18.7880 C   0  0  0  0  0  0  0  0  0  0  0  0
    8.8625  -18.7607   17.5479 C   0  0  0  0  0  0  0  0  0  0  0  0
    8.5995  -17.3409   17.2425 C   0  0  2  0  0  0  0  0  0  0  0  0
    9.1967  -16.8412   16.0349 N   0  0  0  0  0  0  0  0  0  0  0  0
    9.1152  -16.4412   18.3402 C   0  0  0  0  0  0  0  0  0  0  0  0
   10.3280  -16.2411   18.4181 O   0  0  0  0  0  0  0  0  0  0  0  0
    7.6938  -24.0171   17.4005 C   0  0  0  0  0  0  0  0  0  0  0  0
    7.2497  -13.0269   19.6171 C   0  0  1  0  0  0  0  0  0  0  0  0
    7.6038  -13.9609   20.7227 C   0  0  0  0  0  0  0  0  0  0  0  0
    7.9583  -13.2601   22.0070 C   0  0  2  0  0  0  0  0  0  0  0  0
    8.6839  -14.9627   20.3347 N   0  0  0  0  0  0  0  0  0  0  0  0
    8.2544  -15.8294   19.2700 C   0  0  0  0  0  0  0  0  0  0  0  0
    9.1149  -15.7604   21.5137 O   0  0  0  0  0  0  0  0  0  0  0  0
    8.3760  -16.6984   21.9295 O   0  0  0  0  0  0  0  0  0  0  0  0
   12.7871  -16.6721   22.1488 C   0  0  0  0  0  0  0  0  0  0  0  0
   12.2666  -16.4367   23.4179 C   0  0  2  0  0  0  0  0  0  0  0  0
   10.7754  -16.3163   23.3230 N   0  0  0  0  0  0  0  0  0  0  0  0
   10.3167  -15.5327   22.2096 C   0  0  0  0  0  0  0  0  0  0  0  0
   10.1508  -15.9038   24.6016 O   0  0  0  0  0  0  0  0  0  0  0  0
    9.3631  -14.9392   24.7202 O   0  0  0  0  0  0  0  0  0  0  0  0
  2  1  1  0
  3  2  2  0
  4  2  1  0
  5  4  1  0
  6  5  1  0
  7  6  1  0
  8 10  1  0
  8  7  1  0
  8  9  1  6
 10 11  2  0
 13 12  1  1
 14 13  1  0
 15 13  1  0
 16 10  1  0
 15 16  1  6
 17 22  1  0
 17 15  1  0
 18 17  2  0
 19 20  1  0
 21 20  1  6
 21 22  1  0
 23 21  1  0
 24 23  2  0
 25 23  1  0
M  END
$$$$
