RVS.pdb
     RDKit          3D

 25 24  0  0  1  0  0  0  0  0999 V2000
    7.8176  -13.7086   15.4615 N   0  0  0  0  0  0  0  0  0  0  0  0
    8.5463  -14.7370   16.1196 C   0  0  0  0  0  0  0  0  0  0  0  0
    8.8905  -15.8315   15.5150 N   0  0  0  0  0  0  0  0  0  0  0  0
    8.9450  -14.6243   17.4957 N   0  0  0  0  0  0  0  0  0  0  0  0
    8.5416  -13.5525   18.3199 C   0  0  0  0  0  0  0  0  0  0  0  0
    7.3354  -13.6372   19.1438 C   0  0  0  0  0  0  0  0  0  0  0  0
    7.3358  -13.4478   20.5932 C   0  0  0  0  0  0  0  0  0  0  0  0
    7.8233  -14.5408   21.4568 C   0  0  2  0  0  0  0  0  0  0  0  0
    6.8305  -15.4861   21.8875 N   0  0  0  0  0  0  0  0  0  0  0  0
    8.4338  -14.0018   22.7285 C   0  0  0  0  0  0  0  0  0  0  0  0
    9.4978  -13.3857   22.6572 O   0  0  0  0  0  0  0  0  0  0  0  0
    9.3935  -16.6075   16.0003 C   0  0  0  0  0  0  0  0  0  0  0  0
    7.8475  -12.2198   27.2022 C   0  0  1  0  0  0  0  0  0  0  0  0
    7.2841  -13.0070   26.0696 C   0  0  0  0  0  0  0  0  0  0  0  0
    6.2246  -13.9893   26.4928 C   0  0  2  0  0  0  0  0  0  0  0  0
    8.3538  -13.6910   25.2279 N   0  0  0  0  0  0  0  0  0  0  0  0
    7.8247  -14.1828   23.9840 C   0  0  0  0  0  0  0  0  0  0  0  0
    9.0033  -14.7917   25.9888 O   0  0  0  0  0  0  0  0  0  0  0  0
    8.3878  -15.8856   26.1410 O   0  0  0  0  0  0  0  0  0  0  0  0
   10.7262  -15.5404   30.0900 C   0  0  0  0  0  0  0  0  0  0  0  0
   10.2563  -14.7770   29.0254 C   0  0  2  0  0  0  0  0  0  0  0  0
   10.7103  -15.3966   27.7381 N   0  0  0  0  0  0  0  0  0  0  0  0
   10.2849  -14.6905   26.5616 C   0  0  0  0  0  0  0  0  0  0  0  0
   10.4175  -16.8471   27.6652 O   0  0  0  0  0  0  0  0  0  0  0  0
    9.2644  -17.3303   27.6236 O   0  0  0  0  0  0  0  0  0  0  0  0
  2  1  1  0
  3  2  2  0
  4  2  1  0
  5  4  1  0
  6  5  1  0
  7  6  1  0
  8 10  1  0
  8  7  1  0
  8  9  1  1
 10 11  2  0
 13 12  1  6
 14 13  1  0
 15 13  1  0
 16 10  1  0
 15 16  1  1
 17 22  1  0
 17 15  1  0
 18 17  2  0
 19 20  1  0
 21 20  1  1
 21 22  1  0
 23 21  1  0
 24 23  2  0
 25 23  1  0
M  END
$$$$
