RVS.pdb
     RDKit          3D

 25 24  0  0  1  0  0  0  0  0999 V2000
    7.0223  -20.9228   19.4543 N   0  0  0  0  0  0  0  0  0  0  0  0
    7.6185  -21.8066   18.5134 C   0  0  0  0  0  0  0  0  0  0  0  0
    7.0025  -22.8588   18.0716 N   0  0  0  0  0  0  0  0  0  0  0  0
    8.9408  -21.5859   17.9958 N   0  0  0  0  0  0  0  0  0  0  0  0
    9.7263  -20.4729   18.3633 C   0  0  0  0  0  0  0  0  0  0  0  0
    9.2957  -19.1059   18.0688 C   0  0  0  0  0  0  0  0  0  0  0  0
    9.7081  -18.3719   16.8739 C   0  0  0  0  0  0  0  0  0  0  0  0
    9.2194  -16.9932   16.6775 C   0  0  2  0  0  0  0  0  0  0  0  0
    9.7406  -16.3038   15.5295 N   0  0  0  0  0  0  0  0  0  0  0  0
    9.5678  -16.1167   17.8568 C   0  0  0  0  0  0  0  0  0  0  0  0
   10.7353  -15.7497   17.9948 O   0  0  0  0  0  0  0  0  0  0  0  0
    7.4599  -23.5549   17.4415 C   0  0  0  0  0  0  0  0  0  0  0  0
    7.1833  -13.1177   19.4160 C   0  0  2  0  0  0  0  0  0  0  0  0
    7.6432  -14.1285   20.4093 C   0  0  0  0  0  0  0  0  0  0  0  0
    7.8470  -13.5615   21.7889 C   0  0  2  0  0  0  0  0  0  0  0  0
    8.8755  -14.8978   19.9509 N   0  0  0  0  0  0  0  0  0  0  0  0
    8.6019  -15.7105   18.7959 C   0  0  0  0  0  0  0  0  0  0  0  0
    9.4217  -15.7305   21.0557 O   0  0  0  0  0  0  0  0  0  0  0  0
    8.8381  -16.8088   21.3644 O   0  0  0  0  0  0  0  0  0  0  0  0
   13.0125  -16.7752   24.1294 C   0  0  0  0  0  0  0  0  0  0  0  0
   12.5491  -15.8646   23.1843 C   0  0  2  0  0  0  0  0  0  0  0  0
   11.1186  -16.1761   22.8618 N   0  0  0  0  0  0  0  0  0  0  0  0
   10.5696  -15.3871   21.7941 C   0  0  0  0  0  0  0  0  0  0  0  0
   10.2498  -16.1882   24.0618 O   0  0  0  0  0  0  0  0  0  0  0  0
    9.3355  -15.3617   24.2762 O   0  0  0  0  0  0  0  0  0  0  0  0
  2  1  1  0
  3  2  2  0
  4  2  1  0
  5  4  1  0
  6  5  1  0
  7  6  1  0
  8 10  1  0
  8  7  1  0
  8  9  1  6
 10 11  2  0
 13 12  1  1
 14 13  1  0
 15 13  1  0
 16 10  1  0
 15 16  1  6
 17 22  1  0
 17 15  1  0
 18 17  2  0
 19 20  1  0
 21 20  1  6
 21 22  1  0
 23 21  1  0
 24 23  2  0
 25 23  1  0
M  END
$$$$
