RVS.pdb
     RDKit          3D

 25 24  0  0  1  0  0  0  0  0999 V2000
    7.7468  -12.2934   16.8165 N   0  0  0  0  0  0  0  0  0  0  0  0
    8.2027  -13.6361   16.7107 C   0  0  0  0  0  0  0  0  0  0  0  0
    8.4130  -14.2030   15.5634 N   0  0  0  0  0  0  0  0  0  0  0  0
    8.4576  -14.4454   17.8705 N   0  0  0  0  0  0  0  0  0  0  0  0
    8.5496  -13.9052   19.1706 C   0  0  0  0  0  0  0  0  0  0  0  0
    7.3530  -13.5970   19.9541 C   0  0  0  0  0  0  0  0  0  0  0  0
    6.7486  -14.5315   20.9018 C   0  0  0  0  0  0  0  0  0  0  0  0
    7.6282  -15.3912   21.7175 C   0  0  2  0  0  0  0  0  0  0  0  0
    7.0354  -16.6055   22.2062 N   0  0  0  0  0  0  0  0  0  0  0  0
    8.1133  -14.6646   22.9492 C   0  0  0  0  0  0  0  0  0  0  0  0
    8.4159  -13.4747   22.8514 O   0  0  0  0  0  0  0  0  0  0  0  0
    8.8187  -15.1614   15.4759 C   0  0  0  0  0  0  0  0  0  0  0  0
    8.6159  -12.5578   26.7622 C   0  0  2  0  0  0  0  0  0  0  0  0
    8.0309  -13.3148   25.6200 C   0  0  0  0  0  0  0  0  0  0  0  0
    6.5339  -13.4532   25.6985 C   0  0  2  0  0  0  0  0  0  0  0  0
    8.6909  -14.6704   25.4020 N   0  0  0  0  0  0  0  0  0  0  0  0
    8.2283  -15.3049   24.1968 C   0  0  0  0  0  0  0  0  0  0  0  0
    8.4749  -15.5596   26.5745 O   0  0  0  0  0  0  0  0  0  0  0  0
    7.3451  -16.1029   26.7391 O   0  0  0  0  0  0  0  0  0  0  0  0
   11.3466  -17.8335   26.3704 C   0  0  0  0  0  0  0  0  0  0  0  0
   10.1073  -18.1424   26.9236 C   0  0  1  0  0  0  0  0  0  0  0  0
    9.7933  -17.1558   28.0077 N   0  0  0  0  0  0  0  0  0  0  0  0
    9.4680  -15.8401   27.5315 C   0  0  0  0  0  0  0  0  0  0  0  0
   10.8181  -17.1338   29.0775 O   0  0  0  0  0  0  0  0  0  0  0  0
   11.4217  -16.1040   29.4516 O   0  0  0  0  0  0  0  0  0  0  0  0
  2  1  1  0
  3  2  2  0
  4  2  1  0
  5  4  1  0
  6  5  1  0
  7  6  1  0
  8 10  1  0
  8  7  1  0
  8  9  1  1
 10 11  2  0
 13 12  1  6
 14 13  1  0
 15 13  1  0
 16 10  1  0
 15 16  1  1
 17 22  1  0
 17 15  1  0
 18 17  2  0
 19 20  1  0
 21 20  1  6
 21 22  1  0
 23 21  1  0
 24 23  2  0
 25 23  1  0
M  END
$$$$
