QPQ.pdb
     RDKit          3D

 26 26  0  0  1  0  0  0  0  0999 V2000
    6.7079  -19.7888   23.2488 N   0  0  0  0  0  0  0  0  0  0  0  0
    6.1983  -19.1898   22.0696 C   0  0  0  0  0  0  0  0  0  0  0  0
    4.9387  -19.1991   21.9254 O   0  0  0  0  0  0  0  0  0  0  0  0
    7.0694  -18.5745   21.0372 C   0  0  0  0  0  0  0  0  0  0  0  0
    6.2065  -17.8425   20.0593 C   0  0  0  0  0  0  0  0  0  0  0  0
    7.0366  -17.2281   18.9244 C   0  0  2  0  0  0  0  0  0  0  0  0
    7.4327  -18.1897   17.9637 N   0  0  0  0  0  0  0  0  0  0  0  0
    8.0839  -16.3738   19.4913 C   0  0  0  0  0  0  0  0  0  0  0  0
    9.2662  -16.7693   19.1785 O   0  0  0  0  0  0  0  0  0  0  0  0
    7.9055  -15.2240   20.3023 N   0  0  0  0  0  0  0  0  0  0  0  0
    6.7596  -14.6434   20.9400 C   0  0  0  0  0  0  0  0  0  0  0  0
    6.8508  -13.1793   20.5694 C   0  0  0  0  0  0  0  0  0  0  0  0
    8.3420  -12.9753   20.4845 C   0  0  0  0  0  0  0  0  0  0  0  0
    8.9874  -14.3314   20.6686 C   0  0  1  0  0  0  0  0  0  0  0  0
    9.4440  -14.5136   22.0563 C   0  0  0  0  0  0  0  0  0  0  0  0
   10.3129  -13.8347   22.6320 O   0  0  0  0  0  0  0  0  0  0  0  0
    7.0129  -18.6778   25.8510 N   0  0  0  0  0  0  0  0  0  0  0  0
    7.7111  -17.9736   26.8697 C   0  0  0  0  0  0  0  0  0  0  0  0
    7.7351  -18.3647   28.0473 O   0  0  0  0  0  0  0  0  0  0  0  0
    8.4208  -16.7159   26.4142 C   0  0  0  0  0  0  0  0  0  0  0  0
    8.1212  -16.4672   24.9596 C   0  0  0  0  0  0  0  0  0  0  0  0
    9.1767  -15.7271   24.2310 C   0  0  2  0  0  0  0  0  0  0  0  0
    8.8417  -15.5563   22.8096 N   0  0  0  0  0  0  0  0  0  0  0  0
   10.4784  -16.4111   24.3241 C   0  0  0  0  0  0  0  0  0  0  0  0
   10.7576  -17.3287   23.4762 O   0  0  0  0  0  0  0  0  0  0  0  0
   11.4504  -16.1420   25.2692 O   0  0  0  0  0  0  0  0  0  0  0  0
  2  1  1  0
  3  2  2  0
  4  2  1  0
  5  4  1  0
  6  5  1  0
  6  7  1  1
  8 10  1  0
  8  6  1  0
  9  8  2  0
 10 14  1  0
 11 12  1  0
 11 10  1  0
 12 13  1  0
 13 14  1  0
 14 15  1  1
 15 16  2  0
 18 17  1  0
 18 19  2  0
 20 21  1  0
 20 18  1  0
 22 21  1  1
 22 24  1  0
 22 23  1  0
 23 15  1  0
 24 26  1  0
 25 24  2  0
M  END
$$$$
