QPQ.pdb
     RDKit          3D

 26 26  0  0  1  0  0  0  0  0999 V2000
    8.7568  -19.7801   19.3823 N   0  0  0  0  0  0  0  0  0  0  0  0
    7.5926  -19.2883   18.7408 C   0  0  0  0  0  0  0  0  0  0  0  0
    6.4996  -19.4139   19.3708 O   0  0  0  0  0  0  0  0  0  0  0  0
    7.6191  -18.6532   17.3993 C   0  0  0  0  0  0  0  0  0  0  0  0
    7.1444  -17.2411   17.5304 C   0  0  0  0  0  0  0  0  0  0  0  0
    8.2115  -16.2419   17.0638 C   0  0  2  0  0  0  0  0  0  0  0  0
    9.0065  -16.7541   16.0101 N   0  0  0  0  0  0  0  0  0  0  0  0
    8.9119  -15.6943   18.2288 C   0  0  0  0  0  0  0  0  0  0  0  0
   10.1854  -15.8540   18.1589 O   0  0  0  0  0  0  0  0  0  0  0  0
    8.3328  -15.0465   19.3498 N   0  0  0  0  0  0  0  0  0  0  0  0
    6.9774  -14.8500   19.7752 C   0  0  0  0  0  0  0  0  0  0  0  0
    6.9218  -13.3764   20.1141 C   0  0  0  0  0  0  0  0  0  0  0  0
    8.3251  -13.1190   20.6009 C   0  0  0  0  0  0  0  0  0  0  0  0
    9.1119  -14.3930   20.3830 C   0  0  1  0  0  0  0  0  0  0  0  0
    9.1993  -15.1773   21.6259 C   0  0  0  0  0  0  0  0  0  0  0  0
    8.4029  -16.0623   21.9858 O   0  0  0  0  0  0  0  0  0  0  0  0
   15.7464  -17.1893   24.3385 N   0  0  0  0  0  0  0  0  0  0  0  0
   14.8281  -16.2739   23.7556 C   0  0  0  0  0  0  0  0  0  0  0  0
   15.1981  -15.2235   23.2080 O   0  0  0  0  0  0  0  0  0  0  0  0
   13.3706  -16.6731   23.8516 C   0  0  0  0  0  0  0  0  0  0  0  0
   12.5253  -15.6773   23.1023 C   0  0  0  0  0  0  0  0  0  0  0  0
   11.0825  -16.0072   23.0534 C   0  0  2  0  0  0  0  0  0  0  0  0
   10.2886  -14.9028   22.4951 N   0  0  0  0  0  0  0  0  0  0  0  0
   10.5566  -16.3293   24.3915 C   0  0  0  0  0  0  0  0  0  0  0  0
    9.8605  -15.4515   25.0109 O   0  0  0  0  0  0  0  0  0  0  0  0
   10.7518  -17.5267   25.0537 O   0  0  0  0  0  0  0  0  0  0  0  0
  2  1  1  0
  3  2  2  0
  4  2  1  0
  5  4  1  0
  6  5  1  0
  6  7  1  6
  8 10  1  0
  8  6  1  0
  9  8  2  0
 10 14  1  0
 11 12  1  0
 11 10  1  0
 12 13  1  0
 13 14  1  0
 14 15  1  1
 15 16  2  0
 18 17  1  0
 18 19  2  0
 20 21  1  0
 20 18  1  0
 22 21  1  1
 22 24  1  0
 22 23  1  0
 23 15  1  0
 24 26  1  0
 25 24  2  0
M  END
$$$$
