QPQ.pdb
     RDKit          3D

 26 26  0  0  1  0  0  0  0  0999 V2000
    6.0637  -17.2707   25.2731 N   0  0  0  0  0  0  0  0  0  0  0  0
    6.8969  -17.9246   24.3312 C   0  0  0  0  0  0  0  0  0  0  0  0
    7.6144  -18.8739   24.7688 O   0  0  0  0  0  0  0  0  0  0  0  0
    6.9491  -17.5407   22.8982 C   0  0  0  0  0  0  0  0  0  0  0  0
    6.3284  -16.1890   22.7435 C   0  0  0  0  0  0  0  0  0  0  0  0
    7.3654  -15.1363   22.3299 C   0  0  2  0  0  0  0  0  0  0  0  0
    8.1235  -15.5387   21.2038 N   0  0  0  0  0  0  0  0  0  0  0  0
    8.1056  -14.6875   23.5125 C   0  0  0  0  0  0  0  0  0  0  0  0
    9.3781  -14.7993   23.3699 O   0  0  0  0  0  0  0  0  0  0  0  0
    7.5633  -14.1748   24.7186 N   0  0  0  0  0  0  0  0  0  0  0  0
    6.2208  -13.9848   25.1860 C   0  0  0  0  0  0  0  0  0  0  0  0
    6.2280  -12.5694   25.7207 C   0  0  0  0  0  0  0  0  0  0  0  0
    7.6450  -12.4350   26.2175 C   0  0  0  0  0  0  0  0  0  0  0  0
    8.3775  -13.6976   25.8190 C   0  0  1  0  0  0  0  0  0  0  0  0
    8.4442  -14.6452   26.9437 C   0  0  0  0  0  0  0  0  0  0  0  0
    7.4981  -15.3245   27.3805 O   0  0  0  0  0  0  0  0  0  0  0  0
   12.3343  -18.8997   27.4658 N   0  0  0  0  0  0  0  0  0  0  0  0
   12.3527  -17.8315   26.5279 C   0  0  0  0  0  0  0  0  0  0  0  0
   13.0404  -17.8689   25.4954 O   0  0  0  0  0  0  0  0  0  0  0  0
   11.4750  -16.6488   26.8798 C   0  0  0  0  0  0  0  0  0  0  0  0
   10.7794  -16.9099   28.1896 C   0  0  0  0  0  0  0  0  0  0  0  0
    9.8689  -15.8283   28.6300 C   0  0  2  0  0  0  0  0  0  0  0  0
    9.6986  -14.8015   27.5914 N   0  0  0  0  0  0  0  0  0  0  0  0
   10.3601  -15.1745   29.8556 C   0  0  0  0  0  0  0  0  0  0  0  0
   10.5913  -13.9155   29.8356 O   0  0  0  0  0  0  0  0  0  0  0  0
   10.5980  -15.8162   31.0564 O   0  0  0  0  0  0  0  0  0  0  0  0
  2  1  1  0
  3  2  2  0
  4  2  1  0
  5  4  1  0
  6  5  1  0
  6  7  1  6
  8 10  1  0
  8  6  1  0
  9  8  2  0
 10 14  1  0
 11 12  1  0
 11 10  1  0
 12 13  1  0
 13 14  1  0
 14 15  1  1
 15 16  2  0
 18 17  1  0
 18 19  2  0
 20 21  1  0
 20 18  1  0
 22 21  1  6
 22 24  1  0
 22 23  1  0
 23 15  1  0
 24 26  1  0
 25 24  2  0
M  END
$$$$
