QPQ.pdb
     RDKit          3D

 26 26  0  0  1  0  0  0  0  0999 V2000
    4.8601  -16.9429   21.4228 N   0  0  0  0  0  0  0  0  0  0  0  0
    6.2473  -17.2094   21.3061 C   0  0  0  0  0  0  0  0  0  0  0  0
    6.5815  -18.4201   21.1333 O   0  0  0  0  0  0  0  0  0  0  0  0
    7.2809  -16.1464   21.3784 C   0  0  0  0  0  0  0  0  0  0  0  0
    6.5975  -14.8274   21.5511 C   0  0  0  0  0  0  0  0  0  0  0  0
    7.6088  -13.6895   21.7442 C   0  0  2  0  0  0  0  0  0  0  0  0
    8.5080  -13.5762   20.6565 N   0  0  0  0  0  0  0  0  0  0  0  0
    8.1871  -13.7716   23.0883 C   0  0  0  0  0  0  0  0  0  0  0  0
    9.4459  -14.0309   23.0687 O   0  0  0  0  0  0  0  0  0  0  0  0
    7.5115  -13.5991   24.3233 N   0  0  0  0  0  0  0  0  0  0  0  0
    6.1520  -13.2920   24.6615 C   0  0  0  0  0  0  0  0  0  0  0  0
    6.2821  -12.1848   25.6844 C   0  0  0  0  0  0  0  0  0  0  0  0
    7.5796  -12.5431   26.3631 C   0  0  0  0  0  0  0  0  0  0  0  0
    8.1639  -13.7197   25.6123 C   0  0  1  0  0  0  0  0  0  0  0  0
    7.8604  -14.9861   26.2989 C   0  0  0  0  0  0  0  0  0  0  0  0
    6.7830  -15.6052   26.2417 O   0  0  0  0  0  0  0  0  0  0  0  0
   12.4729  -19.0510   23.7225 N   0  0  0  0  0  0  0  0  0  0  0  0
   11.9960  -17.8051   24.2140 C   0  0  0  0  0  0  0  0  0  0  0  0
   12.1317  -16.7474   23.5790 O   0  0  0  0  0  0  0  0  0  0  0  0
   11.3129  -17.8630   25.5641 C   0  0  0  0  0  0  0  0  0  0  0  0
   10.0691  -17.0146   25.5360 C   0  0  0  0  0  0  0  0  0  0  0  0
    9.3565  -16.9230   26.8309 C   0  0  2  0  0  0  0  0  0  0  0  0
    8.8859  -15.5562   27.0994 N   0  0  0  0  0  0  0  0  0  0  0  0
   10.2140  -17.3491   27.9506 C   0  0  0  0  0  0  0  0  0  0  0  0
   10.4471  -18.5976   28.1115 O   0  0  0  0  0  0  0  0  0  0  0  0
   10.8057  -16.4985   28.8652 O   0  0  0  0  0  0  0  0  0  0  0  0
  2  1  1  0
  3  2  2  0
  4  2  1  0
  5  4  1  0
  6  5  1  0
  6  7  1  6
  8 10  1  0
  8  6  1  0
  9  8  2  0
 10 14  1  0
 11 12  1  0
 11 10  1  0
 12 13  1  0
 13 14  1  0
 14 15  1  1
 15 16  2  0
 18 17  1  0
 18 19  2  0
 20 21  1  0
 20 18  1  0
 22 21  1  6
 22 24  1  0
 22 23  1  0
 23 15  1  0
 24 26  1  0
 25 24  2  0
M  END
$$$$
