QPQ.pdb
     RDKit          3D

 26 26  0  0  1  0  0  0  0  0999 V2000
    8.3577  -19.6713   15.9211 N   0  0  0  0  0  0  0  0  0  0  0  0
    8.2533  -18.8302   17.0571 C   0  0  0  0  0  0  0  0  0  0  0  0
    8.2987  -19.3967   18.1905 O   0  0  0  0  0  0  0  0  0  0  0  0
    8.0978  -17.3573   16.9578 C   0  0  0  0  0  0  0  0  0  0  0  0
    8.0376  -16.9803   15.5118 C   0  0  0  0  0  0  0  0  0  0  0  0
    7.9952  -15.4575   15.3274 C   0  0  2  0  0  0  0  0  0  0  0  0
    8.1117  -15.0748   13.9693 N   0  0  0  0  0  0  0  0  0  0  0  0
    8.9059  -14.8232   16.2847 C   0  0  0  0  0  0  0  0  0  0  0  0
   10.0730  -14.6115   15.7894 O   0  0  0  0  0  0  0  0  0  0  0  0
    8.6183  -14.4508   17.6226 N   0  0  0  0  0  0  0  0  0  0  0  0
    7.4770  -14.6439   18.4693 C   0  0  0  0  0  0  0  0  0  0  0  0
    7.2340  -13.2707   19.0563 C   0  0  0  0  0  0  0  0  0  0  0  0
    8.6330  -12.7138   19.1270 C   0  0  0  0  0  0  0  0  0  0  0  0
    9.5466  -13.7214   18.4640 C   0  0  1  0  0  0  0  0  0  0  0  0
   10.2099  -14.5711   19.4667 C   0  0  0  0  0  0  0  0  0  0  0  0
    9.7788  -15.6526   19.9044 O   0  0  0  0  0  0  0  0  0  0  0  0
   17.4473  -15.2702   20.8385 N   0  0  0  0  0  0  0  0  0  0  0  0
   16.3237  -14.6915   20.1876 C   0  0  0  0  0  0  0  0  0  0  0  0
   16.4150  -13.6638   19.4977 O   0  0  0  0  0  0  0  0  0  0  0  0
   15.0119  -15.4182   20.3971 C   0  0  0  0  0  0  0  0  0  0  0  0
   13.8668  -14.4839   20.1083 C   0  0  0  0  0  0  0  0  0  0  0  0
   12.5239  -15.0850   20.2758 C   0  0  2  0  0  0  0  0  0  0  0  0
   11.4536  -14.1201   19.9838 N   0  0  0  0  0  0  0  0  0  0  0  0
   12.3286  -15.5982   21.6430 C   0  0  0  0  0  0  0  0  0  0  0  0
   13.0808  -16.5455   22.0620 O   0  0  0  0  0  0  0  0  0  0  0  0
   11.3820  -15.1344   22.5369 O   0  0  0  0  0  0  0  0  0  0  0  0
  2  1  1  0
  3  2  2  0
  4  2  1  0
  5  4  1  0
  6  5  1  0
  6  7  1  6
  8 10  1  0
  8  6  1  0
  9  8  2  0
 10 14  1  0
 11 12  1  0
 11 10  1  0
 12 13  1  0
 13 14  1  0
 14 15  1  1
 15 16  2  0
 18 17  1  0
 18 19  2  0
 20 21  1  0
 20 18  1  0
 22 21  1  1
 22 24  1  0
 22 23  1  0
 23 15  1  0
 24 26  1  0
 25 24  2  0
M  END
$$$$
