QPQ.pdb
     RDKit          3D

 26 26  0  0  1  0  0  0  0  0999 V2000
    7.1022  -18.0173   25.4366 N   0  0  0  0  0  0  0  0  0  0  0  0
    6.4168  -19.2129   25.1054 C   0  0  0  0  0  0  0  0  0  0  0  0
    6.4941  -20.1632   25.9410 O   0  0  0  0  0  0  0  0  0  0  0  0
    5.6394  -19.3750   23.8512 C   0  0  0  0  0  0  0  0  0  0  0  0
    5.6206  -18.0657   23.1288 C   0  0  0  0  0  0  0  0  0  0  0  0
    6.0012  -18.2313   21.6515 C   0  0  2  0  0  0  0  0  0  0  0  0
    5.9739  -19.5843   21.2355 N   0  0  0  0  0  0  0  0  0  0  0  0
    7.2198  -17.4667   21.3714 C   0  0  0  0  0  0  0  0  0  0  0  0
    8.1741  -18.2046   20.9277 O   0  0  0  0  0  0  0  0  0  0  0  0
    7.4135  -16.0719   21.5407 N   0  0  0  0  0  0  0  0  0  0  0  0
    6.5979  -15.0297   22.0934 C   0  0  0  0  0  0  0  0  0  0  0  0
    6.6693  -13.9336   21.0529 C   0  0  0  0  0  0  0  0  0  0  0  0
    8.0550  -14.1300   20.4929 C   0  0  0  0  0  0  0  0  0  0  0  0
    8.6200  -15.3795   21.1325 C   0  0  1  0  0  0  0  0  0  0  0  0
    9.5033  -15.0408   22.2605 C   0  0  0  0  0  0  0  0  0  0  0  0
    9.1582  -14.4665   23.3085 O   0  0  0  0  0  0  0  0  0  0  0  0
    8.8975  -16.8830   25.4282 N   0  0  0  0  0  0  0  0  0  0  0  0
   10.0743  -17.2781   26.1210 C   0  0  0  0  0  0  0  0  0  0  0  0
   10.1013  -17.4176   27.3539 O   0  0  0  0  0  0  0  0  0  0  0  0
   11.2882  -17.5154   25.2475 C   0  0  0  0  0  0  0  0  0  0  0  0
   10.9531  -17.1810   23.8180 C   0  0  0  0  0  0  0  0  0  0  0  0
   11.5905  -15.9451   23.3087 C   0  0  2  0  0  0  0  0  0  0  0  0
   10.8729  -15.3997   22.1471 N   0  0  0  0  0  0  0  0  0  0  0  0
   12.9926  -16.1805   22.9220 C   0  0  0  0  0  0  0  0  0  0  0  0
   13.2441  -16.6354   21.7521 O   0  0  0  0  0  0  0  0  0  0  0  0
   14.0887  -15.9461   23.7306 O   0  0  0  0  0  0  0  0  0  0  0  0
  2  1  1  0
  3  2  2  0
  4  2  1  0
  5  4  1  0
  6  5  1  0
  6  7  1  1
  8 10  1  0
  8  6  1  0
  9  8  2  0
 10 14  1  0
 11 12  1  0
 11 10  1  0
 12 13  1  0
 13 14  1  0
 14 15  1  1
 15 16  2  0
 18 17  1  0
 18 19  2  0
 20 21  1  0
 20 18  1  0
 22 21  1  6
 22 24  1  0
 22 23  1  0
 23 15  1  0
 24 26  1  0
 25 24  2  0
M  END
$$$$
