QPQ.pdb
     RDKit          3D

 26 26  0  0  1  0  0  0  0  0999 V2000
    2.7670  -18.6167   21.8184 N   0  0  0  0  0  0  0  0  0  0  0  0
    3.4059  -18.9864   20.6084 C   0  0  0  0  0  0  0  0  0  0  0  0
    3.4303  -20.2237   20.3328 O   0  0  0  0  0  0  0  0  0  0  0  0
    4.0244  -17.9985   19.6892 C   0  0  0  0  0  0  0  0  0  0  0  0
    5.3411  -17.5759   20.2588 C   0  0  0  0  0  0  0  0  0  0  0  0
    6.4013  -17.4063   19.1625 C   0  0  2  0  0  0  0  0  0  0  0  0
    6.6272  -18.6029   18.4403 N   0  0  0  0  0  0  0  0  0  0  0  0
    7.5742  -16.7247   19.7173 C   0  0  0  0  0  0  0  0  0  0  0  0
    8.6618  -17.3837   19.5306 O   0  0  0  0  0  0  0  0  0  0  0  0
    7.5996  -15.4803   20.3973 N   0  0  0  0  0  0  0  0  0  0  0  0
    6.5804  -14.5329   20.7444 C   0  0  0  0  0  0  0  0  0  0  0  0
    7.1640  -13.2074   20.3066 C   0  0  0  0  0  0  0  0  0  0  0  0
    8.6389  -13.4346   20.5198 C   0  0  0  0  0  0  0  0  0  0  0  0
    8.8121  -14.8831   20.9214 C   0  0  1  0  0  0  0  0  0  0  0  0
    8.9373  -15.0134   22.3825 C   0  0  0  0  0  0  0  0  0  0  0  0
    8.0276  -14.8290   23.2105 O   0  0  0  0  0  0  0  0  0  0  0  0
   10.1860  -19.9701   23.5234 N   0  0  0  0  0  0  0  0  0  0  0  0
   10.9101  -19.7600   24.7287 C   0  0  0  0  0  0  0  0  0  0  0  0
   11.1002  -20.6676   25.5535 O   0  0  0  0  0  0  0  0  0  0  0  0
   11.4305  -18.3525   24.9316 C   0  0  0  0  0  0  0  0  0  0  0  0
   11.0761  -17.5074   23.7368 C   0  0  0  0  0  0  0  0  0  0  0  0
   10.3007  -16.2863   24.0540 C   0  0  2  0  0  0  0  0  0  0  0  0
   10.2084  -15.3826   22.8979 N   0  0  0  0  0  0  0  0  0  0  0  0
   10.8972  -15.5448   25.1788 C   0  0  0  0  0  0  0  0  0  0  0  0
   11.6607  -14.5483   24.9278 O   0  0  0  0  0  0  0  0  0  0  0  0
   10.6993  -15.8362   26.5153 O   0  0  0  0  0  0  0  0  0  0  0  0
  2  1  1  0
  3  2  2  0
  4  2  1  0
  5  4  1  0
  6  5  1  0
  6  7  1  1
  8 10  1  0
  8  6  1  0
  9  8  2  0
 10 14  1  0
 11 12  1  0
 11 10  1  0
 12 13  1  0
 13 14  1  0
 14 15  1  1
 15 16  2  0
 18 17  1  0
 18 19  2  0
 20 21  1  0
 20 18  1  0
 22 21  1  6
 22 24  1  0
 22 23  1  0
 23 15  1  0
 24 26  1  0
 25 24  2  0
M  END
$$$$
