PFY.pdb
     RDKit          3D

 31 33  0  0  1  0  0  0  0  0999 V2000
    8.3059  -17.3498   20.4414 N   0  0  0  0  0  0  0  0  0  0  0  0
    7.3830  -17.0119   19.3863 C   0  0  0  0  0  0  0  0  0  0  0  0
    8.1788  -16.2164   18.3750 C   0  0  0  0  0  0  0  0  0  0  0  0
    9.1442  -15.4669   19.2586 C   0  0  0  0  0  0  0  0  0  0  0  0
    9.3742  -16.3931   20.4191 C   0  0  1  0  0  0  0  0  0  0  0  0
    9.3722  -15.6498   21.7207 C   0  0  0  0  0  0  0  0  0  0  0  0
   10.2599  -14.8031   21.9998 O   0  0  0  0  0  0  0  0  0  0  0  0
    8.3600  -15.8700   22.7044 N   0  0  0  0  0  0  0  0  0  0  0  0
    8.3101  -15.1403   23.9379 C   0  0  1  0  0  0  0  0  0  0  0  0
    6.9264  -14.6678   24.2943 C   0  0  0  0  0  0  0  0  0  0  0  0
    6.9010  -13.7735   25.4565 C   0  0  0  0  0  0  0  0  0  0  0  0
    7.3091  -12.4555   25.3328 C   0  0  0  0  0  0  0  0  0  0  0  0
    7.2976  -11.5881   26.4055 C   0  0  0  0  0  0  0  0  0  0  0  0
    6.8772  -11.9984   27.6533 C   0  0  0  0  0  0  0  0  0  0  0  0
    6.4687  -13.3088   27.7875 C   0  0  0  0  0  0  0  0  0  0  0  0
    6.4818  -14.1764   26.7078 C   0  0  0  0  0  0  0  0  0  0  0  0
    8.9221  -15.8802   25.0683 C   0  0  0  0  0  0  0  0  0  0  0  0
    8.4488  -17.0099   25.3468 O   0  0  0  0  0  0  0  0  0  0  0  0
   13.5302  -18.1561   21.4841 O   0  0  0  0  0  0  0  0  0  0  0  0
   13.1967  -17.6974   22.7550 C   0  0  0  0  0  0  0  0  0  0  0  0
   12.8415  -18.5618   23.7538 C   0  0  0  0  0  0  0  0  0  0  0  0
   12.5134  -18.0990   25.0070 C   0  0  0  0  0  0  0  0  0  0  0  0
   12.5316  -16.7548   25.2956 C   0  0  0  0  0  0  0  0  0  0  0  0
   12.1806  -16.2040   26.6190 C   0  0  0  0  0  0  0  0  0  0  0  0
   10.6964  -16.2796   26.8151 C   0  0  2  0  0  0  0  0  0  0  0  0
   10.0012  -15.4041   25.8555 N   0  0  0  0  0  0  0  0  0  0  0  0
   10.2323  -15.9211   28.1652 C   0  0  0  0  0  0  0  0  0  0  0  0
    9.4719  -14.9556   28.4171 O   0  0  0  0  0  0  0  0  0  0  0  0
   12.8884  -15.8815   24.2941 C   0  0  0  0  0  0  0  0  0  0  0  0
   13.2237  -16.3417   23.0172 C   0  0  0  0  0  0  0  0  0  0  0  0
   10.6281  -16.6657   29.2891 O   0  0  0  0  0  0  0  0  0  0  0  0
  1  2  1  0
  1  5  1  0
  2  3  1  0
  3  4  1  0
  5  6  1  1
  5  4  1  0
  6  7  2  0
  8  9  1  0
  8  6  1  0
  9 10  1  1
 11 12  2  0
 11 10  1  0
 13 12  1  0
 14 13  2  0
 15 14  1  0
 15 16  2  0
 16 11  1  0
 17  9  1  0
 18 17  2  0
 19 20  1  0
 20 21  2  0
 20 30  1  0
 21 22  1  0
 22 23  2  0
 23 24  1  0
 25 24  1  1
 25 27  1  0
 25 26  1  0
 26 17  1  0
 27 31  1  0
 28 27  2  0
 29 23  1  0
 30 29  2  0
M  END
$$$$
