PFY.pdb
     RDKit          3D

 31 33  0  0  1  0  0  0  0  0999 V2000
    8.1085  -17.7149   18.7109 N   0  0  0  0  0  0  0  0  0  0  0  0
    7.0958  -17.3698   17.7441 C   0  0  0  0  0  0  0  0  0  0  0  0
    7.7892  -16.5265   16.6968 C   0  0  0  0  0  0  0  0  0  0  0  0
    8.8063  -15.7791   17.5222 C   0  0  0  0  0  0  0  0  0  0  0  0
    9.1501  -16.7321   18.6318 C   0  0  1  0  0  0  0  0  0  0  0  0
    9.2372  -16.0264   19.9513 C   0  0  0  0  0  0  0  0  0  0  0  0
   10.1557  -15.2038   20.2017 O   0  0  0  0  0  0  0  0  0  0  0  0
    8.2792  -16.2569   20.9856 N   0  0  0  0  0  0  0  0  0  0  0  0
    8.3132  -15.5605   22.2387 C   0  0  1  0  0  0  0  0  0  0  0  0
    6.9645  -15.0560   22.6761 C   0  0  0  0  0  0  0  0  0  0  0  0
    7.0103  -14.2864   23.9237 C   0  0  0  0  0  0  0  0  0  0  0  0
    7.4734  -12.9808   23.9225 C   0  0  0  0  0  0  0  0  0  0  0  0
    7.5297  -12.2293   25.0780 C   0  0  0  0  0  0  0  0  0  0  0  0
    7.1250  -12.7485   26.2899 C   0  0  0  0  0  0  0  0  0  0  0  0
    6.6621  -14.0476   26.3023 C   0  0  0  0  0  0  0  0  0  0  0  0
    6.6073  -14.7987   25.1398 C   0  0  0  0  0  0  0  0  0  0  0  0
    8.9560  -16.3498   23.3175 C   0  0  0  0  0  0  0  0  0  0  0  0
    8.2695  -17.2451   23.8697 O   0  0  0  0  0  0  0  0  0  0  0  0
   11.0419  -15.6321   31.4408 O   0  0  0  0  0  0  0  0  0  0  0  0
   10.8322  -15.4444   30.0778 C   0  0  0  0  0  0  0  0  0  0  0  0
    9.9265  -14.5295   29.6159 C   0  0  0  0  0  0  0  0  0  0  0  0
    9.7260  -14.3510   28.2667 C   0  0  0  0  0  0  0  0  0  0  0  0
   10.4281  -15.0855   27.3404 C   0  0  0  0  0  0  0  0  0  0  0  0
   10.2462  -14.9409   25.8831 C   0  0  0  0  0  0  0  0  0  0  0  0
   10.6270  -16.2206   25.2016 C   0  0  2  0  0  0  0  0  0  0  0  0
   10.2876  -16.1661   23.7689 N   0  0  0  0  0  0  0  0  0  0  0  0
   10.0029  -17.4295   25.7635 C   0  0  0  0  0  0  0  0  0  0  0  0
   10.6279  -18.3236   26.3832 O   0  0  0  0  0  0  0  0  0  0  0  0
   11.3404  -16.0071   27.8005 C   0  0  0  0  0  0  0  0  0  0  0  0
   11.5517  -16.1959   29.1695 C   0  0  0  0  0  0  0  0  0  0  0  0
    8.6229  -17.6598   25.6339 O   0  0  0  0  0  0  0  0  0  0  0  0
  1  2  1  0
  1  5  1  0
  2  3  1  0
  3  4  1  0
  5  6  1  1
  5  4  1  0
  6  7  2  0
  8  9  1  0
  8  6  1  0
  9 10  1  1
 11 12  2  0
 11 10  1  0
 13 12  1  0
 14 13  2  0
 15 14  1  0
 15 16  2  0
 16 11  1  0
 17  9  1  0
 18 17  2  0
 19 20  1  0
 20 21  2  0
 20 30  1  0
 21 22  1  0
 22 23  2  0
 23 24  1  0
 25 24  1  1
 25 27  1  0
 25 26  1  0
 26 17  1  0
 27 31  1  0
 28 27  2  0
 29 23  1  0
 30 29  2  0
M  END
$$$$
