PFY.pdb
     RDKit          3D

 31 33  0  0  1  0  0  0  0  0999 V2000
    8.3467  -15.6824   19.0973 N   0  0  0  0  0  0  0  0  0  0  0  0
    7.4247  -15.1658   18.1163 C   0  0  0  0  0  0  0  0  0  0  0  0
    8.1957  -14.1351   17.3214 C   0  0  0  0  0  0  0  0  0  0  0  0
    9.1088  -13.5521   18.3706 C   0  0  0  0  0  0  0  0  0  0  0  0
    9.3664  -14.6964   19.3096 C   0  0  1  0  0  0  0  0  0  0  0  0
    9.3072  -14.2536   20.7403 C   0  0  0  0  0  0  0  0  0  0  0  0
   10.1167  -13.4102   21.2054 O   0  0  0  0  0  0  0  0  0  0  0  0
    8.3269  -14.7706   21.6417 N   0  0  0  0  0  0  0  0  0  0  0  0
    8.1789  -14.2854   22.9830 C   0  0  1  0  0  0  0  0  0  0  0  0
    6.7466  -14.0341   23.3704 C   0  0  0  0  0  0  0  0  0  0  0  0
    6.6085  -13.2368   24.5936 C   0  0  0  0  0  0  0  0  0  0  0  0
    6.1152  -13.8144   25.7520 C   0  0  0  0  0  0  0  0  0  0  0  0
    5.9726  -13.0931   26.9193 C   0  0  0  0  0  0  0  0  0  0  0  0
    6.3169  -11.7592   26.9829 C   0  0  0  0  0  0  0  0  0  0  0  0
    6.8091  -11.1741   25.8351 C   0  0  0  0  0  0  0  0  0  0  0  0
    6.9506  -11.9020   24.6652 C   0  0  0  0  0  0  0  0  0  0  0  0
    8.8522  -15.1485   23.9838 C   0  0  0  0  0  0  0  0  0  0  0  0
    8.7119  -16.3913   23.8667 O   0  0  0  0  0  0  0  0  0  0  0  0
   12.8284  -18.3620   31.1146 O   0  0  0  0  0  0  0  0  0  0  0  0
   12.3899  -17.5027   30.1114 C   0  0  0  0  0  0  0  0  0  0  0  0
   13.0180  -17.4453   28.8978 C   0  0  0  0  0  0  0  0  0  0  0  0
   12.5772  -16.5926   27.9123 C   0  0  0  0  0  0  0  0  0  0  0  0
   11.4930  -15.7718   28.1152 C   0  0  0  0  0  0  0  0  0  0  0  0
   10.9841  -14.8329   27.0967 C   0  0  0  0  0  0  0  0  0  0  0  0
   10.2424  -15.5945   26.0398 C   0  0  2  0  0  0  0  0  0  0  0  0
    9.6412  -14.6717   25.0612 N   0  0  0  0  0  0  0  0  0  0  0  0
    9.1724  -16.4700   26.5450 C   0  0  0  0  0  0  0  0  0  0  0  0
    7.9756  -16.1176   26.6777 O   0  0  0  0  0  0  0  0  0  0  0  0
   10.8579  -15.8262   29.3345 C   0  0  0  0  0  0  0  0  0  0  0  0
   11.2978  -16.6893   30.3425 C   0  0  0  0  0  0  0  0  0  0  0  0
    9.4389  -17.7974   26.9209 O   0  0  0  0  0  0  0  0  0  0  0  0
  1  2  1  0
  1  5  1  0
  2  3  1  0
  3  4  1  0
  5  6  1  1
  5  4  1  0
  6  7  2  0
  8  9  1  0
  8  6  1  0
  9 10  1  1
 11 12  2  0
 11 10  1  0
 13 12  1  0
 14 13  2  0
 15 14  1  0
 15 16  2  0
 16 11  1  0
 17  9  1  0
 18 17  2  0
 19 20  1  0
 20 21  2  0
 20 30  1  0
 21 22  1  0
 22 23  2  0
 23 24  1  0
 25 24  1  1
 25 27  1  0
 25 26  1  0
 26 17  1  0
 27 31  1  0
 28 27  2  0
 29 23  1  0
 30 29  2  0
M  END
$$$$
