PFY.pdb
     RDKit          3D

 31 33  0  0  1  0  0  0  0  0999 V2000
    8.5592  -17.2153   19.3928 N   0  0  0  0  0  0  0  0  0  0  0  0
    7.7465  -16.9345   18.2352 C   0  0  0  0  0  0  0  0  0  0  0  0
    8.6341  -16.1699   17.2779 C   0  0  0  0  0  0  0  0  0  0  0  0
    9.4957  -15.3708   18.2232 C   0  0  0  0  0  0  0  0  0  0  0  0
    9.6143  -16.2449   19.4394 C   0  0  1  0  0  0  0  0  0  0  0  0
    9.4707  -15.4487   20.7011 C   0  0  0  0  0  0  0  0  0  0  0  0
   10.2627  -14.5137   20.9866 O   0  0  0  0  0  0  0  0  0  0  0  0
    8.4260  -15.7165   21.6379 N   0  0  0  0  0  0  0  0  0  0  0  0
    8.2818  -14.9863   22.8636 C   0  0  1  0  0  0  0  0  0  0  0  0
    6.8544  -14.6290   23.1793 C   0  0  0  0  0  0  0  0  0  0  0  0
    6.7256  -13.6951   24.3027 C   0  0  0  0  0  0  0  0  0  0  0  0
    6.2048  -14.1249   25.5123 C   0  0  0  0  0  0  0  0  0  0  0  0
    6.0700  -13.2727   26.5887 C   0  0  0  0  0  0  0  0  0  0  0  0
    6.4501  -11.9495   26.5060 C   0  0  0  0  0  0  0  0  0  0  0  0
    6.9700  -11.5111   25.3061 C   0  0  0  0  0  0  0  0  0  0  0  0
    7.1035  -12.3702   24.2278 C   0  0  0  0  0  0  0  0  0  0  0  0
    8.9225  -15.6656   24.0160 C   0  0  0  0  0  0  0  0  0  0  0  0
    8.7964  -16.9127   24.0981 O   0  0  0  0  0  0  0  0  0  0  0  0
   12.6501  -17.6423   31.7137 O   0  0  0  0  0  0  0  0  0  0  0  0
   12.2170  -16.9572   30.5823 C   0  0  0  0  0  0  0  0  0  0  0  0
   12.8127  -17.1435   29.3653 C   0  0  0  0  0  0  0  0  0  0  0  0
   12.3777  -16.4618   28.2524 C   0  0  0  0  0  0  0  0  0  0  0  0
   11.3319  -15.5723   28.3275 C   0  0  0  0  0  0  0  0  0  0  0  0
   10.8311  -14.8087   27.1682 C   0  0  0  0  0  0  0  0  0  0  0  0
   10.2375  -15.7521   26.1659 C   0  0  2  0  0  0  0  0  0  0  0  0
    9.6657  -15.0089   25.0294 N   0  0  0  0  0  0  0  0  0  0  0  0
    9.1870  -16.6365   26.6960 C   0  0  0  0  0  0  0  0  0  0  0  0
    7.9897  -16.2958   26.8517 O   0  0  0  0  0  0  0  0  0  0  0  0
   10.7294  -15.3818   29.5497 C   0  0  0  0  0  0  0  0  0  0  0  0
   11.1639  -16.0698   30.6866 C   0  0  0  0  0  0  0  0  0  0  0  0
    9.4748  -17.9596   27.0715 O   0  0  0  0  0  0  0  0  0  0  0  0
  1  2  1  0
  1  5  1  0
  2  3  1  0
  3  4  1  0
  5  6  1  1
  5  4  1  0
  6  7  2  0
  8  9  1  0
  8  6  1  0
  9 10  1  1
 11 12  2  0
 11 10  1  0
 13 12  1  0
 14 13  2  0
 15 14  1  0
 15 16  2  0
 16 11  1  0
 17  9  1  0
 18 17  2  0
 19 20  1  0
 20 21  2  0
 20 30  1  0
 21 22  1  0
 22 23  2  0
 23 24  1  0
 25 24  1  1
 25 27  1  0
 25 26  1  0
 26 17  1  0
 27 31  1  0
 28 27  2  0
 29 23  1  0
 30 29  2  0
M  END
$$$$
