PFY.pdb
     RDKit          3D

 31 33  0  0  1  0  0  0  0  0999 V2000
    8.2056  -17.4845   18.8381 N   0  0  0  0  0  0  0  0  0  0  0  0
    7.0819  -17.3965   17.9387 C   0  0  0  0  0  0  0  0  0  0  0  0
    7.5184  -16.4840   16.8138 C   0  0  0  0  0  0  0  0  0  0  0  0
    8.4154  -15.5088   17.5343 C   0  0  0  0  0  0  0  0  0  0  0  0
    9.0185  -16.3184   18.6471 C   0  0  1  0  0  0  0  0  0  0  0  0
    9.0483  -15.5459   19.9312 C   0  0  0  0  0  0  0  0  0  0  0  0
    9.6745  -14.4596   20.0348 O   0  0  0  0  0  0  0  0  0  0  0  0
    8.3655  -16.0095   21.0972 N   0  0  0  0  0  0  0  0  0  0  0  0
    8.3868  -15.2946   22.3401 C   0  0  1  0  0  0  0  0  0  0  0  0
    7.0191  -14.8811   22.8124 C   0  0  0  0  0  0  0  0  0  0  0  0
    7.0420  -14.1451   24.0808 C   0  0  0  0  0  0  0  0  0  0  0  0
    7.4602  -12.8249   24.1150 C   0  0  0  0  0  0  0  0  0  0  0  0
    7.4939  -12.1041   25.2908 C   0  0  0  0  0  0  0  0  0  0  0  0
    7.1106  -12.6702   26.4886 C   0  0  0  0  0  0  0  0  0  0  0  0
    6.6924  -13.9842   26.4658 C   0  0  0  0  0  0  0  0  0  0  0  0
    6.6601  -14.7043   25.2830 C   0  0  0  0  0  0  0  0  0  0  0  0
    9.1163  -16.0206   23.4082 C   0  0  0  0  0  0  0  0  0  0  0  0
    8.5413  -17.0032   23.9391 O   0  0  0  0  0  0  0  0  0  0  0  0
   11.2123  -16.0071   31.5456 O   0  0  0  0  0  0  0  0  0  0  0  0
   11.0096  -15.6614   30.2128 C   0  0  0  0  0  0  0  0  0  0  0  0
   10.6334  -14.3962   29.8544 C   0  0  0  0  0  0  0  0  0  0  0  0
   10.4354  -14.0637   28.5343 C   0  0  0  0  0  0  0  0  0  0  0  0
   10.6087  -14.9910   27.5341 C   0  0  0  0  0  0  0  0  0  0  0  0
   10.4014  -14.6909   26.1042 C   0  0  0  0  0  0  0  0  0  0  0  0
   10.7995  -15.8784   25.2804 C   0  0  2  0  0  0  0  0  0  0  0  0
   10.4137  -15.6852   23.8717 N   0  0  0  0  0  0  0  0  0  0  0  0
   10.2306  -17.1599   25.7284 C   0  0  0  0  0  0  0  0  0  0  0  0
    9.0034  -17.4202   25.7449 O   0  0  0  0  0  0  0  0  0  0  0  0
   10.9873  -16.2652   27.8898 C   0  0  0  0  0  0  0  0  0  0  0  0
   11.1912  -16.6130   29.2284 C   0  0  0  0  0  0  0  0  0  0  0  0
   11.0581  -18.2022   26.1791 O   0  0  0  0  0  0  0  0  0  0  0  0
  1  2  1  0
  1  5  1  0
  2  3  1  0
  3  4  1  0
  5  6  1  1
  5  4  1  0
  6  7  2  0
  8  9  1  0
  8  6  1  0
  9 10  1  1
 11 12  2  0
 11 10  1  0
 13 12  1  0
 14 13  2  0
 15 14  1  0
 15 16  2  0
 16 11  1  0
 17  9  1  0
 18 17  2  0
 19 20  1  0
 20 21  2  0
 20 30  1  0
 21 22  1  0
 22 23  2  0
 23 24  1  0
 25 24  1  1
 25 27  1  0
 25 26  1  0
 26 17  1  0
 27 31  1  0
 28 27  2  0
 29 23  1  0
 30 29  2  0
M  END
$$$$
