PFY.pdb
     RDKit          3D

 31 33  0  0  1  0  0  0  0  0999 V2000
    8.2615  -15.9724   19.1662 N   0  0  0  0  0  0  0  0  0  0  0  0
    7.3126  -15.5451   18.1681 C   0  0  0  0  0  0  0  0  0  0  0  0
    8.0390  -14.5351   17.3073 C   0  0  0  0  0  0  0  0  0  0  0  0
    8.9407  -13.8617   18.3113 C   0  0  0  0  0  0  0  0  0  0  0  0
    9.2476  -14.9410   19.3106 C   0  0  1  0  0  0  0  0  0  0  0  0
    9.1862  -14.4197   20.7145 C   0  0  0  0  0  0  0  0  0  0  0  0
    9.9739  -13.5279   21.1236 O   0  0  0  0  0  0  0  0  0  0  0  0
    8.2287  -14.9132   21.6528 N   0  0  0  0  0  0  0  0  0  0  0  0
    8.1043  -14.3843   22.9798 C   0  0  1  0  0  0  0  0  0  0  0  0
    6.6787  -14.1235   23.3855 C   0  0  0  0  0  0  0  0  0  0  0  0
    6.5585  -13.2035   24.5214 C   0  0  0  0  0  0  0  0  0  0  0  0
    6.1243  -13.6667   25.7526 C   0  0  0  0  0  0  0  0  0  0  0  0
    6.0001  -12.8284   26.8411 C   0  0  0  0  0  0  0  0  0  0  0  0
    6.3044  -11.4864   26.7494 C   0  0  0  0  0  0  0  0  0  0  0  0
    6.7377  -11.0147   25.5280 C   0  0  0  0  0  0  0  0  0  0  0  0
    6.8610  -11.8599   24.4376 C   0  0  0  0  0  0  0  0  0  0  0  0
    8.7985  -15.2124   23.9958 C   0  0  0  0  0  0  0  0  0  0  0  0
    8.6909  -16.4602   23.8997 O   0  0  0  0  0  0  0  0  0  0  0  0
   12.9504  -18.3751   30.9945 O   0  0  0  0  0  0  0  0  0  0  0  0
   12.3915  -17.4898   30.0775 C   0  0  0  0  0  0  0  0  0  0  0  0
   11.1973  -16.8699   30.3229 C   0  0  0  0  0  0  0  0  0  0  0  0
   10.6526  -15.9963   29.4104 C   0  0  0  0  0  0  0  0  0  0  0  0
   11.2899  -15.7188   28.2241 C   0  0  0  0  0  0  0  0  0  0  0  0
   10.7467  -14.7977   27.2071 C   0  0  0  0  0  0  0  0  0  0  0  0
   10.2085  -15.5877   26.0525 C   0  0  2  0  0  0  0  0  0  0  0  0
    9.5734  -14.6969   25.0656 N   0  0  0  0  0  0  0  0  0  0  0  0
    9.2283  -16.6239   26.4160 C   0  0  0  0  0  0  0  0  0  0  0  0
    9.4976  -17.8448   26.5206 O   0  0  0  0  0  0  0  0  0  0  0  0
   12.4916  -16.3400   27.9730 C   0  0  0  0  0  0  0  0  0  0  0  0
   13.0537  -17.2293   28.8938 C   0  0  0  0  0  0  0  0  0  0  0  0
    7.8874  -16.2938   26.6759 O   0  0  0  0  0  0  0  0  0  0  0  0
  1  2  1  0
  1  5  1  0
  2  3  1  0
  3  4  1  0
  5  6  1  1
  5  4  1  0
  6  7  2  0
  8  9  1  0
  8  6  1  0
  9 10  1  1
 11 12  2  0
 11 10  1  0
 13 12  1  0
 14 13  2  0
 15 14  1  0
 15 16  2  0
 16 11  1  0
 17  9  1  0
 18 17  2  0
 19 20  1  0
 20 21  2  0
 20 30  1  0
 21 22  1  0
 22 23  2  0
 23 24  1  0
 25 24  1  1
 25 27  1  0
 25 26  1  0
 26 17  1  0
 27 31  1  0
 28 27  2  0
 29 23  1  0
 30 29  2  0
M  END
$$$$
