DHL.pdb
     RDKit          3D

 27 27  0  0  1  0  0  0  0  0999 V2000
   19.5938  -15.2200  -17.0898 N   0  0  0  0  0  0  0  0  0  0  0  0
   20.4756  -14.3275  -16.3734 C   0  0  1  0  0  0  0  0  0  0  0  0
   21.8579  -14.3857  -17.0341 C   0  0  0  0  0  0  0  0  0  0  0  0
   22.8013  -13.4789  -16.2961 C   0  0  0  0  0  0  0  0  0  0  0  0
   23.2146  -13.7515  -15.1319 O   0  0  0  0  0  0  0  0  0  0  0  0
   19.9879  -12.9426  -16.5532 C   0  0  0  0  0  0  0  0  0  0  0  0
   19.9055  -12.4723  -17.7077 O   0  0  0  0  0  0  0  0  0  0  0  0
   23.2584  -12.3025  -16.8632 O   0  0  0  0  0  0  0  0  0  0  0  0
   19.6031  -12.1085  -15.4637 N   0  0  0  0  0  0  0  0  0  0  0  0
   19.1479  -10.7451  -15.6383 C   0  0  1  0  0  0  0  0  0  0  0  0
   17.7274  -10.5721  -15.1596 C   0  0  0  0  0  0  0  0  0  0  0  0
   16.7395  -11.0146  -16.1692 C   0  0  0  0  0  0  0  0  0  0  0  0
   16.9585  -11.4951  -17.4567 C   0  0  0  0  0  0  0  0  0  0  0  0
   15.7818  -11.7829  -18.0352 N   0  0  0  0  0  0  0  0  0  0  0  0
   14.8180  -11.5032  -17.1629 C   0  0  0  0  0  0  0  0  0  0  0  0
   15.4024  -11.0347  -16.0252 N   0  0  0  0  0  0  0  0  0  0  0  0
   20.0707   -9.7674  -15.0286 C   0  0  0  0  0  0  0  0  0  0  0  0
   20.3176   -9.8251  -13.7942 O   0  0  0  0  0  0  0  0  0  0  0  0
   24.1652   -9.3918  -15.2637 C   0  0  0  0  0  0  0  0  0  0  0  0
   23.6724   -8.5242  -16.4078 C   0  0  2  0  0  0  0  0  0  0  0  0
   24.7318   -8.2132  -17.4019 C   0  0  0  0  0  0  0  0  0  0  0  0
   22.7204   -7.4682  -16.0310 C   0  0  0  0  0  0  0  0  0  0  0  0
   21.6193   -7.8208  -15.1060 C   0  0  2  0  0  0  0  0  0  0  0  0
   20.7038   -8.7466  -15.7841 N   0  0  0  0  0  0  0  0  0  0  0  0
   20.8271   -6.6731  -14.6891 C   0  0  0  0  0  0  0  0  0  0  0  0
   21.1732   -5.7780  -13.6865 O   0  0  0  0  0  0  0  0  0  0  0  0
   19.7095   -6.4402  -15.2687 O   0  0  0  0  0  0  0  0  0  0  0  0
  2  1  1  6
  2  3  1  0
  4  3  1  0
  5  4  2  0
  6  2  1  0
  7  6  2  0
  8  4  1  0
  9  6  1  0
 10  9  1  0
 11 12  1  0
 10 11  1  1
 12 13  2  0
 13 14  1  0
 15 14  1  0
 16 12  1  0
 16 15  2  0
 17 18  2  0
 17 10  1  0
 20 19  1  1
 21 20  1  0
 23 22  1  6
 22 20  1  0
 23 24  1  0
 24 17  1  0
 25 23  1  0
 26 25  1  0
 27 25  2  0
M  END
$$$$
