DHL.pdb
     RDKit          3D

 27 27  0  0  1  0  0  0  0  0999 V2000
   18.2485  -14.6331  -18.2399 N   0  0  0  0  0  0  0  0  0  0  0  0
   18.0194  -13.6314  -17.2244 C   0  0  1  0  0  0  0  0  0  0  0  0
   18.6101  -14.1416  -15.9047 C   0  0  0  0  0  0  0  0  0  0  0  0
   17.6715  -15.1424  -15.2929 C   0  0  0  0  0  0  0  0  0  0  0  0
   16.4264  -15.1118  -15.5153 O   0  0  0  0  0  0  0  0  0  0  0  0
   18.7872  -12.4183  -17.5809 C   0  0  0  0  0  0  0  0  0  0  0  0
   19.8102  -12.5328  -18.2889 O   0  0  0  0  0  0  0  0  0  0  0  0
   18.1336  -16.1433  -14.4569 O   0  0  0  0  0  0  0  0  0  0  0  0
   18.4148  -11.1112  -17.1526 N   0  0  0  0  0  0  0  0  0  0  0  0
   19.1851   -9.9280  -17.4738 C   0  0  1  0  0  0  0  0  0  0  0  0
   18.2972   -8.8022  -17.9439 C   0  0  0  0  0  0  0  0  0  0  0  0
   17.7415   -9.0544  -19.2925 C   0  0  0  0  0  0  0  0  0  0  0  0
   16.4836   -9.5333  -19.6456 C   0  0  0  0  0  0  0  0  0  0  0  0
   16.3921   -9.6132  -20.9825 N   0  0  0  0  0  0  0  0  0  0  0  0
   17.5474   -9.2022  -21.4967 C   0  0  0  0  0  0  0  0  0  0  0  0
   18.3700   -8.8615  -20.4658 N   0  0  0  0  0  0  0  0  0  0  0  0
   20.0702   -9.5215  -16.3644 C   0  0  0  0  0  0  0  0  0  0  0  0
   19.6196   -9.4762  -15.1884 O   0  0  0  0  0  0  0  0  0  0  0  0
   25.8623  -10.2438  -15.1555 C   0  0  0  0  0  0  0  0  0  0  0  0
   24.4062  -10.0045  -14.7988 C   0  0  2  0  0  0  0  0  0  0  0  0
   23.7254  -11.2194  -14.2815 C   0  0  0  0  0  0  0  0  0  0  0  0
   23.6734   -9.1147  -15.7124 C   0  0  0  0  0  0  0  0  0  0  0  0
   22.2559   -8.8161  -15.4060 C   0  0  2  0  0  0  0  0  0  0  0  0
   21.4308   -9.1730  -16.5666 N   0  0  0  0  0  0  0  0  0  0  0  0
   22.0102   -7.4083  -15.1300 C   0  0  0  0  0  0  0  0  0  0  0  0
   22.0310   -6.8191  -13.8735 O   0  0  0  0  0  0  0  0  0  0  0  0
   21.7445   -6.6172  -16.1010 O   0  0  0  0  0  0  0  0  0  0  0  0
  2  1  1  6
  2  3  1  0
  4  3  1  0
  5  4  2  0
  6  2  1  0
  7  6  2  0
  8  4  1  0
  9  6  1  0
 10  9  1  0
 11 12  1  0
 10 11  1  1
 12 13  2  0
 13 14  1  0
 15 14  1  0
 16 12  1  0
 16 15  2  0
 17 18  2  0
 17 10  1  0
 20 19  1  6
 21 20  1  0
 23 22  1  6
 22 20  1  0
 23 24  1  0
 24 17  1  0
 25 23  1  0
 26 25  1  0
 27 25  2  0
M  END
$$$$
