DHL.pdb
     RDKit          3D

 27 27  0  0  1  0  0  0  0  0999 V2000
   13.2463  -11.9174  -13.6072 N   0  0  0  0  0  0  0  0  0  0  0  0
   14.4178  -11.9629  -12.7630 C   0  0  1  0  0  0  0  0  0  0  0  0
   15.5636  -12.5910  -13.5651 C   0  0  0  0  0  0  0  0  0  0  0  0
   15.4414  -14.0876  -13.5199 C   0  0  0  0  0  0  0  0  0  0  0  0
   16.4244  -14.8286  -13.2279 O   0  0  0  0  0  0  0  0  0  0  0  0
   14.8335  -10.5754  -12.4629 C   0  0  0  0  0  0  0  0  0  0  0  0
   14.7763   -9.7148  -13.3667 O   0  0  0  0  0  0  0  0  0  0  0  0
   14.2421  -14.7193  -13.7973 O   0  0  0  0  0  0  0  0  0  0  0  0
   15.3012  -10.1663  -11.1805 N   0  0  0  0  0  0  0  0  0  0  0  0
   15.6553   -8.7967  -10.8715 C   0  0  1  0  0  0  0  0  0  0  0  0
   15.1967   -8.4070   -9.4878 C   0  0  0  0  0  0  0  0  0  0  0  0
   15.4867   -6.9881   -9.1817 C   0  0  0  0  0  0  0  0  0  0  0  0
   16.1075   -6.0299   -9.9774 C   0  0  0  0  0  0  0  0  0  0  0  0
   16.1703   -4.8655   -9.3123 N   0  0  0  0  0  0  0  0  0  0  0  0
   15.6114   -5.0455   -8.1192 C   0  0  0  0  0  0  0  0  0  0  0  0
   15.1947   -6.3399   -8.0401 N   0  0  0  0  0  0  0  0  0  0  0  0
   17.0917   -8.5311  -11.0844 C   0  0  0  0  0  0  0  0  0  0  0  0
   17.9513   -9.3237  -10.6143 O   0  0  0  0  0  0  0  0  0  0  0  0
   20.8671   -9.5473  -14.7092 C   0  0  0  0  0  0  0  0  0  0  0  0
   20.6914   -8.6311  -13.5116 C   0  0  2  0  0  0  0  0  0  0  0  0
   21.8065   -8.7279  -12.5348 C   0  0  0  0  0  0  0  0  0  0  0  0
   19.3146   -8.5124  -13.0079 C   0  0  0  0  0  0  0  0  0  0  0  0
   18.9739   -7.3303  -12.1840 C   0  0  2  0  0  0  0  0  0  0  0  0
   17.5566   -7.4024  -11.8080 N   0  0  0  0  0  0  0  0  0  0  0  0
   19.1616   -6.0673  -12.8827 C   0  0  0  0  0  0  0  0  0  0  0  0
   20.3355   -5.3270  -12.9053 O   0  0  0  0  0  0  0  0  0  0  0  0
   18.1840   -5.5631  -13.5378 O   0  0  0  0  0  0  0  0  0  0  0  0
  2  1  1  6
  2  3  1  0
  4  3  1  0
  5  4  2  0
  6  2  1  0
  7  6  2  0
  8  4  1  0
  9  6  1  0
 10  9  1  0
 11 12  1  0
 10 11  1  1
 12 13  2  0
 13 14  1  0
 15 14  1  0
 16 12  1  0
 16 15  2  0
 17 18  2  0
 17 10  1  0
 20 19  1  6
 21 20  1  0
 23 22  1  6
 22 20  1  0
 23 24  1  0
 24 17  1  0
 25 23  1  0
 26 25  1  0
 27 25  2  0
M  END
$$$$
