DHL.pdb
     RDKit          3D

 27 27  0  0  1  0  0  0  0  0999 V2000
   28.2205  -20.0869  -18.2966 N   0  0  0  0  0  0  0  0  0  0  0  0
   27.5499  -21.0511  -17.4553 C   0  0  1  0  0  0  0  0  0  0  0  0
   28.5861  -21.6615  -16.5042 C   0  0  0  0  0  0  0  0  0  0  0  0
   29.0624  -22.9726  -17.0618 C   0  0  0  0  0  0  0  0  0  0  0  0
   28.5847  -23.4568  -18.1285 O   0  0  0  0  0  0  0  0  0  0  0  0
   26.5769  -20.3332  -16.6031 C   0  0  0  0  0  0  0  0  0  0  0  0
   26.9356  -19.2893  -16.0180 O   0  0  0  0  0  0  0  0  0  0  0  0
   30.0483  -23.7075  -16.4274 O   0  0  0  0  0  0  0  0  0  0  0  0
   25.2362  -20.7773  -16.4138 N   0  0  0  0  0  0  0  0  0  0  0  0
   24.2535  -20.0195  -15.6677 C   0  0  1  0  0  0  0  0  0  0  0  0
   23.1202  -19.5630  -16.5532 C   0  0  0  0  0  0  0  0  0  0  0  0
   23.5434  -18.5117  -17.5054 C   0  0  0  0  0  0  0  0  0  0  0  0
   23.8423  -18.6259  -18.8597 C   0  0  0  0  0  0  0  0  0  0  0  0
   24.1845  -17.4229  -19.3475 N   0  0  0  0  0  0  0  0  0  0  0  0
   24.1148  -16.5434  -18.3526 C   0  0  0  0  0  0  0  0  0  0  0  0
   23.7238  -17.2078  -17.2296 N   0  0  0  0  0  0  0  0  0  0  0  0
   23.7780  -20.7466  -14.4743 C   0  0  0  0  0  0  0  0  0  0  0  0
   23.5518  -21.9844  -14.5443 O   0  0  0  0  0  0  0  0  0  0  0  0
   25.4802  -22.2015  -10.8435 C   0  0  0  0  0  0  0  0  0  0  0  0
   25.1198  -20.7436  -10.6214 C   0  0  2  0  0  0  0  0  0  0  0  0
   25.8228  -20.1394   -9.4605 C   0  0  0  0  0  0  0  0  0  0  0  0
   23.7075  -20.4033  -10.8518 C   0  0  0  0  0  0  0  0  0  0  0  0
   23.0668  -20.8923  -12.0939 C   0  0  2  0  0  0  0  0  0  0  0  0
   23.5602  -20.1026  -13.2288 N   0  0  0  0  0  0  0  0  0  0  0  0
   21.6174  -20.7597  -12.0854 C   0  0  0  0  0  0  0  0  0  0  0  0
   20.7304  -21.6591  -11.5102 O   0  0  0  0  0  0  0  0  0  0  0  0
   21.0784  -19.7448  -12.6500 O   0  0  0  0  0  0  0  0  0  0  0  0
  2  1  1  6
  2  3  1  0
  4  3  1  0
  5  4  2  0
  6  2  1  0
  7  6  2  0
  8  4  1  0
  9  6  1  0
 10  9  1  0
 11 12  1  0
 10 11  1  6
 12 13  2  0
 13 14  1  0
 15 14  1  0
 16 12  1  0
 16 15  2  0
 17 18  2  0
 17 10  1  0
 20 19  1  1
 21 20  1  0
 23 22  1  1
 22 20  1  0
 23 24  1  0
 24 17  1  0
 25 23  1  0
 26 25  1  0
 27 25  2  0
M  END
$$$$
