DHL.pdb
     RDKit          3D

 27 27  0  0  1  0  0  0  0  0999 V2000
   19.2590  -12.4874  -17.1991 N   0  0  0  0  0  0  0  0  0  0  0  0
   19.2441  -11.0684  -17.4703 C   0  0  1  0  0  0  0  0  0  0  0  0
   17.8726  -10.5163  -17.0641 C   0  0  0  0  0  0  0  0  0  0  0  0
   16.8300  -11.0183  -18.0222 C   0  0  0  0  0  0  0  0  0  0  0  0
   15.7028  -11.4326  -17.6243 O   0  0  0  0  0  0  0  0  0  0  0  0
   20.2333  -10.4121  -16.5878 C   0  0  0  0  0  0  0  0  0  0  0  0
   20.1338  -10.5557  -15.3507 O   0  0  0  0  0  0  0  0  0  0  0  0
   17.0620  -11.0479  -19.3859 O   0  0  0  0  0  0  0  0  0  0  0  0
   21.3059   -9.6153  -17.0830 N   0  0  0  0  0  0  0  0  0  0  0  0
   22.2674   -8.9638  -16.2183 C   0  0  1  0  0  0  0  0  0  0  0  0
   23.6787   -9.3852  -16.5460 C   0  0  0  0  0  0  0  0  0  0  0  0
   23.9150  -10.8182  -16.2599 C   0  0  0  0  0  0  0  0  0  0  0  0
   24.0062  -11.8851  -17.1487 C   0  0  0  0  0  0  0  0  0  0  0  0
   24.2279  -13.0201  -16.4672 N   0  0  0  0  0  0  0  0  0  0  0  0
   24.2818  -12.7166  -15.1737 C   0  0  0  0  0  0  0  0  0  0  0  0
   24.0909  -11.3738  -15.0478 N   0  0  0  0  0  0  0  0  0  0  0  0
   22.1052   -7.4965  -16.2106 C   0  0  0  0  0  0  0  0  0  0  0  0
   22.2001   -6.8506  -17.2885 O   0  0  0  0  0  0  0  0  0  0  0  0
   18.2344   -3.4295  -15.0818 C   0  0  0  0  0  0  0  0  0  0  0  0
   19.7274   -3.6503  -15.2459 C   0  0  2  0  0  0  0  0  0  0  0  0
   20.3355   -2.7768  -16.2824 C   0  0  0  0  0  0  0  0  0  0  0  0
   20.1704   -5.0494  -15.1474 C   0  0  0  0  0  0  0  0  0  0  0  0
   21.6260   -5.3179  -15.1074 C   0  0  2  0  0  0  0  0  0  0  0  0
   21.8422   -6.7674  -15.0220 N   0  0  0  0  0  0  0  0  0  0  0  0
   22.2902   -4.7234  -13.9567 C   0  0  0  0  0  0  0  0  0  0  0  0
   22.6043   -5.3856  -12.7780 O   0  0  0  0  0  0  0  0  0  0  0  0
   22.6234   -3.4878  -13.9956 O   0  0  0  0  0  0  0  0  0  0  0  0
  2  1  1  1
  2  3  1  0
  4  3  1  0
  5  4  2  0
  6  2  1  0
  7  6  2  0
  8  4  1  0
  9  6  1  0
 10  9  1  0
 11 12  1  0
 10 11  1  6
 12 13  2  0
 13 14  1  0
 15 14  1  0
 16 12  1  0
 16 15  2  0
 17 18  2  0
 17 10  1  0
 20 19  1  6
 21 20  1  0
 23 22  1  1
 22 20  1  0
 23 24  1  0
 24 17  1  0
 25 23  1  0
 26 25  1  0
 27 25  2  0
M  END
$$$$
