DHL.pdb
     RDKit          3D

 27 27  0  0  1  0  0  0  0  0999 V2000
   27.9029  -19.6433  -18.0058 N   0  0  0  0  0  0  0  0  0  0  0  0
   26.6910  -18.9519  -17.6307 C   0  0  1  0  0  0  0  0  0  0  0  0
   26.0858  -18.3250  -18.8923 C   0  0  0  0  0  0  0  0  0  0  0  0
   27.0360  -17.3009  -19.4447 C   0  0  0  0  0  0  0  0  0  0  0  0
   27.7115  -17.5147  -20.4929 O   0  0  0  0  0  0  0  0  0  0  0  0
   25.7104  -19.9507  -17.1525 C   0  0  0  0  0  0  0  0  0  0  0  0
   24.6746  -20.1540  -17.8209 O   0  0  0  0  0  0  0  0  0  0  0  0
   27.2116  -16.0760  -18.8258 O   0  0  0  0  0  0  0  0  0  0  0  0
   25.8895  -20.7012  -15.9544 N   0  0  0  0  0  0  0  0  0  0  0  0
   24.8863  -21.6071  -15.4352 C   0  0  1  0  0  0  0  0  0  0  0  0
   25.5165  -22.8081  -14.7741 C   0  0  0  0  0  0  0  0  0  0  0  0
   26.2457  -23.6598  -15.7405 C   0  0  0  0  0  0  0  0  0  0  0  0
   26.3719  -23.5102  -17.1182 C   0  0  0  0  0  0  0  0  0  0  0  0
   27.1213  -24.5085  -17.6120 N   0  0  0  0  0  0  0  0  0  0  0  0
   27.4787  -25.2913  -16.5983 C   0  0  0  0  0  0  0  0  0  0  0  0
   26.9446  -24.7734  -15.4573 N   0  0  0  0  0  0  0  0  0  0  0  0
   23.9195  -20.9221  -14.5546 C   0  0  0  0  0  0  0  0  0  0  0  0
   24.2821  -19.9137  -13.8915 O   0  0  0  0  0  0  0  0  0  0  0  0
   19.9752  -17.5941  -16.0509 C   0  0  0  0  0  0  0  0  0  0  0  0
   20.5009  -18.2253  -14.7743 C   0  0  2  0  0  0  0  0  0  0  0  0
   20.6733  -17.2481  -13.6687 C   0  0  0  0  0  0  0  0  0  0  0  0
   21.5183  -19.2708  -14.9629 C   0  0  0  0  0  0  0  0  0  0  0  0
   21.5533  -20.3911  -13.9955 C   0  0  2  0  0  0  0  0  0  0  0  0
   22.5753  -21.3561  -14.4189 N   0  0  0  0  0  0  0  0  0  0  0  0
   20.2954  -21.1184  -13.9102 C   0  0  0  0  0  0  0  0  0  0  0  0
   19.2877  -20.8775  -12.9866 O   0  0  0  0  0  0  0  0  0  0  0  0
   20.0651  -22.0697  -14.7355 O   0  0  0  0  0  0  0  0  0  0  0  0
  2  1  1  6
  2  3  1  0
  4  3  1  0
  5  4  2  0
  6  2  1  0
  7  6  2  0
  8  4  1  0
  9  6  1  0
 10  9  1  0
 11 12  1  0
 10 11  1  1
 12 13  2  0
 13 14  1  0
 15 14  1  0
 16 12  1  0
 16 15  2  0
 17 18  2  0
 17 10  1  0
 20 19  1  6
 21 20  1  0
 23 22  1  6
 22 20  1  0
 23 24  1  0
 24 17  1  0
 25 23  1  0
 26 25  1  0
 27 25  2  0
M  END
$$$$
