DHL.pdb
     RDKit          3D

 27 27  0  0  1  0  0  0  0  0999 V2000
   25.7625  -21.9526  -14.0421 N   0  0  0  0  0  0  0  0  0  0  0  0
   24.6340  -21.6836  -13.1811 C   0  0  1  0  0  0  0  0  0  0  0  0
   25.0912  -20.7243  -12.0760 C   0  0  0  0  0  0  0  0  0  0  0  0
   26.0099  -21.4502  -11.1348 C   0  0  0  0  0  0  0  0  0  0  0  0
   26.2833  -22.6766  -11.2830 O   0  0  0  0  0  0  0  0  0  0  0  0
   23.6101  -20.9573  -13.9636 C   0  0  0  0  0  0  0  0  0  0  0  0
   23.9687  -20.2684  -14.9422 O   0  0  0  0  0  0  0  0  0  0  0  0
   26.5973  -20.8031  -10.0621 O   0  0  0  0  0  0  0  0  0  0  0  0
   22.2200  -21.0042  -13.6539 N   0  0  0  0  0  0  0  0  0  0  0  0
   21.2148  -20.3188  -14.4390 C   0  0  1  0  0  0  0  0  0  0  0  0
   19.8215  -20.7369  -14.0378 C   0  0  0  0  0  0  0  0  0  0  0  0
   18.7870  -20.1569  -14.9235 C   0  0  0  0  0  0  0  0  0  0  0  0
   18.9447  -19.3111  -16.0173 C   0  0  0  0  0  0  0  0  0  0  0  0
   17.7422  -19.0223  -16.5393 N   0  0  0  0  0  0  0  0  0  0  0  0
   16.8209  -19.6537  -15.8177 C   0  0  0  0  0  0  0  0  0  0  0  0
   17.4585  -20.3455  -14.8326 N   0  0  0  0  0  0  0  0  0  0  0  0
   21.3921  -18.8535  -14.4142 C   0  0  0  0  0  0  0  0  0  0  0  0
   21.6258  -18.2696  -13.3221 O   0  0  0  0  0  0  0  0  0  0  0  0
   24.2262  -14.5724  -17.3163 C   0  0  0  0  0  0  0  0  0  0  0  0
   23.3033  -14.9071  -16.1584 C   0  0  2  0  0  0  0  0  0  0  0  0
   23.6522  -14.1860  -14.9073 C   0  0  0  0  0  0  0  0  0  0  0  0
   22.8866  -16.3152  -16.0736 C   0  0  0  0  0  0  0  0  0  0  0  0
   21.5599  -16.6149  -15.4886 C   0  0  2  0  0  0  0  0  0  0  0  0
   21.3096  -18.0582  -15.5865 N   0  0  0  0  0  0  0  0  0  0  0  0
   20.4632  -15.9486  -16.1756 C   0  0  0  0  0  0  0  0  0  0  0  0
   19.8222  -14.7971  -15.7402 O   0  0  0  0  0  0  0  0  0  0  0  0
   20.0224  -16.4385  -17.2732 O   0  0  0  0  0  0  0  0  0  0  0  0
  2  1  1  6
  2  3  1  0
  4  3  1  0
  5  4  2  0
  6  2  1  0
  7  6  2  0
  8  4  1  0
  9  6  1  0
 10  9  1  0
 11 12  1  0
 10 11  1  1
 12 13  2  0
 13 14  1  0
 15 14  1  0
 16 12  1  0
 16 15  2  0
 17 18  2  0
 17 10  1  0
 20 19  1  6
 21 20  1  0
 23 22  1  6
 22 20  1  0
 23 24  1  0
 24 17  1  0
 25 23  1  0
 26 25  1  0
 27 25  2  0
M  END
$$$$
