DHL.pdb
     RDKit          3D

 27 27  0  0  1  0  0  0  0  0999 V2000
   28.7305  -19.9953  -18.5907 N   0  0  0  0  0  0  0  0  0  0  0  0
   29.0117  -19.1545  -17.4501 C   0  0  1  0  0  0  0  0  0  0  0  0
   29.5837  -17.8271  -17.9616 C   0  0  0  0  0  0  0  0  0  0  0  0
   29.1306  -17.6015  -19.3760 C   0  0  0  0  0  0  0  0  0  0  0  0
   28.0887  -18.1506  -19.8382 O   0  0  0  0  0  0  0  0  0  0  0  0
   27.7328  -18.8256  -16.7835 C   0  0  0  0  0  0  0  0  0  0  0  0
   27.7423  -18.0665  -15.7912 O   0  0  0  0  0  0  0  0  0  0  0  0
   29.8384  -16.7794  -20.2349 O   0  0  0  0  0  0  0  0  0  0  0  0
   26.4766  -19.3366  -17.2209 N   0  0  0  0  0  0  0  0  0  0  0  0
   25.2484  -19.1498  -16.4771 C   0  0  1  0  0  0  0  0  0  0  0  0
   24.0424  -19.1962  -17.3827 C   0  0  0  0  0  0  0  0  0  0  0  0
   23.8086  -17.9056  -18.0689 C   0  0  0  0  0  0  0  0  0  0  0  0
   24.4658  -16.6910  -17.8973 C   0  0  0  0  0  0  0  0  0  0  0  0
   23.9372  -15.7735  -18.7223 N   0  0  0  0  0  0  0  0  0  0  0  0
   22.9650  -16.3586  -19.4155 C   0  0  0  0  0  0  0  0  0  0  0  0
   22.8869  -17.6587  -19.0167 N   0  0  0  0  0  0  0  0  0  0  0  0
   25.1366  -20.0869  -15.3419 C   0  0  0  0  0  0  0  0  0  0  0  0
   25.9563  -21.0378  -15.2321 O   0  0  0  0  0  0  0  0  0  0  0  0
   25.6389  -22.3404  -11.0014 C   0  0  0  0  0  0  0  0  0  0  0  0
   25.7896  -20.8316  -11.0755 C   0  0  2  0  0  0  0  0  0  0  0  0
   25.3385  -20.1392   -9.8410 C   0  0  0  0  0  0  0  0  0  0  0  0
   25.4749  -20.2320  -12.3812 C   0  0  0  0  0  0  0  0  0  0  0  0
   24.2682  -20.7095  -13.0943 C   0  0  2  0  0  0  0  0  0  0  0  0
   24.1290  -19.9628  -14.3505 N   0  0  0  0  0  0  0  0  0  0  0  0
   23.0375  -20.5069  -12.3440 C   0  0  0  0  0  0  0  0  0  0  0  0
   22.2700  -19.3505  -12.3542 O   0  0  0  0  0  0  0  0  0  0  0  0
   22.5973  -21.4492  -11.5974 O   0  0  0  0  0  0  0  0  0  0  0  0
  2  1  1  6
  2  3  1  0
  4  3  1  0
  5  4  2  0
  6  2  1  0
  7  6  2  0
  8  4  1  0
  9  6  1  0
 10  9  1  0
 11 12  1  0
 10 11  1  6
 12 13  2  0
 13 14  1  0
 15 14  1  0
 16 12  1  0
 16 15  2  0
 17 18  2  0
 17 10  1  0
 20 19  1  6
 21 20  1  0
 23 22  1  1
 22 20  1  0
 23 24  1  0
 24 17  1  0
 25 23  1  0
 26 25  1  0
 27 25  2  0
M  END
$$$$
