YGI.pdb
     RDKit          3D

 25 25  0  0  1  0  0  0  0  0999 V2000
    0.4288  -20.4361   20.4341 O   0  0  0  0  0  0  0  0  0  0  0  0
    1.4917  -19.6003   20.7649 C   0  0  0  0  0  0  0  0  0  0  0  0
    1.9080  -19.5069   22.0758 C   0  0  0  0  0  0  0  0  0  0  0  0
    2.9689  -18.6758   22.4219 C   0  0  0  0  0  0  0  0  0  0  0  0
    3.6296  -17.9284   21.4771 C   0  0  0  0  0  0  0  0  0  0  0  0
    4.7629  -17.0355   21.8209 C   0  0  0  0  0  0  0  0  0  0  0  0
    6.0232  -17.6693   21.2762 C   0  0  2  0  0  0  0  0  0  0  0  0
    6.2055  -18.9233   21.9767 N   0  0  0  0  0  0  0  0  0  0  0  0
    7.2130  -16.8340   21.4805 C   0  0  0  0  0  0  0  0  0  0  0  0
    7.2580  -15.6853   20.9840 O   0  0  0  0  0  0  0  0  0  0  0  0
    3.2168  -18.0202   20.1730 C   0  0  0  0  0  0  0  0  0  0  0  0
    2.1514  -18.8529   19.8158 C   0  0  0  0  0  0  0  0  0  0  0  0
    8.3513  -17.2651   22.2312 N   0  0  0  0  0  0  0  0  0  0  0  0
    9.5099  -16.4644   22.4254 C   0  0  0  0  0  0  0  0  0  0  0  0
    9.6180  -15.7715   23.7080 C   0  0  0  0  0  0  0  0  0  0  0  0
   10.6881  -15.1264   24.0109 O   0  0  0  0  0  0  0  0  0  0  0  0
    5.8745  -12.6801   25.8693 C   0  0  0  0  0  0  0  0  0  0  0  0
    7.1490  -13.3305   25.3489 C   0  0  0  0  0  0  0  0  0  0  0  0
    7.6714  -14.2217   26.4270 C   0  0  2  0  0  0  0  0  0  0  0  0
    8.0374  -13.3606   27.6178 C   0  0  0  0  0  0  0  0  0  0  0  0
    8.8363  -15.0687   26.0024 C   0  0  2  0  0  0  0  0  0  0  0  0
    8.6342  -15.7130   24.7296 N   0  0  0  0  0  0  0  0  0  0  0  0
    9.0691  -16.1289   27.0125 C   0  0  0  0  0  0  0  0  0  0  0  0
    9.9641  -16.0223   28.0632 O   0  0  0  0  0  0  0  0  0  0  0  0
    8.4122  -17.1926   26.9088 O   0  0  0  0  0  0  0  0  0  0  0  0
  2 12  2  0
  2  1  1  0
  3  2  1  0
  4  5  1  0
  4  3  2  0
  5 11  2  0
  6  5  1  0
  7  9  1  0
  7  6  1  0
  7  8  1  1
  9 10  2  0
 11 12  1  0
 13 14  1  0
 13  9  1  0
 15 22  1  0
 15 14  1  0
 16 15  2  0
 18 17  1  0
 19 20  1  1
 19 18  1  0
 21 22  1  6
 21 19  1  0
 23 21  1  0
 24 23  1  0
 25 23  2  0
M  END
$$$$
