YGI.pdb
     RDKit          3D

 25 25  0  0  1  0  0  0  0  0999 V2000
    8.2577  -13.7593   14.9143 O   0  0  0  0  0  0  0  0  0  0  0  0
    7.9028  -14.0580   16.2268 C   0  0  0  0  0  0  0  0  0  0  0  0
    8.1385  -13.1388   17.2267 C   0  0  0  0  0  0  0  0  0  0  0  0
    7.7894  -13.4230   18.5433 C   0  0  0  0  0  0  0  0  0  0  0  0
    7.2039  -14.6178   18.8859 C   0  0  0  0  0  0  0  0  0  0  0  0
    6.8227  -14.9440   20.2816 C   0  0  0  0  0  0  0  0  0  0  0  0
    8.0789  -15.3669   21.0096 C   0  0  2  0  0  0  0  0  0  0  0  0
    8.5800  -16.5494   20.3410 N   0  0  0  0  0  0  0  0  0  0  0  0
    7.8367  -15.6866   22.4217 C   0  0  0  0  0  0  0  0  0  0  0  0
    7.4144  -14.7978   23.1961 O   0  0  0  0  0  0  0  0  0  0  0  0
    6.9688  -15.5329   17.8926 C   0  0  0  0  0  0  0  0  0  0  0  0
    7.3164  -15.2560   16.5665 C   0  0  0  0  0  0  0  0  0  0  0  0
    8.0600  -16.9847   22.9788 N   0  0  0  0  0  0  0  0  0  0  0  0
    7.9208  -17.2769   24.3631 C   0  0  0  0  0  0  0  0  0  0  0  0
    8.6832  -16.4399   25.2877 C   0  0  0  0  0  0  0  0  0  0  0  0
    9.9333  -16.2182   25.0851 O   0  0  0  0  0  0  0  0  0  0  0  0
    6.6040  -11.9307   27.3498 C   0  0  0  0  0  0  0  0  0  0  0  0
    7.4862  -12.9758   26.6807 C   0  0  0  0  0  0  0  0  0  0  0  0
    8.2029  -13.7172   27.7605 C   0  0  2  0  0  0  0  0  0  0  0  0
    9.1092  -12.7427   28.4833 C   0  0  0  0  0  0  0  0  0  0  0  0
    8.9795  -14.9044   27.2686 C   0  0  2  0  0  0  0  0  0  0  0  0
    8.1942  -15.7978   26.4554 N   0  0  0  0  0  0  0  0  0  0  0  0
    9.4856  -15.6774   28.4282 C   0  0  0  0  0  0  0  0  0  0  0  0
    8.9866  -16.9063   28.8244 O   0  0  0  0  0  0  0  0  0  0  0  0
   10.4281  -15.1860   29.0947 O   0  0  0  0  0  0  0  0  0  0  0  0
  2 12  2  0
  2  1  1  0
  3  2  1  0
  4  5  1  0
  4  3  2  0
  5 11  2  0
  6  5  1  0
  7  9  1  0
  7  6  1  0
  7  8  1  6
  9 10  2  0
 11 12  1  0
 13 14  1  0
 13  9  1  0
 15 22  1  0
 15 14  1  0
 16 15  2  0
 18 17  1  0
 19 20  1  6
 19 18  1  0
 21 22  1  1
 21 19  1  0
 23 21  1  0
 24 23  1  0
 25 23  2  0
M  END
$$$$
