YGI.pdb
     RDKit          3D

 25 25  0  0  1  0  0  0  0  0999 V2000
    7.7706  -12.9953   15.8498 O   0  0  0  0  0  0  0  0  0  0  0  0
    7.4542  -13.4490   17.1273 C   0  0  0  0  0  0  0  0  0  0  0  0
    7.6848  -12.6395   18.2189 C   0  0  0  0  0  0  0  0  0  0  0  0
    7.3738  -13.0790   19.5019 C   0  0  0  0  0  0  0  0  0  0  0  0
    6.8319  -14.3226   19.7200 C   0  0  0  0  0  0  0  0  0  0  0  0
    6.4919  -14.8138   21.0776 C   0  0  0  0  0  0  0  0  0  0  0  0
    7.7837  -14.9353   21.8544 C   0  0  2  0  0  0  0  0  0  0  0  0
    8.6663  -15.7839   21.0815 N   0  0  0  0  0  0  0  0  0  0  0  0
    7.5940  -15.5321   23.1822 C   0  0  0  0  0  0  0  0  0  0  0  0
    6.9125  -14.9291   24.0424 O   0  0  0  0  0  0  0  0  0  0  0  0
    6.6020  -15.1289   18.6354 C   0  0  0  0  0  0  0  0  0  0  0  0
    6.9115  -14.6955   17.3422 C   0  0  0  0  0  0  0  0  0  0  0  0
    8.1551  -16.7920   23.5604 N   0  0  0  0  0  0  0  0  0  0  0  0
    7.9966  -17.3631   24.8527 C   0  0  0  0  0  0  0  0  0  0  0  0
    9.2110  -17.5208   25.6509 C   0  0  0  0  0  0  0  0  0  0  0  0
   10.3013  -17.9267   25.1038 O   0  0  0  0  0  0  0  0  0  0  0  0
    9.8476  -13.4347   29.2351 C   0  0  0  0  0  0  0  0  0  0  0  0
    9.6057  -14.9121   28.9576 C   0  0  0  0  0  0  0  0  0  0  0  0
   10.5966  -15.3442   27.9277 C   0  0  2  0  0  0  0  0  0  0  0  0
   10.3372  -14.5566   26.6605 C   0  0  0  0  0  0  0  0  0  0  0  0
   10.5803  -16.8201   27.6518 C   0  0  2  0  0  0  0  0  0  0  0  0
    9.3551  -17.2686   27.0404 N   0  0  0  0  0  0  0  0  0  0  0  0
   10.7468  -17.5616   28.9250 C   0  0  0  0  0  0  0  0  0  0  0  0
   11.9381  -17.6545   29.6236 O   0  0  0  0  0  0  0  0  0  0  0  0
    9.7423  -18.1433   29.4009 O   0  0  0  0  0  0  0  0  0  0  0  0
  2 12  2  0
  2  1  1  0
  3  2  1  0
  4  5  1  0
  4  3  2  0
  5 11  2  0
  6  5  1  0
  7  9  1  0
  7  6  1  0
  7  8  1  6
  9 10  2  0
 11 12  1  0
 13 14  1  0
 13  9  1  0
 15 22  1  0
 15 14  1  0
 16 15  2  0
 18 17  1  0
 19 20  1  6
 19 18  1  0
 21 22  1  1
 21 19  1  0
 23 21  1  0
 24 23  1  0
 25 23  2  0
M  END
$$$$
