YGI.pdb
     RDKit          3D

 25 25  0  0  1  0  0  0  0  0999 V2000
    7.7556  -13.2179   16.3328 O   0  0  0  0  0  0  0  0  0  0  0  0
    7.8124  -13.5709   17.6782 C   0  0  0  0  0  0  0  0  0  0  0  0
    8.8594  -14.3383   18.1419 C   0  0  0  0  0  0  0  0  0  0  0  0
    8.9300  -14.6992   19.4838 C   0  0  0  0  0  0  0  0  0  0  0  0
    7.9671  -14.3058   20.3816 C   0  0  0  0  0  0  0  0  0  0  0  0
    8.0200  -14.6775   21.8165 C   0  0  0  0  0  0  0  0  0  0  0  0
    7.7885  -16.1691   21.9092 C   0  0  2  0  0  0  0  0  0  0  0  0
    6.4337  -16.4175   21.4629 N   0  0  0  0  0  0  0  0  0  0  0  0
    7.9401  -16.6835   23.2757 C   0  0  0  0  0  0  0  0  0  0  0  0
    7.1894  -16.2617   24.1849 O   0  0  0  0  0  0  0  0  0  0  0  0
    6.9252  -13.5426   19.9220 C   0  0  0  0  0  0  0  0  0  0  0  0
    6.8461  -13.1751   18.5749 C   0  0  0  0  0  0  0  0  0  0  0  0
    8.9182  -17.6617   23.6388 N   0  0  0  0  0  0  0  0  0  0  0  0
   10.2632  -17.3391   23.9675 C   0  0  0  0  0  0  0  0  0  0  0  0
   10.4582  -16.3601   25.0354 C   0  0  0  0  0  0  0  0  0  0  0  0
   11.3500  -15.4411   24.9208 O   0  0  0  0  0  0  0  0  0  0  0  0
    8.0451  -12.3476   26.6822 C   0  0  0  0  0  0  0  0  0  0  0  0
    9.0109  -13.4708   26.3303 C   0  0  0  0  0  0  0  0  0  0  0  0
    9.2438  -14.2687   27.5706 C   0  0  2  0  0  0  0  0  0  0  0  0
    9.8011  -13.3430   28.6319 C   0  0  0  0  0  0  0  0  0  0  0  0
   10.1439  -15.4536   27.3697 C   0  0  2  0  0  0  0  0  0  0  0  0
    9.7472  -16.2849   26.2616 N   0  0  0  0  0  0  0  0  0  0  0  0
   10.1324  -16.2943   28.5909 C   0  0  0  0  0  0  0  0  0  0  0  0
    9.5147  -17.5297   28.6819 O   0  0  0  0  0  0  0  0  0  0  0  0
   10.7210  -15.8579   29.6092 O   0  0  0  0  0  0  0  0  0  0  0  0
  2 12  2  0
  2  1  1  0
  3  2  1  0
  4  5  1  0
  4  3  2  0
  5 11  2  0
  6  5  1  0
  7  9  1  0
  7  6  1  0
  7  8  1  1
  9 10  2  0
 11 12  1  0
 13 14  1  0
 13  9  1  0
 15 22  1  0
 15 14  1  0
 16 15  2  0
 18 17  1  0
 19 20  1  1
 19 18  1  0
 21 22  1  6
 21 19  1  0
 23 21  1  0
 24 23  1  0
 25 23  2  0
M  END
$$$$
