YGI.pdb
     RDKit          3D

 25 25  0  0  1  0  0  0  0  0999 V2000
   14.5315  -21.9823   17.8494 O   0  0  0  0  0  0  0  0  0  0  0  0
   13.7794  -21.1582   18.6819 C   0  0  0  0  0  0  0  0  0  0  0  0
   13.7853  -19.7941   18.4831 C   0  0  0  0  0  0  0  0  0  0  0  0
   13.0387  -18.9575   19.3069 C   0  0  0  0  0  0  0  0  0  0  0  0
   12.2785  -19.4594   20.3354 C   0  0  0  0  0  0  0  0  0  0  0  0
   11.4744  -18.5885   21.2270 C   0  0  0  0  0  0  0  0  0  0  0  0
   10.2344  -18.1780   20.4648 C   0  0  2  0  0  0  0  0  0  0  0  0
   10.6710  -17.3650   19.3490 N   0  0  0  0  0  0  0  0  0  0  0  0
    9.2973  -17.3981   21.2825 C   0  0  0  0  0  0  0  0  0  0  0  0
    8.7337  -17.9349   22.2634 O   0  0  0  0  0  0  0  0  0  0  0  0
   12.2716  -20.8158   20.5344 C   0  0  0  0  0  0  0  0  0  0  0  0
   13.0189  -21.6644   19.7114 C   0  0  0  0  0  0  0  0  0  0  0  0
    8.9824  -16.0283   21.0186 N   0  0  0  0  0  0  0  0  0  0  0  0
    8.0700  -15.2700   21.8019 C   0  0  0  0  0  0  0  0  0  0  0  0
    8.4795  -14.9673   23.1721 C   0  0  0  0  0  0  0  0  0  0  0  0
    9.7012  -15.1313   23.5375 O   0  0  0  0  0  0  0  0  0  0  0  0
    5.8671  -11.0210   25.9887 C   0  0  0  0  0  0  0  0  0  0  0  0
    6.8582  -11.8937   25.2309 C   0  0  0  0  0  0  0  0  0  0  0  0
    7.2675  -13.0040   26.1415 C   0  0  2  0  0  0  0  0  0  0  0  0
    7.9433  -12.3978   27.3538 C   0  0  0  0  0  0  0  0  0  0  0  0
    8.1545  -14.0262   25.4912 C   0  0  2  0  0  0  0  0  0  0  0  0
    7.6531  -14.4850   24.2207 N   0  0  0  0  0  0  0  0  0  0  0  0
    8.2801  -15.2067   26.3795 C   0  0  0  0  0  0  0  0  0  0  0  0
    9.3672  -15.4534   27.2001 O   0  0  0  0  0  0  0  0  0  0  0  0
    7.3396  -16.0369   26.3885 O   0  0  0  0  0  0  0  0  0  0  0  0
  2 12  2  0
  2  1  1  0
  3  2  1  0
  4  5  1  0
  4  3  2  0
  5 11  2  0
  6  5  1  0
  7  9  1  0
  7  6  1  0
  7  8  1  6
  9 10  2  0
 11 12  1  0
 13 14  1  0
 13  9  1  0
 15 22  1  0
 15 14  1  0
 16 15  2  0
 18 17  1  0
 19 20  1  1
 19 18  1  0
 21 22  1  6
 21 19  1  0
 23 21  1  0
 24 23  1  0
 25 23  2  0
M  END
$$$$
