YGI.pdb
     RDKit          3D

 25 25  0  0  1  0  0  0  0  0999 V2000
    7.4338  -12.6686   15.5195 O   0  0  0  0  0  0  0  0  0  0  0  0
    7.2357  -13.3491   16.7176 C   0  0  0  0  0  0  0  0  0  0  0  0
    6.8418  -14.6700   16.6986 C   0  0  0  0  0  0  0  0  0  0  0  0
    6.6399  -15.3635   17.8878 C   0  0  0  0  0  0  0  0  0  0  0  0
    6.8248  -14.7596   19.1080 C   0  0  0  0  0  0  0  0  0  0  0  0
    6.6160  -15.4773   20.3891 C   0  0  0  0  0  0  0  0  0  0  0  0
    7.9796  -15.7811   20.9682 C   0  0  2  0  0  0  0  0  0  0  0  0
    8.6945  -16.5654   19.9832 N   0  0  0  0  0  0  0  0  0  0  0  0
    7.9078  -16.5432   22.2208 C   0  0  0  0  0  0  0  0  0  0  0  0
    8.2641  -17.7436   22.2387 O   0  0  0  0  0  0  0  0  0  0  0  0
    7.2165  -13.4460   19.1286 C   0  0  0  0  0  0  0  0  0  0  0  0
    7.4219  -12.7410   17.9383 C   0  0  0  0  0  0  0  0  0  0  0  0
    7.4436  -15.9822   23.4517 N   0  0  0  0  0  0  0  0  0  0  0  0
    7.5068  -16.6659   24.6965 C   0  0  0  0  0  0  0  0  0  0  0  0
    8.7806  -16.6061   25.4111 C   0  0  0  0  0  0  0  0  0  0  0  0
    9.8742  -16.3800   24.7740 O   0  0  0  0  0  0  0  0  0  0  0  0
    8.9576  -12.9355   28.7429 C   0  0  0  0  0  0  0  0  0  0  0  0
    9.2062  -14.0211   27.7047 C   0  0  0  0  0  0  0  0  0  0  0  0
    9.9127  -15.1443   28.3892 C   0  0  2  0  0  0  0  0  0  0  0  0
   11.2126  -14.6118   28.9552 C   0  0  0  0  0  0  0  0  0  0  0  0
   10.1622  -16.3323   27.5054 C   0  0  2  0  0  0  0  0  0  0  0  0
    8.9831  -16.7756   26.8059 N   0  0  0  0  0  0  0  0  0  0  0  0
   10.6511  -17.4649   28.3280 C   0  0  0  0  0  0  0  0  0  0  0  0
   11.9877  -17.7617   28.5310 O   0  0  0  0  0  0  0  0  0  0  0  0
    9.7978  -18.2030   28.8764 O   0  0  0  0  0  0  0  0  0  0  0  0
  2 12  2  0
  2  1  1  0
  3  2  1  0
  4  5  1  0
  4  3  2  0
  5 11  2  0
  6  5  1  0
  7  9  1  0
  7  6  1  0
  7  8  1  6
  9 10  2  0
 11 12  1  0
 13 14  1  0
 13  9  1  0
 15 22  1  0
 15 14  1  0
 16 15  2  0
 18 17  1  0
 19 20  1  6
 19 18  1  0
 21 22  1  1
 21 19  1  0
 23 21  1  0
 24 23  1  0
 25 23  2  0
M  END
$$$$
