YGI.pdb
     RDKit          3D

 25 25  0  0  1  0  0  0  0  0999 V2000
   11.0383  -12.8678   19.5152 O   0  0  0  0  0  0  0  0  0  0  0  0
    9.8334  -13.5181   19.7667 C   0  0  0  0  0  0  0  0  0  0  0  0
    8.7864  -13.3887   18.8795 C   0  0  0  0  0  0  0  0  0  0  0  0
    7.5761  -14.0326   19.1172 C   0  0  0  0  0  0  0  0  0  0  0  0
    7.3874  -14.8110   20.2336 C   0  0  0  0  0  0  0  0  0  0  0  0
    6.1071  -15.5073   20.5092 C   0  0  0  0  0  0  0  0  0  0  0  0
    6.4351  -16.9415   20.8591 C   0  0  2  0  0  0  0  0  0  0  0  0
    5.4982  -17.7794   20.1403 N   0  0  0  0  0  0  0  0  0  0  0  0
    6.3136  -17.2176   22.2958 C   0  0  0  0  0  0  0  0  0  0  0  0
    5.2059  -17.0789   22.8633 O   0  0  0  0  0  0  0  0  0  0  0  0
    8.4277  -14.9407   21.1169 C   0  0  0  0  0  0  0  0  0  0  0  0
    9.6478  -14.2972   20.8862 C   0  0  0  0  0  0  0  0  0  0  0  0
    7.4120  -17.6461   23.1051 N   0  0  0  0  0  0  0  0  0  0  0  0
    7.3966  -17.6134   24.5263 C   0  0  0  0  0  0  0  0  0  0  0  0
    8.3621  -16.7245   25.1702 C   0  0  0  0  0  0  0  0  0  0  0  0
    9.5568  -16.6169   24.7075 O   0  0  0  0  0  0  0  0  0  0  0  0
    6.6942  -12.3558   27.5179 C   0  0  0  0  0  0  0  0  0  0  0  0
    7.7844  -13.0048   26.6763 C   0  0  0  0  0  0  0  0  0  0  0  0
    8.6029  -13.8621   27.5843 C   0  0  2  0  0  0  0  0  0  0  0  0
    9.7169  -13.0133   28.1608 C   0  0  0  0  0  0  0  0  0  0  0  0
    9.1560  -15.0913   26.9228 C   0  0  2  0  0  0  0  0  0  0  0  0
    8.1407  -15.9118   26.3127 N   0  0  0  0  0  0  0  0  0  0  0  0
    9.8596  -15.9198   27.9313 C   0  0  0  0  0  0  0  0  0  0  0  0
   11.2202  -15.8592   28.1787 O   0  0  0  0  0  0  0  0  0  0  0  0
    9.1777  -16.7291   28.6049 O   0  0  0  0  0  0  0  0  0  0  0  0
  2 12  2  0
  2  1  1  0
  3  2  1  0
  4  5  1  0
  4  3  2  0
  5 11  2  0
  6  5  1  0
  7  9  1  0
  7  6  1  0
  7  8  1  6
  9 10  2  0
 11 12  1  0
 13 14  1  0
 13  9  1  0
 15 22  1  0
 15 14  1  0
 16 15  2  0
 18 17  1  0
 19 20  1  6
 19 18  1  0
 21 22  1  1
 21 19  1  0
 23 21  1  0
 24 23  1  0
 25 23  2  0
M  END
$$$$
