YGI.pdb
     RDKit          3D

 25 25  0  0  1  0  0  0  0  0999 V2000
    8.2680  -14.0250   13.9294 O   0  0  0  0  0  0  0  0  0  0  0  0
    7.8966  -14.2791   15.2467 C   0  0  0  0  0  0  0  0  0  0  0  0
    7.9723  -13.2734   16.1864 C   0  0  0  0  0  0  0  0  0  0  0  0
    7.6046  -13.5121   17.5070 C   0  0  0  0  0  0  0  0  0  0  0  0
    7.1584  -14.7465   17.9130 C   0  0  0  0  0  0  0  0  0  0  0  0
    6.7607  -15.0258   19.3144 C   0  0  0  0  0  0  0  0  0  0  0  0
    8.0272  -15.1373   20.1333 C   0  0  2  0  0  0  0  0  0  0  0  0
    8.8013  -16.2251   19.5730 N   0  0  0  0  0  0  0  0  0  0  0  0
    7.7647  -15.4215   21.5494 C   0  0  0  0  0  0  0  0  0  0  0  0
    7.1002  -14.6095   22.2330 O   0  0  0  0  0  0  0  0  0  0  0  0
    7.0825  -15.7478   16.9797 C   0  0  0  0  0  0  0  0  0  0  0  0
    7.4500  -15.5170   15.6501 C   0  0  0  0  0  0  0  0  0  0  0  0
    8.2344  -16.5995   22.2104 N   0  0  0  0  0  0  0  0  0  0  0  0
    8.0521  -16.8432   23.5992 C   0  0  0  0  0  0  0  0  0  0  0  0
    8.7413  -15.9385   24.5175 C   0  0  0  0  0  0  0  0  0  0  0  0
    9.8981  -15.4641   24.2179 O   0  0  0  0  0  0  0  0  0  0  0  0
    6.3353  -11.7976   26.7356 C   0  0  0  0  0  0  0  0  0  0  0  0
    7.2983  -12.7557   26.0480 C   0  0  0  0  0  0  0  0  0  0  0  0
    8.0980  -13.4308   27.1129 C   0  0  2  0  0  0  0  0  0  0  0  0
    8.9183  -12.3780   27.8286 C   0  0  0  0  0  0  0  0  0  0  0  0
    8.9764  -14.5366   26.6029 C   0  0  2  0  0  0  0  0  0  0  0  0
    8.2719  -15.4850   25.7781 N   0  0  0  0  0  0  0  0  0  0  0  0
    9.5527  -15.2776   27.7506 C   0  0  0  0  0  0  0  0  0  0  0  0
   10.7279  -14.9288   28.3935 O   0  0  0  0  0  0  0  0  0  0  0  0
    8.9352  -16.2873   28.1668 O   0  0  0  0  0  0  0  0  0  0  0  0
  2 12  2  0
  2  1  1  0
  3  2  1  0
  4  5  1  0
  4  3  2  0
  5 11  2  0
  6  5  1  0
  7  9  1  0
  7  6  1  0
  7  8  1  6
  9 10  2  0
 11 12  1  0
 13 14  1  0
 13  9  1  0
 15 22  1  0
 15 14  1  0
 16 15  2  0
 18 17  1  0
 19 20  1  6
 19 18  1  0
 21 22  1  6
 21 19  1  0
 23 21  1  0
 24 23  1  0
 25 23  2  0
M  END
$$$$
