QTL.pdb
     RDKit          3D

 25 24  0  0  1  0  0  0  0  0999 V2000
   17.5991  -18.3886  -16.4703 N   0  0  0  0  0  0  0  0  0  0  0  0
   18.8356  -17.7149  -16.5421 C   0  0  0  0  0  0  0  0  0  0  0  0
   19.0210  -16.8328  -17.4130 O   0  0  0  0  0  0  0  0  0  0  0  0
   19.8878  -18.0768  -15.5731 C   0  0  0  0  0  0  0  0  0  0  0  0
   19.4461  -19.1844  -14.6384 C   0  0  0  0  0  0  0  0  0  0  0  0
   19.6801  -20.4922  -15.3788 C   0  0  2  0  0  0  0  0  0  0  0  0
   18.4667  -21.2468  -15.5026 N   0  0  0  0  0  0  0  0  0  0  0  0
   20.6870  -21.2554  -14.6105 C   0  0  0  0  0  0  0  0  0  0  0  0
   20.4231  -21.7295  -13.4827 O   0  0  0  0  0  0  0  0  0  0  0  0
   24.0771  -23.2150  -16.4175 C   0  0  0  0  0  0  0  0  0  0  0  0
   23.3258  -23.4959  -15.1522 C   0  0  1  0  0  0  0  0  0  0  0  0
   24.1394  -24.2817  -14.3380 O   0  0  0  0  0  0  0  0  0  0  0  0
   22.9360  -22.2324  -14.4116 C   0  0  2  0  0  0  0  0  0  0  0  0
   21.9750  -21.4535  -15.1618 N   0  0  0  0  0  0  0  0  0  0  0  0
   24.0977  -21.3798  -14.1190 C   0  0  0  0  0  0  0  0  0  0  0  0
   24.3527  -20.3974  -14.8356 O   0  0  0  0  0  0  0  0  0  0  0  0
   25.1782  -19.3513  -10.5223 C   0  0  0  0  0  0  0  0  0  0  0  0
   25.4391  -20.8540  -10.4147 C   0  0  2  0  0  0  0  0  0  0  0  0
   25.8089  -21.2558   -9.0164 C   0  0  0  0  0  0  0  0  0  0  0  0
   26.5421  -21.1767  -11.3793 C   0  0  0  0  0  0  0  0  0  0  0  0
   26.1232  -20.8408  -12.7811 C   0  0  2  0  0  0  0  0  0  0  0  0
   24.9314  -21.6657  -13.0275 N   0  0  0  0  0  0  0  0  0  0  0  0
   27.1903  -21.2058  -13.7345 C   0  0  0  0  0  0  0  0  0  0  0  0
   28.2245  -20.5445  -13.9700 O   0  0  0  0  0  0  0  0  0  0  0  0
   27.0941  -22.4032  -14.4831 O   0  0  0  0  0  0  0  0  0  0  0  0
  2  3  2  0
  2  1  1  0
  4  2  1  0
  5  4  1  0
  6  7  1  1
  6  5  1  0
  8  6  1  0
  9  8  2  0
 11 10  1  6
 11 12  1  0
 11 13  1  0
 13 15  1  0
 13 14  1  6
 14  8  1  0
 15 16  2  0
 18 17  1  1
 18 19  1  0
 18 20  1  0
 21 20  1  1
 22 21  1  0
 22 15  1  0
 23 25  1  0
 23 21  1  0
 24 23  2  0
M  END
$$$$
