QTL.pdb
     RDKit          3D

 25 24  0  0  1  0  0  0  0  0999 V2000
   25.3185  -16.3991  -16.8534 N   0  0  0  0  0  0  0  0  0  0  0  0
   26.5833  -15.8360  -17.1201 C   0  0  0  0  0  0  0  0  0  0  0  0
   26.7793  -15.2081  -18.1869 O   0  0  0  0  0  0  0  0  0  0  0  0
   27.6519  -16.0076  -16.1173 C   0  0  0  0  0  0  0  0  0  0  0  0
   27.1322  -16.6063  -14.8263 C   0  0  0  0  0  0  0  0  0  0  0  0
   27.0869  -18.1119  -15.0368 C   0  0  2  0  0  0  0  0  0  0  0  0
   26.6569  -18.4410  -16.3649 N   0  0  0  0  0  0  0  0  0  0  0  0
   26.1475  -18.6650  -14.0377 C   0  0  0  0  0  0  0  0  0  0  0  0
   24.9724  -18.2440  -13.9461 O   0  0  0  0  0  0  0  0  0  0  0  0
   24.5217  -21.5491  -14.2545 C   0  0  0  0  0  0  0  0  0  0  0  0
   25.1930  -21.6897  -12.9226 C   0  0  1  0  0  0  0  0  0  0  0  0
   26.3179  -22.4945  -13.0943 O   0  0  0  0  0  0  0  0  0  0  0  0
   25.6084  -20.3561  -12.3343 C   0  0  2  0  0  0  0  0  0  0  0  0
   26.5862  -19.6910  -13.1676 N   0  0  0  0  0  0  0  0  0  0  0  0
   26.1689  -20.4964  -10.9823 C   0  0  0  0  0  0  0  0  0  0  0  0
   27.3834  -20.3249  -10.7845 O   0  0  0  0  0  0  0  0  0  0  0  0
   27.5192  -18.6648   -6.2737 C   0  0  0  0  0  0  0  0  0  0  0  0
   27.1912  -20.0693   -6.7812 C   0  0  2  0  0  0  0  0  0  0  0  0
   28.3935  -20.9676   -6.7484 C   0  0  0  0  0  0  0  0  0  0  0  0
   26.6676  -19.9182   -8.1791 C   0  0  0  0  0  0  0  0  0  0  0  0
   25.9327  -21.1586   -8.5971 C   0  0  2  0  0  0  0  0  0  0  0  0
   25.3388  -20.8252   -9.9001 N   0  0  0  0  0  0  0  0  0  0  0  0
   24.8651  -21.4717   -7.6260 C   0  0  0  0  0  0  0  0  0  0  0  0
   25.0204  -21.6803   -6.4034 O   0  0  0  0  0  0  0  0  0  0  0  0
   23.5189  -21.5584   -8.0547 O   0  0  0  0  0  0  0  0  0  0  0  0
  2  3  2  0
  2  1  1  0
  4  2  1  0
  5  4  1  0
  6  7  1  6
  6  5  1  0
  8  6  1  0
  9  8  2  0
 11 10  1  6
 11 12  1  0
 11 13  1  0
 13 15  1  0
 13 14  1  6
 14  8  1  0
 15 16  2  0
 18 17  1  6
 18 19  1  0
 18 20  1  0
 21 20  1  1
 22 21  1  0
 22 15  1  0
 23 25  1  0
 23 21  1  0
 24 23  2  0
M  END
$$$$
