QTL.pdb
     RDKit          3D

 25 24  0  0  1  0  0  0  0  0999 V2000
   26.1795  -12.0052  -16.1080 N   0  0  0  0  0  0  0  0  0  0  0  0
   25.9138  -13.2717  -16.6678 C   0  0  0  0  0  0  0  0  0  0  0  0
   26.6280  -14.2556  -16.3634 O   0  0  0  0  0  0  0  0  0  0  0  0
   24.7848  -13.3985  -17.6092 C   0  0  0  0  0  0  0  0  0  0  0  0
   24.0379  -12.0920  -17.7839 C   0  0  0  0  0  0  0  0  0  0  0  0
   22.7338  -12.2348  -17.0145 C   0  0  2  0  0  0  0  0  0  0  0  0
   21.9399  -13.3135  -17.5276 N   0  0  0  0  0  0  0  0  0  0  0  0
   22.0080  -10.9528  -17.1426 C   0  0  0  0  0  0  0  0  0  0  0  0
   21.7596  -10.4546  -18.2635 O   0  0  0  0  0  0  0  0  0  0  0  0
   18.5497  -10.1580  -16.1764 C   0  0  0  0  0  0  0  0  0  0  0  0
   19.4485   -9.1972  -15.4599 C   0  0  1  0  0  0  0  0  0  0  0  0
   19.6069   -9.6543  -14.1529 O   0  0  0  0  0  0  0  0  0  0  0  0
   20.8068   -9.0654  -16.1194 C   0  0  2  0  0  0  0  0  0  0  0  0
   21.5859  -10.2757  -15.9740 N   0  0  0  0  0  0  0  0  0  0  0  0
   21.5837   -7.9442  -15.5706 C   0  0  0  0  0  0  0  0  0  0  0  0
   22.4793   -8.1499  -14.7345 O   0  0  0  0  0  0  0  0  0  0  0  0
   24.2322   -3.8585  -15.5097 C   0  0  0  0  0  0  0  0  0  0  0  0
   22.9490   -3.2995  -16.1252 C   0  0  2  0  0  0  0  0  0  0  0  0
   22.2130   -2.4105  -15.1652 C   0  0  0  0  0  0  0  0  0  0  0  0
   22.1078   -4.4752  -16.5264 C   0  0  0  0  0  0  0  0  0  0  0  0
   22.1255   -5.5204  -15.4491 C   0  0  2  0  0  0  0  0  0  0  0  0
   21.3229   -6.6295  -15.9850 N   0  0  0  0  0  0  0  0  0  0  0  0
   21.4977   -4.9970  -14.2192 C   0  0  0  0  0  0  0  0  0  0  0  0
   20.2706   -4.8790  -14.0121 O   0  0  0  0  0  0  0  0  0  0  0  0
   22.3040   -4.5722  -13.1361 O   0  0  0  0  0  0  0  0  0  0  0  0
  2  3  2  0
  2  1  1  0
  4  2  1  0
  5  4  1  0
  6  7  1  6
  6  5  1  0
  8  6  1  0
  9  8  2  0
 11 10  1  6
 11 12  1  0
 11 13  1  0
 13 15  1  0
 13 14  1  1
 14  8  1  0
 15 16  2  0
 18 17  1  1
 18 19  1  0
 18 20  1  0
 21 20  1  6
 22 21  1  0
 22 15  1  0
 23 25  1  0
 23 21  1  0
 24 23  2  0
M  END
$$$$
