QTL.pdb
     RDKit          3D

 25 24  0  0  1  0  0  0  0  0999 V2000
   12.4020  -13.3554  -17.3758 N   0  0  0  0  0  0  0  0  0  0  0  0
   13.2613  -12.4621  -16.7039 C   0  0  0  0  0  0  0  0  0  0  0  0
   13.5467  -11.3563  -17.2203 O   0  0  0  0  0  0  0  0  0  0  0  0
   13.8050  -12.8656  -15.3930 C   0  0  0  0  0  0  0  0  0  0  0  0
   14.4332  -11.7022  -14.6531 C   0  0  0  0  0  0  0  0  0  0  0  0
   15.9388  -11.8643  -14.7940 C   0  0  2  0  0  0  0  0  0  0  0  0
   16.3470  -13.2120  -14.5220 N   0  0  0  0  0  0  0  0  0  0  0  0
   16.5704  -10.9301  -13.8374 C   0  0  0  0  0  0  0  0  0  0  0  0
   16.8439  -11.2821  -12.6679 O   0  0  0  0  0  0  0  0  0  0  0  0
   19.1359   -6.8355  -13.0366 C   0  0  0  0  0  0  0  0  0  0  0  0
   18.5495   -7.8506  -13.9693 C   0  0  1  0  0  0  0  0  0  0  0  0
   19.5885   -8.6564  -14.4313 O   0  0  0  0  0  0  0  0  0  0  0  0
   17.4950   -8.7133  -13.3054 C   0  0  2  0  0  0  0  0  0  0  0  0
   16.8718   -9.6115  -14.2529 N   0  0  0  0  0  0  0  0  0  0  0  0
   16.4427   -7.9099  -12.6658 C   0  0  0  0  0  0  0  0  0  0  0  0
   15.5793   -7.3417  -13.3552 O   0  0  0  0  0  0  0  0  0  0  0  0
   14.8002   -6.5883   -6.9554 C   0  0  0  0  0  0  0  0  0  0  0  0
   14.3838   -6.5164   -8.4248 C   0  0  2  0  0  0  0  0  0  0  0  0
   12.9793   -7.0054   -8.6296 C   0  0  0  0  0  0  0  0  0  0  0  0
   15.3638   -7.3482   -9.1985 C   0  0  0  0  0  0  0  0  0  0  0  0
   15.3607   -6.9464  -10.6448 C   0  0  2  0  0  0  0  0  0  0  0  0
   16.4014   -7.7758  -11.2699 N   0  0  0  0  0  0  0  0  0  0  0  0
   15.7113   -5.5182  -10.7791 C   0  0  0  0  0  0  0  0  0  0  0  0
   14.9048   -4.5699  -10.8925 O   0  0  0  0  0  0  0  0  0  0  0  0
   17.0692   -5.1185  -10.7873 O   0  0  0  0  0  0  0  0  0  0  0  0
  2  3  2  0
  2  1  1  0
  4  2  1  0
  5  4  1  0
  6  7  1  1
  6  5  1  0
  8  6  1  0
  9  8  2  0
 11 10  1  1
 11 12  1  0
 11 13  1  0
 13 15  1  0
 13 14  1  6
 14  8  1  0
 15 16  2  0
 18 17  1  1
 18 19  1  0
 18 20  1  0
 21 20  1  1
 22 21  1  0
 22 15  1  0
 23 25  1  0
 23 21  1  0
 24 23  2  0
M  END
$$$$
