QTL.pdb
     RDKit          3D

 25 24  0  0  1  0  0  0  0  0999 V2000
   23.9874  -21.1858   -8.1445 N   0  0  0  0  0  0  0  0  0  0  0  0
   22.9929  -20.8687   -9.0923 C   0  0  0  0  0  0  0  0  0  0  0  0
   21.8148  -21.2611   -8.9223 O   0  0  0  0  0  0  0  0  0  0  0  0
   23.3788  -20.0720  -10.2727 C   0  0  0  0  0  0  0  0  0  0  0  0
   24.8602  -19.7550  -10.2876 C   0  0  0  0  0  0  0  0  0  0  0  0
   25.5482  -20.9403  -10.9471 C   0  0  2  0  0  0  0  0  0  0  0  0
   26.8137  -21.2184  -10.3321 N   0  0  0  0  0  0  0  0  0  0  0  0
   25.7309  -20.6008  -12.3747 C   0  0  0  0  0  0  0  0  0  0  0  0
   26.5514  -19.7277  -12.7363 O   0  0  0  0  0  0  0  0  0  0  0  0
   25.9576  -21.8664  -16.9552 C   0  0  0  0  0  0  0  0  0  0  0  0
   25.7280  -22.1587  -15.5039 C   0  0  1  0  0  0  0  0  0  0  0  0
   26.9453  -22.5497  -14.9493 O   0  0  0  0  0  0  0  0  0  0  0  0
   25.1859  -20.9634  -14.7461 C   0  0  2  0  0  0  0  0  0  0  0  0
   24.9624  -21.2770  -13.3516 N   0  0  0  0  0  0  0  0  0  0  0  0
   23.9253  -20.4685  -15.3186 C   0  0  0  0  0  0  0  0  0  0  0  0
   22.8457  -21.0062  -15.0204 O   0  0  0  0  0  0  0  0  0  0  0  0
   22.2992  -16.3568  -19.5147 C   0  0  0  0  0  0  0  0  0  0  0  0
   21.8273  -17.1499  -18.2957 C   0  0  2  0  0  0  0  0  0  0  0  0
   21.0966  -16.2797  -17.3146 C   0  0  0  0  0  0  0  0  0  0  0  0
   23.0475  -17.7608  -17.6720 C   0  0  0  0  0  0  0  0  0  0  0  0
   22.6583  -18.8922  -16.7655 C   0  0  2  0  0  0  0  0  0  0  0  0
   23.9269  -19.3834  -16.2078 N   0  0  0  0  0  0  0  0  0  0  0  0
   22.0034  -19.9654  -17.5401 C   0  0  0  0  0  0  0  0  0  0  0  0
   22.5609  -20.7264  -18.3602 O   0  0  0  0  0  0  0  0  0  0  0  0
   20.6172  -20.2071  -17.3864 O   0  0  0  0  0  0  0  0  0  0  0  0
  2  3  2  0
  2  1  1  0
  4  2  1  0
  5  4  1  0
  6  7  1  1
  6  5  1  0
  8  6  1  0
  9  8  2  0
 11 10  1  6
 11 12  1  0
 11 13  1  0
 13 15  1  0
 13 14  1  1
 14  8  1  0
 15 16  2  0
 18 17  1  6
 18 19  1  0
 18 20  1  0
 21 20  1  6
 22 21  1  0
 22 15  1  0
 23 25  1  0
 23 21  1  0
 24 23  2  0
M  END
$$$$
