QTL.pdb
     RDKit          3D

 25 24  0  0  1  0  0  0  0  0999 V2000
   30.2500  -23.6644  -18.1164 N   0  0  0  0  0  0  0  0  0  0  0  0
   30.8789  -22.5974  -18.7903 C   0  0  0  0  0  0  0  0  0  0  0  0
   31.7802  -22.8285  -19.6299 O   0  0  0  0  0  0  0  0  0  0  0  0
   30.4475  -21.2211  -18.4793 C   0  0  0  0  0  0  0  0  0  0  0  0
   29.4893  -21.1747  -17.3065 C   0  0  0  0  0  0  0  0  0  0  0  0
   28.1028  -21.4414  -17.8719 C   0  0  2  0  0  0  0  0  0  0  0  0
   27.9664  -20.9058  -19.1954 N   0  0  0  0  0  0  0  0  0  0  0  0
   27.1285  -20.8100  -16.9560 C   0  0  0  0  0  0  0  0  0  0  0  0
   27.1194  -19.5728  -16.7676 O   0  0  0  0  0  0  0  0  0  0  0  0
   22.7941  -20.7312  -14.8635 C   0  0  0  0  0  0  0  0  0  0  0  0
   23.8060  -21.2817  -15.8213 C   0  0  1  0  0  0  0  0  0  0  0  0
   23.5618  -20.7167  -17.0717 O   0  0  0  0  0  0  0  0  0  0  0  0
   25.2311  -20.9846  -15.3999 C   0  0  2  0  0  0  0  0  0  0  0  0
   26.1874  -21.6214  -16.2792 N   0  0  0  0  0  0  0  0  0  0  0  0
   25.5049  -21.4204  -14.0225 C   0  0  0  0  0  0  0  0  0  0  0  0
   26.4995  -22.1212  -13.7710 O   0  0  0  0  0  0  0  0  0  0  0  0
   27.3109  -21.8259   -9.7594 C   0  0  0  0  0  0  0  0  0  0  0  0
   26.7305  -20.4276   -9.9733 C   0  0  2  0  0  0  0  0  0  0  0  0
   25.6143  -20.1358   -9.0128 C   0  0  0  0  0  0  0  0  0  0  0  0
   26.2514  -20.3653  -11.3937 C   0  0  0  0  0  0  0  0  0  0  0  0
   25.0600  -21.2591  -11.5813 C   0  0  2  0  0  0  0  0  0  0  0  0
   24.6465  -21.0499  -12.9766 N   0  0  0  0  0  0  0  0  0  0  0  0
   23.9700  -20.8555  -10.6704 C   0  0  0  0  0  0  0  0  0  0  0  0
   23.1467  -19.9363  -10.8698 O   0  0  0  0  0  0  0  0  0  0  0  0
   23.7857  -21.5319   -9.4408 O   0  0  0  0  0  0  0  0  0  0  0  0
  2  3  2  0
  2  1  1  0
  4  2  1  0
  5  4  1  0
  6  7  1  6
  6  5  1  0
  8  6  1  0
  9  8  2  0
 11 10  1  1
 11 12  1  0
 11 13  1  0
 13 15  1  0
 13 14  1  6
 14  8  1  0
 15 16  2  0
 18 17  1  1
 18 19  1  0
 18 20  1  0
 21 20  1  1
 22 21  1  0
 22 15  1  0
 23 25  1  0
 23 21  1  0
 24 23  2  0
M  END
$$$$
