QTL.pdb
     RDKit          3D

 25 24  0  0  1  0  0  0  0  0999 V2000
   26.4363  -26.2649  -16.3826 N   0  0  0  0  0  0  0  0  0  0  0  0
   27.3153  -26.9468  -17.2489 C   0  0  0  0  0  0  0  0  0  0  0  0
   26.9289  -27.9730  -17.8559 O   0  0  0  0  0  0  0  0  0  0  0  0
   28.6837  -26.4206  -17.4147 C   0  0  0  0  0  0  0  0  0  0  0  0
   28.9142  -25.1636  -16.6009 C   0  0  0  0  0  0  0  0  0  0  0  0
   28.3662  -24.0094  -17.4259 C   0  0  2  0  0  0  0  0  0  0  0  0
   29.2747  -23.6367  -18.4712 N   0  0  0  0  0  0  0  0  0  0  0  0
   28.1490  -22.8758  -16.5015 C   0  0  0  0  0  0  0  0  0  0  0  0
   28.9923  -22.5794  -15.6256 O   0  0  0  0  0  0  0  0  0  0  0  0
   25.9898  -18.6355  -15.4723 C   0  0  0  0  0  0  0  0  0  0  0  0
   26.2708  -19.7707  -16.4087 C   0  0  1  0  0  0  0  0  0  0  0  0
   27.2355  -19.3441  -17.3195 O   0  0  0  0  0  0  0  0  0  0  0  0
   26.7639  -21.0112  -15.6910 C   0  0  2  0  0  0  0  0  0  0  0  0
   26.9637  -22.1107  -16.6099 N   0  0  0  0  0  0  0  0  0  0  0  0
   25.8360  -21.4489  -14.6378 C   0  0  0  0  0  0  0  0  0  0  0  0
   24.8582  -22.1622  -14.9183 O   0  0  0  0  0  0  0  0  0  0  0  0
   23.5515  -20.6553   -9.9899 C   0  0  0  0  0  0  0  0  0  0  0  0
   24.8408  -21.4591   -9.8179 C   0  0  2  0  0  0  0  0  0  0  0  0
   25.5075  -21.1668   -8.5050 C   0  0  0  0  0  0  0  0  0  0  0  0
   25.7349  -21.1035  -10.9690 C   0  0  0  0  0  0  0  0  0  0  0  0
   25.0772  -21.4624  -12.2698 C   0  0  2  0  0  0  0  0  0  0  0  0
   26.0441  -21.0663  -13.3042 N   0  0  0  0  0  0  0  0  0  0  0  0
   23.8246  -20.6984  -12.4368 C   0  0  0  0  0  0  0  0  0  0  0  0
   22.6660  -21.1422  -12.2845 O   0  0  0  0  0  0  0  0  0  0  0  0
   23.8702  -19.3317  -12.8025 O   0  0  0  0  0  0  0  0  0  0  0  0
  2  3  2  0
  2  1  1  0
  4  2  1  0
  5  4  1  0
  6  7  1  6
  6  5  1  0
  8  6  1  0
  9  8  2  0
 11 10  1  1
 11 12  1  0
 11 13  1  0
 13 15  1  0
 13 14  1  6
 14  8  1  0
 15 16  2  0
 18 17  1  6
 18 19  1  0
 18 20  1  0
 21 20  1  1
 22 21  1  0
 22 15  1  0
 23 25  1  0
 23 21  1  0
 24 23  2  0
M  END
$$$$
