QTL.pdb
     RDKit          3D

 25 24  0  0  1  0  0  0  0  0999 V2000
   19.6769  -18.2114  -14.7654 N   0  0  0  0  0  0  0  0  0  0  0  0
   18.7866  -19.1963  -14.2909 C   0  0  0  0  0  0  0  0  0  0  0  0
   17.6273  -19.2743  -14.7606 O   0  0  0  0  0  0  0  0  0  0  0  0
   19.2575  -20.1180  -13.2394 C   0  0  0  0  0  0  0  0  0  0  0  0
   19.0174  -21.5691  -13.6031 C   0  0  0  0  0  0  0  0  0  0  0  0
   20.0715  -21.9344  -14.6368 C   0  0  2  0  0  0  0  0  0  0  0  0
   19.5933  -22.9441  -15.5363 N   0  0  0  0  0  0  0  0  0  0  0  0
   21.2577  -22.4195  -13.8990 C   0  0  0  0  0  0  0  0  0  0  0  0
   21.2391  -23.5066  -13.2793 O   0  0  0  0  0  0  0  0  0  0  0  0
   25.1000  -21.5118  -15.2528 C   0  0  0  0  0  0  0  0  0  0  0  0
   24.6028  -22.6539  -14.4203 C   0  0  1  0  0  0  0  0  0  0  0  0
   25.7088  -23.2732  -13.8410 O   0  0  0  0  0  0  0  0  0  0  0  0
   23.6430  -22.2105  -13.3345 C   0  0  2  0  0  0  0  0  0  0  0  0
   22.4376  -21.6385  -13.8939 N   0  0  0  0  0  0  0  0  0  0  0  0
   24.2480  -21.2235  -12.4280 C   0  0  0  0  0  0  0  0  0  0  0  0
   24.1197  -20.0074  -12.6471 O   0  0  0  0  0  0  0  0  0  0  0  0
   27.4413  -21.1175   -7.2466 C   0  0  0  0  0  0  0  0  0  0  0  0
   26.9426  -20.3223   -8.4536 C   0  0  2  0  0  0  0  0  0  0  0  0
   26.1748  -19.1015   -8.0368 C   0  0  0  0  0  0  0  0  0  0  0  0
   26.0853  -21.2491   -9.2642 C   0  0  0  0  0  0  0  0  0  0  0  0
   25.9234  -20.7217  -10.6603 C   0  0  2  0  0  0  0  0  0  0  0  0
   24.9770  -21.6436  -11.3053 N   0  0  0  0  0  0  0  0  0  0  0  0
   27.2170  -20.7538  -11.3718 C   0  0  0  0  0  0  0  0  0  0  0  0
   27.7884  -21.7737  -11.8143 O   0  0  0  0  0  0  0  0  0  0  0  0
   27.9274  -19.5524  -11.6073 O   0  0  0  0  0  0  0  0  0  0  0  0
  2  3  2  0
  2  1  1  0
  4  2  1  0
  5  4  1  0
  6  7  1  6
  6  5  1  0
  8  6  1  0
  9  8  2  0
 11 10  1  1
 11 12  1  0
 11 13  1  0
 13 15  1  0
 13 14  1  6
 14  8  1  0
 15 16  2  0
 18 17  1  1
 18 19  1  0
 18 20  1  0
 21 20  1  1
 22 21  1  0
 22 15  1  0
 23 25  1  0
 23 21  1  0
 24 23  2  0
M  END
$$$$
