TDD.pdb
     RDKit          3D

 24 23  0  0  1  0  0  0  0  0999 V2000
   11.3372   -8.2679  -11.9533 C   0  0  0  0  0  0  0  0  0  0  0  0
   11.2204   -9.5075  -11.1243 C   0  0  1  0  0  0  0  0  0  0  0  0
    9.8567   -9.7969  -10.9694 O   0  0  0  0  0  0  0  0  0  0  0  0
   11.8683  -10.6742  -11.8318 C   0  0  2  0  0  0  0  0  0  0  0  0
   11.6666  -11.8715  -11.0760 N   0  0  0  0  0  0  0  0  0  0  0  0
   13.3257  -10.4504  -12.0172 C   0  0  0  0  0  0  0  0  0  0  0  0
   14.1338  -10.4051  -11.0371 O   0  0  0  0  0  0  0  0  0  0  0  0
   13.8600  -10.2793  -13.2998 N   0  0  0  0  0  0  0  0  0  0  0  0
   15.2273  -10.0579  -13.6455 C   0  0  1  0  0  0  0  0  0  0  0  0
   15.6259  -11.0595  -14.7347 C   0  0  0  0  0  0  0  0  0  0  0  0
   15.9013  -12.3923  -14.1735 C   0  0  0  0  0  0  0  0  0  0  0  0
   16.2100  -12.5117  -12.9712 O   0  0  0  0  0  0  0  0  0  0  0  0
   15.3597   -8.7056  -14.2421 C   0  0  0  0  0  0  0  0  0  0  0  0
   14.5053   -8.3433  -15.0939 O   0  0  0  0  0  0  0  0  0  0  0  0
   15.8130  -13.5035  -14.9981 O   0  0  0  0  0  0  0  0  0  0  0  0
   16.4100   -7.8455  -13.8708 N   0  0  0  0  0  0  0  0  0  0  0  0
   16.4894   -6.5113  -14.4031 C   0  0  1  0  0  0  0  0  0  0  0  0
   16.4349   -5.5264  -13.2663 C   0  0  0  0  0  0  0  0  0  0  0  0
   16.6055   -4.1290  -13.6644 C   0  0  0  0  0  0  0  0  0  0  0  0
   17.7752   -3.6426  -13.5396 O   0  0  0  0  0  0  0  0  0  0  0  0
   17.7553   -6.3808  -15.1829 C   0  0  0  0  0  0  0  0  0  0  0  0
   18.6651   -7.2437  -15.0875 O   0  0  0  0  0  0  0  0  0  0  0  0
   15.6376   -3.2836  -14.1597 O   0  0  0  0  0  0  0  0  0  0  0  0
   17.9838   -5.3141  -16.0386 O   0  0  0  0  0  0  0  0  0  0  0  0
  2  1  1  6
  3  2  1  0
  4  2  1  0
  4  6  1  0
  4  5  1  1
  6  7  2  0
  8  9  1  0
  8  6  1  0
  9 10  1  6
 10 11  1  0
 11 15  1  0
 12 11  2  0
 13  9  1  0
 14 13  2  0
 16 13  1  0
 17 21  1  0
 17 16  1  0
 17 18  1  1
 19 18  1  0
 20 19  2  0
 21 24  1  0
 22 21  2  0
 23 19  1  0
M  END
$$$$
