TDD.pdb
     RDKit          3D

 24 23  0  0  1  0  0  0  0  0999 V2000
   16.2393  -11.6502  -11.0351 C   0  0  0  0  0  0  0  0  0  0  0  0
   14.7498  -11.7356  -10.9276 C   0  0  1  0  0  0  0  0  0  0  0  0
   14.4200  -13.0353  -10.5158 O   0  0  0  0  0  0  0  0  0  0  0  0
   14.2436  -10.7712   -9.8811 C   0  0  2  0  0  0  0  0  0  0  0  0
   12.8323  -10.9335   -9.7151 N   0  0  0  0  0  0  0  0  0  0  0  0
   14.5347   -9.3638  -10.2593 C   0  0  0  0  0  0  0  0  0  0  0  0
   13.8974   -8.7650  -11.1817 O   0  0  0  0  0  0  0  0  0  0  0  0
   15.5377   -8.6444   -9.5988 N   0  0  0  0  0  0  0  0  0  0  0  0
   16.0215   -7.3401   -9.9194 C   0  0  1  0  0  0  0  0  0  0  0  0
   16.1639   -6.5373   -8.6218 C   0  0  0  0  0  0  0  0  0  0  0  0
   16.4364   -5.1155   -8.8891 C   0  0  0  0  0  0  0  0  0  0  0  0
   16.5374   -4.3106   -7.9420 O   0  0  0  0  0  0  0  0  0  0  0  0
   17.3832   -7.4607  -10.4966 C   0  0  0  0  0  0  0  0  0  0  0  0
   18.2147   -8.2052   -9.9126 O   0  0  0  0  0  0  0  0  0  0  0  0
   16.5768   -4.6901  -10.2013 O   0  0  0  0  0  0  0  0  0  0  0  0
   17.7431   -6.7639  -11.6654 N   0  0  0  0  0  0  0  0  0  0  0  0
   19.0322   -6.9643  -12.2720 C   0  0  1  0  0  0  0  0  0  0  0  0
   19.1037   -8.3647  -12.8188 C   0  0  0  0  0  0  0  0  0  0  0  0
   20.3290   -8.6659  -13.5592 C   0  0  0  0  0  0  0  0  0  0  0  0
   21.2171   -7.7541  -13.5808 O   0  0  0  0  0  0  0  0  0  0  0  0
   19.2203   -5.9449  -13.3457 C   0  0  0  0  0  0  0  0  0  0  0  0
   18.2323   -5.3844  -13.8853 O   0  0  0  0  0  0  0  0  0  0  0  0
   20.6253   -9.8289  -14.2348 O   0  0  0  0  0  0  0  0  0  0  0  0
   20.4791   -5.5732  -13.7927 O   0  0  0  0  0  0  0  0  0  0  0  0
  2  1  1  1
  3  2  1  0
  4  2  1  0
  4  6  1  0
  4  5  1  6
  6  7  2  0
  8  9  1  0
  8  6  1  0
  9 10  1  1
 10 11  1  0
 11 15  1  0
 12 11  2  0
 13  9  1  0
 14 13  2  0
 16 13  1  0
 17 21  1  0
 17 16  1  0
 17 18  1  6
 19 18  1  0
 20 19  2  0
 21 24  1  0
 22 21  2  0
 23 19  1  0
M  END
$$$$
