TDD.pdb
     RDKit          3D

 24 23  0  0  1  0  0  0  0  0999 V2000
   27.2687  -34.0706   -7.8785 C   0  0  0  0  0  0  0  0  0  0  0  0
   26.3875  -33.2011   -8.7181 C   0  0  1  0  0  0  0  0  0  0  0  0
   26.4710  -33.6527  -10.0435 O   0  0  0  0  0  0  0  0  0  0  0  0
   24.9498  -33.3256   -8.2719 C   0  0  2  0  0  0  0  0  0  0  0  0
   24.1142  -32.5086   -9.0965 N   0  0  0  0  0  0  0  0  0  0  0  0
   24.7887  -32.9165   -6.8522 C   0  0  0  0  0  0  0  0  0  0  0  0
   24.4065  -31.7498   -6.5230 O   0  0  0  0  0  0  0  0  0  0  0  0
   25.0587  -33.8207   -5.8181 N   0  0  0  0  0  0  0  0  0  0  0  0
   24.8317  -33.6314   -4.4215 C   0  0  1  0  0  0  0  0  0  0  0  0
   23.3384  -33.8251   -4.1368 C   0  0  0  0  0  0  0  0  0  0  0  0
   22.9665  -33.3096   -2.8090 C   0  0  0  0  0  0  0  0  0  0  0  0
   23.4047  -32.2082   -2.4219 O   0  0  0  0  0  0  0  0  0  0  0  0
   25.5489  -34.6909   -3.6697 C   0  0  0  0  0  0  0  0  0  0  0  0
   25.2659  -35.8932   -3.9169 O   0  0  0  0  0  0  0  0  0  0  0  0
   22.1280  -34.0640   -2.0025 O   0  0  0  0  0  0  0  0  0  0  0  0
   26.5207  -34.3678   -2.7041 N   0  0  0  0  0  0  0  0  0  0  0  0
   27.2368  -35.4036   -2.0081 C   0  0  1  0  0  0  0  0  0  0  0  0
   28.5256  -34.8359   -1.4771 C   0  0  0  0  0  0  0  0  0  0  0  0
   29.6954  -35.0961   -2.3163 C   0  0  0  0  0  0  0  0  0  0  0  0
   30.8023  -34.6155   -1.9108 O   0  0  0  0  0  0  0  0  0  0  0  0
   26.3735  -35.9280   -0.9094 C   0  0  0  0  0  0  0  0  0  0  0  0
   25.5636  -35.1764   -0.3089 O   0  0  0  0  0  0  0  0  0  0  0  0
   29.7284  -35.8048   -3.4967 O   0  0  0  0  0  0  0  0  0  0  0  0
   26.4242  -37.2531   -0.5048 O   0  0  0  0  0  0  0  0  0  0  0  0
  2  1  1  1
  3  2  1  0
  4  2  1  0
  4  6  1  0
  4  5  1  6
  6  7  2  0
  8  9  1  0
  8  6  1  0
  9 10  1  6
 10 11  1  0
 11 15  1  0
 12 11  2  0
 13  9  1  0
 14 13  2  0
 16 13  1  0
 17 21  1  0
 17 16  1  0
 17 18  1  1
 19 18  1  0
 20 19  2  0
 21 24  1  0
 22 21  2  0
 23 19  1  0
M  END
$$$$
