TDD.pdb
     RDKit          3D

 24 23  0  0  1  0  0  0  0  0999 V2000
   19.7848  -10.4365  -21.5547 C   0  0  0  0  0  0  0  0  0  0  0  0
   19.8976  -11.4748  -20.4837 C   0  0  1  0  0  0  0  0  0  0  0  0
   20.2620  -12.6851  -21.0918 O   0  0  0  0  0  0  0  0  0  0  0  0
   20.9828  -11.0997  -19.5023 C   0  0  2  0  0  0  0  0  0  0  0  0
   21.3886  -12.2555  -18.7639 N   0  0  0  0  0  0  0  0  0  0  0  0
   20.5161  -10.0522  -18.5569 C   0  0  0  0  0  0  0  0  0  0  0  0
   20.0420   -8.9425  -18.9562 O   0  0  0  0  0  0  0  0  0  0  0  0
   20.5870  -10.2614  -17.1745 N   0  0  0  0  0  0  0  0  0  0  0  0
   20.1135   -9.3958  -16.1427 C   0  0  1  0  0  0  0  0  0  0  0  0
   19.8016  -10.2380  -14.9010 C   0  0  0  0  0  0  0  0  0  0  0  0
   18.5649  -11.0184  -15.0698 C   0  0  0  0  0  0  0  0  0  0  0  0
   18.6261  -12.2386  -15.3202 O   0  0  0  0  0  0  0  0  0  0  0  0
   21.2020   -8.4622  -15.7611 C   0  0  0  0  0  0  0  0  0  0  0  0
   22.3908   -8.8735  -15.8266 O   0  0  0  0  0  0  0  0  0  0  0  0
   17.3408  -10.3787  -14.9473 O   0  0  0  0  0  0  0  0  0  0  0  0
   20.9205   -7.1504  -15.3356 N   0  0  0  0  0  0  0  0  0  0  0  0
   21.9858   -6.2241  -15.0580 C   0  0  1  0  0  0  0  0  0  0  0  0
   22.1641   -5.3134  -16.2429 C   0  0  0  0  0  0  0  0  0  0  0  0
   23.0953   -4.2065  -16.0237 C   0  0  0  0  0  0  0  0  0  0  0  0
   24.3344   -4.4788  -16.1285 O   0  0  0  0  0  0  0  0  0  0  0  0
   21.6455   -5.4585  -13.8229 C   0  0  0  0  0  0  0  0  0  0  0  0
   20.4762   -5.4643  -13.3603 O   0  0  0  0  0  0  0  0  0  0  0  0
   22.7761   -2.9025  -15.7167 O   0  0  0  0  0  0  0  0  0  0  0  0
   22.5925   -4.7138  -13.1365 O   0  0  0  0  0  0  0  0  0  0  0  0
  2  1  1  6
  3  2  1  0
  4  2  1  0
  4  6  1  0
  4  5  1  1
  6  7  2  0
  8  9  1  0
  8  6  1  0
  9 10  1  1
 10 11  1  0
 11 15  1  0
 12 11  2  0
 13  9  1  0
 14 13  2  0
 16 13  1  0
 17 21  1  0
 17 16  1  0
 17 18  1  6
 19 18  1  0
 20 19  2  0
 21 24  1  0
 22 21  2  0
 23 19  1  0
M  END
$$$$
