TDD.pdb
     RDKit          3D

 24 23  0  0  1  0  0  0  0  0999 V2000
   16.7063  -10.7316  -17.6043 C   0  0  0  0  0  0  0  0  0  0  0  0
   16.9624   -9.6019  -16.6579 C   0  0  1  0  0  0  0  0  0  0  0  0
   15.8700   -9.5154  -15.7823 O   0  0  0  0  0  0  0  0  0  0  0  0
   18.1994   -9.8769  -15.8359 C   0  0  2  0  0  0  0  0  0  0  0  0
   18.0116  -11.0639  -15.0605 N   0  0  0  0  0  0  0  0  0  0  0  0
   18.5069   -8.7411  -14.9281 C   0  0  0  0  0  0  0  0  0  0  0  0
   17.9914   -8.6408  -13.7706 O   0  0  0  0  0  0  0  0  0  0  0  0
   19.3888   -7.7306  -15.3293 N   0  0  0  0  0  0  0  0  0  0  0  0
   19.7010   -6.5261  -14.6296 C   0  0  1  0  0  0  0  0  0  0  0  0
   21.2194   -6.3208  -14.6601 C   0  0  0  0  0  0  0  0  0  0  0  0
   21.6540   -5.3275  -13.6644 C   0  0  0  0  0  0  0  0  0  0  0  0
   20.8098   -4.7389  -12.9602 O   0  0  0  0  0  0  0  0  0  0  0  0
   19.1021   -5.3789  -15.3558 C   0  0  0  0  0  0  0  0  0  0  0  0
   19.2509   -5.3208  -16.6053 O   0  0  0  0  0  0  0  0  0  0  0  0
   23.0072   -5.0592  -13.5245 O   0  0  0  0  0  0  0  0  0  0  0  0
   18.3857   -4.3784  -14.6726 N   0  0  0  0  0  0  0  0  0  0  0  0
   17.8492   -3.2465  -15.3803 C   0  0  1  0  0  0  0  0  0  0  0  0
   16.4847   -2.9276  -14.8310 C   0  0  0  0  0  0  0  0  0  0  0  0
   15.8543   -1.7454  -15.4189 C   0  0  0  0  0  0  0  0  0  0  0  0
   16.1063   -1.5196  -16.6461 O   0  0  0  0  0  0  0  0  0  0  0  0
   18.7867   -2.0957  -15.2250 C   0  0  0  0  0  0  0  0  0  0  0  0
   19.6644   -2.0939  -14.3244 O   0  0  0  0  0  0  0  0  0  0  0  0
   15.0178   -0.8513  -14.7884 O   0  0  0  0  0  0  0  0  0  0  0  0
   18.7335   -0.9881  -16.0572 O   0  0  0  0  0  0  0  0  0  0  0  0
  2  1  1  6
  3  2  1  0
  4  2  1  0
  4  6  1  0
  4  5  1  1
  6  7  2  0
  8  9  1  0
  8  6  1  0
  9 10  1  6
 10 11  1  0
 11 15  1  0
 12 11  2  0
 13  9  1  0
 14 13  2  0
 16 13  1  0
 17 21  1  0
 17 16  1  0
 17 18  1  1
 19 18  1  0
 20 19  2  0
 21 24  1  0
 22 21  2  0
 23 19  1  0
M  END
$$$$
