TDD.pdb
     RDKit          3D

 24 23  0  0  1  0  0  0  0  0999 V2000
   21.2051  -10.8080  -16.7840 C   0  0  0  0  0  0  0  0  0  0  0  0
   22.3438  -11.3082  -15.9529 C   0  0  1  0  0  0  0  0  0  0  0  0
   22.9906  -12.3239  -16.6723 O   0  0  0  0  0  0  0  0  0  0  0  0
   23.3413  -10.2003  -15.7095 C   0  0  2  0  0  0  0  0  0  0  0  0
   24.4750  -10.7152  -15.0059 N   0  0  0  0  0  0  0  0  0  0  0  0
   22.7366   -9.0937  -14.9230 C   0  0  0  0  0  0  0  0  0  0  0  0
   22.2068   -9.2840  -13.7833 O   0  0  0  0  0  0  0  0  0  0  0  0
   22.7326   -7.7866  -15.4240 N   0  0  0  0  0  0  0  0  0  0  0  0
   22.1432   -6.6321  -14.8260 C   0  0  1  0  0  0  0  0  0  0  0  0
   23.0830   -5.4393  -15.0319 C   0  0  0  0  0  0  0  0  0  0  0  0
   22.5862   -4.2318  -14.3520 C   0  0  0  0  0  0  0  0  0  0  0  0
   22.1525   -4.3062  -13.1851 O   0  0  0  0  0  0  0  0  0  0  0  0
   20.8837   -6.3097  -15.5416 C   0  0  0  0  0  0  0  0  0  0  0  0
   20.9056   -6.2736  -16.8005 O   0  0  0  0  0  0  0  0  0  0  0  0
   22.6079   -3.0203  -15.0260 O   0  0  0  0  0  0  0  0  0  0  0  0
   19.6926   -6.0496  -14.8383 N   0  0  0  0  0  0  0  0  0  0  0  0
   18.4776   -5.7370  -15.5424 C   0  0  1  0  0  0  0  0  0  0  0  0
   17.3387   -6.4941  -14.9139 C   0  0  0  0  0  0  0  0  0  0  0  0
   16.0329   -6.2445  -15.5245 C   0  0  0  0  0  0  0  0  0  0  0  0
   16.0313   -5.5686  -16.6032 O   0  0  0  0  0  0  0  0  0  0  0  0
   18.2556   -4.2623  -15.4840 C   0  0  0  0  0  0  0  0  0  0  0  0
   17.2402   -3.7401  -16.0109 O   0  0  0  0  0  0  0  0  0  0  0  0
   14.8059   -6.6618  -15.0585 O   0  0  0  0  0  0  0  0  0  0  0  0
   19.1488   -3.4099  -14.8532 O   0  0  0  0  0  0  0  0  0  0  0  0
  2  1  1  6
  3  2  1  0
  4  2  1  0
  4  6  1  0
  4  5  1  1
  6  7  2  0
  8  9  1  0
  8  6  1  0
  9 10  1  6
 10 11  1  0
 11 15  1  0
 12 11  2  0
 13  9  1  0
 14 13  2  0
 16 13  1  0
 17 21  1  0
 17 16  1  0
 17 18  1  1
 19 18  1  0
 20 19  2  0
 21 24  1  0
 22 21  2  0
 23 19  1  0
M  END
$$$$
