TDD.pdb
     RDKit          3D

 24 23  0  0  1  0  0  0  0  0999 V2000
   17.0071  -13.6372  -15.8377 C   0  0  0  0  0  0  0  0  0  0  0  0
   16.9584  -12.1779  -16.1629 C   0  0  1  0  0  0  0  0  0  0  0  0
   15.6500  -11.7274  -15.9332 O   0  0  0  0  0  0  0  0  0  0  0  0
   17.8847  -11.4068  -15.2524 C   0  0  2  0  0  0  0  0  0  0  0  0
   17.4763  -11.5740  -13.8920 N   0  0  0  0  0  0  0  0  0  0  0  0
   17.8896   -9.9593  -15.5891 C   0  0  0  0  0  0  0  0  0  0  0  0
   18.5769   -9.4900  -16.5498 O   0  0  0  0  0  0  0  0  0  0  0  0
   17.1238   -9.0548  -14.8440 N   0  0  0  0  0  0  0  0  0  0  0  0
   17.0578   -7.6379  -15.0055 C   0  0  1  0  0  0  0  0  0  0  0  0
   15.7531   -7.1333  -14.3798 C   0  0  0  0  0  0  0  0  0  0  0  0
   15.5681   -5.6893  -14.5981 C   0  0  0  0  0  0  0  0  0  0  0  0
   16.5368   -4.9120  -14.4866 O   0  0  0  0  0  0  0  0  0  0  0  0
   18.1657   -7.0144  -14.2400 C   0  0  0  0  0  0  0  0  0  0  0  0
   18.7023   -7.6823  -13.3166 O   0  0  0  0  0  0  0  0  0  0  0  0
   14.3083   -5.2121  -14.9265 O   0  0  0  0  0  0  0  0  0  0  0  0
   18.6098   -5.7113  -14.5324 N   0  0  0  0  0  0  0  0  0  0  0  0
   19.7952   -5.1830  -13.9114 C   0  0  1  0  0  0  0  0  0  0  0  0
   20.9710   -6.0430  -14.2898 C   0  0  0  0  0  0  0  0  0  0  0  0
   22.2697   -5.5142  -13.8726 C   0  0  0  0  0  0  0  0  0  0  0  0
   22.6636   -5.8341  -12.7051 O   0  0  0  0  0  0  0  0  0  0  0  0
   19.9813   -3.7709  -14.3573 C   0  0  0  0  0  0  0  0  0  0  0  0
   20.3868   -2.8887  -13.5582 O   0  0  0  0  0  0  0  0  0  0  0  0
   23.1118   -4.7085  -14.6063 O   0  0  0  0  0  0  0  0  0  0  0  0
   19.7185   -3.3714  -15.6588 O   0  0  0  0  0  0  0  0  0  0  0  0
  2  1  1  1
  3  2  1  0
  4  2  1  0
  4  6  1  0
  4  5  1  1
  6  7  2  0
  8  9  1  0
  8  6  1  0
  9 10  1  1
 10 11  1  0
 11 15  1  0
 12 11  2  0
 13  9  1  0
 14 13  2  0
 16 13  1  0
 17 21  1  0
 17 16  1  0
 17 18  1  6
 19 18  1  0
 20 19  2  0
 21 24  1  0
 22 21  2  0
 23 19  1  0
M  END
$$$$
