TDD.pdb
     RDKit          3D

 24 23  0  0  1  0  0  0  0  0999 V2000
   19.8282  -11.1793  -14.8565 C   0  0  0  0  0  0  0  0  0  0  0  0
   18.9952  -11.7953  -15.9355 C   0  0  1  0  0  0  0  0  0  0  0  0
   18.9954  -13.1845  -15.7417 O   0  0  0  0  0  0  0  0  0  0  0  0
   17.5681  -11.3101  -15.8374 C   0  0  2  0  0  0  0  0  0  0  0  0
   16.7376  -12.0662  -16.7230 N   0  0  0  0  0  0  0  0  0  0  0  0
   17.4645   -9.8675  -16.1792 C   0  0  0  0  0  0  0  0  0  0  0  0
   17.6540   -9.4361  -17.3597 O   0  0  0  0  0  0  0  0  0  0  0  0
   17.1500   -8.9253  -15.1928 N   0  0  0  0  0  0  0  0  0  0  0  0
   17.0475   -7.5100  -15.3489 C   0  0  1  0  0  0  0  0  0  0  0  0
   15.7955   -7.0246  -14.6103 C   0  0  0  0  0  0  0  0  0  0  0  0
   14.5625   -7.4903  -15.2660 C   0  0  0  0  0  0  0  0  0  0  0  0
   13.7251   -8.1530  -14.6220 O   0  0  0  0  0  0  0  0  0  0  0  0
   18.2088   -6.8675  -14.6851 C   0  0  0  0  0  0  0  0  0  0  0  0
   18.4984   -7.2251  -13.5125 O   0  0  0  0  0  0  0  0  0  0  0  0
   14.3502   -7.1824  -16.6011 O   0  0  0  0  0  0  0  0  0  0  0  0
   18.9707   -5.8835  -15.3425 N   0  0  0  0  0  0  0  0  0  0  0  0
   20.1449   -5.3287  -14.7231 C   0  0  1  0  0  0  0  0  0  0  0  0
   21.3651   -5.9845  -15.3115 C   0  0  0  0  0  0  0  0  0  0  0  0
   22.6360   -5.4085  -14.8719 C   0  0  0  0  0  0  0  0  0  0  0  0
   22.7999   -5.2892  -13.6151 O   0  0  0  0  0  0  0  0  0  0  0  0
   20.1527   -3.8530  -14.9463 C   0  0  0  0  0  0  0  0  0  0  0  0
   19.4889   -3.3371  -15.8815 O   0  0  0  0  0  0  0  0  0  0  0  0
   23.6738   -4.9818  -15.6705 O   0  0  0  0  0  0  0  0  0  0  0  0
   20.8842   -2.9928  -14.1418 O   0  0  0  0  0  0  0  0  0  0  0  0
  2  1  1  1
  3  2  1  0
  4  2  1  0
  4  6  1  0
  4  5  1  6
  6  7  2  0
  8  9  1  0
  8  6  1  0
  9 10  1  1
 10 11  1  0
 11 15  1  0
 12 11  2  0
 13  9  1  0
 14 13  2  0
 16 13  1  0
 17 21  1  0
 17 16  1  0
 17 18  1  6
 19 18  1  0
 20 19  2  0
 21 24  1  0
 22 21  2  0
 23 19  1  0
M  END
$$$$
