TDD.pdb
     RDKit          3D

 24 23  0  0  1  0  0  0  0  0999 V2000
   15.9765   -6.0388  -17.0202 C   0  0  0  0  0  0  0  0  0  0  0  0
   16.0218   -7.3560  -16.3127 C   0  0  1  0  0  0  0  0  0  0  0  0
   15.3933   -8.3073  -17.1298 O   0  0  0  0  0  0  0  0  0  0  0  0
   17.4534   -7.7908  -16.1055 C   0  0  2  0  0  0  0  0  0  0  0  0
   17.4835   -9.0966  -15.5227 N   0  0  0  0  0  0  0  0  0  0  0  0
   18.1824   -6.8427  -15.2234 C   0  0  0  0  0  0  0  0  0  0  0  0
   17.9055   -6.7168  -13.9893 O   0  0  0  0  0  0  0  0  0  0  0  0
   19.2134   -6.0462  -15.7358 N   0  0  0  0  0  0  0  0  0  0  0  0
   19.9950   -5.0824  -15.0300 C   0  0  1  0  0  0  0  0  0  0  0  0
   21.4761   -5.3387  -15.3286 C   0  0  0  0  0  0  0  0  0  0  0  0
   21.9975   -6.4778  -14.5554 C   0  0  0  0  0  0  0  0  0  0  0  0
   22.3195   -7.5324  -15.1379 O   0  0  0  0  0  0  0  0  0  0  0  0
   19.6825   -3.7308  -15.5570 C   0  0  0  0  0  0  0  0  0  0  0  0
   19.7480   -3.5461  -16.8013 O   0  0  0  0  0  0  0  0  0  0  0  0
   22.1229   -6.3591  -13.1797 O   0  0  0  0  0  0  0  0  0  0  0  0
   19.3223   -2.6783  -14.6948 N   0  0  0  0  0  0  0  0  0  0  0  0
   18.9784   -1.3839  -15.2201 C   0  0  1  0  0  0  0  0  0  0  0  0
   17.8190   -0.8296  -14.4365 C   0  0  0  0  0  0  0  0  0  0  0  0
   17.4422    0.5379  -14.7945 C   0  0  0  0  0  0  0  0  0  0  0  0
   17.6559    1.4335  -13.9154 O   0  0  0  0  0  0  0  0  0  0  0  0
   20.1756   -0.4970  -15.1314 C   0  0  0  0  0  0  0  0  0  0  0  0
   20.1338    0.6889  -15.5475 O   0  0  0  0  0  0  0  0  0  0  0  0
   16.8817    0.9607  -15.9793 O   0  0  0  0  0  0  0  0  0  0  0  0
   21.3754   -0.9353  -14.5922 O   0  0  0  0  0  0  0  0  0  0  0  0
  2  1  1  6
  3  2  1  0
  4  2  1  0
  4  6  1  0
  4  5  1  1
  6  7  2  0
  8  9  1  0
  8  6  1  0
  9 10  1  6
 10 11  1  0
 11 15  1  0
 12 11  2  0
 13  9  1  0
 14 13  2  0
 16 13  1  0
 17 21  1  0
 17 16  1  0
 17 18  1  1
 19 18  1  0
 20 19  2  0
 21 24  1  0
 22 21  2  0
 23 19  1  0
M  END
$$$$
