TDD.pdb
     RDKit          3D

 24 23  0  0  1  0  0  0  0  0999 V2000
   23.9447  -13.6306  -14.9895 C   0  0  0  0  0  0  0  0  0  0  0  0
   23.2310  -12.3314  -15.1904 C   0  0  1  0  0  0  0  0  0  0  0  0
   24.0515  -11.3067  -14.6962 O   0  0  0  0  0  0  0  0  0  0  0  0
   23.0047  -12.0798  -16.6625 C   0  0  2  0  0  0  0  0  0  0  0  0
   24.2605  -12.0417  -17.3460 N   0  0  0  0  0  0  0  0  0  0  0  0
   22.2852  -10.7988  -16.8860 C   0  0  0  0  0  0  0  0  0  0  0  0
   22.8318   -9.8071  -17.4633 O   0  0  0  0  0  0  0  0  0  0  0  0
   20.9609  -10.6447  -16.4589 N   0  0  0  0  0  0  0  0  0  0  0  0
   20.1119   -9.5151  -16.6615 C   0  0  1  0  0  0  0  0  0  0  0  0
   18.6560   -9.9566  -16.4774 C   0  0  0  0  0  0  0  0  0  0  0  0
   17.7181   -8.8438  -16.6990 C   0  0  0  0  0  0  0  0  0  0  0  0
   16.6964   -8.7384  -15.9917 O   0  0  0  0  0  0  0  0  0  0  0  0
   20.3884   -8.5102  -15.6051 C   0  0  0  0  0  0  0  0  0  0  0  0
   20.6936   -8.9227  -14.4547 O   0  0  0  0  0  0  0  0  0  0  0  0
   17.9876   -7.9228  -17.6998 O   0  0  0  0  0  0  0  0  0  0  0  0
   20.3129   -7.1308  -15.8746 N   0  0  0  0  0  0  0  0  0  0  0  0
   20.5866   -6.1653  -14.8436 C   0  0  1  0  0  0  0  0  0  0  0  0
   21.9618   -5.5935  -15.0609 C   0  0  0  0  0  0  0  0  0  0  0  0
   22.3174   -4.5041  -14.1513 C   0  0  0  0  0  0  0  0  0  0  0  0
   22.3048   -3.3293  -14.6414 O   0  0  0  0  0  0  0  0  0  0  0  0
   19.5372   -5.1050  -14.8890 C   0  0  0  0  0  0  0  0  0  0  0  0
   19.1927   -4.4914  -13.8469 O   0  0  0  0  0  0  0  0  0  0  0  0
   22.6638   -4.6124  -12.8228 O   0  0  0  0  0  0  0  0  0  0  0  0
   18.9011   -4.7519  -16.0693 O   0  0  0  0  0  0  0  0  0  0  0  0
  2  1  1  6
  3  2  1  0
  4  2  1  0
  4  6  1  0
  4  5  1  6
  6  7  2  0
  8  9  1  0
  8  6  1  0
  9 10  1  1
 10 11  1  0
 11 15  1  0
 12 11  2  0
 13  9  1  0
 14 13  2  0
 16 13  1  0
 17 21  1  0
 17 16  1  0
 17 18  1  6
 19 18  1  0
 20 19  2  0
 21 24  1  0
 22 21  2  0
 23 19  1  0
M  END
$$$$
