MLV.pdb
     RDKit          3D

 24 23  0  0  1  0  0  0  0  0999 V2000
   21.6968  -22.2225  -19.7315 C   0  0  0  0  0  0  0  0  0  0  0  0
   23.3368  -22.9903  -19.6235 S   0  0  0  0  0  0  0  0  0  0  0  0
   24.1991  -22.4447  -18.1308 C   0  0  0  0  0  0  0  0  0  0  0  0
   23.3413  -22.7798  -16.9411 C   0  0  0  0  0  0  0  0  0  0  0  0
   23.9561  -22.0802  -15.7244 C   0  0  2  0  0  0  0  0  0  0  0  0
   25.2371  -22.6661  -15.4715 N   0  0  0  0  0  0  0  0  0  0  0  0
   23.0205  -22.2447  -14.5771 C   0  0  0  0  0  0  0  0  0  0  0  0
   23.3255  -23.0944  -13.7051 O   0  0  0  0  0  0  0  0  0  0  0  0
   21.3979  -19.5697  -10.9996 C   0  0  0  0  0  0  0  0  0  0  0  0
   20.8612  -19.2457  -12.3518 C   0  0  2  0  0  0  0  0  0  0  0  0
   19.8419  -18.1078  -12.1602 C   0  0  0  0  0  0  0  0  0  0  0  0
   20.1341  -20.3263  -13.0580 C   0  0  0  0  0  0  0  0  0  0  0  0
   20.8511  -21.5449  -13.4544 C   0  0  2  0  0  0  0  0  0  0  0  0
   21.8365  -21.4695  -14.4817 N   0  0  0  0  0  0  0  0  0  0  0  0
   19.9101  -22.6959  -13.5735 C   0  0  0  0  0  0  0  0  0  0  0  0
   19.2449  -22.8496  -14.6564 O   0  0  0  0  0  0  0  0  0  0  0  0
   20.5284  -26.3959  -12.8811 C   0  0  0  0  0  0  0  0  0  0  0  0
   19.2082  -26.0626  -12.1750 C   0  0  1  0  0  0  0  0  0  0  0  0
   19.4963  -25.9062  -10.7087 C   0  0  0  0  0  0  0  0  0  0  0  0
   18.7270  -24.7831  -12.8219 C   0  0  2  0  0  0  0  0  0  0  0  0
   19.6592  -23.6672  -12.5782 N   0  0  0  0  0  0  0  0  0  0  0  0
   17.4413  -24.4266  -12.1900 C   0  0  0  0  0  0  0  0  0  0  0  0
   17.3793  -23.4154  -11.4557 O   0  0  0  0  0  0  0  0  0  0  0  0
   16.2855  -25.1606  -12.3687 O   0  0  0  0  0  0  0  0  0  0  0  0
  2  3  1  0
  2  1  1  0
  4  5  1  0
  4  3  1  0
  5  6  1  1
  7  8  2  0
  7  5  1  0
 10  9  1  1
 10 12  1  0
 10 11  1  0
 13 12  1  6
 13 14  1  0
 14  7  1  0
 15 16  2  0
 15 13  1  0
 18 17  1  6
 18 20  1  0
 19 18  1  0
 20 22  1  0
 20 21  1  1
 21 15  1  0
 22 24  1  0
 23 22  2  0
M  END
$$$$
