MLV.pdb
     RDKit          3D

 24 23  0  0  1  0  0  0  0  0999 V2000
   18.8841  -25.4571  -14.3948 C   0  0  0  0  0  0  0  0  0  0  0  0
   17.5540  -24.2595  -14.0990 S   0  0  0  0  0  0  0  0  0  0  0  0
   18.2371  -22.6319  -13.7072 C   0  0  0  0  0  0  0  0  0  0  0  0
   19.7346  -22.7063  -13.8313 C   0  0  0  0  0  0  0  0  0  0  0  0
   20.3284  -22.0909  -12.5599 C   0  0  2  0  0  0  0  0  0  0  0  0
   19.3176  -21.2937  -11.9345 N   0  0  0  0  0  0  0  0  0  0  0  0
   21.5221  -21.2899  -12.9501 C   0  0  0  0  0  0  0  0  0  0  0  0
   21.3169  -20.1371  -13.4023 O   0  0  0  0  0  0  0  0  0  0  0  0
   24.9865  -19.9634  -10.3470 C   0  0  0  0  0  0  0  0  0  0  0  0
   25.2276  -21.3243  -10.9049 C   0  0  2  0  0  0  0  0  0  0  0  0
   26.6198  -21.7615  -10.4137 C   0  0  0  0  0  0  0  0  0  0  0  0
   25.2629  -21.4438  -12.3812 C   0  0  0  0  0  0  0  0  0  0  0  0
   24.0511  -21.1630  -13.1615 C   0  0  2  0  0  0  0  0  0  0  0  0
   22.8324  -21.8153  -12.8132 N   0  0  0  0  0  0  0  0  0  0  0  0
   24.3556  -21.1444  -14.6213 C   0  0  0  0  0  0  0  0  0  0  0  0
   24.7871  -22.2106  -15.1832 O   0  0  0  0  0  0  0  0  0  0  0  0
   22.1014  -19.7793  -17.4364 C   0  0  0  0  0  0  0  0  0  0  0  0
   23.5149  -19.2543  -17.7180 C   0  0  1  0  0  0  0  0  0  0  0  0
   23.5744  -17.8237  -17.2630 C   0  0  0  0  0  0  0  0  0  0  0  0
   24.4362  -20.1620  -16.9343 C   0  0  2  0  0  0  0  0  0  0  0  0
   24.2209  -20.0313  -15.4816 N   0  0  0  0  0  0  0  0  0  0  0  0
   25.8205  -19.7313  -17.2130 C   0  0  0  0  0  0  0  0  0  0  0  0
   26.3338  -19.9992  -18.3222 O   0  0  0  0  0  0  0  0  0  0  0  0
   26.5912  -19.0379  -16.3010 O   0  0  0  0  0  0  0  0  0  0  0  0
  2  3  1  0
  2  1  1  0
  4  5  1  0
  4  3  1  0
  5  6  1  6
  7  8  2  0
  7  5  1  0
 10  9  1  6
 10 12  1  0
 10 11  1  0
 13 12  1  1
 13 14  1  0
 14  7  1  0
 15 16  2  0
 15 13  1  0
 18 17  1  1
 18 20  1  0
 19 18  1  0
 20 22  1  0
 20 21  1  1
 21 15  1  0
 22 24  1  0
 23 22  2  0
M  END
$$$$
