AVR.pdb
     RDKit          3D

 24 23  0  0  1  0  0  0  0  0999 V2000
   27.6134  -12.3508  -15.3633 C   0  0  0  0  0  0  0  0  0  0  0  0
   26.9299  -13.2052  -16.4108 C   0  0  2  0  0  0  0  0  0  0  0  0
   27.9553  -13.6542  -17.3346 N   0  0  0  0  0  0  0  0  0  0  0  0
   25.8244  -12.5166  -17.0895 C   0  0  0  0  0  0  0  0  0  0  0  0
   26.0680  -11.8925  -18.1540 O   0  0  0  0  0  0  0  0  0  0  0  0
   22.7801  -13.6099  -18.9218 C   0  0  0  0  0  0  0  0  0  0  0  0
   22.3911  -12.7498  -17.7585 C   0  0  2  0  0  0  0  0  0  0  0  0
   21.1009  -12.0488  -18.1281 C   0  0  0  0  0  0  0  0  0  0  0  0
   23.4494  -11.7663  -17.3125 C   0  0  2  0  0  0  0  0  0  0  0  0
   24.5124  -12.5242  -16.6043 N   0  0  0  0  0  0  0  0  0  0  0  0
   22.9315  -10.7373  -16.3753 C   0  0  0  0  0  0  0  0  0  0  0  0
   22.5378  -11.0723  -15.2000 O   0  0  0  0  0  0  0  0  0  0  0  0
   22.3035   -1.6855  -15.9638 N   0  0  0  0  0  0  0  0  0  0  0  0
   21.9305   -2.2444  -14.7070 C   0  0  0  0  0  0  0  0  0  0  0  0
   21.5619   -1.4808  -13.7424 N   0  0  0  0  0  0  0  0  0  0  0  0
   21.9586   -3.6667  -14.4937 N   0  0  0  0  0  0  0  0  0  0  0  0
   22.3895   -4.5699  -15.5443 C   0  0  0  0  0  0  0  0  0  0  0  0
   22.0807   -5.9918  -15.0455 C   0  0  0  0  0  0  0  0  0  0  0  0
   22.5682   -7.0083  -16.0376 C   0  0  0  0  0  0  0  0  0  0  0  0
   22.2646   -8.4109  -15.6540 C   0  0  2  0  0  0  0  0  0  0  0  0
   22.8189   -9.3562  -16.6433 N   0  0  0  0  0  0  0  0  0  0  0  0
   20.8156   -8.6407  -15.6102 C   0  0  0  0  0  0  0  0  0  0  0  0
   20.1261   -8.5516  -14.4185 O   0  0  0  0  0  0  0  0  0  0  0  0
   20.1719   -8.9256  -16.6527 O   0  0  0  0  0  0  0  0  0  0  0  0
  2  1  1  1
  2  3  1  0
  4  2  1  0
  5  4  2  0
  7  6  1  6
  7  9  1  0
  7  8  1  0
  9 10  1  1
 10  4  1  0
 11 21  1  0
 11  9  1  0
 12 11  2  0
 14 13  1  0
 14 15  2  0
 16 14  1  0
 17 16  1  0
 18 17  1  0
 20 19  1  6
 19 18  1  0
 20 22  1  0
 20 21  1  0
 22 23  1  0
 24 22  2  0
M  END
$$$$
