AVR.pdb
     RDKit          3D

 24 23  0  0  1  0  0  0  0  0999 V2000
   23.0385  -20.0322  -17.8909 C   0  0  0  0  0  0  0  0  0  0  0  0
   24.3061  -19.6716  -17.1443 C   0  0  2  0  0  0  0  0  0  0  0  0
   24.6730  -20.8228  -16.3402 N   0  0  0  0  0  0  0  0  0  0  0  0
   24.1799  -18.4455  -16.3458 C   0  0  0  0  0  0  0  0  0  0  0  0
   23.5552  -18.4998  -15.2554 O   0  0  0  0  0  0  0  0  0  0  0  0
   26.9169  -15.9318  -15.0280 C   0  0  0  0  0  0  0  0  0  0  0  0
   25.8535  -15.2692  -15.8492 C   0  0  2  0  0  0  0  0  0  0  0  0
   25.6793  -13.8643  -15.3120 C   0  0  0  0  0  0  0  0  0  0  0  0
   24.5367  -16.0104  -15.9029 C   0  0  2  0  0  0  0  0  0  0  0  0
   24.7236  -17.2199  -16.7444 N   0  0  0  0  0  0  0  0  0  0  0  0
   23.4407  -15.2096  -16.5051 C   0  0  0  0  0  0  0  0  0  0  0  0
   23.4909  -14.8720  -17.7429 O   0  0  0  0  0  0  0  0  0  0  0  0
   14.9699  -12.8049  -14.3666 N   0  0  0  0  0  0  0  0  0  0  0  0
   15.3412  -12.1555  -15.5796 C   0  0  0  0  0  0  0  0  0  0  0  0
   14.5303  -11.3409  -16.1526 N   0  0  0  0  0  0  0  0  0  0  0  0
   16.6240  -12.3971  -16.1839 N   0  0  0  0  0  0  0  0  0  0  0  0
   17.5929  -13.2731  -15.5519 C   0  0  0  0  0  0  0  0  0  0  0  0
   18.8774  -13.1746  -16.3924 C   0  0  0  0  0  0  0  0  0  0  0  0
   19.9599  -14.0230  -15.7893 C   0  0  0  0  0  0  0  0  0  0  0  0
   21.2522  -13.9495  -16.5179 C   0  0  2  0  0  0  0  0  0  0  0  0
   22.2848  -14.7541  -15.8354 N   0  0  0  0  0  0  0  0  0  0  0  0
   21.7496  -12.5694  -16.5655 C   0  0  0  0  0  0  0  0  0  0  0  0
   21.4792  -11.7625  -17.6514 O   0  0  0  0  0  0  0  0  0  0  0  0
   22.4333  -12.0932  -15.6231 O   0  0  0  0  0  0  0  0  0  0  0  0
  2  1  1  1
  2  3  1  0
  4  2  1  0
  5  4  2  0
  7  6  1  1
  7  9  1  0
  7  8  1  0
  9 10  1  6
 10  4  1  0
 11 21  1  0
 11  9  1  0
 12 11  2  0
 14 13  1  0
 14 15  2  0
 16 14  1  0
 17 16  1  0
 18 17  1  0
 20 19  1  1
 19 18  1  0
 20 22  1  0
 20 21  1  0
 22 23  1  0
 24 22  2  0
M  END
$$$$
