AVR.pdb
     RDKit          3D

 24 23  0  0  1  0  0  0  0  0999 V2000
   25.3969  -14.2073  -14.0864 C   0  0  0  0  0  0  0  0  0  0  0  0
   25.9708  -14.4258  -15.4710 C   0  0  2  0  0  0  0  0  0  0  0  0
   26.1933  -13.1160  -16.0552 N   0  0  0  0  0  0  0  0  0  0  0  0
   25.1317  -15.2836  -16.3177 C   0  0  0  0  0  0  0  0  0  0  0  0
   24.2451  -14.7443  -17.0283 O   0  0  0  0  0  0  0  0  0  0  0  0
   25.8846  -17.4545  -19.2450 C   0  0  0  0  0  0  0  0  0  0  0  0
   25.2107  -18.2760  -18.1889 C   0  0  2  0  0  0  0  0  0  0  0  0
   24.3986  -19.3404  -18.8961 C   0  0  0  0  0  0  0  0  0  0  0  0
   24.3648  -17.4887  -17.2137 C   0  0  2  0  0  0  0  0  0  0  0  0
   25.2750  -16.6742  -16.3687 N   0  0  0  0  0  0  0  0  0  0  0  0
   23.5634  -18.3510  -16.3084 C   0  0  0  0  0  0  0  0  0  0  0  0
   24.1459  -19.1925  -15.5331 O   0  0  0  0  0  0  0  0  0  0  0  0
   17.6854  -20.6121  -11.3708 N   0  0  0  0  0  0  0  0  0  0  0  0
   17.7701  -19.1897  -11.3924 C   0  0  0  0  0  0  0  0  0  0  0  0
   17.7275  -18.5215  -10.2964 N   0  0  0  0  0  0  0  0  0  0  0  0
   17.9045  -18.4767  -12.6345 N   0  0  0  0  0  0  0  0  0  0  0  0
   17.8711  -19.1781  -13.9043 C   0  0  0  0  0  0  0  0  0  0  0  0
   19.2878  -19.7339  -14.1283 C   0  0  0  0  0  0  0  0  0  0  0  0
   20.0682  -18.8207  -15.0296 C   0  0  0  0  0  0  0  0  0  0  0  0
   21.4413  -19.3038  -15.3255 C   0  0  2  0  0  0  0  0  0  0  0  0
   22.1566  -18.3489  -16.1949 N   0  0  0  0  0  0  0  0  0  0  0  0
   21.4037  -20.5853  -16.0403 C   0  0  0  0  0  0  0  0  0  0  0  0
   21.5953  -21.7725  -15.3641 O   0  0  0  0  0  0  0  0  0  0  0  0
   21.1996  -20.6307  -17.2807 O   0  0  0  0  0  0  0  0  0  0  0  0
  2  1  1  1
  2  3  1  0
  4  2  1  0
  5  4  2  0
  7  6  1  6
  7  9  1  0
  7  8  1  0
  9 10  1  1
 10  4  1  0
 11 21  1  0
 11  9  1  0
 12 11  2  0
 14 13  1  0
 14 15  2  0
 16 14  1  0
 17 16  1  0
 18 17  1  0
 20 19  1  6
 19 18  1  0
 20 22  1  0
 20 21  1  0
 22 23  1  0
 24 22  2  0
M  END
$$$$
