AVR.pdb
     RDKit          3D

 24 23  0  0  1  0  0  0  0  0999 V2000
   19.3748  -13.1558  -18.9303 C   0  0  0  0  0  0  0  0  0  0  0  0
   20.6489  -13.4752  -18.1759 C   0  0  2  0  0  0  0  0  0  0  0  0
   20.7146  -14.9182  -18.0357 N   0  0  0  0  0  0  0  0  0  0  0  0
   20.7488  -12.7801  -16.8861 C   0  0  0  0  0  0  0  0  0  0  0  0
   20.3641  -13.3788  -15.8490 O   0  0  0  0  0  0  0  0  0  0  0  0
   23.8877  -11.0104  -15.3184 C   0  0  0  0  0  0  0  0  0  0  0  0
   22.6824  -10.1213  -15.3492 C   0  0  2  0  0  0  0  0  0  0  0  0
   22.7570   -9.2192  -14.1355 C   0  0  0  0  0  0  0  0  0  0  0  0
   21.3580  -10.8473  -15.4209 C   0  0  2  0  0  0  0  0  0  0  0  0
   21.2529  -11.4813  -16.7599 N   0  0  0  0  0  0  0  0  0  0  0  0
   20.1892   -9.9458  -15.2582 C   0  0  0  0  0  0  0  0  0  0  0  0
   19.9511   -9.0318  -16.1279 O   0  0  0  0  0  0  0  0  0  0  0  0
   12.3230  -10.0029  -10.8046 N   0  0  0  0  0  0  0  0  0  0  0  0
   12.4808   -8.7335  -11.4330 C   0  0  0  0  0  0  0  0  0  0  0  0
   11.5542   -7.8484  -11.3465 N   0  0  0  0  0  0  0  0  0  0  0  0
   13.6736   -8.4188  -12.1727 N   0  0  0  0  0  0  0  0  0  0  0  0
   14.7444   -9.3886  -12.3085 C   0  0  0  0  0  0  0  0  0  0  0  0
   15.8315   -8.7151  -13.1632 C   0  0  0  0  0  0  0  0  0  0  0  0
   17.0050   -9.6368  -13.3329 C   0  0  0  0  0  0  0  0  0  0  0  0
   18.1125   -9.0530  -14.1323 C   0  0  2  0  0  0  0  0  0  0  0  0
   19.2571   -9.9830  -14.1990 N   0  0  0  0  0  0  0  0  0  0  0  0
   18.6052   -7.8138  -13.5192 C   0  0  0  0  0  0  0  0  0  0  0  0
   18.1071   -6.5890  -13.9131 O   0  0  0  0  0  0  0  0  0  0  0  0
   19.4910   -7.8391  -12.6264 O   0  0  0  0  0  0  0  0  0  0  0  0
  2  1  1  1
  2  3  1  0
  4  2  1  0
  5  4  2  0
  7  6  1  1
  7  9  1  0
  7  8  1  0
  9 10  1  6
 10  4  1  0
 11 21  1  0
 11  9  1  0
 12 11  2  0
 14 13  1  0
 14 15  2  0
 16 14  1  0
 17 16  1  0
 18 17  1  0
 20 19  1  1
 19 18  1  0
 20 22  1  0
 20 21  1  0
 22 23  1  0
 24 22  2  0
M  END
$$$$
