AVR.pdb
     RDKit          3D

 24 23  0  0  1  0  0  0  0  0999 V2000
   28.3672  -24.9333  -17.4378 C   0  0  0  0  0  0  0  0  0  0  0  0
   29.2937  -23.7606  -17.6841 C   0  0  2  0  0  0  0  0  0  0  0  0
   30.6515  -24.2411  -17.5053 N   0  0  0  0  0  0  0  0  0  0  0  0
   28.9935  -22.5971  -16.8397 C   0  0  0  0  0  0  0  0  0  0  0  0
   29.6430  -22.4444  -15.7735 O   0  0  0  0  0  0  0  0  0  0  0  0
   27.4708  -17.9574  -16.4595 C   0  0  0  0  0  0  0  0  0  0  0  0
   27.7660  -19.2386  -17.1776 C   0  0  2  0  0  0  0  0  0  0  0  0
   26.7471  -19.3774  -18.2889 C   0  0  0  0  0  0  0  0  0  0  0  0
   27.7990  -20.4680  -16.2978 C   0  0  2  0  0  0  0  0  0  0  0  0
   28.0169  -21.6512  -17.1688 N   0  0  0  0  0  0  0  0  0  0  0  0
   26.5331  -20.6861  -15.5527 C   0  0  0  0  0  0  0  0  0  0  0  0
   25.5096  -21.1830  -16.1477 O   0  0  0  0  0  0  0  0  0  0  0  0
   21.3679  -19.3602  -10.3302 N   0  0  0  0  0  0  0  0  0  0  0  0
   21.5553  -20.4427   -9.4224 C   0  0  0  0  0  0  0  0  0  0  0  0
   20.5467  -20.9732   -8.8300 N   0  0  0  0  0  0  0  0  0  0  0  0
   22.8697  -20.9609   -9.1521 N   0  0  0  0  0  0  0  0  0  0  0  0
   24.0367  -20.4212   -9.8246 C   0  0  0  0  0  0  0  0  0  0  0  0
   23.8664  -20.7508  -11.3173 C   0  0  0  0  0  0  0  0  0  0  0  0
   25.0844  -20.3257  -12.0860 C   0  0  0  0  0  0  0  0  0  0  0  0
   25.0120  -20.6325  -13.5376 C   0  0  2  0  0  0  0  0  0  0  0  0
   26.3157  -20.3959  -14.1887 N   0  0  0  0  0  0  0  0  0  0  0  0
   24.0366  -19.7651  -14.2089 C   0  0  0  0  0  0  0  0  0  0  0  0
   22.7560  -20.2120  -14.4611 O   0  0  0  0  0  0  0  0  0  0  0  0
   24.3448  -18.6004  -14.5706 O   0  0  0  0  0  0  0  0  0  0  0  0
  2  1  1  1
  2  3  1  0
  4  2  1  0
  5  4  2  0
  7  6  1  1
  7  9  1  0
  7  8  1  0
  9 10  1  6
 10  4  1  0
 11 21  1  0
 11  9  1  0
 12 11  2  0
 14 13  1  0
 14 15  2  0
 16 14  1  0
 17 16  1  0
 18 17  1  0
 20 19  1  1
 19 18  1  0
 20 22  1  0
 20 21  1  0
 22 23  1  0
 24 22  2  0
M  END
$$$$
