AVR.pdb
     RDKit          3D

 24 23  0  0  1  0  0  0  0  0999 V2000
   27.5153  -15.5380  -19.9680 C   0  0  0  0  0  0  0  0  0  0  0  0
   27.4406  -14.4741  -18.8924 C   0  0  2  0  0  0  0  0  0  0  0  0
   28.7740  -13.9210  -18.7422 N   0  0  0  0  0  0  0  0  0  0  0  0
   26.8915  -14.9698  -17.6237 C   0  0  0  0  0  0  0  0  0  0  0  0
   27.6410  -15.6341  -16.8629 O   0  0  0  0  0  0  0  0  0  0  0  0
   23.2010  -13.5441  -16.0329 C   0  0  0  0  0  0  0  0  0  0  0  0
   24.3322  -14.1147  -15.2336 C   0  0  2  0  0  0  0  0  0  0  0  0
   25.2492  -12.9667  -14.8676 C   0  0  0  0  0  0  0  0  0  0  0  0
   25.0885  -15.2350  -15.9113 C   0  0  2  0  0  0  0  0  0  0  0  0
   25.5715  -14.7357  -17.2241 N   0  0  0  0  0  0  0  0  0  0  0  0
   24.2497  -16.4333  -16.1678 C   0  0  0  0  0  0  0  0  0  0  0  0
   23.4425  -16.4562  -17.1660 O   0  0  0  0  0  0  0  0  0  0  0  0
   24.4963  -25.2530  -14.2834 N   0  0  0  0  0  0  0  0  0  0  0  0
   23.3903  -24.9845  -15.1410 C   0  0  0  0  0  0  0  0  0  0  0  0
   22.6836  -25.9498  -15.6081 N   0  0  0  0  0  0  0  0  0  0  0  0
   23.0442  -23.6350  -15.4994 N   0  0  0  0  0  0  0  0  0  0  0  0
   23.8156  -22.5106  -15.0033 C   0  0  0  0  0  0  0  0  0  0  0  0
   23.1286  -21.2441  -15.5416 C   0  0  0  0  0  0  0  0  0  0  0  0
   23.9848  -20.0378  -15.2824 C   0  0  0  0  0  0  0  0  0  0  0  0
   23.3742  -18.7627  -15.7381 C   0  0  2  0  0  0  0  0  0  0  0  0
   24.2401  -17.6164  -15.3982 N   0  0  0  0  0  0  0  0  0  0  0  0
   22.0841  -18.5332  -15.0769 C   0  0  0  0  0  0  0  0  0  0  0  0
   22.0033  -17.7403  -13.9508 O   0  0  0  0  0  0  0  0  0  0  0  0
   21.0272  -19.0538  -15.5178 O   0  0  0  0  0  0  0  0  0  0  0  0
  2  1  1  6
  2  3  1  0
  4  2  1  0
  5  4  2  0
  7  6  1  6
  7  9  1  0
  7  8  1  0
  9 10  1  6
 10  4  1  0
 11 21  1  0
 11  9  1  0
 12 11  2  0
 14 13  1  0
 14 15  2  0
 16 14  1  0
 17 16  1  0
 18 17  1  0
 20 19  1  1
 19 18  1  0
 20 22  1  0
 20 21  1  0
 22 23  1  0
 24 22  2  0
M  END
$$$$
