AVR.pdb
     RDKit          3D

 24 23  0  0  1  0  0  0  0  0999 V2000
   28.1550  -18.9688  -15.6259 C   0  0  0  0  0  0  0  0  0  0  0  0
   28.4039  -20.2531  -14.8622 C   0  0  2  0  0  0  0  0  0  0  0  0
   28.8976  -21.2303  -15.8149 N   0  0  0  0  0  0  0  0  0  0  0  0
   27.2242  -20.7294  -14.1287 C   0  0  0  0  0  0  0  0  0  0  0  0
   26.4723  -21.5726  -14.6817 O   0  0  0  0  0  0  0  0  0  0  0  0
   27.0734  -21.4367  -10.0774 C   0  0  0  0  0  0  0  0  0  0  0  0
   25.9282  -20.6597  -10.6510 C   0  0  2  0  0  0  0  0  0  0  0  0
   24.6905  -21.0334   -9.8628 C   0  0  0  0  0  0  0  0  0  0  0  0
   25.7163  -20.8422  -12.1369 C   0  0  2  0  0  0  0  0  0  0  0  0
   26.8996  -20.2868  -12.8420 N   0  0  0  0  0  0  0  0  0  0  0  0
   24.5159  -20.1318  -12.6465 C   0  0  0  0  0  0  0  0  0  0  0  0
   24.4539  -18.8502  -12.5991 O   0  0  0  0  0  0  0  0  0  0  0  0
   19.0559  -19.4857  -19.4313 N   0  0  0  0  0  0  0  0  0  0  0  0
   19.2388  -18.3114  -18.6449 C   0  0  0  0  0  0  0  0  0  0  0  0
   18.3411  -17.3930  -18.6336 N   0  0  0  0  0  0  0  0  0  0  0  0
   20.4255  -18.1310  -17.8521 N   0  0  0  0  0  0  0  0  0  0  0  0
   21.1860  -19.2721  -17.3778 C   0  0  0  0  0  0  0  0  0  0  0  0
   21.0740  -19.2588  -15.8438 C   0  0  0  0  0  0  0  0  0  0  0  0
   22.2515  -19.9605  -15.2303 C   0  0  0  0  0  0  0  0  0  0  0  0
   22.2498  -19.9433  -13.7450 C   0  0  2  0  0  0  0  0  0  0  0  0
   23.3731  -20.7383  -13.2106 N   0  0  0  0  0  0  0  0  0  0  0  0
   21.0168  -20.5378  -13.2151 C   0  0  0  0  0  0  0  0  0  0  0  0
   21.0274  -21.8024  -12.6637 O   0  0  0  0  0  0  0  0  0  0  0  0
   19.9261  -19.9122  -13.2536 O   0  0  0  0  0  0  0  0  0  0  0  0
  2  1  1  6
  2  3  1  0
  4  2  1  0
  5  4  2  0
  7  6  1  1
  7  9  1  0
  7  8  1  0
  9 10  1  6
 10  4  1  0
 11 21  1  0
 11  9  1  0
 12 11  2  0
 14 13  1  0
 14 15  2  0
 16 14  1  0
 17 16  1  0
 18 17  1  0
 20 19  1  6
 19 18  1  0
 20 22  1  0
 20 21  1  0
 22 23  1  0
 24 22  2  0
M  END
$$$$
