AVR.pdb
     RDKit          3D

 24 23  0  0  1  0  0  0  0  0999 V2000
   26.8695  -18.1545  -17.0685 C   0  0  0  0  0  0  0  0  0  0  0  0
   25.6413  -18.0342  -17.9469 C   0  0  2  0  0  0  0  0  0  0  0  0
   25.8709  -16.9271  -18.8568 N   0  0  0  0  0  0  0  0  0  0  0  0
   24.3952  -17.8856  -17.1840 C   0  0  0  0  0  0  0  0  0  0  0  0
   24.2817  -16.9065  -16.4027 O   0  0  0  0  0  0  0  0  0  0  0  0
   20.6524  -17.7830  -18.3138 C   0  0  0  0  0  0  0  0  0  0  0  0
   20.9041  -18.8454  -17.2881 C   0  0  2  0  0  0  0  0  0  0  0  0
   19.6500  -18.9670  -16.4484 C   0  0  0  0  0  0  0  0  0  0  0  0
   22.1282  -18.6230  -16.4288 C   0  0  2  0  0  0  0  0  0  0  0  0
   23.3289  -18.7850  -17.2879 N   0  0  0  0  0  0  0  0  0  0  0  0
   22.2411  -19.5949  -15.3117 C   0  0  0  0  0  0  0  0  0  0  0  0
   22.2920  -20.8549  -15.5532 O   0  0  0  0  0  0  0  0  0  0  0  0
   27.3532  -20.9778   -9.2064 N   0  0  0  0  0  0  0  0  0  0  0  0
   26.8836  -21.1870  -10.5355 C   0  0  0  0  0  0  0  0  0  0  0  0
   27.7150  -21.4104  -11.4886 N   0  0  0  0  0  0  0  0  0  0  0  0
   25.4772  -21.1527  -10.8359 N   0  0  0  0  0  0  0  0  0  0  0  0
   24.5266  -20.5947   -9.8923 C   0  0  0  0  0  0  0  0  0  0  0  0
   23.1386  -20.7433  -10.5382 C   0  0  0  0  0  0  0  0  0  0  0  0
   22.9667  -19.7361  -11.6388 C   0  0  0  0  0  0  0  0  0  0  0  0
   22.4295  -20.3128  -12.8979 C   0  0  2  0  0  0  0  0  0  0  0  0
   22.3050  -19.2735  -13.9389 N   0  0  0  0  0  0  0  0  0  0  0  0
   21.0877  -20.8698  -12.6890 C   0  0  0  0  0  0  0  0  0  0  0  0
   20.9059  -22.2303  -12.5488 O   0  0  0  0  0  0  0  0  0  0  0  0
   20.0764  -20.1236  -12.6359 O   0  0  0  0  0  0  0  0  0  0  0  0
  2  1  1  1
  2  3  1  0
  4  2  1  0
  5  4  2  0
  7  6  1  6
  7  9  1  0
  7  8  1  0
  9 10  1  6
 10  4  1  0
 11 21  1  0
 11  9  1  0
 12 11  2  0
 14 13  1  0
 14 15  2  0
 16 14  1  0
 17 16  1  0
 18 17  1  0
 20 19  1  1
 19 18  1  0
 20 22  1  0
 20 21  1  0
 22 23  1  0
 24 22  2  0
M  END
$$$$
