GPQ.pdb
     RDKit          3D

 21 21  0  0  1  0  0  0  0  0999 V2000
   26.4341  -18.0212  -16.7075 N   0  0  0  0  0  0  0  0  0  0  0  0
   26.3744  -18.3517  -15.3257 C   0  0  0  0  0  0  0  0  0  0  0  0
   26.0534  -19.7620  -15.0505 C   0  0  0  0  0  0  0  0  0  0  0  0
   25.1469  -20.3069  -15.7002 O   0  0  0  0  0  0  0  0  0  0  0  0
   26.7556  -20.4836  -14.0723 N   0  0  0  0  0  0  0  0  0  0  0  0
   28.1879  -20.2130  -13.7786 C   0  0  0  0  0  0  0  0  0  0  0  0
   28.1152  -20.0799  -12.2677 C   0  0  0  0  0  0  0  0  0  0  0  0
   26.9688  -20.9400  -11.8262 C   0  0  0  0  0  0  0  0  0  0  0  0
   26.4883  -21.5268  -13.1652 C   0  0  1  0  0  0  0  0  0  0  0  0
   25.1465  -22.0035  -12.9526 C   0  0  0  0  0  0  0  0  0  0  0  0
   24.7264  -23.0242  -12.3983 O   0  0  0  0  0  0  0  0  0  0  0  0
   21.2981  -21.2812   -8.7495 N   0  0  0  0  0  0  0  0  0  0  0  0
   21.6471  -20.3723   -9.7737 C   0  0  0  0  0  0  0  0  0  0  0  0
   20.9964  -19.3105   -9.9074 O   0  0  0  0  0  0  0  0  0  0  0  0
   22.8043  -20.7346  -10.6673 C   0  0  0  0  0  0  0  0  0  0  0  0
   22.4323  -20.3151  -12.0457 C   0  0  0  0  0  0  0  0  0  0  0  0
   22.7177  -21.3314  -13.1255 C   0  0  2  0  0  0  0  0  0  0  0  0
   24.1138  -21.1349  -13.4804 N   0  0  0  0  0  0  0  0  0  0  0  0
   21.9089  -20.9824  -14.3177 C   0  0  0  0  0  0  0  0  0  0  0  0
   20.7756  -21.5345  -14.5396 O   0  0  0  0  0  0  0  0  0  0  0  0
   22.2895  -20.0553  -15.2733 O   0  0  0  0  0  0  0  0  0  0  0  0
  1  2  1  0
  2  3  1  0
  3  4  2  0
  5  9  1  0
  5  3  1  0
  6  5  1  0
  7  6  1  0
  7  8  1  0
  8  9  1  0
  9 10  1  1
 10 18  1  0
 10 11  2  0
 12 13  1  0
 13 14  2  0
 15 16  1  0
 15 13  1  0
 17 16  1  1
 17 19  1  0
 18 17  1  0
 19 20  2  0
 19 21  1  0
M  END
$$$$
