GPQ.pdb
     RDKit          3D

 21 21  0  0  1  0  0  0  0  0999 V2000
   28.8521  -18.6598  -16.9795 N   0  0  0  0  0  0  0  0  0  0  0  0
   29.0936  -18.6435  -15.5781 C   0  0  0  0  0  0  0  0  0  0  0  0
   28.2038  -19.5187  -14.7969 C   0  0  0  0  0  0  0  0  0  0  0  0
   26.9895  -19.5202  -15.0545 O   0  0  0  0  0  0  0  0  0  0  0  0
   28.7126  -20.3392  -13.7779 N   0  0  0  0  0  0  0  0  0  0  0  0
   29.9975  -21.0716  -13.9317 C   0  0  0  0  0  0  0  0  0  0  0  0
   30.6775  -20.6635  -12.6368 C   0  0  0  0  0  0  0  0  0  0  0  0
   29.5787  -20.4164  -11.6465 C   0  0  0  0  0  0  0  0  0  0  0  0
   28.3287  -20.7399  -12.4838 C   0  0  1  0  0  0  0  0  0  0  0  0
   27.2105  -20.1272  -11.8152 C   0  0  0  0  0  0  0  0  0  0  0  0
   27.0418  -18.9737  -11.4072 O   0  0  0  0  0  0  0  0  0  0  0  0
   22.0061  -21.3684  -13.6667 N   0  0  0  0  0  0  0  0  0  0  0  0
   21.4455  -21.0044  -12.4216 C   0  0  0  0  0  0  0  0  0  0  0  0
   20.2128  -20.8009  -12.3335 O   0  0  0  0  0  0  0  0  0  0  0  0
   22.3765  -20.8781  -11.2443 C   0  0  0  0  0  0  0  0  0  0  0  0
   23.7460  -21.1775  -11.7437 C   0  0  0  0  0  0  0  0  0  0  0  0
   24.8687  -20.5383  -10.9621 C   0  0  2  0  0  0  0  0  0  0  0  0
   26.0925  -21.0191  -11.5823 N   0  0  0  0  0  0  0  0  0  0  0  0
   24.8373  -21.0744   -9.5805 C   0  0  0  0  0  0  0  0  0  0  0  0
   24.1721  -20.4927   -8.6544 O   0  0  0  0  0  0  0  0  0  0  0  0
   25.5021  -22.2190   -9.1735 O   0  0  0  0  0  0  0  0  0  0  0  0
  1  2  1  0
  2  3  1  0
  3  4  2  0
  5  9  1  0
  5  3  1  0
  6  5  1  0
  7  6  1  0
  7  8  1  0
  8  9  1  0
  9 10  1  1
 10 18  1  0
 10 11  2  0
 12 13  1  0
 13 14  2  0
 15 16  1  0
 15 13  1  0
 17 16  1  6
 17 19  1  0
 18 17  1  0
 19 20  2  0
 19 21  1  0
M  END
$$$$
