GPQ.pdb
     RDKit          3D

 21 21  0  0  1  0  0  0  0  0999 V2000
   29.4657  -23.3107  -17.4900 N   0  0  0  0  0  0  0  0  0  0  0  0
   28.7457  -22.0875  -17.5790 C   0  0  0  0  0  0  0  0  0  0  0  0
   28.1377  -21.6456  -16.3130 C   0  0  0  0  0  0  0  0  0  0  0  0
   27.8565  -22.4975  -15.4551 O   0  0  0  0  0  0  0  0  0  0  0  0
   27.8779  -20.2870  -16.0736 N   0  0  0  0  0  0  0  0  0  0  0  0
   28.8481  -19.2263  -16.4541 C   0  0  0  0  0  0  0  0  0  0  0  0
   27.9182  -18.2919  -17.2077 C   0  0  0  0  0  0  0  0  0  0  0  0
   26.5585  -18.4765  -16.6026 C   0  0  0  0  0  0  0  0  0  0  0  0
   26.8466  -19.5155  -15.5046 C   0  0  1  0  0  0  0  0  0  0  0  0
   25.5827  -20.1070  -15.1501 C   0  0  0  0  0  0  0  0  0  0  0  0
   24.7209  -20.6562  -15.8437 O   0  0  0  0  0  0  0  0  0  0  0  0
   24.6929  -20.4857   -9.1490 N   0  0  0  0  0  0  0  0  0  0  0  0
   23.4708  -21.1163   -9.4742 C   0  0  0  0  0  0  0  0  0  0  0  0
   22.7266  -21.5341   -8.5574 O   0  0  0  0  0  0  0  0  0  0  0  0
   23.1208  -21.2557  -10.9326 C   0  0  0  0  0  0  0  0  0  0  0  0
   24.2390  -20.6485  -11.7042 C   0  0  0  0  0  0  0  0  0  0  0  0
   24.0788  -20.6868  -13.2052 C   0  0  2  0  0  0  0  0  0  0  0  0
   25.2708  -20.0461  -13.7364 N   0  0  0  0  0  0  0  0  0  0  0  0
   22.9227  -19.8342  -13.5711 C   0  0  0  0  0  0  0  0  0  0  0  0
   23.0435  -18.5665  -13.7007 O   0  0  0  0  0  0  0  0  0  0  0  0
   21.6437  -20.3126  -13.8013 O   0  0  0  0  0  0  0  0  0  0  0  0
  1  2  1  0
  2  3  1  0
  3  4  2  0
  5  9  1  0
  5  3  1  0
  6  5  1  0
  7  6  1  0
  7  8  1  0
  8  9  1  0
  9 10  1  6
 10 18  1  0
 10 11  2  0
 12 13  1  0
 13 14  2  0
 15 16  1  0
 15 13  1  0
 17 16  1  1
 17 19  1  0
 18 17  1  0
 19 20  2  0
 19 21  1  0
M  END
$$$$
