GPQ.pdb
     RDKit          3D

 21 21  0  0  1  0  0  0  0  0999 V2000
   28.1539  -18.8823  -15.2974 N   0  0  0  0  0  0  0  0  0  0  0  0
   27.5313  -18.9495  -14.0206 C   0  0  0  0  0  0  0  0  0  0  0  0
   26.2475  -19.6703  -14.0066 C   0  0  0  0  0  0  0  0  0  0  0  0
   25.4246  -19.4438  -14.9078 O   0  0  0  0  0  0  0  0  0  0  0  0
   25.9528  -20.5983  -12.9954 N   0  0  0  0  0  0  0  0  0  0  0  0
   26.9834  -21.5288  -12.4631 C   0  0  0  0  0  0  0  0  0  0  0  0
   26.8007  -21.2839  -10.9757 C   0  0  0  0  0  0  0  0  0  0  0  0
   25.3654  -20.8913  -10.7891 C   0  0  0  0  0  0  0  0  0  0  0  0
   24.8320  -20.9735  -12.2302 C   0  0  1  0  0  0  0  0  0  0  0  0
   23.6142  -20.2063  -12.2670 C   0  0  0  0  0  0  0  0  0  0  0  0
   23.3384  -19.0987  -11.7952 O   0  0  0  0  0  0  0  0  0  0  0  0
   19.7128  -20.8964  -16.8398 N   0  0  0  0  0  0  0  0  0  0  0  0
   19.1808  -19.9106  -15.9784 C   0  0  0  0  0  0  0  0  0  0  0  0
   17.9390  -19.7867  -15.8715 O   0  0  0  0  0  0  0  0  0  0  0  0
   20.1524  -19.0447  -15.2201 C   0  0  0  0  0  0  0  0  0  0  0  0
   21.2378  -19.9389  -14.7336 C   0  0  0  0  0  0  0  0  0  0  0  0
   21.2831  -20.1390  -13.2376 C   0  0  2  0  0  0  0  0  0  0  0  0
   22.5273  -20.8457  -12.9807 N   0  0  0  0  0  0  0  0  0  0  0  0
   20.1758  -21.0479  -12.8565 C   0  0  0  0  0  0  0  0  0  0  0  0
   20.2739  -22.3159  -13.0017 O   0  0  0  0  0  0  0  0  0  0  0  0
   18.9696  -20.6257  -12.3233 O   0  0  0  0  0  0  0  0  0  0  0  0
  1  2  1  0
  2  3  1  0
  3  4  2  0
  5  9  1  0
  5  3  1  0
  6  5  1  0
  7  6  1  0
  7  8  1  0
  8  9  1  0
  9 10  1  1
 10 18  1  0
 10 11  2  0
 12 13  1  0
 13 14  2  0
 15 16  1  0
 15 13  1  0
 17 16  1  6
 17 19  1  0
 18 17  1  0
 19 20  2  0
 19 21  1  0
M  END
$$$$
