GPQ.pdb
     RDKit          3D

 21 21  0  0  1  0  0  0  0  0999 V2000
   23.7149  -13.5589  -18.6863 N   0  0  0  0  0  0  0  0  0  0  0  0
   24.4777  -12.3750  -18.4896 C   0  0  0  0  0  0  0  0  0  0  0  0
   23.9032  -11.4362  -17.5117 C   0  0  0  0  0  0  0  0  0  0  0  0
   22.7065  -11.1230  -17.6148 O   0  0  0  0  0  0  0  0  0  0  0  0
   24.6887  -10.9009  -16.4787 N   0  0  0  0  0  0  0  0  0  0  0  0
   25.6869  -11.7257  -15.7475 C   0  0  0  0  0  0  0  0  0  0  0  0
   26.8949  -10.8115  -15.8515 C   0  0  0  0  0  0  0  0  0  0  0  0
   26.3568   -9.4137  -15.9272 C   0  0  0  0  0  0  0  0  0  0  0  0
   24.8408   -9.6598  -15.8315 C   0  0  1  0  0  0  0  0  0  0  0  0
   24.1948   -8.4745  -16.3322 C   0  0  0  0  0  0  0  0  0  0  0  0
   24.2353   -7.9361  -17.4430 O   0  0  0  0  0  0  0  0  0  0  0  0
   17.9075   -5.5449  -16.8656 N   0  0  0  0  0  0  0  0  0  0  0  0
   18.9535   -6.4202  -16.4958 C   0  0  0  0  0  0  0  0  0  0  0  0
   18.7247   -7.6468  -16.3863 O   0  0  0  0  0  0  0  0  0  0  0  0
   20.3133   -5.8215  -16.2482 C   0  0  0  0  0  0  0  0  0  0  0  0
   21.2406   -6.9540  -15.9802 C   0  0  0  0  0  0  0  0  0  0  0  0
   22.6716   -6.5604  -15.7022 C   0  0  2  0  0  0  0  0  0  0  0  0
   23.3535   -7.7993  -15.3648 N   0  0  0  0  0  0  0  0  0  0  0  0
   22.6917   -5.7052  -14.4916 C   0  0  0  0  0  0  0  0  0  0  0  0
   22.7327   -6.2126  -13.3172 O   0  0  0  0  0  0  0  0  0  0  0  0
   22.6699   -4.3208  -14.5152 O   0  0  0  0  0  0  0  0  0  0  0  0
  1  2  1  0
  2  3  1  0
  3  4  2  0
  5  9  1  0
  5  3  1  0
  6  5  1  0
  7  6  1  0
  7  8  1  0
  8  9  1  0
  9 10  1  6
 10 18  1  0
 10 11  2  0
 12 13  1  0
 13 14  2  0
 15 16  1  0
 15 13  1  0
 17 16  1  1
 17 19  1  0
 18 17  1  0
 19 20  2  0
 19 21  1  0
M  END
$$$$
