GPQ.pdb
     RDKit          3D

 21 21  0  0  1  0  0  0  0  0999 V2000
   24.1851  -17.6546  -17.8873 N   0  0  0  0  0  0  0  0  0  0  0  0
   25.0167  -17.7854  -16.7412 C   0  0  0  0  0  0  0  0  0  0  0  0
   25.4854  -19.1570  -16.4825 C   0  0  0  0  0  0  0  0  0  0  0  0
   24.6657  -20.0880  -16.5298 O   0  0  0  0  0  0  0  0  0  0  0  0
   26.8333  -19.4146  -16.1870 N   0  0  0  0  0  0  0  0  0  0  0  0
   27.9273  -18.5563  -16.7139 C   0  0  0  0  0  0  0  0  0  0  0  0
   28.6827  -18.2897  -15.4239 C   0  0  0  0  0  0  0  0  0  0  0  0
   28.4459  -19.4821  -14.5458 C   0  0  0  0  0  0  0  0  0  0  0  0
   27.5680  -20.3639  -15.4512 C   0  0  1  0  0  0  0  0  0  0  0  0
   26.9089  -21.3139  -14.5933 C   0  0  0  0  0  0  0  0  0  0  0  0
   26.9778  -22.5461  -14.5431 O   0  0  0  0  0  0  0  0  0  0  0  0
   24.4141  -20.8692   -7.8196 N   0  0  0  0  0  0  0  0  0  0  0  0
   25.2192  -20.6808   -8.9656 C   0  0  0  0  0  0  0  0  0  0  0  0
   26.0870  -19.7776   -8.9707 O   0  0  0  0  0  0  0  0  0  0  0  0
   24.9876  -21.5924  -10.1421 C   0  0  0  0  0  0  0  0  0  0  0  0
   25.6958  -20.9871  -11.3024 C   0  0  0  0  0  0  0  0  0  0  0  0
   25.3088  -21.5426  -12.6521 C   0  0  2  0  0  0  0  0  0  0  0  0
   26.0112  -20.7198  -13.6233 N   0  0  0  0  0  0  0  0  0  0  0  0
   23.8579  -21.3130  -12.8506 C   0  0  0  0  0  0  0  0  0  0  0  0
   23.4151  -20.2034  -13.3102 O   0  0  0  0  0  0  0  0  0  0  0  0
   22.8753  -22.2470  -12.5681 O   0  0  0  0  0  0  0  0  0  0  0  0
  1  2  1  0
  2  3  1  0
  3  4  2  0
  5  9  1  0
  5  3  1  0
  6  5  1  0
  7  6  1  0
  7  8  1  0
  8  9  1  0
  9 10  1  1
 10 18  1  0
 10 11  2  0
 12 13  1  0
 13 14  2  0
 15 16  1  0
 15 13  1  0
 17 16  1  1
 17 19  1  0
 18 17  1  0
 19 20  2  0
 19 21  1  0
M  END
$$$$
