GPQ.pdb
     RDKit          3D

 21 21  0  0  1  0  0  0  0  0999 V2000
   28.3346  -20.1001  -14.6000 N   0  0  0  0  0  0  0  0  0  0  0  0
   27.5063  -19.7696  -13.4923 C   0  0  0  0  0  0  0  0  0  0  0  0
   26.1826  -20.4140  -13.5084 C   0  0  0  0  0  0  0  0  0  0  0  0
   25.5374  -20.4286  -14.5687 O   0  0  0  0  0  0  0  0  0  0  0  0
   25.6534  -21.0031  -12.3493 N   0  0  0  0  0  0  0  0  0  0  0  0
   26.5229  -21.6704  -11.3444 C   0  0  0  0  0  0  0  0  0  0  0  0
   26.0168  -20.9931  -10.0830 C   0  0  0  0  0  0  0  0  0  0  0  0
   24.5831  -20.6391  -10.3441 C   0  0  0  0  0  0  0  0  0  0  0  0
   24.3837  -21.1857  -11.7688 C   0  0  1  0  0  0  0  0  0  0  0  0
   23.2184  -20.5322  -12.3054 C   0  0  0  0  0  0  0  0  0  0  0  0
   22.8949  -19.3405  -12.3286 O   0  0  0  0  0  0  0  0  0  0  0  0
   19.2557  -21.2864  -18.1399 N   0  0  0  0  0  0  0  0  0  0  0  0
   20.2055  -21.6000  -17.1417 C   0  0  0  0  0  0  0  0  0  0  0  0
   21.3599  -21.9538  -17.4749 O   0  0  0  0  0  0  0  0  0  0  0  0
   19.7722  -21.4905  -15.7033 C   0  0  0  0  0  0  0  0  0  0  0  0
   20.9740  -21.7629  -14.8691 C   0  0  0  0  0  0  0  0  0  0  0  0
   21.0998  -20.9132  -13.6272 C   0  0  2  0  0  0  0  0  0  0  0  0
   22.2627  -21.4290  -12.9236 N   0  0  0  0  0  0  0  0  0  0  0  0
   19.9190  -21.1679  -12.7681 C   0  0  0  0  0  0  0  0  0  0  0  0
   19.9252  -22.0925  -11.8829 O   0  0  0  0  0  0  0  0  0  0  0  0
   18.7354  -20.4523  -12.8383 O   0  0  0  0  0  0  0  0  0  0  0  0
  1  2  1  0
  2  3  1  0
  3  4  2  0
  5  9  1  0
  5  3  1  0
  6  5  1  0
  7  6  1  0
  7  8  1  0
  8  9  1  0
  9 10  1  6
 10 18  1  0
 10 11  2  0
 12 13  1  0
 13 14  2  0
 15 16  1  0
 15 13  1  0
 17 16  1  6
 17 19  1  0
 18 17  1  0
 19 20  2  0
 19 21  1  0
M  END
$$$$
