GPQ.pdb
     RDKit          3D

 21 21  0  0  1  0  0  0  0  0999 V2000
   26.6134  -17.7087  -17.0141 N   0  0  0  0  0  0  0  0  0  0  0  0
   27.3577  -18.1194  -15.8740 C   0  0  0  0  0  0  0  0  0  0  0  0
   26.6032  -18.9512  -14.9219 C   0  0  0  0  0  0  0  0  0  0  0  0
   25.3964  -18.7176  -14.7492 O   0  0  0  0  0  0  0  0  0  0  0  0
   27.2308  -19.9915  -14.2186 N   0  0  0  0  0  0  0  0  0  0  0  0
   28.2298  -20.8822  -14.8665 C   0  0  0  0  0  0  0  0  0  0  0  0
   29.3477  -20.7948  -13.8426 C   0  0  0  0  0  0  0  0  0  0  0  0
   28.6863  -20.5384  -12.5213 C   0  0  0  0  0  0  0  0  0  0  0  0
   27.1991  -20.5264  -12.9166 C   0  0  1  0  0  0  0  0  0  0  0  0
   26.4920  -19.8597  -11.8543 C   0  0  0  0  0  0  0  0  0  0  0  0
   26.5769  -18.7058  -11.4223 O   0  0  0  0  0  0  0  0  0  0  0  0
   20.9360  -22.2124   -7.8099 N   0  0  0  0  0  0  0  0  0  0  0  0
   21.4120  -21.4815   -8.9218 C   0  0  0  0  0  0  0  0  0  0  0  0
   20.7779  -21.5141  -10.0015 O   0  0  0  0  0  0  0  0  0  0  0  0
   22.6798  -20.6872   -8.7472 C   0  0  0  0  0  0  0  0  0  0  0  0
   23.5126  -20.9336   -9.9555 C   0  0  0  0  0  0  0  0  0  0  0  0
   24.8434  -20.2202   -9.9748 C   0  0  2  0  0  0  0  0  0  0  0  0
   25.5134  -20.6868  -11.1776 N   0  0  0  0  0  0  0  0  0  0  0  0
   25.6406  -20.6924   -8.8176 C   0  0  0  0  0  0  0  0  0  0  0  0
   26.3544  -21.7526   -8.8877 O   0  0  0  0  0  0  0  0  0  0  0  0
   25.6884  -20.0516   -7.5909 O   0  0  0  0  0  0  0  0  0  0  0  0
  1  2  1  0
  2  3  1  0
  3  4  2  0
  5  9  1  0
  5  3  1  0
  6  5  1  0
  7  6  1  0
  7  8  1  0
  8  9  1  0
  9 10  1  1
 10 18  1  0
 10 11  2  0
 12 13  1  0
 13 14  2  0
 15 16  1  0
 15 13  1  0
 17 16  1  1
 17 19  1  0
 18 17  1  0
 19 20  2  0
 19 21  1  0
M  END
$$$$
