GPQ.pdb
     RDKit          3D

 21 21  0  0  1  0  0  0  0  0999 V2000
   28.7258  -22.8151  -16.6330 N   0  0  0  0  0  0  0  0  0  0  0  0
   28.4420  -21.4288  -16.7741 C   0  0  0  0  0  0  0  0  0  0  0  0
   27.2539  -20.9723  -16.0340 C   0  0  0  0  0  0  0  0  0  0  0  0
   26.3439  -21.7846  -15.8039 O   0  0  0  0  0  0  0  0  0  0  0  0
   27.1453  -19.6438  -15.5935 N   0  0  0  0  0  0  0  0  0  0  0  0
   28.3157  -18.8996  -15.0572 C   0  0  0  0  0  0  0  0  0  0  0  0
   28.2101  -17.6316  -15.8860 C   0  0  0  0  0  0  0  0  0  0  0  0
   26.7547  -17.4590  -16.2037 C   0  0  0  0  0  0  0  0  0  0  0  0
   26.1348  -18.6696  -15.4837 C   0  0  1  0  0  0  0  0  0  0  0  0
   24.8337  -18.8771  -16.0644 C   0  0  0  0  0  0  0  0  0  0  0  0
   24.4777  -18.9769  -17.2428 O   0  0  0  0  0  0  0  0  0  0  0  0
   18.9508  -20.6565  -12.5617 N   0  0  0  0  0  0  0  0  0  0  0  0
   19.9295  -21.2276  -13.4061 C   0  0  0  0  0  0  0  0  0  0  0  0
   20.4083  -22.3510  -13.1274 O   0  0  0  0  0  0  0  0  0  0  0  0
   20.3532  -20.4414  -14.6190 C   0  0  0  0  0  0  0  0  0  0  0  0
   21.7716  -20.0468  -14.4029 C   0  0  0  0  0  0  0  0  0  0  0  0
   22.3946  -19.2497  -15.5240 C   0  0  2  0  0  0  0  0  0  0  0  0
   23.7596  -18.9874  -15.0981 N   0  0  0  0  0  0  0  0  0  0  0  0
   21.7016  -17.9418  -15.6051 C   0  0  0  0  0  0  0  0  0  0  0  0
   20.5678  -17.8229  -16.1872 O   0  0  0  0  0  0  0  0  0  0  0  0
   22.1980  -16.7627  -15.0751 O   0  0  0  0  0  0  0  0  0  0  0  0
  1  2  1  0
  2  3  1  0
  3  4  2  0
  5  9  1  0
  5  3  1  0
  6  5  1  0
  7  6  1  0
  7  8  1  0
  8  9  1  0
  9 10  1  6
 10 18  1  0
 10 11  2  0
 12 13  1  0
 13 14  2  0
 15 16  1  0
 15 13  1  0
 17 16  1  1
 17 19  1  0
 18 17  1  0
 19 20  2  0
 19 21  1  0
M  END
$$$$
