GPQ.pdb
     RDKit          3D

 21 21  0  0  1  0  0  0  0  0999 V2000
   33.4384  -30.6366  -19.2620 N   0  0  0  0  0  0  0  0  0  0  0  0
   33.8062  -29.2631  -19.2893 C   0  0  0  0  0  0  0  0  0  0  0  0
   32.9365  -28.3841  -18.4901 C   0  0  0  0  0  0  0  0  0  0  0  0
   31.7978  -28.7791  -18.1929 O   0  0  0  0  0  0  0  0  0  0  0  0
   33.3803  -27.1209  -18.0684 N   0  0  0  0  0  0  0  0  0  0  0  0
   34.7942  -26.8795  -17.6761 C   0  0  0  0  0  0  0  0  0  0  0  0
   35.0822  -25.6471  -18.5152 C   0  0  0  0  0  0  0  0  0  0  0  0
   33.7719  -24.9363  -18.6789 C   0  0  0  0  0  0  0  0  0  0  0  0
   32.8253  -25.8419  -17.8715 C   0  0  1  0  0  0  0  0  0  0  0  0
   31.4869  -25.5359  -18.3051 C   0  0  0  0  0  0  0  0  0  0  0  0
   30.9418  -25.6625  -19.4062 O   0  0  0  0  0  0  0  0  0  0  0  0
   26.9658  -26.3910  -16.0167 N   0  0  0  0  0  0  0  0  0  0  0  0
   26.3368  -25.1330  -16.1541 C   0  0  0  0  0  0  0  0  0  0  0  0
   25.0873  -25.0690  -16.2147 O   0  0  0  0  0  0  0  0  0  0  0  0
   27.2176  -23.9131  -16.2217 C   0  0  0  0  0  0  0  0  0  0  0  0
   28.6250  -24.3953  -16.1895 C   0  0  0  0  0  0  0  0  0  0  0  0
   29.2452  -24.6575  -17.5411 C   0  0  2  0  0  0  0  0  0  0  0  0
   30.6355  -24.9849  -17.2702 N   0  0  0  0  0  0  0  0  0  0  0  0
   29.2350  -23.3908  -18.3108 C   0  0  0  0  0  0  0  0  0  0  0  0
   30.1460  -22.5059  -18.1509 O   0  0  0  0  0  0  0  0  0  0  0  0
   28.2710  -23.0554  -19.2467 O   0  0  0  0  0  0  0  0  0  0  0  0
  1  2  1  0
  2  3  1  0
  3  4  2  0
  5  9  1  0
  5  3  1  0
  6  5  1  0
  7  6  1  0
  7  8  1  0
  8  9  1  0
  9 10  1  6
 10 18  1  0
 10 11  2  0
 12 13  1  0
 13 14  2  0
 15 16  1  0
 15 13  1  0
 17 16  1  1
 17 19  1  0
 18 17  1  0
 19 20  2  0
 19 21  1  0
M  END
$$$$
