VQT.pdb
     RDKit          3D

 24 23  0  0  1  0  0  0  0  0999 V2000
   26.0181  -20.1809  -17.7052 C   0  0  0  0  0  0  0  0  0  0  0  0
   26.8624  -21.4270  -17.6626 C   0  0  1  0  0  0  0  0  0  0  0  0
   27.8829  -21.3951  -18.7434 C   0  0  0  0  0  0  0  0  0  0  0  0
   27.3433  -21.7990  -16.3064 C   0  0  2  0  0  0  0  0  0  0  0  0
   27.9055  -23.1549  -16.4221 N   0  0  0  0  0  0  0  0  0  0  0  0
   26.3624  -21.8222  -15.2331 C   0  0  0  0  0  0  0  0  0  0  0  0
   25.4434  -22.7166  -15.2154 O   0  0  0  0  0  0  0  0  0  0  0  0
   24.2054  -20.4224   -9.6447 N   0  0  0  0  0  0  0  0  0  0  0  0
   25.4430  -21.1461   -9.6943 C   0  0  0  0  0  0  0  0  0  0  0  0
   25.7064  -21.8370   -8.6844 O   0  0  0  0  0  0  0  0  0  0  0  0
   26.2731  -21.0204  -10.8921 C   0  0  0  0  0  0  0  0  0  0  0  0
   25.7242  -20.1410  -11.9713 C   0  0  0  0  0  0  0  0  0  0  0  0
   25.2516  -20.9710  -13.1404 C   0  0  2  0  0  0  0  0  0  0  0  0
   26.3104  -20.9096  -14.1392 N   0  0  0  0  0  0  0  0  0  0  0  0
   23.9416  -20.5201  -13.6503 C   0  0  0  0  0  0  0  0  0  0  0  0
   23.8017  -19.3424  -14.0671 O   0  0  0  0  0  0  0  0  0  0  0  0
   20.9667  -23.3439  -14.6520 C   0  0  0  0  0  0  0  0  0  0  0  0
   21.0763  -21.9605  -15.2530 C   0  0  1  0  0  0  0  0  0  0  0  0
   19.8020  -21.6089  -15.6998 O   0  0  0  0  0  0  0  0  0  0  0  0
   21.5523  -21.0247  -14.1690 C   0  0  2  0  0  0  0  0  0  0  0  0
   22.8526  -21.4264  -13.6631 N   0  0  0  0  0  0  0  0  0  0  0  0
   20.5546  -21.0417  -13.0730 C   0  0  0  0  0  0  0  0  0  0  0  0
   20.8854  -21.4859  -11.9444 O   0  0  0  0  0  0  0  0  0  0  0  0
   19.2699  -20.5798  -13.2656 O   0  0  0  0  0  0  0  0  0  0  0  0
  2  1  1  1
  2  3  1  0
  4  2  1  0
  4  5  1  6
  6  4  1  0
  6  7  2  0
  8  9  1  0
  9 11  1  0
 10  9  2  0
 11 12  1  0
 13 12  1  1
 13 14  1  0
 14  6  1  0
 15 13  1  0
 16 15  2  0
 18 17  1  1
 18 20  1  0
 19 18  1  0
 20 22  1  0
 20 21  1  1
 21 15  1  0
 22 24  1  0
 23 22  2  0
M  END
$$$$
