VQT.pdb
     RDKit          3D

 24 23  0  0  1  0  0  0  0  0999 V2000
   28.5726  -20.5411  -12.6619 C   0  0  0  0  0  0  0  0  0  0  0  0
   27.2688  -20.0543  -13.2367 C   0  0  1  0  0  0  0  0  0  0  0  0
   27.4370  -19.7051  -14.6721 C   0  0  0  0  0  0  0  0  0  0  0  0
   26.0918  -20.8934  -12.8911 C   0  0  2  0  0  0  0  0  0  0  0  0
   26.3289  -22.2130  -13.4998 N   0  0  0  0  0  0  0  0  0  0  0  0
   24.7878  -20.4323  -13.3403 C   0  0  0  0  0  0  0  0  0  0  0  0
   24.2507  -19.3948  -12.8113 O   0  0  0  0  0  0  0  0  0  0  0  0
   22.8471  -17.9942  -17.4403 N   0  0  0  0  0  0  0  0  0  0  0  0
   21.5436  -18.5887  -17.3673 C   0  0  0  0  0  0  0  0  0  0  0  0
   20.6050  -17.8906  -17.8129 O   0  0  0  0  0  0  0  0  0  0  0  0
   21.4228  -19.9287  -16.7936 C   0  0  0  0  0  0  0  0  0  0  0  0
   22.6918  -20.5273  -16.2731 C   0  0  0  0  0  0  0  0  0  0  0  0
   22.7124  -20.4933  -14.7640 C   0  0  2  0  0  0  0  0  0  0  0  0
   24.0007  -21.0413  -14.3609 N   0  0  0  0  0  0  0  0  0  0  0  0
   21.5637  -21.2092  -14.1748 C   0  0  0  0  0  0  0  0  0  0  0  0
   21.5064  -22.4635  -14.2375 O   0  0  0  0  0  0  0  0  0  0  0  0
   20.3502  -21.2281  -10.7016 C   0  0  0  0  0  0  0  0  0  0  0  0
   19.1911  -20.6969  -11.5149 C   0  0  1  0  0  0  0  0  0  0  0  0
   19.2211  -19.3061  -11.4057 O   0  0  0  0  0  0  0  0  0  0  0  0
   19.3927  -21.1368  -12.9443 C   0  0  2  0  0  0  0  0  0  0  0  0
   20.5345  -20.4686  -13.5426 N   0  0  0  0  0  0  0  0  0  0  0  0
   18.1616  -20.8154  -13.7046 C   0  0  0  0  0  0  0  0  0  0  0  0
   18.2166  -19.9816  -14.6439 O   0  0  0  0  0  0  0  0  0  0  0  0
   16.9561  -21.4124  -13.4030 O   0  0  0  0  0  0  0  0  0  0  0  0
  2  1  1  6
  2  3  1  0
  4  2  1  0
  4  5  1  6
  6  4  1  0
  6  7  2  0
  8  9  1  0
  9 11  1  0
 10  9  2  0
 11 12  1  0
 13 12  1  6
 13 14  1  0
 14  6  1  0
 15 13  1  0
 16 15  2  0
 18 17  1  1
 18 20  1  0
 19 18  1  0
 20 22  1  0
 20 21  1  6
 21 15  1  0
 22 24  1  0
 23 22  2  0
M  END
$$$$
