VQT.pdb
     RDKit          3D

 24 23  0  0  1  0  0  0  0  0999 V2000
   17.5183  -13.0893  -15.1916 C   0  0  0  0  0  0  0  0  0  0  0  0
   18.2227  -11.7778  -15.4174 C   0  0  1  0  0  0  0  0  0  0  0  0
   19.3192  -11.6048  -14.4283 C   0  0  0  0  0  0  0  0  0  0  0  0
   18.5591  -11.4958  -16.8374 C   0  0  2  0  0  0  0  0  0  0  0  0
   19.3797  -12.6264  -17.3027 N   0  0  0  0  0  0  0  0  0  0  0  0
   19.2965  -10.2747  -17.1193 C   0  0  0  0  0  0  0  0  0  0  0  0
   20.0124  -10.1809  -18.1793 O   0  0  0  0  0  0  0  0  0  0  0  0
   19.0244   -7.2431  -20.8727 N   0  0  0  0  0  0  0  0  0  0  0  0
   19.6069   -6.1598  -20.1344 C   0  0  0  0  0  0  0  0  0  0  0  0
   19.9962   -5.1867  -20.8188 O   0  0  0  0  0  0  0  0  0  0  0  0
   19.6942   -6.2790  -18.6793 C   0  0  0  0  0  0  0  0  0  0  0  0
   19.1965   -7.5677  -18.1039 C   0  0  0  0  0  0  0  0  0  0  0  0
   19.8593   -7.8449  -16.7762 C   0  0  2  0  0  0  0  0  0  0  0  0
   19.3091   -9.1074  -16.3010 N   0  0  0  0  0  0  0  0  0  0  0  0
   19.6797   -6.7338  -15.8210 C   0  0  0  0  0  0  0  0  0  0  0  0
   18.5260   -6.4202  -15.4325 O   0  0  0  0  0  0  0  0  0  0  0  0
   22.0889   -6.3621  -12.7459 C   0  0  0  0  0  0  0  0  0  0  0  0
   21.9613   -5.0256  -13.4419 C   0  0  1  0  0  0  0  0  0  0  0  0
   23.0951   -4.8729  -14.2407 O   0  0  0  0  0  0  0  0  0  0  0  0
   20.7053   -5.0607  -14.2778 C   0  0  2  0  0  0  0  0  0  0  0  0
   20.8172   -6.0312  -15.3520 N   0  0  0  0  0  0  0  0  0  0  0  0
   20.4856   -3.7065  -14.8389 C   0  0  0  0  0  0  0  0  0  0  0  0
   20.5540   -3.5354  -16.0825 O   0  0  0  0  0  0  0  0  0  0  0  0
   20.2075   -2.6294  -14.0245 O   0  0  0  0  0  0  0  0  0  0  0  0
  2  1  1  6
  2  3  1  0
  4  2  1  0
  4  5  1  1
  6  4  1  0
  6  7  2  0
  8  9  1  0
  9 11  1  0
 10  9  2  0
 11 12  1  0
 13 12  1  6
 13 14  1  0
 14  6  1  0
 15 13  1  0
 16 15  2  0
 18 17  1  6
 18 20  1  0
 19 18  1  0
 20 22  1  0
 20 21  1  6
 21 15  1  0
 22 24  1  0
 23 22  2  0
M  END
$$$$
