VQT.pdb
     RDKit          3D

 24 23  0  0  1  0  0  0  0  0999 V2000
   14.3585  -11.6677  -19.7541 C   0  0  0  0  0  0  0  0  0  0  0  0
   14.8842  -10.6426  -18.7845 C   0  0  1  0  0  0  0  0  0  0  0  0
   13.7792   -9.7690  -18.3089 C   0  0  0  0  0  0  0  0  0  0  0  0
   15.7936  -11.1889  -17.7436 C   0  0  2  0  0  0  0  0  0  0  0  0
   14.9994  -12.1502  -16.9607 N   0  0  0  0  0  0  0  0  0  0  0  0
   16.3825  -10.2437  -16.8085 C   0  0  0  0  0  0  0  0  0  0  0  0
   15.7782   -9.9529  -15.7154 O   0  0  0  0  0  0  0  0  0  0  0  0
   22.1504   -9.5629  -14.8331 N   0  0  0  0  0  0  0  0  0  0  0  0
   21.4619   -8.4929  -14.1703 C   0  0  0  0  0  0  0  0  0  0  0  0
   22.0859   -7.9476  -13.2322 O   0  0  0  0  0  0  0  0  0  0  0  0
   20.1218   -8.1363  -14.6353 C   0  0  0  0  0  0  0  0  0  0  0  0
   19.5105   -9.0729  -15.6295 C   0  0  0  0  0  0  0  0  0  0  0  0
   18.1238   -8.6114  -16.0075 C   0  0  2  0  0  0  0  0  0  0  0  0
   17.6266   -9.5705  -16.9850 N   0  0  0  0  0  0  0  0  0  0  0  0
   18.1146   -7.2194  -16.4991 C   0  0  0  0  0  0  0  0  0  0  0  0
   18.6040   -6.9478  -17.6247 O   0  0  0  0  0  0  0  0  0  0  0  0
   16.4163   -4.2358  -14.0441 C   0  0  0  0  0  0  0  0  0  0  0  0
   16.3146   -4.0994  -15.5468 C   0  0  1  0  0  0  0  0  0  0  0  0
   16.3621   -2.7350  -15.8356 O   0  0  0  0  0  0  0  0  0  0  0  0
   17.4884   -4.8273  -16.1549 C   0  0  2  0  0  0  0  0  0  0  0  0
   17.5509   -6.2016  -15.6905 N   0  0  0  0  0  0  0  0  0  0  0  0
   18.7265   -4.1068  -15.7743 C   0  0  0  0  0  0  0  0  0  0  0  0
   19.4537   -4.5704  -14.8595 O   0  0  0  0  0  0  0  0  0  0  0  0
   19.0978   -2.9376  -16.4034 O   0  0  0  0  0  0  0  0  0  0  0  0
  2  1  1  1
  2  3  1  0
  4  2  1  0
  4  5  1  1
  6  4  1  0
  6  7  2  0
  8  9  1  0
  9 11  1  0
 10  9  2  0
 11 12  1  0
 13 12  1  6
 13 14  1  0
 14  6  1  0
 15 13  1  0
 16 15  2  0
 18 17  1  1
 18 20  1  0
 19 18  1  0
 20 22  1  0
 20 21  1  1
 21 15  1  0
 22 24  1  0
 23 22  2  0
M  END
$$$$
