VQT.pdb
     RDKit          3D

 24 23  0  0  1  0  0  0  0  0999 V2000
   15.1153   -9.9237  -14.8695 C   0  0  0  0  0  0  0  0  0  0  0  0
   16.2344  -10.8980  -15.1260 C   0  0  1  0  0  0  0  0  0  0  0  0
   15.8900  -11.7902  -16.2644 C   0  0  0  0  0  0  0  0  0  0  0  0
   17.5895  -10.2879  -15.1470 C   0  0  2  0  0  0  0  0  0  0  0  0
   18.5470  -11.4042  -15.2176 N   0  0  0  0  0  0  0  0  0  0  0  0
   17.9664   -9.4592  -14.0130 C   0  0  0  0  0  0  0  0  0  0  0  0
   18.3041   -9.9999  -12.9002 O   0  0  0  0  0  0  0  0  0  0  0  0
   21.3214   -4.5112  -13.9753 N   0  0  0  0  0  0  0  0  0  0  0  0
   21.5789   -5.9194  -14.0684 C   0  0  0  0  0  0  0  0  0  0  0  0
   22.6825   -6.2354  -14.5673 O   0  0  0  0  0  0  0  0  0  0  0  0
   20.5562   -6.8457  -13.5834 C   0  0  0  0  0  0  0  0  0  0  0  0
   19.2696   -6.2190  -13.1460 C   0  0  0  0  0  0  0  0  0  0  0  0
   18.2600   -7.2816  -12.7843 C   0  0  2  0  0  0  0  0  0  0  0  0
   18.0043   -8.0342  -14.0053 N   0  0  0  0  0  0  0  0  0  0  0  0
   17.0384   -6.7086  -12.1855 C   0  0  0  0  0  0  0  0  0  0  0  0
   16.0835   -6.3560  -12.9231 O   0  0  0  0  0  0  0  0  0  0  0  0
   15.1387   -7.9362   -8.7926 C   0  0  0  0  0  0  0  0  0  0  0  0
   15.6231   -6.5048   -8.7332 C   0  0  1  0  0  0  0  0  0  0  0  0
   16.8522   -6.5184   -8.0728 O   0  0  0  0  0  0  0  0  0  0  0  0
   15.7707   -6.0102  -10.1513 C   0  0  2  0  0  0  0  0  0  0  0  0
   16.9580   -6.5625  -10.7785 N   0  0  0  0  0  0  0  0  0  0  0  0
   15.8564   -4.5309  -10.1181 C   0  0  0  0  0  0  0  0  0  0  0  0
   16.9051   -3.9646  -10.5182 O   0  0  0  0  0  0  0  0  0  0  0  0
   14.8090   -3.7620   -9.6572 O   0  0  0  0  0  0  0  0  0  0  0  0
  2  1  1  6
  2  3  1  0
  4  2  1  0
  4  5  1  1
  6  4  1  0
  6  7  2  0
  8  9  1  0
  9 11  1  0
 10  9  2  0
 11 12  1  0
 13 12  1  6
 13 14  1  0
 14  6  1  0
 15 13  1  0
 16 15  2  0
 18 17  1  6
 18 20  1  0
 19 18  1  0
 20 22  1  0
 20 21  1  1
 21 15  1  0
 22 24  1  0
 23 22  2  0
M  END
$$$$
