VQT.pdb
     RDKit          3D

 24 23  0  0  1  0  0  0  0  0999 V2000
   17.6152   -8.2775  -18.6433 C   0  0  0  0  0  0  0  0  0  0  0  0
   17.0418   -9.5085  -17.9927 C   0  0  1  0  0  0  0  0  0  0  0  0
   15.9025  -10.0308  -18.7926 C   0  0  0  0  0  0  0  0  0  0  0  0
   18.0559  -10.5025  -17.5540 C   0  0  2  0  0  0  0  0  0  0  0  0
   17.3259  -11.5372  -16.8028 N   0  0  0  0  0  0  0  0  0  0  0  0
   19.1354  -10.0249  -16.7048 C   0  0  0  0  0  0  0  0  0  0  0  0
   18.9306   -9.8097  -15.4572 O   0  0  0  0  0  0  0  0  0  0  0  0
   25.1374  -11.4709  -16.6050 N   0  0  0  0  0  0  0  0  0  0  0  0
   25.0809  -10.3813  -15.6736 C   0  0  0  0  0  0  0  0  0  0  0  0
   26.1217  -10.1858  -15.0063 O   0  0  0  0  0  0  0  0  0  0  0  0
   23.8427   -9.6078  -15.5844 C   0  0  0  0  0  0  0  0  0  0  0  0
   22.7237  -10.0727  -16.4625 C   0  0  0  0  0  0  0  0  0  0  0  0
   21.4808   -9.2528  -16.2139 C   0  0  2  0  0  0  0  0  0  0  0  0
   20.4686   -9.7570  -17.1325 N   0  0  0  0  0  0  0  0  0  0  0  0
   21.7303   -7.8050  -16.3583 C   0  0  0  0  0  0  0  0  0  0  0  0
   22.2048   -7.3535  -17.4313 O   0  0  0  0  0  0  0  0  0  0  0  0
   19.7034   -5.0423  -16.6123 C   0  0  0  0  0  0  0  0  0  0  0  0
   20.4771   -4.6899  -15.3616 C   0  0  1  0  0  0  0  0  0  0  0  0
   19.6582   -5.0009  -14.2754 O   0  0  0  0  0  0  0  0  0  0  0  0
   21.7369   -5.5207  -15.3510 C   0  0  2  0  0  0  0  0  0  0  0  0
   21.4300   -6.9380  -15.2787 N   0  0  0  0  0  0  0  0  0  0  0  0
   22.5468   -5.1168  -14.1772 C   0  0  0  0  0  0  0  0  0  0  0  0
   22.6805   -5.9156  -13.2156 O   0  0  0  0  0  0  0  0  0  0  0  0
   23.1574   -3.8822  -14.1178 O   0  0  0  0  0  0  0  0  0  0  0  0
  2  1  1  6
  2  3  1  0
  4  2  1  0
  4  5  1  1
  6  4  1  0
  6  7  2  0
  8  9  1  0
  9 11  1  0
 10  9  2  0
 11 12  1  0
 13 12  1  6
 13 14  1  0
 14  6  1  0
 15 13  1  0
 16 15  2  0
 18 17  1  6
 18 20  1  0
 19 18  1  0
 20 22  1  0
 20 21  1  1
 21 15  1  0
 22 24  1  0
 23 22  2  0
M  END
$$$$
