VQT.pdb
     RDKit          3D

 24 23  0  0  1  0  0  0  0  0999 V2000
   29.2647  -20.5817  -17.0631 C   0  0  0  0  0  0  0  0  0  0  0  0
   28.1920  -21.2646  -16.2566 C   0  0  1  0  0  0  0  0  0  0  0  0
   28.8028  -22.0944  -15.1848 C   0  0  0  0  0  0  0  0  0  0  0  0
   27.0682  -20.3800  -15.8523 C   0  0  2  0  0  0  0  0  0  0  0  0
   27.6658  -19.2705  -15.0908 N   0  0  0  0  0  0  0  0  0  0  0  0
   26.0224  -20.9635  -15.0275 C   0  0  0  0  0  0  0  0  0  0  0  0
   25.0593  -21.6150  -15.5685 O   0  0  0  0  0  0  0  0  0  0  0  0
   25.0334  -21.1110   -8.7371 N   0  0  0  0  0  0  0  0  0  0  0  0
   25.7774  -20.1601   -9.5119 C   0  0  0  0  0  0  0  0  0  0  0  0
   26.1969  -19.1615   -8.8846 O   0  0  0  0  0  0  0  0  0  0  0  0
   25.9798  -20.4306  -10.9350 C   0  0  0  0  0  0  0  0  0  0  0  0
   25.3447  -21.6826  -11.4531 C   0  0  0  0  0  0  0  0  0  0  0  0
   24.8445  -21.4776  -12.8627 C   0  0  2  0  0  0  0  0  0  0  0  0
   25.9493  -20.8863  -13.6059 N   0  0  0  0  0  0  0  0  0  0  0  0
   23.6125  -20.6653  -12.9040 C   0  0  0  0  0  0  0  0  0  0  0  0
   23.6108  -19.5026  -12.4263 O   0  0  0  0  0  0  0  0  0  0  0  0
   21.9190  -19.1065  -15.4749 C   0  0  0  0  0  0  0  0  0  0  0  0
   20.8745  -20.0832  -14.9830 C   0  0  1  0  0  0  0  0  0  0  0  0
   20.9426  -21.2035  -15.8121 O   0  0  0  0  0  0  0  0  0  0  0  0
   21.2133  -20.4386  -13.5560 C   0  0  2  0  0  0  0  0  0  0  0  0
   22.4410  -21.2106  -13.4852 N   0  0  0  0  0  0  0  0  0  0  0  0
   20.0879  -21.2236  -12.9957 C   0  0  0  0  0  0  0  0  0  0  0  0
   20.2831  -22.4127  -12.6375 O   0  0  0  0  0  0  0  0  0  0  0  0
   18.8299  -20.6763  -12.8588 O   0  0  0  0  0  0  0  0  0  0  0  0
  2  1  1  1
  2  3  1  0
  4  2  1  0
  4  5  1  1
  6  4  1  0
  6  7  2  0
  8  9  1  0
  9 11  1  0
 10  9  2  0
 11 12  1  0
 13 12  1  1
 13 14  1  0
 14  6  1  0
 15 13  1  0
 16 15  2  0
 18 17  1  6
 18 20  1  0
 19 18  1  0
 20 22  1  0
 20 21  1  6
 21 15  1  0
 22 24  1  0
 23 22  2  0
M  END
$$$$
