VQT.pdb
     RDKit          3D

 24 23  0  0  1  0  0  0  0  0999 V2000
   19.0574  -11.0809  -16.2738 C   0  0  0  0  0  0  0  0  0  0  0  0
   17.7117  -11.5710  -15.8088 C   0  0  1  0  0  0  0  0  0  0  0  0
   17.6159  -13.0457  -15.9720 C   0  0  0  0  0  0  0  0  0  0  0  0
   17.2731  -11.0180  -14.5008 C   0  0  2  0  0  0  0  0  0  0  0  0
   15.8634  -11.4095  -14.3355 N   0  0  0  0  0  0  0  0  0  0  0  0
   17.3504   -9.5765  -14.3256 C   0  0  0  0  0  0  0  0  0  0  0  0
   16.3401   -8.8360  -14.6008 O   0  0  0  0  0  0  0  0  0  0  0  0
   15.8111   -6.5949  -10.4104 N   0  0  0  0  0  0  0  0  0  0  0  0
   17.0254   -7.3179  -10.1644 C   0  0  0  0  0  0  0  0  0  0  0  0
   17.2672   -7.5764   -8.9638 O   0  0  0  0  0  0  0  0  0  0  0  0
   17.8589   -7.6850  -11.3090 C   0  0  0  0  0  0  0  0  0  0  0  0
   17.4305   -7.1242  -12.6286 C   0  0  0  0  0  0  0  0  0  0  0  0
   18.4673   -7.4124  -13.6873 C   0  0  2  0  0  0  0  0  0  0  0  0
   18.4889   -8.8595  -13.8543 N   0  0  0  0  0  0  0  0  0  0  0  0
   19.7863   -6.8450  -13.3444 C   0  0  0  0  0  0  0  0  0  0  0  0
   20.5159   -7.4195  -12.4972 O   0  0  0  0  0  0  0  0  0  0  0  0
   22.6521   -6.8757  -15.1223 C   0  0  0  0  0  0  0  0  0  0  0  0
   22.4133   -5.3865  -15.0108 C   0  0  1  0  0  0  0  0  0  0  0  0
   21.7483   -4.9930  -16.1727 O   0  0  0  0  0  0  0  0  0  0  0  0
   21.5627   -5.1477  -13.7874 C   0  0  2  0  0  0  0  0  0  0  0  0
   20.2150   -5.6528  -13.9788 N   0  0  0  0  0  0  0  0  0  0  0  0
   21.5253   -3.6888  -13.5283 C   0  0  0  0  0  0  0  0  0  0  0  0
   20.4420   -3.0655  -13.6648 O   0  0  0  0  0  0  0  0  0  0  0  0
   22.6548   -3.0002  -13.1402 O   0  0  0  0  0  0  0  0  0  0  0  0
  2  1  1  1
  2  3  1  0
  4  2  1  0
  4  5  1  6
  6  4  1  0
  6  7  2  0
  8  9  1  0
  9 11  1  0
 10  9  2  0
 11 12  1  0
 13 12  1  1
 13 14  1  0
 14  6  1  0
 15 13  1  0
 16 15  2  0
 18 17  1  6
 18 20  1  0
 19 18  1  0
 20 22  1  0
 20 21  1  6
 21 15  1  0
 22 24  1  0
 23 22  2  0
M  END
$$$$
