PCY.pdb
     RDKit          3D

 26 27  0  0  1  0  0  0  0  0999 V2000
   27.2735  -23.6907  -19.0532 N   0  0  0  0  0  0  0  0  0  0  0  0
   27.8294  -23.9449  -20.3507 C   0  0  0  0  0  0  0  0  0  0  0  0
   29.3296  -23.8585  -20.2319 C   0  0  0  0  0  0  0  0  0  0  0  0
   29.4931  -23.0217  -18.9640 C   0  0  0  0  0  0  0  0  0  0  0  0
   28.3496  -23.5429  -18.1231 C   0  0  1  0  0  0  0  0  0  0  0  0
   28.0340  -22.5037  -17.0791 C   0  0  0  0  0  0  0  0  0  0  0  0
   28.9485  -22.1316  -16.2998 O   0  0  0  0  0  0  0  0  0  0  0  0
   26.7490  -21.9387  -16.9506 N   0  0  0  0  0  0  0  0  0  0  0  0
   26.5468  -20.7545  -16.1693 C   0  0  1  0  0  0  0  0  0  0  0  0
   25.5586  -19.8011  -16.8024 C   0  0  0  0  0  0  0  0  0  0  0  0
   23.9282  -20.5063  -17.0157 S   0  0  0  0  0  0  0  0  0  0  0  0
   26.0934  -21.0960  -14.7909 C   0  0  0  0  0  0  0  0  0  0  0  0
   25.2935  -22.0245  -14.6290 O   0  0  0  0  0  0  0  0  0  0  0  0
   25.0467  -20.5694   -6.0703 O   0  0  0  0  0  0  0  0  0  0  0  0
   25.5058  -20.3805   -7.3652 C   0  0  0  0  0  0  0  0  0  0  0  0
   25.1585  -19.2517   -8.0850 C   0  0  0  0  0  0  0  0  0  0  0  0
   25.5849  -19.0146   -9.3700 C   0  0  0  0  0  0  0  0  0  0  0  0
   26.4097  -19.9499   -9.9931 C   0  0  0  0  0  0  0  0  0  0  0  0
   26.8377  -19.6995  -11.3766 C   0  0  0  0  0  0  0  0  0  0  0  0
   26.0843  -20.5381  -12.3501 C   0  0  2  0  0  0  0  0  0  0  0  0
   26.5839  -20.3573  -13.7089 N   0  0  0  0  0  0  0  0  0  0  0  0
   24.6251  -20.3174  -12.2941 C   0  0  0  0  0  0  0  0  0  0  0  0
   24.1503  -19.3314  -12.9320 O   0  0  0  0  0  0  0  0  0  0  0  0
   26.7612  -21.0862   -9.2730 C   0  0  0  0  0  0  0  0  0  0  0  0
   26.3280  -21.3125   -7.9869 C   0  0  0  0  0  0  0  0  0  0  0  0
   23.7950  -21.1655  -11.5664 O   0  0  0  0  0  0  0  0  0  0  0  0
  1  2  1  0
  3  2  1  0
  4  3  1  0
  4  5  1  0
  5  6  1  1
  5  1  1  0
  6  7  2  0
  8  6  1  0
  8  9  1  0
  9 10  1  6
 11 10  1  0
 12 21  1  0
 12  9  1  0
 13 12  2  0
 15 14  1  0
 16 15  2  0
 17 16  1  0
 18 24  1  0
 18 17  2  0
 19 18  1  0
 20 21  1  0
 20 19  1  1
 22 26  1  0
 22 20  1  0
 23 22  2  0
 24 25  2  0
 25 15  1  0
M  END
$$$$
