PCY.pdb
     RDKit          3D

 26 27  0  0  1  0  0  0  0  0999 V2000
   23.5036  -13.9888  -16.7026 N   0  0  0  0  0  0  0  0  0  0  0  0
   24.4031  -15.0282  -17.1117 C   0  0  0  0  0  0  0  0  0  0  0  0
   25.7848  -14.6502  -16.6420 C   0  0  0  0  0  0  0  0  0  0  0  0
   25.6488  -13.1391  -16.4614 C   0  0  0  0  0  0  0  0  0  0  0  0
   24.2375  -13.0367  -15.9283 C   0  0  1  0  0  0  0  0  0  0  0  0
   23.7507  -11.6331  -16.1789 C   0  0  0  0  0  0  0  0  0  0  0  0
   24.4110  -10.6708  -15.7100 O   0  0  0  0  0  0  0  0  0  0  0  0
   22.5816  -11.3682  -16.9206 N   0  0  0  0  0  0  0  0  0  0  0  0
   22.1882  -10.0202  -17.2067 C   0  0  1  0  0  0  0  0  0  0  0  0
   21.3737   -9.9084  -18.4756 C   0  0  0  0  0  0  0  0  0  0  0  0
   22.2298  -10.5149  -19.9249 S   0  0  0  0  0  0  0  0  0  0  0  0
   21.4193   -9.4366  -16.0706 C   0  0  0  0  0  0  0  0  0  0  0  0
   20.5954  -10.1381  -15.4731 O   0  0  0  0  0  0  0  0  0  0  0  0
   24.5324   -2.3671  -16.0360 O   0  0  0  0  0  0  0  0  0  0  0  0
   23.9512   -3.4923  -15.4709 C   0  0  0  0  0  0  0  0  0  0  0  0
   22.8983   -3.3779  -14.5815 C   0  0  0  0  0  0  0  0  0  0  0  0
   22.2862   -4.4587  -13.9929 C   0  0  0  0  0  0  0  0  0  0  0  0
   22.7380   -5.7417  -14.2976 C   0  0  0  0  0  0  0  0  0  0  0  0
   22.0943   -6.8888  -13.6419 C   0  0  0  0  0  0  0  0  0  0  0  0
   21.0570   -7.5127  -14.5098 C   0  0  2  0  0  0  0  0  0  0  0  0
   21.6475   -8.1058  -15.7049 N   0  0  0  0  0  0  0  0  0  0  0  0
   19.9687   -6.5813  -14.8694 C   0  0  0  0  0  0  0  0  0  0  0  0
   19.2072   -6.1742  -13.9426 O   0  0  0  0  0  0  0  0  0  0  0  0
   23.7965   -5.8612  -15.1913 C   0  0  0  0  0  0  0  0  0  0  0  0
   24.4013   -4.7716  -15.7743 C   0  0  0  0  0  0  0  0  0  0  0  0
   19.7847   -6.1603  -16.1835 O   0  0  0  0  0  0  0  0  0  0  0  0
  1  2  1  0
  3  2  1  0
  4  3  1  0
  4  5  1  0
  5  6  1  6
  5  1  1  0
  6  7  2  0
  8  6  1  0
  8  9  1  0
  9 10  1  6
 11 10  1  0
 12 21  1  0
 12  9  1  0
 13 12  2  0
 15 14  1  0
 16 15  2  0
 17 16  1  0
 18 24  1  0
 18 17  2  0
 19 18  1  0
 20 21  1  0
 20 19  1  6
 22 26  1  0
 22 20  1  0
 23 22  2  0
 24 25  2  0
 25 15  1  0
M  END
$$$$
