PCY.pdb
     RDKit          3D

 26 27  0  0  1  0  0  0  0  0999 V2000
   25.0980   -9.3633  -16.6725 N   0  0  0  0  0  0  0  0  0  0  0  0
   26.3398  -10.0741  -16.5741 C   0  0  0  0  0  0  0  0  0  0  0  0
   26.2854  -10.9223  -15.3291 C   0  0  0  0  0  0  0  0  0  0  0  0
   25.2052  -10.2109  -14.5156 C   0  0  0  0  0  0  0  0  0  0  0  0
   24.2462   -9.7949  -15.6082 C   0  0  1  0  0  0  0  0  0  0  0  0
   23.4096   -8.6590  -15.0795 C   0  0  0  0  0  0  0  0  0  0  0  0
   22.6457   -8.8733  -14.1035 O   0  0  0  0  0  0  0  0  0  0  0  0
   23.4579   -7.3685  -15.6444 N   0  0  0  0  0  0  0  0  0  0  0  0
   22.6201   -6.3198  -15.1423 C   0  0  1  0  0  0  0  0  0  0  0  0
   23.4069   -5.1043  -14.7067 C   0  0  0  0  0  0  0  0  0  0  0  0
   22.3851   -3.8041  -14.0238 S   0  0  0  0  0  0  0  0  0  0  0  0
   21.6050   -5.9164  -16.1568 C   0  0  0  0  0  0  0  0  0  0  0  0
   21.9417   -5.8100  -17.3415 O   0  0  0  0  0  0  0  0  0  0  0  0
   16.8284  -11.1001  -15.8272 O   0  0  0  0  0  0  0  0  0  0  0  0
   17.4019   -9.9267  -16.2934 C   0  0  0  0  0  0  0  0  0  0  0  0
   16.6291   -8.8062  -16.5384 C   0  0  0  0  0  0  0  0  0  0  0  0
   17.1453   -7.6191  -17.0004 C   0  0  0  0  0  0  0  0  0  0  0  0
   18.5154   -7.5238  -17.2390 C   0  0  0  0  0  0  0  0  0  0  0  0
   19.0530   -6.2583  -17.7585 C   0  0  0  0  0  0  0  0  0  0  0  0
   19.2474   -5.2532  -16.6768 C   0  0  2  0  0  0  0  0  0  0  0  0
   20.2915   -5.6666  -15.7455 N   0  0  0  0  0  0  0  0  0  0  0  0
   17.9989   -4.9320  -15.9561 C   0  0  0  0  0  0  0  0  0  0  0  0
   17.0487   -4.4180  -16.6175 O   0  0  0  0  0  0  0  0  0  0  0  0
   19.2960   -8.6480  -16.9940 C   0  0  0  0  0  0  0  0  0  0  0  0
   18.7678   -9.8311  -16.5314 C   0  0  0  0  0  0  0  0  0  0  0  0
   17.8665   -5.1872  -14.5940 O   0  0  0  0  0  0  0  0  0  0  0  0
  1  2  1  0
  3  2  1  0
  4  3  1  0
  4  5  1  0
  5  6  1  1
  5  1  1  0
  6  7  2  0
  8  6  1  0
  8  9  1  0
  9 10  1  6
 11 10  1  0
 12 21  1  0
 12  9  1  0
 13 12  2  0
 15 14  1  0
 16 15  2  0
 17 16  1  0
 18 24  1  0
 18 17  2  0
 19 18  1  0
 20 21  1  0
 20 19  1  6
 22 26  1  0
 22 20  1  0
 23 22  2  0
 24 25  2  0
 25 15  1  0
M  END
$$$$
