PCY.pdb
     RDKit          3D

 26 27  0  0  1  0  0  0  0  0999 V2000
   26.0469  -21.6710  -15.6938 N   0  0  0  0  0  0  0  0  0  0  0  0
   27.0484  -21.5865  -16.7170 C   0  0  0  0  0  0  0  0  0  0  0  0
   27.8470  -20.3312  -16.4747 C   0  0  0  0  0  0  0  0  0  0  0  0
   26.8799  -19.5068  -15.6263 C   0  0  0  0  0  0  0  0  0  0  0  0
   26.2419  -20.5868  -14.7820 C   0  0  1  0  0  0  0  0  0  0  0  0
   24.9277  -20.0563  -14.2709 C   0  0  0  0  0  0  0  0  0  0  0  0
   24.9364  -19.0800  -13.4779 O   0  0  0  0  0  0  0  0  0  0  0  0
   23.6937  -20.6199  -14.6539 N   0  0  0  0  0  0  0  0  0  0  0  0
   22.4594  -20.0603  -14.1882 C   0  0  1  0  0  0  0  0  0  0  0  0
   21.5980  -19.5332  -15.3135 C   0  0  0  0  0  0  0  0  0  0  0  0
   22.1137  -17.9274  -15.9105 S   0  0  0  0  0  0  0  0  0  0  0  0
   21.6857  -21.0594  -13.3973 C   0  0  0  0  0  0  0  0  0  0  0  0
   21.6865  -22.2438  -13.7512 O   0  0  0  0  0  0  0  0  0  0  0  0
   17.4365  -24.6113   -6.5493 O   0  0  0  0  0  0  0  0  0  0  0  0
   18.0260  -23.7154   -7.4285 C   0  0  0  0  0  0  0  0  0  0  0  0
   19.4010  -23.5778   -7.4874 C   0  0  0  0  0  0  0  0  0  0  0  0
   20.0368  -22.7062   -8.3390 C   0  0  0  0  0  0  0  0  0  0  0  0
   19.2709  -21.9139   -9.1928 C   0  0  0  0  0  0  0  0  0  0  0  0
   19.9597  -20.9660  -10.0801 C   0  0  0  0  0  0  0  0  0  0  0  0
   20.2376  -21.5604  -11.4172 C   0  0  2  0  0  0  0  0  0  0  0  0
   20.9747  -20.6342  -12.2701 N   0  0  0  0  0  0  0  0  0  0  0  0
   19.0197  -22.0444  -12.0981 C   0  0  0  0  0  0  0  0  0  0  0  0
   18.3205  -21.1999  -12.7325 O   0  0  0  0  0  0  0  0  0  0  0  0
   17.8882  -22.0492   -9.1367 C   0  0  0  0  0  0  0  0  0  0  0  0
   17.2630  -22.9254   -8.2798 C   0  0  0  0  0  0  0  0  0  0  0  0
   18.6506  -23.3858  -12.0484 O   0  0  0  0  0  0  0  0  0  0  0  0
  1  2  1  0
  3  2  1  0
  4  3  1  0
  4  5  1  0
  5  6  1  6
  5  1  1  0
  6  7  2  0
  8  6  1  0
  8  9  1  0
  9 10  1  6
 11 10  1  0
 12 21  1  0
 12  9  1  0
 13 12  2  0
 15 14  1  0
 16 15  2  0
 17 16  1  0
 18 24  1  0
 18 17  2  0
 19 18  1  0
 20 21  1  0
 20 19  1  1
 22 26  1  0
 22 20  1  0
 23 22  2  0
 24 25  2  0
 25 15  1  0
M  END
$$$$
