PCY.pdb
     RDKit          3D

 26 27  0  0  1  0  0  0  0  0999 V2000
   28.5263  -24.5094  -18.5319 N   0  0  0  0  0  0  0  0  0  0  0  0
   29.0355  -25.0504  -19.7586 C   0  0  0  0  0  0  0  0  0  0  0  0
   30.5100  -24.7427  -19.8185 C   0  0  0  0  0  0  0  0  0  0  0  0
   30.6210  -23.5649  -18.8515 C   0  0  0  0  0  0  0  0  0  0  0  0
   29.6215  -23.9660  -17.7902 C   0  0  1  0  0  0  0  0  0  0  0  0
   29.2158  -22.7210  -17.0450 C   0  0  0  0  0  0  0  0  0  0  0  0
   30.0827  -22.1120  -16.3671 O   0  0  0  0  0  0  0  0  0  0  0  0
   27.8984  -22.2211  -17.0851 N   0  0  0  0  0  0  0  0  0  0  0  0
   27.5418  -21.0431  -16.3512 C   0  0  1  0  0  0  0  0  0  0  0  0
   26.9325  -19.9728  -17.2285 C   0  0  0  0  0  0  0  0  0  0  0  0
   25.3232  -20.4143  -17.8735 S   0  0  0  0  0  0  0  0  0  0  0  0
   26.6012  -21.3702  -15.2419 C   0  0  0  0  0  0  0  0  0  0  0  0
   25.8280  -22.3267  -15.3657 O   0  0  0  0  0  0  0  0  0  0  0  0
   22.9568  -21.1797   -7.2037 O   0  0  0  0  0  0  0  0  0  0  0  0
   23.6742  -20.8662   -8.3483 C   0  0  0  0  0  0  0  0  0  0  0  0
   25.0080  -21.2121   -8.4683 C   0  0  0  0  0  0  0  0  0  0  0  0
   25.7652  -20.9262   -9.5791 C   0  0  0  0  0  0  0  0  0  0  0  0
   25.1734  -20.2540  -10.6473 C   0  0  0  0  0  0  0  0  0  0  0  0
   25.9993  -19.9294  -11.8190 C   0  0  0  0  0  0  0  0  0  0  0  0
   25.6912  -20.8146  -12.9765 C   0  0  2  0  0  0  0  0  0  0  0  0
   26.6140  -20.5864  -14.0833 N   0  0  0  0  0  0  0  0  0  0  0  0
   24.2902  -20.7045  -13.4306 C   0  0  0  0  0  0  0  0  0  0  0  0
   23.9912  -19.7452  -14.2019 O   0  0  0  0  0  0  0  0  0  0  0  0
   23.8327  -19.9044  -10.5308 C   0  0  0  0  0  0  0  0  0  0  0  0
   23.0848  -20.1961   -9.4135 C   0  0  0  0  0  0  0  0  0  0  0  0
   23.3271  -21.6254  -13.0277 O   0  0  0  0  0  0  0  0  0  0  0  0
  1  2  1  0
  3  2  1  0
  4  3  1  0
  4  5  1  0
  5  6  1  6
  5  1  1  0
  6  7  2  0
  8  6  1  0
  8  9  1  0
  9 10  1  6
 11 10  1  0
 12 21  1  0
 12  9  1  0
 13 12  2  0
 15 14  1  0
 16 15  2  0
 17 16  1  0
 18 24  1  0
 18 17  2  0
 19 18  1  0
 20 21  1  0
 20 19  1  1
 22 26  1  0
 22 20  1  0
 23 22  2  0
 24 25  2  0
 25 15  1  0
M  END
$$$$
