PCY.pdb
     RDKit          3D

 26 27  0  0  1  0  0  0  0  0999 V2000
   27.3845  -27.6605  -16.7749 N   0  0  0  0  0  0  0  0  0  0  0  0
   28.0097  -26.4077  -16.4639 C   0  0  0  0  0  0  0  0  0  0  0  0
   29.3976  -26.4294  -17.0519 C   0  0  0  0  0  0  0  0  0  0  0  0
   29.6496  -27.9293  -17.1982 C   0  0  0  0  0  0  0  0  0  0  0  0
   28.2755  -28.4163  -17.5993 C   0  0  1  0  0  0  0  0  0  0  0  0
   28.1982  -29.8879  -17.2858 C   0  0  0  0  0  0  0  0  0  0  0  0
   28.9839  -30.6741  -17.8745 O   0  0  0  0  0  0  0  0  0  0  0  0
   27.2749  -30.4070  -16.3557 N   0  0  0  0  0  0  0  0  0  0  0  0
   27.2130  -31.8151  -16.0965 C   0  0  1  0  0  0  0  0  0  0  0  0
   28.2868  -32.2782  -15.1380 C   0  0  0  0  0  0  0  0  0  0  0  0
   28.0662  -33.9656  -14.5856 S   0  0  0  0  0  0  0  0  0  0  0  0
   25.8744  -32.2013  -15.5662 C   0  0  0  0  0  0  0  0  0  0  0  0
   25.3605  -31.5249  -14.6682 O   0  0  0  0  0  0  0  0  0  0  0  0
   21.5095  -31.7589  -21.2725 O   0  0  0  0  0  0  0  0  0  0  0  0
   21.8281  -31.9714  -19.9396 C   0  0  0  0  0  0  0  0  0  0  0  0
   22.9007  -31.3242  -19.3533 C   0  0  0  0  0  0  0  0  0  0  0  0
   23.2602  -31.4980  -18.0381 C   0  0  0  0  0  0  0  0  0  0  0  0
   22.5162  -32.3672  -17.2418 C   0  0  0  0  0  0  0  0  0  0  0  0
   22.9257  -32.5662  -15.8444 C   0  0  0  0  0  0  0  0  0  0  0  0
   23.8763  -33.7039  -15.7022 C   0  0  2  0  0  0  0  0  0  0  0  0
   25.2280  -33.3225  -16.0972 N   0  0  0  0  0  0  0  0  0  0  0  0
   23.4401  -34.9146  -16.4270 C   0  0  0  0  0  0  0  0  0  0  0  0
   24.2371  -35.4176  -17.2733 O   0  0  0  0  0  0  0  0  0  0  0  0
   21.4371  -33.0198  -17.8274 C   0  0  0  0  0  0  0  0  0  0  0  0
   21.0867  -32.8378  -19.1453 C   0  0  0  0  0  0  0  0  0  0  0  0
   22.1945  -35.4885  -16.1880 O   0  0  0  0  0  0  0  0  0  0  0  0
  1  2  1  0
  3  2  1  0
  4  3  1  0
  4  5  1  0
  5  6  1  1
  5  1  1  0
  6  7  2  0
  8  6  1  0
  8  9  1  0
  9 10  1  1
 11 10  1  0
 12 21  1  0
 12  9  1  0
 13 12  2  0
 15 14  1  0
 16 15  2  0
 17 16  1  0
 18 24  1  0
 18 17  2  0
 19 18  1  0
 20 21  1  0
 20 19  1  6
 22 26  1  0
 22 20  1  0
 23 22  2  0
 24 25  2  0
 25 15  1  0
M  END
$$$$
