PCY.pdb
     RDKit          3D

 26 27  0  0  1  0  0  0  0  0999 V2000
   18.2222  -11.1459  -17.2577 N   0  0  0  0  0  0  0  0  0  0  0  0
   17.7711  -12.3866  -17.8181 C   0  0  0  0  0  0  0  0  0  0  0  0
   17.6717  -13.3878  -16.6955 C   0  0  0  0  0  0  0  0  0  0  0  0
   18.6005  -12.7740  -15.6489 C   0  0  0  0  0  0  0  0  0  0  0  0
   18.3186  -11.3007  -15.8394 C   0  0  1  0  0  0  0  0  0  0  0  0
   19.4878  -10.5317  -15.2814 C   0  0  0  0  0  0  0  0  0  0  0  0
   19.7607  -10.6480  -14.0591 O   0  0  0  0  0  0  0  0  0  0  0  0
   20.2815   -9.6893  -16.0861 N   0  0  0  0  0  0  0  0  0  0  0  0
   21.4367   -9.0376  -15.5434 C   0  0  1  0  0  0  0  0  0  0  0  0
   22.7061   -9.3902  -16.2852 C   0  0  0  0  0  0  0  0  0  0  0  0
   23.9378  -10.1754  -15.2520 S   0  0  0  0  0  0  0  0  0  0  0  0
   21.2603   -7.5573  -15.5375 C   0  0  0  0  0  0  0  0  0  0  0  0
   20.6081   -7.0215  -16.4406 O   0  0  0  0  0  0  0  0  0  0  0  0
   16.6440   -6.4659  -10.5499 O   0  0  0  0  0  0  0  0  0  0  0  0
   17.8247   -6.0823  -11.1677 C   0  0  0  0  0  0  0  0  0  0  0  0
   19.0509   -6.4826  -10.6685 C   0  0  0  0  0  0  0  0  0  0  0  0
   20.2503   -6.1316  -11.2407 C   0  0  0  0  0  0  0  0  0  0  0  0
   20.2474   -5.3319  -12.3825 C   0  0  0  0  0  0  0  0  0  0  0  0
   21.5362   -4.9402  -12.9706 C   0  0  0  0  0  0  0  0  0  0  0  0
   21.6473   -5.3638  -14.3941 C   0  0  2  0  0  0  0  0  0  0  0  0
   21.8375   -6.8058  -14.5085 N   0  0  0  0  0  0  0  0  0  0  0  0
   22.6991   -4.6358  -15.1325 C   0  0  0  0  0  0  0  0  0  0  0  0
   23.7071   -5.2926  -15.5288 O   0  0  0  0  0  0  0  0  0  0  0  0
   19.0168   -4.9272  -12.8877 C   0  0  0  0  0  0  0  0  0  0  0  0
   17.8225   -5.2851  -12.3060 C   0  0  0  0  0  0  0  0  0  0  0  0
   22.5879   -3.2720  -15.3886 O   0  0  0  0  0  0  0  0  0  0  0  0
  1  2  1  0
  3  2  1  0
  4  3  1  0
  4  5  1  0
  5  6  1  6
  5  1  1  0
  6  7  2  0
  8  6  1  0
  8  9  1  0
  9 10  1  6
 11 10  1  0
 12 21  1  0
 12  9  1  0
 13 12  2  0
 15 14  1  0
 16 15  2  0
 17 16  1  0
 18 24  1  0
 18 17  2  0
 19 18  1  0
 20 21  1  0
 20 19  1  1
 22 26  1  0
 22 20  1  0
 23 22  2  0
 24 25  2  0
 25 15  1  0
M  END
$$$$
