PCY.pdb
     RDKit          3D

 26 27  0  0  1  0  0  0  0  0999 V2000
   23.1770  -19.7588  -21.0251 N   0  0  0  0  0  0  0  0  0  0  0  0
   23.1877  -19.9093  -22.4514 C   0  0  0  0  0  0  0  0  0  0  0  0
   23.6156  -18.5928  -23.0483 C   0  0  0  0  0  0  0  0  0  0  0  0
   23.2967  -17.6195  -21.9144 C   0  0  0  0  0  0  0  0  0  0  0  0
   23.6621  -18.4520  -20.7063 C   0  0  1  0  0  0  0  0  0  0  0  0
   22.9433  -17.8753  -19.5144 C   0  0  0  0  0  0  0  0  0  0  0  0
   23.2300  -16.7089  -19.1410 O   0  0  0  0  0  0  0  0  0  0  0  0
   21.9630  -18.6018  -18.8086 N   0  0  0  0  0  0  0  0  0  0  0  0
   21.2704  -18.0095  -17.7027 C   0  0  1  0  0  0  0  0  0  0  0  0
   19.8339  -17.6695  -18.0301 C   0  0  0  0  0  0  0  0  0  0  0  0
   18.7971  -19.1099  -18.2570 S   0  0  0  0  0  0  0  0  0  0  0  0
   21.3094  -18.9020  -16.5093 C   0  0  0  0  0  0  0  0  0  0  0  0
   21.2687  -20.1273  -16.6677 O   0  0  0  0  0  0  0  0  0  0  0  0
   22.6361  -21.6295   -8.2593 O   0  0  0  0  0  0  0  0  0  0  0  0
   22.4872  -20.8443   -9.3926 C   0  0  0  0  0  0  0  0  0  0  0  0
   23.4442  -20.8484  -10.3910 C   0  0  0  0  0  0  0  0  0  0  0  0
   23.3468  -20.0904  -11.5335 C   0  0  0  0  0  0  0  0  0  0  0  0
   22.2330  -19.2710  -11.7095 C   0  0  0  0  0  0  0  0  0  0  0  0
   22.1520  -18.4444  -12.9221 C   0  0  0  0  0  0  0  0  0  0  0  0
   21.4242  -19.1403  -14.0195 C   0  0  2  0  0  0  0  0  0  0  0  0
   21.3913  -18.3327  -15.2341 N   0  0  0  0  0  0  0  0  0  0  0  0
   20.0625  -19.5615  -13.6327 C   0  0  0  0  0  0  0  0  0  0  0  0
   19.1168  -18.7359  -13.8018 O   0  0  0  0  0  0  0  0  0  0  0  0
   21.2684  -19.2638  -10.7081 C   0  0  0  0  0  0  0  0  0  0  0  0
   21.3770  -20.0271   -9.5686 C   0  0  0  0  0  0  0  0  0  0  0  0
   19.8223  -20.8256  -13.1014 O   0  0  0  0  0  0  0  0  0  0  0  0
  1  2  1  0
  3  2  1  0
  4  3  1  0
  4  5  1  0
  5  6  1  1
  5  1  1  0
  6  7  2  0
  8  6  1  0
  8  9  1  0
  9 10  1  6
 11 10  1  0
 12 21  1  0
 12  9  1  0
 13 12  2  0
 15 14  1  0
 16 15  2  0
 17 16  1  0
 18 24  1  0
 18 17  2  0
 19 18  1  0
 20 21  1  0
 20 19  1  1
 22 26  1  0
 22 20  1  0
 23 22  2  0
 24 25  2  0
 25 15  1  0
M  END
$$$$
