PCY.pdb
     RDKit          3D

 26 27  0  0  1  0  0  0  0  0999 V2000
   17.4315  -13.1583    5.7831 N   0  0  0  0  0  0  0  0  0  0  0  0
   17.3996  -11.7554    5.4865 C   0  0  0  0  0  0  0  0  0  0  0  0
   18.3980  -11.4963    4.3871 C   0  0  0  0  0  0  0  0  0  0  0  0
   19.3198  -12.7083    4.5127 C   0  0  0  0  0  0  0  0  0  0  0  0
   18.3267  -13.7925    4.8660 C   0  0  1  0  0  0  0  0  0  0  0  0
   19.0848  -14.9147    5.5261 C   0  0  0  0  0  0  0  0  0  0  0  0
   20.0219  -15.4660    4.8938 O   0  0  0  0  0  0  0  0  0  0  0  0
   18.7756  -15.3629    6.8264 N   0  0  0  0  0  0  0  0  0  0  0  0
   19.5299  -16.4196    7.4331 C   0  0  1  0  0  0  0  0  0  0  0  0
   19.5665  -16.3170    8.9412 C   0  0  0  0  0  0  0  0  0  0  0  0
   20.4503  -14.8788    9.5340 S   0  0  0  0  0  0  0  0  0  0  0  0
   18.9918  -17.7529    7.0394 C   0  0  0  0  0  0  0  0  0  0  0  0
   17.7688  -17.9326    7.0264 O   0  0  0  0  0  0  0  0  0  0  0  0
   18.4770  -25.7830    3.6050 O   0  0  0  0  0  0  0  0  0  0  0  0
   18.9456  -24.5471    4.0248 C   0  0  0  0  0  0  0  0  0  0  0  0
   19.7456  -24.4340    5.1473 C   0  0  0  0  0  0  0  0  0  0  0  0
   20.2368  -23.2354    5.6069 C   0  0  0  0  0  0  0  0  0  0  0  0
   19.9214  -22.0655    4.9178 C   0  0  0  0  0  0  0  0  0  0  0  0
   20.4295  -20.7863    5.4334 C   0  0  0  0  0  0  0  0  0  0  0  0
   19.4332  -20.1060    6.3068 C   0  0  2  0  0  0  0  0  0  0  0  0
   19.8838  -18.7731    6.6927 N   0  0  0  0  0  0  0  0  0  0  0  0
   19.0700  -20.9018    7.4968 C   0  0  0  0  0  0  0  0  0  0  0  0
   18.0183  -21.6055    7.4403 O   0  0  0  0  0  0  0  0  0  0  0  0
   19.1173  -22.1747    3.7887 C   0  0  0  0  0  0  0  0  0  0  0  0
   18.6315  -23.3804    3.3382 C   0  0  0  0  0  0  0  0  0  0  0  0
   19.8578  -20.8834    8.6444 O   0  0  0  0  0  0  0  0  0  0  0  0
  1  2  1  0
  3  2  1  0
  4  3  1  0
  4  5  1  0
  5  6  1  1
  5  1  1  0
  6  7  2  0
  8  6  1  0
  8  9  1  0
  9 10  1  1
 11 10  1  0
 12 21  1  0
 12  9  1  0
 13 12  2  0
 15 14  1  0
 16 15  2  0
 17 16  1  0
 18 24  1  0
 18 17  2  0
 19 18  1  0
 20 21  1  0
 20 19  1  1
 22 26  1  0
 22 20  1  0
 23 22  2  0
 24 25  2  0
 25 15  1  0
M  END
$$$$
