PCY.pdb
     RDKit          3D

 26 27  0  0  1  0  0  0  0  0999 V2000
   23.8698  -14.3556  -17.2226 N   0  0  0  0  0  0  0  0  0  0  0  0
   24.7303  -15.5004  -17.2989 C   0  0  0  0  0  0  0  0  0  0  0  0
   24.0962  -16.6054  -16.4931 C   0  0  0  0  0  0  0  0  0  0  0  0
   23.1686  -15.8210  -15.5664 C   0  0  0  0  0  0  0  0  0  0  0  0
   22.6969  -14.7216  -16.4911 C   0  0  1  0  0  0  0  0  0  0  0  0
   22.2038  -13.5817  -15.6382 C   0  0  0  0  0  0  0  0  0  0  0  0
   21.2113  -13.7715  -14.8893 O   0  0  0  0  0  0  0  0  0  0  0  0
   22.8199  -12.3139  -15.6552 N   0  0  0  0  0  0  0  0  0  0  0  0
   22.3361  -11.2558  -14.8186 C   0  0  1  0  0  0  0  0  0  0  0  0
   23.4496  -10.5206  -14.1074 C   0  0  0  0  0  0  0  0  0  0  0  0
   22.8721   -9.1590  -13.1007 S   0  0  0  0  0  0  0  0  0  0  0  0
   21.5228  -10.2844  -15.6042 C   0  0  0  0  0  0  0  0  0  0  0  0
   22.0007   -9.7827  -16.6280 O   0  0  0  0  0  0  0  0  0  0  0  0
   14.6218   -6.1614  -19.0261 O   0  0  0  0  0  0  0  0  0  0  0  0
   15.4260   -6.9436  -18.2109 C   0  0  0  0  0  0  0  0  0  0  0  0
   16.3412   -7.8278  -18.7527 C   0  0  0  0  0  0  0  0  0  0  0  0
   17.1620   -8.6257  -17.9919 C   0  0  0  0  0  0  0  0  0  0  0  0
   17.0798   -8.5516  -16.6023 C   0  0  0  0  0  0  0  0  0  0  0  0
   17.9428   -9.4287  -15.7986 C   0  0  0  0  0  0  0  0  0  0  0  0
   19.3749   -9.0292  -15.8870 C   0  0  2  0  0  0  0  0  0  0  0  0
   20.2345   -9.9612  -15.1652 N   0  0  0  0  0  0  0  0  0  0  0  0
   19.6156   -7.6416  -15.4422 C   0  0  0  0  0  0  0  0  0  0  0  0
   19.8535   -7.4464  -14.2135 O   0  0  0  0  0  0  0  0  0  0  0  0
   16.1610   -7.6640  -16.0535 C   0  0  0  0  0  0  0  0  0  0  0  0
   15.3446   -6.8702  -16.8255 C   0  0  0  0  0  0  0  0  0  0  0  0
   19.5853   -6.5803  -16.3425 O   0  0  0  0  0  0  0  0  0  0  0  0
  1  2  1  0
  3  2  1  0
  4  3  1  0
  4  5  1  0
  5  6  1  1
  5  1  1  0
  6  7  2  0
  8  6  1  0
  8  9  1  0
  9 10  1  6
 11 10  1  0
 12 21  1  0
 12  9  1  0
 13 12  2  0
 15 14  1  0
 16 15  2  0
 17 16  1  0
 18 24  1  0
 18 17  2  0
 19 18  1  0
 20 21  1  0
 20 19  1  1
 22 26  1  0
 22 20  1  0
 23 22  2  0
 24 25  2  0
 25 15  1  0
M  END
$$$$
