PEM.pdb
     RDKit          3D

 25 25  0  0  1  0  0  0  0  0999 V2000
    8.2802  -14.7594   17.8551 N   0  0  0  0  0  0  0  0  0  0  0  0
    7.0920  -13.9547   17.9322 C   0  0  0  0  0  0  0  0  0  0  0  0
    7.6936  -12.5748   18.2190 C   0  0  0  0  0  0  0  0  0  0  0  0
    8.6991  -12.9441   19.3039 C   0  0  0  0  0  0  0  0  0  0  0  0
    9.0609  -14.3941   18.9851 C   0  0  1  0  0  0  0  0  0  0  0  0
    8.8349  -15.1738   20.2043 C   0  0  0  0  0  0  0  0  0  0  0  0
    7.7393  -15.1558   20.8435 O   0  0  0  0  0  0  0  0  0  0  0  0
    9.8498  -15.9878   20.7184 N   0  0  0  0  0  0  0  0  0  0  0  0
    9.6537  -16.8394   21.9036 C   0  0  1  0  0  0  0  0  0  0  0  0
   10.8480  -17.7427   21.9585 C   0  0  0  0  0  0  0  0  0  0  0  0
   10.8574  -18.6700   23.1394 C   0  0  0  0  0  0  0  0  0  0  0  0
   12.0890  -19.5087   23.1792 C   0  0  0  0  0  0  0  0  0  0  0  0
   12.3826  -20.0515   24.2842 O   0  0  0  0  0  0  0  0  0  0  0  0
    9.7236  -15.9192   23.0826 C   0  0  0  0  0  0  0  0  0  0  0  0
   10.6352  -15.0300   23.1457 O   0  0  0  0  0  0  0  0  0  0  0  0
   12.8980  -19.6974   22.0470 O   0  0  0  0  0  0  0  0  0  0  0  0
    6.0797  -11.0442   27.7868 C   0  0  0  0  0  0  0  0  0  0  0  0
    6.1004  -12.2752   26.4815 S   0  0  0  0  0  0  0  0  0  0  0  0
    7.6387  -13.2491   26.4950 C   0  0  0  0  0  0  0  0  0  0  0  0
    7.6238  -14.1980   25.3358 C   0  0  0  0  0  0  0  0  0  0  0  0
    8.8535  -15.0260   25.2921 C   0  0  2  0  0  0  0  0  0  0  0  0
    8.8111  -15.9745   24.1695 N   0  0  0  0  0  0  0  0  0  0  0  0
    9.1031  -15.7263   26.5521 C   0  0  0  0  0  0  0  0  0  0  0  0
    9.1208  -16.9566   26.7548 O   0  0  0  0  0  0  0  0  0  0  0  0
    9.3605  -14.9448   27.7076 O   0  0  0  0  0  0  0  0  0  0  0  0
  1  2  1  0
  3  2  1  0
  4  3  1  0
  5  4  1  0
  5  1  1  0
  5  6  1  1
  6  7  2  0
  8  6  1  0
  9  8  1  0
  9 10  1  1
 11 10  1  0
 12 11  1  0
 13 12  2  0
 14  9  1  0
 15 14  2  0
 16 12  1  0
 18 17  1  0
 19 18  1  0
 20 19  1  0
 21 22  1  0
 21 20  1  1
 22 14  1  0
 23 21  1  0
 24 23  2  0
 25 23  1  0
M  END
$$$$
