PEM.pdb
     RDKit          3D

 25 25  0  0  1  0  0  0  0  0999 V2000
    8.1630  -14.4658   17.9209 N   0  0  0  0  0  0  0  0  0  0  0  0
    7.0055  -13.6424   18.1385 C   0  0  0  0  0  0  0  0  0  0  0  0
    7.6615  -12.3277   18.5736 C   0  0  0  0  0  0  0  0  0  0  0  0
    8.6869  -12.8596   19.5688 C   0  0  0  0  0  0  0  0  0  0  0  0
    8.9898  -14.2682   19.0600 C   0  0  1  0  0  0  0  0  0  0  0  0
    8.7751  -15.1875   20.1799 C   0  0  0  0  0  0  0  0  0  0  0  0
    7.6249  -15.4604   20.6398 O   0  0  0  0  0  0  0  0  0  0  0  0
    9.8638  -15.8130   20.7966 N   0  0  0  0  0  0  0  0  0  0  0  0
    9.7006  -16.7673   21.9062 C   0  0  1  0  0  0  0  0  0  0  0  0
   10.9706  -17.5614   21.9509 C   0  0  0  0  0  0  0  0  0  0  0  0
   11.0132  -18.5818   23.0516 C   0  0  0  0  0  0  0  0  0  0  0  0
   11.6762  -19.8438   22.6158 C   0  0  0  0  0  0  0  0  0  0  0  0
   12.2042  -19.8512   21.4655 O   0  0  0  0  0  0  0  0  0  0  0  0
    9.6376  -15.9378   23.1510 C   0  0  0  0  0  0  0  0  0  0  0  0
   10.5328  -15.0591   23.3791 O   0  0  0  0  0  0  0  0  0  0  0  0
   11.7206  -20.9829   23.4357 O   0  0  0  0  0  0  0  0  0  0  0  0
    6.4511  -11.2761   28.0193 C   0  0  0  0  0  0  0  0  0  0  0  0
    6.4234  -12.3252   26.5639 S   0  0  0  0  0  0  0  0  0  0  0  0
    7.1698  -13.9536   26.8900 C   0  0  0  0  0  0  0  0  0  0  0  0
    7.2264  -14.7280   25.6088 C   0  0  0  0  0  0  0  0  0  0  0  0
    8.5824  -15.2753   25.3610 C   0  0  2  0  0  0  0  0  0  0  0  0
    8.6124  -16.0707   24.1249 N   0  0  0  0  0  0  0  0  0  0  0  0
    9.0871  -16.0558   26.4908 C   0  0  0  0  0  0  0  0  0  0  0  0
    9.1811  -17.2957   26.5849 O   0  0  0  0  0  0  0  0  0  0  0  0
    9.5335  -15.3520   27.6387 O   0  0  0  0  0  0  0  0  0  0  0  0
  1  2  1  0
  3  2  1  0
  4  3  1  0
  5  4  1  0
  5  1  1  0
  5  6  1  1
  6  7  2  0
  8  6  1  0
  9  8  1  0
  9 10  1  1
 11 10  1  0
 12 11  1  0
 13 12  2  0
 14  9  1  0
 15 14  2  0
 16 12  1  0
 18 17  1  0
 19 18  1  0
 20 19  1  0
 21 22  1  0
 21 20  1  1
 22 14  1  0
 23 21  1  0
 24 23  2  0
 25 23  1  0
M  END
$$$$
