PEM.pdb
     RDKit          3D

 25 25  0  0  1  0  0  0  0  0999 V2000
    9.4973  -14.0216   18.3926 N   0  0  0  0  0  0  0  0  0  0  0  0
    8.6008  -14.6095   17.4357 C   0  0  0  0  0  0  0  0  0  0  0  0
    7.4504  -13.5973   17.4548 C   0  0  0  0  0  0  0  0  0  0  0  0
    7.2904  -13.4062   18.9590 C   0  0  0  0  0  0  0  0  0  0  0  0
    8.6890  -13.6791   19.5104 C   0  0  1  0  0  0  0  0  0  0  0  0
    8.5523  -14.7059   20.5461 C   0  0  0  0  0  0  0  0  0  0  0  0
    7.4972  -14.8586   21.2334 O   0  0  0  0  0  0  0  0  0  0  0  0
    9.6121  -15.5773   20.8186 N   0  0  0  0  0  0  0  0  0  0  0  0
    9.5605  -16.5653   21.9093 C   0  0  1  0  0  0  0  0  0  0  0  0
   10.9276  -17.1757   21.9712 C   0  0  0  0  0  0  0  0  0  0  0  0
   10.9220  -18.6684   22.1337 C   0  0  0  0  0  0  0  0  0  0  0  0
   12.1304  -19.2988   21.5300 C   0  0  0  0  0  0  0  0  0  0  0  0
   11.9391  -20.2217   20.6852 O   0  0  0  0  0  0  0  0  0  0  0  0
    9.3565  -15.7757   23.1649 C   0  0  0  0  0  0  0  0  0  0  0  0
    9.9633  -14.6663   23.3275 O   0  0  0  0  0  0  0  0  0  0  0  0
   13.4308  -18.8961   21.8742 O   0  0  0  0  0  0  0  0  0  0  0  0
    6.8818  -11.2318   27.6964 C   0  0  0  0  0  0  0  0  0  0  0  0
    7.1434  -12.2918   26.2726 S   0  0  0  0  0  0  0  0  0  0  0  0
    6.5578  -13.9889   26.5765 C   0  0  0  0  0  0  0  0  0  0  0  0
    6.8513  -14.8278   25.3704 C   0  0  0  0  0  0  0  0  0  0  0  0
    8.2332  -15.3654   25.4024 C   0  0  2  0  0  0  0  0  0  0  0  0
    8.5035  -16.1961   24.2198 N   0  0  0  0  0  0  0  0  0  0  0  0
    8.5184  -16.1063   26.6312 C   0  0  0  0  0  0  0  0  0  0  0  0
    8.4377  -17.3362   26.8211 O   0  0  0  0  0  0  0  0  0  0  0  0
    8.9411  -15.3709   27.7682 O   0  0  0  0  0  0  0  0  0  0  0  0
  1  2  1  0
  3  2  1  0
  4  3  1  0
  5  4  1  0
  5  1  1  0
  5  6  1  1
  6  7  2  0
  8  6  1  0
  9  8  1  0
  9 10  1  1
 11 10  1  0
 12 11  1  0
 13 12  2  0
 14  9  1  0
 15 14  2  0
 16 12  1  0
 18 17  1  0
 19 18  1  0
 20 19  1  0
 21 22  1  0
 21 20  1  1
 22 14  1  0
 23 21  1  0
 24 23  2  0
 25 23  1  0
M  END
$$$$
