PEM.pdb
     RDKit          3D

 25 25  0  0  1  0  0  0  0  0999 V2000
    8.1702  -14.6447   18.0373 N   0  0  0  0  0  0  0  0  0  0  0  0
    7.0216  -13.8056   18.2416 C   0  0  0  0  0  0  0  0  0  0  0  0
    7.6934  -12.4650   18.5577 C   0  0  0  0  0  0  0  0  0  0  0  0
    8.7571  -12.9281   19.5469 C   0  0  0  0  0  0  0  0  0  0  0  0
    9.0407  -14.3696   19.1266 C   0  0  1  0  0  0  0  0  0  0  0  0
    8.8705  -15.2077   20.3157 C   0  0  0  0  0  0  0  0  0  0  0  0
    7.7342  -15.5522   20.7620 O   0  0  0  0  0  0  0  0  0  0  0  0
    9.9886  -15.6694   21.0182 N   0  0  0  0  0  0  0  0  0  0  0  0
    9.8861  -16.6672   22.0963 C   0  0  1  0  0  0  0  0  0  0  0  0
   11.2209  -17.3460   22.1516 C   0  0  0  0  0  0  0  0  0  0  0  0
   11.3159  -18.4199   23.1967 C   0  0  0  0  0  0  0  0  0  0  0  0
   12.6412  -19.1019   23.1756 C   0  0  0  0  0  0  0  0  0  0  0  0
   13.3673  -18.9214   22.1547 O   0  0  0  0  0  0  0  0  0  0  0  0
    9.7201  -15.8842   23.3617 C   0  0  0  0  0  0  0  0  0  0  0  0
   10.4598  -14.8706   23.5874 O   0  0  0  0  0  0  0  0  0  0  0  0
   13.0784  -19.9124   24.2357 O   0  0  0  0  0  0  0  0  0  0  0  0
    7.1374  -11.1378   27.8961 C   0  0  0  0  0  0  0  0  0  0  0  0
    7.3500  -12.1557   26.4339 S   0  0  0  0  0  0  0  0  0  0  0  0
    7.0047  -13.9105   26.7757 C   0  0  0  0  0  0  0  0  0  0  0  0
    7.2455  -14.7053   25.5288 C   0  0  0  0  0  0  0  0  0  0  0  0
    8.5605  -15.3903   25.5635 C   0  0  2  0  0  0  0  0  0  0  0  0
    8.7614  -16.2079   24.3582 N   0  0  0  0  0  0  0  0  0  0  0  0
    8.7416  -16.1958   26.7713 C   0  0  0  0  0  0  0  0  0  0  0  0
    8.5985  -15.8408   27.9581 O   0  0  0  0  0  0  0  0  0  0  0  0
    9.1273  -17.5519   26.6145 O   0  0  0  0  0  0  0  0  0  0  0  0
  1  2  1  0
  3  2  1  0
  4  3  1  0
  5  4  1  0
  5  1  1  0
  5  6  1  1
  6  7  2  0
  8  6  1  0
  9  8  1  0
  9 10  1  1
 11 10  1  0
 12 11  1  0
 13 12  2  0
 14  9  1  0
 15 14  2  0
 16 12  1  0
 18 17  1  0
 19 18  1  0
 20 19  1  0
 21 22  1  0
 21 20  1  6
 22 14  1  0
 23 21  1  0
 24 23  2  0
 25 23  1  0
M  END
$$$$
