PEM.pdb
     RDKit          3D

 25 25  0  0  1  0  0  0  0  0999 V2000
    9.3620  -14.4467   18.5339 N   0  0  0  0  0  0  0  0  0  0  0  0
    8.1958  -14.6055   17.7092 C   0  0  0  0  0  0  0  0  0  0  0  0
    7.7077  -13.1560   17.6137 C   0  0  0  0  0  0  0  0  0  0  0  0
    7.8247  -12.7399   19.0758 C   0  0  0  0  0  0  0  0  0  0  0  0
    8.9540  -13.6174   19.6137 C   0  0  1  0  0  0  0  0  0  0  0  0
    8.4378  -14.3081   20.7977 C   0  0  0  0  0  0  0  0  0  0  0  0
    7.7705  -13.7225   21.7038 O   0  0  0  0  0  0  0  0  0  0  0  0
    8.6706  -15.6763   20.9728 N   0  0  0  0  0  0  0  0  0  0  0  0
    8.1173  -16.4315   22.1094 C   0  0  1  0  0  0  0  0  0  0  0  0
    8.5127  -17.8588   21.8815 C   0  0  0  0  0  0  0  0  0  0  0  0
    9.9966  -18.0759   21.8073 C   0  0  0  0  0  0  0  0  0  0  0  0
   10.3402  -19.5139   21.6167 C   0  0  0  0  0  0  0  0  0  0  0  0
    9.3791  -20.3195   21.4462 O   0  0  0  0  0  0  0  0  0  0  0  0
    8.8512  -15.9428   23.3194 C   0  0  0  0  0  0  0  0  0  0  0  0
   10.1005  -15.6970   23.2527 O   0  0  0  0  0  0  0  0  0  0  0  0
   11.6686  -19.9691   21.6237 O   0  0  0  0  0  0  0  0  0  0  0  0
    5.7455  -12.0466   26.6721 C   0  0  0  0  0  0  0  0  0  0  0  0
    7.4193  -11.5495   26.2589 S   0  0  0  0  0  0  0  0  0  0  0  0
    8.3566  -12.9065   25.4873 C   0  0  0  0  0  0  0  0  0  0  0  0
    8.3092  -14.1034   26.3870 C   0  0  0  0  0  0  0  0  0  0  0  0
    8.9647  -15.2798   25.7656 C   0  0  2  0  0  0  0  0  0  0  0  0
    8.2258  -15.7283   24.5763 N   0  0  0  0  0  0  0  0  0  0  0  0
    9.1465  -16.3835   26.7085 C   0  0  0  0  0  0  0  0  0  0  0  0
    8.6254  -17.5158   26.6730 O   0  0  0  0  0  0  0  0  0  0  0  0
   10.0144  -16.1794   27.8119 O   0  0  0  0  0  0  0  0  0  0  0  0
  1  2  1  0
  3  2  1  0
  4  3  1  0
  5  4  1  0
  5  1  1  0
  5  6  1  1
  6  7  2  0
  8  6  1  0
  9  8  1  0
  9 10  1  6
 11 10  1  0
 12 11  1  0
 13 12  2  0
 14  9  1  0
 15 14  2  0
 16 12  1  0
 18 17  1  0
 19 18  1  0
 20 19  1  0
 21 22  1  0
 21 20  1  1
 22 14  1  0
 23 21  1  0
 24 23  2  0
 25 23  1  0
M  END
$$$$
