PEM.pdb
     RDKit          3D

 25 25  0  0  1  0  0  0  0  0999 V2000
    9.5410  -13.9892   18.9045 N   0  0  0  0  0  0  0  0  0  0  0  0
    8.6802  -14.2805   17.7913 C   0  0  0  0  0  0  0  0  0  0  0  0
    7.7277  -13.0810   17.8386 C   0  0  0  0  0  0  0  0  0  0  0  0
    7.4207  -13.0449   19.3316 C   0  0  0  0  0  0  0  0  0  0  0  0
    8.6736  -13.6382   19.9743 C   0  0  1  0  0  0  0  0  0  0  0  0
    8.2369  -14.7379   20.8376 C   0  0  0  0  0  0  0  0  0  0  0  0
    7.0377  -14.8771   21.2269 O   0  0  0  0  0  0  0  0  0  0  0  0
    9.1552  -15.6989   21.2735 N   0  0  0  0  0  0  0  0  0  0  0  0
    8.7565  -16.8581   22.0893 C   0  0  1  0  0  0  0  0  0  0  0  0
    9.8255  -17.8880   21.8839 C   0  0  0  0  0  0  0  0  0  0  0  0
    9.5797  -19.1761   22.6153 C   0  0  0  0  0  0  0  0  0  0  0  0
   10.8519  -19.8727   22.9594 C   0  0  0  0  0  0  0  0  0  0  0  0
   11.1036  -20.0416   24.1882 O   0  0  0  0  0  0  0  0  0  0  0  0
    8.8323  -16.4001   23.5127 C   0  0  0  0  0  0  0  0  0  0  0  0
    8.4426  -17.1684   24.4526 O   0  0  0  0  0  0  0  0  0  0  0  0
   11.7420  -20.3273   21.9731 O   0  0  0  0  0  0  0  0  0  0  0  0
    6.1362  -10.7738   26.4467 C   0  0  0  0  0  0  0  0  0  0  0  0
    5.9615  -12.5284   26.7789 S   0  0  0  0  0  0  0  0  0  0  0  0
    7.5665  -13.3871   26.7393 C   0  0  0  0  0  0  0  0  0  0  0  0
    7.8214  -13.8776   25.3469 C   0  0  0  0  0  0  0  0  0  0  0  0
    9.1300  -14.5678   25.2421 C   0  0  2  0  0  0  0  0  0  0  0  0
    9.3263  -15.1248   23.8957 N   0  0  0  0  0  0  0  0  0  0  0  0
    9.3005  -15.6041   26.2606 C   0  0  0  0  0  0  0  0  0  0  0  0
    9.5768  -15.4547   27.4674 O   0  0  0  0  0  0  0  0  0  0  0  0
    9.1402  -16.9571   25.8660 O   0  0  0  0  0  0  0  0  0  0  0  0
  1  2  1  0
  3  2  1  0
  4  3  1  0
  5  4  1  0
  5  1  1  0
  5  6  1  6
  6  7  2  0
  8  6  1  0
  9  8  1  0
  9 10  1  1
 11 10  1  0
 12 11  1  0
 13 12  2  0
 14  9  1  0
 15 14  2  0
 16 12  1  0
 18 17  1  0
 19 18  1  0
 20 19  1  0
 21 22  1  0
 21 20  1  6
 22 14  1  0
 23 21  1  0
 24 23  2  0
 25 23  1  0
M  END
$$$$
