PEM.pdb
     RDKit          3D

 25 25  0  0  1  0  0  0  0  0999 V2000
    8.2572  -14.6809   18.3909 N   0  0  0  0  0  0  0  0  0  0  0  0
    7.0672  -13.8781   18.4567 C   0  0  0  0  0  0  0  0  0  0  0  0
    7.6642  -12.4961   18.7433 C   0  0  0  0  0  0  0  0  0  0  0  0
    8.6625  -12.8600   19.8367 C   0  0  0  0  0  0  0  0  0  0  0  0
    9.0291  -14.3104   19.5254 C   0  0  1  0  0  0  0  0  0  0  0  0
    8.7956  -15.0864   20.7455 C   0  0  0  0  0  0  0  0  0  0  0  0
    7.7081  -15.0403   21.3969 O   0  0  0  0  0  0  0  0  0  0  0  0
    9.7937  -15.9287   21.2467 N   0  0  0  0  0  0  0  0  0  0  0  0
    9.6101  -16.7293   22.4688 C   0  0  1  0  0  0  0  0  0  0  0  0
   10.7586  -17.6912   22.5023 C   0  0  0  0  0  0  0  0  0  0  0  0
   10.7379  -18.6246   23.6783 C   0  0  0  0  0  0  0  0  0  0  0  0
   11.9321  -19.5165   23.7024 C   0  0  0  0  0  0  0  0  0  0  0  0
   12.7705  -19.3844   22.7634 O   0  0  0  0  0  0  0  0  0  0  0  0
    9.7809  -15.7755   23.6102 C   0  0  0  0  0  0  0  0  0  0  0  0
   10.6068  -14.8087   23.5166 O   0  0  0  0  0  0  0  0  0  0  0  0
   12.1312  -20.4667   24.7170 O   0  0  0  0  0  0  0  0  0  0  0  0
    5.4627  -12.2863   25.8321 C   0  0  0  0  0  0  0  0  0  0  0  0
    6.2928  -12.4194   27.4172 S   0  0  0  0  0  0  0  0  0  0  0  0
    7.9022  -13.2579   27.2694 C   0  0  0  0  0  0  0  0  0  0  0  0
    7.8768  -14.1505   26.0665 C   0  0  0  0  0  0  0  0  0  0  0  0
    9.1576  -14.8796   25.9005 C   0  0  2  0  0  0  0  0  0  0  0  0
    9.0593  -15.8814   24.8288 N   0  0  0  0  0  0  0  0  0  0  0  0
    9.6170  -15.4966   27.1450 C   0  0  0  0  0  0  0  0  0  0  0  0
    9.7928  -14.9504   28.2521 O   0  0  0  0  0  0  0  0  0  0  0  0
    9.9087  -16.8848   27.1308 O   0  0  0  0  0  0  0  0  0  0  0  0
  1  2  1  0
  3  2  1  0
  4  3  1  0
  5  4  1  0
  5  1  1  0
  5  6  1  1
  6  7  2  0
  8  6  1  0
  9  8  1  0
  9 10  1  1
 11 10  1  0
 12 11  1  0
 13 12  2  0
 14  9  1  0
 15 14  2  0
 16 12  1  0
 18 17  1  0
 19 18  1  0
 20 19  1  0
 21 22  1  0
 21 20  1  1
 22 14  1  0
 23 21  1  0
 24 23  2  0
 25 23  1  0
M  END
$$$$
