PEM.pdb
     RDKit          3D

 25 25  0  0  1  0  0  0  0  0999 V2000
    8.0572  -14.5605   18.2273 N   0  0  0  0  0  0  0  0  0  0  0  0
    6.8809  -13.7909   18.5262 C   0  0  0  0  0  0  0  0  0  0  0  0
    7.5040  -12.4440   18.9082 C   0  0  0  0  0  0  0  0  0  0  0  0
    8.6231  -12.9206   19.8275 C   0  0  0  0  0  0  0  0  0  0  0  0
    8.9544  -14.3167   19.3023 C   0  0  1  0  0  0  0  0  0  0  0  0
    8.8656  -15.2377   20.4378 C   0  0  0  0  0  0  0  0  0  0  0  0
    7.7628  -15.6022   20.9480 O   0  0  0  0  0  0  0  0  0  0  0  0
   10.0283  -15.7610   21.0133 N   0  0  0  0  0  0  0  0  0  0  0  0
    9.9926  -16.7409   22.1118 C   0  0  1  0  0  0  0  0  0  0  0  0
   11.3704  -17.3261   22.1808 C   0  0  0  0  0  0  0  0  0  0  0  0
   11.5427  -18.3542   23.2615 C   0  0  0  0  0  0  0  0  0  0  0  0
   12.8692  -19.0295   23.1813 C   0  0  0  0  0  0  0  0  0  0  0  0
   13.8943  -18.3138   23.3780 O   0  0  0  0  0  0  0  0  0  0  0  0
    9.7723  -15.9451   23.3608 C   0  0  0  0  0  0  0  0  0  0  0  0
   10.3774  -14.8351   23.5260 O   0  0  0  0  0  0  0  0  0  0  0  0
   12.9910  -20.4000   22.9006 O   0  0  0  0  0  0  0  0  0  0  0  0
    7.1759  -10.9618   26.3308 C   0  0  0  0  0  0  0  0  0  0  0  0
    6.2161  -12.4768   26.2768 S   0  0  0  0  0  0  0  0  0  0  0  0
    7.2155  -13.9272   26.7380 C   0  0  0  0  0  0  0  0  0  0  0  0
    7.4325  -14.7748   25.5219 C   0  0  0  0  0  0  0  0  0  0  0  0
    8.6860  -15.5613   25.6211 C   0  0  2  0  0  0  0  0  0  0  0  0
    8.9052  -16.3599   24.4063 N   0  0  0  0  0  0  0  0  0  0  0  0
    8.7226  -16.4103   26.8120 C   0  0  0  0  0  0  0  0  0  0  0  0
    8.4848  -16.0859   27.9923 O   0  0  0  0  0  0  0  0  0  0  0  0
    9.0668  -17.7762   26.6445 O   0  0  0  0  0  0  0  0  0  0  0  0
  1  2  1  0
  3  2  1  0
  4  3  1  0
  5  4  1  0
  5  1  1  0
  5  6  1  1
  6  7  2  0
  8  6  1  0
  9  8  1  0
  9 10  1  1
 11 10  1  0
 12 11  1  0
 13 12  2  0
 14  9  1  0
 15 14  2  0
 16 12  1  0
 18 17  1  0
 19 18  1  0
 20 19  1  0
 21 22  1  0
 21 20  1  6
 22 14  1  0
 23 21  1  0
 24 23  2  0
 25 23  1  0
M  END
$$$$
