QAN.pdb
     RDKit          3D

 23 22  0  0  1  0  0  0  0  0999 V2000
    6.5193  -19.2370   16.4368 N   0  0  0  0  0  0  0  0  0  0  0  0
    7.8248  -18.9588   16.8964 C   0  0  0  0  0  0  0  0  0  0  0  0
    8.4540  -19.8428   17.5518 O   0  0  0  0  0  0  0  0  0  0  0  0
    8.4991  -17.6870   16.6580 C   0  0  0  0  0  0  0  0  0  0  0  0
    7.7424  -16.6303   15.9385 C   0  0  0  0  0  0  0  0  0  0  0  0
    8.4719  -15.3648   15.6535 C   0  0  2  0  0  0  0  0  0  0  0  0
    9.5913  -15.5124   14.7614 N   0  0  0  0  0  0  0  0  0  0  0  0
    8.8474  -14.7274   16.9623 C   0  0  0  0  0  0  0  0  0  0  0  0
   10.0428  -14.7259   17.3556 O   0  0  0  0  0  0  0  0  0  0  0  0
    6.9922  -12.7647   19.5684 C   0  0  0  0  0  0  0  0  0  0  0  0
    8.2253  -13.3776   19.0182 C   0  0  2  0  0  0  0  0  0  0  0  0
    7.8889  -14.1080   17.8078 N   0  0  0  0  0  0  0  0  0  0  0  0
    8.9015  -14.3114   19.9458 C   0  0  0  0  0  0  0  0  0  0  0  0
    9.3430  -13.8533   21.0270 O   0  0  0  0  0  0  0  0  0  0  0  0
    7.6057  -18.0312   21.6625 N   0  0  0  0  0  0  0  0  0  0  0  0
    8.4935  -18.6742   20.7922 C   0  0  0  0  0  0  0  0  0  0  0  0
    8.3364  -19.8991   20.4757 O   0  0  0  0  0  0  0  0  0  0  0  0
    9.6805  -17.9769   20.1682 C   0  0  0  0  0  0  0  0  0  0  0  0
    9.7132  -16.5467   20.6935 C   0  0  2  0  0  0  0  0  0  0  0  0
    9.0861  -15.6953   19.6976 N   0  0  0  0  0  0  0  0  0  0  0  0
   11.1161  -16.1373   20.9098 C   0  0  0  0  0  0  0  0  0  0  0  0
   11.4848  -15.7640   22.0650 O   0  0  0  0  0  0  0  0  0  0  0  0
   12.0443  -16.1469   19.8866 O   0  0  0  0  0  0  0  0  0  0  0  0
  2  4  1  0
  2  1  1  0
  3  2  2  0
  5  4  1  0
  6  7  1  6
  6  5  1  0
  8  6  1  0
  9  8  2  0
 11 10  1  1
 11 13  1  0
 11 12  1  0
 12  8  1  0
 13 20  1  0
 14 13  2  0
 16 17  2  0
 16 15  1  0
 18 16  1  0
 19 18  1  6
 19 21  1  0
 20 19  1  0
 21 22  2  0
 21 23  1  0
M  END
$$$$
