QAN.pdb
     RDKit          3D

 23 22  0  0  1  0  0  0  0  0999 V2000
   15.6765  -14.9892   17.4328 N   0  0  0  0  0  0  0  0  0  0  0  0
   15.0790  -14.4477   18.5916 C   0  0  0  0  0  0  0  0  0  0  0  0
   15.7834  -14.2770   19.6316 O   0  0  0  0  0  0  0  0  0  0  0  0
   13.6709  -14.0716   18.6602 C   0  0  0  0  0  0  0  0  0  0  0  0
   12.7942  -14.8479   19.5744 C   0  0  0  0  0  0  0  0  0  0  0  0
   11.5631  -15.4348   18.9788 C   0  0  2  0  0  0  0  0  0  0  0  0
   10.8427  -14.5453   18.1068 N   0  0  0  0  0  0  0  0  0  0  0  0
   10.7109  -15.9808   20.0906 C   0  0  0  0  0  0  0  0  0  0  0  0
    9.7119  -15.3389   20.5077 O   0  0  0  0  0  0  0  0  0  0  0  0
    9.9209  -19.2888   21.2779 C   0  0  0  0  0  0  0  0  0  0  0  0
   10.0970  -17.8693   21.6692 C   0  0  2  0  0  0  0  0  0  0  0  0
   10.9863  -17.2251   20.7175 N   0  0  0  0  0  0  0  0  0  0  0  0
   10.6603  -17.6818   23.0245 C   0  0  0  0  0  0  0  0  0  0  0  0
   11.8712  -17.3686   23.1225 O   0  0  0  0  0  0  0  0  0  0  0  0
    7.7141  -15.4064   25.6497 N   0  0  0  0  0  0  0  0  0  0  0  0
    9.0513  -15.7074   25.9329 C   0  0  0  0  0  0  0  0  0  0  0  0
    9.9730  -14.8437   25.7603 O   0  0  0  0  0  0  0  0  0  0  0  0
    9.4957  -17.0521   26.4609 C   0  0  0  0  0  0  0  0  0  0  0  0
   10.5565  -17.6002   25.5139 C   0  0  2  0  0  0  0  0  0  0  0  0
    9.9237  -17.8312   24.2271 N   0  0  0  0  0  0  0  0  0  0  0  0
   11.0912  -18.8652   26.0583 C   0  0  0  0  0  0  0  0  0  0  0  0
   10.8787  -19.9501   25.4358 O   0  0  0  0  0  0  0  0  0  0  0  0
   11.8185  -18.9039   27.2323 O   0  0  0  0  0  0  0  0  0  0  0  0
  2  4  1  0
  2  1  1  0
  3  2  2  0
  5  4  1  0
  6  7  1  1
  6  5  1  0
  8  6  1  0
  9  8  2  0
 11 10  1  6
 11 13  1  0
 11 12  1  0
 12  8  1  0
 13 20  1  0
 14 13  2  0
 16 17  2  0
 16 15  1  0
 18 16  1  0
 19 18  1  1
 19 21  1  0
 20 19  1  0
 21 22  2  0
 21 23  1  0
M  END
$$$$
