QAN.pdb
     RDKit          3D

 23 22  0  0  1  0  0  0  0  0999 V2000
    8.2105  -12.7433   16.1853 N   0  0  0  0  0  0  0  0  0  0  0  0
    7.4661  -13.8891   16.5403 C   0  0  0  0  0  0  0  0  0  0  0  0
    6.4521  -13.7631   17.2906 O   0  0  0  0  0  0  0  0  0  0  0  0
    7.8080  -15.2332   16.0868 C   0  0  0  0  0  0  0  0  0  0  0  0
    9.1164  -15.7924   16.5139 C   0  0  0  0  0  0  0  0  0  0  0  0
    9.1101  -16.6482   17.7314 C   0  0  2  0  0  0  0  0  0  0  0  0
    7.8843  -17.3716   17.9429 N   0  0  0  0  0  0  0  0  0  0  0  0
    9.4995  -15.8003   18.9104 C   0  0  0  0  0  0  0  0  0  0  0  0
   10.5874  -15.1678   18.9143 O   0  0  0  0  0  0  0  0  0  0  0  0
    7.8746  -14.7133   22.0957 C   0  0  0  0  0  0  0  0  0  0  0  0
    9.0799  -14.9934   21.2786 C   0  0  2  0  0  0  0  0  0  0  0  0
    8.6754  -15.6743   20.0602 N   0  0  0  0  0  0  0  0  0  0  0  0
   10.0903  -15.8323   21.9603 C   0  0  0  0  0  0  0  0  0  0  0  0
    9.9397  -17.0774   21.9329 O   0  0  0  0  0  0  0  0  0  0  0  0
   14.0795  -14.2854   21.1437 N   0  0  0  0  0  0  0  0  0  0  0  0
   13.9253  -15.5086   21.8064 C   0  0  0  0  0  0  0  0  0  0  0  0
   14.1197  -16.6149   21.2034 O   0  0  0  0  0  0  0  0  0  0  0  0
   13.5300  -15.6093   23.2618 C   0  0  0  0  0  0  0  0  0  0  0  0
   12.1374  -16.2250   23.3276 C   0  0  2  0  0  0  0  0  0  0  0  0
   11.2234  -15.3253   22.6458 N   0  0  0  0  0  0  0  0  0  0  0  0
   11.7407  -16.3864   24.7415 C   0  0  0  0  0  0  0  0  0  0  0  0
   12.3971  -17.1767   25.4860 O   0  0  0  0  0  0  0  0  0  0  0  0
   10.6695  -15.7007   25.2809 O   0  0  0  0  0  0  0  0  0  0  0  0
  2  4  1  0
  2  1  1  0
  3  2  2  0
  5  4  1  0
  6  7  1  1
  6  5  1  0
  8  6  1  0
  9  8  2  0
 11 10  1  1
 11 13  1  0
 11 12  1  0
 12  8  1  0
 13 20  1  0
 14 13  2  0
 16 17  2  0
 16 15  1  0
 18 16  1  0
 19 18  1  1
 19 21  1  0
 20 19  1  0
 21 22  2  0
 21 23  1  0
M  END
$$$$
