QAN.pdb
     RDKit          3D

 23 22  0  0  1  0  0  0  0  0999 V2000
   14.7691  -15.3548   20.3223 N   0  0  0  0  0  0  0  0  0  0  0  0
   14.3330  -14.5704   19.2326 C   0  0  0  0  0  0  0  0  0  0  0  0
   15.0276  -14.5392   18.1726 O   0  0  0  0  0  0  0  0  0  0  0  0
   13.1087  -13.7772   19.2615 C   0  0  0  0  0  0  0  0  0  0  0  0
   12.0725  -14.1457   20.2603 C   0  0  0  0  0  0  0  0  0  0  0  0
   11.1088  -15.2069   19.8607 C   0  0  2  0  0  0  0  0  0  0  0  0
   10.2465  -14.8451   18.7670 N   0  0  0  0  0  0  0  0  0  0  0  0
   10.3506  -15.6452   21.0827 C   0  0  0  0  0  0  0  0  0  0  0  0
    9.4354  -14.9265   21.5619 O   0  0  0  0  0  0  0  0  0  0  0  0
    9.8967  -18.8534   22.8622 C   0  0  0  0  0  0  0  0  0  0  0  0
    9.8574  -17.3711   22.8753 C   0  0  2  0  0  0  0  0  0  0  0  0
   10.6253  -16.8694   21.7483 N   0  0  0  0  0  0  0  0  0  0  0  0
   10.4017  -16.7632   24.1097 C   0  0  0  0  0  0  0  0  0  0  0  0
   11.5942  -16.3736   24.0997 O   0  0  0  0  0  0  0  0  0  0  0  0
    9.2411  -13.9058   29.3630 N   0  0  0  0  0  0  0  0  0  0  0  0
    9.9704  -14.3071   28.2379 C   0  0  0  0  0  0  0  0  0  0  0  0
   11.2357  -14.1606   28.1849 O   0  0  0  0  0  0  0  0  0  0  0  0
    9.3265  -14.9386   27.0250 C   0  0  0  0  0  0  0  0  0  0  0  0
   10.2882  -15.9854   26.4754 C   0  0  2  0  0  0  0  0  0  0  0  0
    9.6663  -16.5886   25.3095 N   0  0  0  0  0  0  0  0  0  0  0  0
   10.5407  -17.0087   27.5106 C   0  0  0  0  0  0  0  0  0  0  0  0
    9.8323  -18.0611   27.5317 O   0  0  0  0  0  0  0  0  0  0  0  0
   11.5290  -16.8535   28.4633 O   0  0  0  0  0  0  0  0  0  0  0  0
  2  4  1  0
  2  1  1  0
  3  2  2  0
  5  4  1  0
  6  7  1  6
  6  5  1  0
  8  6  1  0
  9  8  2  0
 11 10  1  1
 11 13  1  0
 11 12  1  0
 12  8  1  0
 13 20  1  0
 14 13  2  0
 16 17  2  0
 16 15  1  0
 18 16  1  0
 19 18  1  1
 19 21  1  0
 20 19  1  0
 21 22  2  0
 21 23  1  0
M  END
$$$$
