QAN.pdb
     RDKit          3D

 23 22  0  0  1  0  0  0  0  0999 V2000
    8.5331  -19.7258   18.0286 N   0  0  0  0  0  0  0  0  0  0  0  0
    9.3882  -19.3906   16.9564 C   0  0  0  0  0  0  0  0  0  0  0  0
   10.2395  -20.2386   16.5525 O   0  0  0  0  0  0  0  0  0  0  0  0
    9.3478  -18.0988   16.2791 C   0  0  0  0  0  0  0  0  0  0  0  0
    8.3389  -17.1105   16.7401 C   0  0  0  0  0  0  0  0  0  0  0  0
    8.2388  -15.8469   15.9603 C   0  0  2  0  0  0  0  0  0  0  0  0
    8.8581  -15.8991   14.6625 N   0  0  0  0  0  0  0  0  0  0  0  0
    8.7576  -14.7210   16.8110 C   0  0  0  0  0  0  0  0  0  0  0  0
    9.8648  -14.1807   16.5544 O   0  0  0  0  0  0  0  0  0  0  0  0
    7.3205  -12.5904   19.5210 C   0  0  0  0  0  0  0  0  0  0  0  0
    8.4734  -13.0922   18.7349 C   0  0  2  0  0  0  0  0  0  0  0  0
    8.0388  -14.2206   17.9290 N   0  0  0  0  0  0  0  0  0  0  0  0
    9.6213  -13.5309   19.5590 C   0  0  0  0  0  0  0  0  0  0  0  0
   10.1219  -12.7060   20.3609 O   0  0  0  0  0  0  0  0  0  0  0  0
   14.1929  -14.0492   18.4447 N   0  0  0  0  0  0  0  0  0  0  0  0
   13.7045  -14.1561   19.7520 C   0  0  0  0  0  0  0  0  0  0  0  0
   14.4505  -14.5587   20.7043 O   0  0  0  0  0  0  0  0  0  0  0  0
   12.2839  -13.8033   20.1287 C   0  0  0  0  0  0  0  0  0  0  0  0
   11.4715  -15.0926   20.1527 C   0  0  2  0  0  0  0  0  0  0  0  0
   10.1984  -14.8251   19.5066 N   0  0  0  0  0  0  0  0  0  0  0  0
   11.2591  -15.5106   21.5537 C   0  0  0  0  0  0  0  0  0  0  0  0
   12.2597  -15.8214   22.2692 O   0  0  0  0  0  0  0  0  0  0  0  0
    9.9970  -15.5754   22.1117 O   0  0  0  0  0  0  0  0  0  0  0  0
  2  4  1  0
  2  1  1  0
  3  2  2  0
  5  4  1  0
  6  7  1  6
  6  5  1  0
  8  6  1  0
  9  8  2  0
 11 10  1  1
 11 13  1  0
 11 12  1  0
 12  8  1  0
 13 20  1  0
 14 13  2  0
 16 17  2  0
 16 15  1  0
 18 16  1  0
 19 18  1  1
 19 21  1  0
 20 19  1  0
 21 22  2  0
 21 23  1  0
M  END
$$$$
