QAN.pdb
     RDKit          3D

 23 22  0  0  1  0  0  0  0  0999 V2000
    3.1582  -22.2230   21.9525 N   0  0  0  0  0  0  0  0  0  0  0  0
    4.2945  -21.4547   22.2866 C   0  0  0  0  0  0  0  0  0  0  0  0
    4.2512  -20.6883   23.2954 O   0  0  0  0  0  0  0  0  0  0  0  0
    5.5349  -21.4918   21.5192 C   0  0  0  0  0  0  0  0  0  0  0  0
    6.6730  -20.6723   22.0092 C   0  0  0  0  0  0  0  0  0  0  0  0
    6.6035  -19.2094   21.7451 C   0  0  2  0  0  0  0  0  0  0  0  0
    6.8075  -18.8439   20.3684 N   0  0  0  0  0  0  0  0  0  0  0  0
    7.5504  -18.5118   22.6817 C   0  0  0  0  0  0  0  0  0  0  0  0
    8.7826  -18.4641   22.4303 O   0  0  0  0  0  0  0  0  0  0  0  0
    7.1676  -16.2813   25.6482 C   0  0  0  0  0  0  0  0  0  0  0  0
    7.9879  -17.1690   24.7890 C   0  0  2  0  0  0  0  0  0  0  0  0
    7.1109  -17.8846   23.8778 N   0  0  0  0  0  0  0  0  0  0  0  0
    8.7853  -18.1657   25.5376 C   0  0  0  0  0  0  0  0  0  0  0  0
    8.2135  -19.2172   25.9137 O   0  0  0  0  0  0  0  0  0  0  0  0
   12.4202  -20.9903   27.7771 N   0  0  0  0  0  0  0  0  0  0  0  0
   13.0820  -19.9726   27.0804 C   0  0  0  0  0  0  0  0  0  0  0  0
   14.3545  -19.9412   27.0095 O   0  0  0  0  0  0  0  0  0  0  0  0
   12.3521  -18.8576   26.3673 C   0  0  0  0  0  0  0  0  0  0  0  0
   10.8587  -19.0493   26.6029 C   0  0  2  0  0  0  0  0  0  0  0  0
   10.1577  -18.0157   25.8612 N   0  0  0  0  0  0  0  0  0  0  0  0
   10.5723  -18.9295   28.0472 C   0  0  0  0  0  0  0  0  0  0  0  0
   10.0580  -17.8589   28.4933 O   0  0  0  0  0  0  0  0  0  0  0  0
   10.8504  -19.9526   28.9328 O   0  0  0  0  0  0  0  0  0  0  0  0
  2  4  1  0
  2  1  1  0
  3  2  2  0
  5  4  1  0
  6  7  1  6
  6  5  1  0
  8  6  1  0
  9  8  2  0
 11 10  1  1
 11 13  1  0
 11 12  1  0
 12  8  1  0
 13 20  1  0
 14 13  2  0
 16 17  2  0
 16 15  1  0
 18 16  1  0
 19 18  1  1
 19 21  1  0
 20 19  1  0
 21 22  2  0
 21 23  1  0
M  END
$$$$
