QAN.pdb
     RDKit          3D

 23 22  0  0  1  0  0  0  0  0999 V2000
    7.7728  -12.9484   14.7119 N   0  0  0  0  0  0  0  0  0  0  0  0
    8.3429  -14.0913   14.1103 C   0  0  0  0  0  0  0  0  0  0  0  0
    9.3885  -13.9655   13.4048 O   0  0  0  0  0  0  0  0  0  0  0  0
    7.7830  -15.4309   14.2553 C   0  0  0  0  0  0  0  0  0  0  0  0
    8.5773  -16.4313   15.0138 C   0  0  0  0  0  0  0  0  0  0  0  0
    8.0327  -16.8534   16.3329 C   0  0  2  0  0  0  0  0  0  0  0  0
    6.5957  -16.8950   16.3966 N   0  0  0  0  0  0  0  0  0  0  0  0
    8.6403  -15.9838   17.3983 C   0  0  0  0  0  0  0  0  0  0  0  0
    9.8899  -15.8860   17.5112 O   0  0  0  0  0  0  0  0  0  0  0  0
    7.4415  -13.4759   19.8714 C   0  0  0  0  0  0  0  0  0  0  0  0
    8.3862  -14.5477   19.4739 C   0  0  2  0  0  0  0  0  0  0  0  0
    7.8493  -15.2438   18.3168 N   0  0  0  0  0  0  0  0  0  0  0  0
    8.6452  -15.5480   20.5330 C   0  0  0  0  0  0  0  0  0  0  0  0
    7.9245  -16.5745   20.5646 O   0  0  0  0  0  0  0  0  0  0  0  0
   13.0076  -18.8595   21.1652 N   0  0  0  0  0  0  0  0  0  0  0  0
   11.6678  -18.5615   21.4391 C   0  0  0  0  0  0  0  0  0  0  0  0
   10.9626  -19.3180   22.1846 O   0  0  0  0  0  0  0  0  0  0  0  0
   10.9695  -17.3399   20.8873 C   0  0  0  0  0  0  0  0  0  0  0  0
   10.3124  -16.6094   22.0523 C   0  0  2  0  0  0  0  0  0  0  0  0
    9.6563  -15.4279   21.5200 N   0  0  0  0  0  0  0  0  0  0  0  0
   11.3471  -16.2245   23.0340 C   0  0  0  0  0  0  0  0  0  0  0  0
   11.4353  -16.8613   24.1277 O   0  0  0  0  0  0  0  0  0  0  0  0
   12.2259  -15.1851   22.7973 O   0  0  0  0  0  0  0  0  0  0  0  0
  2  4  1  0
  2  1  1  0
  3  2  2  0
  5  4  1  0
  6  7  1  6
  6  5  1  0
  8  6  1  0
  9  8  2  0
 11 10  1  1
 11 13  1  0
 11 12  1  0
 12  8  1  0
 13 20  1  0
 14 13  2  0
 16 17  2  0
 16 15  1  0
 18 16  1  0
 19 18  1  6
 19 21  1  0
 20 19  1  0
 21 22  2  0
 21 23  1  0
M  END
$$$$
