QAN.pdb
     RDKit          3D

 23 22  0  0  1  0  0  0  0  0999 V2000
    9.2952  -14.1868   12.8382 N   0  0  0  0  0  0  0  0  0  0  0  0
    8.2470  -15.1276   12.7422 C   0  0  0  0  0  0  0  0  0  0  0  0
    7.4050  -15.0253   11.8003 O   0  0  0  0  0  0  0  0  0  0  0  0
    8.0746  -16.2271   13.6859 C   0  0  0  0  0  0  0  0  0  0  0  0
    9.0510  -16.3382   14.8001 C   0  0  0  0  0  0  0  0  0  0  0  0
    8.4950  -16.6484   16.1452 C   0  0  2  0  0  0  0  0  0  0  0  0
    7.0576  -16.6877   16.1993 N   0  0  0  0  0  0  0  0  0  0  0  0
    9.0915  -15.6903   17.1386 C   0  0  0  0  0  0  0  0  0  0  0  0
   10.3366  -15.5150   17.1929 O   0  0  0  0  0  0  0  0  0  0  0  0
    7.7459  -13.2862   19.6765 C   0  0  0  0  0  0  0  0  0  0  0  0
    8.8369  -14.1170   19.1122 C   0  0  2  0  0  0  0  0  0  0  0  0
    8.2949  -14.9495   18.0516 N   0  0  0  0  0  0  0  0  0  0  0  0
    9.4955  -15.0009   20.0994 C   0  0  0  0  0  0  0  0  0  0  0  0
    9.0697  -16.1750   20.2172 O   0  0  0  0  0  0  0  0  0  0  0  0
   13.6622  -13.9544   20.0047 N   0  0  0  0  0  0  0  0  0  0  0  0
   13.3187  -15.1352   20.6730 C   0  0  0  0  0  0  0  0  0  0  0  0
   13.5637  -16.2775   20.1627 O   0  0  0  0  0  0  0  0  0  0  0  0
   12.6494  -15.1461   22.0282 C   0  0  0  0  0  0  0  0  0  0  0  0
   11.1978  -15.5664   21.8305 C   0  0  2  0  0  0  0  0  0  0  0  0
   10.5805  -14.6124   20.9258 N   0  0  0  0  0  0  0  0  0  0  0  0
   10.5050  -15.5600   23.1353 C   0  0  0  0  0  0  0  0  0  0  0  0
   10.8594  -16.3842   24.0324 O   0  0  0  0  0  0  0  0  0  0  0  0
    9.4759  -14.6803   23.4099 O   0  0  0  0  0  0  0  0  0  0  0  0
  2  4  1  0
  2  1  1  0
  3  2  2  0
  5  4  1  0
  6  7  1  6
  6  5  1  0
  8  6  1  0
  9  8  2  0
 11 10  1  1
 11 13  1  0
 11 12  1  0
 12  8  1  0
 13 20  1  0
 14 13  2  0
 16 17  2  0
 16 15  1  0
 18 16  1  0
 19 18  1  1
 19 21  1  0
 20 19  1  0
 21 22  2  0
 21 23  1  0
M  END
$$$$
