QAN.pdb
     RDKit          3D

 23 22  0  0  1  0  0  0  0  0999 V2000
    9.4052  -12.8896   17.5753 N   0  0  0  0  0  0  0  0  0  0  0  0
    9.8539  -13.0299   18.9064 C   0  0  0  0  0  0  0  0  0  0  0  0
   11.0651  -12.7788   19.1832 O   0  0  0  0  0  0  0  0  0  0  0  0
    8.9864  -13.4593   19.9983 C   0  0  0  0  0  0  0  0  0  0  0  0
    7.6424  -13.9843   19.6448 C   0  0  0  0  0  0  0  0  0  0  0  0
    7.5748  -15.4068   19.2127 C   0  0  2  0  0  0  0  0  0  0  0  0
    6.2598  -15.8503   18.8322 N   0  0  0  0  0  0  0  0  0  0  0  0
    8.1915  -16.2595   20.2865 C   0  0  0  0  0  0  0  0  0  0  0  0
    7.5757  -16.4828   21.3611 O   0  0  0  0  0  0  0  0  0  0  0  0
   11.2933  -18.3493   20.5312 C   0  0  0  0  0  0  0  0  0  0  0  0
   10.0661  -17.7550   21.1141 C   0  0  2  0  0  0  0  0  0  0  0  0
    9.4783  -16.8439   20.1465 N   0  0  0  0  0  0  0  0  0  0  0  0
   10.2951  -17.0068   22.3700 C   0  0  0  0  0  0  0  0  0  0  0  0
   11.3830  -16.3966   22.5037 O   0  0  0  0  0  0  0  0  0  0  0  0
    8.0631  -14.4059   23.6552 N   0  0  0  0  0  0  0  0  0  0  0  0
    7.6746  -15.0105   24.8562 C   0  0  0  0  0  0  0  0  0  0  0  0
    6.6082  -14.6564   25.4585 O   0  0  0  0  0  0  0  0  0  0  0  0
    8.4714  -16.1130   25.5153 C   0  0  0  0  0  0  0  0  0  0  0  0
    9.7436  -16.3218   24.7026 C   0  0  2  0  0  0  0  0  0  0  0  0
    9.3662  -16.9300   23.4387 N   0  0  0  0  0  0  0  0  0  0  0  0
   10.6592  -17.2103   25.4475 C   0  0  0  0  0  0  0  0  0  0  0  0
   11.5109  -16.7037   26.2397 O   0  0  0  0  0  0  0  0  0  0  0  0
   10.6175  -18.5839   25.3061 O   0  0  0  0  0  0  0  0  0  0  0  0
  2  4  1  0
  2  1  1  0
  3  2  2  0
  5  4  1  0
  6  7  1  1
  6  5  1  0
  8  6  1  0
  9  8  2  0
 11 10  1  6
 11 13  1  0
 11 12  1  0
 12  8  1  0
 13 20  1  0
 14 13  2  0
 16 17  2  0
 16 15  1  0
 18 16  1  0
 19 18  1  1
 19 21  1  0
 20 19  1  0
 21 22  2  0
 21 23  1  0
M  END
$$$$
