MFT.pdb
     RDKit          3D

 27 27  0  0  1  0  0  0  0  0999 V2000
   26.6396  -17.2771  -17.9945 C   0  0  0  0  0  0  0  0  0  0  0  0
   28.1389  -18.2364  -18.2652 S   0  0  0  0  0  0  0  0  0  0  0  0
   27.7263  -19.9298  -18.7659 C   0  0  0  0  0  0  0  0  0  0  0  0
   26.7819  -20.5438  -17.7542 C   0  0  0  0  0  0  0  0  0  0  0  0
   27.5939  -21.1570  -16.6424 C   0  0  2  0  0  0  0  0  0  0  0  0
   28.3365  -22.2654  -17.1773 N   0  0  0  0  0  0  0  0  0  0  0  0
   26.7673  -21.5268  -15.4777 C   0  0  0  0  0  0  0  0  0  0  0  0
   26.1689  -22.6313  -15.4430 O   0  0  0  0  0  0  0  0  0  0  0  0
   26.6785  -20.5857  -14.4046 N   0  0  0  0  0  0  0  0  0  0  0  0
   25.8383  -20.7960  -13.2825 C   0  0  1  0  0  0  0  0  0  0  0  0
   26.2851  -20.1395  -11.9890 C   0  0  0  0  0  0  0  0  0  0  0  0
   25.3854  -20.3917  -10.8546 C   0  0  0  0  0  0  0  0  0  0  0  0
   24.1525  -19.8097  -10.7697 C   0  0  0  0  0  0  0  0  0  0  0  0
   23.3245  -20.0531   -9.6865 C   0  0  0  0  0  0  0  0  0  0  0  0
   23.7125  -20.8770   -8.6772 C   0  0  0  0  0  0  0  0  0  0  0  0
   24.9534  -21.4891   -8.7210 C   0  0  0  0  0  0  0  0  0  0  0  0
   25.7550  -21.2363   -9.7970 C   0  0  0  0  0  0  0  0  0  0  0  0
   24.4142  -20.6158  -13.5774 C   0  0  0  0  0  0  0  0  0  0  0  0
   24.0260  -19.5333  -14.0870 O   0  0  0  0  0  0  0  0  0  0  0  0
   20.0888  -22.3366  -14.9059 C   0  0  0  0  0  0  0  0  0  0  0  0
   21.5729  -22.4073  -14.7058 C   0  0  1  0  0  0  0  0  0  0  0  0
   22.2313  -22.3039  -15.9083 O   0  0  0  0  0  0  0  0  0  0  0  0
   22.0280  -21.3733  -13.6936 C   0  0  2  0  0  0  0  0  0  0  0  0
   23.4192  -21.6092  -13.3186 N   0  0  0  0  0  0  0  0  0  0  0  0
   21.1574  -21.3970  -12.4974 C   0  0  0  0  0  0  0  0  0  0  0  0
   19.9098  -20.8197  -12.5351 O   0  0  0  0  0  0  0  0  0  0  0  0
   21.5683  -21.9461  -11.4563 O   0  0  0  0  0  0  0  0  0  0  0  0
  2  1  1  0
  3  2  1  0
  4  3  1  0
  4  5  1  0
  5  6  1  6
  7  5  1  0
  7  8  2  0
  9  7  1  0
 10  9  1  0
 11 12  1  0
 10 11  1  1
 12 17  2  0
 13 12  1  0
 13 14  2  0
 14 15  1  0
 15 16  2  0
 17 16  1  0
 18 10  1  0
 19 18  2  0
 21 20  1  6
 22 21  1  0
 23 21  1  0
 23 24  1  1
 24 18  1  0
 25 23  1  0
 26 25  1  0
 27 25  2  0
M  END
$$$$
