MFT.pdb
     RDKit          3D

 27 27  0  0  1  0  0  0  0  0999 V2000
   25.7676  -17.9183  -18.1510 C   0  0  0  0  0  0  0  0  0  0  0  0
   25.6506  -19.0095  -19.5781 S   0  0  0  0  0  0  0  0  0  0  0  0
   25.8348  -20.7404  -19.0695 C   0  0  0  0  0  0  0  0  0  0  0  0
   24.8485  -21.0538  -17.9645 C   0  0  0  0  0  0  0  0  0  0  0  0
   25.6128  -21.4948  -16.7427 C   0  0  2  0  0  0  0  0  0  0  0  0
   26.3874  -22.6566  -17.0836 N   0  0  0  0  0  0  0  0  0  0  0  0
   24.7361  -21.7099  -15.5757 C   0  0  0  0  0  0  0  0  0  0  0  0
   24.2009  -22.8291  -15.3756 O   0  0  0  0  0  0  0  0  0  0  0  0
   24.5252  -20.6035  -14.6945 N   0  0  0  0  0  0  0  0  0  0  0  0
   23.6882  -20.6944  -13.5542 C   0  0  1  0  0  0  0  0  0  0  0  0
   24.0364  -19.7694  -12.4023 C   0  0  0  0  0  0  0  0  0  0  0  0
   23.2345  -20.0010  -11.1927 C   0  0  0  0  0  0  0  0  0  0  0  0
   21.9882  -19.4627  -11.0406 C   0  0  0  0  0  0  0  0  0  0  0  0
   21.2535  -19.6852   -9.8879 C   0  0  0  0  0  0  0  0  0  0  0  0
   21.7488  -20.4448   -8.8751 C   0  0  0  0  0  0  0  0  0  0  0  0
   23.0074  -21.0108   -8.9855 C   0  0  0  0  0  0  0  0  0  0  0  0
   23.7160  -20.7795  -10.1295 C   0  0  0  0  0  0  0  0  0  0  0  0
   22.2596  -20.7240  -13.8794 C   0  0  0  0  0  0  0  0  0  0  0  0
   21.7712  -19.8003  -14.5797 O   0  0  0  0  0  0  0  0  0  0  0  0
   20.1832  -22.5667  -16.0451 C   0  0  0  0  0  0  0  0  0  0  0  0
   19.5402  -22.7708  -14.7063 C   0  0  1  0  0  0  0  0  0  0  0  0
   19.8126  -24.0285  -14.2225 O   0  0  0  0  0  0  0  0  0  0  0  0
   19.9423  -21.6691  -13.7441 C   0  0  2  0  0  0  0  0  0  0  0  0
   21.3687  -21.7539  -13.4441 N   0  0  0  0  0  0  0  0  0  0  0  0
   19.1452  -21.7476  -12.5000 C   0  0  0  0  0  0  0  0  0  0  0  0
   19.7220  -22.1898  -11.3325 O   0  0  0  0  0  0  0  0  0  0  0  0
   17.9458  -21.4083  -12.5232 O   0  0  0  0  0  0  0  0  0  0  0  0
  2  1  1  0
  3  2  1  0
  4  3  1  0
  4  5  1  0
  5  6  1  6
  7  5  1  0
  7  8  2  0
  9  7  1  0
 10  9  1  0
 11 12  1  0
 10 11  1  1
 12 17  2  0
 13 12  1  0
 13 14  2  0
 14 15  1  0
 15 16  2  0
 17 16  1  0
 18 10  1  0
 19 18  2  0
 21 20  1  6
 22 21  1  0
 23 21  1  0
 23 24  1  1
 24 18  1  0
 25 23  1  0
 26 25  1  0
 27 25  2  0
M  END
$$$$
