MFT.pdb
     RDKit          3D

 27 27  0  0  1  0  0  0  0  0999 V2000
   20.6070  -24.2423  -12.5969 C   0  0  0  0  0  0  0  0  0  0  0  0
   19.0833  -23.3975  -13.0507 S   0  0  0  0  0  0  0  0  0  0  0  0
   19.4507  -21.8728  -13.9611 C   0  0  0  0  0  0  0  0  0  0  0  0
   20.9473  -21.6457  -13.9904 C   0  0  0  0  0  0  0  0  0  0  0  0
   21.2947  -20.5717  -12.9918 C   0  0  2  0  0  0  0  0  0  0  0  0
   20.3966  -19.4654  -13.1804 N   0  0  0  0  0  0  0  0  0  0  0  0
   22.7149  -20.1776  -13.0580 C   0  0  0  0  0  0  0  0  0  0  0  0
   23.0791  -19.2182  -13.7833 O   0  0  0  0  0  0  0  0  0  0  0  0
   23.6458  -20.9253  -12.2711 N   0  0  0  0  0  0  0  0  0  0  0  0
   25.0474  -20.7491  -12.3884 C   0  0  1  0  0  0  0  0  0  0  0  0
   25.8509  -20.9726  -11.1202 C   0  0  0  0  0  0  0  0  0  0  0  0
   27.3007  -20.8143  -11.3013 C   0  0  0  0  0  0  0  0  0  0  0  0
   27.8214  -19.9744  -12.2444 C   0  0  0  0  0  0  0  0  0  0  0  0
   29.1912  -19.8479  -12.4052 C   0  0  0  0  0  0  0  0  0  0  0  0
   30.0573  -20.5539  -11.6309 C   0  0  0  0  0  0  0  0  0  0  0  0
   29.5747  -21.4169  -10.6620 C   0  0  0  0  0  0  0  0  0  0  0  0
   28.2214  -21.5278  -10.5191 C   0  0  0  0  0  0  0  0  0  0  0  0
   25.6197  -21.3933  -13.5737 C   0  0  0  0  0  0  0  0  0  0  0  0
   25.8764  -22.6241  -13.5386 O   0  0  0  0  0  0  0  0  0  0  0  0
   24.8081  -23.0758  -16.4177 C   0  0  0  0  0  0  0  0  0  0  0  0
   25.5264  -21.8550  -16.9089 C   0  0  1  0  0  0  0  0  0  0  0  0
   24.6320  -20.8665  -17.2447 O   0  0  0  0  0  0  0  0  0  0  0  0
   26.5595  -21.3966  -15.8971 C   0  0  2  0  0  0  0  0  0  0  0  0
   25.9104  -20.7004  -14.7899 N   0  0  0  0  0  0  0  0  0  0  0  0
   27.5662  -20.5232  -16.5398 C   0  0  0  0  0  0  0  0  0  0  0  0
   28.5033  -21.0556  -17.3941 O   0  0  0  0  0  0  0  0  0  0  0  0
   27.5545  -19.3004  -16.2978 O   0  0  0  0  0  0  0  0  0  0  0  0
  2  1  1  0
  3  2  1  0
  4  3  1  0
  4  5  1  0
  5  6  1  6
  7  5  1  0
  7  8  2  0
  9  7  1  0
 10  9  1  0
 11 12  1  0
 10 11  1  1
 12 17  2  0
 13 12  1  0
 13 14  2  0
 14 15  1  0
 15 16  2  0
 17 16  1  0
 18 10  1  0
 19 18  2  0
 21 20  1  1
 22 21  1  0
 23 21  1  0
 23 24  1  1
 24 18  1  0
 25 23  1  0
 26 25  1  0
 27 25  2  0
M  END
$$$$
