MFT.pdb
     RDKit          3D

 27 27  0  0  1  0  0  0  0  0999 V2000
   34.6162  -22.3204  -10.2178 C   0  0  0  0  0  0  0  0  0  0  0  0
   32.8271  -22.4295  -10.0489 S   0  0  0  0  0  0  0  0  0  0  0  0
   32.0168  -21.1535  -11.0507 C   0  0  0  0  0  0  0  0  0  0  0  0
   30.5140  -21.3176  -10.9654 C   0  0  0  0  0  0  0  0  0  0  0  0
   30.1426  -21.6527   -9.5437 C   0  0  2  0  0  0  0  0  0  0  0  0
   30.7534  -22.9064   -9.1957 N   0  0  0  0  0  0  0  0  0  0  0  0
   28.6837  -21.6430   -9.3243 C   0  0  0  0  0  0  0  0  0  0  0  0
   28.0297  -22.7160   -9.3255 O   0  0  0  0  0  0  0  0  0  0  0  0
   28.0554  -20.3759   -9.1132 N   0  0  0  0  0  0  0  0  0  0  0  0
   26.6673  -20.2546   -8.8527 C   0  0  1  0  0  0  0  0  0  0  0  0
   26.2910  -19.4059   -7.6518 C   0  0  0  0  0  0  0  0  0  0  0  0
   27.1629  -19.6082   -6.4862 C   0  0  0  0  0  0  0  0  0  0  0  0
   27.0188  -20.6841   -5.6568 C   0  0  0  0  0  0  0  0  0  0  0  0
   27.8449  -20.8501   -4.5577 C   0  0  0  0  0  0  0  0  0  0  0  0
   28.8225  -19.9498   -4.2716 C   0  0  0  0  0  0  0  0  0  0  0  0
   29.0055  -18.8443   -5.0846 C   0  0  0  0  0  0  0  0  0  0  0  0
   28.1809  -18.6984   -6.1630 C   0  0  0  0  0  0  0  0  0  0  0  0
   25.8710  -19.9729  -10.0502 C   0  0  0  0  0  0  0  0  0  0  0  0
   26.0366  -18.8819  -10.6538 O   0  0  0  0  0  0  0  0  0  0  0  0
   25.9333  -21.3190  -13.3453 C   0  0  0  0  0  0  0  0  0  0  0  0
   24.5064  -21.4903  -12.9183 C   0  0  1  0  0  0  0  0  0  0  0  0
   24.2497  -22.8015  -12.5940 O   0  0  0  0  0  0  0  0  0  0  0  0
   24.1622  -20.5276  -11.7977 C   0  0  2  0  0  0  0  0  0  0  0  0
   24.9000  -20.8748  -10.5866 N   0  0  0  0  0  0  0  0  0  0  0  0
   22.7058  -20.5315  -11.5367 C   0  0  0  0  0  0  0  0  0  0  0  0
   21.8266  -20.0931  -12.4991 O   0  0  0  0  0  0  0  0  0  0  0  0
   22.2859  -20.9365  -10.4350 O   0  0  0  0  0  0  0  0  0  0  0  0
  2  1  1  0
  3  2  1  0
  4  3  1  0
  4  5  1  0
  5  6  1  6
  7  5  1  0
  7  8  2  0
  9  7  1  0
 10  9  1  0
 11 12  1  0
 10 11  1  1
 12 17  2  0
 13 12  1  0
 13 14  2  0
 14 15  1  0
 15 16  2  0
 17 16  1  0
 18 10  1  0
 19 18  2  0
 21 20  1  1
 22 21  1  0
 23 21  1  0
 23 24  1  1
 24 18  1  0
 25 23  1  0
 26 25  1  0
 27 25  2  0
M  END
$$$$
