MFT.pdb
     RDKit          3D

 27 27  0  0  1  0  0  0  0  0999 V2000
   18.6776   -9.7320  -22.2529 C   0  0  0  0  0  0  0  0  0  0  0  0
   20.2183  -10.4818  -22.8056 S   0  0  0  0  0  0  0  0  0  0  0  0
   21.4122  -10.5556  -21.4426 C   0  0  0  0  0  0  0  0  0  0  0  0
   20.8077   -9.9321  -20.2023 C   0  0  0  0  0  0  0  0  0  0  0  0
   21.8739   -9.8295  -19.1421 C   0  0  2  0  0  0  0  0  0  0  0  0
   22.3914  -11.1459  -18.8863 N   0  0  0  0  0  0  0  0  0  0  0  0
   21.3934   -9.1531  -17.9222 C   0  0  0  0  0  0  0  0  0  0  0  0
   20.5919   -9.7297  -17.1448 O   0  0  0  0  0  0  0  0  0  0  0  0
   21.8735   -7.8305  -17.6670 N   0  0  0  0  0  0  0  0  0  0  0  0
   21.4942   -7.0980  -16.5142 C   0  0  1  0  0  0  0  0  0  0  0  0
   22.6129   -6.7643  -15.5443 C   0  0  0  0  0  0  0  0  0  0  0  0
   23.2789   -7.9457  -14.9783 C   0  0  0  0  0  0  0  0  0  0  0  0
   22.7470   -8.6386  -13.9280 C   0  0  0  0  0  0  0  0  0  0  0  0
   23.3965   -9.7434  -13.4031 C   0  0  0  0  0  0  0  0  0  0  0  0
   24.5805  -10.1714  -13.9163 C   0  0  0  0  0  0  0  0  0  0  0  0
   25.1568   -9.5003  -14.9812 C   0  0  0  0  0  0  0  0  0  0  0  0
   24.5011   -8.4135  -15.4842 C   0  0  0  0  0  0  0  0  0  0  0  0
   20.6064   -5.9691  -16.8058 C   0  0  0  0  0  0  0  0  0  0  0  0
   20.8392   -5.2500  -17.8112 O   0  0  0  0  0  0  0  0  0  0  0  0
   16.4159   -3.4238  -15.9974 C   0  0  0  0  0  0  0  0  0  0  0  0
   17.2574   -4.6334  -15.7208 C   0  0  1  0  0  0  0  0  0  0  0  0
   16.5913   -5.7816  -16.0787 O   0  0  0  0  0  0  0  0  0  0  0  0
   18.6144   -4.5071  -16.3869 C   0  0  2  0  0  0  0  0  0  0  0  0
   19.4718   -5.6260  -16.0066 N   0  0  0  0  0  0  0  0  0  0  0  0
   19.2521   -3.2205  -16.0299 C   0  0  0  0  0  0  0  0  0  0  0  0
   18.9652   -2.0813  -16.7448 O   0  0  0  0  0  0  0  0  0  0  0  0
   20.0516   -3.1820  -15.0741 O   0  0  0  0  0  0  0  0  0  0  0  0
  2  1  1  0
  3  2  1  0
  4  3  1  0
  4  5  1  0
  5  6  1  1
  7  5  1  0
  7  8  2  0
  9  7  1  0
 10  9  1  0
 11 12  1  0
 10 11  1  6
 12 17  2  0
 13 12  1  0
 13 14  2  0
 14 15  1  0
 15 16  2  0
 17 16  1  0
 18 10  1  0
 19 18  2  0
 21 20  1  6
 22 21  1  0
 23 21  1  0
 23 24  1  1
 24 18  1  0
 25 23  1  0
 26 25  1  0
 27 25  2  0
M  END
$$$$
