MFT.pdb
     RDKit          3D

 27 27  0  0  1  0  0  0  0  0999 V2000
   26.5390  -24.9073  -20.3160 C   0  0  0  0  0  0  0  0  0  0  0  0
   26.9288  -26.6191  -19.9170 S   0  0  0  0  0  0  0  0  0  0  0  0
   25.4543  -27.4787  -19.3041 C   0  0  0  0  0  0  0  0  0  0  0  0
   24.6383  -26.5384  -18.4427 C   0  0  0  0  0  0  0  0  0  0  0  0
   24.6673  -27.0352  -17.0201 C   0  0  2  0  0  0  0  0  0  0  0  0
   23.9678  -28.2895  -16.9604 N   0  0  0  0  0  0  0  0  0  0  0  0
   24.1463  -26.0398  -16.0640 C   0  0  0  0  0  0  0  0  0  0  0  0
   22.9629  -26.1116  -15.6472 O   0  0  0  0  0  0  0  0  0  0  0  0
   25.0353  -25.0037  -15.6382 N   0  0  0  0  0  0  0  0  0  0  0  0
   24.6341  -23.9873  -14.7354 C   0  0  1  0  0  0  0  0  0  0  0  0
   25.7336  -23.3989  -13.8702 C   0  0  0  0  0  0  0  0  0  0  0  0
   25.2653  -22.3617  -12.9403 C   0  0  0  0  0  0  0  0  0  0  0  0
   25.1051  -21.0627  -13.3314 C   0  0  0  0  0  0  0  0  0  0  0  0
   24.6723  -20.0989  -12.4359 C   0  0  0  0  0  0  0  0  0  0  0  0
   24.3940  -20.4155  -11.1434 C   0  0  0  0  0  0  0  0  0  0  0  0
   24.5417  -21.7195  -10.7026 C   0  0  0  0  0  0  0  0  0  0  0  0
   24.9695  -22.6549  -11.6005 C   0  0  0  0  0  0  0  0  0  0  0  0
   23.7546  -22.9831  -15.3401 C   0  0  0  0  0  0  0  0  0  0  0  0
   24.1758  -22.3051  -16.3122 O   0  0  0  0  0  0  0  0  0  0  0  0
   20.8153  -22.8856  -17.4632 C   0  0  0  0  0  0  0  0  0  0  0  0
   20.4236  -22.1973  -16.1903 C   0  0  1  0  0  0  0  0  0  0  0  0
   19.6821  -23.0359  -15.3921 O   0  0  0  0  0  0  0  0  0  0  0  0
   21.6445  -21.6385  -15.4845 C   0  0  2  0  0  0  0  0  0  0  0  0
   22.4242  -22.7194  -14.8882 N   0  0  0  0  0  0  0  0  0  0  0  0
   21.2454  -20.6565  -14.4521 C   0  0  0  0  0  0  0  0  0  0  0  0
   20.7290  -19.4356  -14.8179 O   0  0  0  0  0  0  0  0  0  0  0  0
   21.3830  -20.9491  -13.2482 O   0  0  0  0  0  0  0  0  0  0  0  0
  2  1  1  0
  3  2  1  0
  4  3  1  0
  4  5  1  0
  5  6  1  6
  7  5  1  0
  7  8  2  0
  9  7  1  0
 10  9  1  0
 11 12  1  0
 10 11  1  6
 12 17  2  0
 13 12  1  0
 13 14  2  0
 14 15  1  0
 15 16  2  0
 17 16  1  0
 18 10  1  0
 19 18  2  0
 21 20  1  6
 22 21  1  0
 23 21  1  0
 23 24  1  1
 24 18  1  0
 25 23  1  0
 26 25  1  0
 27 25  2  0
M  END
$$$$
