MFT.pdb
     RDKit          3D

 27 27  0  0  1  0  0  0  0  0999 V2000
   21.7811  -20.0202  -13.6447 C   0  0  0  0  0  0  0  0  0  0  0  0
   22.9465  -20.0589  -15.0165 S   0  0  0  0  0  0  0  0  0  0  0  0
   24.6287  -20.3618  -14.4109 C   0  0  0  0  0  0  0  0  0  0  0  0
   24.5824  -20.7322  -12.9436 C   0  0  0  0  0  0  0  0  0  0  0  0
   25.9938  -20.8544  -12.4293 C   0  0  2  0  0  0  0  0  0  0  0  0
   26.6825  -21.8407  -13.2160 N   0  0  0  0  0  0  0  0  0  0  0  0
   26.0447  -21.1350  -10.9818 C   0  0  0  0  0  0  0  0  0  0  0  0
   25.2446  -21.9517  -10.4602 O   0  0  0  0  0  0  0  0  0  0  0  0
   27.0311  -20.4459  -10.2092 N   0  0  0  0  0  0  0  0  0  0  0  0
   27.0585  -20.5043   -8.7932 C   0  0  1  0  0  0  0  0  0  0  0  0
   28.2235  -19.7980   -8.1240 C   0  0  0  0  0  0  0  0  0  0  0  0
   28.2169  -19.9018   -6.6581 C   0  0  0  0  0  0  0  0  0  0  0  0
   27.7669  -18.8839   -5.8659 C   0  0  0  0  0  0  0  0  0  0  0  0
   27.7790  -18.9986   -4.4857 C   0  0  0  0  0  0  0  0  0  0  0  0
   28.2377  -20.1253   -3.8787 C   0  0  0  0  0  0  0  0  0  0  0  0
   28.7031  -21.1826   -4.6416 C   0  0  0  0  0  0  0  0  0  0  0  0
   28.6831  -21.0500   -6.0004 C   0  0  0  0  0  0  0  0  0  0  0  0
   25.7608  -20.2253   -8.1722 C   0  0  0  0  0  0  0  0  0  0  0  0
   25.1670  -19.1515   -8.4488 O   0  0  0  0  0  0  0  0  0  0  0  0
   22.6055  -20.8575   -8.7883 C   0  0  0  0  0  0  0  0  0  0  0  0
   22.6887  -21.3795   -7.3854 C   0  0  1  0  0  0  0  0  0  0  0  0
   22.7482  -22.7530   -7.3801 O   0  0  0  0  0  0  0  0  0  0  0  0
   23.8435  -20.7364   -6.6410 C   0  0  2  0  0  0  0  0  0  0  0  0
   25.1139  -21.1112   -7.2553 N   0  0  0  0  0  0  0  0  0  0  0  0
   23.8235  -21.1244   -5.2133 C   0  0  0  0  0  0  0  0  0  0  0  0
   24.8897  -21.7946   -4.6608 O   0  0  0  0  0  0  0  0  0  0  0  0
   22.8293  -20.8366   -4.5183 O   0  0  0  0  0  0  0  0  0  0  0  0
  2  1  1  0
  3  2  1  0
  4  3  1  0
  4  5  1  0
  5  6  1  6
  7  5  1  0
  7  8  2  0
  9  7  1  0
 10  9  1  0
 11 12  1  0
 10 11  1  1
 12 17  2  0
 13 12  1  0
 13 14  2  0
 14 15  1  0
 15 16  2  0
 17 16  1  0
 18 10  1  0
 19 18  2  0
 21 20  1  6
 22 21  1  0
 23 21  1  0
 23 24  1  6
 24 18  1  0
 25 23  1  0
 26 25  1  0
 27 25  2  0
M  END
$$$$
