MFT.pdb
     RDKit          3D

 27 27  0  0  1  0  0  0  0  0999 V2000
   18.9685  -11.1513  -21.8138 C   0  0  0  0  0  0  0  0  0  0  0  0
   20.6214  -11.1690  -22.5271 S   0  0  0  0  0  0  0  0  0  0  0  0
   21.8768  -11.1573  -21.2186 C   0  0  0  0  0  0  0  0  0  0  0  0
   21.3499  -10.4057  -20.0145 C   0  0  0  0  0  0  0  0  0  0  0  0
   22.4666  -10.2467  -19.0150 C   0  0  2  0  0  0  0  0  0  0  0  0
   22.9437  -11.5531  -18.6521 N   0  0  0  0  0  0  0  0  0  0  0  0
   22.0691   -9.4348  -17.8491 C   0  0  0  0  0  0  0  0  0  0  0  0
   21.3903   -9.9397  -16.9198 O   0  0  0  0  0  0  0  0  0  0  0  0
   22.4847   -8.0668  -17.8235 N   0  0  0  0  0  0  0  0  0  0  0  0
   22.1923   -7.2083  -16.7341 C   0  0  1  0  0  0  0  0  0  0  0  0
   23.3655   -6.8508  -15.8398 C   0  0  0  0  0  0  0  0  0  0  0  0
   24.1260   -8.0155  -15.3656 C   0  0  0  0  0  0  0  0  0  0  0  0
   23.7354   -8.7340  -14.2714 C   0  0  0  0  0  0  0  0  0  0  0  0
   24.4727   -9.8223  -13.8353 C   0  0  0  0  0  0  0  0  0  0  0  0
   25.6046  -10.2082  -14.4817 C   0  0  0  0  0  0  0  0  0  0  0  0
   26.0383   -9.5099  -15.5957 C   0  0  0  0  0  0  0  0  0  0  0  0
   25.2980   -8.4400  -16.0097 C   0  0  0  0  0  0  0  0  0  0  0  0
   21.3569   -6.0619  -17.1021 C   0  0  0  0  0  0  0  0  0  0  0  0
   21.8061   -5.2110  -17.9121 O   0  0  0  0  0  0  0  0  0  0  0  0
   17.6798   -5.9774  -18.4546 C   0  0  0  0  0  0  0  0  0  0  0  0
   17.8110   -5.0923  -17.2517 C   0  0  1  0  0  0  0  0  0  0  0  0
   17.2485   -5.6864  -16.1468 O   0  0  0  0  0  0  0  0  0  0  0  0
   19.2583   -4.6935  -17.0340 C   0  0  2  0  0  0  0  0  0  0  0  0
   20.0399   -5.8442  -16.5903 N   0  0  0  0  0  0  0  0  0  0  0  0
   19.3528   -3.5922  -16.0504 C   0  0  0  0  0  0  0  0  0  0  0  0
   18.8664   -2.3431  -16.3577 O   0  0  0  0  0  0  0  0  0  0  0  0
   19.8781   -3.8102  -14.9410 O   0  0  0  0  0  0  0  0  0  0  0  0
  2  1  1  0
  3  2  1  0
  4  3  1  0
  4  5  1  0
  5  6  1  1
  7  5  1  0
  7  8  2  0
  9  7  1  0
 10  9  1  0
 11 12  1  0
 10 11  1  6
 12 17  2  0
 13 12  1  0
 13 14  2  0
 14 15  1  0
 15 16  2  0
 17 16  1  0
 18 10  1  0
 19 18  2  0
 21 20  1  6
 22 21  1  0
 23 21  1  0
 23 24  1  1
 24 18  1  0
 25 23  1  0
 26 25  1  0
 27 25  2  0
M  END
$$$$
