MFT.pdb
     RDKit          3D

 27 27  0  0  1  0  0  0  0  0999 V2000
   20.5771   -8.4326  -23.0979 C   0  0  0  0  0  0  0  0  0  0  0  0
   20.3597   -7.7329  -21.4534 S   0  0  0  0  0  0  0  0  0  0  0  0
   19.6391   -8.9620  -20.3316 C   0  0  0  0  0  0  0  0  0  0  0  0
   19.3408   -8.3176  -18.9944 C   0  0  0  0  0  0  0  0  0  0  0  0
   20.5340   -8.4984  -18.0917 C   0  0  2  0  0  0  0  0  0  0  0  0
   20.7244   -9.9047  -17.8631 N   0  0  0  0  0  0  0  0  0  0  0  0
   20.4190   -7.7228  -16.8420 C   0  0  0  0  0  0  0  0  0  0  0  0
   19.6334   -8.0890  -15.9321 O   0  0  0  0  0  0  0  0  0  0  0  0
   21.2299   -6.5519  -16.7137 N   0  0  0  0  0  0  0  0  0  0  0  0
   21.2262   -5.7548  -15.5417 C   0  0  1  0  0  0  0  0  0  0  0  0
   22.4857   -5.8144  -14.6967 C   0  0  0  0  0  0  0  0  0  0  0  0
   22.8873   -7.1788  -14.3268 C   0  0  0  0  0  0  0  0  0  0  0  0
   22.3041   -7.8443  -13.2861 C   0  0  0  0  0  0  0  0  0  0  0  0
   22.7050   -9.1260  -12.9478 C   0  0  0  0  0  0  0  0  0  0  0  0
   23.6887   -9.7598  -13.6398 C   0  0  0  0  0  0  0  0  0  0  0  0
   24.3079   -9.1241  -14.7024 C   0  0  0  0  0  0  0  0  0  0  0  0
   23.8987   -7.8608  -15.0200 C   0  0  0  0  0  0  0  0  0  0  0  0
   20.7240   -4.3957  -15.7615 C   0  0  0  0  0  0  0  0  0  0  0  0
   21.4647   -3.5531  -16.3303 O   0  0  0  0  0  0  0  0  0  0  0  0
   16.7901   -3.1671  -14.6371 C   0  0  0  0  0  0  0  0  0  0  0  0
   17.4484   -2.6066  -15.8619 C   0  0  1  0  0  0  0  0  0  0  0  0
   16.9498   -1.3592  -16.1545 O   0  0  0  0  0  0  0  0  0  0  0  0
   18.9579   -2.6181  -15.7130 C   0  0  2  0  0  0  0  0  0  0  0  0
   19.4226   -3.9576  -15.3640 N   0  0  0  0  0  0  0  0  0  0  0  0
   19.3880   -1.6376  -14.6918 C   0  0  0  0  0  0  0  0  0  0  0  0
   19.1833   -0.2924  -14.8910 O   0  0  0  0  0  0  0  0  0  0  0  0
   19.9376   -2.0454  -13.6498 O   0  0  0  0  0  0  0  0  0  0  0  0
  2  1  1  0
  3  2  1  0
  4  3  1  0
  4  5  1  0
  5  6  1  1
  7  5  1  0
  7  8  2  0
  9  7  1  0
 10  9  1  0
 11 12  1  0
 10 11  1  6
 12 17  2  0
 13 12  1  0
 13 14  2  0
 14 15  1  0
 15 16  2  0
 17 16  1  0
 18 10  1  0
 19 18  2  0
 21 20  1  1
 22 21  1  0
 23 21  1  0
 23 24  1  1
 24 18  1  0
 25 23  1  0
 26 25  1  0
 27 25  2  0
M  END
$$$$
