FRM.pdb
     RDKit          3D

 31 31  0  0  1  0  0  0  0  0999 V2000
   27.6911  -18.9816   -9.1195 N   0  0  0  0  0  0  0  0  0  0  0  0
   27.0436  -20.2819   -9.0538 C   0  0  1  0  0  0  0  0  0  0  0  0
   26.4156  -20.5042   -7.6896 C   0  0  0  0  0  0  0  0  0  0  0  0
   27.4178  -20.2734   -6.6048 C   0  0  0  0  0  0  0  0  0  0  0  0
   27.2344  -19.3267   -5.6243 C   0  0  0  0  0  0  0  0  0  0  0  0
   28.1348  -19.1014   -4.6148 C   0  0  0  0  0  0  0  0  0  0  0  0
   29.3017  -19.8458   -4.5455 C   0  0  0  0  0  0  0  0  0  0  0  0
   29.5007  -20.7983   -5.5210 C   0  0  0  0  0  0  0  0  0  0  0  0
   28.5789  -21.0147   -6.5372 C   0  0  0  0  0  0  0  0  0  0  0  0
   26.0542  -20.4564  -10.1412 C   0  0  0  0  0  0  0  0  0  0  0  0
   24.9645  -19.7946  -10.1612 O   0  0  0  0  0  0  0  0  0  0  0  0
   30.3204  -23.2816  -16.1874 N   0  0  0  0  0  0  0  0  0  0  0  0
   29.4082  -22.2658  -16.5694 C   0  0  0  0  0  0  0  0  0  0  0  0
   29.5299  -21.7249  -17.7173 N   0  0  0  0  0  0  0  0  0  0  0  0
   28.3727  -21.8566  -15.6809 N   0  0  0  0  0  0  0  0  0  0  0  0
   27.0060  -22.2487  -15.9280 C   0  0  0  0  0  0  0  0  0  0  0  0
   26.0779  -21.5613  -14.9405 C   0  0  0  0  0  0  0  0  0  0  0  0
   26.5705  -21.7591  -13.5596 C   0  0  0  0  0  0  0  0  0  0  0  0
   25.6248  -21.1310  -12.5350 C   0  0  2  0  0  0  0  0  0  0  0  0
   26.2556  -21.3613  -11.2224 N   0  0  0  0  0  0  0  0  0  0  0  0
   24.3096  -21.7843  -12.6210 C   0  0  0  0  0  0  0  0  0  0  0  0
   24.1568  -23.0214  -12.3462 O   0  0  0  0  0  0  0  0  0  0  0  0
   28.9144  -21.0309  -18.1430 C   0  0  0  0  0  0  0  0  0  0  0  0
   18.8375  -21.7043   -9.3835 S   0  0  0  0  0  0  0  0  0  0  0  0
   18.3866  -21.2988  -11.0613 C   0  0  0  0  0  0  0  0  0  0  0  0
   19.5138  -21.7904  -12.3389 C   0  0  0  0  0  0  0  0  0  0  0  0
   20.9138  -21.3088  -12.1790 C   0  0  1  0  0  0  0  0  0  0  0  0
   21.8643  -21.8623  -13.2106 N   0  0  0  0  0  0  0  0  0  0  0  0
   23.1173  -21.1111  -13.0063 C   0  0  0  0  0  0  0  0  0  0  0  0
   21.4105  -21.4945  -14.5733 O   0  0  0  0  0  0  0  0  0  0  0  0
   21.9938  -20.4757  -15.2918 O   0  0  0  0  0  0  0  0  0  0  0  0
  2  1  1  1
  2 10  1  0
  3  2  1  0
  3  4  1  0
  4  9  2  0
  4  5  1  0
  5  6  2  0
  6  7  1  0
  8  7  2  0
  9  8  1  0
 10 11  2  0
 13 15  1  0
 13 12  1  0
 14 13  2  0
 16 15  1  0
 16 17  1  0
 17 18  1  0
 19 18  1  6
 20 10  1  0
 20 19  1  0
 21 19  1  0
 21 22  2  0
 23 24  1  0
 24 25  1  0
 25 26  1  0
 27 26  1  1
 27 28  1  0
 28 21  1  0
 29 30  1  0
 29 27  1  0
 31 29  2  0
M  END
$$$$
