FRM.pdb
     RDKit          3D

 31 31  0  0  1  0  0  0  0  0999 V2000
   25.0120  -20.2942  -16.6318 N   0  0  0  0  0  0  0  0  0  0  0  0
   24.3291  -19.6020  -15.5507 C   0  0  1  0  0  0  0  0  0  0  0  0
   23.2140  -18.7245  -16.0906 C   0  0  0  0  0  0  0  0  0  0  0  0
   23.7608  -17.6934  -17.0245 C   0  0  0  0  0  0  0  0  0  0  0  0
   23.6879  -17.8275  -18.3911 C   0  0  0  0  0  0  0  0  0  0  0  0
   24.1750  -16.8925  -19.2683 C   0  0  0  0  0  0  0  0  0  0  0  0
   24.7788  -15.7401  -18.7911 C   0  0  0  0  0  0  0  0  0  0  0  0
   24.8601  -15.5909  -17.4237 C   0  0  0  0  0  0  0  0  0  0  0  0
   24.3618  -16.5471  -16.5481 C   0  0  0  0  0  0  0  0  0  0  0  0
   23.8284  -20.5462  -14.5261 C   0  0  0  0  0  0  0  0  0  0  0  0
   23.1171  -21.5558  -14.8433 O   0  0  0  0  0  0  0  0  0  0  0  0
   28.8095  -21.7938  -10.8528 N   0  0  0  0  0  0  0  0  0  0  0  0
   28.3281  -21.0378  -11.9511 C   0  0  0  0  0  0  0  0  0  0  0  0
   28.8653  -21.1989  -13.0960 N   0  0  0  0  0  0  0  0  0  0  0  0
   27.2605  -20.1112  -11.7749 N   0  0  0  0  0  0  0  0  0  0  0  0
   26.4301  -20.1748  -10.5964 C   0  0  0  0  0  0  0  0  0  0  0  0
   25.4650  -21.3441  -10.6991 C   0  0  0  0  0  0  0  0  0  0  0  0
   24.0745  -20.8473  -10.7912 C   0  0  0  0  0  0  0  0  0  0  0  0
   23.4347  -21.2257  -12.1276 C   0  0  2  0  0  0  0  0  0  0  0  0
   24.1087  -20.3903  -13.1385 N   0  0  0  0  0  0  0  0  0  0  0  0
   21.9917  -20.9447  -12.0741 C   0  0  0  0  0  0  0  0  0  0  0  0
   21.5418  -19.7502  -12.0607 O   0  0  0  0  0  0  0  0  0  0  0  0
   28.6307  -20.7151  -13.9635 C   0  0  0  0  0  0  0  0  0  0  0  0
   19.1451  -20.1269  -16.6293 S   0  0  0  0  0  0  0  0  0  0  0  0
   17.7278  -20.1782  -15.5470 C   0  0  0  0  0  0  0  0  0  0  0  0
   17.9783  -20.8471  -13.9239 C   0  0  0  0  0  0  0  0  0  0  0  0
   19.3991  -21.0449  -13.5242 C   0  0  1  0  0  0  0  0  0  0  0  0
   19.5628  -21.6006  -12.1319 N   0  0  0  0  0  0  0  0  0  0  0  0
   20.9914  -21.9552  -12.0360 C   0  0  0  0  0  0  0  0  0  0  0  0
   18.8356  -22.8864  -12.0059 O   0  0  0  0  0  0  0  0  0  0  0  0
   17.5213  -22.9505  -11.6023 O   0  0  0  0  0  0  0  0  0  0  0  0
  2  1  1  6
  2 10  1  0
  3  2  1  0
  3  4  1  0
  4  9  2  0
  4  5  1  0
  5  6  2  0
  6  7  1  0
  8  7  2  0
  9  8  1  0
 10 11  2  0
 13 15  1  0
 13 12  1  0
 14 13  2  0
 16 15  1  0
 16 17  1  0
 17 18  1  0
 19 18  1  1
 20 10  1  0
 20 19  1  0
 21 19  1  0
 21 22  2  0
 23 24  1  0
 24 25  1  0
 25 26  1  0
 27 26  1  1
 27 28  1  0
 28 21  1  0
 29 30  1  0
 29 27  1  0
 31 29  2  0
M  END
$$$$
