FRM.pdb
     RDKit          3D

 31 31  0  0  1  0  0  0  0  0999 V2000
   25.6507  -17.6365  -16.8074 N   0  0  0  0  0  0  0  0  0  0  0  0
   26.4270  -18.2620  -15.7489 C   0  0  1  0  0  0  0  0  0  0  0  0
   27.2478  -17.2286  -14.9983 C   0  0  0  0  0  0  0  0  0  0  0  0
   28.1946  -16.5349  -15.9239 C   0  0  0  0  0  0  0  0  0  0  0  0
   29.2374  -17.1907  -16.5352 C   0  0  0  0  0  0  0  0  0  0  0  0
   30.1144  -16.5785  -17.3938 C   0  0  0  0  0  0  0  0  0  0  0  0
   29.9753  -15.2308  -17.6850 C   0  0  0  0  0  0  0  0  0  0  0  0
   28.9354  -14.5592  -17.0799 C   0  0  0  0  0  0  0  0  0  0  0  0
   28.0553  -15.1935  -16.2126 C   0  0  0  0  0  0  0  0  0  0  0  0
   25.5694  -19.0447  -14.8304 C   0  0  0  0  0  0  0  0  0  0  0  0
   24.5231  -18.5396  -14.3051 O   0  0  0  0  0  0  0  0  0  0  0  0
   26.0929  -26.0965  -15.3357 N   0  0  0  0  0  0  0  0  0  0  0  0
   25.0569  -25.4527  -16.0582 C   0  0  0  0  0  0  0  0  0  0  0  0
   25.0687  -25.5010  -17.3321 N   0  0  0  0  0  0  0  0  0  0  0  0
   24.0199  -24.7614  -15.3683 N   0  0  0  0  0  0  0  0  0  0  0  0
   23.9432  -24.8161  -13.9283 C   0  0  0  0  0  0  0  0  0  0  0  0
   23.9776  -23.4118  -13.3489 C   0  0  0  0  0  0  0  0  0  0  0  0
   24.8657  -22.5503  -14.1599 C   0  0  0  0  0  0  0  0  0  0  0  0
   24.9757  -21.1460  -13.5647 C   0  0  2  0  0  0  0  0  0  0  0  0
   25.8535  -20.3961  -14.4819 N   0  0  0  0  0  0  0  0  0  0  0  0
   25.5566  -21.2324  -12.2159 C   0  0  0  0  0  0  0  0  0  0  0  0
   26.7918  -21.4983  -12.0342 O   0  0  0  0  0  0  0  0  0  0  0  0
   24.4184  -25.0476  -17.9749 C   0  0  0  0  0  0  0  0  0  0  0  0
   28.8930  -18.5326   -6.3360 S   0  0  0  0  0  0  0  0  0  0  0  0
   28.0420  -18.6004   -7.9026 C   0  0  0  0  0  0  0  0  0  0  0  0
   26.9333  -19.9605   -8.1581 C   0  0  0  0  0  0  0  0  0  0  0  0
   26.4079  -20.1080   -9.5437 C   0  0  1  0  0  0  0  0  0  0  0  0
   25.4353  -21.2495   -9.7023 N   0  0  0  0  0  0  0  0  0  0  0  0
   24.8121  -21.0295  -11.0211 C   0  0  0  0  0  0  0  0  0  0  0  0
   24.3288  -21.1178   -8.7245 O   0  0  0  0  0  0  0  0  0  0  0  0
   24.4456  -21.5442   -7.4210 O   0  0  0  0  0  0  0  0  0  0  0  0
  2  1  1  6
  2 10  1  0
  3  2  1  0
  3  4  1  0
  4  9  2  0
  4  5  1  0
  5  6  2  0
  6  7  1  0
  8  7  2  0
  9  8  1  0
 10 11  2  0
 13 15  1  0
 13 12  1  0
 14 13  2  0
 16 15  1  0
 16 17  1  0
 17 18  1  0
 19 18  1  6
 20 10  1  0
 20 19  1  0
 21 19  1  0
 21 22  2  0
 23 24  1  0
 24 25  1  0
 25 26  1  0
 27 26  1  6
 27 28  1  0
 28 21  1  0
 29 30  1  0
 29 27  1  0
 31 29  2  0
M  END
$$$$
