FRM.pdb
     RDKit          3D

 31 31  0  0  1  0  0  0  0  0999 V2000
   21.1307  -32.9116  -14.0865 N   0  0  0  0  0  0  0  0  0  0  0  0
   21.9042  -32.2042  -13.0788 C   0  0  1  0  0  0  0  0  0  0  0  0
   20.9930  -31.4272  -12.1455 C   0  0  0  0  0  0  0  0  0  0  0  0
   21.7834  -30.7883  -11.0494 C   0  0  0  0  0  0  0  0  0  0  0  0
   21.9556  -31.3863   -9.8231 C   0  0  0  0  0  0  0  0  0  0  0  0
   22.6822  -30.8243   -8.8047 C   0  0  0  0  0  0  0  0  0  0  0  0
   23.2888  -29.5910   -8.9823 C   0  0  0  0  0  0  0  0  0  0  0  0
   23.1252  -28.9784  -10.2056 C   0  0  0  0  0  0  0  0  0  0  0  0
   22.3863  -29.5607  -11.2274 C   0  0  0  0  0  0  0  0  0  0  0  0
   22.7946  -33.1196  -12.3296 C   0  0  0  0  0  0  0  0  0  0  0  0
   22.3775  -34.2420  -11.8914 O   0  0  0  0  0  0  0  0  0  0  0  0
   27.6590  -33.9991  -16.6996 N   0  0  0  0  0  0  0  0  0  0  0  0
   27.9378  -32.9122  -15.8331 C   0  0  0  0  0  0  0  0  0  0  0  0
   28.1415  -31.7579  -16.3344 N   0  0  0  0  0  0  0  0  0  0  0  0
   27.9903  -33.1103  -14.4234 N   0  0  0  0  0  0  0  0  0  0  0  0
   27.8113  -34.4300  -13.8677 C   0  0  0  0  0  0  0  0  0  0  0  0
   26.4457  -34.5400  -13.2105 C   0  0  0  0  0  0  0  0  0  0  0  0
   26.3877  -33.6726  -12.0134 C   0  0  0  0  0  0  0  0  0  0  0  0
   25.0224  -33.7568  -11.3296 C   0  0  2  0  0  0  0  0  0  0  0  0
   24.1576  -32.8096  -12.0569 N   0  0  0  0  0  0  0  0  0  0  0  0
   25.1619  -33.3791   -9.9147 C   0  0  0  0  0  0  0  0  0  0  0  0
   25.3629  -32.1693   -9.5608 O   0  0  0  0  0  0  0  0  0  0  0  0
   28.3406  -30.8916  -15.8328 C   0  0  0  0  0  0  0  0  0  0  0  0
   22.9087  -35.2823   -2.5736 S   0  0  0  0  0  0  0  0  0  0  0  0
   23.1317  -35.6548   -4.3039 C   0  0  0  0  0  0  0  0  0  0  0  0
   24.2201  -34.5972   -5.2212 C   0  0  0  0  0  0  0  0  0  0  0  0
   24.2356  -34.8155   -6.6942 C   0  0  1  0  0  0  0  0  0  0  0  0
   25.1063  -33.8363   -7.4406 N   0  0  0  0  0  0  0  0  0  0  0  0
   25.0844  -34.3061   -8.8387 C   0  0  0  0  0  0  0  0  0  0  0  0
   26.5177  -33.9743   -7.0080 O   0  0  0  0  0  0  0  0  0  0  0  0
   27.0437  -33.2372   -5.9714 O   0  0  0  0  0  0  0  0  0  0  0  0
  2  1  1  6
  2 10  1  0
  3  2  1  0
  3  4  1  0
  4  9  2  0
  4  5  1  0
  5  6  2  0
  6  7  1  0
  8  7  2  0
  9  8  1  0
 10 11  2  0
 13 15  1  0
 13 12  1  0
 14 13  2  0
 16 15  1  0
 16 17  1  0
 17 18  1  0
 19 18  1  6
 20 10  1  0
 20 19  1  0
 21 19  1  0
 21 22  2  0
 23 24  1  0
 24 25  1  0
 25 26  1  0
 27 26  1  6
 27 28  1  0
 28 21  1  0
 29 30  1  0
 29 27  1  0
 31 29  2  0
M  END
$$$$
