FRM.pdb
     RDKit          3D

 31 31  0  0  1  0  0  0  0  0999 V2000
   25.6261  -17.8587  -15.9892 N   0  0  0  0  0  0  0  0  0  0  0  0
   26.5052  -18.2950  -14.9163 C   0  0  1  0  0  0  0  0  0  0  0  0
   27.4833  -17.1968  -14.5392 C   0  0  0  0  0  0  0  0  0  0  0  0
   28.3917  -16.8848  -15.6846 C   0  0  0  0  0  0  0  0  0  0  0  0
   29.2807  -17.8048  -16.1890 C   0  0  0  0  0  0  0  0  0  0  0  0
   30.1185  -17.5454  -17.2432 C   0  0  0  0  0  0  0  0  0  0  0  0
   30.0978  -16.3036  -17.8580 C   0  0  0  0  0  0  0  0  0  0  0  0
   29.2128  -15.3702  -17.3639 C   0  0  0  0  0  0  0  0  0  0  0  0
   28.3703  -15.6484  -16.2952 C   0  0  0  0  0  0  0  0  0  0  0  0
   25.7405  -18.7677  -13.7399 C   0  0  0  0  0  0  0  0  0  0  0  0
   24.8118  -18.0629  -13.2236 O   0  0  0  0  0  0  0  0  0  0  0  0
   21.9252  -25.4791  -14.4008 N   0  0  0  0  0  0  0  0  0  0  0  0
   23.3002  -25.1353  -14.4308 C   0  0  0  0  0  0  0  0  0  0  0  0
   24.1418  -25.9883  -14.8661 N   0  0  0  0  0  0  0  0  0  0  0  0
   23.7325  -23.8553  -13.9793 N   0  0  0  0  0  0  0  0  0  0  0  0
   22.7651  -22.8447  -13.6251 C   0  0  0  0  0  0  0  0  0  0  0  0
   23.4683  -21.5348  -13.3110 C   0  0  0  0  0  0  0  0  0  0  0  0
   24.5488  -21.7625  -12.3265 C   0  0  0  0  0  0  0  0  0  0  0  0
   25.2279  -20.4508  -11.9305 C   0  0  2  0  0  0  0  0  0  0  0  0
   25.9887  -20.0255  -13.1198 N   0  0  0  0  0  0  0  0  0  0  0  0
   26.1155  -20.6888  -10.7818 C   0  0  0  0  0  0  0  0  0  0  0  0
   27.1449  -21.4379  -10.8744 O   0  0  0  0  0  0  0  0  0  0  0  0
   25.1561  -25.8872  -14.9160 C   0  0  0  0  0  0  0  0  0  0  0  0
   30.1496  -18.9195   -5.3824 S   0  0  0  0  0  0  0  0  0  0  0  0
   28.3849  -19.0367   -5.1481 C   0  0  0  0  0  0  0  0  0  0  0  0
   27.5201  -20.2326   -6.1312 C   0  0  0  0  0  0  0  0  0  0  0  0
   27.0867  -19.7640   -7.4766 C   0  0  1  0  0  0  0  0  0  0  0  0
   26.3703  -20.8189   -8.2815 N   0  0  0  0  0  0  0  0  0  0  0  0
   25.9126  -20.1169   -9.4954 C   0  0  0  0  0  0  0  0  0  0  0  0
   25.1300  -21.2381   -7.5859 O   0  0  0  0  0  0  0  0  0  0  0  0
   23.8780  -20.9223   -8.0625 O   0  0  0  0  0  0  0  0  0  0  0  0
  2  1  1  6
  2 10  1  0
  3  2  1  0
  3  4  1  0
  4  9  2  0
  4  5  1  0
  5  6  2  0
  6  7  1  0
  8  7  2  0
  9  8  1  0
 10 11  2  0
 13 15  1  0
 13 12  1  0
 14 13  2  0
 16 15  1  0
 16 17  1  0
 17 18  1  0
 19 18  1  6
 20 10  1  0
 20 19  1  0
 21 19  1  0
 21 22  2  0
 23 24  1  0
 24 25  1  0
 25 26  1  0
 27 26  1  6
 27 28  1  0
 28 21  1  0
 29 30  1  0
 29 27  1  0
 31 29  2  0
M  END
$$$$
