FRM.pdb
     RDKit          3D

 31 31  0  0  1  0  0  0  0  0999 V2000
   28.6312  -21.0135   -9.6030 N   0  0  0  0  0  0  0  0  0  0  0  0
   27.2001  -20.8659   -9.3924 C   0  0  1  0  0  0  0  0  0  0  0  0
   26.9062  -19.6805   -8.4905 C   0  0  0  0  0  0  0  0  0  0  0  0
   27.5538  -19.8616   -7.1555 C   0  0  0  0  0  0  0  0  0  0  0  0
   26.8945  -20.4281   -6.0899 C   0  0  0  0  0  0  0  0  0  0  0  0
   27.4689  -20.6119   -4.8582 C   0  0  0  0  0  0  0  0  0  0  0  0
   28.7794  -20.2192   -4.6370 C   0  0  0  0  0  0  0  0  0  0  0  0
   29.4537  -19.6493   -5.6948 C   0  0  0  0  0  0  0  0  0  0  0  0
   28.8580  -19.4699   -6.9366 C   0  0  0  0  0  0  0  0  0  0  0  0
   26.4655  -20.7674  -10.6741 C   0  0  0  0  0  0  0  0  0  0  0  0
   26.7656  -19.8874  -11.5466 O   0  0  0  0  0  0  0  0  0  0  0  0
   24.5916  -25.1244  -17.2436 N   0  0  0  0  0  0  0  0  0  0  0  0
   25.4345  -25.3118  -16.1192 C   0  0  0  0  0  0  0  0  0  0  0  0
   26.5833  -25.8381  -16.2881 N   0  0  0  0  0  0  0  0  0  0  0  0
   25.0009  -24.9181  -14.8206 N   0  0  0  0  0  0  0  0  0  0  0  0
   23.6795  -24.3701  -14.6307 C   0  0  0  0  0  0  0  0  0  0  0  0
   23.7738  -22.9477  -14.1046 C   0  0  0  0  0  0  0  0  0  0  0  0
   24.4870  -22.9326  -12.8085 C   0  0  0  0  0  0  0  0  0  0  0  0
   24.6746  -21.5056  -12.2919 C   0  0  2  0  0  0  0  0  0  0  0  0
   25.3920  -21.6406  -11.0109 N   0  0  0  0  0  0  0  0  0  0  0  0
   23.3574  -20.8773  -12.1063 C   0  0  0  0  0  0  0  0  0  0  0  0
   22.6952  -21.0166  -11.0240 O   0  0  0  0  0  0  0  0  0  0  0  0
   27.2786  -26.0497  -15.5716 C   0  0  0  0  0  0  0  0  0  0  0  0
   20.9953  -14.7459  -14.2320 S   0  0  0  0  0  0  0  0  0  0  0  0
   19.9093  -16.0949  -14.6603 C   0  0  0  0  0  0  0  0  0  0  0  0
   20.0203  -17.5626  -13.6713 C   0  0  0  0  0  0  0  0  0  0  0  0
   21.3245  -18.2788  -13.7307 C   0  0  1  0  0  0  0  0  0  0  0  0
   21.3873  -19.4938  -12.8397 N   0  0  0  0  0  0  0  0  0  0  0  0
   22.7196  -20.0746  -13.0922 C   0  0  0  0  0  0  0  0  0  0  0  0
   20.4234  -20.5195  -13.3054 O   0  0  0  0  0  0  0  0  0  0  0  0
   19.1753  -20.6635  -12.7434 O   0  0  0  0  0  0  0  0  0  0  0  0
  2  1  1  6
  2 10  1  0
  3  2  1  0
  3  4  1  0
  4  9  2  0
  4  5  1  0
  5  6  2  0
  6  7  1  0
  8  7  2  0
  9  8  1  0
 10 11  2  0
 13 15  1  0
 13 12  1  0
 14 13  2  0
 16 15  1  0
 16 17  1  0
 17 18  1  0
 19 18  1  1
 20 10  1  0
 20 19  1  0
 21 19  1  0
 21 22  2  0
 23 24  1  0
 24 25  1  0
 25 26  1  0
 27 26  1  1
 27 28  1  0
 28 21  1  0
 29 30  1  0
 29 27  1  0
 31 29  2  0
M  END
$$$$
