NAT.pdb
     RDKit          3D

 21 20  0  0  1  0  0  0  0  0999 V2000
   16.7646  -13.3634  -17.5638 N   0  0  0  0  0  0  0  0  0  0  0  0
   16.5503  -12.4529  -16.4904 C   0  0  0  0  0  0  0  0  0  0  0  0
   15.3638  -12.3754  -16.0466 O   0  0  0  0  0  0  0  0  0  0  0  0
   17.6412  -11.6309  -15.9087 C   0  0  0  0  0  0  0  0  0  0  0  0
   18.8976  -11.8769  -16.6878 C   0  0  2  0  0  0  0  0  0  0  0  0
   19.4810  -13.1394  -16.3380 N   0  0  0  0  0  0  0  0  0  0  0  0
   19.8436  -10.7438  -16.4905 C   0  0  0  0  0  0  0  0  0  0  0  0
   20.5440  -10.6872  -15.4486 O   0  0  0  0  0  0  0  0  0  0  0  0
   21.2953   -7.9842  -18.6473 C   0  0  0  0  0  0  0  0  0  0  0  0
   20.9727   -8.6425  -17.3293 C   0  0  2  0  0  0  0  0  0  0  0  0
   20.0111   -9.6926  -17.4294 N   0  0  0  0  0  0  0  0  0  0  0  0
   20.6378   -7.6052  -16.3444 C   0  0  0  0  0  0  0  0  0  0  0  0
   19.4734   -7.1295  -16.3556 O   0  0  0  0  0  0  0  0  0  0  0  0
   20.1931   -7.7777  -12.7629 C   0  0  0  0  0  0  0  0  0  0  0  0
   21.2068   -6.6932  -12.9672 C   0  0  1  0  0  0  0  0  0  0  0  0
   22.4625   -7.2280  -12.6837 O   0  0  0  0  0  0  0  0  0  0  0  0
   21.2128   -6.1385  -14.3647 C   0  0  2  0  0  0  0  0  0  0  0  0
   21.5364   -7.0930  -15.3711 N   0  0  0  0  0  0  0  0  0  0  0  0
   22.1529   -4.9612  -14.3762 C   0  0  0  0  0  0  0  0  0  0  0  0
   21.8879   -3.8287  -13.6487 O   0  0  0  0  0  0  0  0  0  0  0  0
   23.2130   -4.9990  -15.0644 O   0  0  0  0  0  0  0  0  0  0  0  0
  2  1  1  0
  2  4  1  0
  3  2  2  0
  5  4  1  0
  5  6  1  1
  7 11  1  0
  7  5  1  0
  8  7  2  0
 10  9  1  6
 10 11  1  0
 12 10  1  0
 12 18  1  0
 13 12  2  0
 15 14  1  6
 16 15  1  0
 17 18  1  6
 17 15  1  0
 19 17  1  0
 20 19  1  0
 21 19  2  0
M  END
$$$$
