NAT.pdb
     RDKit          3D

 21 20  0  0  1  0  0  0  0  0999 V2000
   13.6005  -11.5057  -14.3669 N   0  0  0  0  0  0  0  0  0  0  0  0
   14.9307  -11.5761  -13.8640 C   0  0  0  0  0  0  0  0  0  0  0  0
   15.1510  -12.4564  -12.9766 O   0  0  0  0  0  0  0  0  0  0  0  0
   16.0139  -10.6784  -14.3383 C   0  0  0  0  0  0  0  0  0  0  0  0
   15.4446   -9.7278  -15.3473 C   0  0  2  0  0  0  0  0  0  0  0  0
   15.0065  -10.4252  -16.5213 N   0  0  0  0  0  0  0  0  0  0  0  0
   16.4420   -8.6670  -15.6600 C   0  0  0  0  0  0  0  0  0  0  0  0
   17.3735   -8.9028  -16.4698 O   0  0  0  0  0  0  0  0  0  0  0  0
   16.6682   -4.9460  -15.4221 C   0  0  0  0  0  0  0  0  0  0  0  0
   17.3139   -6.3087  -15.3923 C   0  0  2  0  0  0  0  0  0  0  0  0
   16.4086   -7.3690  -15.0866 N   0  0  0  0  0  0  0  0  0  0  0  0
   18.5019   -6.2576  -14.5295 C   0  0  0  0  0  0  0  0  0  0  0  0
   18.3573   -6.5052  -13.3048 O   0  0  0  0  0  0  0  0  0  0  0  0
   23.2900   -6.8793  -13.8064 C   0  0  0  0  0  0  0  0  0  0  0  0
   22.1261   -6.7507  -14.7413 C   0  0  1  0  0  0  0  0  0  0  0  0
   21.6771   -8.0365  -15.0387 O   0  0  0  0  0  0  0  0  0  0  0  0
   20.9874   -5.9524  -14.1693 C   0  0  2  0  0  0  0  0  0  0  0  0
   19.8138   -5.9472  -14.9762 N   0  0  0  0  0  0  0  0  0  0  0  0
   21.5019   -4.5609  -13.9072 C   0  0  0  0  0  0  0  0  0  0  0  0
   22.0842   -4.2284  -12.7103 O   0  0  0  0  0  0  0  0  0  0  0  0
   21.4041   -3.6674  -14.7966 O   0  0  0  0  0  0  0  0  0  0  0  0
  2  1  1  0
  2  4  1  0
  3  2  2  0
  5  4  1  0
  5  6  1  6
  7 11  1  0
  7  5  1  0
  8  7  2  0
 10  9  1  1
 10 11  1  0
 12 10  1  0
 12 18  1  0
 13 12  2  0
 15 14  1  1
 16 15  1  0
 17 18  1  6
 17 15  1  0
 19 17  1  0
 20 19  1  0
 21 19  2  0
M  END
$$$$
