NAT.pdb
     RDKit          3D

 21 20  0  0  1  0  0  0  0  0999 V2000
   38.9324  -11.8431  -14.5717 N   0  0  0  0  0  0  0  0  0  0  0  0
   38.4199  -11.2058  -13.4062 C   0  0  0  0  0  0  0  0  0  0  0  0
   38.9670  -11.5217  -12.3054 O   0  0  0  0  0  0  0  0  0  0  0  0
   37.3076  -10.2236  -13.4551 C   0  0  0  0  0  0  0  0  0  0  0  0
   37.0323   -9.8785  -14.8872 C   0  0  2  0  0  0  0  0  0  0  0  0
   38.0222   -8.9756  -15.3983 N   0  0  0  0  0  0  0  0  0  0  0  0
   35.6516   -9.3360  -15.0189 C   0  0  0  0  0  0  0  0  0  0  0  0
   34.6629  -10.0837  -14.8121 O   0  0  0  0  0  0  0  0  0  0  0  0
   34.0411   -5.9560  -15.7525 C   0  0  0  0  0  0  0  0  0  0  0  0
   34.0709   -7.4588  -15.6280 C   0  0  2  0  0  0  0  0  0  0  0  0
   35.3707   -7.9906  -15.3730 N   0  0  0  0  0  0  0  0  0  0  0  0
   33.3906   -8.0497  -16.7883 C   0  0  0  0  0  0  0  0  0  0  0  0
   34.0985   -8.5291  -17.7110 O   0  0  0  0  0  0  0  0  0  0  0  0
   29.1873   -9.6355  -18.9889 C   0  0  0  0  0  0  0  0  0  0  0  0
   29.8259   -8.8264  -17.9013 C   0  0  1  0  0  0  0  0  0  0  0  0
   29.6122   -9.4931  -16.6959 O   0  0  0  0  0  0  0  0  0  0  0  0
   31.3032   -8.6256  -18.0967 C   0  0  2  0  0  0  0  0  0  0  0  0
   31.9815   -8.1219  -16.9501 N   0  0  0  0  0  0  0  0  0  0  0  0
   31.4798   -7.7333  -19.2978 C   0  0  0  0  0  0  0  0  0  0  0  0
   31.6355   -8.2539  -20.5575 O   0  0  0  0  0  0  0  0  0  0  0  0
   31.4874   -6.4762  -19.1620 O   0  0  0  0  0  0  0  0  0  0  0  0
  2  1  1  0
  2  4  1  0
  3  2  2  0
  5  4  1  0
  5  6  1  1
  7 11  1  0
  7  5  1  0
  8  7  2  0
 10  9  1  6
 10 11  1  0
 12 10  1  0
 12 18  1  0
 13 12  2  0
 15 14  1  6
 16 15  1  0
 17 18  1  1
 17 15  1  0
 19 17  1  0
 20 19  1  0
 21 19  2  0
M  END
$$$$
