NAT.pdb
     RDKit          3D

 21 20  0  0  1  0  0  0  0  0999 V2000
   15.9820  -12.3604  -14.6871 N   0  0  0  0  0  0  0  0  0  0  0  0
   16.4683  -11.9074  -13.4279 C   0  0  0  0  0  0  0  0  0  0  0  0
   16.3974  -12.7335  -12.4670 O   0  0  0  0  0  0  0  0  0  0  0  0
   17.0309  -10.5478  -13.2297 C   0  0  0  0  0  0  0  0  0  0  0  0
   16.8245   -9.7535  -14.4836 C   0  0  2  0  0  0  0  0  0  0  0  0
   17.6873  -10.2143  -15.5324 N   0  0  0  0  0  0  0  0  0  0  0  0
   17.0076   -8.3034  -14.1981 C   0  0  0  0  0  0  0  0  0  0  0  0
   18.1628   -7.8411  -14.0218 O   0  0  0  0  0  0  0  0  0  0  0  0
   15.0885   -5.1139  -14.5518 C   0  0  0  0  0  0  0  0  0  0  0  0
   16.0574   -5.9939  -13.8023 C   0  0  2  0  0  0  0  0  0  0  0  0
   15.9316   -7.3821  -14.1095 N   0  0  0  0  0  0  0  0  0  0  0  0
   15.9802   -5.6802  -12.3692 C   0  0  0  0  0  0  0  0  0  0  0  0
   16.1991   -4.4953  -12.0081 O   0  0  0  0  0  0  0  0  0  0  0  0
   13.1002   -6.6264   -9.7825 C   0  0  0  0  0  0  0  0  0  0  0  0
   14.4465   -7.0236   -9.2579 C   0  0  1  0  0  0  0  0  0  0  0  0
   14.5760   -8.4017   -9.4233 O   0  0  0  0  0  0  0  0  0  0  0  0
   15.5857   -6.3353   -9.9576 C   0  0  2  0  0  0  0  0  0  0  0  0
   15.6746   -6.6209  -11.3501 N   0  0  0  0  0  0  0  0  0  0  0  0
   16.8493   -6.6987   -9.2220 C   0  0  0  0  0  0  0  0  0  0  0  0
   17.0677   -6.2877   -7.9315 O   0  0  0  0  0  0  0  0  0  0  0  0
   17.7385   -7.3962   -9.7892 O   0  0  0  0  0  0  0  0  0  0  0  0
  2  1  1  0
  2  4  1  0
  3  2  2  0
  5  4  1  0
  5  6  1  6
  7 11  1  0
  7  5  1  0
  8  7  2  0
 10  9  1  6
 10 11  1  0
 12 10  1  0
 12 18  1  0
 13 12  2  0
 15 14  1  6
 16 15  1  0
 17 18  1  6
 17 15  1  0
 19 17  1  0
 20 19  1  0
 21 19  2  0
M  END
$$$$
