NAT.pdb
     RDKit          3D

 21 20  0  0  1  0  0  0  0  0999 V2000
   15.5132  -12.6818  -14.4793 N   0  0  0  0  0  0  0  0  0  0  0  0
   15.4102  -11.3306  -14.9160 C   0  0  0  0  0  0  0  0  0  0  0  0
   14.2664  -10.9544  -15.3173 O   0  0  0  0  0  0  0  0  0  0  0  0
   16.5651  -10.3976  -14.9100 C   0  0  0  0  0  0  0  0  0  0  0  0
   16.9752  -10.1294  -16.3262 C   0  0  2  0  0  0  0  0  0  0  0  0
   17.5038  -11.3119  -16.9415 N   0  0  0  0  0  0  0  0  0  0  0  0
   17.9376   -8.9936  -16.3663 C   0  0  0  0  0  0  0  0  0  0  0  0
   19.1577   -9.1990  -16.1462 O   0  0  0  0  0  0  0  0  0  0  0  0
   17.8452   -5.3702  -17.5089 C   0  0  0  0  0  0  0  0  0  0  0  0
   18.4549   -6.5583  -16.8078 C   0  0  2  0  0  0  0  0  0  0  0  0
   17.5563   -7.6551  -16.6448 N   0  0  0  0  0  0  0  0  0  0  0  0
   19.0919   -6.1059  -15.5637 C   0  0  0  0  0  0  0  0  0  0  0  0
   18.3605   -5.9097  -14.5593 O   0  0  0  0  0  0  0  0  0  0  0  0
   21.8851   -7.9058  -13.6923 C   0  0  0  0  0  0  0  0  0  0  0  0
   22.2885   -6.4710  -13.8472 C   0  0  1  0  0  0  0  0  0  0  0  0
   23.2330   -6.4044  -14.8703 O   0  0  0  0  0  0  0  0  0  0  0  0
   21.1386   -5.5610  -14.1798 C   0  0  2  0  0  0  0  0  0  0  0  0
   20.4837   -5.8709  -15.4060 N   0  0  0  0  0  0  0  0  0  0  0  0
   21.6630   -4.1488  -14.1578 C   0  0  0  0  0  0  0  0  0  0  0  0
   22.1488   -3.5853  -13.0052 O   0  0  0  0  0  0  0  0  0  0  0  0
   21.6634   -3.4528  -15.2135 O   0  0  0  0  0  0  0  0  0  0  0  0
  2  1  1  0
  2  4  1  0
  3  2  2  0
  5  4  1  0
  5  6  1  1
  7 11  1  0
  7  5  1  0
  8  7  2  0
 10  9  1  1
 10 11  1  0
 12 10  1  0
 12 18  1  0
 13 12  2  0
 15 14  1  6
 16 15  1  0
 17 18  1  6
 17 15  1  0
 19 17  1  0
 20 19  1  0
 21 19  2  0
M  END
$$$$
