NAT.pdb
     RDKit          3D

 21 20  0  0  1  0  0  0  0  0999 V2000
   17.1870  -12.4653  -18.0694 N   0  0  0  0  0  0  0  0  0  0  0  0
   17.2762  -12.7736  -16.6823 C   0  0  0  0  0  0  0  0  0  0  0  0
   16.3902  -13.5572  -16.2219 O   0  0  0  0  0  0  0  0  0  0  0  0
   18.3390  -12.2193  -15.8063 C   0  0  0  0  0  0  0  0  0  0  0  0
   19.2165  -11.3203  -16.6233 C   0  0  2  0  0  0  0  0  0  0  0  0
   20.0691  -12.0818  -17.4892 N   0  0  0  0  0  0  0  0  0  0  0  0
   19.9868  -10.4154  -15.7256 C   0  0  0  0  0  0  0  0  0  0  0  0
   19.3779   -9.6273  -14.9592 O   0  0  0  0  0  0  0  0  0  0  0  0
   23.6204  -10.0027  -14.6787 C   0  0  0  0  0  0  0  0  0  0  0  0
   22.1826   -9.5651  -14.8042 C   0  0  2  0  0  0  0  0  0  0  0  0
   21.4050  -10.3836  -15.6775 N   0  0  0  0  0  0  0  0  0  0  0  0
   22.1436   -8.1313  -15.1217 C   0  0  0  0  0  0  0  0  0  0  0  0
   22.4587   -7.7721  -16.2853 O   0  0  0  0  0  0  0  0  0  0  0  0
   19.5543   -5.8687  -15.8116 C   0  0  0  0  0  0  0  0  0  0  0  0
   20.2880   -5.2091  -14.6838 C   0  0  1  0  0  0  0  0  0  0  0  0
   19.5663   -5.4433  -13.5143 O   0  0  0  0  0  0  0  0  0  0  0  0
   21.6911   -5.7195  -14.5060 C   0  0  2  0  0  0  0  0  0  0  0  0
   21.7741   -7.1096  -14.2071 N   0  0  0  0  0  0  0  0  0  0  0  0
   22.3464   -4.8714  -13.4471 C   0  0  0  0  0  0  0  0  0  0  0  0
   22.6678   -5.3869  -12.2171 O   0  0  0  0  0  0  0  0  0  0  0  0
   22.6134   -3.6572  -13.6782 O   0  0  0  0  0  0  0  0  0  0  0  0
  2  1  1  0
  2  4  1  0
  3  2  2  0
  5  4  1  0
  5  6  1  1
  7 11  1  0
  7  5  1  0
  8  7  2  0
 10  9  1  6
 10 11  1  0
 12 10  1  0
 12 18  1  0
 13 12  2  0
 15 14  1  6
 16 15  1  0
 17 18  1  1
 17 15  1  0
 19 17  1  0
 20 19  1  0
 21 19  2  0
M  END
$$$$
