NAT.pdb
     RDKit          3D

 21 20  0  0  1  0  0  0  0  0999 V2000
   14.5481  -15.1104  -18.2971 N   0  0  0  0  0  0  0  0  0  0  0  0
   15.3292  -15.4620  -17.1598 C   0  0  0  0  0  0  0  0  0  0  0  0
   15.4075  -16.7001  -16.8919 O   0  0  0  0  0  0  0  0  0  0  0  0
   16.0213  -14.4512  -16.3211 C   0  0  0  0  0  0  0  0  0  0  0  0
   16.7088  -13.4687  -17.2199 C   0  0  2  0  0  0  0  0  0  0  0  0
   17.7488  -14.1034  -17.9762 N   0  0  0  0  0  0  0  0  0  0  0  0
   17.2143  -12.3197  -16.4184 C   0  0  0  0  0  0  0  0  0  0  0  0
   16.4264  -11.6769  -15.6800 O   0  0  0  0  0  0  0  0  0  0  0  0
   20.5931  -10.7774  -15.5932 C   0  0  0  0  0  0  0  0  0  0  0  0
   19.0890  -10.7807  -15.7039 C   0  0  2  0  0  0  0  0  0  0  0  0
   18.5671  -11.8905  -16.4342 N   0  0  0  0  0  0  0  0  0  0  0  0
   18.6411   -9.4692  -16.1912 C   0  0  0  0  0  0  0  0  0  0  0  0
   18.8115   -9.1978  -17.4075 O   0  0  0  0  0  0  0  0  0  0  0  0
   15.1571   -7.7524  -16.1574 C   0  0  0  0  0  0  0  0  0  0  0  0
   16.1606   -6.8725  -15.4762 C   0  0  1  0  0  0  0  0  0  0  0  0
   15.9949   -7.0267  -14.1007 O   0  0  0  0  0  0  0  0  0  0  0  0
   17.5829   -7.1982  -15.8395 C   0  0  2  0  0  0  0  0  0  0  0  0
   18.0244   -8.4744  -15.3868 N   0  0  0  0  0  0  0  0  0  0  0  0
   18.4470   -6.0804  -15.3161 C   0  0  0  0  0  0  0  0  0  0  0  0
   18.3491   -4.8073  -15.8178 O   0  0  0  0  0  0  0  0  0  0  0  0
   19.2855   -6.3008  -14.3957 O   0  0  0  0  0  0  0  0  0  0  0  0
  2  1  1  0
  2  4  1  0
  3  2  2  0
  5  4  1  0
  5  6  1  1
  7 11  1  0
  7  5  1  0
  8  7  2  0
 10  9  1  6
 10 11  1  0
 12 10  1  0
 12 18  1  0
 13 12  2  0
 15 14  1  6
 16 15  1  0
 17 18  1  1
 17 15  1  0
 19 17  1  0
 20 19  1  0
 21 19  2  0
M  END
$$$$
