NAT.pdb
     RDKit          3D

 21 20  0  0  1  0  0  0  0  0999 V2000
   13.6870  -14.3584  -13.5992 N   0  0  0  0  0  0  0  0  0  0  0  0
   13.8501  -12.9610  -13.8178 C   0  0  0  0  0  0  0  0  0  0  0  0
   12.8943  -12.2168  -13.4388 O   0  0  0  0  0  0  0  0  0  0  0  0
   15.0632  -12.3866  -14.4522 C   0  0  0  0  0  0  0  0  0  0  0  0
   14.6429  -11.5303  -15.6080 C   0  0  2  0  0  0  0  0  0  0  0  0
   14.0258  -12.3187  -16.6347 N   0  0  0  0  0  0  0  0  0  0  0  0
   15.8111  -10.7579  -16.1148 C   0  0  0  0  0  0  0  0  0  0  0  0
   16.7854  -11.3622  -16.6293 O   0  0  0  0  0  0  0  0  0  0  0  0
   16.6555   -7.1344  -16.8289 C   0  0  0  0  0  0  0  0  0  0  0  0
   17.0073   -8.5644  -16.5034 C   0  0  2  0  0  0  0  0  0  0  0  0
   15.8989   -9.3427  -16.0529 N   0  0  0  0  0  0  0  0  0  0  0  0
   18.1661   -8.5796  -15.6004 C   0  0  0  0  0  0  0  0  0  0  0  0
   17.9531   -8.5640  -14.3608 O   0  0  0  0  0  0  0  0  0  0  0  0
   22.9944   -9.5284  -14.8471 C   0  0  0  0  0  0  0  0  0  0  0  0
   21.8911   -9.2349  -15.8176 C   0  0  1  0  0  0  0  0  0  0  0  0
   21.5662  -10.4270  -16.4631 O   0  0  0  0  0  0  0  0  0  0  0  0
   20.6565   -8.6766  -15.1657 C   0  0  2  0  0  0  0  0  0  0  0  0
   19.5214   -8.6107  -16.0235 N   0  0  0  0  0  0  0  0  0  0  0  0
   21.0187   -7.3283  -14.5993 C   0  0  0  0  0  0  0  0  0  0  0  0
   21.3827   -7.1803  -13.2849 O   0  0  0  0  0  0  0  0  0  0  0  0
   20.9926   -6.3003  -15.3351 O   0  0  0  0  0  0  0  0  0  0  0  0
  2  1  1  0
  2  4  1  0
  3  2  2  0
  5  4  1  0
  5  6  1  6
  7 11  1  0
  7  5  1  0
  8  7  2  0
 10  9  1  1
 10 11  1  0
 12 10  1  0
 12 18  1  0
 13 12  2  0
 15 14  1  1
 16 15  1  0
 17 18  1  6
 17 15  1  0
 19 17  1  0
 20 19  1  0
 21 19  2  0
M  END
$$$$
