VSS.pdb
     RDKit          3D

 20 19  0  0  1  0  0  0  0  0999 V2000
    7.5767  -14.0553   16.8165 C   0  0  0  0  0  0  0  0  0  0  0  0
    8.2402  -14.5370   18.0980 C   0  0  1  0  0  0  0  0  0  0  0  0
    9.7354  -14.4025   18.0103 C   0  0  0  0  0  0  0  0  0  0  0  0
    7.6390  -13.7426   19.2282 C   0  0  2  0  0  0  0  0  0  0  0  0
    7.9507  -12.3426   19.0125 N   0  0  0  0  0  0  0  0  0  0  0  0
    8.1415  -14.2014   20.5550 C   0  0  0  0  0  0  0  0  0  0  0  0
    9.1256  -13.6172   21.0452 O   0  0  0  0  0  0  0  0  0  0  0  0
    6.8224  -17.9319   22.4012 O   0  0  0  0  0  0  0  0  0  0  0  0
    7.0919  -16.7742   23.1163 C   0  0  0  0  0  0  0  0  0  0  0  0
    8.0154  -15.8398   22.4296 C   0  0  2  0  0  0  0  0  0  0  0  0
    7.5074  -15.2705   21.2240 N   0  0  0  0  0  0  0  0  0  0  0  0
    9.4144  -16.3770   22.3081 C   0  0  0  0  0  0  0  0  0  0  0  0
    9.8671  -16.8528   21.2508 O   0  0  0  0  0  0  0  0  0  0  0  0
   13.8144  -16.1497   23.2029 O   0  0  0  0  0  0  0  0  0  0  0  0
   12.4977  -15.6972   23.1640 C   0  0  0  0  0  0  0  0  0  0  0  0
   11.5641  -16.8767   23.4610 C   0  0  2  0  0  0  0  0  0  0  0  0
   10.2216  -16.3188   23.4757 N   0  0  0  0  0  0  0  0  0  0  0  0
   11.8463  -17.4440   24.7886 C   0  0  0  0  0  0  0  0  0  0  0  0
   12.9731  -18.2080   24.9825 O   0  0  0  0  0  0  0  0  0  0  0  0
   11.0755  -17.2449   25.7565 O   0  0  0  0  0  0  0  0  0  0  0  0
  2  1  1  6
  2  4  1  0
  3  2  1  0
  4  5  1  6
  6 11  1  0
  6  4  1  0
  7  6  2  0
 10  9  1  6
  9  8  1  0
 10 12  1  0
 10 11  1  0
 12 17  1  0
 13 12  2  0
 15 14  1  0
 16 18  1  0
 16 15  1  1
 17 16  1  0
 18 19  1  0
 20 18  2  0
M  END
$$$$
