VSS.pdb
     RDKit          3D

 20 19  0  0  1  0  0  0  0  0999 V2000
    7.5230  -17.5599   13.6789 C   0  0  0  0  0  0  0  0  0  0  0  0
    8.4397  -17.0208   14.7668 C   0  0  1  0  0  0  0  0  0  0  0  0
    9.8263  -17.5860   14.6276 C   0  0  0  0  0  0  0  0  0  0  0  0
    8.3997  -15.5179   14.6688 C   0  0  2  0  0  0  0  0  0  0  0  0
    8.9276  -15.1353   13.3732 N   0  0  0  0  0  0  0  0  0  0  0  0
    9.1702  -14.8714   15.7696 C   0  0  0  0  0  0  0  0  0  0  0  0
   10.3600  -14.5720   15.5575 O   0  0  0  0  0  0  0  0  0  0  0  0
    7.7185  -14.5153   19.9171 O   0  0  0  0  0  0  0  0  0  0  0  0
    8.3811  -13.5267   19.2046 C   0  0  0  0  0  0  0  0  0  0  0  0
    9.2494  -14.0418   18.1190 C   0  0  2  0  0  0  0  0  0  0  0  0
    8.5529  -14.6126   17.0123 N   0  0  0  0  0  0  0  0  0  0  0  0
   10.3868  -14.8853   18.6244 C   0  0  0  0  0  0  0  0  0  0  0  0
   10.3994  -16.1268   18.5371 O   0  0  0  0  0  0  0  0  0  0  0  0
   14.9456  -14.6436   20.0977 O   0  0  0  0  0  0  0  0  0  0  0  0
   13.8207  -14.0066   19.5795 C   0  0  0  0  0  0  0  0  0  0  0  0
   12.6121  -14.9364   19.7403 C   0  0  2  0  0  0  0  0  0  0  0  0
   11.4754  -14.1939   19.2201 N   0  0  0  0  0  0  0  0  0  0  0  0
   12.3650  -15.2299   21.1604 C   0  0  0  0  0  0  0  0  0  0  0  0
   13.1675  -16.1272   21.8250 O   0  0  0  0  0  0  0  0  0  0  0  0
   11.4305  -14.6753   21.7846 O   0  0  0  0  0  0  0  0  0  0  0  0
  2  1  1  6
  2  4  1  0
  3  2  1  0
  4  5  1  6
  6 11  1  0
  6  4  1  0
  7  6  2  0
 10  9  1  1
  9  8  1  0
 10 12  1  0
 10 11  1  0
 12 17  1  0
 13 12  2  0
 15 14  1  0
 16 18  1  0
 16 15  1  1
 17 16  1  0
 18 19  1  0
 20 18  2  0
M  END
$$$$
