VSS.pdb
     RDKit          3D

 20 19  0  0  1  0  0  0  0  0999 V2000
    9.6464  -24.0762   15.5933 C   0  0  0  0  0  0  0  0  0  0  0  0
    8.8118  -23.1459   14.7259 C   0  0  1  0  0  0  0  0  0  0  0  0
    7.8308  -23.9254   13.8942 C   0  0  0  0  0  0  0  0  0  0  0  0
    8.1505  -22.1587   15.6521 C   0  0  2  0  0  0  0  0  0  0  0  0
    7.4940  -21.1496   14.8432 N   0  0  0  0  0  0  0  0  0  0  0  0
    9.1307  -21.5359   16.5875 C   0  0  0  0  0  0  0  0  0  0  0  0
   10.0488  -20.8474   16.1046 O   0  0  0  0  0  0  0  0  0  0  0  0
    8.6695  -21.4921   20.9730 O   0  0  0  0  0  0  0  0  0  0  0  0
    9.2240  -20.5505   20.1185 C   0  0  0  0  0  0  0  0  0  0  0  0
    9.8889  -21.1313   18.9275 C   0  0  2  0  0  0  0  0  0  0  0  0
    9.0071  -21.7315   17.9800 N   0  0  0  0  0  0  0  0  0  0  0  0
   11.0813  -21.9793   19.2733 C   0  0  0  0  0  0  0  0  0  0  0  0
   11.0393  -23.2227   19.3107 O   0  0  0  0  0  0  0  0  0  0  0  0
   14.5080  -19.8922   19.8482 O   0  0  0  0  0  0  0  0  0  0  0  0
   14.6642  -21.2104   19.4267 C   0  0  0  0  0  0  0  0  0  0  0  0
   13.4789  -22.0347   19.9430 C   0  0  2  0  0  0  0  0  0  0  0  0
   12.2894  -21.2902   19.5626 N   0  0  0  0  0  0  0  0  0  0  0  0
   13.5140  -22.1368   21.4101 C   0  0  0  0  0  0  0  0  0  0  0  0
   12.5671  -21.4862   22.1657 O   0  0  0  0  0  0  0  0  0  0  0  0
   14.3961  -22.8098   21.9928 O   0  0  0  0  0  0  0  0  0  0  0  0
  2  1  1  1
  2  4  1  0
  3  2  1  0
  4  5  1  6
  6 11  1  0
  6  4  1  0
  7  6  2  0
 10  9  1  1
  9  8  1  0
 10 12  1  0
 10 11  1  0
 12 17  1  0
 13 12  2  0
 15 14  1  0
 16 18  1  0
 16 15  1  1
 17 16  1  0
 18 19  1  0
 20 18  2  0
M  END
$$$$
