VSS.pdb
     RDKit          3D

 20 19  0  0  1  0  0  0  0  0999 V2000
    5.3425  -23.0115   21.5758 C   0  0  0  0  0  0  0  0  0  0  0  0
    6.3611  -22.2535   22.4137 C   0  0  1  0  0  0  0  0  0  0  0  0
    7.6106  -21.9823   21.6221 C   0  0  0  0  0  0  0  0  0  0  0  0
    5.6829  -20.9986   22.8988 C   0  0  2  0  0  0  0  0  0  0  0  0
    5.2004  -20.2694   21.7416 N   0  0  0  0  0  0  0  0  0  0  0  0
    6.6014  -20.1540   23.7152 C   0  0  0  0  0  0  0  0  0  0  0  0
    7.2833  -19.2920   23.1303 O   0  0  0  0  0  0  0  0  0  0  0  0
    6.5039  -19.6374   28.0582 O   0  0  0  0  0  0  0  0  0  0  0  0
    7.0430  -18.8657   27.0393 C   0  0  0  0  0  0  0  0  0  0  0  0
    7.6309  -19.6536   25.9297 C   0  0  2  0  0  0  0  0  0  0  0  0
    6.6837  -20.3393   25.1121 N   0  0  0  0  0  0  0  0  0  0  0  0
    8.7924  -20.5047   26.3621 C   0  0  0  0  0  0  0  0  0  0  0  0
    8.6705  -21.6984   26.6927 O   0  0  0  0  0  0  0  0  0  0  0  0
   12.4091  -18.5771   26.5138 O   0  0  0  0  0  0  0  0  0  0  0  0
   12.4354  -19.9187   26.1408 C   0  0  0  0  0  0  0  0  0  0  0  0
   11.2423  -20.6318   26.7882 C   0  0  2  0  0  0  0  0  0  0  0  0
   10.0677  -19.8791   26.3789 N   0  0  0  0  0  0  0  0  0  0  0  0
   11.3383  -20.5823   28.2553 C   0  0  0  0  0  0  0  0  0  0  0  0
   12.3268  -21.2861   28.9021 O   0  0  0  0  0  0  0  0  0  0  0  0
   10.5316  -19.9065   28.9358 O   0  0  0  0  0  0  0  0  0  0  0  0
  2  1  1  6
  2  4  1  0
  3  2  1  0
  4  5  1  6
  6 11  1  0
  6  4  1  0
  7  6  2  0
 10  9  1  1
  9  8  1  0
 10 12  1  0
 10 11  1  0
 12 17  1  0
 13 12  2  0
 15 14  1  0
 16 18  1  0
 16 15  1  6
 17 16  1  0
 18 19  1  0
 20 18  2  0
M  END
$$$$
