VSS.pdb
     RDKit          3D

 20 19  0  0  1  0  0  0  0  0999 V2000
    8.1583  -13.4347   18.7584 C   0  0  0  0  0  0  0  0  0  0  0  0
    7.9313  -13.2932   20.2560 C   0  0  1  0  0  0  0  0  0  0  0  0
    6.4709  -13.4225   20.5909 C   0  0  0  0  0  0  0  0  0  0  0  0
    8.7880  -14.3336   20.9295 C   0  0  2  0  0  0  0  0  0  0  0  0
    8.4583  -15.6270   20.3621 N   0  0  0  0  0  0  0  0  0  0  0  0
    8.5948  -14.3362   22.4081 C   0  0  0  0  0  0  0  0  0  0  0  0
    8.9105  -13.3135   23.0442 O   0  0  0  0  0  0  0  0  0  0  0  0
    7.4214  -17.9095   24.6472 O   0  0  0  0  0  0  0  0  0  0  0  0
    6.9823  -16.6242   24.9291 C   0  0  0  0  0  0  0  0  0  0  0  0
    7.9012  -15.5560   24.4684 C   0  0  2  0  0  0  0  0  0  0  0  0
    8.0673  -15.4752   23.0537 N   0  0  0  0  0  0  0  0  0  0  0  0
    9.1927  -15.5177   25.2373 C   0  0  0  0  0  0  0  0  0  0  0  0
   10.2539  -16.0010   24.8020 O   0  0  0  0  0  0  0  0  0  0  0  0
    8.9909  -13.5446   28.7746 O   0  0  0  0  0  0  0  0  0  0  0  0
   10.2632  -13.6584   28.2196 C   0  0  0  0  0  0  0  0  0  0  0  0
   10.3203  -14.9408   27.3810 C   0  0  2  0  0  0  0  0  0  0  0  0
    9.1556  -14.8922   26.5122 N   0  0  0  0  0  0  0  0  0  0  0  0
   10.2107  -16.1306   28.2392 C   0  0  0  0  0  0  0  0  0  0  0  0
   11.2051  -16.4170   29.1447 O   0  0  0  0  0  0  0  0  0  0  0  0
    9.2219  -16.8967   28.1630 O   0  0  0  0  0  0  0  0  0  0  0  0
  2  1  1  6
  2  4  1  0
  3  2  1  0
  4  5  1  6
  6 11  1  0
  6  4  1  0
  7  6  2  0
 10  9  1  6
  9  8  1  0
 10 12  1  0
 10 11  1  0
 12 17  1  0
 13 12  2  0
 15 14  1  0
 16 18  1  0
 16 15  1  1
 17 16  1  0
 18 19  1  0
 20 18  2  0
M  END
$$$$
