VSS.pdb
     RDKit          3D

 20 19  0  0  1  0  0  0  0  0999 V2000
    8.1663  -12.5795   18.9842 C   0  0  0  0  0  0  0  0  0  0  0  0
    7.9008  -13.1313   20.3768 C   0  0  1  0  0  0  0  0  0  0  0  0
    6.6299  -13.9348   20.4013 C   0  0  0  0  0  0  0  0  0  0  0  0
    9.1154  -13.9311   20.7703 C   0  0  2  0  0  0  0  0  0  0  0  0
    9.2881  -14.9968   19.8017 N   0  0  0  0  0  0  0  0  0  0  0  0
    8.9916  -14.4815   22.1506 C   0  0  0  0  0  0  0  0  0  0  0  0
    8.8637  -13.6794   23.0943 O   0  0  0  0  0  0  0  0  0  0  0  0
    8.6807  -18.5128   24.8748 O   0  0  0  0  0  0  0  0  0  0  0  0
    9.1095  -17.9405   23.6862 C   0  0  0  0  0  0  0  0  0  0  0  0
    9.0371  -16.4599   23.6665 C   0  0  2  0  0  0  0  0  0  0  0  0
    9.0206  -15.8764   22.3646 N   0  0  0  0  0  0  0  0  0  0  0  0
   10.0068  -15.8100   24.6139 C   0  0  0  0  0  0  0  0  0  0  0  0
   10.7611  -14.8790   24.2770 O   0  0  0  0  0  0  0  0  0  0  0  0
    9.3778  -13.6116   28.2439 O   0  0  0  0  0  0  0  0  0  0  0  0
    9.1861  -14.4308   27.1339 C   0  0  0  0  0  0  0  0  0  0  0  0
   10.3512  -15.4240   27.0496 C   0  0  2  0  0  0  0  0  0  0  0  0
   10.0299  -16.3108   25.9431 N   0  0  0  0  0  0  0  0  0  0  0  0
   10.4415  -16.2277   28.2783 C   0  0  0  0  0  0  0  0  0  0  0  0
    9.9981  -17.5293   28.2806 O   0  0  0  0  0  0  0  0  0  0  0  0
   10.9181  -15.7484   29.3336 O   0  0  0  0  0  0  0  0  0  0  0  0
  2  1  1  6
  2  4  1  0
  3  2  1  0
  4  5  1  6
  6 11  1  0
  6  4  1  0
  7  6  2  0
 10  9  1  6
  9  8  1  0
 10 12  1  0
 10 11  1  0
 12 17  1  0
 13 12  2  0
 15 14  1  0
 16 18  1  0
 16 15  1  1
 17 16  1  0
 18 19  1  0
 20 18  2  0
M  END
$$$$
