VSS.pdb
     RDKit          3D

 20 19  0  0  1  0  0  0  0  0999 V2000
    8.9767  -12.7156   20.5125 C   0  0  0  0  0  0  0  0  0  0  0  0
    7.8760  -13.3932   19.7101 C   0  0  1  0  0  0  0  0  0  0  0  0
    7.2502  -12.4300   18.7395 C   0  0  0  0  0  0  0  0  0  0  0  0
    8.4966  -14.5911   19.0394 C   0  0  2  0  0  0  0  0  0  0  0  0
    7.4741  -15.2443   18.2446 N   0  0  0  0  0  0  0  0  0  0  0  0
    9.0850  -15.5368   20.0308 C   0  0  0  0  0  0  0  0  0  0  0  0
    8.3112  -16.1525   20.7873 O   0  0  0  0  0  0  0  0  0  0  0  0
   13.4373  -16.1088   20.6598 O   0  0  0  0  0  0  0  0  0  0  0  0
   12.4481  -17.0811   20.6405 C   0  0  0  0  0  0  0  0  0  0  0  0
   11.1077  -16.5888   21.0388 C   0  0  2  0  0  0  0  0  0  0  0  0
   10.4833  -15.7176   20.0971 N   0  0  0  0  0  0  0  0  0  0  0  0
   11.0607  -16.0891   22.4561 C   0  0  0  0  0  0  0  0  0  0  0  0
   11.2966  -14.9067   22.7649 O   0  0  0  0  0  0  0  0  0  0  0  0
    8.6040  -17.6214   24.8919 O   0  0  0  0  0  0  0  0  0  0  0  0
    9.3273  -16.5046   25.3035 C   0  0  0  0  0  0  0  0  0  0  0  0
   10.7856  -16.6734   24.8608 C   0  0  2  0  0  0  0  0  0  0  0  0
   10.7276  -17.0420   23.4556 N   0  0  0  0  0  0  0  0  0  0  0  0
   11.4325  -17.7672   25.6020 C   0  0  0  0  0  0  0  0  0  0  0  0
   11.6559  -17.6420   26.9530 O   0  0  0  0  0  0  0  0  0  0  0  0
   11.7882  -18.8209   25.0243 O   0  0  0  0  0  0  0  0  0  0  0  0
  2  1  1  6
  2  4  1  0
  3  2  1  0
  4  5  1  1
  6 11  1  0
  6  4  1  0
  7  6  2  0
 10  9  1  6
  9  8  1  0
 10 12  1  0
 10 11  1  0
 12 17  1  0
 13 12  2  0
 15 14  1  0
 16 18  1  0
 16 15  1  1
 17 16  1  0
 18 19  1  0
 20 18  2  0
M  END
$$$$
