VSS.pdb
     RDKit          3D

 20 19  0  0  1  0  0  0  0  0999 V2000
    9.4596  -12.9344   20.3545 C   0  0  0  0  0  0  0  0  0  0  0  0
    8.0624  -13.3341   19.9045 C   0  0  1  0  0  0  0  0  0  0  0  0
    7.4565  -12.2707   19.0305 C   0  0  0  0  0  0  0  0  0  0  0  0
    8.1888  -14.6673   19.2144 C   0  0  2  0  0  0  0  0  0  0  0  0
    6.8674  -15.0790   18.7809 N   0  0  0  0  0  0  0  0  0  0  0  0
    8.8010  -15.6949   20.1048 C   0  0  0  0  0  0  0  0  0  0  0  0
    8.1466  -16.0847   21.0897 O   0  0  0  0  0  0  0  0  0  0  0  0
   12.6296  -17.7043   19.2589 O   0  0  0  0  0  0  0  0  0  0  0  0
   11.5077  -18.2001   19.9068 C   0  0  0  0  0  0  0  0  0  0  0  0
   10.7328  -17.1746   20.6456 C   0  0  2  0  0  0  0  0  0  0  0  0
   10.0883  -16.2018   19.8247 N   0  0  0  0  0  0  0  0  0  0  0  0
   11.4874  -16.5893   21.8068 C   0  0  0  0  0  0  0  0  0  0  0  0
   12.1453  -15.5359   21.7245 O   0  0  0  0  0  0  0  0  0  0  0  0
   10.6236  -18.2847   25.2909 O   0  0  0  0  0  0  0  0  0  0  0  0
   11.1988  -17.0199   25.3868 C   0  0  0  0  0  0  0  0  0  0  0  0
   12.1452  -16.8193   24.1973 C   0  0  2  0  0  0  0  0  0  0  0  0
   11.4189  -17.3018   23.0339 N   0  0  0  0  0  0  0  0  0  0  0  0
   13.3616  -17.6314   24.3556 C   0  0  0  0  0  0  0  0  0  0  0  0
   14.2687  -17.3228   25.3418 O   0  0  0  0  0  0  0  0  0  0  0  0
   13.5921  -18.6078   23.6046 O   0  0  0  0  0  0  0  0  0  0  0  0
  2  1  1  6
  2  4  1  0
  3  2  1  0
  4  5  1  1
  6 11  1  0
  6  4  1  0
  7  6  2  0
 10  9  1  6
  9  8  1  0
 10 12  1  0
 10 11  1  0
 12 17  1  0
 13 12  2  0
 15 14  1  0
 16 18  1  0
 16 15  1  1
 17 16  1  0
 18 19  1  0
 20 18  2  0
M  END
$$$$
