VSS.pdb
     RDKit          3D

 20 19  0  0  1  0  0  0  0  0999 V2000
    7.9904  -12.2562   20.7207 C   0  0  0  0  0  0  0  0  0  0  0  0
    7.4551  -13.4707   19.9772 C   0  0  1  0  0  0  0  0  0  0  0  0
    7.3264  -13.1846   18.5065 C   0  0  0  0  0  0  0  0  0  0  0  0
    8.3872  -14.6152   20.2789 C   0  0  2  0  0  0  0  0  0  0  0  0
    7.9479  -15.7688   19.5174 N   0  0  0  0  0  0  0  0  0  0  0  0
    8.4289  -14.9246   21.7370 C   0  0  0  0  0  0  0  0  0  0  0  0
    8.9433  -14.0872   22.5014 O   0  0  0  0  0  0  0  0  0  0  0  0
    6.5943  -17.1171   25.5262 O   0  0  0  0  0  0  0  0  0  0  0  0
    6.5644  -16.7219   24.1969 C   0  0  0  0  0  0  0  0  0  0  0  0
    7.9033  -16.4906   23.6040 C   0  0  2  0  0  0  0  0  0  0  0  0
    7.8954  -16.1384   22.2214 N   0  0  0  0  0  0  0  0  0  0  0  0
    8.8962  -17.5639   23.9543 C   0  0  0  0  0  0  0  0  0  0  0  0
    8.7016  -18.7699   23.7153 O   0  0  0  0  0  0  0  0  0  0  0  0
   12.5544  -16.2351   25.1498 O   0  0  0  0  0  0  0  0  0  0  0  0
   12.4505  -17.4893   24.5531 C   0  0  0  0  0  0  0  0  0  0  0  0
   11.1091  -18.1143   24.9543 C   0  0  2  0  0  0  0  0  0  0  0  0
   10.0966  -17.1389   24.5839 N   0  0  0  0  0  0  0  0  0  0  0  0
   11.0445  -18.3216   26.4093 C   0  0  0  0  0  0  0  0  0  0  0  0
   10.0985  -17.6588   27.1552 O   0  0  0  0  0  0  0  0  0  0  0  0
   11.8401  -19.0963   26.9902 O   0  0  0  0  0  0  0  0  0  0  0  0
  2  1  1  1
  2  4  1  0
  3  2  1  0
  4  5  1  6
  6 11  1  0
  6  4  1  0
  7  6  2  0
 10  9  1  6
  9  8  1  0
 10 12  1  0
 10 11  1  0
 12 17  1  0
 13 12  2  0
 15 14  1  0
 16 18  1  0
 16 15  1  1
 17 16  1  0
 18 19  1  0
 20 18  2  0
M  END
$$$$
