VSS.pdb
     RDKit          3D

 20 19  0  0  1  0  0  0  0  0999 V2000
    9.7693  -20.0138   19.6468 C   0  0  0  0  0  0  0  0  0  0  0  0
    9.6539  -19.3997   18.2597 C   0  0  1  0  0  0  0  0  0  0  0  0
    8.9241  -20.3235   17.3240 C   0  0  0  0  0  0  0  0  0  0  0  0
    8.9733  -18.0659   18.4261 C   0  0  2  0  0  0  0  0  0  0  0  0
    8.9192  -17.4210   17.1281 N   0  0  0  0  0  0  0  0  0  0  0  0
    9.6786  -17.2054   19.4189 C   0  0  0  0  0  0  0  0  0  0  0  0
   10.8616  -16.8919   19.1900 O   0  0  0  0  0  0  0  0  0  0  0  0
    8.0811  -16.2435   23.4261 O   0  0  0  0  0  0  0  0  0  0  0  0
    8.7443  -15.3681   22.5787 C   0  0  0  0  0  0  0  0  0  0  0  0
    9.6579  -16.0313   21.6178 C   0  0  2  0  0  0  0  0  0  0  0  0
    9.0091  -16.7667   20.5816 N   0  0  0  0  0  0  0  0  0  0  0  0
   10.7761  -16.7798   22.2886 C   0  0  0  0  0  0  0  0  0  0  0  0
   10.7735  -18.0164   22.4298 O   0  0  0  0  0  0  0  0  0  0  0  0
   15.4008  -16.4134   23.3336 O   0  0  0  0  0  0  0  0  0  0  0  0
   14.2267  -15.7723   22.9459 C   0  0  0  0  0  0  0  0  0  0  0  0
   13.0345  -16.6568   23.3299 C   0  0  2  0  0  0  0  0  0  0  0  0
   11.8646  -16.0024   22.7669 N   0  0  0  0  0  0  0  0  0  0  0  0
   12.8768  -16.7142   24.7914 C   0  0  0  0  0  0  0  0  0  0  0  0
   13.7296  -17.4874   25.5433 O   0  0  0  0  0  0  0  0  0  0  0  0
   11.9738  -16.0680   25.3724 O   0  0  0  0  0  0  0  0  0  0  0  0
  2  1  1  1
  2  4  1  0
  3  2  1  0
  4  5  1  6
  6 11  1  0
  6  4  1  0
  7  6  2  0
 10  9  1  1
  9  8  1  0
 10 12  1  0
 10 11  1  0
 12 17  1  0
 13 12  2  0
 15 14  1  0
 16 18  1  0
 16 15  1  1
 17 16  1  0
 18 19  1  0
 20 18  2  0
M  END
$$$$
