VSS.pdb
     RDKit          3D

 20 19  0  0  1  0  0  0  0  0999 V2000
    7.1598  -22.2981   17.1733 C   0  0  0  0  0  0  0  0  0  0  0  0
    8.0495  -22.0028   18.3716 C   0  0  1  0  0  0  0  0  0  0  0  0
    9.1500  -23.0213   18.4856 C   0  0  0  0  0  0  0  0  0  0  0  0
    8.5597  -20.5953   18.2024 C   0  0  2  0  0  0  0  0  0  0  0  0
    9.1296  -20.4777   16.8739 N   0  0  0  0  0  0  0  0  0  0  0  0
    9.5648  -20.2425   19.2459 C   0  0  0  0  0  0  0  0  0  0  0  0
   10.7709  -20.3909   18.9747 O   0  0  0  0  0  0  0  0  0  0  0  0
    8.5440  -18.5829   23.2217 O   0  0  0  0  0  0  0  0  0  0  0  0
    9.6576  -18.3332   22.4332 C   0  0  0  0  0  0  0  0  0  0  0  0
   10.0513  -19.4685   21.5650 C   0  0  2  0  0  0  0  0  0  0  0  0
    9.1439  -19.7547   20.5018 N   0  0  0  0  0  0  0  0  0  0  0  0
   10.4834  -20.6816   22.3412 C   0  0  0  0  0  0  0  0  0  0  0  0
    9.7449  -21.6667   22.5234 O   0  0  0  0  0  0  0  0  0  0  0  0
   14.4580  -20.8323   23.3106 O   0  0  0  0  0  0  0  0  0  0  0  0
   13.7462  -22.0120   23.1070 C   0  0  0  0  0  0  0  0  0  0  0  0
   12.3093  -21.8103   23.6028 C   0  0  2  0  0  0  0  0  0  0  0  0
   11.8010  -20.6609   22.8719 N   0  0  0  0  0  0  0  0  0  0  0  0
   12.2928  -21.4923   25.0390 C   0  0  0  0  0  0  0  0  0  0  0  0
   12.6040  -22.4644   25.9603 O   0  0  0  0  0  0  0  0  0  0  0  0
   11.9986  -20.3441   25.4459 O   0  0  0  0  0  0  0  0  0  0  0  0
  2  1  1  6
  2  4  1  0
  3  2  1  0
  4  5  1  6
  6 11  1  0
  6  4  1  0
  7  6  2  0
 10  9  1  1
  9  8  1  0
 10 12  1  0
 10 11  1  0
 12 17  1  0
 13 12  2  0
 15 14  1  0
 16 18  1  0
 16 15  1  6
 17 16  1  0
 18 19  1  0
 20 18  2  0
M  END
$$$$
