TRI.pdb
     RDKit          3D

 27 26  0  0  1  0  0  0  0  0999 V2000
    6.4308  -18.3284   26.2858 C   0  0  0  0  0  0  0  0  0  0  0  0
    7.1353  -19.3965   25.5077 C   0  0  1  0  0  0  0  0  0  0  0  0
    6.6948  -20.6514   25.9497 O   0  0  0  0  0  0  0  0  0  0  0  0
    6.7892  -19.2802   24.0217 C   0  0  2  0  0  0  0  0  0  0  0  0
    7.2547  -20.5175   23.3777 N   0  0  0  0  0  0  0  0  0  0  0  0
    7.5037  -18.1528   23.4057 C   0  0  0  0  0  0  0  0  0  0  0  0
    8.7628  -18.2581   23.1887 O   0  0  0  0  0  0  0  0  0  0  0  0
    7.8773  -12.3474   17.9858 N   0  0  0  0  0  0  0  0  0  0  0  0
    7.9605  -13.7688   18.0420 C   0  0  0  0  0  0  0  0  0  0  0  0
    7.9388  -14.4420   16.9233 N   0  0  0  0  0  0  0  0  0  0  0  0
    8.0664  -14.4921   19.2612 N   0  0  0  0  0  0  0  0  0  0  0  0
    8.6745  -13.8511   20.4079 C   0  0  0  0  0  0  0  0  0  0  0  0
    7.6843  -13.5950   21.5105 C   0  0  0  0  0  0  0  0  0  0  0  0
    6.8619  -14.8176   21.8456 C   0  0  0  0  0  0  0  0  0  0  0  0
    7.7708  -15.8166   22.5393 C   0  0  2  0  0  0  0  0  0  0  0  0
    6.9392  -16.9177   23.0076 N   0  0  0  0  0  0  0  0  0  0  0  0
    8.5425  -15.2030   23.6322 C   0  0  0  0  0  0  0  0  0  0  0  0
    9.6099  -14.5897   23.3766 O   0  0  0  0  0  0  0  0  0  0  0  0
    8.1831  -15.4535   16.9057 C   0  0  0  0  0  0  0  0  0  0  0  0
    6.1716  -11.8602   26.3440 C   0  0  0  0  0  0  0  0  0  0  0  0
    7.2605  -12.6828   25.7163 C   0  0  2  0  0  0  0  0  0  0  0  0
    7.9174  -13.6138   26.6959 C   0  0  0  0  0  0  0  0  0  0  0  0
    8.6782  -12.7884   27.7044 C   0  0  2  0  0  0  0  0  0  0  0  0
    8.8704  -14.5734   26.0428 N   0  0  0  0  0  0  0  0  0  0  0  0
    8.1458  -15.2623   24.9937 C   0  0  0  0  0  0  0  0  0  0  0  0
    9.4345  -15.5590   26.9639 O   0  0  0  0  0  0  0  0  0  0  0  0
    8.8833  -16.6765   27.1302 O   0  0  0  0  0  0  0  0  0  0  0  0
  2  1  1  1
  3  2  1  0
  4  2  1  0
  4  5  1  6
  6  4  1  0
  6 16  1  0
  7  6  2  0
  9  8  1  0
 10  9  2  0
 11  9  1  0
 12 13  1  0
 12 11  1  0
 13 14  1  0
 15 14  1  1
 15 16  1  0
 17 15  1  0
 18 17  2  0
 19 20  1  0
 21 20  1  0
 21 23  1  0
 21 22  1  1
 23 25  1  0
 23 24  1  6
 24 17  1  0
 25 27  1  0
 26 25  2  0
M  END
$$$$
