TRI.pdb
     RDKit          3D

 27 26  0  0  1  0  0  0  0  0999 V2000
    9.0746  -12.2817   20.0628 C   0  0  0  0  0  0  0  0  0  0  0  0
    8.1830  -12.9057   19.0340 C   0  0  1  0  0  0  0  0  0  0  0  0
    8.3880  -12.2681   17.8029 O   0  0  0  0  0  0  0  0  0  0  0  0
    8.5383  -14.3834   18.8562 C   0  0  2  0  0  0  0  0  0  0  0  0
    7.5910  -14.9344   17.8758 N   0  0  0  0  0  0  0  0  0  0  0  0
    8.3630  -15.1181   20.1174 C   0  0  0  0  0  0  0  0  0  0  0  0
    7.1760  -15.3704   20.5306 O   0  0  0  0  0  0  0  0  0  0  0  0
   12.9299  -20.3561   24.0543 N   0  0  0  0  0  0  0  0  0  0  0  0
   12.1803  -20.5869   22.8646 C   0  0  0  0  0  0  0  0  0  0  0  0
   12.6964  -21.3472   21.9369 N   0  0  0  0  0  0  0  0  0  0  0  0
   10.8931  -20.0275   22.6380 N   0  0  0  0  0  0  0  0  0  0  0  0
   10.5226  -19.6393   21.2936 C   0  0  0  0  0  0  0  0  0  0  0  0
    9.6585  -18.4084   21.2726 C   0  0  0  0  0  0  0  0  0  0  0  0
   10.0069  -17.4377   22.3771 C   0  0  0  0  0  0  0  0  0  0  0  0
    9.0991  -16.2284   22.2400 C   0  0  2  0  0  0  0  0  0  0  0  0
    9.3939  -15.5991   20.9592 N   0  0  0  0  0  0  0  0  0  0  0  0
    9.2471  -15.2899   23.3641 C   0  0  0  0  0  0  0  0  0  0  0  0
   10.1878  -14.4556   23.3628 O   0  0  0  0  0  0  0  0  0  0  0  0
   12.2162  -21.4712   21.0219 C   0  0  0  0  0  0  0  0  0  0  0  0
    6.4819  -11.1884   26.3608 C   0  0  0  0  0  0  0  0  0  0  0  0
    7.5442  -12.2389   26.5165 C   0  0  2  0  0  0  0  0  0  0  0  0
    7.4133  -13.3452   25.5082 C   0  0  0  0  0  0  0  0  0  0  0  0
    6.1131  -14.0692   25.7578 C   0  0  2  0  0  0  0  0  0  0  0  0
    8.5379  -14.3381   25.5792 N   0  0  0  0  0  0  0  0  0  0  0  0
    8.3700  -15.2674   24.4798 C   0  0  0  0  0  0  0  0  0  0  0  0
    8.5842  -15.0841   26.8359 O   0  0  0  0  0  0  0  0  0  0  0  0
    8.1274  -16.2529   26.9097 O   0  0  0  0  0  0  0  0  0  0  0  0
  2  1  1  1
  3  2  1  0
  4  2  1  0
  4  5  1  6
  6  4  1  0
  6 16  1  0
  7  6  2  0
  9  8  1  0
 10  9  2  0
 11  9  1  0
 12 13  1  0
 12 11  1  0
 13 14  1  0
 15 14  1  1
 15 16  1  0
 17 15  1  0
 18 17  2  0
 19 20  1  0
 21 20  1  0
 21 23  1  0
 21 22  1  6
 23 25  1  0
 23 24  1  1
 24 17  1  0
 25 27  1  0
 26 25  2  0
M  END
$$$$
