TRI.pdb
     RDKit          3D

 27 26  0  0  1  0  0  0  0  0999 V2000
   11.0376  -18.9615   23.4505 C   0  0  0  0  0  0  0  0  0  0  0  0
   12.2736  -18.2888   22.9384 C   0  0  1  0  0  0  0  0  0  0  0  0
   13.1973  -19.2662   22.5440 O   0  0  0  0  0  0  0  0  0  0  0  0
   11.9406  -17.4418   21.7083 C   0  0  2  0  0  0  0  0  0  0  0  0
   13.2001  -16.8310   21.2578 N   0  0  0  0  0  0  0  0  0  0  0  0
   11.0109  -16.3576   22.0568 C   0  0  0  0  0  0  0  0  0  0  0  0
   11.4323  -15.3841   22.7767 O   0  0  0  0  0  0  0  0  0  0  0  0
    8.1480  -12.5519   17.7492 N   0  0  0  0  0  0  0  0  0  0  0  0
    8.1503  -13.8195   17.0983 C   0  0  0  0  0  0  0  0  0  0  0  0
    8.9528  -14.0012   16.0844 N   0  0  0  0  0  0  0  0  0  0  0  0
    7.3183  -14.8996   17.5007 N   0  0  0  0  0  0  0  0  0  0  0  0
    6.8646  -14.9632   18.8738 C   0  0  0  0  0  0  0  0  0  0  0  0
    8.0010  -14.8760   19.8551 C   0  0  0  0  0  0  0  0  0  0  0  0
    7.5617  -15.1480   21.2752 C   0  0  0  0  0  0  0  0  0  0  0  0
    8.8020  -15.1780   22.1505 C   0  0  2  0  0  0  0  0  0  0  0  0
    9.6525  -16.2604   21.6725 N   0  0  0  0  0  0  0  0  0  0  0  0
    8.4736  -15.3221   23.5780 C   0  0  0  0  0  0  0  0  0  0  0  0
    8.7920  -16.3733   24.1900 O   0  0  0  0  0  0  0  0  0  0  0  0
    8.9859  -14.9157   15.5887 C   0  0  0  0  0  0  0  0  0  0  0  0
    6.4284  -10.8208   26.1981 C   0  0  0  0  0  0  0  0  0  0  0  0
    7.3186  -11.9900   25.8870 C   0  0  2  0  0  0  0  0  0  0  0  0
    6.6495  -13.3098   26.1482 C   0  0  0  0  0  0  0  0  0  0  0  0
    6.3651  -13.4181   27.6262 C   0  0  2  0  0  0  0  0  0  0  0  0
    7.4885  -14.4840   25.7326 N   0  0  0  0  0  0  0  0  0  0  0  0
    7.8017  -14.3211   24.3270 C   0  0  0  0  0  0  0  0  0  0  0  0
    6.8315  -15.7750   25.9318 O   0  0  0  0  0  0  0  0  0  0  0  0
    5.9468  -16.1786   25.1352 O   0  0  0  0  0  0  0  0  0  0  0  0
  2  1  1  6
  3  2  1  0
  4  2  1  0
  4  5  1  1
  6  4  1  0
  6 16  1  0
  7  6  2  0
  9  8  1  0
 10  9  2  0
 11  9  1  0
 12 13  1  0
 12 11  1  0
 13 14  1  0
 15 14  1  6
 15 16  1  0
 17 15  1  0
 18 17  2  0
 19 20  1  0
 21 20  1  0
 21 23  1  0
 21 22  1  6
 23 25  1  0
 23 24  1  1
 24 17  1  0
 25 27  1  0
 26 25  2  0
M  END
$$$$
