TRI.pdb
     RDKit          3D

 27 26  0  0  1  0  0  0  0  0999 V2000
   10.4174  -13.2164   19.9627 C   0  0  0  0  0  0  0  0  0  0  0  0
    9.1470  -12.7860   19.2967 C   0  0  1  0  0  0  0  0  0  0  0  0
    9.4524  -12.2112   18.0555 O   0  0  0  0  0  0  0  0  0  0  0  0
    8.2509  -13.9991   19.0384 C   0  0  2  0  0  0  0  0  0  0  0  0
    7.0695  -13.5094   18.3127 N   0  0  0  0  0  0  0  0  0  0  0  0
    7.7921  -14.5885   20.3047 C   0  0  0  0  0  0  0  0  0  0  0  0
    6.9366  -13.9499   21.0143 O   0  0  0  0  0  0  0  0  0  0  0  0
   11.7413  -18.8553   24.1210 N   0  0  0  0  0  0  0  0  0  0  0  0
   12.0609  -19.2506   22.7898 C   0  0  0  0  0  0  0  0  0  0  0  0
   13.2844  -19.0858   22.3643 N   0  0  0  0  0  0  0  0  0  0  0  0
   11.1089  -19.8178   21.8993 N   0  0  0  0  0  0  0  0  0  0  0  0
    9.7027  -19.5440   22.1067 C   0  0  0  0  0  0  0  0  0  0  0  0
    9.3981  -18.0714   22.0819 C   0  0  0  0  0  0  0  0  0  0  0  0
    7.9208  -17.7834   22.2167 C   0  0  0  0  0  0  0  0  0  0  0  0
    7.7303  -16.2785   22.1540 C   0  0  2  0  0  0  0  0  0  0  0  0
    8.2007  -15.8287   20.8503 N   0  0  0  0  0  0  0  0  0  0  0  0
    8.4126  -15.5837   23.2577 C   0  0  0  0  0  0  0  0  0  0  0  0
    9.5511  -15.0830   23.0730 O   0  0  0  0  0  0  0  0  0  0  0  0
   13.5347  -19.2829   21.3736 C   0  0  0  0  0  0  0  0  0  0  0  0
    5.5984  -12.2055   26.0981 C   0  0  0  0  0  0  0  0  0  0  0  0
    6.7289  -12.9137   25.4078 C   0  0  2  0  0  0  0  0  0  0  0  0
    7.4359  -13.8865   26.3087 C   0  0  0  0  0  0  0  0  0  0  0  0
    8.0778  -13.1156   27.4359 C   0  0  2  0  0  0  0  0  0  0  0  0
    8.4988  -14.6754   25.5993 N   0  0  0  0  0  0  0  0  0  0  0  0
    7.8500  -15.4398   24.5528 C   0  0  0  0  0  0  0  0  0  0  0  0
    9.2356  -15.5869   26.4735 O   0  0  0  0  0  0  0  0  0  0  0  0
   10.1602  -15.1652   27.2133 O   0  0  0  0  0  0  0  0  0  0  0  0
  2  1  1  6
  3  2  1  0
  4  2  1  0
  4  5  1  6
  6  4  1  0
  6 16  1  0
  7  6  2  0
  9  8  1  0
 10  9  2  0
 11  9  1  0
 12 13  1  0
 12 11  1  0
 13 14  1  0
 15 14  1  1
 15 16  1  0
 17 15  1  0
 18 17  2  0
 19 20  1  0
 21 20  1  0
 21 23  1  0
 21 22  1  1
 23 25  1  0
 23 24  1  6
 24 17  1  0
 25 27  1  0
 26 25  2  0
M  END
$$$$
