TRI.pdb
     RDKit          3D

 27 26  0  0  1  0  0  0  0  0999 V2000
    7.3235  -12.1988   18.6786 C   0  0  0  0  0  0  0  0  0  0  0  0
    7.9343  -13.5457   18.4436 C   0  0  1  0  0  0  0  0  0  0  0  0
    8.5313  -13.5632   17.1759 O   0  0  0  0  0  0  0  0  0  0  0  0
    9.0308  -13.8139   19.4767 C   0  0  2  0  0  0  0  0  0  0  0  0
   10.0055  -14.7121   18.8401 N   0  0  0  0  0  0  0  0  0  0  0  0
    8.4821  -14.5026   20.6539 C   0  0  0  0  0  0  0  0  0  0  0  0
    7.5868  -13.9142   21.3579 O   0  0  0  0  0  0  0  0  0  0  0  0
    6.4646  -20.9595   23.6800 N   0  0  0  0  0  0  0  0  0  0  0  0
    7.0555  -20.8687   24.9734 C   0  0  0  0  0  0  0  0  0  0  0  0
    6.4141  -21.3754   25.9918 N   0  0  0  0  0  0  0  0  0  0  0  0
    8.3139  -20.2510   25.2098 N   0  0  0  0  0  0  0  0  0  0  0  0
    8.9269  -19.4777   24.1507 C   0  0  0  0  0  0  0  0  0  0  0  0
    7.9932  -18.4427   23.5858 C   0  0  0  0  0  0  0  0  0  0  0  0
    8.4940  -17.8600   22.2846 C   0  0  0  0  0  0  0  0  0  0  0  0
    8.2449  -16.3626   22.3164 C   0  0  2  0  0  0  0  0  0  0  0  0
    8.8412  -15.7911   21.1160 N   0  0  0  0  0  0  0  0  0  0  0  0
    8.7641  -15.7369   23.5433 C   0  0  0  0  0  0  0  0  0  0  0  0
   10.0040  -15.5941   23.6962 O   0  0  0  0  0  0  0  0  0  0  0  0
    6.7946  -21.2900   26.9567 C   0  0  0  0  0  0  0  0  0  0  0  0
    6.1640  -11.4421   25.3372 C   0  0  0  0  0  0  0  0  0  0  0  0
    7.1875  -12.4784   24.9702 C   0  0  2  0  0  0  0  0  0  0  0  0
    7.4175  -13.4764   26.0697 C   0  0  0  0  0  0  0  0  0  0  0  0
    7.8832  -12.7355   27.2990 C   0  0  2  0  0  0  0  0  0  0  0  0
    8.4451  -14.5124   25.7145 N   0  0  0  0  0  0  0  0  0  0  0  0
    7.9296  -15.2721   24.5931 C   0  0  0  0  0  0  0  0  0  0  0  0
    8.7597  -15.4275   26.8107 O   0  0  0  0  0  0  0  0  0  0  0  0
    8.0875  -16.4745   26.9903 O   0  0  0  0  0  0  0  0  0  0  0  0
  2  1  1  1
  3  2  1  0
  4  2  1  0
  4  5  1  6
  6  4  1  0
  6 16  1  0
  7  6  2  0
  9  8  1  0
 10  9  2  0
 11  9  1  0
 12 13  1  0
 12 11  1  0
 13 14  1  0
 15 14  1  1
 15 16  1  0
 17 15  1  0
 18 17  2  0
 19 20  1  0
 21 20  1  0
 21 23  1  0
 21 22  1  1
 23 25  1  0
 23 24  1  6
 24 17  1  0
 25 27  1  0
 26 25  2  0
M  END
$$$$
