TRI.pdb
     RDKit          3D

 27 26  0  0  1  0  0  0  0  0999 V2000
   10.2456  -14.0480   20.3589 C   0  0  0  0  0  0  0  0  0  0  0  0
    9.1918  -13.2925   19.6097 C   0  0  1  0  0  0  0  0  0  0  0  0
    9.6829  -12.9581   18.3404 O   0  0  0  0  0  0  0  0  0  0  0  0
    7.9546  -14.1711   19.4119 C   0  0  2  0  0  0  0  0  0  0  0  0
    6.9258  -13.3243   18.7901 N   0  0  0  0  0  0  0  0  0  0  0  0
    7.4346  -14.6395   20.7048 C   0  0  0  0  0  0  0  0  0  0  0  0
    6.9211  -13.7883   21.5141 O   0  0  0  0  0  0  0  0  0  0  0  0
    8.5804  -19.6864   26.4293 N   0  0  0  0  0  0  0  0  0  0  0  0
    7.2165  -20.0254   26.6649 C   0  0  0  0  0  0  0  0  0  0  0  0
    6.8571  -20.3728   27.8712 N   0  0  0  0  0  0  0  0  0  0  0  0
    6.2247  -20.0037   25.6467 N   0  0  0  0  0  0  0  0  0  0  0  0
    6.6134  -19.6632   24.2945 C   0  0  0  0  0  0  0  0  0  0  0  0
    6.6226  -18.1776   24.0601 C   0  0  0  0  0  0  0  0  0  0  0  0
    6.9178  -17.8202   22.6219 C   0  0  0  0  0  0  0  0  0  0  0  0
    6.9782  -16.3066   22.5192 C   0  0  2  0  0  0  0  0  0  0  0  0
    7.4341  -15.9740   21.1758 N   0  0  0  0  0  0  0  0  0  0  0  0
    7.8353  -15.7112   23.5571 C   0  0  0  0  0  0  0  0  0  0  0  0
    9.0862  -15.7854   23.4538 O   0  0  0  0  0  0  0  0  0  0  0  0
    5.8528  -20.5036   28.1107 C   0  0  0  0  0  0  0  0  0  0  0  0
    5.9704  -11.2546   25.9891 C   0  0  0  0  0  0  0  0  0  0  0  0
    6.8803  -12.2612   25.3448 C   0  0  2  0  0  0  0  0  0  0  0  0
    7.3769  -13.2945   26.3162 C   0  0  0  0  0  0  0  0  0  0  0  0
    8.2394  -12.6077   27.3464 C   0  0  2  0  0  0  0  0  0  0  0  0
    8.1835  -14.3769   25.6580 N   0  0  0  0  0  0  0  0  0  0  0  0
    7.3235  -15.0401   24.6983 C   0  0  0  0  0  0  0  0  0  0  0  0
    8.7117  -15.3677   26.5947 O   0  0  0  0  0  0  0  0  0  0  0  0
    8.0330  -16.3748   26.9195 O   0  0  0  0  0  0  0  0  0  0  0  0
  2  1  1  1
  3  2  1  0
  4  2  1  0
  4  5  1  1
  6  4  1  0
  6 16  1  0
  7  6  2  0
  9  8  1  0
 10  9  2  0
 11  9  1  0
 12 13  1  0
 12 11  1  0
 13 14  1  0
 15 14  1  6
 15 16  1  0
 17 15  1  0
 18 17  2  0
 19 20  1  0
 21 20  1  0
 21 23  1  0
 21 22  1  1
 23 25  1  0
 23 24  1  6
 24 17  1  0
 25 27  1  0
 26 25  2  0
M  END
$$$$
