TRI.pdb
     RDKit          3D

 27 26  0  0  1  0  0  0  0  0999 V2000
    6.5244  -18.0879   25.5238 C   0  0  0  0  0  0  0  0  0  0  0  0
    7.0505  -19.1475   24.6056 C   0  0  1  0  0  0  0  0  0  0  0  0
    6.3876  -20.3536   24.8703 O   0  0  0  0  0  0  0  0  0  0  0  0
    6.7660  -18.7713   23.1500 C   0  0  2  0  0  0  0  0  0  0  0  0
    7.1276  -19.9372   22.3301 N   0  0  0  0  0  0  0  0  0  0  0  0
    7.6080  -17.6425   22.7281 C   0  0  0  0  0  0  0  0  0  0  0  0
    8.8700  -17.8237   22.5941 O   0  0  0  0  0  0  0  0  0  0  0  0
    7.9649  -12.6483   16.9983 N   0  0  0  0  0  0  0  0  0  0  0  0
    8.1554  -14.0473   16.8060 C   0  0  0  0  0  0  0  0  0  0  0  0
    9.0584  -14.4445   15.9504 N   0  0  0  0  0  0  0  0  0  0  0  0
    7.4074  -15.0352   17.5028 N   0  0  0  0  0  0  0  0  0  0  0  0
    6.8748  -14.7198   18.8114 C   0  0  0  0  0  0  0  0  0  0  0  0
    7.9585  -14.4745   19.8249 C   0  0  0  0  0  0  0  0  0  0  0  0
    7.4124  -14.2750   21.2197 C   0  0  0  0  0  0  0  0  0  0  0  0
    8.1114  -15.2589   22.1407 C   0  0  2  0  0  0  0  0  0  0  0  0
    7.1683  -16.3286   22.4400 N   0  0  0  0  0  0  0  0  0  0  0  0
    8.6217  -14.6142   23.3614 C   0  0  0  0  0  0  0  0  0  0  0  0
    9.0591  -13.4364   23.3108 O   0  0  0  0  0  0  0  0  0  0  0  0
    9.2705  -15.4563   15.8312 C   0  0  0  0  0  0  0  0  0  0  0  0
    6.9980  -11.5634   27.3527 C   0  0  0  0  0  0  0  0  0  0  0  0
    8.0533  -12.6243   27.2214 C   0  0  2  0  0  0  0  0  0  0  0  0
    7.8796  -13.4607   25.9853 C   0  0  0  0  0  0  0  0  0  0  0  0
    6.5174  -14.1081   26.0328 C   0  0  2  0  0  0  0  0  0  0  0  0
    8.9192  -14.5367   25.8556 N   0  0  0  0  0  0  0  0  0  0  0  0
    8.6514  -15.2567   24.6267 C   0  0  0  0  0  0  0  0  0  0  0  0
    8.9303  -15.4803   26.9725 O   0  0  0  0  0  0  0  0  0  0  0  0
    8.3449  -16.5894   26.8861 O   0  0  0  0  0  0  0  0  0  0  0  0
  2  1  1  1
  3  2  1  0
  4  2  1  0
  4  5  1  6
  6  4  1  0
  6 16  1  0
  7  6  2  0
  9  8  1  0
 10  9  2  0
 11  9  1  0
 12 13  1  0
 12 11  1  0
 13 14  1  0
 15 14  1  6
 15 16  1  0
 17 15  1  0
 18 17  2  0
 19 20  1  0
 21 20  1  0
 21 23  1  0
 21 22  1  6
 23 25  1  0
 23 24  1  1
 24 17  1  0
 25 27  1  0
 26 25  2  0
M  END
$$$$
