TRI.pdb
     RDKit          3D

 27 26  0  0  1  0  0  0  0  0999 V2000
   10.4286  -13.8576   20.0618 C   0  0  0  0  0  0  0  0  0  0  0  0
    9.3215  -13.1477   19.3456 C   0  0  1  0  0  0  0  0  0  0  0  0
    9.7877  -12.7136   18.0973 O   0  0  0  0  0  0  0  0  0  0  0  0
    8.1552  -14.1067   19.0975 C   0  0  2  0  0  0  0  0  0  0  0  0
    7.1224  -13.3448   18.3798 N   0  0  0  0  0  0  0  0  0  0  0  0
    7.5773  -14.5661   20.3688 C   0  0  0  0  0  0  0  0  0  0  0  0
    6.9621  -13.7231   21.1133 O   0  0  0  0  0  0  0  0  0  0  0  0
    8.6120  -21.2314   22.6530 N   0  0  0  0  0  0  0  0  0  0  0  0
    8.8240  -20.8397   24.0065 C   0  0  0  0  0  0  0  0  0  0  0  0
    9.8543  -21.3256   24.6450 N   0  0  0  0  0  0  0  0  0  0  0  0
    7.9651  -19.9425   24.6981 N   0  0  0  0  0  0  0  0  0  0  0  0
    6.7372  -19.5145   24.0620 C   0  0  0  0  0  0  0  0  0  0  0  0
    6.7231  -18.0364   23.7848 C   0  0  0  0  0  0  0  0  0  0  0  0
    7.1618  -17.7072   22.3767 C   0  0  0  0  0  0  0  0  0  0  0  0
    7.1121  -16.1987   22.2122 C   0  0  2  0  0  0  0  0  0  0  0  0
    7.6222  -15.8833   20.8841 N   0  0  0  0  0  0  0  0  0  0  0  0
    7.8562  -15.4976   23.2710 C   0  0  0  0  0  0  0  0  0  0  0  0
    9.1000  -15.3463   23.1663 O   0  0  0  0  0  0  0  0  0  0  0  0
   10.0367  -21.0672   25.6365 C   0  0  0  0  0  0  0  0  0  0  0  0
    6.7423  -10.9816   27.2032 C   0  0  0  0  0  0  0  0  0  0  0  0
    7.6730  -12.0828   26.7820 C   0  0  2  0  0  0  0  0  0  0  0  0
    7.0276  -13.0512   25.8315 C   0  0  0  0  0  0  0  0  0  0  0  0
    5.8424  -13.6811   26.5210 C   0  0  2  0  0  0  0  0  0  0  0  0
    7.9589  -14.1412   25.3841 N   0  0  0  0  0  0  0  0  0  0  0  0
    7.2402  -14.9672   24.4345 C   0  0  0  0  0  0  0  0  0  0  0  0
    8.4484  -14.9805   26.4767 O   0  0  0  0  0  0  0  0  0  0  0  0
    9.2491  -14.5245   27.3318 O   0  0  0  0  0  0  0  0  0  0  0  0
  2  1  1  6
  3  2  1  0
  4  2  1  0
  4  5  1  6
  6  4  1  0
  6 16  1  0
  7  6  2  0
  9  8  1  0
 10  9  2  0
 11  9  1  0
 12 13  1  0
 12 11  1  0
 13 14  1  0
 15 14  1  1
 15 16  1  0
 17 15  1  0
 18 17  2  0
 19 20  1  0
 21 20  1  0
 21 23  1  0
 21 22  1  6
 23 25  1  0
 23 24  1  1
 24 17  1  0
 25 27  1  0
 26 25  2  0
M  END
$$$$
