HFA.pdb
     RDKit          3D

 27 28  0  0  1  0  0  0  0  0999 V2000
    8.6463  -17.6459   20.1502 N   0  0  0  0  0  0  0  0  0  0  0  0
    9.8703  -16.9577   20.4782 C   0  0  1  0  0  0  0  0  0  0  0  0
   10.4967  -16.3151   19.2653 C   0  0  0  0  0  0  0  0  0  0  0  0
   10.5774  -17.3322   18.2030 C   0  0  0  0  0  0  0  0  0  0  0  0
   11.6244  -18.1914   18.0021 C   0  0  0  0  0  0  0  0  0  0  0  0
   11.3316  -18.9675   16.9393 N   0  0  0  0  0  0  0  0  0  0  0  0
   10.1230  -18.6089   16.4738 C   0  0  0  0  0  0  0  0  0  0  0  0
    9.6655  -17.5944   17.2653 N   0  0  0  0  0  0  0  0  0  0  0  0
    9.6857  -16.0300   21.6013 C   0  0  0  0  0  0  0  0  0  0  0  0
   10.7098  -15.3636   21.9624 O   0  0  0  0  0  0  0  0  0  0  0  0
    8.4499  -15.8521   22.2793 N   0  0  0  0  0  0  0  0  0  0  0  0
    8.4301  -15.1478   23.5154 C   0  0  1  0  0  0  0  0  0  0  0  0
    7.2675  -14.2015   23.6510 C   0  0  0  0  0  0  0  0  0  0  0  0
    7.2170  -13.5020   24.9455 C   0  0  0  0  0  0  0  0  0  0  0  0
    8.0388  -12.4543   25.2787 C   0  0  0  0  0  0  0  0  0  0  0  0
    7.9571  -11.8218   26.5156 C   0  0  0  0  0  0  0  0  0  0  0  0
    7.0400  -12.2284   27.4587 C   0  0  0  0  0  0  0  0  0  0  0  0
    6.2107  -13.2795   27.1331 C   0  0  0  0  0  0  0  0  0  0  0  0
    6.3020  -13.9011   25.8977 C   0  0  0  0  0  0  0  0  0  0  0  0
    8.5838  -16.0917   24.6366 C   0  0  0  0  0  0  0  0  0  0  0  0
    7.6707  -16.9093   24.9420 O   0  0  0  0  0  0  0  0  0  0  0  0
   11.2551  -17.8967   26.0894 C   0  0  0  0  0  0  0  0  0  0  0  0
    9.9323  -17.1925   26.3942 C   0  0  2  0  0  0  0  0  0  0  0  0
    9.7664  -16.1297   25.4262 N   0  0  0  0  0  0  0  0  0  0  0  0
   10.0697  -16.5957   27.7340 C   0  0  0  0  0  0  0  0  0  0  0  0
   10.0531  -15.3656   27.8641 O   0  0  0  0  0  0  0  0  0  0  0  0
   10.2158  -17.4091   28.8400 O   0  0  0  0  0  0  0  0  0  0  0  0
  2  1  1  6
  2  9  1  0
  2  3  1  0
  3  4  1  0
  4  5  2  0
  5  6  1  0
  7  6  1  0
  8  4  1  0
  8  7  2  0
  9 10  2  0
 11  9  1  0
 11 12  1  0
 12 13  1  1
 13 14  1  0
 14 15  2  0
 15 16  1  0
 17 16  2  0
 18 17  1  0
 19 14  1  0
 19 18  2  0
 20 21  2  0
 20 12  1  0
 23 22  1  6
 23 25  1  0
 23 24  1  0
 24 20  1  0
 25 27  1  0
 26 25  2  0
M  END
$$$$
