HFA.pdb
     RDKit          3D

 27 28  0  0  1  0  0  0  0  0999 V2000
    9.6213  -17.9322   20.0917 N   0  0  0  0  0  0  0  0  0  0  0  0
    8.5048  -17.9485   21.0042 C   0  0  1  0  0  0  0  0  0  0  0  0
    8.1630  -19.3489   21.4499 C   0  0  0  0  0  0  0  0  0  0  0  0
    7.6924  -20.0983   20.2724 C   0  0  0  0  0  0  0  0  0  0  0  0
    7.1199  -19.5491   19.1565 C   0  0  0  0  0  0  0  0  0  0  0  0
    6.8241  -20.5490   18.3019 N   0  0  0  0  0  0  0  0  0  0  0  0
    7.2010  -21.7104   18.8631 C   0  0  0  0  0  0  0  0  0  0  0  0
    7.7378  -21.4182   20.0843 N   0  0  0  0  0  0  0  0  0  0  0  0
    8.7022  -17.0125   22.1182 C   0  0  0  0  0  0  0  0  0  0  0  0
    9.9050  -16.8172   22.4902 O   0  0  0  0  0  0  0  0  0  0  0  0
    7.6390  -16.3380   22.7763 N   0  0  0  0  0  0  0  0  0  0  0  0
    7.9332  -15.4776   23.8707 C   0  0  1  0  0  0  0  0  0  0  0  0
    6.9469  -14.3525   24.0344 C   0  0  0  0  0  0  0  0  0  0  0  0
    7.1974  -13.5081   25.2143 C   0  0  0  0  0  0  0  0  0  0  0  0
    8.3328  -12.7566   25.3869 C   0  0  0  0  0  0  0  0  0  0  0  0
    8.5289  -11.9722   26.5196 C   0  0  0  0  0  0  0  0  0  0  0  0
    7.5815  -11.9216   27.5175 C   0  0  0  0  0  0  0  0  0  0  0  0
    6.4382  -12.6729   27.3528 C   0  0  0  0  0  0  0  0  0  0  0  0
    6.2549  -13.4500   26.2200 C   0  0  0  0  0  0  0  0  0  0  0  0
    8.1616  -16.2725   25.0904 C   0  0  0  0  0  0  0  0  0  0  0  0
    7.2113  -16.8473   25.6921 O   0  0  0  0  0  0  0  0  0  0  0  0
   10.9634  -18.1003   26.5074 C   0  0  0  0  0  0  0  0  0  0  0  0
    9.6472  -17.3584   26.7437 C   0  0  2  0  0  0  0  0  0  0  0  0
    9.4608  -16.4330   25.6468 N   0  0  0  0  0  0  0  0  0  0  0  0
    9.8126  -16.5896   27.9893 C   0  0  0  0  0  0  0  0  0  0  0  0
    9.7818  -17.1720   29.0803 O   0  0  0  0  0  0  0  0  0  0  0  0
   10.0022  -15.2230   27.9367 O   0  0  0  0  0  0  0  0  0  0  0  0
  2  1  1  1
  2  9  1  0
  2  3  1  0
  3  4  1  0
  4  5  2  0
  5  6  1  0
  7  6  1  0
  8  4  1  0
  8  7  2  0
  9 10  2  0
 11  9  1  0
 11 12  1  0
 12 13  1  1
 13 14  1  0
 14 15  2  0
 15 16  1  0
 17 16  2  0
 18 17  1  0
 19 14  1  0
 19 18  2  0
 20 21  2  0
 20 12  1  0
 23 22  1  6
 23 25  1  0
 23 24  1  0
 24 20  1  0
 25 27  1  0
 26 25  2  0
M  END
$$$$
