HFA.pdb
     RDKit          3D

 27 28  0  0  1  0  0  0  0  0999 V2000
   10.5175  -16.6996   19.5890 N   0  0  0  0  0  0  0  0  0  0  0  0
    9.2547  -16.8135   20.2757 C   0  0  1  0  0  0  0  0  0  0  0  0
    8.7806  -18.2441   20.3474 C   0  0  0  0  0  0  0  0  0  0  0  0
    8.3181  -18.6373   19.0054 C   0  0  0  0  0  0  0  0  0  0  0  0
    8.3523  -17.8460   17.8886 C   0  0  0  0  0  0  0  0  0  0  0  0
    7.8455  -18.5528   16.8584 N   0  0  0  0  0  0  0  0  0  0  0  0
    7.4962  -19.7689   17.3112 C   0  0  0  0  0  0  0  0  0  0  0  0
    7.7939  -19.8094   18.6434 N   0  0  0  0  0  0  0  0  0  0  0  0
    9.2856  -16.1420   21.5811 C   0  0  0  0  0  0  0  0  0  0  0  0
   10.4143  -16.0965   22.1704 O   0  0  0  0  0  0  0  0  0  0  0  0
    8.1433  -15.5598   22.1931 N   0  0  0  0  0  0  0  0  0  0  0  0
    8.2852  -14.9030   23.4473 C   0  0  1  0  0  0  0  0  0  0  0  0
    7.2011  -13.8968   23.7265 C   0  0  0  0  0  0  0  0  0  0  0  0
    7.2519  -13.3281   25.0835 C   0  0  0  0  0  0  0  0  0  0  0  0
    6.3979  -13.6910   26.0949 C   0  0  0  0  0  0  0  0  0  0  0  0
    6.4812  -13.1265   27.3642 C   0  0  0  0  0  0  0  0  0  0  0  0
    7.4327  -12.1743   27.6537 C   0  0  0  0  0  0  0  0  0  0  0  0
    8.2946  -11.8036   26.6445 C   0  0  0  0  0  0  0  0  0  0  0  0
    8.2012  -12.3734   25.3845 C   0  0  0  0  0  0  0  0  0  0  0  0
    8.4873  -15.8962   24.5171 C   0  0  0  0  0  0  0  0  0  0  0  0
    7.5893  -16.7302   24.8227 O   0  0  0  0  0  0  0  0  0  0  0  0
   11.3767  -17.5030   26.0353 C   0  0  0  0  0  0  0  0  0  0  0  0
    9.9137  -17.0751   26.1587 C   0  0  2  0  0  0  0  0  0  0  0  0
    9.7020  -15.9656   25.2542 N   0  0  0  0  0  0  0  0  0  0  0  0
    9.7267  -16.6017   27.5411 C   0  0  0  0  0  0  0  0  0  0  0  0
   10.2229  -15.5252   27.8950 O   0  0  0  0  0  0  0  0  0  0  0  0
    8.9985  -17.3587   28.4372 O   0  0  0  0  0  0  0  0  0  0  0  0
  2  1  1  1
  2  9  1  0
  2  3  1  0
  3  4  1  0
  4  5  2  0
  5  6  1  0
  7  6  1  0
  8  4  1  0
  8  7  2  0
  9 10  2  0
 11  9  1  0
 11 12  1  0
 12 13  1  1
 13 14  1  0
 14 15  2  0
 15 16  1  0
 17 16  2  0
 18 17  1  0
 19 14  1  0
 19 18  2  0
 20 21  2  0
 20 12  1  0
 23 22  1  1
 23 25  1  0
 23 24  1  0
 24 20  1  0
 25 27  1  0
 26 25  2  0
M  END
$$$$
