HFA.pdb
     RDKit          3D

 27 28  0  0  1  0  0  0  0  0999 V2000
   10.2871  -14.0651   20.2751 N   0  0  0  0  0  0  0  0  0  0  0  0
    9.0049  -14.3307   20.8791 C   0  0  1  0  0  0  0  0  0  0  0  0
    8.1585  -15.2418   20.0246 C   0  0  0  0  0  0  0  0  0  0  0  0
    8.0778  -14.6545   18.6762 C   0  0  0  0  0  0  0  0  0  0  0  0
    7.9640  -13.3193   18.3955 C   0  0  0  0  0  0  0  0  0  0  0  0
    7.9189  -13.1750   17.0558 N   0  0  0  0  0  0  0  0  0  0  0  0
    8.0024  -14.3939   16.4961 C   0  0  0  0  0  0  0  0  0  0  0  0
    8.1005  -15.3029   17.5106 N   0  0  0  0  0  0  0  0  0  0  0  0
    9.1449  -14.7935   22.2656 C   0  0  0  0  0  0  0  0  0  0  0  0
   10.3338  -14.9108   22.7084 O   0  0  0  0  0  0  0  0  0  0  0  0
    8.0424  -15.1054   23.1055 N   0  0  0  0  0  0  0  0  0  0  0  0
    8.2804  -15.4552   24.4641 C   0  0  1  0  0  0  0  0  0  0  0  0
    7.0993  -15.2115   25.3647 C   0  0  0  0  0  0  0  0  0  0  0  0
    7.0857  -13.8739   25.9798 C   0  0  0  0  0  0  0  0  0  0  0  0
    6.1485  -12.9127   25.6942 C   0  0  0  0  0  0  0  0  0  0  0  0
    6.1739  -11.6598   26.2993 C   0  0  0  0  0  0  0  0  0  0  0  0
    7.1497  -11.3365   27.2154 C   0  0  0  0  0  0  0  0  0  0  0  0
    8.0949  -12.2953   27.5085 C   0  0  0  0  0  0  0  0  0  0  0  0
    8.0586  -13.5395   26.8989 C   0  0  0  0  0  0  0  0  0  0  0  0
    8.8395  -16.8163   24.5442 C   0  0  0  0  0  0  0  0  0  0  0  0
    8.2437  -17.8065   24.0343 O   0  0  0  0  0  0  0  0  0  0  0  0
   12.0193  -18.4723   24.9423 C   0  0  0  0  0  0  0  0  0  0  0  0
   10.5345  -18.4484   25.3076 C   0  0  2  0  0  0  0  0  0  0  0  0
   10.0760  -17.0804   25.1960 N   0  0  0  0  0  0  0  0  0  0  0  0
   10.4389  -18.8666   26.7168 C   0  0  0  0  0  0  0  0  0  0  0  0
    9.9859  -18.0842   27.5613 O   0  0  0  0  0  0  0  0  0  0  0  0
   10.8535  -20.1291   27.0916 O   0  0  0  0  0  0  0  0  0  0  0  0
  2  1  1  6
  2  9  1  0
  2  3  1  0
  3  4  1  0
  4  5  2  0
  5  6  1  0
  7  6  1  0
  8  4  1  0
  8  7  2  0
  9 10  2  0
 11  9  1  0
 11 12  1  0
 12 13  1  1
 13 14  1  0
 14 15  2  0
 15 16  1  0
 17 16  2  0
 18 17  1  0
 19 14  1  0
 19 18  2  0
 20 21  2  0
 20 12  1  0
 23 22  1  1
 23 25  1  0
 23 24  1  0
 24 20  1  0
 25 27  1  0
 26 25  2  0
M  END
$$$$
