HFA.pdb
     RDKit          3D

 27 28  0  0  1  0  0  0  0  0999 V2000
   10.1884  -17.2734   19.7851 N   0  0  0  0  0  0  0  0  0  0  0  0
    9.0273  -17.4214   20.6273 C   0  0  1  0  0  0  0  0  0  0  0  0
    8.7418  -18.8691   20.9423 C   0  0  0  0  0  0  0  0  0  0  0  0
    8.3913  -19.5475   19.6829 C   0  0  0  0  0  0  0  0  0  0  0  0
    7.4401  -19.1287   18.7916 C   0  0  0  0  0  0  0  0  0  0  0  0
    7.4097  -20.0056   17.7679 N   0  0  0  0  0  0  0  0  0  0  0  0
    8.3232  -20.9626   18.0037 C   0  0  0  0  0  0  0  0  0  0  0  0
    8.9251  -20.6679   19.1936 N   0  0  0  0  0  0  0  0  0  0  0  0
    9.1114  -16.5694   21.8202 C   0  0  0  0  0  0  0  0  0  0  0  0
   10.2683  -16.4225   22.3335 O   0  0  0  0  0  0  0  0  0  0  0  0
    7.9898  -15.9233   22.4057 N   0  0  0  0  0  0  0  0  0  0  0  0
    8.1747  -15.1309   23.5730 C   0  0  1  0  0  0  0  0  0  0  0  0
    7.1200  -14.0729   23.7563 C   0  0  0  0  0  0  0  0  0  0  0  0
    7.2115  -13.3571   25.0396 C   0  0  0  0  0  0  0  0  0  0  0  0
    6.3933  -13.6077   26.1127 C   0  0  0  0  0  0  0  0  0  0  0  0
    6.5145  -12.9058   27.3082 C   0  0  0  0  0  0  0  0  0  0  0  0
    7.4691  -11.9251   27.4588 C   0  0  0  0  0  0  0  0  0  0  0  0
    8.2953  -11.6664   26.3867 C   0  0  0  0  0  0  0  0  0  0  0  0
    8.1644  -12.3726   25.2014 C   0  0  0  0  0  0  0  0  0  0  0  0
    8.3791  -15.9999   24.7455 C   0  0  0  0  0  0  0  0  0  0  0  0
    7.4907  -16.8116   25.1293 O   0  0  0  0  0  0  0  0  0  0  0  0
   11.2363  -17.5811   26.1716 C   0  0  0  0  0  0  0  0  0  0  0  0
    9.8426  -17.0207   26.4588 C   0  0  2  0  0  0  0  0  0  0  0  0
    9.5852  -15.9687   25.4991 N   0  0  0  0  0  0  0  0  0  0  0  0
    9.8940  -16.4298   27.8072 C   0  0  0  0  0  0  0  0  0  0  0  0
    9.7556  -17.1529   28.8013 O   0  0  0  0  0  0  0  0  0  0  0  0
   10.0969  -15.0725   27.9584 O   0  0  0  0  0  0  0  0  0  0  0  0
  2  1  1  1
  2  9  1  0
  2  3  1  0
  3  4  1  0
  4  5  2  0
  5  6  1  0
  7  6  1  0
  8  4  1  0
  8  7  2  0
  9 10  2  0
 11  9  1  0
 11 12  1  0
 12 13  1  1
 13 14  1  0
 14 15  2  0
 15 16  1  0
 17 16  2  0
 18 17  1  0
 19 14  1  0
 19 18  2  0
 20 21  2  0
 20 12  1  0
 23 22  1  6
 23 25  1  0
 23 24  1  0
 24 20  1  0
 25 27  1  0
 26 25  2  0
M  END
$$$$
