HFA.pdb
     RDKit          3D

 27 28  0  0  1  0  0  0  0  0999 V2000
    7.6944  -16.0648   20.8921 N   0  0  0  0  0  0  0  0  0  0  0  0
    8.8537  -15.2935   21.2671 C   0  0  1  0  0  0  0  0  0  0  0  0
    8.7604  -13.8670   20.7844 C   0  0  0  0  0  0  0  0  0  0  0  0
    8.3511  -13.8919   19.3698 C   0  0  0  0  0  0  0  0  0  0  0  0
    8.1403  -15.0195   18.6223 C   0  0  0  0  0  0  0  0  0  0  0  0
    7.7791  -14.6378   17.3806 N   0  0  0  0  0  0  0  0  0  0  0  0
    7.7607  -13.2947   17.3396 C   0  0  0  0  0  0  0  0  0  0  0  0
    8.1170  -12.8437   18.5785 N   0  0  0  0  0  0  0  0  0  0  0  0
    9.1384  -15.4071   22.7031 C   0  0  0  0  0  0  0  0  0  0  0  0
   10.2367  -14.9028   23.1066 O   0  0  0  0  0  0  0  0  0  0  0  0
    8.2654  -16.0368   23.6303 N   0  0  0  0  0  0  0  0  0  0  0  0
    8.6135  -16.0569   25.0098 C   0  0  1  0  0  0  0  0  0  0  0  0
    7.4786  -15.6781   25.9231 C   0  0  0  0  0  0  0  0  0  0  0  0
    7.3738  -14.2311   26.1739 C   0  0  0  0  0  0  0  0  0  0  0  0
    8.3513  -13.4913   26.7910 C   0  0  0  0  0  0  0  0  0  0  0  0
    8.2100  -12.1241   27.0087 C   0  0  0  0  0  0  0  0  0  0  0  0
    7.0732  -11.4581   26.6089 C   0  0  0  0  0  0  0  0  0  0  0  0
    6.0863  -12.1926   25.9883 C   0  0  0  0  0  0  0  0  0  0  0  0
    6.2392  -13.5539   25.7774 C   0  0  0  0  0  0  0  0  0  0  0  0
    9.2691  -17.3331   25.3464 C   0  0  0  0  0  0  0  0  0  0  0  0
    8.7403  -18.4435   25.0589 O   0  0  0  0  0  0  0  0  0  0  0  0
   12.6240  -18.5493   26.0987 C   0  0  0  0  0  0  0  0  0  0  0  0
   11.1149  -18.6618   26.3194 C   0  0  2  0  0  0  0  0  0  0  0  0
   10.5277  -17.3764   26.0078 N   0  0  0  0  0  0  0  0  0  0  0  0
   10.9166  -18.9382   27.7527 C   0  0  0  0  0  0  0  0  0  0  0  0
   10.3150  -18.1201   28.4594 O   0  0  0  0  0  0  0  0  0  0  0  0
   11.4008  -20.1080   28.3033 O   0  0  0  0  0  0  0  0  0  0  0  0
  2  1  1  1
  2  9  1  0
  2  3  1  0
  3  4  1  0
  4  5  2  0
  5  6  1  0
  7  6  1  0
  8  4  1  0
  8  7  2  0
  9 10  2  0
 11  9  1  0
 11 12  1  0
 12 13  1  1
 13 14  1  0
 14 15  2  0
 15 16  1  0
 17 16  2  0
 18 17  1  0
 19 14  1  0
 19 18  2  0
 20 21  2  0
 20 12  1  0
 23 22  1  1
 23 25  1  0
 23 24  1  0
 24 20  1  0
 25 27  1  0
 26 25  2  0
M  END
$$$$
