HFA.pdb
     RDKit          3D

 27 28  0  0  1  0  0  0  0  0999 V2000
   10.3528  -14.6975   20.6966 N   0  0  0  0  0  0  0  0  0  0  0  0
    9.1054  -14.6149   21.4152 C   0  0  1  0  0  0  0  0  0  0  0  0
    7.9681  -15.2343   20.6409 C   0  0  0  0  0  0  0  0  0  0  0  0
    7.9329  -14.6094   19.3075 C   0  0  0  0  0  0  0  0  0  0  0  0
    7.8230  -13.2672   19.0607 C   0  0  0  0  0  0  0  0  0  0  0  0
    7.8251  -13.0852   17.7247 N   0  0  0  0  0  0  0  0  0  0  0  0
    7.9340  -14.2874   17.1343 C   0  0  0  0  0  0  0  0  0  0  0  0
    8.0001  -15.2244   18.1257 N   0  0  0  0  0  0  0  0  0  0  0  0
    9.2327  -15.1347   22.7826 C   0  0  0  0  0  0  0  0  0  0  0  0
   10.4145  -15.3838   23.1883 O   0  0  0  0  0  0  0  0  0  0  0  0
    8.1257  -15.3633   23.6431 N   0  0  0  0  0  0  0  0  0  0  0  0
    8.3590  -15.6198   25.0231 C   0  0  1  0  0  0  0  0  0  0  0  0
    7.1887  -15.2779   25.9057 C   0  0  0  0  0  0  0  0  0  0  0  0
    7.0197  -13.8338   26.1375 C   0  0  0  0  0  0  0  0  0  0  0  0
    5.9369  -13.1128   25.7000 C   0  0  0  0  0  0  0  0  0  0  0  0
    5.8181  -11.7474   25.9410 C   0  0  0  0  0  0  0  0  0  0  0  0
    6.7921  -11.0641   26.6339 C   0  0  0  0  0  0  0  0  0  0  0  0
    7.8831  -11.7797   27.0772 C   0  0  0  0  0  0  0  0  0  0  0  0
    7.9896  -13.1394   26.8306 C   0  0  0  0  0  0  0  0  0  0  0  0
    8.8801  -16.9867   25.2012 C   0  0  0  0  0  0  0  0  0  0  0  0
    8.1963  -18.0008   24.8858 O   0  0  0  0  0  0  0  0  0  0  0  0
   12.1092  -18.6589   25.7735 C   0  0  0  0  0  0  0  0  0  0  0  0
   10.5943  -18.5948   25.9725 C   0  0  2  0  0  0  0  0  0  0  0  0
   10.1766  -17.2300   25.7334 N   0  0  0  0  0  0  0  0  0  0  0  0
   10.3387  -18.9280   27.3845 C   0  0  0  0  0  0  0  0  0  0  0  0
    9.8239  -18.0869   28.1315 O   0  0  0  0  0  0  0  0  0  0  0  0
   10.6730  -20.1764   27.8703 O   0  0  0  0  0  0  0  0  0  0  0  0
  2  1  1  6
  2  9  1  0
  2  3  1  0
  3  4  1  0
  4  5  2  0
  5  6  1  0
  7  6  1  0
  8  4  1  0
  8  7  2  0
  9 10  2  0
 11  9  1  0
 11 12  1  0
 12 13  1  1
 13 14  1  0
 14 15  2  0
 15 16  1  0
 17 16  2  0
 18 17  1  0
 19 14  1  0
 19 18  2  0
 20 21  2  0
 20 12  1  0
 23 22  1  1
 23 25  1  0
 23 24  1  0
 24 20  1  0
 25 27  1  0
 26 25  2  0
M  END
$$$$
