VGP.pdb
     RDKit          3D

 19 19  0  0  1  0  0  0  0  0999 V2000
    8.9940  -16.6689   18.0546 C   0  0  0  0  0  0  0  0  0  0  0  0
    8.2530  -15.9572   19.1364 C   0  0  1  0  0  0  0  0  0  0  0  0
    6.7923  -16.2214   19.1028 C   0  0  0  0  0  0  0  0  0  0  0  0
    8.8980  -16.1453   20.5040 C   0  0  2  0  0  0  0  0  0  0  0  0
    8.6825  -17.5315   20.9438 N   0  0  0  0  0  0  0  0  0  0  0  0
    8.2989  -15.2945   21.5488 C   0  0  0  0  0  0  0  0  0  0  0  0
    8.4849  -14.0405   21.5771 O   0  0  0  0  0  0  0  0  0  0  0  0
    7.4616  -15.8116   22.6106 N   0  0  0  0  0  0  0  0  0  0  0  0
    6.7630  -14.9259   23.4804 C   0  0  0  0  0  0  0  0  0  0  0  0
    7.4507  -14.2209   24.5256 C   0  0  0  0  0  0  0  0  0  0  0  0
    8.6935  -14.6371   24.6778 O   0  0  0  0  0  0  0  0  0  0  0  0
    7.0256  -13.1852   25.3925 N   0  0  0  0  0  0  0  0  0  0  0  0
    5.8200  -12.4266   25.3346 C   0  0  0  0  0  0  0  0  0  0  0  0
    6.0289  -11.2224   26.2921 C   0  0  0  0  0  0  0  0  0  0  0  0
    6.9786  -11.8057   27.3027 C   0  0  0  0  0  0  0  0  0  0  0  0
    7.8461  -12.7069   26.4786 C   0  0  1  0  0  0  0  0  0  0  0  0
    8.3447  -13.8218   27.3418 C   0  0  0  0  0  0  0  0  0  0  0  0
    7.7244  -14.8961   27.3662 O   0  0  0  0  0  0  0  0  0  0  0  0
    9.4722  -13.6479   28.0909 O   0  0  0  0  0  0  0  0  0  0  0  0
  2  1  1  6
  3  2  1  0
  4  2  1  0
  4  5  1  1
  6  7  2  0
  6  4  1  0
  8  6  1  0
  9 10  1  0
  9  8  1  0
 10 12  1  0
 11 10  2  0
 12 16  1  0
 13 12  1  0
 13 14  1  0
 14 15  1  0
 16 15  1  0
 16 17  1  1
 17 19  1  0
 18 17  2  0
M  END
$$$$
