VGP.pdb
     RDKit          3D

 19 19  0  0  1  0  0  0  0  0999 V2000
    8.2008  -20.2899   20.8639 C   0  0  0  0  0  0  0  0  0  0  0  0
    7.5480  -19.1442   21.5619 C   0  0  1  0  0  0  0  0  0  0  0  0
    6.3138  -18.6819   20.8781 C   0  0  0  0  0  0  0  0  0  0  0  0
    7.3880  -19.3891   23.0573 C   0  0  2  0  0  0  0  0  0  0  0  0
    6.4815  -20.5291   23.2573 N   0  0  0  0  0  0  0  0  0  0  0  0
    6.7692  -18.2543   23.7670 C   0  0  0  0  0  0  0  0  0  0  0  0
    5.5206  -18.2019   23.9824 O   0  0  0  0  0  0  0  0  0  0  0  0
    7.5233  -17.1252   24.2694 N   0  0  0  0  0  0  0  0  0  0  0  0
    6.8642  -16.0473   24.9271 C   0  0  0  0  0  0  0  0  0  0  0  0
    7.6029  -14.9168   25.4159 C   0  0  0  0  0  0  0  0  0  0  0  0
    8.9064  -15.1187   25.3863 O   0  0  0  0  0  0  0  0  0  0  0  0
    7.1738  -13.6610   25.9093 N   0  0  0  0  0  0  0  0  0  0  0  0
    5.8857  -13.0613   25.7923 C   0  0  0  0  0  0  0  0  0  0  0  0
    6.0707  -11.5738   26.1971 C   0  0  0  0  0  0  0  0  0  0  0  0
    7.2163  -11.6688   27.1678 C   0  0  0  0  0  0  0  0  0  0  0  0
    8.0689  -12.7552   26.5877 C   0  0  1  0  0  0  0  0  0  0  0  0
    8.8180  -13.4266   27.6945 C   0  0  0  0  0  0  0  0  0  0  0  0
    8.3481  -14.4514   28.2126 O   0  0  0  0  0  0  0  0  0  0  0  0
   10.0057  -12.9080   28.1221 O   0  0  0  0  0  0  0  0  0  0  0  0
  2  1  1  6
  3  2  1  0
  4  2  1  0
  4  5  1  6
  6  7  2  0
  6  4  1  0
  8  6  1  0
  9 10  1  0
  9  8  1  0
 10 12  1  0
 11 10  2  0
 12 16  1  0
 13 12  1  0
 13 14  1  0
 14 15  1  0
 16 15  1  0
 16 17  1  1
 17 19  1  0
 18 17  2  0
M  END
$$$$
