VGP.pdb
     RDKit          3D

 19 19  0  0  1  0  0  0  0  0999 V2000
    8.1455  -12.3305   19.7997 C   0  0  0  0  0  0  0  0  0  0  0  0
    7.9468  -13.5452   18.9567 C   0  0  1  0  0  0  0  0  0  0  0  0
    8.5580  -13.4169   17.6097 C   0  0  0  0  0  0  0  0  0  0  0  0
    8.3058  -14.8297   19.6938 C   0  0  2  0  0  0  0  0  0  0  0  0
    7.9207  -15.9783   18.8609 N   0  0  0  0  0  0  0  0  0  0  0  0
    7.5753  -14.9917   20.9644 C   0  0  0  0  0  0  0  0  0  0  0  0
    6.4623  -15.5966   21.0226 O   0  0  0  0  0  0  0  0  0  0  0  0
    8.0607  -14.4833   22.2300 N   0  0  0  0  0  0  0  0  0  0  0  0
    7.4235  -14.8477   23.4508 C   0  0  0  0  0  0  0  0  0  0  0  0
    7.8696  -14.3117   24.7063 C   0  0  0  0  0  0  0  0  0  0  0  0
    9.0532  -14.7768   25.0579 O   0  0  0  0  0  0  0  0  0  0  0  0
    7.2651  -13.3951   25.6002 N   0  0  0  0  0  0  0  0  0  0  0  0
    6.0324  -12.6959   25.4457 C   0  0  0  0  0  0  0  0  0  0  0  0
    6.0315  -11.5896   26.5351 C   0  0  0  0  0  0  0  0  0  0  0  0
    6.8704  -12.2273   27.6088 C   0  0  0  0  0  0  0  0  0  0  0  0
    7.8979  -12.9927   26.8328 C   0  0  1  0  0  0  0  0  0  0  0  0
    8.3450  -14.1655   27.6460 C   0  0  0  0  0  0  0  0  0  0  0  0
    7.7818  -15.2607   27.4945 O   0  0  0  0  0  0  0  0  0  0  0  0
    9.3635  -14.0208   28.5428 O   0  0  0  0  0  0  0  0  0  0  0  0
  2  1  1  1
  3  2  1  0
  4  2  1  0
  4  5  1  6
  6  7  2  0
  6  4  1  0
  8  6  1  0
  9 10  1  0
  9  8  1  0
 10 12  1  0
 11 10  2  0
 12 16  1  0
 13 12  1  0
 13 14  1  0
 14 15  1  0
 16 15  1  0
 16 17  1  1
 17 19  1  0
 18 17  2  0
M  END
$$$$
