VGP.pdb
     RDKit          3D

 19 19  0  0  1  0  0  0  0  0999 V2000
    7.9106  -12.5204   20.4670 C   0  0  0  0  0  0  0  0  0  0  0  0
    8.1535  -13.1078   19.1173 C   0  0  1  0  0  0  0  0  0  0  0  0
    8.4084  -12.0776   18.0790 C   0  0  0  0  0  0  0  0  0  0  0  0
    9.1748  -14.2382   19.1502 C   0  0  2  0  0  0  0  0  0  0  0  0
    9.2499  -14.8490   17.8150 N   0  0  0  0  0  0  0  0  0  0  0  0
    8.8026  -15.3285   20.0706 C   0  0  0  0  0  0  0  0  0  0  0  0
    8.1814  -16.3586   19.6693 O   0  0  0  0  0  0  0  0  0  0  0  0
    9.1115  -15.3141   21.4849 N   0  0  0  0  0  0  0  0  0  0  0  0
    8.7680  -16.4204   22.3138 C   0  0  0  0  0  0  0  0  0  0  0  0
    9.0941  -16.4256   23.7125 C   0  0  0  0  0  0  0  0  0  0  0  0
   10.0706  -15.5872   24.0028 O   0  0  0  0  0  0  0  0  0  0  0  0
    8.5558  -17.1610   24.7961 N   0  0  0  0  0  0  0  0  0  0  0  0
    7.3841  -17.9729   24.8148 C   0  0  0  0  0  0  0  0  0  0  0  0
    7.0814  -18.2483   26.3125 C   0  0  0  0  0  0  0  0  0  0  0  0
    8.4613  -18.1984   26.9101 C   0  0  0  0  0  0  0  0  0  0  0  0
    9.1418  -17.1274   26.1141 C   0  0  1  0  0  0  0  0  0  0  0  0
   10.6111  -17.4047   26.0850 C   0  0  0  0  0  0  0  0  0  0  0  0
   11.0902  -18.0467   25.1374 O   0  0  0  0  0  0  0  0  0  0  0  0
   11.4075  -16.9512   27.0963 O   0  0  0  0  0  0  0  0  0  0  0  0
  2  1  1  1
  3  2  1  0
  4  2  1  0
  4  5  1  6
  6  7  2  0
  6  4  1  0
  8  6  1  0
  9 10  1  0
  9  8  1  0
 10 12  1  0
 11 10  2  0
 12 16  1  0
 13 12  1  0
 13 14  1  0
 14 15  1  0
 16 15  1  0
 16 17  1  6
 17 19  1  0
 18 17  2  0
M  END
$$$$
