VGP.pdb
     RDKit          3D

 19 19  0  0  1  0  0  0  0  0999 V2000
    8.5159  -13.9264   25.7581 C   0  0  0  0  0  0  0  0  0  0  0  0
    8.7632  -15.3026   26.2782 C   0  0  1  0  0  0  0  0  0  0  0  0
    9.1819  -15.3127   27.7026 C   0  0  0  0  0  0  0  0  0  0  0  0
    7.6271  -16.2625   25.9466 C   0  0  2  0  0  0  0  0  0  0  0  0
    7.9804  -17.6031   26.4359 N   0  0  0  0  0  0  0  0  0  0  0  0
    7.3986  -16.4109   24.4974 C   0  0  0  0  0  0  0  0  0  0  0  0
    8.0502  -17.2463   23.8006 O   0  0  0  0  0  0  0  0  0  0  0  0
    6.4268  -15.6291   23.7626 N   0  0  0  0  0  0  0  0  0  0  0  0
    6.3227  -15.7459   22.3467 C   0  0  0  0  0  0  0  0  0  0  0  0
    7.4464  -15.4666   21.4972 C   0  0  0  0  0  0  0  0  0  0  0  0
    8.3608  -16.4165   21.5468 O   0  0  0  0  0  0  0  0  0  0  0  0
    7.7244  -14.3725   20.6426 N   0  0  0  0  0  0  0  0  0  0  0  0
    6.9176  -13.2248   20.3892 C   0  0  0  0  0  0  0  0  0  0  0  0
    7.5322  -12.5407   19.1382 C   0  0  0  0  0  0  0  0  0  0  0  0
    8.9801  -12.9286   19.2669 C   0  0  0  0  0  0  0  0  0  0  0  0
    8.9156  -14.3150   19.8305 C   0  0  1  0  0  0  0  0  0  0  0  0
   10.1545  -14.5723   20.6278 C   0  0  0  0  0  0  0  0  0  0  0  0
   10.1133  -14.4743   21.8640 O   0  0  0  0  0  0  0  0  0  0  0  0
   11.3131  -14.9108   19.9910 O   0  0  0  0  0  0  0  0  0  0  0  0
  2  1  1  1
  3  2  1  0
  4  2  1  0
  4  5  1  6
  6  7  2  0
  6  4  1  0
  8  6  1  0
  9 10  1  0
  9  8  1  0
 10 12  1  0
 11 10  2  0
 12 16  1  0
 13 12  1  0
 13 14  1  0
 14 15  1  0
 16 15  1  0
 16 17  1  1
 17 19  1  0
 18 17  2  0
M  END
$$$$
