VGP.pdb
     RDKit          3D

 19 19  0  0  1  0  0  0  0  0999 V2000
    7.1469  -20.7720   25.3076 C   0  0  0  0  0  0  0  0  0  0  0  0
    7.5245  -19.3465   25.0815 C   0  0  1  0  0  0  0  0  0  0  0  0
    8.8447  -19.0013   25.6667 C   0  0  0  0  0  0  0  0  0  0  0  0
    7.3462  -18.9211   23.6292 C   0  0  2  0  0  0  0  0  0  0  0  0
    8.3224  -19.6428   22.8000 N   0  0  0  0  0  0  0  0  0  0  0  0
    7.6134  -17.4878   23.4087 C   0  0  0  0  0  0  0  0  0  0  0  0
    8.7551  -17.0686   23.0497 O   0  0  0  0  0  0  0  0  0  0  0  0
    6.6108  -16.4576   23.5797 N   0  0  0  0  0  0  0  0  0  0  0  0
    6.9647  -15.0801   23.4991 C   0  0  0  0  0  0  0  0  0  0  0  0
    7.5490  -14.4000   24.6209 C   0  0  0  0  0  0  0  0  0  0  0  0
    8.7535  -14.8539   24.9107 O   0  0  0  0  0  0  0  0  0  0  0  0
    7.0583  -13.3554   25.4410 N   0  0  0  0  0  0  0  0  0  0  0  0
    5.8487  -12.6150   25.2960 C   0  0  0  0  0  0  0  0  0  0  0  0
    5.9830  -11.3912   26.2420 C   0  0  0  0  0  0  0  0  0  0  0  0
    6.8769  -11.9431   27.3190 C   0  0  0  0  0  0  0  0  0  0  0  0
    7.8047  -12.8463   26.5660 C   0  0  1  0  0  0  0  0  0  0  0  0
    8.2643  -13.9387   27.4783 C   0  0  0  0  0  0  0  0  0  0  0  0
    7.7367  -15.0590   27.3996 O   0  0  0  0  0  0  0  0  0  0  0  0
    9.2550  -13.6941   28.3846 O   0  0  0  0  0  0  0  0  0  0  0  0
  2  1  1  6
  3  2  1  0
  4  2  1  0
  4  5  1  6
  6  7  2  0
  6  4  1  0
  8  6  1  0
  9 10  1  0
  9  8  1  0
 10 12  1  0
 11 10  2  0
 12 16  1  0
 13 12  1  0
 13 14  1  0
 14 15  1  0
 16 15  1  0
 16 17  1  1
 17 19  1  0
 18 17  2  0
M  END
$$$$
