VGP.pdb
     RDKit          3D

 19 19  0  0  1  0  0  0  0  0999 V2000
    9.8713  -15.5971   20.4710 C   0  0  0  0  0  0  0  0  0  0  0  0
    9.5854  -14.4772   19.5277 C   0  0  1  0  0  0  0  0  0  0  0  0
   10.1837  -14.6888   18.1854 C   0  0  0  0  0  0  0  0  0  0  0  0
    8.1105  -14.0948   19.5090 C   0  0  2  0  0  0  0  0  0  0  0  0
    7.9288  -12.9482   18.6068 N   0  0  0  0  0  0  0  0  0  0  0  0
    7.6096  -13.6546   20.8242 C   0  0  0  0  0  0  0  0  0  0  0  0
    7.9584  -12.5479   21.3355 O   0  0  0  0  0  0  0  0  0  0  0  0
    6.6925  -14.4360   21.6268 N   0  0  0  0  0  0  0  0  0  0  0  0
    6.1709  -13.9158   22.8460 C   0  0  0  0  0  0  0  0  0  0  0  0
    7.0206  -13.7099   23.9854 C   0  0  0  0  0  0  0  0  0  0  0  0
    8.1483  -14.3892   23.8993 O   0  0  0  0  0  0  0  0  0  0  0  0
    6.8502  -12.9221   25.1495 N   0  0  0  0  0  0  0  0  0  0  0  0
    5.8267  -11.9694   25.4271 C   0  0  0  0  0  0  0  0  0  0  0  0
    6.3143  -11.1699   26.6655 C   0  0  0  0  0  0  0  0  0  0  0  0
    7.1578  -12.1970   27.3707 C   0  0  0  0  0  0  0  0  0  0  0  0
    7.7900  -12.9547   26.2438 C   0  0  1  0  0  0  0  0  0  0  0  0
    8.0771  -14.3501   26.6989 C   0  0  0  0  0  0  0  0  0  0  0  0
    7.2436  -15.2437   26.4834 O   0  0  0  0  0  0  0  0  0  0  0  0
    9.2477  -14.6262   27.3439 O   0  0  0  0  0  0  0  0  0  0  0  0
  2  1  1  1
  3  2  1  0
  4  2  1  0
  4  5  1  6
  6  7  2  0
  6  4  1  0
  8  6  1  0
  9 10  1  0
  9  8  1  0
 10 12  1  0
 11 10  2  0
 12 16  1  0
 13 12  1  0
 13 14  1  0
 14 15  1  0
 16 15  1  0
 16 17  1  1
 17 19  1  0
 18 17  2  0
M  END
$$$$
