VGP.pdb
     RDKit          3D

 19 19  0  0  1  0  0  0  0  0999 V2000
    7.3033  -13.1774   18.4871 C   0  0  0  0  0  0  0  0  0  0  0  0
    8.7052  -13.5484   18.8375 C   0  0  1  0  0  0  0  0  0  0  0  0
    9.4501  -12.4377   19.4824 C   0  0  0  0  0  0  0  0  0  0  0  0
    8.7873  -14.8779   19.5775 C   0  0  2  0  0  0  0  0  0  0  0  0
    8.2773  -15.9417   18.7001 N   0  0  0  0  0  0  0  0  0  0  0  0
    7.9477  -14.9192   20.7890 C   0  0  0  0  0  0  0  0  0  0  0  0
    6.7743  -15.3997   20.7725 O   0  0  0  0  0  0  0  0  0  0  0  0
    8.3867  -14.4239   22.0766 N   0  0  0  0  0  0  0  0  0  0  0  0
    7.5345  -14.5074   23.2150 C   0  0  0  0  0  0  0  0  0  0  0  0
    7.9761  -14.0535   24.5040 C   0  0  0  0  0  0  0  0  0  0  0  0
    9.1785  -14.5029   24.8090 O   0  0  0  0  0  0  0  0  0  0  0  0
    7.3509  -13.2290   25.4704 N   0  0  0  0  0  0  0  0  0  0  0  0
    6.1631  -12.4529   25.3312 C   0  0  0  0  0  0  0  0  0  0  0  0
    6.1341  -11.4968   26.5542 C   0  0  0  0  0  0  0  0  0  0  0  0
    6.8681  -12.3094   27.5859 C   0  0  0  0  0  0  0  0  0  0  0  0
    7.9131  -13.0211   26.7828 C   0  0  1  0  0  0  0  0  0  0  0  0
    8.2517  -14.3100   27.4616 C   0  0  0  0  0  0  0  0  0  0  0  0
    7.6180  -15.3360   27.1694 O   0  0  0  0  0  0  0  0  0  0  0  0
    9.2499  -14.3454   28.3916 O   0  0  0  0  0  0  0  0  0  0  0  0
  2  1  1  1
  3  2  1  0
  4  2  1  0
  4  5  1  6
  6  7  2  0
  6  4  1  0
  8  6  1  0
  9 10  1  0
  9  8  1  0
 10 12  1  0
 11 10  2  0
 12 16  1  0
 13 12  1  0
 13 14  1  0
 14 15  1  0
 16 15  1  0
 16 17  1  1
 17 19  1  0
 18 17  2  0
M  END
$$$$
