EFH.pdb
     RDKit          3D

 31 32  0  0  1  0  0  0  0  0999 V2000
   27.3157  -23.0236  -17.2942 N   0  0  0  0  0  0  0  0  0  0  0  0
   27.1936  -21.6768  -16.7095 C   0  0  1  0  0  0  0  0  0  0  0  0
   26.2217  -20.9243  -17.5521 C   0  0  0  0  0  0  0  0  0  0  0  0
   26.8630  -20.2919  -18.7318 C   0  0  0  0  0  0  0  0  0  0  0  0
   27.7721  -19.2000  -18.3470 C   0  0  0  0  0  0  0  0  0  0  0  0
   27.3866  -18.1444  -17.7867 O   0  0  0  0  0  0  0  0  0  0  0  0
   26.5363  -21.8964  -15.3689 C   0  0  0  0  0  0  0  0  0  0  0  0
   25.7015  -22.8466  -15.2191 O   0  0  0  0  0  0  0  0  0  0  0  0
   29.1447  -19.2750  -18.5872 O   0  0  0  0  0  0  0  0  0  0  0  0
   26.8048  -21.0808  -14.2381 N   0  0  0  0  0  0  0  0  0  0  0  0
   26.1237  -21.2592  -12.9630 C   0  0  1  0  0  0  0  0  0  0  0  0
   26.9860  -20.6621  -11.9060 C   0  0  0  0  0  0  0  0  0  0  0  0
   26.3477  -20.5145  -10.5908 C   0  0  0  0  0  0  0  0  0  0  0  0
   25.9162  -19.2987  -10.1201 C   0  0  0  0  0  0  0  0  0  0  0  0
   25.3135  -19.1398   -8.8874 C   0  0  0  0  0  0  0  0  0  0  0  0
   25.1298  -20.2531   -8.0778 C   0  0  0  0  0  0  0  0  0  0  0  0
   25.5535  -21.4846   -8.5258 C   0  0  0  0  0  0  0  0  0  0  0  0
   26.1574  -21.6070   -9.7747 C   0  0  0  0  0  0  0  0  0  0  0  0
   24.7796  -20.6608  -13.0748 C   0  0  0  0  0  0  0  0  0  0  0  0
   24.6104  -19.4949  -13.5360 O   0  0  0  0  0  0  0  0  0  0  0  0
   23.6000  -21.3460  -12.6766 N   0  0  0  0  0  0  0  0  0  0  0  0
   22.2652  -20.6837  -12.7948 C   0  0  1  0  0  0  0  0  0  0  0  0
   21.4036  -21.5295  -13.6573 C   0  0  0  0  0  0  0  0  0  0  0  0
   20.0136  -21.1075  -13.8384 C   0  0  0  0  0  0  0  0  0  0  0  0
   19.3071  -20.0089  -13.4386 C   0  0  0  0  0  0  0  0  0  0  0  0
   18.0542  -20.1321  -13.9516 N   0  0  0  0  0  0  0  0  0  0  0  0
   17.9729  -21.2536  -14.6433 C   0  0  0  0  0  0  0  0  0  0  0  0
   19.1578  -21.8550  -14.5819 N   0  0  0  0  0  0  0  0  0  0  0  0
   21.7236  -20.6053  -11.3858 C   0  0  0  0  0  0  0  0  0  0  0  0
   20.9061  -19.6500  -10.8847 O   0  0  0  0  0  0  0  0  0  0  0  0
   22.0800  -21.5452  -10.5919 O   0  0  0  0  0  0  0  0  0  0  0  0
  2  1  1  6
  2  3  1  0
  3  4  1  0
  5  4  1  0
  6  5  2  0
  7  2  1  0
  8  7  2  0
  9  5  1  0
 10  7  1  0
 11 12  1  1
 11 10  1  0
 12 13  1  0
 13 18  2  0
 14 15  2  0
 14 13  1  0
 15 16  1  0
 16 17  2  0
 18 17  1  0
 19 11  1  0
 20 19  2  0
 21 19  1  0
 22 21  1  0
 23 24  1  0
 22 23  1  6
 24 25  2  0
 25 26  1  0
 27 26  1  0
 28 24  1  0
 28 27  2  0
 29 22  1  0
 29 30  1  0
 31 29  2  0
M  END
$$$$
