EFH.pdb
     RDKit          3D

 31 32  0  0  1  0  0  0  0  0999 V2000
   28.4584  -20.8166  -15.5434 N   0  0  0  0  0  0  0  0  0  0  0  0
   28.5447  -20.2005  -14.2079 C   0  0  1  0  0  0  0  0  0  0  0  0
   28.2037  -18.7591  -14.3720 C   0  0  0  0  0  0  0  0  0  0  0  0
   27.3452  -18.5097  -15.5568 C   0  0  0  0  0  0  0  0  0  0  0  0
   28.0968  -17.8964  -16.6640 C   0  0  0  0  0  0  0  0  0  0  0  0
   28.1332  -16.6588  -16.8730 O   0  0  0  0  0  0  0  0  0  0  0  0
   27.4233  -20.8310  -13.4189 C   0  0  0  0  0  0  0  0  0  0  0  0
   26.4014  -21.2908  -14.0244 O   0  0  0  0  0  0  0  0  0  0  0  0
   28.8284  -18.6704  -17.5656 O   0  0  0  0  0  0  0  0  0  0  0  0
   27.4467  -20.9418  -12.0036 N   0  0  0  0  0  0  0  0  0  0  0  0
   26.4056  -21.6313  -11.2537 C   0  0  1  0  0  0  0  0  0  0  0  0
   27.0203  -22.1408   -9.9968 C   0  0  0  0  0  0  0  0  0  0  0  0
   27.1188  -21.1585   -8.9085 C   0  0  0  0  0  0  0  0  0  0  0  0
   26.0467  -20.3976   -8.5115 C   0  0  0  0  0  0  0  0  0  0  0  0
   26.1192  -19.4699   -7.4905 C   0  0  0  0  0  0  0  0  0  0  0  0
   27.3260  -19.2893   -6.8276 C   0  0  0  0  0  0  0  0  0  0  0  0
   28.4172  -20.0397   -7.2060 C   0  0  0  0  0  0  0  0  0  0  0  0
   28.3071  -20.9660   -8.2401 C   0  0  0  0  0  0  0  0  0  0  0  0
   25.2853  -20.6916  -11.0568 C   0  0  0  0  0  0  0  0  0  0  0  0
   25.4843  -19.4684  -10.8020 O   0  0  0  0  0  0  0  0  0  0  0  0
   23.9245  -21.0931  -11.1392 N   0  0  0  0  0  0  0  0  0  0  0  0
   22.9172  -20.2157  -11.8097 C   0  0  1  0  0  0  0  0  0  0  0  0
   23.3410  -20.0168  -13.2178 C   0  0  0  0  0  0  0  0  0  0  0  0
   22.4329  -19.2753  -14.0944 C   0  0  0  0  0  0  0  0  0  0  0  0
   21.2671  -18.5967  -13.8792 C   0  0  0  0  0  0  0  0  0  0  0  0
   20.8961  -18.0540  -15.0692 N   0  0  0  0  0  0  0  0  0  0  0  0
   21.7850  -18.3730  -15.9917 C   0  0  0  0  0  0  0  0  0  0  0  0
   22.7239  -19.1150  -15.4110 N   0  0  0  0  0  0  0  0  0  0  0  0
   21.6074  -20.9661  -11.7313 C   0  0  0  0  0  0  0  0  0  0  0  0
   20.3825  -20.4355  -11.5074 O   0  0  0  0  0  0  0  0  0  0  0  0
   21.6738  -22.2345  -11.8961 O   0  0  0  0  0  0  0  0  0  0  0  0
  2  1  1  6
  2  3  1  0
  3  4  1  0
  5  4  1  0
  6  5  2  0
  7  2  1  0
  8  7  2  0
  9  5  1  0
 10  7  1  0
 11 12  1  1
 11 10  1  0
 12 13  1  0
 13 18  2  0
 14 15  2  0
 14 13  1  0
 15 16  1  0
 16 17  2  0
 18 17  1  0
 19 11  1  0
 20 19  2  0
 21 19  1  0
 22 21  1  0
 23 24  1  0
 22 23  1  6
 24 25  2  0
 25 26  1  0
 27 26  1  0
 28 24  1  0
 28 27  2  0
 29 22  1  0
 29 30  1  0
 31 29  2  0
M  END
$$$$
