EFH.pdb
     RDKit          3D

 31 32  0  0  1  0  0  0  0  0999 V2000
   21.7018  -11.7832  -17.5025 N   0  0  0  0  0  0  0  0  0  0  0  0
   21.7517  -10.4034  -18.0164 C   0  0  1  0  0  0  0  0  0  0  0  0
   20.4617  -10.1553  -18.7201 C   0  0  0  0  0  0  0  0  0  0  0  0
   20.4631  -10.6770  -20.1096 C   0  0  0  0  0  0  0  0  0  0  0  0
   21.2253   -9.8111  -21.0238 C   0  0  0  0  0  0  0  0  0  0  0  0
   20.7963   -8.7121  -21.4538 O   0  0  0  0  0  0  0  0  0  0  0  0
   21.7553   -9.5325  -16.7839 C   0  0  0  0  0  0  0  0  0  0  0  0
   21.1205   -9.9023  -15.7434 O   0  0  0  0  0  0  0  0  0  0  0  0
   22.4963  -10.1679  -21.4762 O   0  0  0  0  0  0  0  0  0  0  0  0
   22.4449   -8.2930  -16.7202 N   0  0  0  0  0  0  0  0  0  0  0  0
   22.4599   -7.4646  -15.5222 C   0  0  1  0  0  0  0  0  0  0  0  0
   23.8836   -7.1801  -15.1911 C   0  0  0  0  0  0  0  0  0  0  0  0
   24.7518   -8.3625  -15.1057 C   0  0  0  0  0  0  0  0  0  0  0  0
   24.6589   -9.2646  -14.0745 C   0  0  0  0  0  0  0  0  0  0  0  0
   25.4651  -10.3820  -13.9771 C   0  0  0  0  0  0  0  0  0  0  0  0
   26.4171  -10.6147  -14.9610 C   0  0  0  0  0  0  0  0  0  0  0  0
   26.5314   -9.7255  -16.0065 C   0  0  0  0  0  0  0  0  0  0  0  0
   25.7012   -8.6093  -16.0720 C   0  0  0  0  0  0  0  0  0  0  0  0
   21.6353   -6.2691  -15.7825 C   0  0  0  0  0  0  0  0  0  0  0  0
   21.4654   -5.3775  -14.9011 O   0  0  0  0  0  0  0  0  0  0  0  0
   20.9848   -6.0425  -17.0256 N   0  0  0  0  0  0  0  0  0  0  0  0
   20.0902   -4.8586  -17.2052 C   0  0  1  0  0  0  0  0  0  0  0  0
   19.6762   -4.3832  -15.8620 C   0  0  0  0  0  0  0  0  0  0  0  0
   18.7855   -3.2229  -15.8049 C   0  0  0  0  0  0  0  0  0  0  0  0
   18.9483   -1.8999  -16.1031 C   0  0  0  0  0  0  0  0  0  0  0  0
   17.7458   -1.2963  -15.9082 N   0  0  0  0  0  0  0  0  0  0  0  0
   16.8652   -2.1945  -15.5075 C   0  0  0  0  0  0  0  0  0  0  0  0
   17.4855   -3.3694  -15.4412 N   0  0  0  0  0  0  0  0  0  0  0  0
   20.9258   -3.8221  -17.9211 C   0  0  0  0  0  0  0  0  0  0  0  0
   20.6501   -3.2422  -19.1126 O   0  0  0  0  0  0  0  0  0  0  0  0
   22.0034   -3.4610  -17.3305 O   0  0  0  0  0  0  0  0  0  0  0  0
  2  1  1  1
  2  3  1  0
  3  4  1  0
  5  4  1  0
  6  5  2  0
  7  2  1  0
  8  7  2  0
  9  5  1  0
 10  7  1  0
 11 12  1  6
 11 10  1  0
 12 13  1  0
 13 18  2  0
 14 15  2  0
 14 13  1  0
 15 16  1  0
 16 17  2  0
 18 17  1  0
 19 11  1  0
 20 19  2  0
 21 19  1  0
 22 21  1  0
 23 24  1  0
 22 23  1  1
 24 25  2  0
 25 26  1  0
 27 26  1  0
 28 24  1  0
 28 27  2  0
 29 22  1  0
 29 30  1  0
 31 29  2  0
M  END
$$$$
