EFH.pdb
     RDKit          3D

 31 32  0  0  1  0  0  0  0  0999 V2000
   27.6407  -22.6148  -16.5912 N   0  0  0  0  0  0  0  0  0  0  0  0
   27.0633  -21.3004  -16.2601 C   0  0  1  0  0  0  0  0  0  0  0  0
   26.1018  -20.9624  -17.3473 C   0  0  0  0  0  0  0  0  0  0  0  0
   26.7761  -20.4256  -18.5556 C   0  0  0  0  0  0  0  0  0  0  0  0
   27.3145  -19.0738  -18.3328 C   0  0  0  0  0  0  0  0  0  0  0  0
   26.6847  -18.1692  -17.7314 O   0  0  0  0  0  0  0  0  0  0  0  0
   26.2498  -21.5398  -15.0117 C   0  0  0  0  0  0  0  0  0  0  0  0
   25.9204  -22.7263  -14.6863 O   0  0  0  0  0  0  0  0  0  0  0  0
   28.5832  -18.7103  -18.7863 O   0  0  0  0  0  0  0  0  0  0  0  0
   25.8212  -20.4878  -14.1598 N   0  0  0  0  0  0  0  0  0  0  0  0
   25.0950  -20.7289  -12.9204 C   0  0  1  0  0  0  0  0  0  0  0  0
   25.7706  -19.9507  -11.8456 C   0  0  0  0  0  0  0  0  0  0  0  0
   27.1218  -20.4116  -11.4978 C   0  0  0  0  0  0  0  0  0  0  0  0
   28.2166  -20.1174  -12.2730 C   0  0  0  0  0  0  0  0  0  0  0  0
   29.4943  -20.5407  -11.9625 C   0  0  0  0  0  0  0  0  0  0  0  0
   29.6937  -21.2993  -10.8165 C   0  0  0  0  0  0  0  0  0  0  0  0
   28.6127  -21.6087  -10.0212 C   0  0  0  0  0  0  0  0  0  0  0  0
   27.3385  -21.1646  -10.3656 C   0  0  0  0  0  0  0  0  0  0  0  0
   23.6801  -20.3750  -13.1432 C   0  0  0  0  0  0  0  0  0  0  0  0
   23.3269  -19.1868  -13.3963 O   0  0  0  0  0  0  0  0  0  0  0  0
   22.6324  -21.3338  -13.0888 N   0  0  0  0  0  0  0  0  0  0  0  0
   21.2187  -20.9235  -13.3479 C   0  0  1  0  0  0  0  0  0  0  0  0
   20.7039  -21.7278  -14.4836 C   0  0  0  0  0  0  0  0  0  0  0  0
   21.3437  -21.5373  -15.7864 C   0  0  0  0  0  0  0  0  0  0  0  0
   21.9929  -22.3787  -16.6445 C   0  0  0  0  0  0  0  0  0  0  0  0
   22.3290  -21.6484  -17.7409 N   0  0  0  0  0  0  0  0  0  0  0  0
   21.9112  -20.4059  -17.5840 C   0  0  0  0  0  0  0  0  0  0  0  0
   21.3106  -20.3263  -16.3998 N   0  0  0  0  0  0  0  0  0  0  0  0
   20.4661  -21.2289  -12.0730 C   0  0  0  0  0  0  0  0  0  0  0  0
   20.8819  -22.0213  -11.0575 O   0  0  0  0  0  0  0  0  0  0  0  0
   19.3178  -20.6751  -11.9500 O   0  0  0  0  0  0  0  0  0  0  0  0
  2  1  1  6
  2  3  1  0
  3  4  1  0
  5  4  1  0
  6  5  2  0
  7  2  1  0
  8  7  2  0
  9  5  1  0
 10  7  1  0
 11 12  1  1
 11 10  1  0
 12 13  1  0
 13 18  2  0
 14 15  2  0
 14 13  1  0
 15 16  1  0
 16 17  2  0
 18 17  1  0
 19 11  1  0
 20 19  2  0
 21 19  1  0
 22 21  1  0
 23 24  1  0
 22 23  1  6
 24 25  2  0
 25 26  1  0
 27 26  1  0
 28 24  1  0
 28 27  2  0
 29 22  1  0
 29 30  1  0
 31 29  2  0
M  END
$$$$
