EFH.pdb
     RDKit          3D

 31 32  0  0  1  0  0  0  0  0999 V2000
   27.5822  -22.7599  -18.2379 N   0  0  0  0  0  0  0  0  0  0  0  0
   27.3049  -21.4357  -17.6548 C   0  0  1  0  0  0  0  0  0  0  0  0
   26.3263  -20.7617  -18.5543 C   0  0  0  0  0  0  0  0  0  0  0  0
   26.9806  -20.0946  -19.7075 C   0  0  0  0  0  0  0  0  0  0  0  0
   27.7082  -18.8807  -19.3032 C   0  0  0  0  0  0  0  0  0  0  0  0
   28.9609  -18.7938  -19.3012 O   0  0  0  0  0  0  0  0  0  0  0  0
   26.5851  -21.7270  -16.3608 C   0  0  0  0  0  0  0  0  0  0  0  0
   25.9646  -22.8296  -16.2137 O   0  0  0  0  0  0  0  0  0  0  0  0
   27.0348  -17.7306  -18.8894 O   0  0  0  0  0  0  0  0  0  0  0  0
   26.5617  -20.8160  -15.2720 N   0  0  0  0  0  0  0  0  0  0  0  0
   25.8509  -21.0946  -14.0315 C   0  0  1  0  0  0  0  0  0  0  0  0
   26.6201  -20.4655  -12.9225 C   0  0  0  0  0  0  0  0  0  0  0  0
   26.0020  -20.5768  -11.5941 C   0  0  0  0  0  0  0  0  0  0  0  0
   24.9704  -19.7617  -11.1973 C   0  0  0  0  0  0  0  0  0  0  0  0
   24.3760  -19.8515   -9.9536 C   0  0  0  0  0  0  0  0  0  0  0  0
   24.8338  -20.8056   -9.0544 C   0  0  0  0  0  0  0  0  0  0  0  0
   25.8675  -21.6360   -9.4270 C   0  0  0  0  0  0  0  0  0  0  0  0
   26.4428  -21.5168  -10.6896 C   0  0  0  0  0  0  0  0  0  0  0  0
   24.4664  -20.6059  -14.1780 C   0  0  0  0  0  0  0  0  0  0  0  0
   24.2164  -19.4514  -14.6310 O   0  0  0  0  0  0  0  0  0  0  0  0
   23.3353  -21.3902  -13.8241 N   0  0  0  0  0  0  0  0  0  0  0  0
   21.9599  -20.8103  -13.9018 C   0  0  1  0  0  0  0  0  0  0  0  0
   21.2178  -21.5207  -14.9725 C   0  0  0  0  0  0  0  0  0  0  0  0
   21.4256  -21.0671  -16.3487 C   0  0  0  0  0  0  0  0  0  0  0  0
   22.1683  -20.0640  -16.9036 C   0  0  0  0  0  0  0  0  0  0  0  0
   22.0175  -20.1551  -18.2517 N   0  0  0  0  0  0  0  0  0  0  0  0
   21.2190  -21.1675  -18.5352 C   0  0  0  0  0  0  0  0  0  0  0  0
   20.8531  -21.7296  -17.3865 N   0  0  0  0  0  0  0  0  0  0  0  0
   21.3375  -21.0561  -12.5464 C   0  0  0  0  0  0  0  0  0  0  0  0
   21.6197  -22.0724  -11.6982 O   0  0  0  0  0  0  0  0  0  0  0  0
   20.4536  -20.2088  -12.1702 O   0  0  0  0  0  0  0  0  0  0  0  0
  2  1  1  6
  2  3  1  0
  3  4  1  0
  5  4  1  0
  6  5  2  0
  7  2  1  0
  8  7  2  0
  9  5  1  0
 10  7  1  0
 11 12  1  1
 11 10  1  0
 12 13  1  0
 13 18  2  0
 14 15  2  0
 14 13  1  0
 15 16  1  0
 16 17  2  0
 18 17  1  0
 19 11  1  0
 20 19  2  0
 21 19  1  0
 22 21  1  0
 23 24  1  0
 22 23  1  6
 24 25  2  0
 25 26  1  0
 27 26  1  0
 28 24  1  0
 28 27  2  0
 29 22  1  0
 29 30  1  0
 31 29  2  0
M  END
$$$$
