EFH.pdb
     RDKit          3D

 31 32  0  0  1  0  0  0  0  0999 V2000
   24.4858  -13.7642  -18.1514 N   0  0  0  0  0  0  0  0  0  0  0  0
   23.4912  -12.7129  -18.4272 C   0  0  1  0  0  0  0  0  0  0  0  0
   22.1465  -13.3375  -18.2768 C   0  0  0  0  0  0  0  0  0  0  0  0
   21.1811  -12.8608  -19.2984 C   0  0  0  0  0  0  0  0  0  0  0  0
   21.2895  -13.6177  -20.5562 C   0  0  0  0  0  0  0  0  0  0  0  0
   21.4428  -14.8631  -20.6027 O   0  0  0  0  0  0  0  0  0  0  0  0
   23.6477  -11.7272  -17.2953 C   0  0  0  0  0  0  0  0  0  0  0  0
   23.6893  -12.1433  -16.0922 O   0  0  0  0  0  0  0  0  0  0  0  0
   21.2270  -12.9826  -21.7972 O   0  0  0  0  0  0  0  0  0  0  0  0
   23.7535  -10.3268  -17.5044 N   0  0  0  0  0  0  0  0  0  0  0  0
   23.8987   -9.3789  -16.4080 C   0  0  1  0  0  0  0  0  0  0  0  0
   25.2141   -8.7006  -16.5722 C   0  0  0  0  0  0  0  0  0  0  0  0
   26.3878   -9.5699  -16.4114 C   0  0  0  0  0  0  0  0  0  0  0  0
   26.6028  -10.3042  -15.2710 C   0  0  0  0  0  0  0  0  0  0  0  0
   27.6991  -11.1273  -15.1014 C   0  0  0  0  0  0  0  0  0  0  0  0
   28.6338  -11.2251  -16.1238 C   0  0  0  0  0  0  0  0  0  0  0  0
   28.4423  -10.4991  -17.2784 C   0  0  0  0  0  0  0  0  0  0  0  0
   27.3248   -9.6793  -17.4144 C   0  0  0  0  0  0  0  0  0  0  0  0
   22.7316   -8.4764  -16.4262 C   0  0  0  0  0  0  0  0  0  0  0  0
   22.1984   -8.1056  -17.5119 O   0  0  0  0  0  0  0  0  0  0  0  0
   22.1361   -7.9695  -15.2395 N   0  0  0  0  0  0  0  0  0  0  0  0
   21.0311   -6.9660  -15.3180 C   0  0  1  0  0  0  0  0  0  0  0  0
   20.1965   -7.1002  -14.0985 C   0  0  0  0  0  0  0  0  0  0  0  0
   19.2709   -8.2327  -14.0389 C   0  0  0  0  0  0  0  0  0  0  0  0
   18.9788   -9.2517  -14.9005 C   0  0  0  0  0  0  0  0  0  0  0  0
   18.0685  -10.0491  -14.2810 N   0  0  0  0  0  0  0  0  0  0  0  0
   17.7993   -9.5587  -13.0852 C   0  0  0  0  0  0  0  0  0  0  0  0
   18.5243   -8.4548  -12.9266 N   0  0  0  0  0  0  0  0  0  0  0  0
   21.7100   -5.6166  -15.3730 C   0  0  0  0  0  0  0  0  0  0  0  0
   23.0377   -5.3736  -15.2728 O   0  0  0  0  0  0  0  0  0  0  0  0
   20.9408   -4.6048  -15.5323 O   0  0  0  0  0  0  0  0  0  0  0  0
  2  1  1  1
  2  3  1  0
  3  4  1  0
  5  4  1  0
  6  5  2  0
  7  2  1  0
  8  7  2  0
  9  5  1  0
 10  7  1  0
 11 12  1  6
 11 10  1  0
 12 13  1  0
 13 18  2  0
 14 15  2  0
 14 13  1  0
 15 16  1  0
 16 17  2  0
 18 17  1  0
 19 11  1  0
 20 19  2  0
 21 19  1  0
 22 21  1  0
 23 24  1  0
 22 23  1  1
 24 25  2  0
 25 26  1  0
 27 26  1  0
 28 24  1  0
 28 27  2  0
 29 22  1  0
 29 30  1  0
 31 29  2  0
M  END
$$$$
