EFH.pdb
     RDKit          3D

 31 32  0  0  1  0  0  0  0  0999 V2000
   21.9346  -25.2578  -19.1303 N   0  0  0  0  0  0  0  0  0  0  0  0
   22.8173  -25.7613  -18.0636 C   0  0  1  0  0  0  0  0  0  0  0  0
   22.2738  -25.2508  -16.7733 C   0  0  0  0  0  0  0  0  0  0  0  0
   20.7962  -25.3664  -16.6938 C   0  0  0  0  0  0  0  0  0  0  0  0
   20.2840  -24.9947  -15.3648 C   0  0  0  0  0  0  0  0  0  0  0  0
   19.9653  -23.8216  -15.0499 O   0  0  0  0  0  0  0  0  0  0  0  0
   22.6124  -27.2564  -18.0668 C   0  0  0  0  0  0  0  0  0  0  0  0
   21.5199  -27.7466  -18.5010 O   0  0  0  0  0  0  0  0  0  0  0  0
   20.1189  -25.9438  -14.3553 O   0  0  0  0  0  0  0  0  0  0  0  0
   23.5957  -28.1682  -17.6002 N   0  0  0  0  0  0  0  0  0  0  0  0
   23.4024  -29.6117  -17.6275 C   0  0  1  0  0  0  0  0  0  0  0  0
   24.4962  -30.1956  -18.4520 C   0  0  0  0  0  0  0  0  0  0  0  0
   24.3715  -29.9746  -19.8993 C   0  0  0  0  0  0  0  0  0  0  0  0
   24.9810  -28.9196  -20.5329 C   0  0  0  0  0  0  0  0  0  0  0  0
   24.8763  -28.6956  -21.8919 C   0  0  0  0  0  0  0  0  0  0  0  0
   24.1229  -29.5704  -22.6637 C   0  0  0  0  0  0  0  0  0  0  0  0
   23.5010  -30.6369  -22.0533 C   0  0  0  0  0  0  0  0  0  0  0  0
   23.6287  -30.8315  -20.6803 C   0  0  0  0  0  0  0  0  0  0  0  0
   23.3551  -30.0932  -16.2336 C   0  0  0  0  0  0  0  0  0  0  0  0
   24.0580  -29.5620  -15.3256 O   0  0  0  0  0  0  0  0  0  0  0  0
   22.5268  -31.1727  -15.8232 N   0  0  0  0  0  0  0  0  0  0  0  0
   22.6681  -31.7551  -14.4539 C   0  0  1  0  0  0  0  0  0  0  0  0
   24.0135  -31.4018  -13.9372 C   0  0  0  0  0  0  0  0  0  0  0  0
   25.1497  -32.1795  -14.4344 C   0  0  0  0  0  0  0  0  0  0  0  0
   25.2569  -33.2523  -15.2731 C   0  0  0  0  0  0  0  0  0  0  0  0
   26.5831  -33.5145  -15.4175 N   0  0  0  0  0  0  0  0  0  0  0  0
   27.2804  -32.6486  -14.7056 C   0  0  0  0  0  0  0  0  0  0  0  0
   26.4201  -31.8320  -14.1037 N   0  0  0  0  0  0  0  0  0  0  0  0
   21.5768  -31.1166  -13.6255 C   0  0  0  0  0  0  0  0  0  0  0  0
   20.7414  -30.1247  -14.0133 O   0  0  0  0  0  0  0  0  0  0  0  0
   21.4351  -31.5686  -12.4355 O   0  0  0  0  0  0  0  0  0  0  0  0
  2  1  1  6
  2  3  1  0
  3  4  1  0
  5  4  1  0
  6  5  2  0
  7  2  1  0
  8  7  2  0
  9  5  1  0
 10  7  1  0
 11 12  1  6
 11 10  1  0
 12 13  1  0
 13 18  2  0
 14 15  2  0
 14 13  1  0
 15 16  1  0
 16 17  2  0
 18 17  1  0
 19 11  1  0
 20 19  2  0
 21 19  1  0
 22 21  1  0
 23 24  1  0
 22 23  1  1
 24 25  2  0
 25 26  1  0
 27 26  1  0
 28 24  1  0
 28 27  2  0
 29 22  1  0
 29 30  1  0
 31 29  2  0
M  END
$$$$
