DNG.pdb
     RDKit          3D

 21 20  0  0  1  0  0  0  0  0999 V2000
   21.2820   -5.4353  -13.9988 N   0  0  0  0  0  0  0  0  0  0  0  0
   21.4871   -4.9379  -15.3200 C   0  0  1  0  0  0  0  0  0  0  0  0
   22.1756   -3.5713  -15.3119 C   0  0  0  0  0  0  0  0  0  0  0  0
   21.3722   -2.6441  -14.4825 C   0  0  0  0  0  0  0  0  0  0  0  0
   21.9005   -2.0073  -13.5462 O   0  0  0  0  0  0  0  0  0  0  0  0
   22.1770   -5.8669  -16.2300 C   0  0  0  0  0  0  0  0  0  0  0  0
   22.2610   -5.5863  -17.4604 O   0  0  0  0  0  0  0  0  0  0  0  0
   20.0251   -2.5064  -14.7755 O   0  0  0  0  0  0  0  0  0  0  0  0
   24.7686   -9.3369  -18.7486 N   0  0  0  0  0  0  0  0  0  0  0  0
   25.5645   -8.5987  -17.8120 C   0  0  0  0  0  0  0  0  0  0  0  0
   26.8222   -8.6466  -18.0090 O   0  0  0  0  0  0  0  0  0  0  0  0
   24.9456   -7.8426  -16.7020 C   0  0  0  0  0  0  0  0  0  0  0  0
   23.4601   -7.9652  -16.7737 C   0  0  2  0  0  0  0  0  0  0  0  0
   22.7800   -7.0960  -15.8374 N   0  0  0  0  0  0  0  0  0  0  0  0
   23.0019   -9.3674  -16.6681 C   0  0  0  0  0  0  0  0  0  0  0  0
   23.2059   -9.9600  -15.5795 O   0  0  0  0  0  0  0  0  0  0  0  0
   22.3491  -10.0542  -17.7414 N   0  0  0  0  0  0  0  0  0  0  0  0
   21.8868  -11.3839  -17.4747 C   0  0  0  0  0  0  0  0  0  0  0  0
   21.3275  -12.0816  -18.6312 C   0  0  0  0  0  0  0  0  0  0  0  0
   21.1757  -11.5552  -19.7481 O   0  0  0  0  0  0  0  0  0  0  0  0
   20.9481  -13.4155  -18.4512 O   0  0  0  0  0  0  0  0  0  0  0  0
  2  3  1  0
  2  1  1  1
  3  4  1  0
  4  8  1  0
  5  4  2  0
  6  2  1  0
  6  7  2  0
  9 10  1  0
 10 11  2  0
 10 12  1  0
 13 12  1  1
 13 14  1  0
 13 15  1  0
 14  6  1  0
 15 16  2  0
 17 15  1  0
 17 18  1  0
 19 18  1  0
 19 21  1  0
 20 19  2  0
M  END
$$$$
