DNG.pdb
     RDKit          3D

 21 20  0  0  1  0  0  0  0  0999 V2000
   20.4230  -11.3047  -15.0748 N   0  0  0  0  0  0  0  0  0  0  0  0
   19.2259  -10.6161  -15.4325 C   0  0  1  0  0  0  0  0  0  0  0  0
   18.0240  -11.5612  -15.4949 C   0  0  0  0  0  0  0  0  0  0  0  0
   18.4457  -12.8163  -16.1581 C   0  0  0  0  0  0  0  0  0  0  0  0
   19.0757  -12.7855  -17.2368 O   0  0  0  0  0  0  0  0  0  0  0  0
   18.9219   -9.4355  -14.6075 C   0  0  0  0  0  0  0  0  0  0  0  0
   17.8922   -8.7464  -14.8615 O   0  0  0  0  0  0  0  0  0  0  0  0
   18.1215  -14.0176  -15.5490 O   0  0  0  0  0  0  0  0  0  0  0  0
   18.6745   -5.5750  -11.3131 N   0  0  0  0  0  0  0  0  0  0  0  0
   18.6837   -6.8364  -10.6316 C   0  0  0  0  0  0  0  0  0  0  0  0
   18.3297   -6.7975   -9.4085 O   0  0  0  0  0  0  0  0  0  0  0  0
   19.0812   -8.0824  -11.3218 C   0  0  0  0  0  0  0  0  0  0  0  0
   19.3821   -7.7926  -12.7544 C   0  0  2  0  0  0  0  0  0  0  0  0
   19.7093   -8.9825  -13.5104 N   0  0  0  0  0  0  0  0  0  0  0  0
   20.3992   -6.7311  -12.9158 C   0  0  0  0  0  0  0  0  0  0  0  0
   21.5010   -6.8954  -12.3353 O   0  0  0  0  0  0  0  0  0  0  0  0
   20.1733   -5.5507  -13.6939 N   0  0  0  0  0  0  0  0  0  0  0  0
   21.2736   -4.6430  -13.8299 C   0  0  0  0  0  0  0  0  0  0  0  0
   22.1521   -4.9111  -14.9672 C   0  0  0  0  0  0  0  0  0  0  0  0
   22.0470   -5.9109  -15.7000 O   0  0  0  0  0  0  0  0  0  0  0  0
   23.1609   -3.9789  -15.2296 O   0  0  0  0  0  0  0  0  0  0  0  0
  2  3  1  0
  2  1  1  1
  3  4  1  0
  4  8  1  0
  5  4  2  0
  6  2  1  0
  6  7  2  0
  9 10  1  0
 10 11  2  0
 10 12  1  0
 13 12  1  1
 13 14  1  0
 13 15  1  0
 14  6  1  0
 15 16  2  0
 17 15  1  0
 17 18  1  0
 19 18  1  0
 19 21  1  0
 20 19  2  0
M  END
$$$$
