DNG.pdb
     RDKit          3D

 21 20  0  0  1  0  0  0  0  0999 V2000
   14.7034   -9.6771  -13.7665 N   0  0  0  0  0  0  0  0  0  0  0  0
   15.8743   -9.7200  -12.9526 C   0  0  1  0  0  0  0  0  0  0  0  0
   17.0936  -10.2095  -13.7370 C   0  0  0  0  0  0  0  0  0  0  0  0
   16.9353  -11.6586  -13.9976 C   0  0  0  0  0  0  0  0  0  0  0  0
   15.9751  -12.2919  -13.5095 O   0  0  0  0  0  0  0  0  0  0  0  0
   16.1776   -8.4683  -12.2396 C   0  0  0  0  0  0  0  0  0  0  0  0
   15.7294   -7.3730  -12.6857 O   0  0  0  0  0  0  0  0  0  0  0  0
   17.8796  -12.2858  -14.7941 O   0  0  0  0  0  0  0  0  0  0  0  0
   14.6066   -7.9798   -8.5341 N   0  0  0  0  0  0  0  0  0  0  0  0
   15.4570   -6.8758   -8.8714 C   0  0  0  0  0  0  0  0  0  0  0  0
   14.8615   -5.7640   -9.0500 O   0  0  0  0  0  0  0  0  0  0  0  0
   16.9210   -7.0413   -8.9982 C   0  0  0  0  0  0  0  0  0  0  0  0
   17.2990   -7.1084  -10.4402 C   0  0  2  0  0  0  0  0  0  0  0  0
   16.9571   -8.3750  -11.0512 N   0  0  0  0  0  0  0  0  0  0  0  0
   18.7121   -6.7394  -10.6729 C   0  0  0  0  0  0  0  0  0  0  0  0
   19.1390   -5.7044  -10.1033 O   0  0  0  0  0  0  0  0  0  0  0  0
   19.5880   -7.5060  -11.5067 N   0  0  0  0  0  0  0  0  0  0  0  0
   20.8641   -6.9295  -11.8102 C   0  0  0  0  0  0  0  0  0  0  0  0
   20.8611   -5.9895  -12.9298 C   0  0  0  0  0  0  0  0  0  0  0  0
   21.8722   -5.3806  -13.3228 O   0  0  0  0  0  0  0  0  0  0  0  0
   19.6430   -5.7770  -13.5830 O   0  0  0  0  0  0  0  0  0  0  0  0
  2  3  1  0
  2  1  1  6
  3  4  1  0
  4  8  1  0
  5  4  2  0
  6  2  1  0
  6  7  2  0
  9 10  1  0
 10 11  2  0
 10 12  1  0
 13 12  1  1
 13 14  1  0
 13 15  1  0
 14  6  1  0
 15 16  2  0
 17 15  1  0
 17 18  1  0
 19 18  1  0
 19 21  1  0
 20 19  2  0
M  END
$$$$
