DNG.pdb
     RDKit          3D

 21 20  0  0  1  0  0  0  0  0999 V2000
   16.1067  -11.3706  -13.1299 N   0  0  0  0  0  0  0  0  0  0  0  0
   15.5437  -10.1806  -13.6796 C   0  0  1  0  0  0  0  0  0  0  0  0
   14.0153  -10.1886  -13.6054 C   0  0  0  0  0  0  0  0  0  0  0  0
   13.5145  -11.3744  -14.3375 C   0  0  0  0  0  0  0  0  0  0  0  0
   14.3110  -12.1859  -14.8555 O   0  0  0  0  0  0  0  0  0  0  0  0
   16.0885   -8.9282  -13.1302 C   0  0  0  0  0  0  0  0  0  0  0  0
   15.7414   -7.8227  -13.6371 O   0  0  0  0  0  0  0  0  0  0  0  0
   12.1438  -11.5541  -14.4296 O   0  0  0  0  0  0  0  0  0  0  0  0
   16.9169   -4.9160   -9.6742 N   0  0  0  0  0  0  0  0  0  0  0  0
   17.6146   -6.1591   -9.5208 C   0  0  0  0  0  0  0  0  0  0  0  0
   18.7283   -6.0866   -8.9066 O   0  0  0  0  0  0  0  0  0  0  0  0
   17.0600   -7.4244  -10.0480 C   0  0  0  0  0  0  0  0  0  0  0  0
   17.4379   -7.5827  -11.4829 C   0  0  2  0  0  0  0  0  0  0  0  0
   17.0030   -8.8450  -12.0414 N   0  0  0  0  0  0  0  0  0  0  0  0
   18.8761   -7.3328  -11.7205 C   0  0  0  0  0  0  0  0  0  0  0  0
   19.6787   -8.2492  -11.4142 O   0  0  0  0  0  0  0  0  0  0  0  0
   19.3707   -6.1089  -12.2751 N   0  0  0  0  0  0  0  0  0  0  0  0
   20.7737   -6.0456  -12.5587 C   0  0  0  0  0  0  0  0  0  0  0  0
   21.2350   -4.7622  -13.0854 C   0  0  0  0  0  0  0  0  0  0  0  0
   20.4733   -3.8270  -13.3898 O   0  0  0  0  0  0  0  0  0  0  0  0
   22.6139   -4.5964  -13.2484 O   0  0  0  0  0  0  0  0  0  0  0  0
  2  3  1  0
  2  1  1  1
  3  4  1  0
  4  8  1  0
  5  4  2  0
  6  2  1  0
  6  7  2  0
  9 10  1  0
 10 11  2  0
 10 12  1  0
 13 12  1  1
 13 14  1  0
 13 15  1  0
 14  6  1  0
 15 16  2  0
 17 15  1  0
 17 18  1  0
 19 18  1  0
 19 21  1  0
 20 19  2  0
M  END
$$$$
