DNG.pdb
     RDKit          3D

 21 20  0  0  1  0  0  0  0  0999 V2000
   18.6558  -10.2473  -17.4334 N   0  0  0  0  0  0  0  0  0  0  0  0
   18.4051   -9.9229  -16.0670 C   0  0  1  0  0  0  0  0  0  0  0  0
   18.4977  -11.1552  -15.1645 C   0  0  0  0  0  0  0  0  0  0  0  0
   17.4503  -12.1187  -15.5739 C   0  0  0  0  0  0  0  0  0  0  0  0
   16.5052  -11.7578  -16.3073 O   0  0  0  0  0  0  0  0  0  0  0  0
   19.2215   -8.8202  -15.5337 C   0  0  0  0  0  0  0  0  0  0  0  0
   19.0458   -8.4348  -14.3420 O   0  0  0  0  0  0  0  0  0  0  0  0
   17.5507  -13.4241  -15.1207 O   0  0  0  0  0  0  0  0  0  0  0  0
   23.0835   -9.6593  -14.6717 N   0  0  0  0  0  0  0  0  0  0  0  0
   22.5713   -8.3443  -14.4183 C   0  0  0  0  0  0  0  0  0  0  0  0
   22.2594   -8.1052  -13.2066 O   0  0  0  0  0  0  0  0  0  0  0  0
   22.4236   -7.3521  -15.5048 C   0  0  0  0  0  0  0  0  0  0  0  0
   20.9806   -7.0247  -15.6975 C   0  0  2  0  0  0  0  0  0  0  0  0
   20.2270   -8.1233  -16.2630 N   0  0  0  0  0  0  0  0  0  0  0  0
   20.7808   -5.7658  -16.4475 C   0  0  0  0  0  0  0  0  0  0  0  0
   20.8295   -5.8279  -17.7012 O   0  0  0  0  0  0  0  0  0  0  0  0
   20.5397   -4.5090  -15.8055 N   0  0  0  0  0  0  0  0  0  0  0  0
   20.4788   -3.3515  -16.6478 C   0  0  0  0  0  0  0  0  0  0  0  0
   20.1630   -2.1044  -15.9535 C   0  0  0  0  0  0  0  0  0  0  0  0
   19.8989   -2.0378  -14.7397 O   0  0  0  0  0  0  0  0  0  0  0  0
   20.1635   -0.9311  -16.7144 O   0  0  0  0  0  0  0  0  0  0  0  0
  2  3  1  0
  2  1  1  6
  3  4  1  0
  4  8  1  0
  5  4  2  0
  6  2  1  0
  6  7  2  0
  9 10  1  0
 10 11  2  0
 10 12  1  0
 13 12  1  6
 13 14  1  0
 13 15  1  0
 14  6  1  0
 15 16  2  0
 17 15  1  0
 17 18  1  0
 19 18  1  0
 19 21  1  0
 20 19  2  0
M  END
$$$$
