DNG.pdb
     RDKit          3D

 21 20  0  0  1  0  0  0  0  0999 V2000
   18.3911   -8.9703  -17.2584 N   0  0  0  0  0  0  0  0  0  0  0  0
   18.0370   -8.5650  -15.9372 C   0  0  1  0  0  0  0  0  0  0  0  0
   17.5946   -9.7518  -15.0785 C   0  0  0  0  0  0  0  0  0  0  0  0
   16.5533  -10.5040  -15.8154 C   0  0  0  0  0  0  0  0  0  0  0  0
   15.4623   -9.9664  -16.1017 O   0  0  0  0  0  0  0  0  0  0  0  0
   19.0590   -7.7665  -15.2409 C   0  0  0  0  0  0  0  0  0  0  0  0
   18.8468   -7.3803  -14.0554 O   0  0  0  0  0  0  0  0  0  0  0  0
   16.8252  -11.8142  -16.1745 O   0  0  0  0  0  0  0  0  0  0  0  0
   21.6113   -8.9362  -13.5528 N   0  0  0  0  0  0  0  0  0  0  0  0
   22.7165   -8.5210  -14.3662 C   0  0  0  0  0  0  0  0  0  0  0  0
   23.7233   -9.3015  -14.3571 O   0  0  0  0  0  0  0  0  0  0  0  0
   22.6679   -7.2691  -15.1518 C   0  0  0  0  0  0  0  0  0  0  0  0
   21.3115   -6.6566  -15.0430 C   0  0  2  0  0  0  0  0  0  0  0  0
   20.3093   -7.3756  -15.8001 N   0  0  0  0  0  0  0  0  0  0  0  0
   21.3164   -5.2109  -15.3549 C   0  0  0  0  0  0  0  0  0  0  0  0
   22.0858   -4.4791  -14.6838 O   0  0  0  0  0  0  0  0  0  0  0  0
   20.4918   -4.6330  -16.3728 N   0  0  0  0  0  0  0  0  0  0  0  0
   20.5766   -3.2135  -16.5479 C   0  0  0  0  0  0  0  0  0  0  0  0
   19.4411   -2.4617  -16.0162 C   0  0  0  0  0  0  0  0  0  0  0  0
   19.2939   -1.2356  -16.1663 O   0  0  0  0  0  0  0  0  0  0  0  0
   18.4768   -3.1798  -15.3020 O   0  0  0  0  0  0  0  0  0  0  0  0
  2  3  1  0
  2  1  1  6
  3  4  1  0
  4  8  1  0
  5  4  2  0
  6  2  1  0
  6  7  2  0
  9 10  1  0
 10 11  2  0
 10 12  1  0
 13 12  1  6
 13 14  1  0
 13 15  1  0
 14  6  1  0
 15 16  2  0
 17 15  1  0
 17 18  1  0
 19 18  1  0
 19 21  1  0
 20 19  2  0
M  END
$$$$
