DNG.pdb
     RDKit          3D

 21 20  0  0  1  0  0  0  0  0999 V2000
   25.8057  -11.2709  -17.1028 N   0  0  0  0  0  0  0  0  0  0  0  0
   24.6036  -11.7539  -17.7001 C   0  0  1  0  0  0  0  0  0  0  0  0
   24.3725  -13.2352  -17.3938 C   0  0  0  0  0  0  0  0  0  0  0  0
   25.5659  -13.9975  -17.8272 C   0  0  0  0  0  0  0  0  0  0  0  0
   25.8122  -15.1231  -17.3441 O   0  0  0  0  0  0  0  0  0  0  0  0
   23.4006  -10.9619  -17.3955 C   0  0  0  0  0  0  0  0  0  0  0  0
   22.2722  -11.3607  -17.8047 O   0  0  0  0  0  0  0  0  0  0  0  0
   26.3953  -13.4264  -18.7788 O   0  0  0  0  0  0  0  0  0  0  0  0
   19.7151   -7.8714  -16.0122 N   0  0  0  0  0  0  0  0  0  0  0  0
   19.8933   -9.1915  -15.4822 C   0  0  0  0  0  0  0  0  0  0  0  0
   18.8791   -9.6812  -14.8869 O   0  0  0  0  0  0  0  0  0  0  0  0
   21.1752   -9.9142  -15.6282 C   0  0  0  0  0  0  0  0  0  0  0  0
   22.1694   -9.0443  -16.3223 C   0  0  2  0  0  0  0  0  0  0  0  0
   23.3911   -9.7449  -16.6558 N   0  0  0  0  0  0  0  0  0  0  0  0
   22.4292   -7.7858  -15.5903 C   0  0  0  0  0  0  0  0  0  0  0  0
   23.1018   -7.8628  -14.5322 O   0  0  0  0  0  0  0  0  0  0  0  0
   21.9500   -6.5133  -16.0386 N   0  0  0  0  0  0  0  0  0  0  0  0
   22.4118   -5.3587  -15.3266 C   0  0  0  0  0  0  0  0  0  0  0  0
   21.8284   -5.1847  -13.9976 C   0  0  0  0  0  0  0  0  0  0  0  0
   22.1527   -4.2734  -13.2152 O   0  0  0  0  0  0  0  0  0  0  0  0
   20.8521   -6.1045  -13.6023 O   0  0  0  0  0  0  0  0  0  0  0  0
  2  3  1  0
  2  1  1  1
  3  4  1  0
  4  8  1  0
  5  4  2  0
  6  2  1  0
  6  7  2  0
  9 10  1  0
 10 11  2  0
 10 12  1  0
 13 12  1  1
 13 14  1  0
 13 15  1  0
 14  6  1  0
 15 16  2  0
 17 15  1  0
 17 18  1  0
 19 18  1  0
 19 21  1  0
 20 19  2  0
M  END
$$$$
