DNG.pdb
     RDKit          3D

 21 20  0  0  1  0  0  0  0  0999 V2000
   16.6925   -9.7494  -16.2514 N   0  0  0  0  0  0  0  0  0  0  0  0
   17.1366  -10.0742  -14.9352 C   0  0  1  0  0  0  0  0  0  0  0  0
   17.5044  -11.5542  -14.8090 C   0  0  0  0  0  0  0  0  0  0  0  0
   16.2836  -12.3632  -15.0280 C   0  0  0  0  0  0  0  0  0  0  0  0
   15.5699  -12.1781  -16.0368 O   0  0  0  0  0  0  0  0  0  0  0  0
   18.2185   -9.2195  -14.4194 C   0  0  0  0  0  0  0  0  0  0  0  0
   18.5800   -9.3324  -13.2127 O   0  0  0  0  0  0  0  0  0  0  0  0
   15.9598  -13.3252  -14.0850 O   0  0  0  0  0  0  0  0  0  0  0  0
   22.0774   -6.0261  -13.5603 N   0  0  0  0  0  0  0  0  0  0  0  0
   22.3635   -6.8900  -14.6682 C   0  0  0  0  0  0  0  0  0  0  0  0
   23.5734   -6.8823  -15.0668 O   0  0  0  0  0  0  0  0  0  0  0  0
   21.3103   -7.7220  -15.2889 C   0  0  0  0  0  0  0  0  0  0  0  0
   19.9985   -7.4499  -14.6316 C   0  0  2  0  0  0  0  0  0  0  0  0
   18.9202   -8.2427  -15.1824 N   0  0  0  0  0  0  0  0  0  0  0  0
   19.6706   -6.0082  -14.5974 C   0  0  0  0  0  0  0  0  0  0  0  0
   20.4989   -5.2416  -14.0460 O   0  0  0  0  0  0  0  0  0  0  0  0
   18.4680   -5.4716  -15.1591 N   0  0  0  0  0  0  0  0  0  0  0  0
   18.2593   -4.0610  -15.0181 C   0  0  0  0  0  0  0  0  0  0  0  0
   17.0201   -3.5626  -15.6123 C   0  0  0  0  0  0  0  0  0  0  0  0
   16.8112   -3.5182  -16.8379 O   0  0  0  0  0  0  0  0  0  0  0  0
   16.0257   -3.1154  -14.7366 O   0  0  0  0  0  0  0  0  0  0  0  0
  2  3  1  0
  2  1  1  6
  3  4  1  0
  4  8  1  0
  5  4  2  0
  6  2  1  0
  6  7  2  0
  9 10  1  0
 10 11  2  0
 10 12  1  0
 13 12  1  6
 13 14  1  0
 13 15  1  0
 14  6  1  0
 15 16  2  0
 17 15  1  0
 17 18  1  0
 19 18  1  0
 19 21  1  0
 20 19  2  0
M  END
$$$$
