DNG.pdb
     RDKit          3D

 21 20  0  0  1  0  0  0  0  0999 V2000
   18.0141   -9.0500  -14.6783 N   0  0  0  0  0  0  0  0  0  0  0  0
   17.8290   -7.9608  -15.5808 C   0  0  1  0  0  0  0  0  0  0  0  0
   16.3553   -7.7702  -15.9463 C   0  0  0  0  0  0  0  0  0  0  0  0
   15.8597   -9.0183  -16.5707 C   0  0  0  0  0  0  0  0  0  0  0  0
   15.0943   -9.7825  -15.9451 O   0  0  0  0  0  0  0  0  0  0  0  0
   18.4298   -6.6891  -15.1462 C   0  0  0  0  0  0  0  0  0  0  0  0
   17.8056   -5.9523  -14.3294 O   0  0  0  0  0  0  0  0  0  0  0  0
   16.2693   -9.3098  -17.8617 O   0  0  0  0  0  0  0  0  0  0  0  0
   20.6764   -6.5706  -12.8405 N   0  0  0  0  0  0  0  0  0  0  0  0
   21.8372   -6.0414  -13.4947 C   0  0  0  0  0  0  0  0  0  0  0  0
   22.9535   -6.3856  -12.9865 O   0  0  0  0  0  0  0  0  0  0  0  0
   21.7213   -5.1586  -14.6753 C   0  0  0  0  0  0  0  0  0  0  0  0
   20.2843   -4.9879  -15.0396 C   0  0  2  0  0  0  0  0  0  0  0  0
   19.6947   -6.1956  -15.5765 N   0  0  0  0  0  0  0  0  0  0  0  0
   20.0574   -3.8183  -15.9158 C   0  0  0  0  0  0  0  0  0  0  0  0
   20.2644   -3.9705  -17.1454 O   0  0  0  0  0  0  0  0  0  0  0  0
   19.6200   -2.5487  -15.4191 N   0  0  0  0  0  0  0  0  0  0  0  0
   19.4793   -1.4914  -16.3757 C   0  0  0  0  0  0  0  0  0  0  0  0
   19.0297   -0.2168  -15.8185 C   0  0  0  0  0  0  0  0  0  0  0  0
   18.6791   -0.0663  -14.6344 O   0  0  0  0  0  0  0  0  0  0  0  0
   18.9996    0.8832  -16.6814 O   0  0  0  0  0  0  0  0  0  0  0  0
  2  3  1  0
  2  1  1  1
  3  4  1  0
  4  8  1  0
  5  4  2  0
  6  2  1  0
  6  7  2  0
  9 10  1  0
 10 11  2  0
 10 12  1  0
 13 12  1  6
 13 14  1  0
 13 15  1  0
 14  6  1  0
 15 16  2  0
 17 15  1  0
 17 18  1  0
 19 18  1  0
 19 21  1  0
 20 19  2  0
M  END
$$$$
