YKK.pdb
     RDKit          3D

 31 31  0  0  1  0  0  0  0  0999 V2000
   12.2317  -17.4324  -16.0448 O   0  0  0  0  0  0  0  0  0  0  0  0
   13.1691  -16.4107  -15.8565 C   0  0  0  0  0  0  0  0  0  0  0  0
   13.6809  -15.7618  -16.9554 C   0  0  0  0  0  0  0  0  0  0  0  0
   14.6063  -14.7506  -16.7977 C   0  0  0  0  0  0  0  0  0  0  0  0
   15.0565  -14.3462  -15.5610 C   0  0  0  0  0  0  0  0  0  0  0  0
   16.0525  -13.2847  -15.4195 C   0  0  0  0  0  0  0  0  0  0  0  0
   17.4732  -13.7929  -15.6614 C   0  0  2  0  0  0  0  0  0  0  0  0
   17.8038  -14.8554  -14.7613 N   0  0  0  0  0  0  0  0  0  0  0  0
   18.4420  -12.6565  -15.5061 C   0  0  0  0  0  0  0  0  0  0  0  0
   18.6889  -12.1195  -14.4137 O   0  0  0  0  0  0  0  0  0  0  0  0
   14.5393  -15.0011  -14.4704 C   0  0  0  0  0  0  0  0  0  0  0  0
   13.6012  -16.0275  -14.6076 C   0  0  0  0  0  0  0  0  0  0  0  0
   19.1019  -12.1823  -16.6644 N   0  0  0  0  0  0  0  0  0  0  0  0
   20.0297  -10.9986  -16.5886 C   0  0  1  0  0  0  0  0  0  0  0  0
   21.0451  -11.1713  -17.6506 C   0  0  0  0  0  0  0  0  0  0  0  0
   22.1485  -12.1024  -17.6018 C   0  0  0  0  0  0  0  0  0  0  0  0
   23.1044  -12.3078  -18.7028 C   0  0  0  0  0  0  0  0  0  0  0  0
   24.2577  -13.2372  -18.3601 C   0  0  0  0  0  0  0  0  0  0  0  0
   25.0005  -13.6114  -19.5407 N   0  0  0  0  0  0  0  0  0  0  0  0
   19.1629   -9.8236  -16.8132 C   0  0  0  0  0  0  0  0  0  0  0  0
   18.0953   -9.8719  -17.5172 O   0  0  0  0  0  0  0  0  0  0  0  0
   19.4048   -8.5117  -16.2802 N   0  0  0  0  0  0  0  0  0  0  0  0
   18.4544   -7.4064  -16.4712 C   0  0  1  0  0  0  0  0  0  0  0  0
   17.0898   -7.8050  -15.9473 C   0  0  0  0  0  0  0  0  0  0  0  0
   16.1668   -6.6227  -16.0824 C   0  0  0  0  0  0  0  0  0  0  0  0
   14.7599   -6.8767  -15.6364 C   0  0  0  0  0  0  0  0  0  0  0  0
   13.9205   -5.6388  -15.8693 C   0  0  0  0  0  0  0  0  0  0  0  0
   12.5310   -5.9988  -15.5780 N   0  0  0  0  0  0  0  0  0  0  0  0
   18.9539   -6.1758  -15.8399 C   0  0  0  0  0  0  0  0  0  0  0  0
   18.2739   -5.1056  -15.9761 O   0  0  0  0  0  0  0  0  0  0  0  0
   20.1083   -6.0487  -15.0943 O   0  0  0  0  0  0  0  0  0  0  0  0
  2 12  2  0
  2  1  1  0
  3  2  1  0
  4  5  1  0
  4  3  2  0
  5 11  2  0
  6  5  1  0
  7  8  1  1
  7  6  1  0
  9  7  1  0
 10  9  2  0
 11 12  1  0
 13  9  1  0
 14 20  1  0
 14 13  1  0
 14 15  1  6
 16 15  1  0
 17 16  1  0
 18 17  1  0
 19 18  1  0
 20 21  2  0
 22 23  1  0
 22 20  1  0
 23 24  1  1
 24 25  1  0
 25 26  1  0
 26 27  1  0
 28 27  1  0
 29 31  1  0
 29 23  1  0
 30 29  2  0
M  END
$$$$
