YKK.pdb
     RDKit          3D

 31 31  0  0  1  0  0  0  0  0999 V2000
   21.0749  -22.3564   -5.8678 O   0  0  0  0  0  0  0  0  0  0  0  0
   21.9521  -21.7364   -6.7646 C   0  0  0  0  0  0  0  0  0  0  0  0
   21.8101  -21.9741   -8.1114 C   0  0  0  0  0  0  0  0  0  0  0  0
   22.6615  -21.3752   -9.0171 C   0  0  0  0  0  0  0  0  0  0  0  0
   23.6750  -20.5274   -8.6304 C   0  0  0  0  0  0  0  0  0  0  0  0
   24.5775  -19.9192   -9.6074 C   0  0  0  0  0  0  0  0  0  0  0  0
   25.4318  -20.9612  -10.3282 C   0  0  2  0  0  0  0  0  0  0  0  0
   26.5442  -21.3656   -9.5237 N   0  0  0  0  0  0  0  0  0  0  0  0
   25.9101  -20.3961  -11.6343 C   0  0  0  0  0  0  0  0  0  0  0  0
   26.8547  -19.5944  -11.7218 O   0  0  0  0  0  0  0  0  0  0  0  0
   23.8083  -20.2972   -7.2832 C   0  0  0  0  0  0  0  0  0  0  0  0
   22.9569  -20.8931   -6.3492 C   0  0  0  0  0  0  0  0  0  0  0  0
   25.2486  -20.8032  -12.8170 N   0  0  0  0  0  0  0  0  0  0  0  0
   25.7284  -20.3339  -14.1650 C   0  0  1  0  0  0  0  0  0  0  0  0
   26.5436  -21.4251  -14.7424 C   0  0  0  0  0  0  0  0  0  0  0  0
   27.1108  -21.4251  -16.0710 C   0  0  0  0  0  0  0  0  0  0  0  0
   27.9025  -22.5334  -16.6304 C   0  0  0  0  0  0  0  0  0  0  0  0
   28.3703  -22.3047  -18.0588 C   0  0  0  0  0  0  0  0  0  0  0  0
   29.2409  -23.3675  -18.5038 N   0  0  0  0  0  0  0  0  0  0  0  0
   24.4954  -20.0734  -14.9357 C   0  0  0  0  0  0  0  0  0  0  0  0
   23.4615  -20.8246  -14.8679 O   0  0  0  0  0  0  0  0  0  0  0  0
   24.3077  -18.9690  -15.8350 N   0  0  0  0  0  0  0  0  0  0  0  0
   23.0299  -18.7333  -16.5228 C   0  0  1  0  0  0  0  0  0  0  0  0
   22.9014  -17.2668  -16.8809 C   0  0  0  0  0  0  0  0  0  0  0  0
   21.4941  -17.0168  -17.3555 C   0  0  0  0  0  0  0  0  0  0  0  0
   21.2350  -15.6194  -17.8275 C   0  0  0  0  0  0  0  0  0  0  0  0
   19.8187  -15.5131  -18.3511 C   0  0  0  0  0  0  0  0  0  0  0  0
   19.6082  -14.1184  -18.7457 N   0  0  0  0  0  0  0  0  0  0  0  0
   22.9041  -19.6056  -17.6999 C   0  0  0  0  0  0  0  0  0  0  0  0
   23.9316  -19.7853  -18.4338 O   0  0  0  0  0  0  0  0  0  0  0  0
   21.7658  -20.2707  -18.1081 O   0  0  0  0  0  0  0  0  0  0  0  0
  2 12  2  0
  2  1  1  0
  3  2  1  0
  4  5  1  0
  4  3  2  0
  5 11  2  0
  6  5  1  0
  7  8  1  1
  7  6  1  0
  9  7  1  0
 10  9  2  0
 11 12  1  0
 13  9  1  0
 14 20  1  0
 14 13  1  0
 14 15  1  6
 16 15  1  0
 17 16  1  0
 18 17  1  0
 19 18  1  0
 20 21  2  0
 22 23  1  0
 22 20  1  0
 23 24  1  6
 24 25  1  0
 25 26  1  0
 26 27  1  0
 28 27  1  0
 29 31  1  0
 29 23  1  0
 30 29  2  0
M  END
$$$$
