YKK.pdb
     RDKit          3D

 31 31  0  0  1  0  0  0  0  0999 V2000
   23.4610  -22.5388   -6.6416 O   0  0  0  0  0  0  0  0  0  0  0  0
   23.6282  -22.0177   -7.9295 C   0  0  0  0  0  0  0  0  0  0  0  0
   22.7445  -21.0688   -8.3869 C   0  0  0  0  0  0  0  0  0  0  0  0
   22.8868  -20.5385   -9.6527 C   0  0  0  0  0  0  0  0  0  0  0  0
   23.8971  -20.9217  -10.5059 C   0  0  0  0  0  0  0  0  0  0  0  0
   24.0165  -20.3595  -11.8508 C   0  0  0  0  0  0  0  0  0  0  0  0
   25.3664  -19.6786  -12.0720 C   0  0  2  0  0  0  0  0  0  0  0  0
   25.6487  -18.7371  -11.0317 N   0  0  0  0  0  0  0  0  0  0  0  0
   25.3665  -18.9951  -13.4088 C   0  0  0  0  0  0  0  0  0  0  0  0
   24.6866  -17.9852  -13.6549 O   0  0  0  0  0  0  0  0  0  0  0  0
   24.7737  -21.8702  -10.0394 C   0  0  0  0  0  0  0  0  0  0  0  0
   24.6480  -22.4200   -8.7610 C   0  0  0  0  0  0  0  0  0  0  0  0
   26.1843  -19.5330  -14.4305 N   0  0  0  0  0  0  0  0  0  0  0  0
   26.3321  -18.8215  -15.7495 C   0  0  1  0  0  0  0  0  0  0  0  0
   27.7486  -18.9483  -16.1575 C   0  0  0  0  0  0  0  0  0  0  0  0
   28.3119  -18.4215  -17.3790 C   0  0  0  0  0  0  0  0  0  0  0  0
   29.7167  -18.5977  -17.7831 C   0  0  0  0  0  0  0  0  0  0  0  0
   30.0801  -17.9065  -19.0876 C   0  0  0  0  0  0  0  0  0  0  0  0
   31.3913  -18.3026  -19.5454 N   0  0  0  0  0  0  0  0  0  0  0  0
   25.4096  -19.5249  -16.6641 C   0  0  0  0  0  0  0  0  0  0  0  0
   25.2804  -20.7980  -16.6775 O   0  0  0  0  0  0  0  0  0  0  0  0
   24.5613  -18.8815  -17.6286 N   0  0  0  0  0  0  0  0  0  0  0  0
   23.6508  -19.6433  -18.4957 C   0  0  1  0  0  0  0  0  0  0  0  0
   22.4641  -18.7824  -18.8780 C   0  0  0  0  0  0  0  0  0  0  0  0
   21.5318  -19.6096  -19.7233 C   0  0  0  0  0  0  0  0  0  0  0  0
   20.3149  -18.8808  -20.2039 C   0  0  0  0  0  0  0  0  0  0  0  0
   19.4119  -19.8366  -20.9538 C   0  0  0  0  0  0  0  0  0  0  0  0
   18.2376  -19.0737  -21.3829 N   0  0  0  0  0  0  0  0  0  0  0  0
   24.3643  -20.1600  -19.6730 C   0  0  0  0  0  0  0  0  0  0  0  0
   24.1361  -21.3593  -20.0421 O   0  0  0  0  0  0  0  0  0  0  0  0
   25.2774  -19.4705  -20.4447 O   0  0  0  0  0  0  0  0  0  0  0  0
  2 12  2  0
  2  1  1  0
  3  2  1  0
  4  5  1  0
  4  3  2  0
  5 11  2  0
  6  5  1  0
  7  8  1  1
  7  6  1  0
  9  7  1  0
 10  9  2  0
 11 12  1  0
 13  9  1  0
 14 20  1  0
 14 13  1  0
 14 15  1  6
 16 15  1  0
 17 16  1  0
 18 17  1  0
 19 18  1  0
 20 21  2  0
 22 23  1  0
 22 20  1  0
 23 24  1  6
 24 25  1  0
 25 26  1  0
 26 27  1  0
 28 27  1  0
 29 31  1  0
 29 23  1  0
 30 29  2  0
M  END
$$$$
