YKK.pdb
     RDKit          3D

 31 31  0  0  1  0  0  0  0  0999 V2000
   23.2176  -20.7106   -6.4584 O   0  0  0  0  0  0  0  0  0  0  0  0
   23.6924  -20.5679   -7.7669 C   0  0  0  0  0  0  0  0  0  0  0  0
   22.8210  -20.7375   -8.8168 C   0  0  0  0  0  0  0  0  0  0  0  0
   23.2632  -20.6021  -10.1168 C   0  0  0  0  0  0  0  0  0  0  0  0
   24.5698  -20.2972  -10.4256 C   0  0  0  0  0  0  0  0  0  0  0  0
   25.0200  -20.1778  -11.8120 C   0  0  0  0  0  0  0  0  0  0  0  0
   25.2095  -21.5415  -12.4748 C   0  0  2  0  0  0  0  0  0  0  0  0
   26.3061  -22.2530  -11.8922 N   0  0  0  0  0  0  0  0  0  0  0  0
   25.4330  -21.3528  -13.9475 C   0  0  0  0  0  0  0  0  0  0  0  0
   26.4934  -20.9139  -14.4224 O   0  0  0  0  0  0  0  0  0  0  0  0
   25.4318  -20.1304   -9.3697 C   0  0  0  0  0  0  0  0  0  0  0  0
   25.0048  -20.2627   -8.0458 C   0  0  0  0  0  0  0  0  0  0  0  0
   24.3806  -21.6955  -14.8289 N   0  0  0  0  0  0  0  0  0  0  0  0
   24.5907  -21.6738  -16.3200 C   0  0  1  0  0  0  0  0  0  0  0  0
   24.2150  -23.0096  -16.8332 C   0  0  0  0  0  0  0  0  0  0  0  0
   25.1171  -24.1288  -16.9759 C   0  0  0  0  0  0  0  0  0  0  0  0
   26.5847  -24.0151  -16.9450 C   0  0  0  0  0  0  0  0  0  0  0  0
   27.3150  -25.3359  -17.1289 C   0  0  0  0  0  0  0  0  0  0  0  0
   28.7434  -25.1704  -16.9947 N   0  0  0  0  0  0  0  0  0  0  0  0
   23.7005  -20.6023  -16.8117 C   0  0  0  0  0  0  0  0  0  0  0  0
   22.4924  -20.4644  -16.4126 O   0  0  0  0  0  0  0  0  0  0  0  0
   24.0727  -19.6042  -17.7756 N   0  0  0  0  0  0  0  0  0  0  0  0
   23.1320  -18.5684  -18.2267 C   0  0  1  0  0  0  0  0  0  0  0  0
   23.8974  -17.3902  -18.7938 C   0  0  0  0  0  0  0  0  0  0  0  0
   22.9029  -16.3732  -19.2883 C   0  0  0  0  0  0  0  0  0  0  0  0
   23.5136  -15.1217  -19.8394 C   0  0  0  0  0  0  0  0  0  0  0  0
   22.4197  -14.1615  -20.2550 C   0  0  0  0  0  0  0  0  0  0  0  0
   22.1558  -13.2868  -19.1103 N   0  0  0  0  0  0  0  0  0  0  0  0
   22.1711  -19.1229  -19.1918 C   0  0  0  0  0  0  0  0  0  0  0  0
   22.5630  -20.0536  -19.9708 O   0  0  0  0  0  0  0  0  0  0  0  0
   20.8553  -18.7377  -19.3504 O   0  0  0  0  0  0  0  0  0  0  0  0
  2 12  2  0
  2  1  1  0
  3  2  1  0
  4  5  1  0
  4  3  2  0
  5 11  2  0
  6  5  1  0
  7  8  1  1
  7  6  1  0
  9  7  1  0
 10  9  2  0
 11 12  1  0
 13  9  1  0
 14 20  1  0
 14 13  1  0
 14 15  1  6
 16 15  1  0
 17 16  1  0
 18 17  1  0
 19 18  1  0
 20 21  2  0
 22 23  1  0
 22 20  1  0
 23 24  1  6
 24 25  1  0
 25 26  1  0
 26 27  1  0
 28 27  1  0
 29 31  1  0
 29 23  1  0
 30 29  2  0
M  END
$$$$
