YKK.pdb
     RDKit          3D

 31 31  0  0  1  0  0  0  0  0999 V2000
   27.6890  -20.0144   -5.1193 O   0  0  0  0  0  0  0  0  0  0  0  0
   27.6244  -20.0003   -6.5170 C   0  0  0  0  0  0  0  0  0  0  0  0
   28.7935  -19.9958   -7.2406 C   0  0  0  0  0  0  0  0  0  0  0  0
   28.7580  -19.9822   -8.6198 C   0  0  0  0  0  0  0  0  0  0  0  0
   27.5781  -19.9726   -9.3292 C   0  0  0  0  0  0  0  0  0  0  0  0
   27.5653  -19.9387  -10.7913 C   0  0  0  0  0  0  0  0  0  0  0  0
   26.7171  -21.0623  -11.3854 C   0  0  2  0  0  0  0  0  0  0  0  0
   27.1731  -22.3450  -10.9437 N   0  0  0  0  0  0  0  0  0  0  0  0
   26.7608  -20.9803  -12.8840 C   0  0  0  0  0  0  0  0  0  0  0  0
   27.7985  -20.7335  -13.5203 O   0  0  0  0  0  0  0  0  0  0  0  0
   26.4164  -19.9767   -8.5969 C   0  0  0  0  0  0  0  0  0  0  0  0
   26.4298  -19.9907   -7.1998 C   0  0  0  0  0  0  0  0  0  0  0  0
   25.5582  -21.1977  -13.5971 N   0  0  0  0  0  0  0  0  0  0  0  0
   25.5211  -21.0672  -15.0969 C   0  0  1  0  0  0  0  0  0  0  0  0
   26.2865  -22.2046  -15.6531 C   0  0  0  0  0  0  0  0  0  0  0  0
   26.6652  -22.3528  -17.0392 C   0  0  0  0  0  0  0  0  0  0  0  0
   26.0295  -23.2983  -17.9719 C   0  0  0  0  0  0  0  0  0  0  0  0
   26.8652  -23.6159  -19.2016 C   0  0  0  0  0  0  0  0  0  0  0  0
   27.8711  -22.6050  -19.4295 N   0  0  0  0  0  0  0  0  0  0  0  0
   24.0865  -21.1196  -15.4457 C   0  0  0  0  0  0  0  0  0  0  0  0
   23.6615  -21.0564  -16.6511 O   0  0  0  0  0  0  0  0  0  0  0  0
   23.0155  -21.2466  -14.4967 N   0  0  0  0  0  0  0  0  0  0  0  0
   21.6193  -21.4311  -14.9186 C   0  0  1  0  0  0  0  0  0  0  0  0
   21.0060  -22.5977  -14.1712 C   0  0  0  0  0  0  0  0  0  0  0  0
   19.6086  -22.8108  -14.6906 C   0  0  0  0  0  0  0  0  0  0  0  0
   18.8947  -23.9845  -14.0943 C   0  0  0  0  0  0  0  0  0  0  0  0
   17.4389  -23.9591  -14.5082 C   0  0  0  0  0  0  0  0  0  0  0  0
   16.8003  -25.1344  -13.9116 N   0  0  0  0  0  0  0  0  0  0  0  0
   20.8524  -20.1898  -14.7361 C   0  0  0  0  0  0  0  0  0  0  0  0
   20.9540  -19.5723  -13.6248 O   0  0  0  0  0  0  0  0  0  0  0  0
   20.0132  -19.6025  -15.6611 O   0  0  0  0  0  0  0  0  0  0  0  0
  2 12  2  0
  2  1  1  0
  3  2  1  0
  4  5  1  0
  4  3  2  0
  5 11  2  0
  6  5  1  0
  7  8  1  6
  7  6  1  0
  9  7  1  0
 10  9  2  0
 11 12  1  0
 13  9  1  0
 14 20  1  0
 14 13  1  0
 14 15  1  6
 16 15  1  0
 17 16  1  0
 18 17  1  0
 19 18  1  0
 20 21  2  0
 22 23  1  0
 22 20  1  0
 23 24  1  1
 24 25  1  0
 25 26  1  0
 26 27  1  0
 28 27  1  0
 29 31  1  0
 29 23  1  0
 30 29  2  0
M  END
$$$$
