YKK.pdb
     RDKit          3D

 31 31  0  0  1  0  0  0  0  0999 V2000
   16.8649  -23.7194    0.6966 O   0  0  0  0  0  0  0  0  0  0  0  0
   16.8784  -22.4988    1.3806 C   0  0  0  0  0  0  0  0  0  0  0  0
   17.2818  -22.4731    2.6949 C   0  0  0  0  0  0  0  0  0  0  0  0
   17.3046  -21.2828    3.3924 C   0  0  0  0  0  0  0  0  0  0  0  0
   16.9337  -20.0851    2.8237 C   0  0  0  0  0  0  0  0  0  0  0  0
   16.9478  -18.8387    3.5887 C   0  0  0  0  0  0  0  0  0  0  0  0
   15.7730  -18.7476    4.5616 C   0  0  2  0  0  0  0  0  0  0  0  0
   14.5288  -18.6370    3.8629 N   0  0  0  0  0  0  0  0  0  0  0  0
   15.9685  -17.5679    5.4696 C   0  0  0  0  0  0  0  0  0  0  0  0
   15.5029  -16.4418    5.2292 O   0  0  0  0  0  0  0  0  0  0  0  0
   16.5322  -20.1221    1.5110 C   0  0  0  0  0  0  0  0  0  0  0  0
   16.5017  -21.3164    0.7863 C   0  0  0  0  0  0  0  0  0  0  0  0
   16.7187  -17.7577    6.6541 N   0  0  0  0  0  0  0  0  0  0  0  0
   16.6436  -16.7587    7.7784 C   0  0  1  0  0  0  0  0  0  0  0  0
   16.1224  -17.4741    8.9639 C   0  0  0  0  0  0  0  0  0  0  0  0
   15.5624  -16.8422   10.1360 C   0  0  0  0  0  0  0  0  0  0  0  0
   14.7060  -15.6451   10.0987 C   0  0  0  0  0  0  0  0  0  0  0  0
   14.3585  -15.0857   11.4690 C   0  0  0  0  0  0  0  0  0  0  0  0
   13.5745  -13.8777   11.3608 N   0  0  0  0  0  0  0  0  0  0  0  0
   18.0323  -16.2888    7.9602 C   0  0  0  0  0  0  0  0  0  0  0  0
   19.0470  -17.0615    7.8550 O   0  0  0  0  0  0  0  0  0  0  0  0
   18.4073  -14.9368    8.2688 N   0  0  0  0  0  0  0  0  0  0  0  0
   19.7928  -14.5680    8.5940 C   0  0  1  0  0  0  0  0  0  0  0  0
   19.9014  -13.0651    8.7518 C   0  0  0  0  0  0  0  0  0  0  0  0
   21.0586  -12.5838    7.9168 C   0  0  0  0  0  0  0  0  0  0  0  0
   21.3652  -11.1248    8.0593 C   0  0  0  0  0  0  0  0  0  0  0  0
   22.4795  -10.7433    7.1084 C   0  0  0  0  0  0  0  0  0  0  0  0
   22.6566   -9.2931    7.2111 N   0  0  0  0  0  0  0  0  0  0  0  0
   20.2553  -15.2869    9.7905 C   0  0  0  0  0  0  0  0  0  0  0  0
   21.5040  -15.2917   10.0499 O   0  0  0  0  0  0  0  0  0  0  0  0
   19.4649  -15.9742   10.6892 O   0  0  0  0  0  0  0  0  0  0  0  0
  2 12  2  0
  2  1  1  0
  3  2  1  0
  4  5  1  0
  4  3  2  0
  5 11  2  0
  6  5  1  0
  7  8  1  6
  7  6  1  0
  9  7  1  0
 10  9  2  0
 11 12  1  0
 13  9  1  0
 14 20  1  0
 14 13  1  0
 14 15  1  1
 16 15  1  0
 17 16  1  0
 18 17  1  0
 19 18  1  0
 20 21  2  0
 22 23  1  0
 22 20  1  0
 23 24  1  1
 24 25  1  0
 25 26  1  0
 26 27  1  0
 28 27  1  0
 29 31  1  0
 29 23  1  0
 30 29  2  0
M  END
$$$$
