YKK.pdb
     RDKit          3D

 31 31  0  0  1  0  0  0  0  0999 V2000
   29.7410  -20.2646   -3.3942 O   0  0  0  0  0  0  0  0  0  0  0  0
   29.0692  -20.0593   -4.6044 C   0  0  0  0  0  0  0  0  0  0  0  0
   29.6716  -19.3057   -5.5842 C   0  0  0  0  0  0  0  0  0  0  0  0
   29.0311  -19.0881   -6.7868 C   0  0  0  0  0  0  0  0  0  0  0  0
   27.7842  -19.6016   -7.0643 C   0  0  0  0  0  0  0  0  0  0  0  0
   27.1166  -19.3414   -8.3392 C   0  0  0  0  0  0  0  0  0  0  0  0
   26.6575  -20.6293   -9.0216 C   0  0  2  0  0  0  0  0  0  0  0  0
   27.7391  -21.5561   -9.1607 N   0  0  0  0  0  0  0  0  0  0  0  0
   26.0755  -20.3006  -10.3660 C   0  0  0  0  0  0  0  0  0  0  0  0
   26.2747  -19.2206  -10.9463 O   0  0  0  0  0  0  0  0  0  0  0  0
   27.1915  -20.3523   -6.0789 C   0  0  0  0  0  0  0  0  0  0  0  0
   27.8224  -20.5850   -4.8541 C   0  0  0  0  0  0  0  0  0  0  0  0
   25.2641  -21.2741  -10.9953 N   0  0  0  0  0  0  0  0  0  0  0  0
   24.9103  -21.1516  -12.4539 C   0  0  1  0  0  0  0  0  0  0  0  0
   25.2503  -22.4407  -13.0953 C   0  0  0  0  0  0  0  0  0  0  0  0
   26.0978  -22.5939  -14.2551 C   0  0  0  0  0  0  0  0  0  0  0  0
   26.2214  -21.5903  -15.3252 C   0  0  0  0  0  0  0  0  0  0  0  0
   27.2655  -21.9283  -16.3775 C   0  0  0  0  0  0  0  0  0  0  0  0
   26.9004  -23.1123  -17.1195 N   0  0  0  0  0  0  0  0  0  0  0  0
   23.4599  -20.8715  -12.4690 C   0  0  0  0  0  0  0  0  0  0  0  0
   22.6293  -21.4648  -11.6971 O   0  0  0  0  0  0  0  0  0  0  0  0
   22.8171  -19.9191  -13.3313 N   0  0  0  0  0  0  0  0  0  0  0  0
   21.3543  -19.7825  -13.3871 C   0  0  1  0  0  0  0  0  0  0  0  0
   20.9788  -18.6487  -14.3193 C   0  0  0  0  0  0  0  0  0  0  0  0
   19.4796  -18.5064  -14.3119 C   0  0  0  0  0  0  0  0  0  0  0  0
   18.9443  -17.5040  -15.2873 C   0  0  0  0  0  0  0  0  0  0  0  0
   17.4505  -17.3533  -15.0946 C   0  0  0  0  0  0  0  0  0  0  0  0
   16.9874  -16.3636  -16.0698 N   0  0  0  0  0  0  0  0  0  0  0  0
   20.7276  -21.0539  -13.7783 C   0  0  0  0  0  0  0  0  0  0  0  0
   19.6282  -21.3840  -13.2226 O   0  0  0  0  0  0  0  0  0  0  0  0
   21.2105  -21.9529  -14.7074 O   0  0  0  0  0  0  0  0  0  0  0  0
  2 12  2  0
  2  1  1  0
  3  2  1  0
  4  5  1  0
  4  3  2  0
  5 11  2  0
  6  5  1  0
  7  8  1  6
  7  6  1  0
  9  7  1  0
 10  9  2  0
 11 12  1  0
 13  9  1  0
 14 20  1  0
 14 13  1  0
 14 15  1  6
 16 15  1  0
 17 16  1  0
 18 17  1  0
 19 18  1  0
 20 21  2  0
 22 23  1  0
 22 20  1  0
 23 24  1  6
 24 25  1  0
 25 26  1  0
 26 27  1  0
 28 27  1  0
 29 31  1  0
 29 23  1  0
 30 29  2  0
M  END
$$$$
