ECQ.pdb
     RDKit          3D

 25 24  0  0  1  0  0  0  0  0999 V2000
   17.5936  -12.6083  -17.4134 N   0  0  0  0  0  0  0  0  0  0  0  0
   17.5220  -12.6982  -16.0100 C   0  0  1  0  0  0  0  0  0  0  0  0
   17.8210  -14.0512  -15.4584 C   0  0  0  0  0  0  0  0  0  0  0  0
   16.9234  -15.1326  -15.9342 C   0  0  0  0  0  0  0  0  0  0  0  0
   15.7874  -15.4244  -15.0826 C   0  0  0  0  0  0  0  0  0  0  0  0
   15.7905  -16.0233  -14.0031 O   0  0  0  0  0  0  0  0  0  0  0  0
   18.4321  -11.7538  -15.2920 C   0  0  0  0  0  0  0  0  0  0  0  0
   18.5467  -11.8196  -14.0203 O   0  0  0  0  0  0  0  0  0  0  0  0
   14.5246  -14.9805  -15.5222 O   0  0  0  0  0  0  0  0  0  0  0  0
   19.2129  -10.7540  -15.9026 N   0  0  0  0  0  0  0  0  0  0  0  0
   20.0479   -9.8469  -15.1663 C   0  0  1  0  0  0  0  0  0  0  0  0
   21.2311   -9.3393  -15.9262 C   0  0  0  0  0  0  0  0  0  0  0  0
   22.1936   -8.1203  -15.0033 S   0  0  0  0  0  0  0  0  0  0  0  0
   19.2517   -8.6799  -14.7219 C   0  0  0  0  0  0  0  0  0  0  0  0
   18.5324   -8.0365  -15.5414 O   0  0  0  0  0  0  0  0  0  0  0  0
   16.6828   -7.5320   -9.1718 N   0  0  0  0  0  0  0  0  0  0  0  0
   16.4473   -6.2820   -9.8235 C   0  0  0  0  0  0  0  0  0  0  0  0
   15.7231   -5.4256   -9.2721 O   0  0  0  0  0  0  0  0  0  0  0  0
   17.0909   -6.0754  -11.1438 C   0  0  0  0  0  0  0  0  0  0  0  0
   17.8639   -7.2590  -11.6343 C   0  0  0  0  0  0  0  0  0  0  0  0
   18.4552   -7.0583  -13.0047 C   0  0  2  0  0  0  0  0  0  0  0  0
   19.2550   -8.2306  -13.3740 N   0  0  0  0  0  0  0  0  0  0  0  0
   19.3365   -5.8725  -12.9676 C   0  0  0  0  0  0  0  0  0  0  0  0
   18.8097   -4.7406  -12.8380 O   0  0  0  0  0  0  0  0  0  0  0  0
   20.7135   -5.9062  -13.0632 O   0  0  0  0  0  0  0  0  0  0  0  0
  2  1  1  6
  2  7  1  0
  3  2  1  0
  4  3  1  0
  5  4  1  0
  6  5  2  0
  7  8  2  0
  9  5  1  0
 10 11  1  0
 10  7  1  0
 11 12  1  6
 12 13  1  0
 14 15  2  0
 14 11  1  0
 16 17  1  0
 17 19  1  0
 18 17  2  0
 19 20  1  0
 21 20  1  1
 21 23  1  0
 21 22  1  0
 22 14  1  0
 23 25  1  0
 24 23  2  0
M  END
$$$$
