ECQ.pdb
     RDKit          3D

 25 24  0  0  1  0  0  0  0  0999 V2000
   22.8005  -18.2563  -15.3177 N   0  0  0  0  0  0  0  0  0  0  0  0
   22.8473  -17.1791  -16.2235 C   0  0  1  0  0  0  0  0  0  0  0  0
   21.6038  -16.9867  -17.0242 C   0  0  0  0  0  0  0  0  0  0  0  0
   20.3429  -17.2888  -16.3029 C   0  0  0  0  0  0  0  0  0  0  0  0
   19.1314  -17.1983  -17.0934 C   0  0  0  0  0  0  0  0  0  0  0  0
   19.0308  -16.8835  -18.2828 O   0  0  0  0  0  0  0  0  0  0  0  0
   23.1301  -15.8575  -15.5839 C   0  0  0  0  0  0  0  0  0  0  0  0
   22.4128  -15.4548  -14.6052 O   0  0  0  0  0  0  0  0  0  0  0  0
   17.9177  -17.5014  -16.4453 O   0  0  0  0  0  0  0  0  0  0  0  0
   24.1544  -14.9708  -15.9672 N   0  0  0  0  0  0  0  0  0  0  0  0
   24.4415  -13.7494  -15.2686 C   0  0  1  0  0  0  0  0  0  0  0  0
   25.8917  -13.3890  -15.2223 C   0  0  0  0  0  0  0  0  0  0  0  0
   26.9346  -14.7328  -14.6134 S   0  0  0  0  0  0  0  0  0  0  0  0
   23.7086  -12.6270  -15.8979 C   0  0  0  0  0  0  0  0  0  0  0  0
   23.5434  -12.5834  -17.1524 O   0  0  0  0  0  0  0  0  0  0  0  0
   18.6745   -9.8022  -13.8985 N   0  0  0  0  0  0  0  0  0  0  0  0
   18.9863   -8.9471  -15.0004 C   0  0  0  0  0  0  0  0  0  0  0  0
   18.1909   -8.0375  -15.3196 O   0  0  0  0  0  0  0  0  0  0  0  0
   20.2627   -9.1994  -15.7126 C   0  0  0  0  0  0  0  0  0  0  0  0
   21.0884  -10.2922  -15.1102 C   0  0  0  0  0  0  0  0  0  0  0  0
   22.4005  -10.5068  -15.8176 C   0  0  2  0  0  0  0  0  0  0  0  0
   23.1623  -11.5586  -15.1369 N   0  0  0  0  0  0  0  0  0  0  0  0
   23.1740   -9.2485  -15.7658 C   0  0  0  0  0  0  0  0  0  0  0  0
   24.0652   -9.1309  -14.8898 O   0  0  0  0  0  0  0  0  0  0  0  0
   22.9967   -8.1747  -16.6156 O   0  0  0  0  0  0  0  0  0  0  0  0
  2  1  1  1
  2  7  1  0
  3  2  1  0
  4  3  1  0
  5  4  1  0
  6  5  2  0
  7  8  2  0
  9  5  1  0
 10 11  1  0
 10  7  1  0
 11 12  1  6
 12 13  1  0
 14 15  2  0
 14 11  1  0
 16 17  1  0
 17 19  1  0
 18 17  2  0
 19 20  1  0
 21 20  1  1
 21 23  1  0
 21 22  1  0
 22 14  1  0
 23 25  1  0
 24 23  2  0
M  END
$$$$
