ECQ.pdb
     RDKit          3D

 25 24  0  0  1  0  0  0  0  0999 V2000
   18.5407   -9.2842  -11.6590 N   0  0  0  0  0  0  0  0  0  0  0  0
   18.1580   -8.0948  -12.3085 C   0  0  1  0  0  0  0  0  0  0  0  0
   17.6371   -8.2834  -13.6932 C   0  0  0  0  0  0  0  0  0  0  0  0
   18.5518   -9.0045  -14.6123 C   0  0  0  0  0  0  0  0  0  0  0  0
   18.0204   -9.2880  -15.9307 C   0  0  0  0  0  0  0  0  0  0  0  0
   18.0237   -8.5476  -16.9184 O   0  0  0  0  0  0  0  0  0  0  0  0
   17.1113   -7.3134  -11.5809 C   0  0  0  0  0  0  0  0  0  0  0  0
   16.5110   -6.3490  -12.1675 O   0  0  0  0  0  0  0  0  0  0  0  0
   17.4274  -10.5511  -16.1259 O   0  0  0  0  0  0  0  0  0  0  0  0
   16.6998   -7.5432  -10.2543 N   0  0  0  0  0  0  0  0  0  0  0  0
   15.6041   -6.8491   -9.6377 C   0  0  1  0  0  0  0  0  0  0  0  0
   14.7592   -7.6975   -8.7426 C   0  0  0  0  0  0  0  0  0  0  0  0
   14.2457   -9.2473   -9.5161 S   0  0  0  0  0  0  0  0  0  0  0  0
   16.1157   -5.7093   -8.8426 C   0  0  0  0  0  0  0  0  0  0  0  0
   17.0071   -5.8829   -7.9604 O   0  0  0  0  0  0  0  0  0  0  0  0
   18.9939   -1.0362  -10.5415 N   0  0  0  0  0  0  0  0  0  0  0  0
   18.8219   -0.6250   -9.1835 C   0  0  0  0  0  0  0  0  0  0  0  0
   19.4933    0.3306   -8.7386 O   0  0  0  0  0  0  0  0  0  0  0  0
   17.8357   -1.3759   -8.3689 C   0  0  0  0  0  0  0  0  0  0  0  0
   17.2271   -2.5449   -9.0776 C   0  0  0  0  0  0  0  0  0  0  0  0
   16.2236   -3.2930   -8.2402 C   0  0  2  0  0  0  0  0  0  0  0  0
   15.6389   -4.3835   -9.0269 N   0  0  0  0  0  0  0  0  0  0  0  0
   15.1481   -2.3582   -7.8481 C   0  0  0  0  0  0  0  0  0  0  0  0
   14.0825   -2.3617   -8.5114 O   0  0  0  0  0  0  0  0  0  0  0  0
   15.2178   -1.4682   -6.7948 O   0  0  0  0  0  0  0  0  0  0  0  0
  2  1  1  1
  2  7  1  0
  3  2  1  0
  4  3  1  0
  5  4  1  0
  6  5  2  0
  7  8  2  0
  9  5  1  0
 10 11  1  0
 10  7  1  0
 11 12  1  1
 12 13  1  0
 14 15  2  0
 14 11  1  0
 16 17  1  0
 17 19  1  0
 18 17  2  0
 19 20  1  0
 21 20  1  6
 21 23  1  0
 21 22  1  0
 22 14  1  0
 23 25  1  0
 24 23  2  0
M  END
$$$$
