ECQ.pdb
     RDKit          3D

 25 24  0  0  1  0  0  0  0  0999 V2000
   14.2934  -23.1004   -5.4284 N   0  0  0  0  0  0  0  0  0  0  0  0
   13.8294  -23.5878   -4.1914 C   0  0  1  0  0  0  0  0  0  0  0  0
   14.7243  -24.5898   -3.5437 C   0  0  0  0  0  0  0  0  0  0  0  0
   16.1534  -24.4941   -3.9309 C   0  0  0  0  0  0  0  0  0  0  0  0
   17.0475  -25.4176   -3.2611 C   0  0  0  0  0  0  0  0  0  0  0  0
   16.7571  -26.2598   -2.4065 O   0  0  0  0  0  0  0  0  0  0  0  0
   13.5970  -22.5244   -3.1663 C   0  0  0  0  0  0  0  0  0  0  0  0
   14.1105  -21.3639   -3.3219 O   0  0  0  0  0  0  0  0  0  0  0  0
   18.4104  -25.3619   -3.6141 O   0  0  0  0  0  0  0  0  0  0  0  0
   12.8338  -22.6781   -1.9933 N   0  0  0  0  0  0  0  0  0  0  0  0
   12.5447  -21.5964   -1.0941 C   0  0  1  0  0  0  0  0  0  0  0  0
   11.0992  -21.2218   -1.0211 C   0  0  0  0  0  0  0  0  0  0  0  0
   10.7905  -19.8028    0.0537 S   0  0  0  0  0  0  0  0  0  0  0  0
   12.9991  -21.9440    0.2719 C   0  0  0  0  0  0  0  0  0  0  0  0
   12.7987  -23.1004    0.7467 O   0  0  0  0  0  0  0  0  0  0  0  0
   17.8869  -19.7479    3.4476 N   0  0  0  0  0  0  0  0  0  0  0  0
   17.8801  -21.1484    3.1628 C   0  0  0  0  0  0  0  0  0  0  0  0
   18.9432  -21.8001    3.2465 O   0  0  0  0  0  0  0  0  0  0  0  0
   16.5824  -21.7539    2.7761 C   0  0  0  0  0  0  0  0  0  0  0  0
   15.4423  -20.7850    2.7556 C   0  0  0  0  0  0  0  0  0  0  0  0
   14.1184  -21.4290    2.4386 C   0  0  2  0  0  0  0  0  0  0  0  0
   13.6726  -21.0112    1.1056 N   0  0  0  0  0  0  0  0  0  0  0  0
   13.1255  -20.9786    3.4363 C   0  0  0  0  0  0  0  0  0  0  0  0
   13.1639  -21.4808    4.5860 O   0  0  0  0  0  0  0  0  0  0  0  0
   12.1442  -20.0348    3.2064 O   0  0  0  0  0  0  0  0  0  0  0  0
  2  1  1  6
  2  7  1  0
  3  2  1  0
  4  3  1  0
  5  4  1  0
  6  5  2  0
  7  8  2  0
  9  5  1  0
 10 11  1  0
 10  7  1  0
 11 12  1  1
 12 13  1  0
 14 15  2  0
 14 11  1  0
 16 17  1  0
 17 19  1  0
 18 17  2  0
 19 20  1  0
 21 20  1  1
 21 23  1  0
 21 22  1  0
 22 14  1  0
 23 25  1  0
 24 23  2  0
M  END
$$$$
