ECQ.pdb
     RDKit          3D

 25 24  0  0  1  0  0  0  0  0999 V2000
   14.6761  -13.2627  -15.5421 N   0  0  0  0  0  0  0  0  0  0  0  0
   15.7826  -12.7368  -14.8479 C   0  0  1  0  0  0  0  0  0  0  0  0
   16.9338  -13.6753  -14.7124 C   0  0  0  0  0  0  0  0  0  0  0  0
   16.9221  -14.8194  -15.6570 C   0  0  0  0  0  0  0  0  0  0  0  0
   18.0352  -15.7404  -15.5401 C   0  0  0  0  0  0  0  0  0  0  0  0
   18.9898  -15.6716  -14.7604 O   0  0  0  0  0  0  0  0  0  0  0  0
   16.3421  -11.4880  -15.4505 C   0  0  0  0  0  0  0  0  0  0  0  0
   16.4739  -11.3941  -16.7187 O   0  0  0  0  0  0  0  0  0  0  0  0
   18.0453  -16.8490  -16.4095 O   0  0  0  0  0  0  0  0  0  0  0  0
   16.7568  -10.3519  -14.7297 N   0  0  0  0  0  0  0  0  0  0  0  0
   17.2887   -9.1734  -15.3544 C   0  0  1  0  0  0  0  0  0  0  0  0
   16.5513   -7.9141  -15.0294 C   0  0  0  0  0  0  0  0  0  0  0  0
   17.3881   -6.4301  -15.6306 S   0  0  0  0  0  0  0  0  0  0  0  0
   18.7046   -8.9918  -14.9603 C   0  0  0  0  0  0  0  0  0  0  0  0
   19.0547   -9.0726  -13.7462 O   0  0  0  0  0  0  0  0  0  0  0  0
   25.8516   -9.0519  -16.8973 N   0  0  0  0  0  0  0  0  0  0  0  0
   24.4602   -9.1170  -17.2169 C   0  0  0  0  0  0  0  0  0  0  0  0
   24.1075   -9.3916  -18.3840 O   0  0  0  0  0  0  0  0  0  0  0  0
   23.5003   -8.8474  -16.1186 C   0  0  0  0  0  0  0  0  0  0  0  0
   22.0648   -8.9627  -16.5248 C   0  0  0  0  0  0  0  0  0  0  0  0
   21.1043   -8.5283  -15.4493 C   0  0  2  0  0  0  0  0  0  0  0  0
   19.7260   -8.7218  -15.9105 N   0  0  0  0  0  0  0  0  0  0  0  0
   21.3193   -7.0912  -15.1793 C   0  0  0  0  0  0  0  0  0  0  0  0
   20.6729   -6.2534  -15.8545 O   0  0  0  0  0  0  0  0  0  0  0  0
   22.1844   -6.5847  -14.2298 O   0  0  0  0  0  0  0  0  0  0  0  0
  2  1  1  6
  2  7  1  0
  3  2  1  0
  4  3  1  0
  5  4  1  0
  6  5  2  0
  7  8  2  0
  9  5  1  0
 10 11  1  0
 10  7  1  0
 11 12  1  1
 12 13  1  0
 14 15  2  0
 14 11  1  0
 16 17  1  0
 17 19  1  0
 18 17  2  0
 19 20  1  0
 21 20  1  6
 21 23  1  0
 21 22  1  0
 22 14  1  0
 23 25  1  0
 24 23  2  0
M  END
$$$$
