EAE.pdb
     RDKit          3D

 24 23  0  0  1  0  0  0  0  0999 V2000
   24.2358  -14.4555  -18.7875 N   0  0  0  0  0  0  0  0  0  0  0  0
   25.0013  -13.2652  -19.0445 C   0  0  1  0  0  0  0  0  0  0  0  0
   24.5220  -12.5496  -20.2726 C   0  0  0  0  0  0  0  0  0  0  0  0
   23.7884  -13.3847  -21.2554 C   0  0  0  0  0  0  0  0  0  0  0  0
   24.4473  -13.3825  -22.5741 C   0  0  0  0  0  0  0  0  0  0  0  0
   25.4626  -12.7081  -22.8173 O   0  0  0  0  0  0  0  0  0  0  0  0
   24.9045  -12.3453  -17.8628 C   0  0  0  0  0  0  0  0  0  0  0  0
   23.8181  -12.2546  -17.2403 O   0  0  0  0  0  0  0  0  0  0  0  0
   23.9261  -14.1682  -23.6212 O   0  0  0  0  0  0  0  0  0  0  0  0
   27.2070  -10.2246  -15.8542 C   0  0  0  0  0  0  0  0  0  0  0  0
   25.8625  -10.6444  -16.3697 C   0  0  2  0  0  0  0  0  0  0  0  0
   26.0191  -11.5900  -17.4538 N   0  0  0  0  0  0  0  0  0  0  0  0
   25.1343   -9.4456  -16.8990 C   0  0  0  0  0  0  0  0  0  0  0  0
   25.2555   -9.0908  -18.1068 O   0  0  0  0  0  0  0  0  0  0  0  0
   24.2965   -8.6820  -16.0678 N   0  0  0  0  0  0  0  0  0  0  0  0
   23.6353   -7.4957  -16.5507 C   0  0  1  0  0  0  0  0  0  0  0  0
   22.6766   -6.9427  -15.5201 C   0  0  0  0  0  0  0  0  0  0  0  0
   21.8722   -5.7744  -16.0576 C   0  0  0  0  0  0  0  0  0  0  0  0
   20.9886   -5.2737  -14.9888 C   0  0  0  0  0  0  0  0  0  0  0  0
   20.2733   -4.2692  -15.1834 O   0  0  0  0  0  0  0  0  0  0  0  0
   24.6349   -6.4259  -16.8259 C   0  0  0  0  0  0  0  0  0  0  0  0
   24.4809   -5.5093  -17.8460 O   0  0  0  0  0  0  0  0  0  0  0  0
   20.9607   -5.9264  -13.7727 O   0  0  0  0  0  0  0  0  0  0  0  0
   25.6466   -6.3546  -16.1110 O   0  0  0  0  0  0  0  0  0  0  0  0
  2  1  1  1
  2  7  1  0
  3  2  1  0
  4  3  1  0
  4  5  1  0
  5  6  2  0
  7 12  1  0
  8  7  2  0
  9  5  1  0
 11 10  1  6
 11 13  1  0
 12 11  1  0
 13 14  2  0
 13 15  1  0
 15 16  1  0
 16 17  1  1
 16 21  1  0
 18 17  1  0
 19 18  1  0
 20 19  2  0
 21 22  1  0
 23 19  1  0
 24 21  2  0
M  END
$$$$
