EAE.pdb
     RDKit          3D

 24 23  0  0  1  0  0  0  0  0999 V2000
   14.5956  -11.3270  -17.2232 N   0  0  0  0  0  0  0  0  0  0  0  0
   14.8581  -10.6914  -15.9598 C   0  0  1  0  0  0  0  0  0  0  0  0
   16.1501  -11.1600  -15.3587 C   0  0  0  0  0  0  0  0  0  0  0  0
   16.2049  -12.5984  -14.9990 C   0  0  0  0  0  0  0  0  0  0  0  0
   17.5152  -12.9713  -14.4359 C   0  0  0  0  0  0  0  0  0  0  0  0
   18.4364  -12.1522  -14.2769 O   0  0  0  0  0  0  0  0  0  0  0  0
   14.9085   -9.2039  -16.1510 C   0  0  0  0  0  0  0  0  0  0  0  0
   15.3816   -8.7354  -17.2153 O   0  0  0  0  0  0  0  0  0  0  0  0
   17.7616  -14.3048  -14.0533 O   0  0  0  0  0  0  0  0  0  0  0  0
   13.4908   -6.2181  -14.4775 C   0  0  0  0  0  0  0  0  0  0  0  0
   14.4647   -6.9118  -15.3829 C   0  0  2  0  0  0  0  0  0  0  0  0
   14.4311   -8.3394  -15.1486 N   0  0  0  0  0  0  0  0  0  0  0  0
   15.8521   -6.4245  -15.0908 C   0  0  0  0  0  0  0  0  0  0  0  0
   16.5896   -7.0217  -14.2549 O   0  0  0  0  0  0  0  0  0  0  0  0
   16.3722   -5.2900  -15.7376 N   0  0  0  0  0  0  0  0  0  0  0  0
   17.6694   -4.7596  -15.4005 C   0  0  1  0  0  0  0  0  0  0  0  0
   18.6608   -4.9785  -16.5213 C   0  0  0  0  0  0  0  0  0  0  0  0
   20.0343   -4.4301  -16.1838 C   0  0  0  0  0  0  0  0  0  0  0  0
   20.9409   -4.6876  -17.3176 C   0  0  0  0  0  0  0  0  0  0  0  0
   21.6384   -5.7227  -17.3423 O   0  0  0  0  0  0  0  0  0  0  0  0
   17.5829   -3.2882  -15.1840 C   0  0  0  0  0  0  0  0  0  0  0  0
   18.5189   -2.5885  -14.4501 O   0  0  0  0  0  0  0  0  0  0  0  0
   21.0101   -3.7735  -18.3497 O   0  0  0  0  0  0  0  0  0  0  0  0
   16.6324   -2.6654  -15.6825 O   0  0  0  0  0  0  0  0  0  0  0  0
  2  1  1  6
  2  7  1  0
  3  2  1  0
  4  3  1  0
  4  5  1  0
  5  6  2  0
  7 12  1  0
  8  7  2  0
  9  5  1  0
 11 10  1  1
 11 13  1  0
 12 11  1  0
 13 14  2  0
 13 15  1  0
 15 16  1  0
 16 17  1  6
 16 21  1  0
 18 17  1  0
 19 18  1  0
 20 19  2  0
 21 22  1  0
 23 19  1  0
 24 21  2  0
M  END
$$$$
