EAE.pdb
     RDKit          3D

 24 23  0  0  1  0  0  0  0  0999 V2000
   13.1714   -9.3881  -10.2783 N   0  0  0  0  0  0  0  0  0  0  0  0
   14.5177   -9.4489   -9.7755 C   0  0  1  0  0  0  0  0  0  0  0  0
   15.2237  -10.6941  -10.2241 C   0  0  0  0  0  0  0  0  0  0  0  0
   14.4585  -11.5667  -11.1485 C   0  0  0  0  0  0  0  0  0  0  0  0
   14.8151  -12.9871  -10.9799 C   0  0  0  0  0  0  0  0  0  0  0  0
   14.2570  -13.7268  -10.1516 O   0  0  0  0  0  0  0  0  0  0  0  0
   15.2810   -8.2463  -10.2477 C   0  0  0  0  0  0  0  0  0  0  0  0
   15.1721   -7.8780  -11.4429 O   0  0  0  0  0  0  0  0  0  0  0  0
   15.8274  -13.5567  -11.7775 O   0  0  0  0  0  0  0  0  0  0  0  0
   17.2336   -5.4921   -8.7305 C   0  0  0  0  0  0  0  0  0  0  0  0
   16.8599   -6.4028   -9.8621 C   0  0  2  0  0  0  0  0  0  0  0  0
   16.1122   -7.5361   -9.3618 N   0  0  0  0  0  0  0  0  0  0  0  0
   18.1045   -6.9194  -10.5191 C   0  0  0  0  0  0  0  0  0  0  0  0
   18.6415   -7.9993  -10.1386 O   0  0  0  0  0  0  0  0  0  0  0  0
   18.7099   -6.2179  -11.5762 N   0  0  0  0  0  0  0  0  0  0  0  0
   19.8477   -6.7531  -12.2810 C   0  0  1  0  0  0  0  0  0  0  0  0
   19.4443   -7.3260  -13.6211 C   0  0  0  0  0  0  0  0  0  0  0  0
   20.6384   -7.8300  -14.4092 C   0  0  0  0  0  0  0  0  0  0  0  0
   20.1755   -8.2912  -15.7309 C   0  0  0  0  0  0  0  0  0  0  0  0
   19.4797   -9.3232  -15.8284 O   0  0  0  0  0  0  0  0  0  0  0  0
   20.8371   -5.6735  -12.5549 C   0  0  0  0  0  0  0  0  0  0  0  0
   22.1850   -5.9232  -12.7131 O   0  0  0  0  0  0  0  0  0  0  0  0
   20.5191   -7.5711  -16.8574 O   0  0  0  0  0  0  0  0  0  0  0  0
   20.4352   -4.5030  -12.6448 O   0  0  0  0  0  0  0  0  0  0  0  0
  2  1  1  6
  2  7  1  0
  3  2  1  0
  4  3  1  0
  4  5  1  0
  5  6  2  0
  7 12  1  0
  8  7  2  0
  9  5  1  0
 11 10  1  1
 11 13  1  0
 12 11  1  0
 13 14  2  0
 13 15  1  0
 15 16  1  0
 16 17  1  6
 16 21  1  0
 18 17  1  0
 19 18  1  0
 20 19  2  0
 21 22  1  0
 23 19  1  0
 24 21  2  0
M  END
$$$$
