EAE.pdb
     RDKit          3D

 24 23  0  0  1  0  0  0  0  0999 V2000
   20.6351   -9.4535  -14.4433 N   0  0  0  0  0  0  0  0  0  0  0  0
   20.3670   -9.9884  -15.7514 C   0  0  1  0  0  0  0  0  0  0  0  0
   20.5418   -8.9531  -16.8227 C   0  0  0  0  0  0  0  0  0  0  0  0
   19.6167   -7.7952  -16.7515 C   0  0  0  0  0  0  0  0  0  0  0  0
   20.1073   -6.7600  -15.8237 C   0  0  0  0  0  0  0  0  0  0  0  0
   19.3681   -5.8857  -15.3400 O   0  0  0  0  0  0  0  0  0  0  0  0
   21.2906  -11.1409  -16.0176 C   0  0  0  0  0  0  0  0  0  0  0  0
   21.1503  -11.8124  -17.0690 O   0  0  0  0  0  0  0  0  0  0  0  0
   21.4663   -6.7365  -15.4524 O   0  0  0  0  0  0  0  0  0  0  0  0
   24.2638  -12.6756  -14.3637 C   0  0  0  0  0  0  0  0  0  0  0  0
   23.1648  -12.5979  -15.3814 C   0  0  2  0  0  0  0  0  0  0  0  0
   22.3051  -11.4686  -15.0993 N   0  0  0  0  0  0  0  0  0  0  0  0
   22.3337  -13.8439  -15.3148 C   0  0  0  0  0  0  0  0  0  0  0  0
   21.4958  -14.0188  -14.3838 O   0  0  0  0  0  0  0  0  0  0  0  0
   22.4626  -14.8529  -16.2849 N   0  0  0  0  0  0  0  0  0  0  0  0
   21.7313  -16.0911  -16.1853 C   0  0  1  0  0  0  0  0  0  0  0  0
   21.3626  -16.6231  -17.5519 C   0  0  0  0  0  0  0  0  0  0  0  0
   20.4964  -17.8655  -17.4662 C   0  0  0  0  0  0  0  0  0  0  0  0
   20.2349  -18.3579  -18.8312 C   0  0  0  0  0  0  0  0  0  0  0  0
   20.7244  -17.7684  -19.8167 O   0  0  0  0  0  0  0  0  0  0  0  0
   22.5711  -17.1329  -15.5303 C   0  0  0  0  0  0  0  0  0  0  0  0
   23.9339  -17.2217  -15.7283 O   0  0  0  0  0  0  0  0  0  0  0  0
   19.4442  -19.4757  -19.0073 O   0  0  0  0  0  0  0  0  0  0  0  0
   22.0255  -17.9540  -14.7768 O   0  0  0  0  0  0  0  0  0  0  0  0
  2  1  1  1
  2  7  1  0
  3  2  1  0
  4  3  1  0
  4  5  1  0
  5  6  2  0
  7 12  1  0
  8  7  2  0
  9  5  1  0
 11 10  1  1
 11 13  1  0
 12 11  1  0
 13 14  2  0
 13 15  1  0
 15 16  1  0
 16 17  1  6
 16 21  1  0
 18 17  1  0
 19 18  1  0
 20 19  2  0
 21 22  1  0
 23 19  1  0
 24 21  2  0
M  END
$$$$
