EAE.pdb
     RDKit          3D

 24 23  0  0  1  0  0  0  0  0999 V2000
   20.4406  -12.5190  -17.4192 N   0  0  0  0  0  0  0  0  0  0  0  0
   19.4170  -11.6987  -16.8289 C   0  0  1  0  0  0  0  0  0  0  0  0
   18.4102  -12.5192  -16.0782 C   0  0  0  0  0  0  0  0  0  0  0  0
   17.7212  -13.5686  -16.8692 C   0  0  0  0  0  0  0  0  0  0  0  0
   16.8415  -14.3987  -16.0265 C   0  0  0  0  0  0  0  0  0  0  0  0
   16.7511  -14.2478  -14.7960 O   0  0  0  0  0  0  0  0  0  0  0  0
   20.0486  -10.7088  -15.8945 C   0  0  0  0  0  0  0  0  0  0  0  0
   19.3191   -9.9040  -15.2650 O   0  0  0  0  0  0  0  0  0  0  0  0
   16.0594  -15.4132  -16.6133 O   0  0  0  0  0  0  0  0  0  0  0  0
   23.4607  -10.0990  -14.5262 C   0  0  0  0  0  0  0  0  0  0  0  0
   22.0099   -9.7831  -14.7385 C   0  0  2  0  0  0  0  0  0  0  0  0
   21.4450  -10.6800  -15.7235 N   0  0  0  0  0  0  0  0  0  0  0  0
   21.8743   -8.3814  -15.2528 C   0  0  0  0  0  0  0  0  0  0  0  0
   22.1113   -8.1065  -16.4643 O   0  0  0  0  0  0  0  0  0  0  0  0
   21.4801   -7.3334  -14.4031 N   0  0  0  0  0  0  0  0  0  0  0  0
   21.3803   -5.9761  -14.8780 C   0  0  1  0  0  0  0  0  0  0  0  0
   19.9539   -5.4772  -14.8206 C   0  0  0  0  0  0  0  0  0  0  0  0
   19.8319   -4.0413  -15.2944 C   0  0  0  0  0  0  0  0  0  0  0  0
   18.4161   -3.6358  -15.2230 C   0  0  0  0  0  0  0  0  0  0  0  0
   18.1029   -2.5291  -14.7375 O   0  0  0  0  0  0  0  0  0  0  0  0
   22.1883   -5.0689  -14.0155 C   0  0  0  0  0  0  0  0  0  0  0  0
   22.4521   -5.3441  -12.6892 O   0  0  0  0  0  0  0  0  0  0  0  0
   17.4424   -4.4914  -15.6978 O   0  0  0  0  0  0  0  0  0  0  0  0
   22.6428   -4.0243  -14.5073 O   0  0  0  0  0  0  0  0  0  0  0  0
  2  1  1  1
  2  7  1  0
  3  2  1  0
  4  3  1  0
  4  5  1  0
  5  6  2  0
  7 12  1  0
  8  7  2  0
  9  5  1  0
 11 10  1  6
 11 13  1  0
 12 11  1  0
 13 14  2  0
 13 15  1  0
 15 16  1  0
 16 17  1  1
 16 21  1  0
 18 17  1  0
 19 18  1  0
 20 19  2  0
 21 22  1  0
 23 19  1  0
 24 21  2  0
M  END
$$$$
