EAE.pdb
     RDKit          3D

 24 23  0  0  1  0  0  0  0  0999 V2000
   18.8084  -14.8994  -15.7407 N   0  0  0  0  0  0  0  0  0  0  0  0
   18.3271  -13.7053  -16.3823 C   0  0  1  0  0  0  0  0  0  0  0  0
   17.1504  -13.1203  -15.6588 C   0  0  0  0  0  0  0  0  0  0  0  0
   15.9271  -13.9598  -15.6414 C   0  0  0  0  0  0  0  0  0  0  0  0
   14.8349  -13.3182  -14.8874 C   0  0  0  0  0  0  0  0  0  0  0  0
   14.3014  -13.8460  -13.8966 O   0  0  0  0  0  0  0  0  0  0  0  0
   19.4311  -12.6905  -16.4394 C   0  0  0  0  0  0  0  0  0  0  0  0
   20.0986  -12.4477  -15.4043 O   0  0  0  0  0  0  0  0  0  0  0  0
   14.3555  -12.0541  -15.2840 O   0  0  0  0  0  0  0  0  0  0  0  0
   21.2896  -10.8619  -19.0663 C   0  0  0  0  0  0  0  0  0  0  0  0
   20.8019  -11.0571  -17.6614 C   0  0  2  0  0  0  0  0  0  0  0  0
   19.7179  -12.0154  -17.6402 N   0  0  0  0  0  0  0  0  0  0  0  0
   20.2836   -9.7556  -17.1276 C   0  0  0  0  0  0  0  0  0  0  0  0
   19.0439   -9.5061  -17.1107 O   0  0  0  0  0  0  0  0  0  0  0  0
   21.1608   -8.7759  -16.6310 N   0  0  0  0  0  0  0  0  0  0  0  0
   20.6710   -7.5450  -16.0630 C   0  0  1  0  0  0  0  0  0  0  0  0
   21.6262   -7.0005  -15.0247 C   0  0  0  0  0  0  0  0  0  0  0  0
   21.1369   -5.6944  -14.4282 C   0  0  0  0  0  0  0  0  0  0  0  0
   22.1329   -5.2147  -13.4525 C   0  0  0  0  0  0  0  0  0  0  0  0
   21.7914   -4.4410  -12.5343 O   0  0  0  0  0  0  0  0  0  0  0  0
   20.5470   -6.5038  -17.1214 C   0  0  0  0  0  0  0  0  0  0  0  0
   19.6416   -5.4656  -17.0404 O   0  0  0  0  0  0  0  0  0  0  0  0
   23.4447   -5.6295  -13.5652 O   0  0  0  0  0  0  0  0  0  0  0  0
   21.2863   -6.5712  -18.1158 O   0  0  0  0  0  0  0  0  0  0  0  0
  2  1  1  1
  2  7  1  0
  3  2  1  0
  4  3  1  0
  4  5  1  0
  5  6  2  0
  7 12  1  0
  8  7  2  0
  9  5  1  0
 11 10  1  6
 11 13  1  0
 12 11  1  0
 13 14  2  0
 13 15  1  0
 15 16  1  0
 16 17  1  1
 16 21  1  0
 18 17  1  0
 19 18  1  0
 20 19  2  0
 21 22  1  0
 23 19  1  0
 24 21  2  0
M  END
$$$$
