EAE.pdb
     RDKit          3D

 24 23  0  0  1  0  0  0  0  0999 V2000
   20.9026  -12.4712  -17.9666 N   0  0  0  0  0  0  0  0  0  0  0  0
   19.8548  -11.8196  -17.2273 C   0  0  1  0  0  0  0  0  0  0  0  0
   18.9344  -12.8094  -16.5766 C   0  0  0  0  0  0  0  0  0  0  0  0
   19.3084  -14.2359  -16.7404 C   0  0  0  0  0  0  0  0  0  0  0  0
   18.3739  -15.1305  -16.0338 C   0  0  0  0  0  0  0  0  0  0  0  0
   17.3209  -15.5448  -16.5481 O   0  0  0  0  0  0  0  0  0  0  0  0
   20.4610  -10.9376  -16.1755 C   0  0  0  0  0  0  0  0  0  0  0  0
   19.7121  -10.3572  -15.3519 O   0  0  0  0  0  0  0  0  0  0  0  0
   18.6606  -15.5494  -14.7194 O   0  0  0  0  0  0  0  0  0  0  0  0
   23.8818  -10.1007  -14.9732 C   0  0  0  0  0  0  0  0  0  0  0  0
   22.4020   -9.8877  -15.0936 C   0  0  2  0  0  0  0  0  0  0  0  0
   21.8554  -10.7603  -16.1103 N   0  0  0  0  0  0  0  0  0  0  0  0
   22.1334   -8.4706  -15.5027 C   0  0  0  0  0  0  0  0  0  0  0  0
   22.2037   -8.1183  -16.7153 O   0  0  0  0  0  0  0  0  0  0  0  0
   21.7962   -7.4935  -14.5501 N   0  0  0  0  0  0  0  0  0  0  0  0
   21.5297   -6.1295  -14.9324 C   0  0  1  0  0  0  0  0  0  0  0  0
   20.0436   -5.8571  -14.9968 C   0  0  0  0  0  0  0  0  0  0  0  0
   19.7424   -4.4278  -15.4059 C   0  0  0  0  0  0  0  0  0  0  0  0
   18.2801   -4.2473  -15.4618 C   0  0  0  0  0  0  0  0  0  0  0  0
   17.6288   -4.0633  -14.4128 O   0  0  0  0  0  0  0  0  0  0  0  0
   22.0953   -5.1924  -13.9217 C   0  0  0  0  0  0  0  0  0  0  0  0
   22.4127   -3.8826  -14.2182 O   0  0  0  0  0  0  0  0  0  0  0  0
   17.6401   -4.2841  -16.6844 O   0  0  0  0  0  0  0  0  0  0  0  0
   22.2894   -5.6040  -12.7673 O   0  0  0  0  0  0  0  0  0  0  0  0
  2  1  1  1
  2  7  1  0
  3  2  1  0
  4  3  1  0
  4  5  1  0
  5  6  2  0
  7 12  1  0
  8  7  2  0
  9  5  1  0
 11 10  1  6
 11 13  1  0
 12 11  1  0
 13 14  2  0
 13 15  1  0
 15 16  1  0
 16 17  1  1
 16 21  1  0
 18 17  1  0
 19 18  1  0
 20 19  2  0
 21 22  1  0
 23 19  1  0
 24 21  2  0
M  END
$$$$
