EAE.pdb
     RDKit          3D

 24 23  0  0  1  0  0  0  0  0999 V2000
   22.5372  -10.0137  -17.2451 N   0  0  0  0  0  0  0  0  0  0  0  0
   22.3992   -8.9573  -16.2787 C   0  0  1  0  0  0  0  0  0  0  0  0
   22.7309   -7.6179  -16.8671 C   0  0  0  0  0  0  0  0  0  0  0  0
   22.8547   -7.5803  -18.3452 C   0  0  0  0  0  0  0  0  0  0  0  0
   23.1417   -6.2199  -18.8351 C   0  0  0  0  0  0  0  0  0  0  0  0
   24.0078   -5.9836  -19.6947 O   0  0  0  0  0  0  0  0  0  0  0  0
   20.9916   -8.9378  -15.7590 C   0  0  0  0  0  0  0  0  0  0  0  0
   20.0350   -9.0075  -16.5689 O   0  0  0  0  0  0  0  0  0  0  0  0
   22.4197   -5.1227  -18.3252 O   0  0  0  0  0  0  0  0  0  0  0  0
   19.3331   -8.9381  -12.4183 C   0  0  0  0  0  0  0  0  0  0  0  0
   19.3722   -8.8276  -13.9135 C   0  0  2  0  0  0  0  0  0  0  0  0
   20.7428   -8.8422  -14.3773 N   0  0  0  0  0  0  0  0  0  0  0  0
   18.7519   -7.5293  -14.3345 C   0  0  0  0  0  0  0  0  0  0  0  0
   19.4518   -6.4834  -14.4595 O   0  0  0  0  0  0  0  0  0  0  0  0
   17.3749   -7.4378  -14.6019 N   0  0  0  0  0  0  0  0  0  0  0  0
   16.7732   -6.2029  -15.0386 C   0  0  1  0  0  0  0  0  0  0  0  0
   15.5915   -6.4584  -15.9470 C   0  0  0  0  0  0  0  0  0  0  0  0
   15.0226   -5.1737  -16.5187 C   0  0  0  0  0  0  0  0  0  0  0  0
   13.9429   -5.5112  -17.4643 C   0  0  0  0  0  0  0  0  0  0  0  0
   13.6440   -6.7044  -17.6774 O   0  0  0  0  0  0  0  0  0  0  0  0
   16.2582   -5.4395  -13.8675 C   0  0  0  0  0  0  0  0  0  0  0  0
   16.1110   -6.0056  -12.6176 O   0  0  0  0  0  0  0  0  0  0  0  0
   13.2674   -4.4954  -18.1106 O   0  0  0  0  0  0  0  0  0  0  0  0
   15.9490   -4.2475  -14.0198 O   0  0  0  0  0  0  0  0  0  0  0  0
  2  1  1  6
  2  7  1  0
  3  2  1  0
  4  3  1  0
  4  5  1  0
  5  6  2  0
  7 12  1  0
  8  7  2  0
  9  5  1  0
 11 10  1  1
 11 13  1  0
 12 11  1  0
 13 14  2  0
 13 15  1  0
 15 16  1  0
 16 17  1  6
 16 21  1  0
 18 17  1  0
 19 18  1  0
 20 19  2  0
 21 22  1  0
 23 19  1  0
 24 21  2  0
M  END
$$$$
