EAE.pdb
     RDKit          3D

 24 23  0  0  1  0  0  0  0  0999 V2000
   19.4932  -11.3590  -18.0367 N   0  0  0  0  0  0  0  0  0  0  0  0
   18.6750  -10.7769  -17.0068 C   0  0  1  0  0  0  0  0  0  0  0  0
   17.8275  -11.8069  -16.3205 C   0  0  0  0  0  0  0  0  0  0  0  0
   18.5197  -13.0687  -15.9592 C   0  0  0  0  0  0  0  0  0  0  0  0
   17.5789  -14.0797  -15.4438 C   0  0  0  0  0  0  0  0  0  0  0  0
   16.3624  -13.8612  -15.3125 O   0  0  0  0  0  0  0  0  0  0  0  0
   19.5530  -10.1003  -15.9953 C   0  0  0  0  0  0  0  0  0  0  0  0
   19.0274   -9.5164  -15.0161 O   0  0  0  0  0  0  0  0  0  0  0  0
   18.0505  -15.3557  -15.0768 O   0  0  0  0  0  0  0  0  0  0  0  0
   23.1859   -9.9158  -15.2427 C   0  0  0  0  0  0  0  0  0  0  0  0
   21.7658   -9.4415  -15.1529 C   0  0  2  0  0  0  0  0  0  0  0  0
   20.9525  -10.1181  -16.1401 N   0  0  0  0  0  0  0  0  0  0  0  0
   21.7121   -7.9700  -15.4345 C   0  0  0  0  0  0  0  0  0  0  0  0
   21.5575   -7.5377  -16.6129 O   0  0  0  0  0  0  0  0  0  0  0  0
   21.8324   -7.0294  -14.3970 N   0  0  0  0  0  0  0  0  0  0  0  0
   21.7483   -5.6130  -14.6512 C   0  0  1  0  0  0  0  0  0  0  0  0
   20.3265   -5.1913  -14.9473 C   0  0  0  0  0  0  0  0  0  0  0  0
   20.1919   -3.6855  -15.0716 C   0  0  0  0  0  0  0  0  0  0  0  0
   18.7712   -3.3508  -15.2801 C   0  0  0  0  0  0  0  0  0  0  0  0
   18.4142   -2.1586  -15.3797 O   0  0  0  0  0  0  0  0  0  0  0  0
   22.1822   -4.8481  -13.4486 C   0  0  0  0  0  0  0  0  0  0  0  0
   22.2632   -5.4181  -12.1945 O   0  0  0  0  0  0  0  0  0  0  0  0
   17.8416   -4.3679  -15.3638 O   0  0  0  0  0  0  0  0  0  0  0  0
   22.4830   -3.6512  -13.5778 O   0  0  0  0  0  0  0  0  0  0  0  0
  2  1  1  6
  2  7  1  0
  3  2  1  0
  4  3  1  0
  4  5  1  0
  5  6  2  0
  7 12  1  0
  8  7  2  0
  9  5  1  0
 11 10  1  6
 11 13  1  0
 12 11  1  0
 13 14  2  0
 13 15  1  0
 15 16  1  0
 16 17  1  1
 16 21  1  0
 18 17  1  0
 19 18  1  0
 20 19  2  0
 21 22  1  0
 23 19  1  0
 24 21  2  0
M  END
$$$$
