YWW.pdb
     RDKit          3D

 41 45  0  0  1  0  0  0  0  0999 V2000
   14.9228  -20.3978   17.2408 O   0  0  0  0  0  0  0  0  0  0  0  0
   13.7793  -19.9192   17.8315 C   0  0  0  0  0  0  0  0  0  0  0  0
   13.0003  -20.7522   18.6120 C   0  0  0  0  0  0  0  0  0  0  0  0
   11.8627  -20.2504   19.1916 C   0  0  0  0  0  0  0  0  0  0  0  0
   11.4972  -18.9441   19.0043 C   0  0  0  0  0  0  0  0  0  0  0  0
   10.2793  -18.4297   19.6329 C   0  0  0  0  0  0  0  0  0  0  0  0
    9.5768  -19.6092   20.3201 C   0  0  2  0  0  0  0  0  0  0  0  0
    8.4029  -19.9599   19.5680 N   0  0  0  0  0  0  0  0  0  0  0  0
    9.2140  -19.1681   21.6682 C   0  0  0  0  0  0  0  0  0  0  0  0
    8.2353  -18.3609   21.7962 O   0  0  0  0  0  0  0  0  0  0  0  0
   12.2664  -18.1121   18.2301 C   0  0  0  0  0  0  0  0  0  0  0  0
   13.4118  -18.6173   17.6469 C   0  0  0  0  0  0  0  0  0  0  0  0
    9.8547  -19.5558   22.8600 N   0  0  0  0  0  0  0  0  0  0  0  0
    9.4517  -18.9862   24.1194 C   0  0  1  0  0  0  0  0  0  0  0  0
    9.8030  -19.7552   25.3326 C   0  0  0  0  0  0  0  0  0  0  0  0
    9.3894  -19.2086   26.6246 C   0  0  0  0  0  0  0  0  0  0  0  0
    8.1524  -19.2626   27.2229 C   0  0  0  0  0  0  0  0  0  0  0  0
    8.2807  -18.6063   28.3937 N   0  0  0  0  0  0  0  0  0  0  0  0
    9.5291  -18.1412   28.5672 C   0  0  0  0  0  0  0  0  0  0  0  0
   10.1697  -17.4200   29.5638 C   0  0  0  0  0  0  0  0  0  0  0  0
   11.4926  -17.0659   29.4787 C   0  0  0  0  0  0  0  0  0  0  0  0
   12.2112  -17.4417   28.3602 C   0  0  0  0  0  0  0  0  0  0  0  0
   11.5947  -18.1569   27.3614 C   0  0  0  0  0  0  0  0  0  0  0  0
   10.2643  -18.5006   27.4700 C   0  0  0  0  0  0  0  0  0  0  0  0
   10.1453  -17.6558   24.2426 C   0  0  0  0  0  0  0  0  0  0  0  0
   10.9612  -17.3258   23.3587 O   0  0  0  0  0  0  0  0  0  0  0  0
    9.9118  -16.7772   25.3048 N   0  0  0  0  0  0  0  0  0  0  0  0
    9.5227  -15.3619   25.1042 C   0  0  1  0  0  0  0  0  0  0  0  0
    8.2488  -15.4409   24.3202 C   0  0  0  0  0  0  0  0  0  0  0  0
    7.6539  -14.1373   24.0070 C   0  0  0  0  0  0  0  0  0  0  0  0
    7.6129  -13.5640   22.7306 C   0  0  0  0  0  0  0  0  0  0  0  0
    7.0274  -12.3780   22.8785 N   0  0  0  0  0  0  0  0  0  0  0  0
    6.6927  -12.1567   24.1557 C   0  0  0  0  0  0  0  0  0  0  0  0
    6.0686  -11.1350   24.8438 C   0  0  0  0  0  0  0  0  0  0  0  0
    5.8190  -11.1582   26.1814 C   0  0  0  0  0  0  0  0  0  0  0  0
    6.2146  -12.2775   26.9068 C   0  0  0  0  0  0  0  0  0  0  0  0
    6.8404  -13.3173   26.2609 C   0  0  0  0  0  0  0  0  0  0  0  0
    7.0807  -13.2676   24.9096 C   0  0  0  0  0  0  0  0  0  0  0  0
    9.3965  -14.6908   26.3939 C   0  0  0  0  0  0  0  0  0  0  0  0
   10.0588  -13.5025   26.7273 O   0  0  0  0  0  0  0  0  0  0  0  0
    8.6421  -15.2071   27.2941 O   0  0  0  0  0  0  0  0  0  0  0  0
  2  1  1  0
  3  2  2  0
  4  3  1  0
  5  4  2  0
  5 11  1  0
  6  5  1  0
  7  6  1  0
  7  9  1  0
  7  8  1  6
  9 10  2  0
 11 12  2  0
 12  2  1  0
 13  9  1  0
 13 14  1  0
 14 25  1  0
 14 15  1  1
 16 15  1  0
 17 16  2  0
 18 17  1  0
 19 18  1  0
 19 24  2  0
 20 19  1  0
 21 20  2  0
 21 22  1  0
 22 23  2  0
 23 24  1  0
 24 16  1  0
 25 26  2  0
 27 25  1  0
 27 28  1  0
 28 29  1  1
 28 39  1  0
 30 29  1  0
 31 30  2  0
 32 31  1  0
 33 32  1  0
 33 38  2  0
 34 35  2  0
 34 33  1  0
 35 36  1  0
 36 37  2  0
 38 37  1  0
 38 30  1  0
 39 41  2  0
 39 40  1  0
M  END
$$$$
