YWW.pdb
     RDKit          3D

 41 45  0  0  1  0  0  0  0  0999 V2000
    6.4554  -21.7994   14.6972 O   0  0  0  0  0  0  0  0  0  0  0  0
    6.9907  -21.1522   15.7834 C   0  0  0  0  0  0  0  0  0  0  0  0
    6.2212  -20.9348   16.9105 C   0  0  0  0  0  0  0  0  0  0  0  0
    6.7788  -20.2861   17.9830 C   0  0  0  0  0  0  0  0  0  0  0  0
    8.0786  -19.8567   17.9450 C   0  0  0  0  0  0  0  0  0  0  0  0
    8.6533  -19.1670   19.1014 C   0  0  0  0  0  0  0  0  0  0  0  0
    8.1465  -17.7180   19.0778 C   0  0  2  0  0  0  0  0  0  0  0  0
    8.3957  -17.1541   17.7791 N   0  0  0  0  0  0  0  0  0  0  0  0
    8.8850  -16.9868   20.1089 C   0  0  0  0  0  0  0  0  0  0  0  0
   10.0567  -16.5681   19.8299 O   0  0  0  0  0  0  0  0  0  0  0  0
    8.8478  -20.0693   16.8286 C   0  0  0  0  0  0  0  0  0  0  0  0
    8.2863  -20.7226   15.7491 C   0  0  0  0  0  0  0  0  0  0  0  0
    8.4176  -16.6963   21.4044 N   0  0  0  0  0  0  0  0  0  0  0  0
    9.2628  -16.0055   22.3433 C   0  0  1  0  0  0  0  0  0  0  0  0
    8.7456  -14.7279   22.8790 C   0  0  0  0  0  0  0  0  0  0  0  0
    7.8146  -14.7929   24.0050 C   0  0  0  0  0  0  0  0  0  0  0  0
    7.2250  -15.9002   24.5683 C   0  0  0  0  0  0  0  0  0  0  0  0
    6.4458  -15.4354   25.5656 N   0  0  0  0  0  0  0  0  0  0  0  0
    6.5106  -14.0969   25.6627 C   0  0  0  0  0  0  0  0  0  0  0  0
    5.9220  -13.1510   26.4888 C   0  0  0  0  0  0  0  0  0  0  0  0
    6.1711  -11.8078   26.3607 C   0  0  0  0  0  0  0  0  0  0  0  0
    7.0394  -11.3835   25.3733 C   0  0  0  0  0  0  0  0  0  0  0  0
    7.6329  -12.3052   24.5443 C   0  0  0  0  0  0  0  0  0  0  0  0
    7.3665  -13.6493   24.6929 C   0  0  0  0  0  0  0  0  0  0  0  0
    9.4467  -16.9197   23.5251 C   0  0  0  0  0  0  0  0  0  0  0  0
    8.4589  -17.1674   24.2454 O   0  0  0  0  0  0  0  0  0  0  0  0
   10.6768  -17.5012   23.8465 N   0  0  0  0  0  0  0  0  0  0  0  0
   11.4284  -17.1599   25.0767 C   0  0  1  0  0  0  0  0  0  0  0  0
   10.5193  -17.5832   26.1893 C   0  0  0  0  0  0  0  0  0  0  0  0
   10.8641  -17.0145   27.4966 C   0  0  0  0  0  0  0  0  0  0  0  0
   11.2076  -17.7636   28.6282 C   0  0  0  0  0  0  0  0  0  0  0  0
   11.4124  -16.8827   29.6045 N   0  0  0  0  0  0  0  0  0  0  0  0
   11.2250  -15.6286   29.1753 C   0  0  0  0  0  0  0  0  0  0  0  0
   11.3171  -14.3731   29.7427 C   0  0  0  0  0  0  0  0  0  0  0  0
   11.0884  -13.2133   29.0685 C   0  0  0  0  0  0  0  0  0  0  0  0
   10.7397  -13.2899   27.7239 C   0  0  0  0  0  0  0  0  0  0  0  0
   10.6358  -14.5204   27.1197 C   0  0  0  0  0  0  0  0  0  0  0  0
   10.8714  -15.6757   27.8241 C   0  0  0  0  0  0  0  0  0  0  0  0
   12.7259  -17.8277   25.0709 C   0  0  0  0  0  0  0  0  0  0  0  0
   12.8930  -19.2150   24.9752 O   0  0  0  0  0  0  0  0  0  0  0  0
   13.7918  -17.1198   25.1639 O   0  0  0  0  0  0  0  0  0  0  0  0
  2  1  1  0
  3  2  2  0
  4  3  1  0
  5  4  2  0
  5 11  1  0
  6  5  1  0
  7  6  1  0
  7  9  1  0
  7  8  1  6
  9 10  2  0
 11 12  2  0
 12  2  1  0
 13  9  1  0
 13 14  1  0
 14 25  1  0
 14 15  1  1
 16 15  1  0
 17 16  2  0
 18 17  1  0
 19 18  1  0
 19 24  2  0
 20 19  1  0
 21 20  2  0
 21 22  1  0
 22 23  2  0
 23 24  1  0
 24 16  1  0
 25 26  2  0
 27 25  1  0
 27 28  1  0
 28 29  1  1
 28 39  1  0
 30 29  1  0
 31 30  2  0
 32 31  1  0
 33 32  1  0
 33 38  2  0
 34 35  2  0
 34 33  1  0
 35 36  1  0
 36 37  2  0
 38 37  1  0
 38 30  1  0
 39 41  2  0
 39 40  1  0
M  END
$$$$
