YWW.pdb
     RDKit          3D

 41 45  0  0  1  0  0  0  0  0999 V2000
   13.6557  -19.8678   14.1415 O   0  0  0  0  0  0  0  0  0  0  0  0
   13.1510  -19.1705   15.2113 C   0  0  0  0  0  0  0  0  0  0  0  0
   13.2186  -19.7063   16.4834 C   0  0  0  0  0  0  0  0  0  0  0  0
   12.7076  -18.9901   17.5359 C   0  0  0  0  0  0  0  0  0  0  0  0
   12.1368  -17.7613   17.3373 C   0  0  0  0  0  0  0  0  0  0  0  0
   11.5983  -17.0143   18.4753 C   0  0  0  0  0  0  0  0  0  0  0  0
   10.1992  -17.5700   18.7763 C   0  0  2  0  0  0  0  0  0  0  0  0
    9.3141  -17.2241   17.6975 N   0  0  0  0  0  0  0  0  0  0  0  0
    9.7524  -16.9564   20.0282 C   0  0  0  0  0  0  0  0  0  0  0  0
    9.0251  -15.9111   19.9622 O   0  0  0  0  0  0  0  0  0  0  0  0
   12.0664  -17.2240   16.0764 C   0  0  0  0  0  0  0  0  0  0  0  0
   12.5811  -17.9451   15.0170 C   0  0  0  0  0  0  0  0  0  0  0  0
   10.0548  -17.4175   21.3232 N   0  0  0  0  0  0  0  0  0  0  0  0
    9.4616  -16.7890   22.4747 C   0  0  1  0  0  0  0  0  0  0  0  0
    7.9842  -16.7913   22.5385 C   0  0  0  0  0  0  0  0  0  0  0  0
    7.3580  -16.2842   23.7589 C   0  0  0  0  0  0  0  0  0  0  0  0
    6.8498  -16.9939   24.8215 C   0  0  0  0  0  0  0  0  0  0  0  0
    6.3756  -16.0741   25.6857 N   0  0  0  0  0  0  0  0  0  0  0  0
    6.5559  -14.8241   25.2277 C   0  0  0  0  0  0  0  0  0  0  0  0
    6.2573  -13.5581   25.7093 C   0  0  0  0  0  0  0  0  0  0  0  0
    6.5605  -12.4167   25.0109 C   0  0  0  0  0  0  0  0  0  0  0  0
    7.1855  -12.5336   23.7842 C   0  0  0  0  0  0  0  0  0  0  0  0
    7.4898  -13.7793   23.2894 C   0  0  0  0  0  0  0  0  0  0  0  0
    7.1749  -14.9112   24.0101 C   0  0  0  0  0  0  0  0  0  0  0  0
    9.9414  -17.5452   23.6848 C   0  0  0  0  0  0  0  0  0  0  0  0
    9.8854  -18.7912   23.6688 O   0  0  0  0  0  0  0  0  0  0  0  0
   10.4466  -16.9087   24.8224 N   0  0  0  0  0  0  0  0  0  0  0  0
   11.8021  -17.1776   25.3566 C   0  0  1  0  0  0  0  0  0  0  0  0
   12.1582  -15.9248   26.0963 C   0  0  0  0  0  0  0  0  0  0  0  0
   11.2498  -15.6004   27.2013 C   0  0  0  0  0  0  0  0  0  0  0  0
   10.8473  -16.5005   28.1950 C   0  0  0  0  0  0  0  0  0  0  0  0
   10.0056  -15.8310   28.9789 N   0  0  0  0  0  0  0  0  0  0  0  0
    9.8447  -14.5711   28.5559 C   0  0  0  0  0  0  0  0  0  0  0  0
    9.1255  -13.4747   28.9891 C   0  0  0  0  0  0  0  0  0  0  0  0
    9.1459  -12.2595   28.3770 C   0  0  0  0  0  0  0  0  0  0  0  0
    9.9382  -12.1050   27.2438 C   0  0  0  0  0  0  0  0  0  0  0  0
   10.6698  -13.1716   26.7779 C   0  0  0  0  0  0  0  0  0  0  0  0
   10.6303  -14.3879   27.4148 C   0  0  0  0  0  0  0  0  0  0  0  0
   11.7840  -18.3810   26.1820 C   0  0  0  0  0  0  0  0  0  0  0  0
   12.9317  -19.0894   26.5600 O   0  0  0  0  0  0  0  0  0  0  0  0
   10.6580  -18.8385   26.5926 O   0  0  0  0  0  0  0  0  0  0  0  0
  2  1  1  0
  3  2  2  0
  4  3  1  0
  5  4  2  0
  5 11  1  0
  6  5  1  0
  7  6  1  0
  7  9  1  0
  7  8  1  6
  9 10  2  0
 11 12  2  0
 12  2  1  0
 13  9  1  0
 13 14  1  0
 14 25  1  0
 14 15  1  6
 16 15  1  0
 17 16  2  0
 18 17  1  0
 19 18  1  0
 19 24  2  0
 20 19  1  0
 21 20  2  0
 21 22  1  0
 22 23  2  0
 23 24  1  0
 24 16  1  0
 25 26  2  0
 27 25  1  0
 27 28  1  0
 28 29  1  1
 28 39  1  0
 30 29  1  0
 31 30  2  0
 32 31  1  0
 33 32  1  0
 33 38  2  0
 34 35  2  0
 34 33  1  0
 35 36  1  0
 36 37  2  0
 38 37  1  0
 38 30  1  0
 39 41  2  0
 39 40  1  0
M  END
$$$$
