YWW.pdb
     RDKit          3D

 41 45  0  0  1  0  0  0  0  0999 V2000
   11.2092  -11.9516   19.1100 O   0  0  0  0  0  0  0  0  0  0  0  0
   10.1076  -12.6855   19.4753 C   0  0  0  0  0  0  0  0  0  0  0  0
   10.2438  -13.7634   20.3293 C   0  0  0  0  0  0  0  0  0  0  0  0
    9.1282  -14.4808   20.6797 C   0  0  0  0  0  0  0  0  0  0  0  0
    7.8939  -14.1402   20.1945 C   0  0  0  0  0  0  0  0  0  0  0  0
    6.7168  -14.9196   20.5822 C   0  0  0  0  0  0  0  0  0  0  0  0
    7.1908  -16.3394   20.9233 C   0  0  2  0  0  0  0  0  0  0  0  0
    6.2290  -17.2871   20.4300 N   0  0  0  0  0  0  0  0  0  0  0  0
    7.2945  -16.4199   22.3814 C   0  0  0  0  0  0  0  0  0  0  0  0
    6.3586  -15.9111   23.0822 O   0  0  0  0  0  0  0  0  0  0  0  0
    7.7522  -13.0710   19.3459 C   0  0  0  0  0  0  0  0  0  0  0  0
    8.8753  -12.3488   18.9934 C   0  0  0  0  0  0  0  0  0  0  0  0
    8.3490  -17.0156   23.0987 N   0  0  0  0  0  0  0  0  0  0  0  0
    9.2873  -16.1982   23.8229 C   0  0  1  0  0  0  0  0  0  0  0  0
    8.8572  -14.8176   24.1317 C   0  0  0  0  0  0  0  0  0  0  0  0
    7.7399  -14.6478   25.0601 C   0  0  0  0  0  0  0  0  0  0  0  0
    6.7520  -15.5465   25.3875 C   0  0  0  0  0  0  0  0  0  0  0  0
    5.9572  -14.9135   26.2737 N   0  0  0  0  0  0  0  0  0  0  0  0
    6.3883  -13.6658   26.5233 C   0  0  0  0  0  0  0  0  0  0  0  0
    5.9465  -12.6257   27.3276 C   0  0  0  0  0  0  0  0  0  0  0  0
    6.5968  -11.4191   27.3903 C   0  0  0  0  0  0  0  0  0  0  0  0
    7.7321  -11.2348   26.6247 C   0  0  0  0  0  0  0  0  0  0  0  0
    8.1861  -12.2532   25.8211 C   0  0  0  0  0  0  0  0  0  0  0  0
    7.5152  -13.4563   25.7752 C   0  0  0  0  0  0  0  0  0  0  0  0
    9.5307  -16.8746   25.1457 C   0  0  0  0  0  0  0  0  0  0  0  0
    8.6473  -17.6293   25.5996 O   0  0  0  0  0  0  0  0  0  0  0  0
   10.7041  -16.6918   25.8834 N   0  0  0  0  0  0  0  0  0  0  0  0
   11.0628  -17.5409   27.0432 C   0  0  1  0  0  0  0  0  0  0  0  0
   12.3875  -18.1308   26.6681 C   0  0  0  0  0  0  0  0  0  0  0  0
   12.3213  -19.1154   25.5828 C   0  0  0  0  0  0  0  0  0  0  0  0
   12.8902  -18.9461   24.3150 C   0  0  0  0  0  0  0  0  0  0  0  0
   12.5790  -20.0395   23.6231 N   0  0  0  0  0  0  0  0  0  0  0  0
   11.8547  -20.8913   24.3593 C   0  0  0  0  0  0  0  0  0  0  0  0
   11.2988  -22.1386   24.1539 C   0  0  0  0  0  0  0  0  0  0  0  0
   10.6017  -22.8273   25.0982 C   0  0  0  0  0  0  0  0  0  0  0  0
   10.4348  -22.2445   26.3504 C   0  0  0  0  0  0  0  0  0  0  0  0
   10.9713  -21.0030   26.5971 C   0  0  0  0  0  0  0  0  0  0  0  0
   11.6701  -20.3293   25.6254 C   0  0  0  0  0  0  0  0  0  0  0  0
   11.0831  -16.7389   28.2622 C   0  0  0  0  0  0  0  0  0  0  0  0
   11.1542  -17.2771   29.5534 O   0  0  0  0  0  0  0  0  0  0  0  0
   11.0275  -15.4606   28.1684 O   0  0  0  0  0  0  0  0  0  0  0  0
  2  1  1  0
  3  2  2  0
  4  3  1  0
  5  4  2  0
  5 11  1  0
  6  5  1  0
  7  6  1  0
  7  9  1  0
  7  8  1  1
  9 10  2  0
 11 12  2  0
 12  2  1  0
 13  9  1  0
 13 14  1  0
 14 25  1  0
 14 15  1  1
 16 15  1  0
 17 16  2  0
 18 17  1  0
 19 18  1  0
 19 24  2  0
 20 19  1  0
 21 20  2  0
 21 22  1  0
 22 23  2  0
 23 24  1  0
 24 16  1  0
 25 26  2  0
 27 25  1  0
 27 28  1  0
 28 29  1  6
 28 39  1  0
 30 29  1  0
 31 30  2  0
 32 31  1  0
 33 32  1  0
 33 38  2  0
 34 35  2  0
 34 33  1  0
 35 36  1  0
 36 37  2  0
 38 37  1  0
 38 30  1  0
 39 41  2  0
 39 40  1  0
M  END
$$$$
