YWW.pdb
     RDKit          3D

 41 45  0  0  1  0  0  0  0  0999 V2000
   11.9474  -22.3046   15.8679 O   0  0  0  0  0  0  0  0  0  0  0  0
   11.6447  -21.1785   16.5930 C   0  0  0  0  0  0  0  0  0  0  0  0
   11.1960  -20.0396   15.9515 C   0  0  0  0  0  0  0  0  0  0  0  0
   10.9000  -18.9274   16.6981 C   0  0  0  0  0  0  0  0  0  0  0  0
   11.0445  -18.9374   18.0597 C   0  0  0  0  0  0  0  0  0  0  0  0
   10.7222  -17.7391   18.8366 C   0  0  0  0  0  0  0  0  0  0  0  0
   10.8249  -18.1073   20.3235 C   0  0  2  0  0  0  0  0  0  0  0  0
    9.8430  -19.1123   20.6277 N   0  0  0  0  0  0  0  0  0  0  0  0
   10.5679  -16.8856   21.0882 C   0  0  0  0  0  0  0  0  0  0  0  0
   11.3444  -15.8895   20.9135 O   0  0  0  0  0  0  0  0  0  0  0  0
   11.4899  -20.0651   18.7025 C   0  0  0  0  0  0  0  0  0  0  0  0
   11.7877  -21.1848   17.9509 C   0  0  0  0  0  0  0  0  0  0  0  0
    9.5263  -16.7013   22.0168 N   0  0  0  0  0  0  0  0  0  0  0  0
    9.2989  -15.4071   22.6055 C   0  0  1  0  0  0  0  0  0  0  0  0
    7.9105  -14.9000   22.5654 C   0  0  0  0  0  0  0  0  0  0  0  0
    7.2900  -14.7271   21.2523 C   0  0  0  0  0  0  0  0  0  0  0  0
    6.2709  -15.4535   20.6824 C   0  0  0  0  0  0  0  0  0  0  0  0
    6.0691  -14.9119   19.4643 N   0  0  0  0  0  0  0  0  0  0  0  0
    6.9040  -13.8848   19.2339 C   0  0  0  0  0  0  0  0  0  0  0  0
    7.1084  -13.0154   18.1727 C   0  0  0  0  0  0  0  0  0  0  0  0
    8.0622  -12.0295   18.2047 C   0  0  0  0  0  0  0  0  0  0  0  0
    8.8464  -11.8992   19.3347 C   0  0  0  0  0  0  0  0  0  0  0  0
    8.6595  -12.7509   20.3971 C   0  0  0  0  0  0  0  0  0  0  0  0
    7.6947  -13.7336   20.3409 C   0  0  0  0  0  0  0  0  0  0  0  0
    9.6717  -15.5138   24.0601 C   0  0  0  0  0  0  0  0  0  0  0  0
    9.8778  -14.4632   24.7002 O   0  0  0  0  0  0  0  0  0  0  0  0
    9.7950  -16.7397   24.7208 N   0  0  0  0  0  0  0  0  0  0  0  0
   10.1722  -16.8465   26.1495 C   0  0  1  0  0  0  0  0  0  0  0  0
    8.8751  -17.1092   26.8509 C   0  0  0  0  0  0  0  0  0  0  0  0
    7.8532  -16.0804   26.6299 C   0  0  0  0  0  0  0  0  0  0  0  0
    6.5845  -16.3183   26.0881 C   0  0  0  0  0  0  0  0  0  0  0  0
    5.9841  -15.1324   26.0229 N   0  0  0  0  0  0  0  0  0  0  0  0
    6.7785  -14.1589   26.4846 C   0  0  0  0  0  0  0  0  0  0  0  0
    6.6596  -12.7939   26.6566 C   0  0  0  0  0  0  0  0  0  0  0  0
    7.6351  -12.0040   27.1823 C   0  0  0  0  0  0  0  0  0  0  0  0
    8.8290  -12.6022   27.5727 C   0  0  0  0  0  0  0  0  0  0  0  0
    8.9897  -13.9587   27.4180 C   0  0  0  0  0  0  0  0  0  0  0  0
    7.9886  -14.7326   26.8837 C   0  0  0  0  0  0  0  0  0  0  0  0
   11.1751  -17.8920   26.3245 C   0  0  0  0  0  0  0  0  0  0  0  0
   11.8094  -18.1740   27.5411 O   0  0  0  0  0  0  0  0  0  0  0  0
   11.5157  -18.6048   25.3136 O   0  0  0  0  0  0  0  0  0  0  0  0
  2  1  1  0
  3  2  2  0
  4  3  1  0
  5  4  2  0
  5 11  1  0
  6  5  1  0
  7  6  1  0
  7  9  1  0
  7  8  1  1
  9 10  2  0
 11 12  2  0
 12  2  1  0
 13  9  1  0
 13 14  1  0
 14 25  1  0
 14 15  1  1
 16 15  1  0
 17 16  2  0
 18 17  1  0
 19 18  1  0
 19 24  2  0
 20 19  1  0
 21 20  2  0
 21 22  1  0
 22 23  2  0
 23 24  1  0
 24 16  1  0
 25 26  2  0
 27 25  1  0
 27 28  1  0
 28 29  1  1
 28 39  1  0
 30 29  1  0
 31 30  2  0
 32 31  1  0
 33 32  1  0
 33 38  2  0
 34 35  2  0
 34 33  1  0
 35 36  1  0
 36 37  2  0
 38 37  1  0
 38 30  1  0
 39 41  2  0
 39 40  1  0
M  END
$$$$
