YWW.pdb
     RDKit          3D

 41 45  0  0  1  0  0  0  0  0999 V2000
   12.9189  -23.9311   19.2043 O   0  0  0  0  0  0  0  0  0  0  0  0
   12.7373  -22.6570   19.6831 C   0  0  0  0  0  0  0  0  0  0  0  0
   12.8602  -21.5727   18.8351 C   0  0  0  0  0  0  0  0  0  0  0  0
   12.6738  -20.3098   19.3373 C   0  0  0  0  0  0  0  0  0  0  0  0
   12.3703  -20.1178   20.6586 C   0  0  0  0  0  0  0  0  0  0  0  0
   12.1751  -18.7611   21.1729 C   0  0  0  0  0  0  0  0  0  0  0  0
   10.6798  -18.4320   21.0610 C   0  0  2  0  0  0  0  0  0  0  0  0
   10.3015  -18.4301   19.6741 N   0  0  0  0  0  0  0  0  0  0  0  0
   10.4853  -17.1064   21.6514 C   0  0  0  0  0  0  0  0  0  0  0  0
   11.1145  -16.1209   21.1427 O   0  0  0  0  0  0  0  0  0  0  0  0
   12.2472  -21.1904   21.5058 C   0  0  0  0  0  0  0  0  0  0  0  0
   12.4346  -22.4617   21.0001 C   0  0  0  0  0  0  0  0  0  0  0  0
    9.6553  -16.8091   22.7486 N   0  0  0  0  0  0  0  0  0  0  0  0
    9.4914  -15.4476   23.1872 C   0  0  1  0  0  0  0  0  0  0  0  0
    8.1288  -14.8823   23.0853 C   0  0  0  0  0  0  0  0  0  0  0  0
    7.4824  -14.9044   21.7736 C   0  0  0  0  0  0  0  0  0  0  0  0
    6.5542  -15.7959   21.2892 C   0  0  0  0  0  0  0  0  0  0  0  0
    6.2796  -15.3948   20.0316 N   0  0  0  0  0  0  0  0  0  0  0  0
    6.9829  -14.3004   19.6956 C   0  0  0  0  0  0  0  0  0  0  0  0
    7.0730  -13.5125   18.5577 C   0  0  0  0  0  0  0  0  0  0  0  0
    7.9011  -12.4208   18.4846 C   0  0  0  0  0  0  0  0  0  0  0  0
    8.6721  -12.0959   19.5841 C   0  0  0  0  0  0  0  0  0  0  0  0
    8.5972  -12.8642   20.7213 C   0  0  0  0  0  0  0  0  0  0  0  0
    7.7576  -13.9562   20.7702 C   0  0  0  0  0  0  0  0  0  0  0  0
    9.8613  -15.4077   24.6459 C   0  0  0  0  0  0  0  0  0  0  0  0
   10.1509  -14.3071   25.1565 O   0  0  0  0  0  0  0  0  0  0  0  0
    9.8925  -16.5514   25.4492 N   0  0  0  0  0  0  0  0  0  0  0  0
   10.2884  -16.5186   26.8765 C   0  0  1  0  0  0  0  0  0  0  0  0
    8.9869  -16.5508   27.6172 C   0  0  0  0  0  0  0  0  0  0  0  0
    7.9420  -15.7029   27.0335 C   0  0  0  0  0  0  0  0  0  0  0  0
    6.8194  -16.1783   26.3454 C   0  0  0  0  0  0  0  0  0  0  0  0
    6.1454  -15.1004   25.9518 N   0  0  0  0  0  0  0  0  0  0  0  0
    6.7575  -13.9751   26.3405 C   0  0  0  0  0  0  0  0  0  0  0  0
    6.4964  -12.6243   26.2213 C   0  0  0  0  0  0  0  0  0  0  0  0
    7.2892  -11.6463   26.7378 C   0  0  0  0  0  0  0  0  0  0  0  0
    8.4357  -12.0235   27.4299 C   0  0  0  0  0  0  0  0  0  0  0  0
    8.7338  -13.3581   27.5711 C   0  0  0  0  0  0  0  0  0  0  0  0
    7.9162  -14.3250   27.0390 C   0  0  0  0  0  0  0  0  0  0  0  0
   11.1794  -17.6354   27.1737 C   0  0  0  0  0  0  0  0  0  0  0  0
   11.5588  -18.6059   26.2376 O   0  0  0  0  0  0  0  0  0  0  0  0
   11.6509  -17.7581   28.3605 O   0  0  0  0  0  0  0  0  0  0  0  0
  2  1  1  0
  3  2  2  0
  4  3  1  0
  5  4  2  0
  5 11  1  0
  6  5  1  0
  7  6  1  0
  7  9  1  0
  7  8  1  6
  9 10  2  0
 11 12  2  0
 12  2  1  0
 13  9  1  0
 13 14  1  0
 14 25  1  0
 14 15  1  1
 16 15  1  0
 17 16  2  0
 18 17  1  0
 19 18  1  0
 19 24  2  0
 20 19  1  0
 21 20  2  0
 21 22  1  0
 22 23  2  0
 23 24  1  0
 24 16  1  0
 25 26  2  0
 27 25  1  0
 27 28  1  0
 28 29  1  1
 28 39  1  0
 30 29  1  0
 31 30  2  0
 32 31  1  0
 33 32  1  0
 33 38  2  0
 34 35  2  0
 34 33  1  0
 35 36  1  0
 36 37  2  0
 38 37  1  0
 38 30  1  0
 39 41  2  0
 39 40  1  0
M  END
$$$$
