YWW.pdb
     RDKit          3D

 41 45  0  0  1  0  0  0  0  0999 V2000
    6.8644  -14.2460   14.0043 O   0  0  0  0  0  0  0  0  0  0  0  0
    7.0759  -14.1862   15.3596 C   0  0  0  0  0  0  0  0  0  0  0  0
    8.1160  -13.4310   15.8672 C   0  0  0  0  0  0  0  0  0  0  0  0
    8.3066  -13.3870   17.2251 C   0  0  0  0  0  0  0  0  0  0  0  0
    7.4826  -14.0789   18.0721 C   0  0  0  0  0  0  0  0  0  0  0  0
    7.7042  -14.0171   19.5179 C   0  0  0  0  0  0  0  0  0  0  0  0
    9.0485  -14.6979   19.8118 C   0  0  2  0  0  0  0  0  0  0  0  0
    9.0291  -16.0296   19.2706 N   0  0  0  0  0  0  0  0  0  0  0  0
    9.2037  -14.7339   21.2671 C   0  0  0  0  0  0  0  0  0  0  0  0
    9.2190  -13.6271   21.9001 O   0  0  0  0  0  0  0  0  0  0  0  0
    6.4483  -14.8309   17.5742 C   0  0  0  0  0  0  0  0  0  0  0  0
    6.2564  -14.8749   16.2073 C   0  0  0  0  0  0  0  0  0  0  0  0
    9.3415  -15.8952   22.0505 N   0  0  0  0  0  0  0  0  0  0  0  0
    9.4476  -15.7964   23.4830 C   0  0  1  0  0  0  0  0  0  0  0  0
    8.3109  -16.3271   24.2658 C   0  0  0  0  0  0  0  0  0  0  0  0
    7.1691  -15.4406   24.4885 C   0  0  0  0  0  0  0  0  0  0  0  0
    5.8279  -15.7407   24.4431 C   0  0  0  0  0  0  0  0  0  0  0  0
    5.1831  -14.5864   24.7069 N   0  0  0  0  0  0  0  0  0  0  0  0
    6.0424  -13.5750   24.9158 C   0  0  0  0  0  0  0  0  0  0  0  0
    5.9059  -12.2267   25.2111 C   0  0  0  0  0  0  0  0  0  0  0  0
    6.9872  -11.3978   25.3736 C   0  0  0  0  0  0  0  0  0  0  0  0
    8.2566  -11.9260   25.2382 C   0  0  0  0  0  0  0  0  0  0  0  0
    8.4131  -13.2598   24.9457 C   0  0  0  0  0  0  0  0  0  0  0  0
    7.3111  -14.0723   24.7870 C   0  0  0  0  0  0  0  0  0  0  0  0
   10.6560  -16.5962   23.8908 C   0  0  0  0  0  0  0  0  0  0  0  0
   11.0732  -17.4809   23.1167 O   0  0  0  0  0  0  0  0  0  0  0  0
   11.3281  -16.3873   25.0988 N   0  0  0  0  0  0  0  0  0  0  0  0
   12.4367  -17.2549   25.5603 C   0  0  1  0  0  0  0  0  0  0  0  0
   12.8825  -16.6257   26.8444 C   0  0  0  0  0  0  0  0  0  0  0  0
   11.7996  -16.0131   27.6213 C   0  0  0  0  0  0  0  0  0  0  0  0
   10.7193  -15.3130   27.0714 C   0  0  0  0  0  0  0  0  0  0  0  0
    9.9896  -14.8935   28.1023 N   0  0  0  0  0  0  0  0  0  0  0  0
   10.5273  -15.2769   29.2668 C   0  0  0  0  0  0  0  0  0  0  0  0
   10.1889  -15.1348   30.5981 C   0  0  0  0  0  0  0  0  0  0  0  0
   10.9134  -15.6509   31.6279 C   0  0  0  0  0  0  0  0  0  0  0  0
   12.0679  -16.3671   31.3283 C   0  0  0  0  0  0  0  0  0  0  0  0
   12.4419  -16.5316   30.0157 C   0  0  0  0  0  0  0  0  0  0  0  0
   11.6923  -15.9993   28.9953 C   0  0  0  0  0  0  0  0  0  0  0  0
   11.9716  -18.6318   25.6929 C   0  0  0  0  0  0  0  0  0  0  0  0
   12.8173  -19.7277   25.9063 O   0  0  0  0  0  0  0  0  0  0  0  0
   10.7152  -18.8764   25.6060 O   0  0  0  0  0  0  0  0  0  0  0  0
  2  1  1  0
  3  2  2  0
  4  3  1  0
  5  4  2  0
  5 11  1  0
  6  5  1  0
  7  6  1  0
  7  9  1  0
  7  8  1  1
  9 10  2  0
 11 12  2  0
 12  2  1  0
 13  9  1  0
 13 14  1  0
 14 25  1  0
 14 15  1  1
 16 15  1  0
 17 16  2  0
 18 17  1  0
 19 18  1  0
 19 24  2  0
 20 19  1  0
 21 20  2  0
 21 22  1  0
 22 23  2  0
 23 24  1  0
 24 16  1  0
 25 26  2  0
 27 25  1  0
 27 28  1  0
 28 29  1  1
 28 39  1  0
 30 29  1  0
 31 30  2  0
 32 31  1  0
 33 32  1  0
 33 38  2  0
 34 35  2  0
 34 33  1  0
 35 36  1  0
 36 37  2  0
 38 37  1  0
 38 30  1  0
 39 41  2  0
 39 40  1  0
M  END
$$$$
