YWW.pdb
     RDKit          3D

 41 45  0  0  1  0  0  0  0  0999 V2000
    4.5417  -24.3436   27.4361 O   0  0  0  0  0  0  0  0  0  0  0  0
    5.2631  -23.3075   26.8962 C   0  0  0  0  0  0  0  0  0  0  0  0
    4.6120  -22.2020   26.3826 C   0  0  0  0  0  0  0  0  0  0  0  0
    5.3550  -21.1797   25.8488 C   0  0  0  0  0  0  0  0  0  0  0  0
    6.7224  -21.2461   25.8214 C   0  0  0  0  0  0  0  0  0  0  0  0
    7.4952  -20.1432   25.2474 C   0  0  0  0  0  0  0  0  0  0  0  0
    7.0076  -19.9339   23.8067 C   0  0  2  0  0  0  0  0  0  0  0  0
    7.3233  -21.1014   23.0296 N   0  0  0  0  0  0  0  0  0  0  0  0
    7.7066  -18.7595   23.2820 C   0  0  0  0  0  0  0  0  0  0  0  0
    8.7893  -18.9411   22.6334 O   0  0  0  0  0  0  0  0  0  0  0  0
    7.3747  -22.3413   26.3296 C   0  0  0  0  0  0  0  0  0  0  0  0
    6.6267  -23.3703   26.8671 C   0  0  0  0  0  0  0  0  0  0  0  0
    7.2912  -17.4225   23.4280 N   0  0  0  0  0  0  0  0  0  0  0  0
    8.1373  -16.3464   22.9817 C   0  0  1  0  0  0  0  0  0  0  0  0
    7.5365  -14.9953   22.9757 C   0  0  0  0  0  0  0  0  0  0  0  0
    6.8419  -14.5573   24.1860 C   0  0  0  0  0  0  0  0  0  0  0  0
    6.2125  -15.3232   25.1389 C   0  0  0  0  0  0  0  0  0  0  0  0
    5.7201  -14.4536   26.0440 N   0  0  0  0  0  0  0  0  0  0  0  0
    6.0035  -13.1822   25.7152 C   0  0  0  0  0  0  0  0  0  0  0  0
    5.7354  -11.9463   26.2848 C   0  0  0  0  0  0  0  0  0  0  0  0
    6.1547  -10.7698   25.7167 C   0  0  0  0  0  0  0  0  0  0  0  0
    6.8693  -10.8191   24.5353 C   0  0  0  0  0  0  0  0  0  0  0  0
    7.1453  -12.0340   23.9549 C   0  0  0  0  0  0  0  0  0  0  0  0
    6.7131  -13.2023   24.5450 C   0  0  0  0  0  0  0  0  0  0  0  0
    9.3089  -16.2876   23.9252 C   0  0  0  0  0  0  0  0  0  0  0  0
    9.1090  -15.9188   25.0999 O   0  0  0  0  0  0  0  0  0  0  0  0
   10.6082  -16.6295   23.5389 N   0  0  0  0  0  0  0  0  0  0  0  0
   11.8102  -15.9539   24.0809 C   0  0  1  0  0  0  0  0  0  0  0  0
   12.3158  -16.8951   25.1307 C   0  0  0  0  0  0  0  0  0  0  0  0
   11.3566  -17.1671   26.2064 C   0  0  0  0  0  0  0  0  0  0  0  0
   10.6764  -18.3779   26.3829 C   0  0  0  0  0  0  0  0  0  0  0  0
    9.8853  -18.2050   27.4389 N   0  0  0  0  0  0  0  0  0  0  0  0
   10.0140  -16.9730   27.9466 C   0  0  0  0  0  0  0  0  0  0  0  0
    9.4642  -16.2884   29.0125 C   0  0  0  0  0  0  0  0  0  0  0  0
    9.7843  -15.0075   29.3423 C   0  0  0  0  0  0  0  0  0  0  0  0
   10.7227  -14.3403   28.5615 C   0  0  0  0  0  0  0  0  0  0  0  0
   11.2941  -14.9847   27.4900 C   0  0  0  0  0  0  0  0  0  0  0  0
   10.9522  -16.2781   27.1789 C   0  0  0  0  0  0  0  0  0  0  0  0
   12.7589  -15.6836   23.0056 C   0  0  0  0  0  0  0  0  0  0  0  0
   13.9828  -15.0270   23.1868 O   0  0  0  0  0  0  0  0  0  0  0  0
   12.4716  -16.0567   21.8122 O   0  0  0  0  0  0  0  0  0  0  0  0
  2  1  1  0
  3  2  2  0
  4  3  1  0
  5  4  2  0
  5 11  1  0
  6  5  1  0
  7  6  1  0
  7  9  1  0
  7  8  1  6
  9 10  2  0
 11 12  2  0
 12  2  1  0
 13  9  1  0
 13 14  1  0
 14 25  1  0
 14 15  1  1
 16 15  1  0
 17 16  2  0
 18 17  1  0
 19 18  1  0
 19 24  2  0
 20 19  1  0
 21 20  2  0
 21 22  1  0
 22 23  2  0
 23 24  1  0
 24 16  1  0
 25 26  2  0
 27 25  1  0
 27 28  1  0
 28 29  1  1
 28 39  1  0
 30 29  1  0
 31 30  2  0
 32 31  1  0
 33 32  1  0
 33 38  2  0
 34 35  2  0
 34 33  1  0
 35 36  1  0
 36 37  2  0
 38 37  1  0
 38 30  1  0
 39 41  2  0
 39 40  1  0
M  END
$$$$
