YWW.pdb
     RDKit          3D

 41 45  0  0  1  0  0  0  0  0999 V2000
    7.9280  -14.1120   13.4604 O   0  0  0  0  0  0  0  0  0  0  0  0
    8.2075  -14.0468   14.8032 C   0  0  0  0  0  0  0  0  0  0  0  0
    7.3332  -13.4111   15.6641 C   0  0  0  0  0  0  0  0  0  0  0  0
    7.6347  -13.3595   17.0015 C   0  0  0  0  0  0  0  0  0  0  0  0
    8.7835  -13.9272   17.4842 C   0  0  0  0  0  0  0  0  0  0  0  0
    9.0848  -13.8607   18.9153 C   0  0  0  0  0  0  0  0  0  0  0  0
    9.6341  -15.2302   19.3391 C   0  0  2  0  0  0  0  0  0  0  0  0
    8.8656  -16.2631   18.6993 N   0  0  0  0  0  0  0  0  0  0  0  0
    9.5027  -15.3151   20.7947 C   0  0  0  0  0  0  0  0  0  0  0  0
   10.0844  -14.4309   21.5059 O   0  0  0  0  0  0  0  0  0  0  0  0
    9.6558  -14.5597   16.6343 C   0  0  0  0  0  0  0  0  0  0  0  0
    9.3521  -14.6117   15.2881 C   0  0  0  0  0  0  0  0  0  0  0  0
    8.7829  -16.2985   21.4990 N   0  0  0  0  0  0  0  0  0  0  0  0
    8.8199  -16.3345   22.9378 C   0  0  1  0  0  0  0  0  0  0  0  0
    7.7057  -17.0387   23.6080 C   0  0  0  0  0  0  0  0  0  0  0  0
    6.9619  -16.3083   24.6338 C   0  0  0  0  0  0  0  0  0  0  0  0
    6.0632  -16.7964   25.5531 C   0  0  0  0  0  0  0  0  0  0  0  0
    5.6468  -15.7288   26.2637 N   0  0  0  0  0  0  0  0  0  0  0  0
    6.2323  -14.5949   25.8438 C   0  0  0  0  0  0  0  0  0  0  0  0
    6.1551  -13.2622   26.2202 C   0  0  0  0  0  0  0  0  0  0  0  0
    6.8845  -12.2804   25.5982 C   0  0  0  0  0  0  0  0  0  0  0  0
    7.7255  -12.6330   24.5603 C   0  0  0  0  0  0  0  0  0  0  0  0
    7.8161  -13.9484   24.1722 C   0  0  0  0  0  0  0  0  0  0  0  0
    7.0730  -14.9165   24.8127 C   0  0  0  0  0  0  0  0  0  0  0  0
   10.0793  -17.0614   23.3276 C   0  0  0  0  0  0  0  0  0  0  0  0
   10.4700  -18.0026   22.6082 O   0  0  0  0  0  0  0  0  0  0  0  0
   10.8268  -16.7244   24.4599 N   0  0  0  0  0  0  0  0  0  0  0  0
   11.9841  -17.5243   24.9242 C   0  0  1  0  0  0  0  0  0  0  0  0
   12.7085  -16.6082   25.8621 C   0  0  0  0  0  0  0  0  0  0  0  0
   11.9295  -16.2175   27.0419 C   0  0  0  0  0  0  0  0  0  0  0  0
   11.6564  -17.0531   28.1313 C   0  0  0  0  0  0  0  0  0  0  0  0
   10.9021  -16.3387   28.9630 N   0  0  0  0  0  0  0  0  0  0  0  0
   10.6769  -15.1100   28.4817 C   0  0  0  0  0  0  0  0  0  0  0  0
    9.9981  -13.9918   28.9242 C   0  0  0  0  0  0  0  0  0  0  0  0
    9.9317  -12.8189   28.2372 C   0  0  0  0  0  0  0  0  0  0  0  0
   10.5857  -12.7343   27.0122 C   0  0  0  0  0  0  0  0  0  0  0  0
   11.2726  -13.8249   26.5338 C   0  0  0  0  0  0  0  0  0  0  0  0
   11.3229  -14.9972   27.2477 C   0  0  0  0  0  0  0  0  0  0  0  0
   11.5206  -18.7670   25.5328 C   0  0  0  0  0  0  0  0  0  0  0  0
   12.3265  -19.8977   25.7174 O   0  0  0  0  0  0  0  0  0  0  0  0
   10.3020  -18.8526   25.9247 O   0  0  0  0  0  0  0  0  0  0  0  0
  2  1  1  0
  3  2  2  0
  4  3  1  0
  5  4  2  0
  5 11  1  0
  6  5  1  0
  7  6  1  0
  7  9  1  0
  7  8  1  6
  9 10  2  0
 11 12  2  0
 12  2  1  0
 13  9  1  0
 13 14  1  0
 14 25  1  0
 14 15  1  6
 16 15  1  0
 17 16  2  0
 18 17  1  0
 19 18  1  0
 19 24  2  0
 20 19  1  0
 21 20  2  0
 21 22  1  0
 22 23  2  0
 23 24  1  0
 24 16  1  0
 25 26  2  0
 27 25  1  0
 27 28  1  0
 28 29  1  1
 28 39  1  0
 30 29  1  0
 31 30  2  0
 32 31  1  0
 33 32  1  0
 33 38  2  0
 34 35  2  0
 34 33  1  0
 35 36  1  0
 36 37  2  0
 38 37  1  0
 38 30  1  0
 39 41  2  0
 39 40  1  0
M  END
$$$$
