CIC.pdb
     RDKit          3D

 21 20  0  0  1  0  0  0  0  0999 V2000
   24.2982  -12.4557  -18.1481 N   0  0  0  0  0  0  0  0  0  0  0  0
   23.7302  -11.9624  -16.9279 C   0  0  1  0  0  0  0  0  0  0  0  0
   24.7795  -11.6937  -15.8698 C   0  0  0  0  0  0  0  0  0  0  0  0
   25.3735  -13.2609  -15.1865 S   0  0  0  0  0  0  0  0  0  0  0  0
   22.9242  -10.7617  -17.2174 C   0  0  0  0  0  0  0  0  0  0  0  0
   23.3348   -9.9467  -18.1057 O   0  0  0  0  0  0  0  0  0  0  0  0
   18.1727   -8.3753  -18.9655 C   0  0  0  0  0  0  0  0  0  0  0  0
   18.7502   -8.3481  -17.5646 C   0  0  0  0  0  0  0  0  0  0  0  0
   19.5830   -9.5955  -17.4042 C   0  0  2  0  0  0  0  0  0  0  0  0
   18.8953  -10.5129  -16.4392 C   0  0  0  0  0  0  0  0  0  0  0  0
   20.9648   -9.2934  -16.8653 C   0  0  2  0  0  0  0  0  0  0  0  0
   21.7072  -10.4716  -16.5490 N   0  0  0  0  0  0  0  0  0  0  0  0
   20.8944   -8.4578  -15.6343 C   0  0  0  0  0  0  0  0  0  0  0  0
   20.6175   -8.9467  -14.5119 O   0  0  0  0  0  0  0  0  0  0  0  0
   21.1490   -7.0645  -15.7369 N   0  0  0  0  0  0  0  0  0  0  0  0
   21.2042   -6.1702  -14.6132 C   0  0  1  0  0  0  0  0  0  0  0  0
   22.5394   -5.4774  -14.5638 C   0  0  0  0  0  0  0  0  0  0  0  0
   22.6824   -4.3046  -13.2223 S   0  0  0  0  0  0  0  0  0  0  0  0
   20.0660   -5.2598  -14.6473 C   0  0  0  0  0  0  0  0  0  0  0  0
   19.6526   -4.8435  -15.7565 O   0  0  0  0  0  0  0  0  0  0  0  0
   19.3889   -4.8080  -13.5203 O   0  0  0  0  0  0  0  0  0  0  0  0
  2  3  1  0
  2  1  1  6
  4  3  1  0
  5  6  2  0
  5  2  1  0
  8  7  1  0
  8  9  1  0
  9 10  1  1
  9 11  1  0
 11 12  1  1
 12  5  1  0
 13 15  1  0
 13 11  1  0
 14 13  2  0
 16 15  1  0
 16 19  1  0
 16 17  1  6
 17 18  1  0
 19 21  1  0
 20 19  2  0
M  END
$$$$
