CIC.pdb
     RDKit          3D

 21 20  0  0  1  0  0  0  0  0999 V2000
   20.8449  -30.6165  -11.6504 N   0  0  0  0  0  0  0  0  0  0  0  0
   21.7527  -30.1952  -10.6242 C   0  0  1  0  0  0  0  0  0  0  0  0
   21.1912  -29.0677   -9.7840 C   0  0  0  0  0  0  0  0  0  0  0  0
   21.2112  -27.5281  -10.7354 S   0  0  0  0  0  0  0  0  0  0  0  0
   22.1279  -31.3588   -9.7993 C   0  0  0  0  0  0  0  0  0  0  0  0
   21.2814  -32.2969   -9.6407 O   0  0  0  0  0  0  0  0  0  0  0  0
   27.2919  -33.3014   -9.5946 C   0  0  0  0  0  0  0  0  0  0  0  0
   25.7894  -33.1838   -9.7537 C   0  0  0  0  0  0  0  0  0  0  0  0
   25.2179  -32.9179   -8.3833 C   0  0  2  0  0  0  0  0  0  0  0  0
   25.4538  -34.1210   -7.5214 C   0  0  0  0  0  0  0  0  0  0  0  0
   23.7282  -32.6540   -8.4279 C   0  0  2  0  0  0  0  0  0  0  0  0
   23.3941  -31.4816   -9.1716 N   0  0  0  0  0  0  0  0  0  0  0  0
   23.1655  -32.4973   -7.0577 C   0  0  0  0  0  0  0  0  0  0  0  0
   23.4275  -31.5018   -6.3395 O   0  0  0  0  0  0  0  0  0  0  0  0
   22.3060  -33.5076   -6.5507 N   0  0  0  0  0  0  0  0  0  0  0  0
   21.7270  -33.4882   -5.2355 C   0  0  1  0  0  0  0  0  0  0  0  0
   20.2379  -33.6901   -5.3186 C   0  0  0  0  0  0  0  0  0  0  0  0
   19.4165  -33.5834   -3.7345 S   0  0  0  0  0  0  0  0  0  0  0  0
   22.4080  -34.4519   -4.3793 C   0  0  0  0  0  0  0  0  0  0  0  0
   22.8825  -35.4937   -4.8930 O   0  0  0  0  0  0  0  0  0  0  0  0
   22.5755  -34.3014   -3.0074 O   0  0  0  0  0  0  0  0  0  0  0  0
  2  3  1  0
  2  1  1  6
  4  3  1  0
  5  6  2  0
  5  2  1  0
  8  7  1  0
  8  9  1  0
  9 10  1  1
  9 11  1  0
 11 12  1  6
 12  5  1  0
 13 15  1  0
 13 11  1  0
 14 13  2  0
 16 15  1  0
 16 19  1  0
 16 17  1  6
 17 18  1  0
 19 21  1  0
 20 19  2  0
M  END
$$$$
