CIC.pdb
     RDKit          3D

 21 20  0  0  1  0  0  0  0  0999 V2000
   25.1678  -12.4306  -18.0778 N   0  0  0  0  0  0  0  0  0  0  0  0
   24.8228  -11.8639  -16.8071 C   0  0  1  0  0  0  0  0  0  0  0  0
   26.0362  -11.3767  -16.0436 C   0  0  0  0  0  0  0  0  0  0  0  0
   27.1000  -12.7803  -15.6266 S   0  0  0  0  0  0  0  0  0  0  0  0
   23.8331  -10.7889  -17.0068 C   0  0  0  0  0  0  0  0  0  0  0  0
   23.8929  -10.0896  -18.0695 O   0  0  0  0  0  0  0  0  0  0  0  0
   19.1118  -11.9270  -16.7184 C   0  0  0  0  0  0  0  0  0  0  0  0
   20.0032  -10.8529  -17.3088 C   0  0  0  0  0  0  0  0  0  0  0  0
   20.4248   -9.9534  -16.1736 C   0  0  2  0  0  0  0  0  0  0  0  0
   19.5276   -8.7532  -16.1514 C   0  0  0  0  0  0  0  0  0  0  0  0
   21.8519   -9.4731  -16.3263 C   0  0  2  0  0  0  0  0  0  0  0  0
   22.8131  -10.4965  -16.0654 N   0  0  0  0  0  0  0  0  0  0  0  0
   22.1407   -8.3355  -15.4093 C   0  0  0  0  0  0  0  0  0  0  0  0
   22.2232   -8.4862  -14.1658 O   0  0  0  0  0  0  0  0  0  0  0  0
   22.3282   -7.0409  -15.9619 N   0  0  0  0  0  0  0  0  0  0  0  0
   22.6247   -5.8682  -15.1859 C   0  0  1  0  0  0  0  0  0  0  0  0
   23.1909   -4.7886  -16.0685 C   0  0  0  0  0  0  0  0  0  0  0  0
   24.6316   -5.3073  -16.9909 S   0  0  0  0  0  0  0  0  0  0  0  0
   21.4444   -5.4595  -14.4339 C   0  0  0  0  0  0  0  0  0  0  0  0
   21.5948   -4.8087  -13.3716 O   0  0  0  0  0  0  0  0  0  0  0  0
   20.1367   -5.7419  -14.8120 O   0  0  0  0  0  0  0  0  0  0  0  0
  2  3  1  0
  2  1  1  6
  4  3  1  0
  5  6  2  0
  5  2  1  0
  8  7  1  0
  8  9  1  0
  9 10  1  6
  9 11  1  0
 11 12  1  1
 12  5  1  0
 13 15  1  0
 13 11  1  0
 14 13  2  0
 16 15  1  0
 16 19  1  0
 16 17  1  6
 17 18  1  0
 19 21  1  0
 20 19  2  0
M  END
$$$$
