CIC.pdb
     RDKit          3D

 21 20  0  0  1  0  0  0  0  0999 V2000
   18.8218  -14.4442  -17.3580 N   0  0  0  0  0  0  0  0  0  0  0  0
   19.8217  -13.6146  -17.9638 C   0  0  1  0  0  0  0  0  0  0  0  0
   19.2547  -12.7298  -19.0539 C   0  0  0  0  0  0  0  0  0  0  0  0
   18.6152  -13.7543  -20.4019 S   0  0  0  0  0  0  0  0  0  0  0  0
   20.5001  -12.8279  -16.9171 C   0  0  0  0  0  0  0  0  0  0  0  0
   19.8015  -12.3216  -15.9803 O   0  0  0  0  0  0  0  0  0  0  0  0
   25.3860  -14.1950  -14.9757 C   0  0  0  0  0  0  0  0  0  0  0  0
   23.9319  -13.7832  -15.0882 C   0  0  0  0  0  0  0  0  0  0  0  0
   23.9124  -12.3407  -15.5289 C   0  0  2  0  0  0  0  0  0  0  0  0
   24.4519  -11.4907  -14.4188 C   0  0  0  0  0  0  0  0  0  0  0  0
   22.5136  -11.8621  -15.8529 C   0  0  2  0  0  0  0  0  0  0  0  0
   21.9014  -12.6080  -16.9055 N   0  0  0  0  0  0  0  0  0  0  0  0
   22.5122  -10.4275  -16.2536 C   0  0  0  0  0  0  0  0  0  0  0  0
   22.9351  -10.0477  -17.3728 O   0  0  0  0  0  0  0  0  0  0  0  0
   22.0162   -9.4613  -15.3387 N   0  0  0  0  0  0  0  0  0  0  0  0
   21.8318   -8.0716  -15.6549 C   0  0  1  0  0  0  0  0  0  0  0  0
   20.9591   -7.9255  -16.8723 C   0  0  0  0  0  0  0  0  0  0  0  0
   20.5075   -6.2321  -17.2242 S   0  0  0  0  0  0  0  0  0  0  0  0
   21.3381   -7.3575  -14.4836 C   0  0  0  0  0  0  0  0  0  0  0  0
   20.6094   -7.9653  -13.6626 O   0  0  0  0  0  0  0  0  0  0  0  0
   21.6191   -6.0257  -14.2008 O   0  0  0  0  0  0  0  0  0  0  0  0
  2  3  1  0
  2  1  1  1
  4  3  1  0
  5  6  2  0
  5  2  1  0
  8  7  1  0
  8  9  1  0
  9 10  1  1
  9 11  1  0
 11 12  1  6
 12  5  1  0
 13 15  1  0
 13 11  1  0
 14 13  2  0
 16 15  1  0
 16 19  1  0
 16 17  1  6
 17 18  1  0
 19 21  1  0
 20 19  2  0
M  END
$$$$
