VMP.pdb
     RDKit          3D

 23 23  0  0  1  0  0  0  0  0999 V2000
   19.9807  -22.3856  -15.1868 C   0  0  0  0  0  0  0  0  0  0  0  0
   21.3628  -21.8805  -14.8241 C   0  0  2  0  0  0  0  0  0  0  0  0
   22.4375  -22.8807  -15.1481 C   0  0  0  0  0  0  0  0  0  0  0  0
   21.4248  -21.3174  -13.4442 C   0  0  2  0  0  0  0  0  0  0  0  0
   20.3244  -20.3908  -13.2791 N   0  0  0  0  0  0  0  0  0  0  0  0
   22.7312  -20.6479  -13.1909 C   0  0  0  0  0  0  0  0  0  0  0  0
   22.9821  -19.4972  -13.6883 O   0  0  0  0  0  0  0  0  0  0  0  0
   27.1022  -19.6821   -7.9617 C   0  0  0  0  0  0  0  0  0  0  0  0
   25.9962  -21.0477   -8.3812 S   0  0  0  0  0  0  0  0  0  0  0  0
   25.0212  -20.6533   -9.8520 C   0  0  0  0  0  0  0  0  0  0  0  0
   25.7592  -21.1510  -11.0757 C   0  0  0  0  0  0  0  0  0  0  0  0
   25.1189  -20.6424  -12.3518 C   0  0  2  0  0  0  0  0  0  0  0  0
   23.7800  -21.1939  -12.4102 N   0  0  0  0  0  0  0  0  0  0  0  0
   25.9177  -20.9991  -13.5491 C   0  0  0  0  0  0  0  0  0  0  0  0
   25.8108  -22.1628  -14.0552 O   0  0  0  0  0  0  0  0  0  0  0  0
   26.8121  -20.1204  -14.1871 N   0  0  0  0  0  0  0  0  0  0  0  0
   27.2464  -18.8494  -13.6655 C   0  0  0  0  0  0  0  0  0  0  0  0
   27.3116  -17.9997  -14.9420 C   0  0  0  0  0  0  0  0  0  0  0  0
   28.0161  -18.9610  -15.8697 C   0  0  0  0  0  0  0  0  0  0  0  0
   27.4653  -20.3031  -15.4564 C   0  0  1  0  0  0  0  0  0  0  0  0
   28.5826  -21.2510  -15.4000 C   0  0  0  0  0  0  0  0  0  0  0  0
   29.1800  -21.6826  -16.5647 O   0  0  0  0  0  0  0  0  0  0  0  0
   29.0018  -21.6741  -14.3033 O   0  0  0  0  0  0  0  0  0  0  0  0
  2  1  1  1
  2  3  1  0
  4  2  1  0
  4  6  1  0
  4  5  1  6
  6  7  2  0
  8  9  1  0
  9 10  1  0
 12 11  1  1
 11 10  1  0
 13  6  1  0
 13 12  1  0
 14 12  1  0
 14 15  2  0
 16 14  1  0
 17 16  1  0
 18 19  1  0
 18 17  1  0
 19 20  1  0
 20 16  1  0
 20 21  1  1
 21 22  1  0
 23 21  2  0
M  END
$$$$
