VMP.pdb
     RDKit          3D

 23 23  0  0  1  0  0  0  0  0999 V2000
   20.2122  -20.5363  -12.7091 C   0  0  0  0  0  0  0  0  0  0  0  0
   20.0397  -20.1828  -14.1726 C   0  0  2  0  0  0  0  0  0  0  0  0
   18.6820  -20.5639  -14.6941 C   0  0  0  0  0  0  0  0  0  0  0  0
   21.1852  -20.6383  -15.0125 C   0  0  2  0  0  0  0  0  0  0  0  0
   21.1656  -22.0852  -15.0659 N   0  0  0  0  0  0  0  0  0  0  0  0
   22.4822  -20.1398  -14.4753 C   0  0  0  0  0  0  0  0  0  0  0  0
   22.7385  -18.8877  -14.4462 O   0  0  0  0  0  0  0  0  0  0  0  0
   26.5815  -20.5007   -9.2451 C   0  0  0  0  0  0  0  0  0  0  0  0
   24.8992  -21.0588   -9.5945 S   0  0  0  0  0  0  0  0  0  0  0  0
   24.3401  -20.4420  -11.1996 C   0  0  0  0  0  0  0  0  0  0  0  0
   25.2072  -21.0442  -12.2837 C   0  0  0  0  0  0  0  0  0  0  0  0
   24.8482  -20.4920  -13.6486 C   0  0  2  0  0  0  0  0  0  0  0  0
   23.5157  -20.9649  -13.9667 N   0  0  0  0  0  0  0  0  0  0  0  0
   25.8372  -20.8870  -14.6804 C   0  0  0  0  0  0  0  0  0  0  0  0
   25.7416  -22.0255  -15.2430 O   0  0  0  0  0  0  0  0  0  0  0  0
   26.9061  -20.0725  -15.0967 N   0  0  0  0  0  0  0  0  0  0  0  0
   27.2719  -18.8107  -14.5051 C   0  0  0  0  0  0  0  0  0  0  0  0
   27.6890  -18.0016  -15.7409 C   0  0  0  0  0  0  0  0  0  0  0  0
   28.5417  -19.0228  -16.4561 C   0  0  0  0  0  0  0  0  0  0  0  0
   27.8341  -20.3235  -16.1677 C   0  0  1  0  0  0  0  0  0  0  0  0
   28.8509  -21.3241  -15.8285 C   0  0  0  0  0  0  0  0  0  0  0  0
   29.6306  -21.8784  -16.8207 O   0  0  0  0  0  0  0  0  0  0  0  0
   29.0198  -21.6820  -14.6449 O   0  0  0  0  0  0  0  0  0  0  0  0
  2  1  1  1
  2  3  1  0
  4  2  1  0
  4  6  1  0
  4  5  1  1
  6  7  2  0
  8  9  1  0
  9 10  1  0
 12 11  1  1
 11 10  1  0
 13  6  1  0
 13 12  1  0
 14 12  1  0
 14 15  2  0
 16 14  1  0
 17 16  1  0
 18 19  1  0
 18 17  1  0
 19 20  1  0
 20 16  1  0
 20 21  1  1
 21 22  1  0
 23 21  2  0
M  END
$$$$
