VMP.pdb
     RDKit          3D

 23 23  0  0  1  0  0  0  0  0999 V2000
   19.0101  -19.4696  -12.6809 C   0  0  0  0  0  0  0  0  0  0  0  0
   19.9020  -20.6896  -12.7944 C   0  0  2  0  0  0  0  0  0  0  0  0
   20.6435  -20.9734  -11.5177 C   0  0  0  0  0  0  0  0  0  0  0  0
   20.7499  -20.6691  -14.0215 C   0  0  2  0  0  0  0  0  0  0  0  0
   20.9653  -22.0351  -14.4507 N   0  0  0  0  0  0  0  0  0  0  0  0
   22.0445  -19.9753  -13.7733 C   0  0  0  0  0  0  0  0  0  0  0  0
   22.0730  -18.7300  -13.4857 O   0  0  0  0  0  0  0  0  0  0  0  0
   27.7196  -21.2472  -10.7713 C   0  0  0  0  0  0  0  0  0  0  0  0
   26.0360  -21.1195  -10.1285 S   0  0  0  0  0  0  0  0  0  0  0  0
   24.9642  -20.2625  -11.3059 C   0  0  0  0  0  0  0  0  0  0  0  0
   25.4259  -20.5837  -12.7107 C   0  0  0  0  0  0  0  0  0  0  0  0
   24.5735  -19.8791  -13.7469 C   0  0  2  0  0  0  0  0  0  0  0  0
   23.3169  -20.5963  -13.8295 N   0  0  0  0  0  0  0  0  0  0  0  0
   25.2552  -19.8026  -15.0615 C   0  0  0  0  0  0  0  0  0  0  0  0
   24.9992  -20.6715  -15.9566 O   0  0  0  0  0  0  0  0  0  0  0  0
   26.1925  -18.8108  -15.4039 N   0  0  0  0  0  0  0  0  0  0  0  0
   26.6510  -17.7605  -14.5307 C   0  0  0  0  0  0  0  0  0  0  0  0
   26.7756  -16.5824  -15.5066 C   0  0  0  0  0  0  0  0  0  0  0  0
   27.4752  -17.2612  -16.6603 C   0  0  0  0  0  0  0  0  0  0  0  0
   26.8732  -18.6444  -16.6609 C   0  0  1  0  0  0  0  0  0  0  0  0
   27.9595  -19.6087  -16.8617 C   0  0  0  0  0  0  0  0  0  0  0  0
   28.5770  -19.7055  -18.0901 O   0  0  0  0  0  0  0  0  0  0  0  0
   28.3338  -20.3472  -15.9280 O   0  0  0  0  0  0  0  0  0  0  0  0
  2  1  1  1
  2  3  1  0
  4  2  1  0
  4  6  1  0
  4  5  1  1
  6  7  2  0
  8  9  1  0
  9 10  1  0
 12 11  1  1
 11 10  1  0
 13  6  1  0
 13 12  1  0
 14 12  1  0
 14 15  2  0
 16 14  1  0
 17 16  1  0
 18 19  1  0
 18 17  1  0
 19 20  1  0
 20 16  1  0
 20 21  1  1
 21 22  1  0
 23 21  2  0
M  END
$$$$
