VMP.pdb
     RDKit          3D

 23 23  0  0  1  0  0  0  0  0999 V2000
   23.9514  -13.6678  -17.1376 C   0  0  0  0  0  0  0  0  0  0  0  0
   25.1216  -13.0248  -17.8544 C   0  0  2  0  0  0  0  0  0  0  0  0
   26.3052  -13.9467  -17.9524 C   0  0  0  0  0  0  0  0  0  0  0  0
   25.4305  -11.6592  -17.3397 C   0  0  2  0  0  0  0  0  0  0  0  0
   26.0103  -11.7891  -16.0193 N   0  0  0  0  0  0  0  0  0  0  0  0
   24.2111  -10.8043  -17.3074 C   0  0  0  0  0  0  0  0  0  0  0  0
   23.6293  -10.4560  -18.3912 O   0  0  0  0  0  0  0  0  0  0  0  0
   18.2282  -11.7511  -15.5856 C   0  0  0  0  0  0  0  0  0  0  0  0
   18.7346  -10.2846  -14.6598 S   0  0  0  0  0  0  0  0  0  0  0  0
   20.0196   -9.3767  -15.5510 C   0  0  0  0  0  0  0  0  0  0  0  0
   21.2794  -10.2145  -15.5799 C   0  0  0  0  0  0  0  0  0  0  0  0
   22.4563   -9.4240  -16.1155 C   0  0  2  0  0  0  0  0  0  0  0  0
   23.6012  -10.3123  -16.1269 N   0  0  0  0  0  0  0  0  0  0  0  0
   22.7104   -8.2028  -15.3136 C   0  0  0  0  0  0  0  0  0  0  0  0
   23.2876   -8.2995  -14.1825 O   0  0  0  0  0  0  0  0  0  0  0  0
   22.3504   -6.9056  -15.7220 N   0  0  0  0  0  0  0  0  0  0  0  0
   21.6406   -6.5801  -16.9329 C   0  0  0  0  0  0  0  0  0  0  0  0
   22.3275   -5.2723  -17.3494 C   0  0  0  0  0  0  0  0  0  0  0  0
   22.3646   -4.5530  -16.0219 C   0  0  0  0  0  0  0  0  0  0  0  0
   22.6049   -5.6675  -15.0340 C   0  0  1  0  0  0  0  0  0  0  0  0
   21.7182   -5.4515  -13.8863 C   0  0  0  0  0  0  0  0  0  0  0  0
   22.0271   -4.4905  -12.9478 O   0  0  0  0  0  0  0  0  0  0  0  0
   20.6809   -6.1316  -13.7483 O   0  0  0  0  0  0  0  0  0  0  0  0
  2  1  1  1
  2  3  1  0
  4  2  1  0
  4  6  1  0
  4  5  1  1
  6  7  2  0
  8  9  1  0
  9 10  1  0
 12 11  1  1
 11 10  1  0
 13  6  1  0
 13 12  1  0
 14 12  1  0
 14 15  2  0
 16 14  1  0
 17 16  1  0
 18 19  1  0
 18 17  1  0
 19 20  1  0
 20 16  1  0
 20 21  1  1
 21 22  1  0
 23 21  2  0
M  END
$$$$
