VMP.pdb
     RDKit          3D

 23 23  0  0  1  0  0  0  0  0999 V2000
   24.3724  -21.5731   -9.4515 C   0  0  0  0  0  0  0  0  0  0  0  0
   25.2457  -21.1413  -10.6124 C   0  0  2  0  0  0  0  0  0  0  0  0
   26.3291  -22.1398  -10.9118 C   0  0  0  0  0  0  0  0  0  0  0  0
   25.7103  -19.7294  -10.4877 C   0  0  2  0  0  0  0  0  0  0  0  0
   26.0408  -19.2388  -11.8094 N   0  0  0  0  0  0  0  0  0  0  0  0
   26.8784  -19.6230   -9.5694 C   0  0  0  0  0  0  0  0  0  0  0  0
   28.0542  -19.9232   -9.9716 O   0  0  0  0  0  0  0  0  0  0  0  0
   27.1146  -18.0794   -2.6202 C   0  0  0  0  0  0  0  0  0  0  0  0
   28.1402  -17.1318   -3.7665 S   0  0  0  0  0  0  0  0  0  0  0  0
   28.6843  -18.1674   -5.1452 C   0  0  0  0  0  0  0  0  0  0  0  0
   27.5637  -18.2616   -6.1578 C   0  0  0  0  0  0  0  0  0  0  0  0
   27.9464  -19.1505   -7.3241 C   0  0  2  0  0  0  0  0  0  0  0  0
   26.8078  -19.1990   -8.2193 N   0  0  0  0  0  0  0  0  0  0  0  0
   28.3559  -20.5030   -6.8747 C   0  0  0  0  0  0  0  0  0  0  0  0
   27.4753  -21.4098   -6.7191 O   0  0  0  0  0  0  0  0  0  0  0  0
   29.6857  -20.8702   -6.5992 N   0  0  0  0  0  0  0  0  0  0  0  0
   30.8350  -20.0145   -6.7504 C   0  0  0  0  0  0  0  0  0  0  0  0
   31.8875  -21.0029   -7.2708 C   0  0  0  0  0  0  0  0  0  0  0  0
   31.6565  -22.1621   -6.3305 C   0  0  0  0  0  0  0  0  0  0  0  0
   30.1631  -22.1401   -6.1187 C   0  0  1  0  0  0  0  0  0  0  0  0
   29.9072  -22.3505   -4.6903 C   0  0  0  0  0  0  0  0  0  0  0  0
   30.1889  -23.5694   -4.1118 O   0  0  0  0  0  0  0  0  0  0  0  0
   29.4346  -21.4336   -3.9879 O   0  0  0  0  0  0  0  0  0  0  0  0
  2  1  1  1
  2  3  1  0
  4  2  1  0
  4  6  1  0
  4  5  1  6
  6  7  2  0
  8  9  1  0
  9 10  1  0
 12 11  1  1
 11 10  1  0
 13  6  1  0
 13 12  1  0
 14 12  1  0
 14 15  2  0
 16 14  1  0
 17 16  1  0
 18 19  1  0
 18 17  1  0
 19 20  1  0
 20 16  1  0
 20 21  1  1
 21 22  1  0
 23 21  2  0
M  END
$$$$
