VMP.pdb
     RDKit          3D

 23 23  0  0  1  0  0  0  0  0999 V2000
   21.1056  -18.8327  -16.9406 C   0  0  0  0  0  0  0  0  0  0  0  0
   20.8259  -20.2574  -16.5064 C   0  0  2  0  0  0  0  0  0  0  0  0
   19.6217  -20.8365  -17.1956 C   0  0  0  0  0  0  0  0  0  0  0  0
   20.8387  -20.4191  -15.0236 C   0  0  2  0  0  0  0  0  0  0  0  0
   19.7596  -19.6290  -14.4686 N   0  0  0  0  0  0  0  0  0  0  0  0
   22.1508  -20.0140  -14.4462 C   0  0  0  0  0  0  0  0  0  0  0  0
   22.5796  -18.8167  -14.5768 O   0  0  0  0  0  0  0  0  0  0  0  0
   25.8954  -19.9268   -8.5319 C   0  0  0  0  0  0  0  0  0  0  0  0
   25.9964  -21.3417   -9.6508 S   0  0  0  0  0  0  0  0  0  0  0  0
   25.9303  -20.8008  -11.3749 C   0  0  0  0  0  0  0  0  0  0  0  0
   24.5874  -21.1852  -11.9568 C   0  0  0  0  0  0  0  0  0  0  0  0
   24.3478  -20.5050  -13.2897 C   0  0  2  0  0  0  0  0  0  0  0  0
   23.0171  -20.8752  -13.7281 N   0  0  0  0  0  0  0  0  0  0  0  0
   25.3816  -20.8699  -14.2882 C   0  0  0  0  0  0  0  0  0  0  0  0
   25.2801  -21.9650  -14.9301 O   0  0  0  0  0  0  0  0  0  0  0  0
   26.5004  -20.0715  -14.5883 N   0  0  0  0  0  0  0  0  0  0  0  0
   26.8702  -18.8618  -13.8984 C   0  0  0  0  0  0  0  0  0  0  0  0
   27.3895  -17.9957  -15.0541 C   0  0  0  0  0  0  0  0  0  0  0  0
   28.2507  -19.0024  -15.7793 C   0  0  0  0  0  0  0  0  0  0  0  0
   27.4842  -20.2913  -15.6154 C   0  0  1  0  0  0  0  0  0  0  0  0
   28.4445  -21.3472  -15.2790 C   0  0  0  0  0  0  0  0  0  0  0  0
   29.2749  -21.8594  -16.2525 O   0  0  0  0  0  0  0  0  0  0  0  0
   28.5195  -21.7902  -14.1147 O   0  0  0  0  0  0  0  0  0  0  0  0
  2  1  1  1
  2  3  1  0
  4  2  1  0
  4  6  1  0
  4  5  1  1
  6  7  2  0
  8  9  1  0
  9 10  1  0
 12 11  1  1
 11 10  1  0
 13  6  1  0
 13 12  1  0
 14 12  1  0
 14 15  2  0
 16 14  1  0
 17 16  1  0
 18 19  1  0
 18 17  1  0
 19 20  1  0
 20 16  1  0
 20 21  1  1
 21 22  1  0
 23 21  2  0
M  END
$$$$
