VMP.pdb
     RDKit          3D

 23 23  0  0  1  0  0  0  0  0999 V2000
   25.3483  -17.4283  -16.8560 C   0  0  0  0  0  0  0  0  0  0  0  0
   26.1877  -16.6309  -15.8780 C   0  0  2  0  0  0  0  0  0  0  0  0
   26.5375  -15.2680  -16.4075 C   0  0  0  0  0  0  0  0  0  0  0  0
   27.3405  -17.4108  -15.3415 C   0  0  2  0  0  0  0  0  0  0  0  0
   28.3092  -17.5834  -16.4038 N   0  0  0  0  0  0  0  0  0  0  0  0
   26.8990  -18.7266  -14.8004 C   0  0  0  0  0  0  0  0  0  0  0  0
   26.6755  -19.7124  -15.5831 O   0  0  0  0  0  0  0  0  0  0  0  0
   25.9137  -19.6168   -8.4618 C   0  0  0  0  0  0  0  0  0  0  0  0
   25.9144  -21.3468   -8.9821 S   0  0  0  0  0  0  0  0  0  0  0  0
   25.7434  -21.4758  -10.7776 C   0  0  0  0  0  0  0  0  0  0  0  0
   26.3587  -20.2498  -11.4165 C   0  0  0  0  0  0  0  0  0  0  0  0
   26.1936  -20.2703  -12.9229 C   0  0  2  0  0  0  0  0  0  0  0  0
   26.6905  -19.0057  -13.4269 N   0  0  0  0  0  0  0  0  0  0  0  0
   24.7851  -20.5099  -13.3196 C   0  0  0  0  0  0  0  0  0  0  0  0
   23.9771  -19.5289  -13.4021 O   0  0  0  0  0  0  0  0  0  0  0  0
   24.2588  -21.7793  -13.6210 N   0  0  0  0  0  0  0  0  0  0  0  0
   25.0038  -23.0126  -13.6175 C   0  0  0  0  0  0  0  0  0  0  0  0
   24.3862  -23.7479  -14.8148 C   0  0  0  0  0  0  0  0  0  0  0  0
   22.9192  -23.4984  -14.5565 C   0  0  0  0  0  0  0  0  0  0  0  0
   22.9040  -22.1036  -13.9822 C   0  0  1  0  0  0  0  0  0  0  0  0
   21.9842  -22.0963  -12.8402 C   0  0  0  0  0  0  0  0  0  0  0  0
   20.6224  -22.1124  -13.0518 O   0  0  0  0  0  0  0  0  0  0  0  0
   22.4224  -22.0757  -11.6719 O   0  0  0  0  0  0  0  0  0  0  0  0
  2  1  1  6
  2  3  1  0
  4  2  1  0
  4  6  1  0
  4  5  1  6
  6  7  2  0
  8  9  1  0
  9 10  1  0
 12 11  1  1
 11 10  1  0
 13  6  1  0
 13 12  1  0
 14 12  1  0
 14 15  2  0
 16 14  1  0
 17 16  1  0
 18 19  1  0
 18 17  1  0
 19 20  1  0
 20 16  1  0
 20 21  1  1
 21 22  1  0
 23 21  2  0
M  END
$$$$
