CQI.pdb
     RDKit          3D

 24 23  0  0  1  0  0  0  0  0999 V2000
   26.8146  -19.4765  -15.9972 N   0  0  0  0  0  0  0  0  0  0  0  0
   27.6133  -19.1692  -14.8563 C   0  0  1  0  0  0  0  0  0  0  0  0
   28.5473  -18.0029  -15.0967 C   0  0  0  0  0  0  0  0  0  0  0  0
   29.7521  -18.5153  -16.3654 S   0  0  0  0  0  0  0  0  0  0  0  0
   26.7248  -18.7989  -13.7291 C   0  0  0  0  0  0  0  0  0  0  0  0
   25.9438  -17.8026  -13.7992 O   0  0  0  0  0  0  0  0  0  0  0  0
   22.6808  -22.3814  -12.6776 N   0  0  0  0  0  0  0  0  0  0  0  0
   22.1724  -21.1761  -12.1407 C   0  0  0  0  0  0  0  0  0  0  0  0
   20.9568  -21.1520  -11.8198 O   0  0  0  0  0  0  0  0  0  0  0  0
   23.0857  -20.0277  -11.9812 C   0  0  0  0  0  0  0  0  0  0  0  0
   24.4868  -20.2272  -12.4026 C   0  0  0  0  0  0  0  0  0  0  0  0
   25.5814  -19.6244  -11.6128 C   0  0  2  0  0  0  0  0  0  0  0  0
   26.7285  -19.5466  -12.5533 N   0  0  0  0  0  0  0  0  0  0  0  0
   26.0749  -20.3401  -10.4263 C   0  0  0  0  0  0  0  0  0  0  0  0
   26.6689  -21.4605  -10.5130 O   0  0  0  0  0  0  0  0  0  0  0  0
   29.0116  -18.3683   -6.3789 C   0  0  0  0  0  0  0  0  0  0  0  0
   28.3219  -19.2925   -7.3030 C   0  0  0  0  0  0  0  0  0  0  0  0
   27.0043  -19.8290   -6.9675 C   0  0  2  0  0  0  0  0  0  0  0  0
   27.0793  -20.4965   -5.5884 C   0  0  0  0  0  0  0  0  0  0  0  0
   26.2638  -20.6587   -7.9407 C   0  0  2  0  0  0  0  0  0  0  0  0
   25.9260  -19.8398   -9.1196 N   0  0  0  0  0  0  0  0  0  0  0  0
   25.0424  -21.3270   -7.5614 C   0  0  0  0  0  0  0  0  0  0  0  0
   25.0192  -22.5246   -6.8919 O   0  0  0  0  0  0  0  0  0  0  0  0
   23.8890  -20.8424   -7.8344 O   0  0  0  0  0  0  0  0  0  0  0  0
  2  1  1  6
  2  3  1  0
  3  4  1  0
  5  2  1  0
  5  6  2  0
  7  8  1  0
  8  9  2  0
  8 10  1  0
 10 11  1  0
 12 11  1  6
 12 13  1  0
 13  5  1  0
 14 12  1  0
 15 14  2  0
 17 16  1  0
 18 17  1  0
 18 20  1  0
 18 19  1  1
 20 22  1  0
 20 21  1  6
 21 14  1  0
 22 23  1  0
 24 22  2  0
M  END
$$$$
