CQI.pdb
     RDKit          3D

 24 23  0  0  1  0  0  0  0  0999 V2000
   16.9909  -14.5023  -18.1022 N   0  0  0  0  0  0  0  0  0  0  0  0
   17.9306  -13.8415  -17.2571 C   0  0  1  0  0  0  0  0  0  0  0  0
   19.3036  -14.4762  -17.3052 C   0  0  0  0  0  0  0  0  0  0  0  0
   19.2048  -16.0687  -16.4231 S   0  0  0  0  0  0  0  0  0  0  0  0
   18.0777  -12.4356  -17.7033 C   0  0  0  0  0  0  0  0  0  0  0  0
   17.9447  -12.1084  -18.9210 O   0  0  0  0  0  0  0  0  0  0  0  0
   14.8114   -8.4202  -16.6442 N   0  0  0  0  0  0  0  0  0  0  0  0
   15.6357   -7.6364  -17.4843 C   0  0  0  0  0  0  0  0  0  0  0  0
   15.2902   -6.4443  -17.6863 O   0  0  0  0  0  0  0  0  0  0  0  0
   16.8455   -8.2495  -18.0661 C   0  0  0  0  0  0  0  0  0  0  0  0
   17.1371   -9.6447  -17.6796 C   0  0  0  0  0  0  0  0  0  0  0  0
   18.4645   -9.9889  -17.1278 C   0  0  2  0  0  0  0  0  0  0  0  0
   18.3690  -11.4306  -16.7832 N   0  0  0  0  0  0  0  0  0  0  0  0
   18.9216   -9.3074  -15.9069 C   0  0  0  0  0  0  0  0  0  0  0  0
   18.5082   -9.6423  -14.7525 O   0  0  0  0  0  0  0  0  0  0  0  0
   23.8880   -9.7970  -14.9837 C   0  0  0  0  0  0  0  0  0  0  0  0
   22.4478   -9.4940  -14.8506 C   0  0  0  0  0  0  0  0  0  0  0  0
   21.9808   -8.1090  -14.8321 C   0  0  2  0  0  0  0  0  0  0  0  0
   22.8213   -7.3179  -13.8218 C   0  0  0  0  0  0  0  0  0  0  0  0
   20.5399   -7.8064  -14.7056 C   0  0  2  0  0  0  0  0  0  0  0  0
   19.8424   -8.2437  -15.9290 N   0  0  0  0  0  0  0  0  0  0  0  0
   20.0887   -6.4590  -14.4543 C   0  0  0  0  0  0  0  0  0  0  0  0
   19.7520   -5.5818  -15.4545 O   0  0  0  0  0  0  0  0  0  0  0  0
   19.9790   -5.9885  -13.2685 O   0  0  0  0  0  0  0  0  0  0  0  0
  2  1  1  6
  2  3  1  0
  3  4  1  0
  5  2  1  0
  5  6  2  0
  7  8  1  0
  8  9  2  0
  8 10  1  0
 10 11  1  0
 12 11  1  1
 12 13  1  0
 13  5  1  0
 14 12  1  0
 15 14  2  0
 17 16  1  0
 18 17  1  0
 18 20  1  0
 18 19  1  1
 20 22  1  0
 20 21  1  6
 21 14  1  0
 22 23  1  0
 24 22  2  0
M  END
$$$$
