CQI.pdb
     RDKit          3D

 24 23  0  0  1  0  0  0  0  0999 V2000
   19.4132  -20.1319  -14.8899 N   0  0  0  0  0  0  0  0  0  0  0  0
   20.3252  -19.7982  -13.8453 C   0  0  1  0  0  0  0  0  0  0  0  0
   19.6983  -19.8978  -12.4714 C   0  0  0  0  0  0  0  0  0  0  0  0
   19.0053  -18.2617  -12.0630 S   0  0  0  0  0  0  0  0  0  0  0  0
   21.4670  -20.7427  -13.8797 C   0  0  0  0  0  0  0  0  0  0  0  0
   21.3403  -21.9211  -14.3302 O   0  0  0  0  0  0  0  0  0  0  0  0
   25.8732  -24.2561  -15.6157 N   0  0  0  0  0  0  0  0  0  0  0  0
   25.1755  -23.1901  -16.2292 C   0  0  0  0  0  0  0  0  0  0  0  0
   24.4553  -23.4648  -17.2227 O   0  0  0  0  0  0  0  0  0  0  0  0
   25.3226  -21.8308  -15.6736 C   0  0  0  0  0  0  0  0  0  0  0  0
   24.1130  -21.2137  -15.0932 C   0  0  0  0  0  0  0  0  0  0  0  0
   23.9676  -21.1291  -13.6246 C   0  0  2  0  0  0  0  0  0  0  0  0
   22.7199  -20.3517  -13.4119 N   0  0  0  0  0  0  0  0  0  0  0  0
   25.0124  -20.4435  -12.8485 C   0  0  0  0  0  0  0  0  0  0  0  0
   25.1200  -19.1771  -12.8337 O   0  0  0  0  0  0  0  0  0  0  0  0
   25.4280  -20.8430   -7.7168 C   0  0  0  0  0  0  0  0  0  0  0  0
   25.5825  -20.4751   -9.1396 C   0  0  0  0  0  0  0  0  0  0  0  0
   26.8216  -20.7790   -9.8529 C   0  0  2  0  0  0  0  0  0  0  0  0
   28.0082  -20.2938   -9.0105 C   0  0  0  0  0  0  0  0  0  0  0  0
   26.9735  -20.4165  -11.2775 C   0  0  2  0  0  0  0  0  0  0  0  0
   25.9607  -21.1352  -12.0725 N   0  0  0  0  0  0  0  0  0  0  0  0
   28.2284  -20.6201  -11.9604 C   0  0  0  0  0  0  0  0  0  0  0  0
   29.2993  -19.7718  -11.8307 O   0  0  0  0  0  0  0  0  0  0  0  0
   28.4223  -21.6131  -12.7451 O   0  0  0  0  0  0  0  0  0  0  0  0
  2  1  1  6
  2  3  1  0
  3  4  1  0
  5  2  1  0
  5  6  2  0
  7  8  1  0
  8  9  2  0
  8 10  1  0
 10 11  1  0
 12 11  1  6
 12 13  1  0
 13  5  1  0
 14 12  1  0
 15 14  2  0
 17 16  1  0
 18 17  1  0
 18 20  1  0
 18 19  1  1
 20 22  1  0
 20 21  1  6
 21 14  1  0
 22 23  1  0
 24 22  2  0
M  END
$$$$
