CQI.pdb
     RDKit          3D

 24 23  0  0  1  0  0  0  0  0999 V2000
   23.8144  -15.5439  -16.7464 N   0  0  0  0  0  0  0  0  0  0  0  0
   24.1245  -14.1758  -16.4893 C   0  0  1  0  0  0  0  0  0  0  0  0
   25.4733  -13.7706  -17.0435 C   0  0  0  0  0  0  0  0  0  0  0  0
   26.7503  -14.6293  -16.0658 S   0  0  0  0  0  0  0  0  0  0  0  0
   23.1044  -13.3182  -17.1382 C   0  0  0  0  0  0  0  0  0  0  0  0
   22.4801  -13.6976  -18.1744 O   0  0  0  0  0  0  0  0  0  0  0  0
   17.6840  -12.1610  -16.9548 N   0  0  0  0  0  0  0  0  0  0  0  0
   18.3749  -12.2008  -15.7216 C   0  0  0  0  0  0  0  0  0  0  0  0
   17.6868  -12.3163  -14.6754 O   0  0  0  0  0  0  0  0  0  0  0  0
   19.8481  -12.1125  -15.7288 C   0  0  0  0  0  0  0  0  0  0  0  0
   20.4997  -11.9544  -17.0445 C   0  0  0  0  0  0  0  0  0  0  0  0
   21.7466  -11.1680  -17.1537 C   0  0  2  0  0  0  0  0  0  0  0  0
   22.8055  -12.0609  -16.6172 N   0  0  0  0  0  0  0  0  0  0  0  0
   21.8566   -9.9081  -16.4023 C   0  0  0  0  0  0  0  0  0  0  0  0
   22.3988   -9.8527  -15.2540 O   0  0  0  0  0  0  0  0  0  0  0  0
   23.9223   -4.6705  -18.2827 C   0  0  0  0  0  0  0  0  0  0  0  0
   23.1632   -5.3603  -17.2188 C   0  0  0  0  0  0  0  0  0  0  0  0
   22.5617   -6.6690  -17.4677 C   0  0  2  0  0  0  0  0  0  0  0  0
   21.6992   -6.5835  -18.7333 C   0  0  0  0  0  0  0  0  0  0  0  0
   21.8729   -7.3953  -16.3805 C   0  0  2  0  0  0  0  0  0  0  0  0
   21.3730   -8.6829  -16.8970 N   0  0  0  0  0  0  0  0  0  0  0  0
   20.7644   -6.7943  -15.6790 C   0  0  0  0  0  0  0  0  0  0  0  0
   20.9236   -5.9034  -14.6474 O   0  0  0  0  0  0  0  0  0  0  0  0
   19.5474   -7.0623  -15.9735 O   0  0  0  0  0  0  0  0  0  0  0  0
  2  1  1  6
  2  3  1  0
  3  4  1  0
  5  2  1  0
  5  6  2  0
  7  8  1  0
  8  9  2  0
  8 10  1  0
 10 11  1  0
 12 11  1  1
 12 13  1  0
 13  5  1  0
 14 12  1  0
 15 14  2  0
 17 16  1  0
 18 17  1  0
 18 20  1  0
 18 19  1  6
 20 22  1  0
 20 21  1  6
 21 14  1  0
 22 23  1  0
 24 22  2  0
M  END
$$$$
