CQI.pdb
     RDKit          3D

 24 23  0  0  1  0  0  0  0  0999 V2000
   26.5022  -20.3195  -14.9654 N   0  0  0  0  0  0  0  0  0  0  0  0
   27.0194  -20.9807  -13.8125 C   0  0  1  0  0  0  0  0  0  0  0  0
   28.5324  -21.0004  -13.7825 C   0  0  0  0  0  0  0  0  0  0  0  0
   29.0917  -22.2071  -15.0294 S   0  0  0  0  0  0  0  0  0  0  0  0
   26.5626  -20.2641  -12.5980 C   0  0  0  0  0  0  0  0  0  0  0  0
   26.5980  -18.9991  -12.5210 O   0  0  0  0  0  0  0  0  0  0  0  0
   21.2432  -20.9025  -10.3491 N   0  0  0  0  0  0  0  0  0  0  0  0
   21.8132  -20.2448  -11.4635 C   0  0  0  0  0  0  0  0  0  0  0  0
   21.0305  -19.8450  -12.3629 O   0  0  0  0  0  0  0  0  0  0  0  0
   23.2766  -20.0592  -11.5077 C   0  0  0  0  0  0  0  0  0  0  0  0
   24.0519  -20.6042  -10.3752 C   0  0  0  0  0  0  0  0  0  0  0  0
   25.5035  -20.3391  -10.2871 C   0  0  2  0  0  0  0  0  0  0  0  0
   26.0784  -20.9736  -11.5009 N   0  0  0  0  0  0  0  0  0  0  0  0
   26.2547  -20.8857   -9.1467 C   0  0  0  0  0  0  0  0  0  0  0  0
   26.6486  -22.0938   -9.1152 O   0  0  0  0  0  0  0  0  0  0  0  0
   29.9310  -19.2458   -4.4690 C   0  0  0  0  0  0  0  0  0  0  0  0
   28.9898  -20.2000   -5.0916 C   0  0  0  0  0  0  0  0  0  0  0  0
   28.1573  -19.7891   -6.2206 C   0  0  2  0  0  0  0  0  0  0  0  0
   27.5097  -18.4382   -5.8910 C   0  0  0  0  0  0  0  0  0  0  0  0
   27.1892  -20.7319   -6.8190 C   0  0  2  0  0  0  0  0  0  0  0  0
   26.5886  -20.1164   -8.0169 N   0  0  0  0  0  0  0  0  0  0  0  0
   26.0859  -21.2465   -6.0444 C   0  0  0  0  0  0  0  0  0  0  0  0
   24.7767  -20.9198   -6.2944 O   0  0  0  0  0  0  0  0  0  0  0  0
   26.2609  -22.0450   -5.0587 O   0  0  0  0  0  0  0  0  0  0  0  0
  2  1  1  6
  2  3  1  0
  3  4  1  0
  5  2  1  0
  5  6  2  0
  7  8  1  0
  8  9  2  0
  8 10  1  0
 10 11  1  0
 12 11  1  1
 12 13  1  0
 13  5  1  0
 14 12  1  0
 15 14  2  0
 17 16  1  0
 18 17  1  0
 18 20  1  0
 18 19  1  1
 20 22  1  0
 20 21  1  6
 21 14  1  0
 22 23  1  0
 24 22  2  0
M  END
$$$$
