YCY.pdb
     RDKit          3D

 31 32  0  0  1  0  0  0  0  0999 V2000
    3.6072  -24.6935   25.2115 O   0  0  0  0  0  0  0  0  0  0  0  0
    4.3283  -23.5378   24.9177 C   0  0  0  0  0  0  0  0  0  0  0  0
    4.8072  -23.3426   23.6424 C   0  0  0  0  0  0  0  0  0  0  0  0
    5.5236  -22.2113   23.3187 C   0  0  0  0  0  0  0  0  0  0  0  0
    5.7851  -21.2348   24.2640 C   0  0  0  0  0  0  0  0  0  0  0  0
    6.5539  -20.0503   23.8605 C   0  0  0  0  0  0  0  0  0  0  0  0
    5.6027  -18.9283   23.5886 C   0  0  2  0  0  0  0  0  0  0  0  0
    4.6710  -19.2432   22.5307 N   0  0  0  0  0  0  0  0  0  0  0  0
    6.2769  -17.6437   23.2824 C   0  0  0  0  0  0  0  0  0  0  0  0
    5.9437  -16.9162   22.3224 O   0  0  0  0  0  0  0  0  0  0  0  0
    5.2947  -21.4519   25.5370 C   0  0  0  0  0  0  0  0  0  0  0  0
    4.5799  -22.5751   25.8704 C   0  0  0  0  0  0  0  0  0  0  0  0
    7.3662  -17.1742   24.0975 N   0  0  0  0  0  0  0  0  0  0  0  0
    7.8992  -15.8323   23.9672 C   0  0  1  0  0  0  0  0  0  0  0  0
    6.7780  -14.8391   24.1388 C   0  0  0  0  0  0  0  0  0  0  0  0
    7.3875  -13.1312   24.1173 S   0  0  0  0  0  0  0  0  0  0  0  0
    8.9946  -15.6555   24.9120 C   0  0  0  0  0  0  0  0  0  0  0  0
    8.9139  -14.7777   25.8052 O   0  0  0  0  0  0  0  0  0  0  0  0
    9.6137  -15.1207   30.6499 O   0  0  0  0  0  0  0  0  0  0  0  0
   10.2946  -15.2991   29.4520 C   0  0  0  0  0  0  0  0  0  0  0  0
   10.6332  -16.5532   28.9905 C   0  0  0  0  0  0  0  0  0  0  0  0
   11.3099  -16.7547   27.8029 C   0  0  0  0  0  0  0  0  0  0  0  0
   11.6732  -15.6725   27.0282 C   0  0  0  0  0  0  0  0  0  0  0  0
   12.3949  -15.8028   25.7511 C   0  0  0  0  0  0  0  0  0  0  0  0
   11.4601  -15.8234   24.5589 C   0  0  2  0  0  0  0  0  0  0  0  0
   10.1952  -16.4343   24.8962 N   0  0  0  0  0  0  0  0  0  0  0  0
   12.1169  -16.6324   23.5065 C   0  0  0  0  0  0  0  0  0  0  0  0
   13.3217  -16.2250   22.9599 O   0  0  0  0  0  0  0  0  0  0  0  0
   11.3413  -14.4121   27.4770 C   0  0  0  0  0  0  0  0  0  0  0  0
   10.6631  -14.2051   28.6667 C   0  0  0  0  0  0  0  0  0  0  0  0
   11.6204  -17.7079   23.0675 O   0  0  0  0  0  0  0  0  0  0  0  0
  2  1  1  0
  3  2  2  0
  4  3  1  0
  5 11  1  0
  5  4  2  0
  6  5  1  0
  7  6  1  0
  7  8  1  6
  9  7  1  0
  9 10  2  0
 11 12  2  0
 12  2  1  0
 13  9  1  0
 14 13  1  0
 14 15  1  1
 16 15  1  0
 17 14  1  0
 18 17  2  0
 20 30  2  0
 20 19  1  0
 21 20  1  0
 22 23  1  0
 22 21  2  0
 23 29  2  0
 25 24  1  1
 24 23  1  0
 25 26  1  0
 26 17  1  0
 27 28  1  0
 27 25  1  0
 29 30  1  0
 31 27  2  0
M  END
$$$$
