YCY.pdb
     RDKit          3D

 31 32  0  0  1  0  0  0  0  0999 V2000
    7.9390  -11.8438   17.5690 O   0  0  0  0  0  0  0  0  0  0  0  0
    7.8726  -12.6172   18.7263 C   0  0  0  0  0  0  0  0  0  0  0  0
    6.7148  -13.3006   19.0202 C   0  0  0  0  0  0  0  0  0  0  0  0
    6.6160  -14.0740   20.1560 C   0  0  0  0  0  0  0  0  0  0  0  0
    7.6764  -14.1892   21.0379 C   0  0  0  0  0  0  0  0  0  0  0  0
    7.5127  -15.0280   22.2322 C   0  0  0  0  0  0  0  0  0  0  0  0
    8.1234  -16.3676   21.9674 C   0  0  2  0  0  0  0  0  0  0  0  0
    7.3313  -17.1612   21.0568 N   0  0  0  0  0  0  0  0  0  0  0  0
    8.3867  -17.1504   23.1989 C   0  0  0  0  0  0  0  0  0  0  0  0
    7.5015  -17.8116   23.7829 O   0  0  0  0  0  0  0  0  0  0  0  0
    8.8281  -13.4946   20.7226 C   0  0  0  0  0  0  0  0  0  0  0  0
    8.9374  -12.7213   19.5941 C   0  0  0  0  0  0  0  0  0  0  0  0
    9.7019  -17.1796   23.7825 N   0  0  0  0  0  0  0  0  0  0  0  0
    9.9758  -17.8790   25.0225 C   0  0  1  0  0  0  0  0  0  0  0  0
   11.0016  -18.9534   24.7647 C   0  0  0  0  0  0  0  0  0  0  0  0
   11.4502  -19.8298   26.2878 S   0  0  0  0  0  0  0  0  0  0  0  0
   10.3730  -16.9154   26.0412 C   0  0  0  0  0  0  0  0  0  0  0  0
   11.2966  -16.0999   25.8036 O   0  0  0  0  0  0  0  0  0  0  0  0
    6.6453  -12.1754   24.6354 O   0  0  0  0  0  0  0  0  0  0  0  0
    7.2737  -12.8697   25.6617 C   0  0  0  0  0  0  0  0  0  0  0  0
    6.9296  -14.1671   25.9760 C   0  0  0  0  0  0  0  0  0  0  0  0
    7.5406  -14.8767   26.9919 C   0  0  0  0  0  0  0  0  0  0  0  0
    8.5392  -14.2853   27.7376 C   0  0  0  0  0  0  0  0  0  0  0  0
    9.2390  -14.9734   28.8356 C   0  0  0  0  0  0  0  0  0  0  0  0
   10.3013  -15.9301   28.3337 C   0  0  2  0  0  0  0  0  0  0  0  0
    9.7678  -16.8274   27.3351 N   0  0  0  0  0  0  0  0  0  0  0  0
   10.7547  -16.7248   29.4982 C   0  0  0  0  0  0  0  0  0  0  0  0
   11.3902  -16.1080   30.5622 O   0  0  0  0  0  0  0  0  0  0  0  0
    8.8940  -12.9881   27.4348 C   0  0  0  0  0  0  0  0  0  0  0  0
    8.2846  -12.2727   26.4174 C   0  0  0  0  0  0  0  0  0  0  0  0
   10.5872  -17.9747   29.5743 O   0  0  0  0  0  0  0  0  0  0  0  0
  2  1  1  0
  3  2  2  0
  4  3  1  0
  5 11  1  0
  5  4  2  0
  6  5  1  0
  7  6  1  0
  7  8  1  6
  9  7  1  0
  9 10  2  0
 11 12  2  0
 12  2  1  0
 13  9  1  0
 14 13  1  0
 14 15  1  6
 16 15  1  0
 17 14  1  0
 18 17  2  0
 20 30  2  0
 20 19  1  0
 21 20  1  0
 22 23  1  0
 22 21  2  0
 23 29  2  0
 25 24  1  1
 24 23  1  0
 25 26  1  0
 26 17  1  0
 27 28  1  0
 27 25  1  0
 29 30  1  0
 31 27  2  0
M  END
$$$$
