YCY.pdb
     RDKit          3D

 31 32  0  0  1  0  0  0  0  0999 V2000
   13.0390  -18.3989   10.6041 O   0  0  0  0  0  0  0  0  0  0  0  0
   12.7681  -18.1079   11.9396 C   0  0  0  0  0  0  0  0  0  0  0  0
   12.8752  -16.8108   12.3867 C   0  0  0  0  0  0  0  0  0  0  0  0
   12.6145  -16.4892   13.7007 C   0  0  0  0  0  0  0  0  0  0  0  0
   12.2368  -17.4586   14.6135 C   0  0  0  0  0  0  0  0  0  0  0  0
   11.9720  -17.0562   16.0008 C   0  0  0  0  0  0  0  0  0  0  0  0
   10.5037  -16.8200   16.1619 C   0  0  2  0  0  0  0  0  0  0  0  0
   10.0500  -15.6635   15.4251 N   0  0  0  0  0  0  0  0  0  0  0  0
   10.0768  -16.6989   17.5768 C   0  0  0  0  0  0  0  0  0  0  0  0
   10.0657  -15.6098   18.1896 O   0  0  0  0  0  0  0  0  0  0  0  0
   12.1358  -18.7532   14.1424 C   0  0  0  0  0  0  0  0  0  0  0  0
   12.3931  -19.0848   12.8357 C   0  0  0  0  0  0  0  0  0  0  0  0
    9.6490  -17.8574   18.3157 N   0  0  0  0  0  0  0  0  0  0  0  0
    9.2416  -17.7742   19.7046 C   0  0  1  0  0  0  0  0  0  0  0  0
    8.3226  -18.9277   20.0173 C   0  0  0  0  0  0  0  0  0  0  0  0
    7.8825  -18.9752   21.7760 S   0  0  0  0  0  0  0  0  0  0  0  0
   10.4265  -17.7167   20.5513 C   0  0  0  0  0  0  0  0  0  0  0  0
   11.4384  -18.3980   20.2570 O   0  0  0  0  0  0  0  0  0  0  0  0
   14.5102  -13.5952   17.8136 O   0  0  0  0  0  0  0  0  0  0  0  0
   13.9604  -14.0640   19.0004 C   0  0  0  0  0  0  0  0  0  0  0  0
   12.6540  -13.7964   19.3495 C   0  0  0  0  0  0  0  0  0  0  0  0
   12.0863  -14.2519   20.5238 C   0  0  0  0  0  0  0  0  0  0  0  0
   12.8366  -15.0079   21.4006 C   0  0  0  0  0  0  0  0  0  0  0  0
   12.3059  -15.5306   22.6709 C   0  0  0  0  0  0  0  0  0  0  0  0
   11.7314  -16.9252   22.5267 C   0  0  2  0  0  0  0  0  0  0  0  0
   10.5248  -16.9145   21.7323 N   0  0  0  0  0  0  0  0  0  0  0  0
   11.4030  -17.4023   23.8897 C   0  0  0  0  0  0  0  0  0  0  0  0
   10.0912  -17.6719   24.2401 O   0  0  0  0  0  0  0  0  0  0  0  0
   14.1448  -15.2835   21.0648 C   0  0  0  0  0  0  0  0  0  0  0  0
   14.7184  -14.8292   19.8888 C   0  0  0  0  0  0  0  0  0  0  0  0
   12.2840  -17.5820   24.7771 O   0  0  0  0  0  0  0  0  0  0  0  0
  2  1  1  0
  3  2  2  0
  4  3  1  0
  5 11  1  0
  5  4  2  0
  6  5  1  0
  7  6  1  0
  7  8  1  6
  9  7  1  0
  9 10  2  0
 11 12  2  0
 12  2  1  0
 13  9  1  0
 14 13  1  0
 14 15  1  1
 16 15  1  0
 17 14  1  0
 18 17  2  0
 20 30  2  0
 20 19  1  0
 21 20  1  0
 22 23  1  0
 22 21  2  0
 23 29  2  0
 25 24  1  1
 24 23  1  0
 25 26  1  0
 26 17  1  0
 27 28  1  0
 27 25  1  0
 29 30  1  0
 31 27  2  0
M  END
$$$$
