YCY.pdb
     RDKit          3D

 31 32  0  0  1  0  0  0  0  0999 V2000
   17.4798  -20.4429    8.5590 O   0  0  0  0  0  0  0  0  0  0  0  0
   17.7055  -20.3621    9.9317 C   0  0  0  0  0  0  0  0  0  0  0  0
   16.8904  -21.0574   10.7955 C   0  0  0  0  0  0  0  0  0  0  0  0
   17.0863  -20.9991   12.1580 C   0  0  0  0  0  0  0  0  0  0  0  0
   18.1078  -20.2404   12.7025 C   0  0  0  0  0  0  0  0  0  0  0  0
   18.2678  -20.2168   14.1621 C   0  0  0  0  0  0  0  0  0  0  0  0
   17.3705  -19.1622   14.7280 C   0  0  2  0  0  0  0  0  0  0  0  0
   17.7458  -17.8348   14.2993 N   0  0  0  0  0  0  0  0  0  0  0  0
   17.2827  -19.1934   16.2079 C   0  0  0  0  0  0  0  0  0  0  0  0
   17.6651  -18.2469   16.9288 O   0  0  0  0  0  0  0  0  0  0  0  0
   18.9131  -19.5512   11.8166 C   0  0  0  0  0  0  0  0  0  0  0  0
   18.7271  -19.6021   10.4578 C   0  0  0  0  0  0  0  0  0  0  0  0
   16.7414  -20.3413   16.8866 N   0  0  0  0  0  0  0  0  0  0  0  0
   16.6680  -20.4135   18.3328 C   0  0  1  0  0  0  0  0  0  0  0  0
   15.3014  -19.9592   18.7789 C   0  0  0  0  0  0  0  0  0  0  0  0
   13.9887  -20.9897   18.0693 S   0  0  0  0  0  0  0  0  0  0  0  0
   17.0126  -21.7618   18.7655 C   0  0  0  0  0  0  0  0  0  0  0  0
   16.3170  -22.7359   18.3889 O   0  0  0  0  0  0  0  0  0  0  0  0
   20.2829  -24.2364   13.8822 O   0  0  0  0  0  0  0  0  0  0  0  0
   20.1729  -24.1229   15.2625 C   0  0  0  0  0  0  0  0  0  0  0  0
   20.3704  -22.9216   15.9092 C   0  0  0  0  0  0  0  0  0  0  0  0
   20.2662  -22.7851   17.2801 C   0  0  0  0  0  0  0  0  0  0  0  0
   19.9525  -23.8813   18.0568 C   0  0  0  0  0  0  0  0  0  0  0  0
   19.8227  -23.8189   19.5224 C   0  0  0  0  0  0  0  0  0  0  0  0
   18.4241  -23.4370   19.9626 C   0  0  2  0  0  0  0  0  0  0  0  0
   18.1221  -22.0674   19.6163 N   0  0  0  0  0  0  0  0  0  0  0  0
   18.3788  -23.5794   21.4360 C   0  0  0  0  0  0  0  0  0  0  0  0
   18.1797  -22.4708   22.2408 O   0  0  0  0  0  0  0  0  0  0  0  0
   19.7522  -25.0895   17.4240 C   0  0  0  0  0  0  0  0  0  0  0  0
   19.8555  -25.2312   16.0501 C   0  0  0  0  0  0  0  0  0  0  0  0
   18.5166  -24.6936   22.0153 O   0  0  0  0  0  0  0  0  0  0  0  0
  2  1  1  0
  3  2  2  0
  4  3  1  0
  5 11  1  0
  5  4  2  0
  6  5  1  0
  7  6  1  0
  7  8  1  1
  9  7  1  0
  9 10  2  0
 11 12  2  0
 12  2  1  0
 13  9  1  0
 14 13  1  0
 14 15  1  6
 16 15  1  0
 17 14  1  0
 18 17  2  0
 20 30  2  0
 20 19  1  0
 21 20  1  0
 22 23  1  0
 22 21  2  0
 23 29  2  0
 25 24  1  1
 24 23  1  0
 25 26  1  0
 26 17  1  0
 27 28  1  0
 27 25  1  0
 29 30  1  0
 31 27  2  0
M  END
$$$$
