YCY.pdb
     RDKit          3D

 31 32  0  0  1  0  0  0  0  0999 V2000
   -2.4600  -20.7368   22.8400 O   0  0  0  0  0  0  0  0  0  0  0  0
   -1.0722  -20.6287   22.7773 C   0  0  0  0  0  0  0  0  0  0  0  0
   -0.2946  -21.3614   23.6447 C   0  0  0  0  0  0  0  0  0  0  0  0
    1.0801  -21.2777   23.6092 C   0  0  0  0  0  0  0  0  0  0  0  0
    1.7238  -20.4551   22.7013 C   0  0  0  0  0  0  0  0  0  0  0  0
    3.1916  -20.4069   22.7103 C   0  0  0  0  0  0  0  0  0  0  0  0
    3.7014  -21.0194   21.4444 C   0  0  2  0  0  0  0  0  0  0  0  0
    3.3610  -22.4190   21.3363 N   0  0  0  0  0  0  0  0  0  0  0  0
    5.1627  -20.8538   21.2550 C   0  0  0  0  0  0  0  0  0  0  0  0
    6.0040  -21.6120   21.7833 O   0  0  0  0  0  0  0  0  0  0  0  0
    0.9233  -19.7292   21.8407 C   0  0  0  0  0  0  0  0  0  0  0  0
   -0.4468  -19.8050   21.8673 C   0  0  0  0  0  0  0  0  0  0  0  0
    5.6804  -19.7889   20.4368 N   0  0  0  0  0  0  0  0  0  0  0  0
    7.1023  -19.5289   20.3252 C   0  0  1  0  0  0  0  0  0  0  0  0
    7.3406  -18.5848   19.1743 C   0  0  0  0  0  0  0  0  0  0  0  0
    9.0915  -18.1354   19.0286 S   0  0  0  0  0  0  0  0  0  0  0  0
    7.6041  -19.0405   21.6034 C   0  0  0  0  0  0  0  0  0  0  0  0
    7.1220  -17.9968   22.1063 O   0  0  0  0  0  0  0  0  0  0  0  0
    6.4097  -24.2512   25.8698 O   0  0  0  0  0  0  0  0  0  0  0  0
    6.8599  -22.9704   25.5744 C   0  0  0  0  0  0  0  0  0  0  0  0
    6.0321  -22.0229   25.0111 C   0  0  0  0  0  0  0  0  0  0  0  0
    6.4578  -20.7437   24.7090 C   0  0  0  0  0  0  0  0  0  0  0  0
    7.7606  -20.3740   24.9722 C   0  0  0  0  0  0  0  0  0  0  0  0
    8.2911  -19.0316   24.6804 C   0  0  0  0  0  0  0  0  0  0  0  0
    9.2339  -19.0284   23.4942 C   0  0  2  0  0  0  0  0  0  0  0  0
    8.6401  -19.6841   22.3521 N   0  0  0  0  0  0  0  0  0  0  0  0
   10.4450  -19.7777   23.9004 C   0  0  0  0  0  0  0  0  0  0  0  0
   10.9026  -20.8367   23.1352 O   0  0  0  0  0  0  0  0  0  0  0  0
    8.6001  -21.3111   25.5355 C   0  0  0  0  0  0  0  0  0  0  0  0
    8.1781  -22.5945   25.8401 C   0  0  0  0  0  0  0  0  0  0  0  0
   11.1031  -19.4928   24.9404 O   0  0  0  0  0  0  0  0  0  0  0  0
  2  1  1  0
  3  2  2  0
  4  3  1  0
  5 11  1  0
  5  4  2  0
  6  5  1  0
  7  6  1  0
  7  8  1  1
  9  7  1  0
  9 10  2  0
 11 12  2  0
 12  2  1  0
 13  9  1  0
 14 13  1  0
 14 15  1  6
 16 15  1  0
 17 14  1  0
 18 17  2  0
 20 30  2  0
 20 19  1  0
 21 20  1  0
 22 23  1  0
 22 21  2  0
 23 29  2  0
 25 24  1  1
 24 23  1  0
 25 26  1  0
 26 17  1  0
 27 28  1  0
 27 25  1  0
 29 30  1  0
 31 27  2  0
M  END
$$$$
