YCY.pdb
     RDKit          3D

 31 32  0  0  1  0  0  0  0  0999 V2000
    7.9417  -12.4214   16.5482 O   0  0  0  0  0  0  0  0  0  0  0  0
    7.8464  -13.0677   17.7790 C   0  0  0  0  0  0  0  0  0  0  0  0
    6.9951  -14.1400   17.9183 C   0  0  0  0  0  0  0  0  0  0  0  0
    6.8771  -14.8009   19.1213 C   0  0  0  0  0  0  0  0  0  0  0  0
    7.6098  -14.4091   20.2281 C   0  0  0  0  0  0  0  0  0  0  0  0
    7.4422  -15.1518   21.4840 C   0  0  0  0  0  0  0  0  0  0  0  0
    8.3249  -16.3590   21.4510 C   0  0  2  0  0  0  0  0  0  0  0  0
    7.9511  -17.2835   20.4061 N   0  0  0  0  0  0  0  0  0  0  0  0
    8.3876  -17.0802   22.7451 C   0  0  0  0  0  0  0  0  0  0  0  0
    7.6983  -18.0936   22.9893 O   0  0  0  0  0  0  0  0  0  0  0  0
    8.4575  -13.3307   20.0650 C   0  0  0  0  0  0  0  0  0  0  0  0
    8.5828  -12.6650   18.8714 C   0  0  0  0  0  0  0  0  0  0  0  0
    9.2647  -16.6306   23.7938 N   0  0  0  0  0  0  0  0  0  0  0  0
    9.5064  -17.4224   24.9840 C   0  0  1  0  0  0  0  0  0  0  0  0
   10.2107  -18.6965   24.5922 C   0  0  0  0  0  0  0  0  0  0  0  0
   10.7016  -19.6641   26.0453 S   0  0  0  0  0  0  0  0  0  0  0  0
   10.2364  -16.6192   25.9565 C   0  0  0  0  0  0  0  0  0  0  0  0
   11.4046  -16.2382   25.7015 O   0  0  0  0  0  0  0  0  0  0  0  0
    5.7577  -12.2463   24.9842 O   0  0  0  0  0  0  0  0  0  0  0  0
    6.6942  -12.7350   25.8868 C   0  0  0  0  0  0  0  0  0  0  0  0
    7.9892  -12.2633   25.9143 C   0  0  0  0  0  0  0  0  0  0  0  0
    8.9369  -12.7341   26.8026 C   0  0  0  0  0  0  0  0  0  0  0  0
    8.5987  -13.7168   27.7098 C   0  0  0  0  0  0  0  0  0  0  0  0
    9.5496  -14.2708   28.6884 C   0  0  0  0  0  0  0  0  0  0  0  0
   10.4476  -15.3313   28.0846 C   0  0  2  0  0  0  0  0  0  0  0  0
    9.7023  -16.2193   27.2226 N   0  0  0  0  0  0  0  0  0  0  0  0
   11.0098  -16.1151   29.2083 C   0  0  0  0  0  0  0  0  0  0  0  0
   10.7828  -17.4780   29.2940 O   0  0  0  0  0  0  0  0  0  0  0  0
    7.3071  -14.1982   27.6940 C   0  0  0  0  0  0  0  0  0  0  0  0
    6.3536  -13.7295   26.8056 C   0  0  0  0  0  0  0  0  0  0  0  0
   11.7073  -15.5895   30.1212 O   0  0  0  0  0  0  0  0  0  0  0  0
  2  1  1  0
  3  2  2  0
  4  3  1  0
  5 11  1  0
  5  4  2  0
  6  5  1  0
  7  6  1  0
  7  8  1  6
  9  7  1  0
  9 10  2  0
 11 12  2  0
 12  2  1  0
 13  9  1  0
 14 13  1  0
 14 15  1  6
 16 15  1  0
 17 14  1  0
 18 17  2  0
 20 30  2  0
 20 19  1  0
 21 20  1  0
 22 23  1  0
 22 21  2  0
 23 29  2  0
 25 24  1  1
 24 23  1  0
 25 26  1  0
 26 17  1  0
 27 28  1  0
 27 25  1  0
 29 30  1  0
 31 27  2  0
M  END
$$$$
