YCY.pdb
     RDKit          3D

 31 32  0  0  1  0  0  0  0  0999 V2000
   13.1952  -23.9128   17.1268 O   0  0  0  0  0  0  0  0  0  0  0  0
   12.7947  -22.8853   17.9785 C   0  0  0  0  0  0  0  0  0  0  0  0
   13.4818  -21.6929   17.9733 C   0  0  0  0  0  0  0  0  0  0  0  0
   13.1120  -20.6570   18.8028 C   0  0  0  0  0  0  0  0  0  0  0  0
   12.0386  -20.7808   19.6677 C   0  0  0  0  0  0  0  0  0  0  0  0
   11.6912  -19.6426   20.5283 C   0  0  0  0  0  0  0  0  0  0  0  0
   10.4358  -19.0141   20.0121 C   0  0  2  0  0  0  0  0  0  0  0  0
   10.6476  -18.3035   18.7725 N   0  0  0  0  0  0  0  0  0  0  0  0
    9.7822  -18.1111   20.9899 C   0  0  0  0  0  0  0  0  0  0  0  0
   10.1265  -16.9200   21.1465 O   0  0  0  0  0  0  0  0  0  0  0  0
   11.3639  -21.9863   19.6558 C   0  0  0  0  0  0  0  0  0  0  0  0
   11.7237  -23.0247   18.8337 C   0  0  0  0  0  0  0  0  0  0  0  0
    8.7014  -18.5822   21.8152 N   0  0  0  0  0  0  0  0  0  0  0  0
    8.0048  -17.7091   22.7394 C   0  0  1  0  0  0  0  0  0  0  0  0
    6.7051  -18.3575   23.1435 C   0  0  0  0  0  0  0  0  0  0  0  0
    5.9171  -17.4769   24.5193 S   0  0  0  0  0  0  0  0  0  0  0  0
    8.8822  -17.3959   23.8601 C   0  0  0  0  0  0  0  0  0  0  0  0
    9.5900  -18.2978   24.3705 O   0  0  0  0  0  0  0  0  0  0  0  0
    5.4704  -11.2493   25.6872 O   0  0  0  0  0  0  0  0  0  0  0  0
    6.6286  -12.0165   25.7066 C   0  0  0  0  0  0  0  0  0  0  0  0
    7.3278  -12.2442   26.8727 C   0  0  0  0  0  0  0  0  0  0  0  0
    8.4812  -13.0034   26.9159 C   0  0  0  0  0  0  0  0  0  0  0  0
    8.9747  -13.5683   25.7580 C   0  0  0  0  0  0  0  0  0  0  0  0
   10.1963  -14.3899   25.7202 C   0  0  0  0  0  0  0  0  0  0  0  0
    9.8951  -15.8652   25.5520 C   0  0  2  0  0  0  0  0  0  0  0  0
    9.0003  -16.0934   24.4410 N   0  0  0  0  0  0  0  0  0  0  0  0
    9.2361  -16.3185   26.7984 C   0  0  0  0  0  0  0  0  0  0  0  0
    9.9439  -16.3670   27.9870 O   0  0  0  0  0  0  0  0  0  0  0  0
    8.2860  -13.3492   24.5842 C   0  0  0  0  0  0  0  0  0  0  0  0
    7.1294  -12.5889   24.5358 C   0  0  0  0  0  0  0  0  0  0  0  0
    8.0244  -16.6742   26.8355 O   0  0  0  0  0  0  0  0  0  0  0  0
  2  1  1  0
  3  2  2  0
  4  3  1  0
  5 11  1  0
  5  4  2  0
  6  5  1  0
  7  6  1  0
  7  8  1  6
  9  7  1  0
  9 10  2  0
 11 12  2  0
 12  2  1  0
 13  9  1  0
 14 13  1  0
 14 15  1  1
 16 15  1  0
 17 14  1  0
 18 17  2  0
 20 30  2  0
 20 19  1  0
 21 20  1  0
 22 23  1  0
 22 21  2  0
 23 29  2  0
 25 24  1  1
 24 23  1  0
 25 26  1  0
 26 17  1  0
 27 28  1  0
 27 25  1  0
 29 30  1  0
 31 27  2  0
M  END
$$$$
