YCY.pdb
     RDKit          3D

 31 32  0  0  1  0  0  0  0  0999 V2000
    8.8693  -13.1074   16.6051 O   0  0  0  0  0  0  0  0  0  0  0  0
    8.3541  -13.5439   17.8241 C   0  0  0  0  0  0  0  0  0  0  0  0
    9.1892  -14.1466   18.7370 C   0  0  0  0  0  0  0  0  0  0  0  0
    8.7119  -14.5895   19.9510 C   0  0  0  0  0  0  0  0  0  0  0  0
    7.3787  -14.4433   20.2925 C   0  0  0  0  0  0  0  0  0  0  0  0
    6.9276  -14.9349   21.6008 C   0  0  0  0  0  0  0  0  0  0  0  0
    7.0343  -16.4268   21.6177 C   0  0  2  0  0  0  0  0  0  0  0  0
    6.1150  -17.0530   20.6961 N   0  0  0  0  0  0  0  0  0  0  0  0
    6.8550  -17.0165   22.9663 C   0  0  0  0  0  0  0  0  0  0  0  0
    5.8124  -17.6130   23.3112 O   0  0  0  0  0  0  0  0  0  0  0  0
    6.5593  -13.8357   19.3609 C   0  0  0  0  0  0  0  0  0  0  0  0
    7.0241  -13.3908   18.1486 C   0  0  0  0  0  0  0  0  0  0  0  0
    7.8987  -16.9223   23.9528 N   0  0  0  0  0  0  0  0  0  0  0  0
    7.7410  -17.4591   25.2903 C   0  0  1  0  0  0  0  0  0  0  0  0
    7.4132  -18.9276   25.1952 C   0  0  0  0  0  0  0  0  0  0  0  0
    7.3385  -19.7042   26.8323 S   0  0  0  0  0  0  0  0  0  0  0  0
    8.9385  -17.1705   26.0692 C   0  0  0  0  0  0  0  0  0  0  0  0
   10.0491  -17.6213   25.6979 O   0  0  0  0  0  0  0  0  0  0  0  0
    5.6430  -11.9315   25.9971 O   0  0  0  0  0  0  0  0  0  0  0  0
    6.7574  -12.5554   26.5442 C   0  0  0  0  0  0  0  0  0  0  0  0
    7.2336  -12.2228   27.7944 C   0  0  0  0  0  0  0  0  0  0  0  0
    8.3394  -12.8295   28.3583 C   0  0  0  0  0  0  0  0  0  0  0  0
    9.0128  -13.8118   27.6620 C   0  0  0  0  0  0  0  0  0  0  0  0
   10.1981  -14.5061   28.1927 C   0  0  0  0  0  0  0  0  0  0  0  0
   10.1887  -15.9881   27.8776 C   0  0  2  0  0  0  0  0  0  0  0  0
    8.9418  -16.3851   27.2656 N   0  0  0  0  0  0  0  0  0  0  0  0
   10.3407  -16.7062   29.1639 C   0  0  0  0  0  0  0  0  0  0  0  0
    9.3575  -17.5779   29.5995 O   0  0  0  0  0  0  0  0  0  0  0  0
    8.5481  -14.1550   26.4104 C   0  0  0  0  0  0  0  0  0  0  0  0
    7.4401  -13.5497   25.8409 C   0  0  0  0  0  0  0  0  0  0  0  0
   11.3514  -16.5608   29.9078 O   0  0  0  0  0  0  0  0  0  0  0  0
  2  1  1  0
  3  2  2  0
  4  3  1  0
  5 11  1  0
  5  4  2  0
  6  5  1  0
  7  6  1  0
  7  8  1  6
  9  7  1  0
  9 10  2  0
 11 12  2  0
 12  2  1  0
 13  9  1  0
 14 13  1  0
 14 15  1  6
 16 15  1  0
 17 14  1  0
 18 17  2  0
 20 30  2  0
 20 19  1  0
 21 20  1  0
 22 23  1  0
 22 21  2  0
 23 29  2  0
 25 24  1  1
 24 23  1  0
 25 26  1  0
 26 17  1  0
 27 28  1  0
 27 25  1  0
 29 30  1  0
 31 27  2  0
M  END
$$$$
