YCY.pdb
     RDKit          3D

 31 32  0  0  1  0  0  0  0  0999 V2000
   -0.2277  -27.7024   16.2844 O   0  0  0  0  0  0  0  0  0  0  0  0
    1.1162  -27.6175   16.6428 C   0  0  0  0  0  0  0  0  0  0  0  0
    1.4649  -27.0194   17.8321 C   0  0  0  0  0  0  0  0  0  0  0  0
    2.7841  -26.9190   18.2162 C   0  0  0  0  0  0  0  0  0  0  0  0
    3.8012  -27.4157   17.4197 C   0  0  0  0  0  0  0  0  0  0  0  0
    5.1888  -27.2799   17.8812 C   0  0  0  0  0  0  0  0  0  0  0  0
    5.6926  -25.9240   17.5001 C   0  0  2  0  0  0  0  0  0  0  0  0
    5.7674  -25.7491   16.0682 N   0  0  0  0  0  0  0  0  0  0  0  0
    7.0049  -25.5903   18.1044 C   0  0  0  0  0  0  0  0  0  0  0  0
    8.0930  -25.8725   17.5583 O   0  0  0  0  0  0  0  0  0  0  0  0
    3.4277  -28.0118   16.2308 C   0  0  0  0  0  0  0  0  0  0  0  0
    2.1168  -28.1171   15.8384 C   0  0  0  0  0  0  0  0  0  0  0  0
    7.0778  -24.9131   19.3722 N   0  0  0  0  0  0  0  0  0  0  0  0
    8.3428  -24.6497   20.0297 C   0  0  1  0  0  0  0  0  0  0  0  0
    8.2009  -23.4236   20.8955 C   0  0  0  0  0  0  0  0  0  0  0  0
    9.8085  -22.6584   21.2408 S   0  0  0  0  0  0  0  0  0  0  0  0
    8.7647  -25.8404   20.7566 C   0  0  0  0  0  0  0  0  0  0  0  0
    7.9733  -26.8053   20.8881 O   0  0  0  0  0  0  0  0  0  0  0  0
   12.1323  -33.4983   22.2978 O   0  0  0  0  0  0  0  0  0  0  0  0
   11.7451  -32.2212   21.9112 C   0  0  0  0  0  0  0  0  0  0  0  0
   10.9038  -31.4528   22.6871 C   0  0  0  0  0  0  0  0  0  0  0  0
   10.5057  -30.1809   22.3229 C   0  0  0  0  0  0  0  0  0  0  0  0
   10.9546  -29.6341   21.1385 C   0  0  0  0  0  0  0  0  0  0  0  0
   10.5772  -28.2866   20.6797 C   0  0  0  0  0  0  0  0  0  0  0  0
   10.4975  -27.2901   21.8183 C   0  0  2  0  0  0  0  0  0  0  0  0
   10.0572  -25.9960   21.3511 N   0  0  0  0  0  0  0  0  0  0  0  0
   11.8630  -27.1585   22.3763 C   0  0  0  0  0  0  0  0  0  0  0  0
   12.4318  -28.2004   23.0884 O   0  0  0  0  0  0  0  0  0  0  0  0
   11.7967  -30.3910   20.3521 C   0  0  0  0  0  0  0  0  0  0  0  0
   12.1985  -31.6663   20.7129 C   0  0  0  0  0  0  0  0  0  0  0  0
   12.5578  -26.1132   22.2323 O   0  0  0  0  0  0  0  0  0  0  0  0
  2  1  1  0
  3  2  2  0
  4  3  1  0
  5 11  1  0
  5  4  2  0
  6  5  1  0
  7  6  1  0
  7  8  1  6
  9  7  1  0
  9 10  2  0
 11 12  2  0
 12  2  1  0
 13  9  1  0
 14 13  1  0
 14 15  1  1
 16 15  1  0
 17 14  1  0
 18 17  2  0
 20 30  2  0
 20 19  1  0
 21 20  1  0
 22 23  1  0
 22 21  2  0
 23 29  2  0
 25 24  1  6
 24 23  1  0
 25 26  1  0
 26 17  1  0
 27 28  1  0
 27 25  1  0
 29 30  1  0
 31 27  2  0
M  END
$$$$
