YCY.pdb
     RDKit          3D

 31 32  0  0  1  0  0  0  0  0999 V2000
    5.0060  -24.1009   21.9440 O   0  0  0  0  0  0  0  0  0  0  0  0
    5.0427  -22.7119   22.0497 C   0  0  0  0  0  0  0  0  0  0  0  0
    6.1476  -22.0260   21.5994 C   0  0  0  0  0  0  0  0  0  0  0  0
    6.2159  -20.6530   21.6891 C   0  0  0  0  0  0  0  0  0  0  0  0
    5.1771  -19.9188   22.2344 C   0  0  0  0  0  0  0  0  0  0  0  0
    5.3064  -18.4576   22.3036 C   0  0  0  0  0  0  0  0  0  0  0  0
    6.3628  -18.1145   23.3056 C   0  0  2  0  0  0  0  0  0  0  0  0
    6.0889  -18.6791   24.6066 N   0  0  0  0  0  0  0  0  0  0  0  0
    6.5957  -16.6565   23.4425 C   0  0  0  0  0  0  0  0  0  0  0  0
    6.8611  -15.9191   22.4691 O   0  0  0  0  0  0  0  0  0  0  0  0
    4.0785  -20.6282   22.6797 C   0  0  0  0  0  0  0  0  0  0  0  0
    4.0000  -21.9957   22.5953 C   0  0  0  0  0  0  0  0  0  0  0  0
    6.5234  -16.0199   24.7312 N   0  0  0  0  0  0  0  0  0  0  0  0
    6.7825  -14.6038   24.9030 C   0  0  1  0  0  0  0  0  0  0  0  0
    6.0718  -14.1208   26.1418 C   0  0  0  0  0  0  0  0  0  0  0  0
    6.3404  -12.3489   26.4196 S   0  0  0  0  0  0  0  0  0  0  0  0
    8.2219  -14.3764   24.9214 C   0  0  0  0  0  0  0  0  0  0  0  0
    8.6731  -13.2153   24.7703 O   0  0  0  0  0  0  0  0  0  0  0  0
   10.2659  -16.4824   31.3545 O   0  0  0  0  0  0  0  0  0  0  0  0
   10.4453  -15.9345   30.0904 C   0  0  0  0  0  0  0  0  0  0  0  0
   10.4620  -16.7181   28.9564 C   0  0  0  0  0  0  0  0  0  0  0  0
   10.6387  -16.1954   27.6898 C   0  0  0  0  0  0  0  0  0  0  0  0
   10.8076  -14.8361   27.5259 C   0  0  0  0  0  0  0  0  0  0  0  0
   11.0011  -14.2016   26.2111 C   0  0  0  0  0  0  0  0  0  0  0  0
   10.6032  -15.1113   25.0666 C   0  0  2  0  0  0  0  0  0  0  0  0
    9.1910  -15.4134   25.1050 N   0  0  0  0  0  0  0  0  0  0  0  0
   11.3666  -16.3701   25.2272 C   0  0  0  0  0  0  0  0  0  0  0  0
   12.7454  -16.3735   25.1035 O   0  0  0  0  0  0  0  0  0  0  0  0
   10.7932  -14.0397   28.6510 C   0  0  0  0  0  0  0  0  0  0  0  0
   10.6164  -14.5590   29.9227 C   0  0  0  0  0  0  0  0  0  0  0  0
   10.8089  -17.4754   25.4789 O   0  0  0  0  0  0  0  0  0  0  0  0
  2  1  1  0
  3  2  2  0
  4  3  1  0
  5 11  1  0
  5  4  2  0
  6  5  1  0
  7  6  1  0
  7  8  1  1
  9  7  1  0
  9 10  2  0
 11 12  2  0
 12  2  1  0
 13  9  1  0
 14 13  1  0
 14 15  1  1
 16 15  1  0
 17 14  1  0
 18 17  2  0
 20 30  2  0
 20 19  1  0
 21 20  1  0
 22 23  1  0
 22 21  2  0
 23 29  2  0
 25 24  1  1
 24 23  1  0
 25 26  1  0
 26 17  1  0
 27 28  1  0
 27 25  1  0
 29 30  1  0
 31 27  2  0
M  END
$$$$
