HLA.pdb
     RDKit          3D

 24 24  0  0  1  0  0  0  0  0999 V2000
   10.3025  -14.4442   20.7782 N   0  0  0  0  0  0  0  0  0  0  0  0
    8.9828  -14.3537   21.3528 C   0  0  1  0  0  0  0  0  0  0  0  0
    8.0519  -15.1868   20.5402 C   0  0  0  0  0  0  0  0  0  0  0  0
    7.9391  -14.5850   19.1861 C   0  0  0  0  0  0  0  0  0  0  0  0
    8.6073  -13.5071   18.6437 C   0  0  0  0  0  0  0  0  0  0  0  0
    8.2099  -13.2913   17.3858 N   0  0  0  0  0  0  0  0  0  0  0  0
    7.2862  -14.2255   17.1106 C   0  0  0  0  0  0  0  0  0  0  0  0
    7.1166  -15.0096   18.1900 N   0  0  0  0  0  0  0  0  0  0  0  0
    8.9847  -14.6859   22.7885 C   0  0  0  0  0  0  0  0  0  0  0  0
    9.9821  -15.2387   23.2713 O   0  0  0  0  0  0  0  0  0  0  0  0
    5.5631  -12.1531   26.7536 C   0  0  0  0  0  0  0  0  0  0  0  0
    6.8565  -12.4928   25.9857 C   0  0  1  0  0  0  0  0  0  0  0  0
    7.9771  -11.7964   26.6656 C   0  0  0  0  0  0  0  0  0  0  0  0
    6.9130  -13.9782   25.9224 C   0  0  0  0  0  0  0  0  0  0  0  0
    7.9090  -14.6179   25.0645 C   0  0  2  0  0  0  0  0  0  0  0  0
    7.9153  -14.4167   23.6721 N   0  0  0  0  0  0  0  0  0  0  0  0
    7.9353  -16.0908   25.3893 C   0  0  0  0  0  0  0  0  0  0  0  0
    6.9091  -16.8099   25.2775 O   0  0  0  0  0  0  0  0  0  0  0  0
   10.0389  -18.9661   25.4141 C   0  0  0  0  0  0  0  0  0  0  0  0
    9.1481  -18.1070   26.2984 C   0  0  2  0  0  0  0  0  0  0  0  0
    9.1228  -16.7338   25.8372 N   0  0  0  0  0  0  0  0  0  0  0  0
    9.5250  -18.2102   27.7209 C   0  0  0  0  0  0  0  0  0  0  0  0
    9.4256  -19.4190   28.3883 O   0  0  0  0  0  0  0  0  0  0  0  0
    9.9370  -17.1999   28.3283 O   0  0  0  0  0  0  0  0  0  0  0  0
  2  1  1  6
  3  2  1  0
  4  3  1  0
  5  4  2  0
  6  7  1  0
  6  5  1  0
  7  8  2  0
  8  4  1  0
  9 10  2  0
  9  2  1  0
 12 11  1  1
 12 14  1  0
 12 13  1  0
 15 14  1  6
 15 16  1  0
 16  9  1  0
 17 15  1  0
 18 17  2  0
 20 19  1  6
 20 21  1  0
 21 17  1  0
 22 23  1  0
 22 20  1  0
 24 22  2  0
M  END
$$$$
