HLA.pdb
     RDKit          3D

 24 24  0  0  1  0  0  0  0  0999 V2000
    9.2289  -15.9158   20.4741 N   0  0  0  0  0  0  0  0  0  0  0  0
    8.5851  -16.5507   21.5976 C   0  0  1  0  0  0  0  0  0  0  0  0
    9.0972  -17.9454   21.7137 C   0  0  0  0  0  0  0  0  0  0  0  0
    8.6200  -18.7230   20.5406 C   0  0  0  0  0  0  0  0  0  0  0  0
    7.3680  -18.7660   19.9635 C   0  0  0  0  0  0  0  0  0  0  0  0
    7.3599  -19.5985   18.9178 N   0  0  0  0  0  0  0  0  0  0  0  0
    8.6024  -20.0956   18.8146 C   0  0  0  0  0  0  0  0  0  0  0  0
    9.3687  -19.5734   19.7887 N   0  0  0  0  0  0  0  0  0  0  0  0
    8.7251  -15.7573   22.8315 C   0  0  0  0  0  0  0  0  0  0  0  0
    9.8485  -15.6357   23.3380 O   0  0  0  0  0  0  0  0  0  0  0  0
    7.6999  -11.5051   26.1055 C   0  0  0  0  0  0  0  0  0  0  0  0
    6.7796  -12.7148   26.3660 C   0  0  1  0  0  0  0  0  0  0  0  0
    5.5218  -12.2001   26.9628 C   0  0  0  0  0  0  0  0  0  0  0  0
    6.6758  -13.4332   25.0674 C   0  0  0  0  0  0  0  0  0  0  0  0
    7.7350  -14.3639   24.6808 C   0  0  2  0  0  0  0  0  0  0  0  0
    7.6552  -15.1131   23.4926 N   0  0  0  0  0  0  0  0  0  0  0  0
    8.0265  -15.2618   25.8574 C   0  0  0  0  0  0  0  0  0  0  0  0
    8.2104  -14.7981   27.0123 O   0  0  0  0  0  0  0  0  0  0  0  0
    7.4378  -18.8089   26.7144 C   0  0  0  0  0  0  0  0  0  0  0  0
    8.3113  -17.5695   26.8352 C   0  0  2  0  0  0  0  0  0  0  0  0
    8.1069  -16.6751   25.7139 N   0  0  0  0  0  0  0  0  0  0  0  0
    9.7332  -17.9170   27.0187 C   0  0  0  0  0  0  0  0  0  0  0  0
   10.1478  -18.6097   28.1433 O   0  0  0  0  0  0  0  0  0  0  0  0
   10.5698  -17.5841   26.1535 O   0  0  0  0  0  0  0  0  0  0  0  0
  2  1  1  6
  3  2  1  0
  4  3  1  0
  5  4  2  0
  6  7  1  0
  6  5  1  0
  7  8  2  0
  8  4  1  0
  9 10  2  0
  9  2  1  0
 12 11  1  6
 12 14  1  0
 12 13  1  0
 15 14  1  1
 15 16  1  0
 16  9  1  0
 17 15  1  0
 18 17  2  0
 20 19  1  6
 20 21  1  0
 21 17  1  0
 22 23  1  0
 22 20  1  0
 24 22  2  0
M  END
$$$$
