HLA.pdb
     RDKit          3D

 24 24  0  0  1  0  0  0  0  0999 V2000
   10.3475  -16.1653   20.6033 N   0  0  0  0  0  0  0  0  0  0  0  0
    9.2929  -16.5381   21.5137 C   0  0  1  0  0  0  0  0  0  0  0  0
    9.3096  -18.0190   21.6804 C   0  0  0  0  0  0  0  0  0  0  0  0
    8.3578  -18.6147   20.7068 C   0  0  0  0  0  0  0  0  0  0  0  0
    7.6376  -18.0101   19.6977 C   0  0  0  0  0  0  0  0  0  0  0  0
    6.8925  -18.9093   19.0473 N   0  0  0  0  0  0  0  0  0  0  0  0
    7.1271  -20.0950   19.6311 C   0  0  0  0  0  0  0  0  0  0  0  0
    8.0091  -19.9268   20.6323 N   0  0  0  0  0  0  0  0  0  0  0  0
    9.3728  -15.7923   22.7822 C   0  0  0  0  0  0  0  0  0  0  0  0
   10.4740  -15.6746   23.3363 O   0  0  0  0  0  0  0  0  0  0  0  0
    8.2169  -11.9045   26.3375 C   0  0  0  0  0  0  0  0  0  0  0  0
    7.1851  -13.0471   26.4259 C   0  0  1  0  0  0  0  0  0  0  0  0
    5.9172  -12.4670   26.9347 C   0  0  0  0  0  0  0  0  0  0  0  0
    7.1568  -13.6741   25.0770 C   0  0  0  0  0  0  0  0  0  0  0  0
    8.2895  -14.4923   24.6472 C   0  0  2  0  0  0  0  0  0  0  0  0
    8.2683  -15.1905   23.4259 N   0  0  0  0  0  0  0  0  0  0  0  0
    8.6621  -15.4150   25.7809 C   0  0  0  0  0  0  0  0  0  0  0  0
    7.8349  -16.2261   26.2712 O   0  0  0  0  0  0  0  0  0  0  0  0
   11.8367  -16.8248   27.0572 C   0  0  0  0  0  0  0  0  0  0  0  0
   10.4051  -16.3858   27.3243 C   0  0  2  0  0  0  0  0  0  0  0  0
    9.9673  -15.4096   26.3475 N   0  0  0  0  0  0  0  0  0  0  0  0
   10.2279  -15.9073   28.7085 C   0  0  0  0  0  0  0  0  0  0  0  0
   10.3263  -16.7859   29.7738 O   0  0  0  0  0  0  0  0  0  0  0  0
    9.9873  -14.7006   28.9216 O   0  0  0  0  0  0  0  0  0  0  0  0
  2  1  1  6
  3  2  1  0
  4  3  1  0
  5  4  2  0
  6  7  1  0
  6  5  1  0
  7  8  2  0
  8  4  1  0
  9 10  2  0
  9  2  1  0
 12 11  1  6
 12 14  1  0
 12 13  1  0
 15 14  1  1
 15 16  1  0
 16  9  1  0
 17 15  1  0
 18 17  2  0
 20 19  1  6
 20 21  1  0
 21 17  1  0
 22 23  1  0
 22 20  1  0
 24 22  2  0
M  END
$$$$
