HLA.pdb
     RDKit          3D

 24 24  0  0  1  0  0  0  0  0999 V2000
   10.7648  -16.0453   21.1907 N   0  0  0  0  0  0  0  0  0  0  0  0
    9.6065  -15.2394   21.4890 C   0  0  1  0  0  0  0  0  0  0  0  0
    8.4491  -15.7627   20.7095 C   0  0  0  0  0  0  0  0  0  0  0  0
    8.1671  -14.8223   19.5938 C   0  0  0  0  0  0  0  0  0  0  0  0
    8.8204  -13.6619   19.2346 C   0  0  0  0  0  0  0  0  0  0  0  0
    8.2441  -13.1098   18.1624 N   0  0  0  0  0  0  0  0  0  0  0  0
    7.2192  -13.9081   17.8249 C   0  0  0  0  0  0  0  0  0  0  0  0
    7.1653  -14.9428   18.6824 N   0  0  0  0  0  0  0  0  0  0  0  0
    9.3591  -15.1483   22.9389 C   0  0  0  0  0  0  0  0  0  0  0  0
   10.2262  -15.5643   23.7190 O   0  0  0  0  0  0  0  0  0  0  0  0
    7.8565  -11.8947   26.9919 C   0  0  0  0  0  0  0  0  0  0  0  0
    6.7495  -12.9115   26.6473 C   0  0  1  0  0  0  0  0  0  0  0  0
    5.4501  -12.3062   27.0322 C   0  0  0  0  0  0  0  0  0  0  0  0
    6.9453  -13.2545   25.2130 C   0  0  0  0  0  0  0  0  0  0  0  0
    8.0414  -14.1455   24.8362 C   0  0  2  0  0  0  0  0  0  0  0  0
    8.1863  -14.6126   23.5170 N   0  0  0  0  0  0  0  0  0  0  0  0
    8.0730  -15.2941   25.8136 C   0  0  0  0  0  0  0  0  0  0  0  0
    8.0921  -15.1027   27.0569 O   0  0  0  0  0  0  0  0  0  0  0  0
    7.6461  -19.0449   25.6208 C   0  0  0  0  0  0  0  0  0  0  0  0
    8.1454  -17.7710   26.2852 C   0  0  2  0  0  0  0  0  0  0  0  0
    8.0826  -16.6470   25.3733 N   0  0  0  0  0  0  0  0  0  0  0  0
    9.4917  -17.9454   26.8626 C   0  0  0  0  0  0  0  0  0  0  0  0
    9.7201  -18.9027   27.8362 O   0  0  0  0  0  0  0  0  0  0  0  0
   10.4329  -17.2244   26.4706 O   0  0  0  0  0  0  0  0  0  0  0  0
  2  1  1  1
  3  2  1  0
  4  3  1  0
  5  4  2  0
  6  7  1  0
  6  5  1  0
  7  8  2  0
  8  4  1  0
  9 10  2  0
  9  2  1  0
 12 11  1  6
 12 14  1  0
 12 13  1  0
 15 14  1  6
 15 16  1  0
 16  9  1  0
 17 15  1  0
 18 17  2  0
 20 19  1  6
 20 21  1  0
 21 17  1  0
 22 23  1  0
 22 20  1  0
 24 22  2  0
M  END
$$$$
