HLA.pdb
     RDKit          3D

 24 24  0  0  1  0  0  0  0  0999 V2000
    9.9465  -18.5398   18.8404 N   0  0  0  0  0  0  0  0  0  0  0  0
   11.1181  -17.7019   18.9134 C   0  0  1  0  0  0  0  0  0  0  0  0
   11.4671  -17.2510   17.5364 C   0  0  0  0  0  0  0  0  0  0  0  0
   11.7975  -18.4463   16.7175 C   0  0  0  0  0  0  0  0  0  0  0  0
   12.7137  -19.4496   16.9546 C   0  0  0  0  0  0  0  0  0  0  0  0
   12.6991  -20.3447   15.9620 N   0  0  0  0  0  0  0  0  0  0  0  0
   11.7765  -19.9254   15.0819 C   0  0  0  0  0  0  0  0  0  0  0  0
   11.2280  -18.7818   15.5292 N   0  0  0  0  0  0  0  0  0  0  0  0
   10.9472  -16.6011   19.8781 C   0  0  0  0  0  0  0  0  0  0  0  0
   11.9185  -15.8771   20.1348 O   0  0  0  0  0  0  0  0  0  0  0  0
    6.3522  -13.3795   20.5255 C   0  0  0  0  0  0  0  0  0  0  0  0
    7.7806  -13.8752   20.2224 C   0  0  1  0  0  0  0  0  0  0  0  0
    8.5530  -12.7215   19.6977 C   0  0  0  0  0  0  0  0  0  0  0  0
    8.2660  -14.5080   21.4783 C   0  0  0  0  0  0  0  0  0  0  0  0
    9.5211  -15.2576   21.4601 C   0  0  2  0  0  0  0  0  0  0  0  0
    9.7372  -16.3038   20.5446 N   0  0  0  0  0  0  0  0  0  0  0  0
    9.8196  -15.7119   22.8672 C   0  0  0  0  0  0  0  0  0  0  0  0
    9.7464  -14.9238   23.8451 O   0  0  0  0  0  0  0  0  0  0  0  0
    9.9645  -18.8655   24.7845 C   0  0  0  0  0  0  0  0  0  0  0  0
   10.5661  -17.5021   24.4798 C   0  0  2  0  0  0  0  0  0  0  0  0
   10.1979  -17.0536   23.1524 N   0  0  0  0  0  0  0  0  0  0  0  0
   12.0266  -17.4888   24.6874 C   0  0  0  0  0  0  0  0  0  0  0  0
   12.5610  -17.7473   25.9380 O   0  0  0  0  0  0  0  0  0  0  0  0
   12.7872  -17.2425   23.7281 O   0  0  0  0  0  0  0  0  0  0  0  0
  2  1  1  6
  3  2  1  0
  4  3  1  0
  5  4  2  0
  6  7  1  0
  6  5  1  0
  7  8  2  0
  8  4  1  0
  9 10  2  0
  9  2  1  0
 12 11  1  1
 12 14  1  0
 12 13  1  0
 15 14  1  1
 15 16  1  0
 16  9  1  0
 17 15  1  0
 18 17  2  0
 20 19  1  6
 20 21  1  0
 21 17  1  0
 22 23  1  0
 22 20  1  0
 24 22  2  0
M  END
$$$$
