HLA.pdb
     RDKit          3D

 24 24  0  0  1  0  0  0  0  0999 V2000
    9.8482  -15.6182   20.4930 N   0  0  0  0  0  0  0  0  0  0  0  0
    8.7132  -15.8936   21.3391 C   0  0  1  0  0  0  0  0  0  0  0  0
    8.3049  -17.3131   21.1405 C   0  0  0  0  0  0  0  0  0  0  0  0
    7.7038  -17.4468   19.7880 C   0  0  0  0  0  0  0  0  0  0  0  0
    7.5749  -16.5083   18.7855 C   0  0  0  0  0  0  0  0  0  0  0  0
    6.9705  -17.0396   17.7182 N   0  0  0  0  0  0  0  0  0  0  0  0
    6.7069  -18.3194   18.0250 C   0  0  0  0  0  0  0  0  0  0  0  0
    7.1454  -18.5736   19.2707 N   0  0  0  0  0  0  0  0  0  0  0  0
    8.9766  -15.5378   22.7447 C   0  0  0  0  0  0  0  0  0  0  0  0
   10.1250  -15.6710   23.1883 O   0  0  0  0  0  0  0  0  0  0  0  0
    5.6891  -12.3563   26.4466 C   0  0  0  0  0  0  0  0  0  0  0  0
    6.9217  -12.7349   25.6007 C   0  0  1  0  0  0  0  0  0  0  0  0
    8.0232  -11.8141   25.9774 C   0  0  0  0  0  0  0  0  0  0  0  0
    7.1390  -14.1891   25.8277 C   0  0  0  0  0  0  0  0  0  0  0  0
    8.1435  -14.8927   25.0319 C   0  0  2  0  0  0  0  0  0  0  0  0
    8.0004  -15.0475   23.6409 N   0  0  0  0  0  0  0  0  0  0  0  0
    8.4200  -16.2218   25.6895 C   0  0  0  0  0  0  0  0  0  0  0  0
    7.5269  -17.1005   25.8037 O   0  0  0  0  0  0  0  0  0  0  0  0
   11.2255  -18.4626   26.1870 C   0  0  0  0  0  0  0  0  0  0  0  0
   10.0074  -17.8167   26.8294 C   0  0  2  0  0  0  0  0  0  0  0  0
    9.7046  -16.5422   26.2107 N   0  0  0  0  0  0  0  0  0  0  0  0
   10.1543  -17.7048   28.2930 C   0  0  0  0  0  0  0  0  0  0  0  0
   10.3341  -18.8364   29.0698 O   0  0  0  0  0  0  0  0  0  0  0  0
   10.1162  -16.5809   28.8360 O   0  0  0  0  0  0  0  0  0  0  0  0
  2  1  1  6
  3  2  1  0
  4  3  1  0
  5  4  2  0
  6  7  1  0
  6  5  1  0
  7  8  2  0
  8  4  1  0
  9 10  2  0
  9  2  1  0
 12 11  1  1
 12 14  1  0
 12 13  1  0
 15 14  1  1
 15 16  1  0
 16  9  1  0
 17 15  1  0
 18 17  2  0
 20 19  1  6
 20 21  1  0
 21 17  1  0
 22 23  1  0
 22 20  1  0
 24 22  2  0
M  END
$$$$
