HLA.pdb
     RDKit          3D

 24 24  0  0  1  0  0  0  0  0999 V2000
   11.3960  -17.3070   16.3080 N   0  0  0  0  0  0  0  0  0  0  0  0
   10.4595  -17.5098   17.3859 C   0  0  1  0  0  0  0  0  0  0  0  0
   10.5812  -18.9163   17.8636 C   0  0  0  0  0  0  0  0  0  0  0  0
   10.1250  -19.8245   16.7794 C   0  0  0  0  0  0  0  0  0  0  0  0
    9.1166  -19.6533   15.8540 C   0  0  0  0  0  0  0  0  0  0  0  0
    9.0315  -20.7164   15.0483 N   0  0  0  0  0  0  0  0  0  0  0  0
    9.9812  -21.5766   15.4480 C   0  0  0  0  0  0  0  0  0  0  0  0
   10.6452  -21.0472   16.4909 N   0  0  0  0  0  0  0  0  0  0  0  0
   10.6179  -16.5012   18.4486 C   0  0  0  0  0  0  0  0  0  0  0  0
   11.7371  -16.0067   18.6392 O   0  0  0  0  0  0  0  0  0  0  0  0
    6.7030  -12.7939   20.4243 C   0  0  0  0  0  0  0  0  0  0  0  0
    7.9800  -13.3546   19.7662 C   0  0  1  0  0  0  0  0  0  0  0  0
    8.8101  -12.1991   19.3433 C   0  0  0  0  0  0  0  0  0  0  0  0
    8.5700  -14.2929   20.7586 C   0  0  0  0  0  0  0  0  0  0  0  0
    9.6864  -15.1468   20.3564 C   0  0  2  0  0  0  0  0  0  0  0  0
    9.5707  -16.0474   19.2817 N   0  0  0  0  0  0  0  0  0  0  0  0
   10.2098  -15.8488   21.5847 C   0  0  0  0  0  0  0  0  0  0  0  0
   10.5062  -15.2161   22.6309 O   0  0  0  0  0  0  0  0  0  0  0  0
   10.2338  -19.3076   22.9505 C   0  0  0  0  0  0  0  0  0  0  0  0
   10.9162  -17.9602   22.7704 C   0  0  2  0  0  0  0  0  0  0  0  0
   10.3921  -17.2596   21.6156 N   0  0  0  0  0  0  0  0  0  0  0  0
   12.3848  -18.0915   22.7233 C   0  0  0  0  0  0  0  0  0  0  0  0
   13.0770  -18.6282   23.7953 O   0  0  0  0  0  0  0  0  0  0  0  0
   13.0089  -17.7159   21.7091 O   0  0  0  0  0  0  0  0  0  0  0  0
  2  1  1  6
  3  2  1  0
  4  3  1  0
  5  4  2  0
  6  7  1  0
  6  5  1  0
  7  8  2  0
  8  4  1  0
  9 10  2  0
  9  2  1  0
 12 11  1  1
 12 14  1  0
 12 13  1  0
 15 14  1  1
 15 16  1  0
 16  9  1  0
 17 15  1  0
 18 17  2  0
 20 19  1  6
 20 21  1  0
 21 17  1  0
 22 23  1  0
 22 20  1  0
 24 22  2  0
M  END
$$$$
