YRA.pdb
     RDKit          3D

 29 29  0  0  1  0  0  0  0  0999 V2000
   15.3366  -31.0053   -5.4188 O   0  0  0  0  0  0  0  0  0  0  0  0
   16.4995  -31.7498   -5.2260 C   0  0  0  0  0  0  0  0  0  0  0  0
   17.7456  -31.2555   -5.5445 C   0  0  0  0  0  0  0  0  0  0  0  0
   18.8996  -31.9908   -5.3537 C   0  0  0  0  0  0  0  0  0  0  0  0
   18.8483  -33.2680   -4.8294 C   0  0  0  0  0  0  0  0  0  0  0  0
   20.0797  -34.0929   -4.6157 C   0  0  0  0  0  0  0  0  0  0  0  0
   20.4545  -34.7203   -5.9405 C   0  0  2  0  0  0  0  0  0  0  0  0
   19.4329  -35.6621   -6.3249 N   0  0  0  0  0  0  0  0  0  0  0  0
   21.7913  -35.3773   -5.8114 C   0  0  0  0  0  0  0  0  0  0  0  0
   21.8093  -36.6020   -5.5390 O   0  0  0  0  0  0  0  0  0  0  0  0
   17.6049  -33.7707   -4.5077 C   0  0  0  0  0  0  0  0  0  0  0  0
   16.4411  -33.0286   -4.7001 C   0  0  0  0  0  0  0  0  0  0  0  0
   23.8339  -33.0110  -10.4566 N   0  0  0  0  0  0  0  0  0  0  0  0
   25.2102  -33.2749  -10.2342 C   0  0  0  0  0  0  0  0  0  0  0  0
   26.0578  -32.3097  -10.4359 N   0  0  0  0  0  0  0  0  0  0  0  0
   25.7056  -34.5255   -9.8083 N   0  0  0  0  0  0  0  0  0  0  0  0
   24.7951  -35.6189   -9.5986 C   0  0  0  0  0  0  0  0  0  0  0  0
   24.0814  -35.5366   -8.2731 C   0  0  0  0  0  0  0  0  0  0  0  0
   25.0501  -35.3644   -7.1346 C   0  0  0  0  0  0  0  0  0  0  0  0
   24.3160  -35.2697   -5.8262 C   0  0  2  0  0  0  0  0  0  0  0  0
   22.9973  -34.6936   -5.9805 N   0  0  0  0  0  0  0  0  0  0  0  0
   25.1429  -34.3433   -4.9682 C   0  0  0  0  0  0  0  0  0  0  0  0
   25.0417  -33.1168   -5.1637 O   0  0  0  0  0  0  0  0  0  0  0  0
   27.0683  -32.4107  -10.2659 C   0  0  0  0  0  0  0  0  0  0  0  0
   26.0731  -33.6707   -1.7995 C   0  0  2  0  0  0  0  0  0  0  0  0
   26.7954  -33.9398   -3.1017 N   0  0  0  0  0  0  0  0  0  0  0  0
   26.0181  -34.8122   -3.9634 C   0  0  0  0  0  0  0  0  0  0  0  0
   28.1572  -34.4539   -2.8739 O   0  0  0  0  0  0  0  0  0  0  0  0
   28.4584  -35.5940   -3.2743 O   0  0  0  0  0  0  0  0  0  0  0  0
  2 12  2  0
  2  1  1  0
  3  2  1  0
  4  3  2  0
  5  4  1  0
  5 11  2  0
  6  5  1  0
  7  9  1  0
  7  6  1  0
  7  8  1  1
  9 10  2  0
 11 12  1  0
 14 13  1  0
 15 14  2  0
 16 14  1  0
 17 18  1  0
 17 16  1  0
 18 19  1  0
 20 19  1  6
 21 20  1  0
 21  9  1  0
 22 20  1  0
 23 22  2  0
 25 24  1  6
 25 26  1  0
 26 22  1  0
 27 25  1  0
 27 29  1  0
 28 27  2  0
M  END
$$$$
