YRA.pdb
     RDKit          3D

 29 29  0  0  1  0  0  0  0  0999 V2000
   30.8642  -16.4782  -18.9697 O   0  0  0  0  0  0  0  0  0  0  0  0
   29.8112  -17.1417  -18.3413 C   0  0  0  0  0  0  0  0  0  0  0  0
   28.7788  -17.7136  -19.0524 C   0  0  0  0  0  0  0  0  0  0  0  0
   27.7347  -18.3724  -18.4321 C   0  0  0  0  0  0  0  0  0  0  0  0
   27.6842  -18.4844  -17.0560 C   0  0  0  0  0  0  0  0  0  0  0  0
   26.5638  -19.1868  -16.3532 C   0  0  0  0  0  0  0  0  0  0  0  0
   27.1635  -20.2910  -15.5104 C   0  0  2  0  0  0  0  0  0  0  0  0
   27.6941  -21.3138  -16.3769 N   0  0  0  0  0  0  0  0  0  0  0  0
   26.1143  -20.8332  -14.5936 C   0  0  0  0  0  0  0  0  0  0  0  0
   25.4775  -21.8439  -14.9778 O   0  0  0  0  0  0  0  0  0  0  0  0
   28.7136  -17.9148  -16.3364 C   0  0  0  0  0  0  0  0  0  0  0  0
   29.7669  -17.2505  -16.9623 C   0  0  0  0  0  0  0  0  0  0  0  0
   23.7377  -22.4699   -7.5290 N   0  0  0  0  0  0  0  0  0  0  0  0
   22.7112  -21.4990   -7.3998 C   0  0  0  0  0  0  0  0  0  0  0  0
   21.6537  -21.8155   -6.7125 N   0  0  0  0  0  0  0  0  0  0  0  0
   22.7770  -20.2130   -7.9767 N   0  0  0  0  0  0  0  0  0  0  0  0
   23.8816  -19.8711   -8.8320 C   0  0  0  0  0  0  0  0  0  0  0  0
   23.7667  -20.4836  -10.2048 C   0  0  0  0  0  0  0  0  0  0  0  0
   24.9521  -20.1370  -11.0646 C   0  0  0  0  0  0  0  0  0  0  0  0
   24.8069  -20.7420  -12.4330 C   0  0  2  0  0  0  0  0  0  0  0  0
   25.8224  -20.2696  -13.3496 N   0  0  0  0  0  0  0  0  0  0  0  0
   23.4604  -20.2804  -12.9351 C   0  0  0  0  0  0  0  0  0  0  0  0
   23.2659  -19.0548  -13.0489 O   0  0  0  0  0  0  0  0  0  0  0  0
   20.8375  -21.1936   -6.6275 C   0  0  0  0  0  0  0  0  0  0  0  0
   20.3919  -21.9123  -14.4242 C   0  0  1  0  0  0  0  0  0  0  0  0
   21.1287  -20.7587  -13.7789 N   0  0  0  0  0  0  0  0  0  0  0  0
   22.4243  -21.1782  -13.2758 C   0  0  0  0  0  0  0  0  0  0  0  0
   20.3146  -20.1046  -12.7396 O   0  0  0  0  0  0  0  0  0  0  0  0
   20.3943  -20.4959  -11.5600 O   0  0  0  0  0  0  0  0  0  0  0  0
  2 12  2  0
  2  1  1  0
  3  2  1  0
  4  3  2  0
  5  4  1  0
  5 11  2  0
  6  5  1  0
  7  9  1  0
  7  6  1  0
  7  8  1  6
  9 10  2  0
 11 12  1  0
 14 13  1  0
 15 14  2  0
 16 14  1  0
 17 18  1  0
 17 16  1  0
 18 19  1  0
 20 19  1  1
 21 20  1  0
 21  9  1  0
 22 20  1  0
 23 22  2  0
 25 24  1  6
 25 26  1  0
 26 22  1  0
 27 25  1  0
 27 29  1  0
 28 27  2  0
M  END
$$$$
