YRA.pdb
     RDKit          3D

 29 29  0  0  1  0  0  0  0  0999 V2000
   28.0041  -19.7007   -5.2578 O   0  0  0  0  0  0  0  0  0  0  0  0
   27.9777  -19.8183   -6.6467 C   0  0  0  0  0  0  0  0  0  0  0  0
   29.0943  -20.1731   -7.3720 C   0  0  0  0  0  0  0  0  0  0  0  0
   29.0706  -20.2911   -8.7483 C   0  0  0  0  0  0  0  0  0  0  0  0
   27.9108  -20.0542   -9.4608 C   0  0  0  0  0  0  0  0  0  0  0  0
   27.8536  -20.1680  -10.9528 C   0  0  0  0  0  0  0  0  0  0  0  0
   27.3326  -21.5469  -11.2942 C   0  0  2  0  0  0  0  0  0  0  0  0
   28.4067  -22.3374  -11.8418 N   0  0  0  0  0  0  0  0  0  0  0  0
   26.1957  -21.4173  -12.2566 C   0  0  0  0  0  0  0  0  0  0  0  0
   26.4752  -21.3796  -13.4792 O   0  0  0  0  0  0  0  0  0  0  0  0
   26.7884  -19.6986   -8.7426 C   0  0  0  0  0  0  0  0  0  0  0  0
   26.8125  -19.5798   -7.3543 C   0  0  0  0  0  0  0  0  0  0  0  0
   17.9768  -21.6454  -12.3284 N   0  0  0  0  0  0  0  0  0  0  0  0
   18.2196  -22.2868  -13.5705 C   0  0  0  0  0  0  0  0  0  0  0  0
   17.2733  -22.2702  -14.4621 N   0  0  0  0  0  0  0  0  0  0  0  0
   19.4293  -22.9403  -13.8875 N   0  0  0  0  0  0  0  0  0  0  0  0
   20.5074  -22.9452  -12.9355 C   0  0  0  0  0  0  0  0  0  0  0  0
   21.2542  -21.6362  -12.8944 C   0  0  0  0  0  0  0  0  0  0  0  0
   22.4426  -21.7077  -11.9740 C   0  0  0  0  0  0  0  0  0  0  0  0
   23.7139  -21.4438  -12.7315 C   0  0  2  0  0  0  0  0  0  0  0  0
   24.8605  -21.3395  -11.8546 N   0  0  0  0  0  0  0  0  0  0  0  0
   23.5087  -20.1099  -13.4075 C   0  0  0  0  0  0  0  0  0  0  0  0
   23.2834  -19.1170  -12.6889 O   0  0  0  0  0  0  0  0  0  0  0  0
   17.3904  -22.6629  -15.4067 C   0  0  0  0  0  0  0  0  0  0  0  0
   24.1088  -18.6010  -16.7775 C   0  0  1  0  0  0  0  0  0  0  0  0
   23.3267  -18.6854  -15.4848 N   0  0  0  0  0  0  0  0  0  0  0  0
   23.5614  -19.9492  -14.8100 C   0  0  0  0  0  0  0  0  0  0  0  0
   21.8918  -18.4275  -15.6976 O   0  0  0  0  0  0  0  0  0  0  0  0
   21.0985  -19.3854  -15.7625 O   0  0  0  0  0  0  0  0  0  0  0  0
  2 12  2  0
  2  1  1  0
  3  2  1  0
  4  3  2  0
  5  4  1  0
  5 11  2  0
  6  5  1  0
  7  9  1  0
  7  6  1  0
  7  8  1  6
  9 10  2  0
 11 12  1  0
 14 13  1  0
 15 14  2  0
 16 14  1  0
 17 18  1  0
 17 16  1  0
 18 19  1  0
 20 19  1  1
 21 20  1  0
 21  9  1  0
 22 20  1  0
 23 22  2  0
 25 24  1  1
 25 26  1  0
 26 22  1  0
 27 25  1  0
 27 29  1  0
 28 27  2  0
M  END
$$$$
