YRA.pdb
     RDKit          3D

 29 29  0  0  1  0  0  0  0  0999 V2000
   29.3449  -17.1353  -18.1818 O   0  0  0  0  0  0  0  0  0  0  0  0
   28.2875  -17.2960  -17.2874 C   0  0  0  0  0  0  0  0  0  0  0  0
   27.2898  -16.3546  -17.1577 C   0  0  0  0  0  0  0  0  0  0  0  0
   26.2405  -16.5118  -16.2727 C   0  0  0  0  0  0  0  0  0  0  0  0
   26.1499  -17.6342  -15.4722 C   0  0  0  0  0  0  0  0  0  0  0  0
   25.0288  -17.8318  -14.4992 C   0  0  0  0  0  0  0  0  0  0  0  0
   24.2812  -19.0847  -14.8999 C   0  0  2  0  0  0  0  0  0  0  0  0
   23.9058  -18.9891  -16.2886 N   0  0  0  0  0  0  0  0  0  0  0  0
   23.0872  -19.2477  -14.0149 C   0  0  0  0  0  0  0  0  0  0  0  0
   23.2801  -19.2297  -12.7751 O   0  0  0  0  0  0  0  0  0  0  0  0
   27.1444  -18.5817  -15.5956 C   0  0  0  0  0  0  0  0  0  0  0  0
   28.2026  -18.4229  -16.4885 C   0  0  0  0  0  0  0  0  0  0  0  0
   20.0579  -16.6662  -18.1041 N   0  0  0  0  0  0  0  0  0  0  0  0
   18.8034  -17.2800  -18.3549 C   0  0  0  0  0  0  0  0  0  0  0  0
   18.4807  -17.5283  -19.5898 N   0  0  0  0  0  0  0  0  0  0  0  0
   17.8906  -17.6327  -17.3384 N   0  0  0  0  0  0  0  0  0  0  0  0
   18.2810  -17.5183  -15.9588 C   0  0  0  0  0  0  0  0  0  0  0  0
   19.3005  -18.5527  -15.5542 C   0  0  0  0  0  0  0  0  0  0  0  0
   19.5482  -18.5322  -14.0701 C   0  0  0  0  0  0  0  0  0  0  0  0
   20.5977  -19.5413  -13.6958 C   0  0  2  0  0  0  0  0  0  0  0  0
   21.7904  -19.4147  -14.5057 N   0  0  0  0  0  0  0  0  0  0  0  0
   19.9755  -20.8884  -13.9719 C   0  0  0  0  0  0  0  0  0  0  0  0
   20.1427  -21.3913  -15.0998 O   0  0  0  0  0  0  0  0  0  0  0  0
   17.5813  -17.9529  -19.8562 C   0  0  0  0  0  0  0  0  0  0  0  0
   18.5495  -23.6799  -11.9230 C   0  0  1  0  0  0  0  0  0  0  0  0
   18.6727  -22.9188  -13.2252 N   0  0  0  0  0  0  0  0  0  0  0  0
   19.2183  -21.5910  -13.0083 C   0  0  0  0  0  0  0  0  0  0  0  0
   17.3950  -22.8814  -13.9579 O   0  0  0  0  0  0  0  0  0  0  0  0
   16.6984  -21.8495  -13.9256 O   0  0  0  0  0  0  0  0  0  0  0  0
  2 12  2  0
  2  1  1  0
  3  2  1  0
  4  3  2  0
  5  4  1  0
  5 11  2  0
  6  5  1  0
  7  9  1  0
  7  6  1  0
  7  8  1  6
  9 10  2  0
 11 12  1  0
 14 13  1  0
 15 14  2  0
 16 14  1  0
 17 18  1  0
 17 16  1  0
 18 19  1  0
 20 19  1  6
 21 20  1  0
 21  9  1  0
 22 20  1  0
 23 22  2  0
 25 24  1  6
 25 26  1  0
 26 22  1  0
 27 25  1  0
 27 29  1  0
 28 27  2  0
M  END
$$$$
