YRA.pdb
     RDKit          3D

 29 29  0  0  1  0  0  0  0  0999 V2000
   28.7510  -19.4372   -3.4679 O   0  0  0  0  0  0  0  0  0  0  0  0
   28.5630  -19.6455   -4.8336 C   0  0  0  0  0  0  0  0  0  0  0  0
   29.5347  -20.2154   -5.6271 C   0  0  0  0  0  0  0  0  0  0  0  0
   29.3506  -20.4236   -6.9804 C   0  0  0  0  0  0  0  0  0  0  0  0
   28.1692  -20.0632   -7.5993 C   0  0  0  0  0  0  0  0  0  0  0  0
   27.9406  -20.2702   -9.0647 C   0  0  0  0  0  0  0  0  0  0  0  0
   26.5081  -20.7194   -9.2528 C   0  0  2  0  0  0  0  0  0  0  0  0
   26.4717  -22.1570   -9.3560 N   0  0  0  0  0  0  0  0  0  0  0  0
   25.9444  -20.0635  -10.4724 C   0  0  0  0  0  0  0  0  0  0  0  0
   25.5538  -18.8762  -10.3617 O   0  0  0  0  0  0  0  0  0  0  0  0
   27.1910  -19.4922   -6.8124 C   0  0  0  0  0  0  0  0  0  0  0  0
   27.3769  -19.2824   -5.4472 C   0  0  0  0  0  0  0  0  0  0  0  0
   30.0526  -22.4792  -15.3572 N   0  0  0  0  0  0  0  0  0  0  0  0
   28.7623  -22.4479  -15.9466 C   0  0  0  0  0  0  0  0  0  0  0  0
   28.3414  -23.5185  -16.5529 N   0  0  0  0  0  0  0  0  0  0  0  0
   27.9154  -21.3200  -15.9103 N   0  0  0  0  0  0  0  0  0  0  0  0
   28.2891  -20.1730  -15.1271 C   0  0  0  0  0  0  0  0  0  0  0  0
   27.4593  -20.0256  -13.8771 C   0  0  0  0  0  0  0  0  0  0  0  0
   26.0183  -20.3804  -14.1264 C   0  0  0  0  0  0  0  0  0  0  0  0
   25.1988  -20.1647  -12.8847 C   0  0  2  0  0  0  0  0  0  0  0  0
   25.8392  -20.7088  -11.7064 N   0  0  0  0  0  0  0  0  0  0  0  0
   23.9116  -20.9175  -13.1177 C   0  0  0  0  0  0  0  0  0  0  0  0
   23.8220  -22.0777  -12.6717 O   0  0  0  0  0  0  0  0  0  0  0  0
   27.4106  -23.5828  -16.9884 C   0  0  0  0  0  0  0  0  0  0  0  0
   21.0686  -20.6863  -12.1358 C   0  0  2  0  0  0  0  0  0  0  0  0
   21.4380  -20.7589  -13.6015 N   0  0  0  0  0  0  0  0  0  0  0  0
   22.8174  -20.3603  -13.8162 C   0  0  0  0  0  0  0  0  0  0  0  0
   20.5009  -19.9900  -14.4389 O   0  0  0  0  0  0  0  0  0  0  0  0
   20.7606  -18.8055  -14.7228 O   0  0  0  0  0  0  0  0  0  0  0  0
  2 12  2  0
  2  1  1  0
  3  2  1  0
  4  3  2  0
  5  4  1  0
  5 11  2  0
  6  5  1  0
  7  9  1  0
  7  6  1  0
  7  8  1  6
  9 10  2  0
 11 12  1  0
 14 13  1  0
 15 14  2  0
 16 14  1  0
 17 18  1  0
 17 16  1  0
 18 19  1  0
 20 19  1  6
 21 20  1  0
 21  9  1  0
 22 20  1  0
 23 22  2  0
 25 24  1  1
 25 26  1  0
 26 22  1  0
 27 25  1  0
 27 29  1  0
 28 27  2  0
M  END
$$$$
