YRA.pdb
     RDKit          3D

 29 29  0  0  1  0  0  0  0  0999 V2000
   30.4566  -27.4366  -20.2014 O   0  0  0  0  0  0  0  0  0  0  0  0
   29.5089  -27.2675  -19.1929 C   0  0  0  0  0  0  0  0  0  0  0  0
   28.2382  -26.8027  -19.4538 C   0  0  0  0  0  0  0  0  0  0  0  0
   27.2970  -26.6351  -18.4564 C   0  0  0  0  0  0  0  0  0  0  0  0
   27.5975  -26.9305  -17.1406 C   0  0  0  0  0  0  0  0  0  0  0  0
   26.6019  -26.7544  -16.0359 C   0  0  0  0  0  0  0  0  0  0  0  0
   26.1468  -25.3114  -16.0462 C   0  0  2  0  0  0  0  0  0  0  0  0
   27.2753  -24.4564  -15.7742 N   0  0  0  0  0  0  0  0  0  0  0  0
   25.0612  -25.1322  -15.0338 C   0  0  0  0  0  0  0  0  0  0  0  0
   25.4058  -24.9980  -13.8348 O   0  0  0  0  0  0  0  0  0  0  0  0
   28.8671  -27.3963  -16.8705 C   0  0  0  0  0  0  0  0  0  0  0  0
   29.8164  -27.5655  -17.8768 C   0  0  0  0  0  0  0  0  0  0  0  0
   19.4983  -22.5241  -18.8797 N   0  0  0  0  0  0  0  0  0  0  0  0
   18.7866  -22.5561  -17.6526 C   0  0  0  0  0  0  0  0  0  0  0  0
   17.5109  -22.8046  -17.6925 N   0  0  0  0  0  0  0  0  0  0  0  0
   19.3882  -22.3320  -16.3961 N   0  0  0  0  0  0  0  0  0  0  0  0
   20.8101  -22.1329  -16.3120 C   0  0  0  0  0  0  0  0  0  0  0  0
   21.5661  -23.4179  -16.0884 C   0  0  0  0  0  0  0  0  0  0  0  0
   21.9098  -23.6103  -14.6360 C   0  0  0  0  0  0  0  0  0  0  0  0
   22.6166  -24.9209  -14.4297 C   0  0  2  0  0  0  0  0  0  0  0  0
   23.7048  -25.1076  -15.3654 N   0  0  0  0  0  0  0  0  0  0  0  0
   21.5766  -25.9831  -14.6908 C   0  0  0  0  0  0  0  0  0  0  0  0
   21.3385  -26.2922  -15.8743 O   0  0  0  0  0  0  0  0  0  0  0  0
   16.9263  -22.8554  -16.8464 C   0  0  0  0  0  0  0  0  0  0  0  0
   19.5713  -28.4400  -12.6387 C   0  0  1  0  0  0  0  0  0  0  0  0
   19.8272  -27.6145  -13.8809 N   0  0  0  0  0  0  0  0  0  0  0  0
   20.8710  -26.6314  -13.6529 C   0  0  0  0  0  0  0  0  0  0  0  0
   18.5892  -27.0015  -14.3931 O   0  0  0  0  0  0  0  0  0  0  0  0
   18.2156  -25.9025  -13.9418 O   0  0  0  0  0  0  0  0  0  0  0  0
  2 12  2  0
  2  1  1  0
  3  2  1  0
  4  3  2  0
  5  4  1  0
  5 11  2  0
  6  5  1  0
  7  9  1  0
  7  6  1  0
  7  8  1  1
  9 10  2  0
 11 12  1  0
 14 13  1  0
 15 14  2  0
 16 14  1  0
 17 18  1  0
 17 16  1  0
 18 19  1  0
 20 19  1  6
 21 20  1  0
 21  9  1  0
 22 20  1  0
 23 22  2  0
 25 24  1  6
 25 26  1  0
 26 22  1  0
 27 25  1  0
 27 29  1  0
 28 27  2  0
M  END
$$$$
