YRA.pdb
     RDKit          3D

 29 29  0  0  1  0  0  0  0  0999 V2000
   18.3972  -21.0319  -16.5524 O   0  0  0  0  0  0  0  0  0  0  0  0
   18.3221  -22.1149  -15.6776 C   0  0  0  0  0  0  0  0  0  0  0  0
   17.9626  -21.9640  -14.3560 C   0  0  0  0  0  0  0  0  0  0  0  0
   17.8867  -23.0356  -13.4874 C   0  0  0  0  0  0  0  0  0  0  0  0
   18.1726  -24.3177  -13.9157 C   0  0  0  0  0  0  0  0  0  0  0  0
   18.1052  -25.4991  -12.9981 C   0  0  0  0  0  0  0  0  0  0  0  0
   19.4179  -25.5821  -12.2501 C   0  0  2  0  0  0  0  0  0  0  0  0
   20.4760  -25.8846  -13.1816 N   0  0  0  0  0  0  0  0  0  0  0  0
   19.3087  -26.6220  -11.1815 C   0  0  0  0  0  0  0  0  0  0  0  0
   19.8576  -27.7300  -11.3951 O   0  0  0  0  0  0  0  0  0  0  0  0
   18.5334  -24.4777  -15.2372 C   0  0  0  0  0  0  0  0  0  0  0  0
   18.6097  -23.3966  -16.1133 C   0  0  0  0  0  0  0  0  0  0  0  0
   16.0813  -24.5314   -5.0329 N   0  0  0  0  0  0  0  0  0  0  0  0
   17.1178  -25.3610   -4.5321 C   0  0  0  0  0  0  0  0  0  0  0  0
   16.8876  -26.0382   -3.4462 N   0  0  0  0  0  0  0  0  0  0  0  0
   18.3809  -25.4885   -5.1479 N   0  0  0  0  0  0  0  0  0  0  0  0
   18.7196  -24.6435   -6.2614 C   0  0  0  0  0  0  0  0  0  0  0  0
   19.0714  -25.4262   -7.5009 C   0  0  0  0  0  0  0  0  0  0  0  0
   18.3091  -26.7218   -7.5703 C   0  0  0  0  0  0  0  0  0  0  0  0
   18.5039  -27.3782   -8.9085 C   0  0  2  0  0  0  0  0  0  0  0  0
   18.6333  -26.4111   -9.9774 N   0  0  0  0  0  0  0  0  0  0  0  0
   17.2509  -28.1854   -9.1458 C   0  0  0  0  0  0  0  0  0  0  0  0
   16.2683  -27.6082   -9.6502 O   0  0  0  0  0  0  0  0  0  0  0  0
   17.5731  -26.6905   -3.0403 C   0  0  0  0  0  0  0  0  0  0  0  0
   14.7092  -29.4405   -8.7717 C   0  0  2  0  0  0  0  0  0  0  0  0
   15.9267  -30.3250   -8.9311 N   0  0  0  0  0  0  0  0  0  0  0  0
   17.1531  -29.5563   -8.8192 C   0  0  0  0  0  0  0  0  0  0  0  0
   15.8731  -31.1069  -10.1787 O   0  0  0  0  0  0  0  0  0  0  0  0
   16.7944  -31.0012  -11.0099 O   0  0  0  0  0  0  0  0  0  0  0  0
  2 12  2  0
  2  1  1  0
  3  2  1  0
  4  3  2  0
  5  4  1  0
  5 11  2  0
  6  5  1  0
  7  9  1  0
  7  6  1  0
  7  8  1  6
  9 10  2  0
 11 12  1  0
 14 13  1  0
 15 14  2  0
 16 14  1  0
 17 18  1  0
 17 16  1  0
 18 19  1  0
 20 19  1  1
 21 20  1  0
 21  9  1  0
 22 20  1  0
 23 22  2  0
 25 24  1  1
 25 26  1  0
 26 22  1  0
 27 25  1  0
 27 29  1  0
 28 27  2  0
M  END
$$$$
