YRA.pdb
     RDKit          3D

 29 29  0  0  1  0  0  0  0  0999 V2000
   18.8226  -22.3774   -9.4584 O   0  0  0  0  0  0  0  0  0  0  0  0
   19.9301  -21.8390  -10.1122 C   0  0  0  0  0  0  0  0  0  0  0  0
   20.3575  -22.3089  -11.3349 C   0  0  0  0  0  0  0  0  0  0  0  0
   21.4541  -21.7766  -11.9852 C   0  0  0  0  0  0  0  0  0  0  0  0
   22.1750  -20.7386  -11.4269 C   0  0  0  0  0  0  0  0  0  0  0  0
   23.3713  -20.1436  -12.1033 C   0  0  0  0  0  0  0  0  0  0  0  0
   24.5609  -21.0311  -11.8088 C   0  0  2  0  0  0  0  0  0  0  0  0
   24.9973  -20.8045  -10.4535 N   0  0  0  0  0  0  0  0  0  0  0  0
   25.6463  -20.7396  -12.7948 C   0  0  0  0  0  0  0  0  0  0  0  0
   26.3185  -19.6943  -12.6219 O   0  0  0  0  0  0  0  0  0  0  0  0
   21.7541  -20.2621  -10.2030 C   0  0  0  0  0  0  0  0  0  0  0  0
   20.6477  -20.7991   -9.5474 C   0  0  0  0  0  0  0  0  0  0  0  0
   31.5463  -25.7853  -15.7029 N   0  0  0  0  0  0  0  0  0  0  0  0
   30.5396  -25.6683  -16.6960 C   0  0  0  0  0  0  0  0  0  0  0  0
   30.3829  -26.6564  -17.5265 N   0  0  0  0  0  0  0  0  0  0  0  0
   29.7035  -24.5396  -16.8297 N   0  0  0  0  0  0  0  0  0  0  0  0
   29.9296  -23.3833  -16.0049 C   0  0  0  0  0  0  0  0  0  0  0  0
   28.8441  -22.3465  -16.1449 C   0  0  0  0  0  0  0  0  0  0  0  0
   27.6897  -22.6281  -15.2216 C   0  0  0  0  0  0  0  0  0  0  0  0
   26.9912  -21.3514  -14.8448 C   0  0  2  0  0  0  0  0  0  0  0  0
   25.9359  -21.5708  -13.8790 N   0  0  0  0  0  0  0  0  0  0  0  0
   26.3692  -20.8423  -16.1223 C   0  0  0  0  0  0  0  0  0  0  0  0
   25.1330  -20.9351  -16.2501 O   0  0  0  0  0  0  0  0  0  0  0  0
   29.6984  -26.6350  -18.2954 C   0  0  0  0  0  0  0  0  0  0  0  0
   25.8393  -18.2473  -17.6404 C   0  0  2  0  0  0  0  0  0  0  0  0
   26.5630  -19.4447  -18.2168 N   0  0  0  0  0  0  0  0  0  0  0  0
   27.1301  -20.2716  -17.1668 C   0  0  0  0  0  0  0  0  0  0  0  0
   27.5710  -19.0447  -19.2141 O   0  0  0  0  0  0  0  0  0  0  0  0
   28.7750  -19.2796  -18.9989 O   0  0  0  0  0  0  0  0  0  0  0  0
  2 12  2  0
  2  1  1  0
  3  2  1  0
  4  3  2  0
  5  4  1  0
  5 11  2  0
  6  5  1  0
  7  9  1  0
  7  6  1  0
  7  8  1  1
  9 10  2  0
 11 12  1  0
 14 13  1  0
 15 14  2  0
 16 14  1  0
 17 18  1  0
 17 16  1  0
 18 19  1  0
 20 19  1  6
 21 20  1  0
 21  9  1  0
 22 20  1  0
 23 22  2  0
 25 24  1  1
 25 26  1  0
 26 22  1  0
 27 25  1  0
 27 29  1  0
 28 27  2  0
M  END
$$$$
