RCM.pdb
     RDKit          3D

 26 25  0  0  1  0  0  0  0  0999 V2000
   16.8034  -22.3326  -14.0988 N   0  0  0  0  0  0  0  0  0  0  0  0
   18.0190  -22.8393  -14.6241 C   0  0  0  0  0  0  0  0  0  0  0  0
   18.1021  -23.3724  -15.8159 N   0  0  0  0  0  0  0  0  0  0  0  0
   19.2419  -22.8077  -13.9004 N   0  0  0  0  0  0  0  0  0  0  0  0
   19.4145  -21.9354  -12.7575 C   0  0  0  0  0  0  0  0  0  0  0  0
   19.8922  -20.6074  -13.3037 C   0  0  0  0  0  0  0  0  0  0  0  0
   20.8408  -19.9814  -12.3567 C   0  0  0  0  0  0  0  0  0  0  0  0
   21.7926  -21.0112  -11.7994 C   0  0  2  0  0  0  0  0  0  0  0  0
   21.5668  -21.2384  -10.3890 N   0  0  0  0  0  0  0  0  0  0  0  0
   23.1828  -20.4685  -11.9436 C   0  0  0  0  0  0  0  0  0  0  0  0
   23.4552  -19.3467  -11.3919 O   0  0  0  0  0  0  0  0  0  0  0  0
   19.0702  -23.6899  -16.1041 N   0  0  0  0  0  0  0  0  0  0  0  0
   24.1859  -21.1551  -12.6626 C   0  0  2  0  0  0  0  0  0  0  0  0
   25.4962  -20.5442  -12.7774 C   0  0  0  0  0  0  0  0  0  0  0  0
   26.5218  -21.6442  -12.5788 S   0  0  0  0  0  0  0  0  0  0  0  0
   26.4182  -22.4308  -10.9713 C   0  0  0  0  0  0  0  0  0  0  0  0
   25.6667  -19.8718  -14.0937 O   0  0  0  0  0  0  0  0  0  0  0  0
   24.9965  -20.2667  -15.0991 C   0  0  0  0  0  0  0  0  0  0  0  0
   27.1106  -12.5872  -16.6787 S   0  0  0  0  0  0  0  0  0  0  0  0
   27.1067  -13.9030  -15.4620 C   0  0  0  0  0  0  0  0  0  0  0  0
   26.8571  -15.5483  -16.2075 C   0  0  0  0  0  0  0  0  0  0  0  0
   26.7859  -16.5278  -15.0890 C   0  0  1  0  0  0  0  0  0  0  0  0
   26.4955  -17.9427  -15.4901 N   0  0  0  0  0  0  0  0  0  0  0  0
   26.5487  -18.7978  -14.2930 C   0  0  0  0  0  0  0  0  0  0  0  0
   27.3892  -18.5008  -16.5066 O   0  0  0  0  0  0  0  0  0  0  0  0
   28.3865  -19.4228  -16.2192 O   0  0  0  0  0  0  0  0  0  0  0  0
  2  1  1  0
  3  2  2  0
  4  2  1  0
  5  4  1  0
  6  5  1  0
  7  6  1  0
  8  7  1  0
  8  9  1  1
 10  8  1  0
 10 11  2  0
 12 10  1  0
 13 12  1  0
 13 14  1  1
 15 14  1  0
 16 13  1  0
 17 16  2  0
 19 18  1  0
 20 21  1  0
 20 19  1  0
 22 21  1  1
 22 23  1  0
 22 24  1  0
 23 16  1  0
 24 26  2  0
 24 25  1  0
M  END
$$$$
