RCM.pdb
     RDKit          3D

 26 25  0  0  1  0  0  0  0  0999 V2000
   19.0044  -17.5185  -17.6491 N   0  0  0  0  0  0  0  0  0  0  0  0
   18.5805  -17.3982  -16.3014 C   0  0  0  0  0  0  0  0  0  0  0  0
   17.3245  -17.2423  -15.9704 N   0  0  0  0  0  0  0  0  0  0  0  0
   19.4837  -17.4382  -15.2047 N   0  0  0  0  0  0  0  0  0  0  0  0
   20.8839  -17.7533  -15.3975 C   0  0  0  0  0  0  0  0  0  0  0  0
   21.0135  -19.2494  -15.2109 C   0  0  0  0  0  0  0  0  0  0  0  0
   21.1455  -19.5714  -13.7729 C   0  0  0  0  0  0  0  0  0  0  0  0
   22.4540  -20.2729  -13.5035 C   0  0  2  0  0  0  0  0  0  0  0  0
   22.8254  -21.1466  -14.5946 N   0  0  0  0  0  0  0  0  0  0  0  0
   22.2652  -21.1342  -12.2909 C   0  0  0  0  0  0  0  0  0  0  0  0
   21.6527  -22.2489  -12.4293 O   0  0  0  0  0  0  0  0  0  0  0  0
   16.6465  -17.1775  -16.7811 N   0  0  0  0  0  0  0  0  0  0  0  0
   22.7406  -20.7519  -11.0171 C   0  0  2  0  0  0  0  0  0  0  0  0
   22.4524  -21.6106   -9.8845 C   0  0  0  0  0  0  0  0  0  0  0  0
   23.5109  -21.3351   -8.8333 S   0  0  0  0  0  0  0  0  0  0  0  0
   24.3985  -19.8012   -9.1034 C   0  0  0  0  0  0  0  0  0  0  0  0
   21.0831  -21.3677   -9.3554 O   0  0  0  0  0  0  0  0  0  0  0  0
   20.4234  -20.3534   -9.7449 C   0  0  0  0  0  0  0  0  0  0  0  0
   18.4281  -23.5878  -12.6884 S   0  0  0  0  0  0  0  0  0  0  0  0
   16.9053  -23.6211  -11.7441 C   0  0  0  0  0  0  0  0  0  0  0  0
   17.1607  -23.2143   -9.9851 C   0  0  0  0  0  0  0  0  0  0  0  0
   18.5990  -22.8679   -9.8218 C   0  0  1  0  0  0  0  0  0  0  0  0
   19.0132  -22.4757   -8.4355 N   0  0  0  0  0  0  0  0  0  0  0  0
   20.4625  -22.2179   -8.4262 C   0  0  0  0  0  0  0  0  0  0  0  0
   18.7027  -23.4522   -7.3899 O   0  0  0  0  0  0  0  0  0  0  0  0
   17.4723  -23.5167   -6.7503 O   0  0  0  0  0  0  0  0  0  0  0  0
  2  1  1  0
  3  2  2  0
  4  2  1  0
  5  4  1  0
  6  5  1  0
  7  6  1  0
  8  7  1  0
  8  9  1  6
 10  8  1  0
 10 11  2  0
 12 10  1  0
 13 12  1  0
 13 14  1  6
 15 14  1  0
 16 13  1  0
 17 16  2  0
 19 18  1  0
 20 21  1  0
 20 19  1  0
 22 21  1  6
 22 23  1  0
 22 24  1  0
 23 16  1  0
 24 26  2  0
 24 25  1  0
M  END
$$$$
