RCM.pdb
     RDKit          3D

 26 25  0  0  1  0  0  0  0  0999 V2000
   18.9265  -18.2705  -19.0127 N   0  0  0  0  0  0  0  0  0  0  0  0
   20.1403  -17.5987  -19.3054 C   0  0  0  0  0  0  0  0  0  0  0  0
   20.4995  -17.2951  -20.5262 N   0  0  0  0  0  0  0  0  0  0  0  0
   21.0614  -17.2012  -18.2985 N   0  0  0  0  0  0  0  0  0  0  0  0
   21.9438  -18.1611  -17.6684 C   0  0  0  0  0  0  0  0  0  0  0  0
   21.1018  -18.9188  -16.6649 C   0  0  0  0  0  0  0  0  0  0  0  0
   21.4554  -18.5030  -15.2898 C   0  0  0  0  0  0  0  0  0  0  0  0
   22.6720  -19.2522  -14.8044 C   0  0  2  0  0  0  0  0  0  0  0  0
   23.2618  -20.0505  -15.8564 N   0  0  0  0  0  0  0  0  0  0  0  0
   22.2238  -20.1968  -13.7298 C   0  0  0  0  0  0  0  0  0  0  0  0
   22.1457  -21.4422  -14.0124 O   0  0  0  0  0  0  0  0  0  0  0  0
   21.4451  -16.8274  -20.6176 N   0  0  0  0  0  0  0  0  0  0  0  0
   21.8908  -19.7530  -12.4311 C   0  0  2  0  0  0  0  0  0  0  0  0
   21.4316  -20.7297  -11.4624 C   0  0  0  0  0  0  0  0  0  0  0  0
   21.7902  -20.1989  -10.0872 S   0  0  0  0  0  0  0  0  0  0  0  0
   21.2539  -21.2668   -8.7510 C   0  0  0  0  0  0  0  0  0  0  0  0
   19.9689  -20.9713  -11.5886 O   0  0  0  0  0  0  0  0  0  0  0  0
   19.1859  -20.0030  -11.8439 C   0  0  0  0  0  0  0  0  0  0  0  0
   17.4952  -25.9662  -14.3599 S   0  0  0  0  0  0  0  0  0  0  0  0
   16.2006  -25.7835  -13.1342 C   0  0  0  0  0  0  0  0  0  0  0  0
   16.2453  -24.1618  -12.3017 C   0  0  0  0  0  0  0  0  0  0  0  0
   17.6784  -23.8164  -12.0960 C   0  0  2  0  0  0  0  0  0  0  0  0
   17.9360  -22.4610  -11.5097 N   0  0  0  0  0  0  0  0  0  0  0  0
   19.3898  -22.2414  -11.4378 C   0  0  0  0  0  0  0  0  0  0  0  0
   17.3601  -22.2335  -10.1831 O   0  0  0  0  0  0  0  0  0  0  0  0
   16.0999  -21.6860   -9.9845 O   0  0  0  0  0  0  0  0  0  0  0  0
  2  1  1  0
  3  2  2  0
  4  2  1  0
  5  4  1  0
  6  5  1  0
  7  6  1  0
  8  7  1  0
  8  9  1  6
 10  8  1  0
 10 11  2  0
 12 10  1  0
 13 12  1  0
 13 14  1  1
 15 14  1  0
 16 13  1  0
 17 16  2  0
 19 18  1  0
 20 21  1  0
 20 19  1  0
 22 21  1  6
 22 23  1  0
 22 24  1  0
 23 16  1  0
 24 26  2  0
 24 25  1  0
M  END
$$$$
