RCM.pdb
     RDKit          3D

 26 25  0  0  1  0  0  0  0  0999 V2000
   18.2566  -23.4986  -13.2259 N   0  0  0  0  0  0  0  0  0  0  0  0
   19.3024  -23.0650  -12.3724 C   0  0  0  0  0  0  0  0  0  0  0  0
   20.2604  -22.2729  -12.7803 N   0  0  0  0  0  0  0  0  0  0  0  0
   19.3932  -23.4543  -11.0084 N   0  0  0  0  0  0  0  0  0  0  0  0
   19.0509  -24.7968  -10.5874 C   0  0  0  0  0  0  0  0  0  0  0  0
   17.5412  -24.8877  -10.6397 C   0  0  0  0  0  0  0  0  0  0  0  0
   17.0293  -25.5326   -9.4106 C   0  0  0  0  0  0  0  0  0  0  0  0
   18.0573  -26.4778   -8.8389 C   0  0  2  0  0  0  0  0  0  0  0  0
   18.0228  -27.7652   -9.4971 N   0  0  0  0  0  0  0  0  0  0  0  0
   17.7104  -26.7073   -7.3984 C   0  0  0  0  0  0  0  0  0  0  0  0
   17.1035  -27.7897   -7.0868 O   0  0  0  0  0  0  0  0  0  0  0  0
   20.9909  -22.0327  -12.0525 N   0  0  0  0  0  0  0  0  0  0  0  0
   18.0329  -25.7723   -6.3903 C   0  0  2  0  0  0  0  0  0  0  0  0
   17.5729  -26.0257   -5.0385 C   0  0  0  0  0  0  0  0  0  0  0  0
   18.7798  -25.9119   -4.1264 S   0  0  0  0  0  0  0  0  0  0  0  0
   18.3726  -26.0593   -2.3869 C   0  0  0  0  0  0  0  0  0  0  0  0
   16.5003  -25.0732   -4.6439 O   0  0  0  0  0  0  0  0  0  0  0  0
   16.6119  -23.8392   -4.9280 C   0  0  0  0  0  0  0  0  0  0  0  0
   10.7784  -27.2196   -3.4312 S   0  0  0  0  0  0  0  0  0  0  0  0
   10.3518  -25.5089   -3.1101 C   0  0  0  0  0  0  0  0  0  0  0  0
   11.8022  -24.4045   -3.1472 C   0  0  0  0  0  0  0  0  0  0  0  0
   12.9866  -25.2503   -3.4592 C   0  0  2  0  0  0  0  0  0  0  0  0
   14.2909  -24.5184   -3.5626 N   0  0  0  0  0  0  0  0  0  0  0  0
   15.3416  -25.4707   -3.9578 C   0  0  0  0  0  0  0  0  0  0  0  0
   14.7178  -23.8258   -2.3455 O   0  0  0  0  0  0  0  0  0  0  0  0
   14.2706  -22.5594   -1.9943 O   0  0  0  0  0  0  0  0  0  0  0  0
  2  1  1  0
  3  2  2  0
  4  2  1  0
  5  4  1  0
  6  5  1  0
  7  6  1  0
  8  7  1  0
  8  9  1  6
 10  8  1  0
 10 11  2  0
 12 10  1  0
 13 12  1  0
 13 14  1  6
 15 14  1  0
 16 13  1  0
 17 16  2  0
 19 18  1  0
 20 21  1  0
 20 19  1  0
 22 21  1  6
 22 23  1  0
 22 24  1  0
 23 16  1  0
 24 26  2  0
 24 25  1  0
M  END
$$$$
