RCM.pdb
     RDKit          3D

 26 25  0  0  1  0  0  0  0  0999 V2000
   28.2428  -20.5841  -17.0312 N   0  0  0  0  0  0  0  0  0  0  0  0
   27.8786  -21.7887  -16.3781 C   0  0  0  0  0  0  0  0  0  0  0  0
   28.3858  -22.9487  -16.7078 N   0  0  0  0  0  0  0  0  0  0  0  0
   26.9365  -21.8325  -15.3147 N   0  0  0  0  0  0  0  0  0  0  0  0
   25.6825  -21.1126  -15.3938 C   0  0  0  0  0  0  0  0  0  0  0  0
   25.8142  -19.9245  -14.4658 C   0  0  0  0  0  0  0  0  0  0  0  0
   24.5671  -19.1288  -14.4808 C   0  0  0  0  0  0  0  0  0  0  0  0
   23.7476  -19.4486  -15.7069 C   0  0  2  0  0  0  0  0  0  0  0  0
   23.7435  -18.3498  -16.6473 N   0  0  0  0  0  0  0  0  0  0  0  0
   22.3307  -19.6573  -15.2632 C   0  0  0  0  0  0  0  0  0  0  0  0
   21.6906  -18.6556  -14.7901 O   0  0  0  0  0  0  0  0  0  0  0  0
   27.9936  -23.7807  -16.1834 N   0  0  0  0  0  0  0  0  0  0  0  0
   21.6931  -20.9142  -15.3537 C   0  0  2  0  0  0  0  0  0  0  0  0
   20.3524  -21.0503  -14.8178 C   0  0  0  0  0  0  0  0  0  0  0  0
   19.5187  -21.7548  -15.8715 S   0  0  0  0  0  0  0  0  0  0  0  0
   17.8132  -22.0039  -15.3788 C   0  0  0  0  0  0  0  0  0  0  0  0
   20.3561  -21.8022  -13.5339 O   0  0  0  0  0  0  0  0  0  0  0  0
   21.2021  -22.7322  -13.3460 C   0  0  0  0  0  0  0  0  0  0  0  0
   22.9596  -20.3975   -8.9140 S   0  0  0  0  0  0  0  0  0  0  0  0
   21.5788  -20.9766   -7.9293 C   0  0  0  0  0  0  0  0  0  0  0  0
   20.4422  -22.0452   -8.8732 C   0  0  0  0  0  0  0  0  0  0  0  0
   20.3500  -21.4785  -10.2464 C   0  0  1  0  0  0  0  0  0  0  0  0
   19.4974  -22.2526  -11.2062 N   0  0  0  0  0  0  0  0  0  0  0  0
   19.4548  -21.5353  -12.4910 C   0  0  0  0  0  0  0  0  0  0  0  0
   18.1251  -22.5035  -10.7621 O   0  0  0  0  0  0  0  0  0  0  0  0
   17.8080  -23.3656   -9.7214 O   0  0  0  0  0  0  0  0  0  0  0  0
  2  1  1  0
  3  2  2  0
  4  2  1  0
  5  4  1  0
  6  5  1  0
  7  6  1  0
  8  7  1  0
  8  9  1  6
 10  8  1  0
 10 11  2  0
 12 10  1  0
 13 12  1  0
 13 14  1  6
 15 14  1  0
 16 13  1  0
 17 16  2  0
 19 18  1  0
 20 21  1  0
 20 19  1  0
 22 21  1  6
 22 23  1  0
 22 24  1  0
 23 16  1  0
 24 26  2  0
 24 25  1  0
M  END
$$$$
