RCM.pdb
     RDKit          3D

 26 25  0  0  1  0  0  0  0  0999 V2000
   29.2669  -20.9993  -17.3520 N   0  0  0  0  0  0  0  0  0  0  0  0
   28.8049  -19.7392  -16.8949 C   0  0  0  0  0  0  0  0  0  0  0  0
   28.7193  -18.6950  -17.6783 N   0  0  0  0  0  0  0  0  0  0  0  0
   28.3977  -19.5101  -15.5525 N   0  0  0  0  0  0  0  0  0  0  0  0
   28.2820  -20.6012  -14.6075 C   0  0  0  0  0  0  0  0  0  0  0  0
   27.8555  -19.9833  -13.2936 C   0  0  0  0  0  0  0  0  0  0  0  0
   26.3816  -20.0203  -13.1707 C   0  0  0  0  0  0  0  0  0  0  0  0
   25.8997  -21.4376  -12.9814 C   0  0  2  0  0  0  0  0  0  0  0  0
   26.2168  -22.2661  -14.1237 N   0  0  0  0  0  0  0  0  0  0  0  0
   24.4054  -21.3966  -12.8652 C   0  0  0  0  0  0  0  0  0  0  0  0
   23.7105  -21.5830  -13.9231 O   0  0  0  0  0  0  0  0  0  0  0  0
   28.3127  -17.8252  -17.2319 N   0  0  0  0  0  0  0  0  0  0  0  0
   23.7543  -21.1612  -11.6342 C   0  0  2  0  0  0  0  0  0  0  0  0
   22.3129  -21.0011  -11.6332 C   0  0  0  0  0  0  0  0  0  0  0  0
   21.8501  -21.1243  -10.1937 S   0  0  0  0  0  0  0  0  0  0  0  0
   22.8546  -20.1881   -9.0415 C   0  0  0  0  0  0  0  0  0  0  0  0
   21.9126  -19.6957  -12.2242 O   0  0  0  0  0  0  0  0  0  0  0  0
   22.7856  -18.7916  -12.4152 C   0  0  0  0  0  0  0  0  0  0  0  0
   23.8563  -18.7387  -16.2545 S   0  0  0  0  0  0  0  0  0  0  0  0
   22.4535  -19.2165  -17.2623 C   0  0  0  0  0  0  0  0  0  0  0  0
   20.8740  -19.1249  -16.3560 C   0  0  0  0  0  0  0  0  0  0  0  0
   21.1623  -19.4807  -14.9398 C   0  0  1  0  0  0  0  0  0  0  0  0
   20.2391  -18.8782  -13.9240 N   0  0  0  0  0  0  0  0  0  0  0  0
   20.5908  -19.3984  -12.5925 C   0  0  0  0  0  0  0  0  0  0  0  0
   18.8130  -19.1118  -14.1583 O   0  0  0  0  0  0  0  0  0  0  0  0
   17.9661  -18.1587  -14.7074 O   0  0  0  0  0  0  0  0  0  0  0  0
  2  1  1  0
  3  2  2  0
  4  2  1  0
  5  4  1  0
  6  5  1  0
  7  6  1  0
  8  7  1  0
  8  9  1  6
 10  8  1  0
 10 11  2  0
 12 10  1  0
 13 12  1  0
 13 14  1  1
 15 14  1  0
 16 13  1  0
 17 16  2  0
 19 18  1  0
 20 21  1  0
 20 19  1  0
 22 21  1  1
 22 23  1  0
 22 24  1  0
 23 16  1  0
 24 26  2  0
 24 25  1  0
M  END
$$$$
