RCM.pdb
     RDKit          3D

 26 25  0  0  1  0  0  0  0  0999 V2000
   28.9229  -23.1404  -17.4781 N   0  0  0  0  0  0  0  0  0  0  0  0
   29.6472  -23.1868  -16.2601 C   0  0  0  0  0  0  0  0  0  0  0  0
   30.7707  -23.8452  -16.1345 N   0  0  0  0  0  0  0  0  0  0  0  0
   29.2125  -22.5225  -15.0810 N   0  0  0  0  0  0  0  0  0  0  0  0
   28.0570  -21.6498  -15.0948 C   0  0  0  0  0  0  0  0  0  0  0  0
   28.5925  -20.2347  -15.1247 C   0  0  0  0  0  0  0  0  0  0  0  0
   27.6516  -19.3221  -14.4387 C   0  0  0  0  0  0  0  0  0  0  0  0
   26.3268  -20.0046  -14.2020 C   0  0  2  0  0  0  0  0  0  0  0  0
   25.3441  -19.6196  -15.1908 N   0  0  0  0  0  0  0  0  0  0  0  0
   25.8146  -19.5500  -12.8682 C   0  0  0  0  0  0  0  0  0  0  0  0
   25.3650  -18.3565  -12.7670 O   0  0  0  0  0  0  0  0  0  0  0  0
   31.1699  -23.8781  -15.1543 N   0  0  0  0  0  0  0  0  0  0  0  0
   25.8153  -20.3945  -11.7362 C   0  0  2  0  0  0  0  0  0  0  0  0
   25.4830  -19.8224  -10.4456 C   0  0  0  0  0  0  0  0  0  0  0  0
   24.0001  -20.0522  -10.2226 S   0  0  0  0  0  0  0  0  0  0  0  0
   23.4976  -21.7532  -10.4824 C   0  0  0  0  0  0  0  0  0  0  0  0
   26.2977  -20.4289   -9.3584 O   0  0  0  0  0  0  0  0  0  0  0  0
   26.7986  -21.5871   -9.5119 C   0  0  0  0  0  0  0  0  0  0  0  0
   30.3097  -17.5640   -5.0902 S   0  0  0  0  0  0  0  0  0  0  0  0
   29.2260  -18.5203   -4.0305 C   0  0  0  0  0  0  0  0  0  0  0  0
   28.4817  -19.9457   -4.8902 C   0  0  0  0  0  0  0  0  0  0  0  0
   27.8508  -19.4245   -6.1335 C   0  0  1  0  0  0  0  0  0  0  0  0
   27.1894  -20.4538   -6.9999 N   0  0  0  0  0  0  0  0  0  0  0  0
   26.5513  -19.7771   -8.1410 C   0  0  0  0  0  0  0  0  0  0  0  0
   26.1902  -21.2875   -6.3291 O   0  0  0  0  0  0  0  0  0  0  0  0
   26.4949  -22.4952   -5.7161 O   0  0  0  0  0  0  0  0  0  0  0  0
  2  1  1  0
  3  2  2  0
  4  2  1  0
  5  4  1  0
  6  5  1  0
  7  6  1  0
  8  7  1  0
  8  9  1  6
 10  8  1  0
 10 11  2  0
 12 10  1  0
 13 12  1  0
 13 14  1  6
 15 14  1  0
 16 13  1  0
 17 16  2  0
 19 18  1  0
 20 21  1  0
 20 19  1  0
 22 21  1  6
 22 23  1  0
 22 24  1  0
 23 16  1  0
 24 26  2  0
 24 25  1  0
M  END
$$$$
