RCM.pdb
     RDKit          3D

 26 25  0  0  1  0  0  0  0  0999 V2000
   26.6531  -16.8431  -19.3692 N   0  0  0  0  0  0  0  0  0  0  0  0
   27.2378  -18.0818  -19.0031 C   0  0  0  0  0  0  0  0  0  0  0  0
   27.6208  -18.9673  -19.8867 N   0  0  0  0  0  0  0  0  0  0  0  0
   27.4553  -18.4595  -17.6502 N   0  0  0  0  0  0  0  0  0  0  0  0
   26.5871  -17.9882  -16.5913 C   0  0  0  0  0  0  0  0  0  0  0  0
   27.1356  -18.5630  -15.3033 C   0  0  0  0  0  0  0  0  0  0  0  0
   27.2853  -20.0297  -15.4260 C   0  0  0  0  0  0  0  0  0  0  0  0
   26.3081  -20.7408  -14.5225 C   0  0  2  0  0  0  0  0  0  0  0  0
   24.9886  -20.1533  -14.5962 N   0  0  0  0  0  0  0  0  0  0  0  0
   26.7896  -20.5731  -13.1126 C   0  0  0  0  0  0  0  0  0  0  0  0
   27.9579  -21.0024  -12.8166 O   0  0  0  0  0  0  0  0  0  0  0  0
   27.9733  -19.8827  -19.4880 N   0  0  0  0  0  0  0  0  0  0  0  0
   25.9973  -19.9608  -12.1165 C   0  0  1  0  0  0  0  0  0  0  0  0
   26.5289  -19.8661  -10.7705 C   0  0  0  0  0  0  0  0  0  0  0  0
   26.6717  -18.3905  -10.4485 S   0  0  0  0  0  0  0  0  0  0  0  0
   26.9303  -18.0653   -8.7048 C   0  0  0  0  0  0  0  0  0  0  0  0
   25.6465  -20.5546   -9.7902 O   0  0  0  0  0  0  0  0  0  0  0  0
   24.4335  -20.1948   -9.6667 C   0  0  0  0  0  0  0  0  0  0  0  0
   29.3753  -20.2389   -5.5357 S   0  0  0  0  0  0  0  0  0  0  0  0
   27.9098  -20.0042   -4.5313 C   0  0  0  0  0  0  0  0  0  0  0  0
   26.4015  -20.6481   -5.3284 C   0  0  0  0  0  0  0  0  0  0  0  0
   26.7087  -20.8115   -6.7755 C   0  0  1  0  0  0  0  0  0  0  0  0
   25.7613  -21.6865   -7.5398 N   0  0  0  0  0  0  0  0  0  0  0  0
   26.0894  -21.6066   -8.9726 C   0  0  0  0  0  0  0  0  0  0  0  0
   24.3417  -21.3743   -7.3646 O   0  0  0  0  0  0  0  0  0  0  0  0
   23.5909  -20.6898   -8.3105 O   0  0  0  0  0  0  0  0  0  0  0  0
  2  1  1  0
  3  2  2  0
  4  2  1  0
  5  4  1  0
  6  5  1  0
  7  6  1  0
  8  7  1  0
  8  9  1  1
 10  8  1  0
 10 11  2  0
 12 10  1  0
 13 12  1  0
 13 14  1  1
 15 14  1  0
 16 13  1  0
 17 16  2  0
 19 18  1  0
 20 21  1  0
 20 19  1  0
 22 21  1  1
 22 23  1  0
 22 24  1  0
 23 16  1  0
 24 26  2  0
 24 25  1  0
M  END
$$$$
