LQA.pdb
     RDKit          3D

 23 22  0  0  1  0  0  0  0  0999 V2000
   27.1809  -15.7784  -15.2858 C   0  0  0  0  0  0  0  0  0  0  0  0
   26.8008  -16.2714  -16.6654 C   0  0  2  0  0  0  0  0  0  0  0  0
   25.8699  -15.2758  -17.2738 C   0  0  0  0  0  0  0  0  0  0  0  0
   26.2563  -17.6785  -16.6207 C   0  0  0  0  0  0  0  0  0  0  0  0
   27.0801  -18.5410  -15.7041 C   0  0  2  0  0  0  0  0  0  0  0  0
   28.0062  -19.2904  -16.5274 N   0  0  0  0  0  0  0  0  0  0  0  0
   26.2392  -19.4734  -14.9633 C   0  0  0  0  0  0  0  0  0  0  0  0
   25.9462  -20.5869  -15.4617 O   0  0  0  0  0  0  0  0  0  0  0  0
   26.2477  -20.0765   -8.9264 N   0  0  0  0  0  0  0  0  0  0  0  0
   25.3106  -21.0872   -9.2361 C   0  0  0  0  0  0  0  0  0  0  0  0
   24.9671  -21.8552   -8.2892 O   0  0  0  0  0  0  0  0  0  0  0  0
   24.7646  -21.2266  -10.6163 C   0  0  0  0  0  0  0  0  0  0  0  0
   25.4460  -20.1867  -11.4724 C   0  0  0  0  0  0  0  0  0  0  0  0
   24.9837  -20.1971  -12.8924 C   0  0  2  0  0  0  0  0  0  0  0  0
   25.7024  -19.2063  -13.6627 N   0  0  0  0  0  0  0  0  0  0  0  0
   23.5500  -20.0269  -13.0811 C   0  0  0  0  0  0  0  0  0  0  0  0
   23.1241  -18.8818  -13.3668 O   0  0  0  0  0  0  0  0  0  0  0  0
   20.6294  -19.9752  -11.9411 C   0  0  0  0  0  0  0  0  0  0  0  0
   21.1664  -20.8638  -13.0179 C   0  0  2  0  0  0  0  0  0  0  0  0
   22.5837  -21.0597  -12.9677 N   0  0  0  0  0  0  0  0  0  0  0  0
   20.8190  -20.3048  -14.3376 C   0  0  0  0  0  0  0  0  0  0  0  0
   19.5017  -20.1776  -14.7595 O   0  0  0  0  0  0  0  0  0  0  0  0
   21.7174  -19.9218  -15.1305 O   0  0  0  0  0  0  0  0  0  0  0  0
  2  1  1  1
  3  2  1  0
  4  2  1  0
  5  4  1  0
  5  6  1  6
  7  5  1  0
  8  7  2  0
  9 10  1  0
 10 12  1  0
 11 10  2  0
 12 13  1  0
 14 13  1  1
 14 16  1  0
 14 15  1  0
 15  7  1  0
 16 17  2  0
 19 18  1  1
 20 19  1  0
 20 16  1  0
 21 19  1  0
 22 21  1  0
 23 21  2  0
M  END
$$$$
