LQA.pdb
     RDKit          3D

 23 22  0  0  1  0  0  0  0  0999 V2000
   16.4524  -10.9843  -18.7450 C   0  0  0  0  0  0  0  0  0  0  0  0
   15.9930  -11.6933  -17.4892 C   0  0  2  0  0  0  0  0  0  0  0  0
   14.5422  -12.0103  -17.6396 C   0  0  0  0  0  0  0  0  0  0  0  0
   16.3257  -10.8977  -16.2503 C   0  0  0  0  0  0  0  0  0  0  0  0
   17.7926  -10.5677  -16.2055 C   0  0  2  0  0  0  0  0  0  0  0  0
   18.4805  -11.7165  -15.6543 N   0  0  0  0  0  0  0  0  0  0  0  0
   18.0450   -9.4092  -15.3574 C   0  0  0  0  0  0  0  0  0  0  0  0
   17.7971   -9.4644  -14.1288 O   0  0  0  0  0  0  0  0  0  0  0  0
   22.8676   -6.5447  -14.2743 N   0  0  0  0  0  0  0  0  0  0  0  0
   22.0405   -5.5074  -13.7890 C   0  0  0  0  0  0  0  0  0  0  0  0
   22.6199   -4.5372  -13.2168 O   0  0  0  0  0  0  0  0  0  0  0  0
   20.5599   -5.5703  -13.9524 C   0  0  0  0  0  0  0  0  0  0  0  0
   20.2557   -6.7852  -14.7950 C   0  0  0  0  0  0  0  0  0  0  0  0
   18.7929   -7.0248  -14.9772 C   0  0  2  0  0  0  0  0  0  0  0  0
   18.5735   -8.1673  -15.8364 N   0  0  0  0  0  0  0  0  0  0  0  0
   18.0317   -5.8840  -15.4661 C   0  0  0  0  0  0  0  0  0  0  0  0
   18.1363   -5.5807  -16.6791 O   0  0  0  0  0  0  0  0  0  0  0  0
   15.3378   -3.4901  -14.2700 C   0  0  0  0  0  0  0  0  0  0  0  0
   16.4665   -3.9254  -15.1498 C   0  0  2  0  0  0  0  0  0  0  0  0
   17.1720   -5.0775  -14.6762 N   0  0  0  0  0  0  0  0  0  0  0  0
   17.4290   -2.8184  -15.3014 C   0  0  0  0  0  0  0  0  0  0  0  0
   17.2570   -1.8181  -16.2497 O   0  0  0  0  0  0  0  0  0  0  0  0
   18.4476   -2.7466  -14.5666 O   0  0  0  0  0  0  0  0  0  0  0  0
  2  1  1  6
  3  2  1  0
  4  2  1  0
  5  4  1  0
  5  6  1  1
  7  5  1  0
  8  7  2  0
  9 10  1  0
 10 12  1  0
 11 10  2  0
 12 13  1  0
 14 13  1  6
 14 16  1  0
 14 15  1  0
 15  7  1  0
 16 17  2  0
 19 18  1  1
 20 19  1  0
 20 16  1  0
 21 19  1  0
 22 21  1  0
 23 21  2  0
M  END
$$$$
