LQA.pdb
     RDKit          3D

 23 22  0  0  1  0  0  0  0  0999 V2000
   18.7698  -12.8343  -17.6899 C   0  0  0  0  0  0  0  0  0  0  0  0
   18.0177  -13.1059  -16.4048 C   0  0  2  0  0  0  0  0  0  0  0  0
   17.1153  -14.2727  -16.6330 C   0  0  0  0  0  0  0  0  0  0  0  0
   17.3125  -11.8690  -15.9033 C   0  0  0  0  0  0  0  0  0  0  0  0
   18.2813  -10.7295  -15.7440 C   0  0  2  0  0  0  0  0  0  0  0  0
   19.2228  -11.1003  -14.7081 N   0  0  0  0  0  0  0  0  0  0  0  0
   17.5938   -9.5067  -15.3474 C   0  0  0  0  0  0  0  0  0  0  0  0
   16.6477   -9.0645  -16.0426 O   0  0  0  0  0  0  0  0  0  0  0  0
   16.9511   -7.2818   -9.6716 N   0  0  0  0  0  0  0  0  0  0  0  0
   16.2795   -6.2652  -10.3864 C   0  0  0  0  0  0  0  0  0  0  0  0
   15.7024   -5.3714   -9.6991 O   0  0  0  0  0  0  0  0  0  0  0  0
   16.2626   -6.2623  -11.8772 C   0  0  0  0  0  0  0  0  0  0  0  0
   17.0146   -7.4889  -12.3339 C   0  0  0  0  0  0  0  0  0  0  0  0
   17.2287   -7.5329  -13.8112 C   0  0  2  0  0  0  0  0  0  0  0  0
   17.9276   -8.7435  -14.1824 N   0  0  0  0  0  0  0  0  0  0  0  0
   17.9083   -6.3757  -14.3761 C   0  0  0  0  0  0  0  0  0  0  0  0
   19.1280   -6.2258  -14.1231 O   0  0  0  0  0  0  0  0  0  0  0  0
   17.2024   -3.5679  -16.8446 C   0  0  0  0  0  0  0  0  0  0  0  0
   17.9809   -4.2775  -15.7826 C   0  0  2  0  0  0  0  0  0  0  0  0
   17.2992   -5.3925  -15.1981 N   0  0  0  0  0  0  0  0  0  0  0  0
   18.3293   -3.3284  -14.7090 C   0  0  0  0  0  0  0  0  0  0  0  0
   17.9310   -3.5270  -13.3932 O   0  0  0  0  0  0  0  0  0  0  0  0
   19.0063   -2.2974  -14.9566 O   0  0  0  0  0  0  0  0  0  0  0  0
  2  1  1  6
  3  2  1  0
  4  2  1  0
  5  4  1  0
  5  6  1  1
  7  5  1  0
  8  7  2  0
  9 10  1  0
 10 12  1  0
 11 10  2  0
 12 13  1  0
 14 13  1  1
 14 16  1  0
 14 15  1  0
 15  7  1  0
 16 17  2  0
 19 18  1  6
 20 19  1  0
 20 16  1  0
 21 19  1  0
 22 21  1  0
 23 21  2  0
M  END
$$$$
