LQA.pdb
     RDKit          3D

 23 22  0  0  1  0  0  0  0  0999 V2000
   17.8398  -11.6334  -22.4378 C   0  0  0  0  0  0  0  0  0  0  0  0
   18.7073  -12.1010  -21.2890 C   0  0  2  0  0  0  0  0  0  0  0  0
   19.1879  -13.4791  -21.6016 C   0  0  0  0  0  0  0  0  0  0  0  0
   17.9875  -11.9833  -19.9674 C   0  0  0  0  0  0  0  0  0  0  0  0
   18.8872  -12.3866  -18.8316 C   0  0  2  0  0  0  0  0  0  0  0  0
   18.4286  -13.6724  -18.3484 N   0  0  0  0  0  0  0  0  0  0  0  0
   18.8253  -11.4190  -17.7429 C   0  0  0  0  0  0  0  0  0  0  0  0
   17.8809  -11.4613  -16.9181 O   0  0  0  0  0  0  0  0  0  0  0  0
   23.2431   -9.8361  -14.1672 N   0  0  0  0  0  0  0  0  0  0  0  0
   22.2638   -8.9654  -13.6396 C   0  0  0  0  0  0  0  0  0  0  0  0
   22.5174   -8.4359  -12.5172 O   0  0  0  0  0  0  0  0  0  0  0  0
   21.0000   -8.6959  -14.3831 C   0  0  0  0  0  0  0  0  0  0  0  0
   20.9747   -9.6266  -15.5712 C   0  0  0  0  0  0  0  0  0  0  0  0
   19.7469   -9.4801  -16.4087 C   0  0  2  0  0  0  0  0  0  0  0  0
   19.7952  -10.3859  -17.5351 N   0  0  0  0  0  0  0  0  0  0  0  0
   19.4675   -8.1283  -16.8719 C   0  0  0  0  0  0  0  0  0  0  0  0
   20.1551   -7.6746  -17.8182 O   0  0  0  0  0  0  0  0  0  0  0  0
   16.7518   -5.6104  -16.9136 C   0  0  0  0  0  0  0  0  0  0  0  0
   18.2056   -5.9403  -16.7907 C   0  0  2  0  0  0  0  0  0  0  0  0
   18.4712   -7.2717  -16.3362 N   0  0  0  0  0  0  0  0  0  0  0  0
   18.8496   -4.9930  -15.8620 C   0  0  0  0  0  0  0  0  0  0  0  0
   19.1100   -3.6757  -16.2174 O   0  0  0  0  0  0  0  0  0  0  0  0
   19.1865   -5.3548  -14.7052 O   0  0  0  0  0  0  0  0  0  0  0  0
  2  1  1  6
  3  2  1  0
  4  2  1  0
  5  4  1  0
  5  6  1  1
  7  5  1  0
  8  7  2  0
  9 10  1  0
 10 12  1  0
 11 10  2  0
 12 13  1  0
 14 13  1  6
 14 16  1  0
 14 15  1  0
 15  7  1  0
 16 17  2  0
 19 18  1  1
 20 19  1  0
 20 16  1  0
 21 19  1  0
 22 21  1  0
 23 21  2  0
M  END
$$$$
