LQA.pdb
     RDKit          3D

 23 22  0  0  1  0  0  0  0  0999 V2000
   22.9284  -10.4680  -13.6515 C   0  0  0  0  0  0  0  0  0  0  0  0
   22.4780  -10.2767  -15.0838 C   0  0  2  0  0  0  0  0  0  0  0  0
   23.6328   -9.7458  -15.8663 C   0  0  0  0  0  0  0  0  0  0  0  0
   21.2341   -9.4253  -15.1646 C   0  0  0  0  0  0  0  0  0  0  0  0
   20.1291  -10.0138  -14.3309 C   0  0  2  0  0  0  0  0  0  0  0  0
   19.6570  -11.2023  -15.0102 N   0  0  0  0  0  0  0  0  0  0  0  0
   19.0224   -9.0758  -14.1875 C   0  0  0  0  0  0  0  0  0  0  0  0
   18.1664   -8.9705  -15.0986 O   0  0  0  0  0  0  0  0  0  0  0  0
   16.1785   -7.4343   -9.0646 N   0  0  0  0  0  0  0  0  0  0  0  0
   15.5206   -6.5598   -9.9579 C   0  0  0  0  0  0  0  0  0  0  0  0
   14.4979   -5.9573   -9.5159 O   0  0  0  0  0  0  0  0  0  0  0  0
   16.0216   -6.3690  -11.3490 C   0  0  0  0  0  0  0  0  0  0  0  0
   17.1653   -7.3340  -11.5472 C   0  0  0  0  0  0  0  0  0  0  0  0
   17.7268   -7.3063  -12.9307 C   0  0  2  0  0  0  0  0  0  0  0  0
   18.8301   -8.2344  -13.0446 N   0  0  0  0  0  0  0  0  0  0  0  0
   18.1327   -5.9931  -13.4112 C   0  0  0  0  0  0  0  0  0  0  0  0
   19.1666   -5.4787  -12.9207 O   0  0  0  0  0  0  0  0  0  0  0  0
   17.1168   -3.4971  -16.1042 C   0  0  0  0  0  0  0  0  0  0  0  0
   17.8889   -3.9782  -14.9168 C   0  0  2  0  0  0  0  0  0  0  0  0
   17.4487   -5.2383  -14.3991 N   0  0  0  0  0  0  0  0  0  0  0  0
   17.8089   -2.9765  -13.8375 C   0  0  0  0  0  0  0  0  0  0  0  0
   18.6612   -1.8810  -13.7853 O   0  0  0  0  0  0  0  0  0  0  0  0
   16.9550   -3.0863  -12.9202 O   0  0  0  0  0  0  0  0  0  0  0  0
  2  1  1  1
  3  2  1  0
  4  2  1  0
  5  4  1  0
  5  6  1  6
  7  5  1  0
  8  7  2  0
  9 10  1  0
 10 12  1  0
 11 10  2  0
 12 13  1  0
 14 13  1  1
 14 16  1  0
 14 15  1  0
 15  7  1  0
 16 17  2  0
 19 18  1  6
 20 19  1  0
 20 16  1  0
 21 19  1  0
 22 21  1  0
 23 21  2  0
M  END
$$$$
