LQA.pdb
     RDKit          3D

 23 22  0  0  1  0  0  0  0  0999 V2000
   28.9444  -18.9650  -17.1566 C   0  0  0  0  0  0  0  0  0  0  0  0
   28.2970  -20.0705  -17.9627 C   0  0  2  0  0  0  0  0  0  0  0  0
   27.9561  -19.5241  -19.3093 C   0  0  0  0  0  0  0  0  0  0  0  0
   27.1266  -20.6789  -17.2290 C   0  0  0  0  0  0  0  0  0  0  0  0
   27.5321  -21.1203  -15.8495 C   0  0  2  0  0  0  0  0  0  0  0  0
   28.3135  -22.3312  -15.9921 N   0  0  0  0  0  0  0  0  0  0  0  0
   26.3645  -21.4015  -15.0232 C   0  0  0  0  0  0  0  0  0  0  0  0
   25.7846  -22.5105  -15.1120 O   0  0  0  0  0  0  0  0  0  0  0  0
   25.4449  -21.2944   -9.6489 N   0  0  0  0  0  0  0  0  0  0  0  0
   24.0765  -20.9900   -9.8230 C   0  0  0  0  0  0  0  0  0  0  0  0
   23.2870  -21.3725   -8.9093 O   0  0  0  0  0  0  0  0  0  0  0  0
   23.6047  -20.2534  -11.0303 C   0  0  0  0  0  0  0  0  0  0  0  0
   24.8012  -20.0591  -11.9298 C   0  0  0  0  0  0  0  0  0  0  0  0
   24.6979  -20.8075  -13.2180 C   0  0  2  0  0  0  0  0  0  0  0  0
   25.8080  -20.4751  -14.0833 N   0  0  0  0  0  0  0  0  0  0  0  0
   23.4425  -20.6394  -13.9362 C   0  0  0  0  0  0  0  0  0  0  0  0
   23.2240  -19.5362  -14.4926 O   0  0  0  0  0  0  0  0  0  0  0  0
   20.3977  -22.7027  -14.9270 C   0  0  0  0  0  0  0  0  0  0  0  0
   21.1824  -21.4446  -14.7295 C   0  0  2  0  0  0  0  0  0  0  0  0
   22.4345  -21.6302  -14.0605 N   0  0  0  0  0  0  0  0  0  0  0  0
   20.3793  -20.4786  -13.9570 C   0  0  0  0  0  0  0  0  0  0  0  0
   20.4606  -20.3941  -12.5730 O   0  0  0  0  0  0  0  0  0  0  0  0
   19.5866  -19.6923  -14.5366 O   0  0  0  0  0  0  0  0  0  0  0  0
  2  1  1  1
  3  2  1  0
  4  2  1  0
  5  4  1  0
  5  6  1  6
  7  5  1  0
  8  7  2  0
  9 10  1  0
 10 12  1  0
 11 10  2  0
 12 13  1  0
 14 13  1  1
 14 16  1  0
 14 15  1  0
 15  7  1  0
 16 17  2  0
 19 18  1  1
 20 19  1  0
 20 16  1  0
 21 19  1  0
 22 21  1  0
 23 21  2  0
M  END
$$$$
