LQA.pdb
     RDKit          3D

 23 22  0  0  1  0  0  0  0  0999 V2000
   21.9953  -13.0247  -15.3972 C   0  0  0  0  0  0  0  0  0  0  0  0
   23.2568  -12.3047  -15.8228 C   0  0  2  0  0  0  0  0  0  0  0  0
   24.3342  -12.6391  -14.8454 C   0  0  0  0  0  0  0  0  0  0  0  0
   23.0183  -10.8243  -15.9961 C   0  0  0  0  0  0  0  0  0  0  0  0
   21.9496  -10.5723  -17.0240 C   0  0  2  0  0  0  0  0  0  0  0  0
   22.5038  -10.9073  -18.3193 N   0  0  0  0  0  0  0  0  0  0  0  0
   21.5434   -9.1722  -17.0275 C   0  0  0  0  0  0  0  0  0  0  0  0
   22.2969   -8.3009  -17.5246 O   0  0  0  0  0  0  0  0  0  0  0  0
   16.7962   -9.2918  -16.9282 N   0  0  0  0  0  0  0  0  0  0  0  0
   17.1131   -8.6651  -18.1539 C   0  0  0  0  0  0  0  0  0  0  0  0
   16.5692   -9.1405  -19.1943 O   0  0  0  0  0  0  0  0  0  0  0  0
   18.0447   -7.5020  -18.1995 C   0  0  0  0  0  0  0  0  0  0  0  0
   18.4408   -7.1921  -16.7763 C   0  0  0  0  0  0  0  0  0  0  0  0
   19.9101   -7.3070  -16.5351 C   0  0  2  0  0  0  0  0  0  0  0  0
   20.3049   -8.6974  -16.4871 N   0  0  0  0  0  0  0  0  0  0  0  0
   20.4031   -6.6112  -15.3549 C   0  0  0  0  0  0  0  0  0  0  0  0
   20.5687   -7.2762  -14.3038 O   0  0  0  0  0  0  0  0  0  0  0  0
   22.7642   -4.7910  -14.0052 C   0  0  0  0  0  0  0  0  0  0  0  0
   21.2932   -4.5690  -14.1619 C   0  0  2  0  0  0  0  0  0  0  0  0
   20.7153   -5.2284  -15.2937 N   0  0  0  0  0  0  0  0  0  0  0  0
   21.0218   -3.1239  -14.2750 C   0  0  0  0  0  0  0  0  0  0  0  0
   21.2911   -2.2410  -13.2370 O   0  0  0  0  0  0  0  0  0  0  0  0
   20.5319   -2.6420  -15.3287 O   0  0  0  0  0  0  0  0  0  0  0  0
  2  1  1  1
  3  2  1  0
  4  2  1  0
  5  4  1  0
  5  6  1  6
  7  5  1  0
  8  7  2  0
  9 10  1  0
 10 12  1  0
 11 10  2  0
 12 13  1  0
 14 13  1  1
 14 16  1  0
 14 15  1  0
 15  7  1  0
 16 17  2  0
 19 18  1  6
 20 19  1  0
 20 16  1  0
 21 19  1  0
 22 21  1  0
 23 21  2  0
M  END
$$$$
