SLQ.pdb
     RDKit          3D

 24 23  0  0  1  0  0  0  0  0999 V2000
   15.5162   -9.3420  -18.1577 O   0  0  0  0  0  0  0  0  0  0  0  0
   16.5569   -8.9401  -17.3214 C   0  0  0  0  0  0  0  0  0  0  0  0
   16.8625  -10.0135  -16.2951 C   0  0  2  0  0  0  0  0  0  0  0  0
   15.7277  -10.2984  -15.4608 N   0  0  0  0  0  0  0  0  0  0  0  0
   17.9988   -9.6203  -15.4393 C   0  0  0  0  0  0  0  0  0  0  0  0
   17.8103   -9.0249  -14.3658 O   0  0  0  0  0  0  0  0  0  0  0  0
   24.1864  -10.4850  -15.1451 C   0  0  0  0  0  0  0  0  0  0  0  0
   22.9575   -9.8134  -14.6037 C   0  0  2  0  0  0  0  0  0  0  0  0
   22.8364  -10.2566  -13.1363 C   0  0  0  0  0  0  0  0  0  0  0  0
   21.7607  -10.2098  -15.3851 C   0  0  0  0  0  0  0  0  0  0  0  0
   20.4935   -9.4648  -15.1578 C   0  0  2  0  0  0  0  0  0  0  0  0
   19.3347   -9.9308  -15.8545 N   0  0  0  0  0  0  0  0  0  0  0  0
   20.6873   -8.0056  -15.2640 C   0  0  0  0  0  0  0  0  0  0  0  0
   21.2451   -7.4003  -14.3233 O   0  0  0  0  0  0  0  0  0  0  0  0
   20.6017   -2.3689  -20.0505 N   0  0  0  0  0  0  0  0  0  0  0  0
   20.4865   -3.7241  -19.6303 C   0  0  0  0  0  0  0  0  0  0  0  0
   20.2745   -4.6454  -20.4422 O   0  0  0  0  0  0  0  0  0  0  0  0
   20.6316   -3.9948  -18.1659 C   0  0  0  0  0  0  0  0  0  0  0  0
   20.3943   -5.4573  -17.9422 C   0  0  0  0  0  0  0  0  0  0  0  0
   20.5307   -5.8043  -16.5023 C   0  0  2  0  0  0  0  0  0  0  0  0
   20.2685   -7.2575  -16.3873 N   0  0  0  0  0  0  0  0  0  0  0  0
   19.4877   -5.1238  -15.7003 C   0  0  0  0  0  0  0  0  0  0  0  0
   19.5914   -3.9887  -15.1853 O   0  0  0  0  0  0  0  0  0  0  0  0
   18.2498   -5.7574  -15.4612 O   0  0  0  0  0  0  0  0  0  0  0  0
  2  1  1  0
  3  4  1  1
  3  2  1  0
  5  3  1  0
  6  5  2  0
  8  7  1  6
  8 10  1  0
  9  8  1  0
 11 10  1  6
 11 12  1  0
 12  5  1  0
 13 11  1  0
 14 13  2  0
 16 15  1  0
 16 18  1  0
 17 16  2  0
 20 19  1  6
 19 18  1  0
 20 21  1  0
 21 13  1  0
 22 24  1  0
 22 20  1  0
 23 22  2  0
M  END
$$$$
