SLQ.pdb
     RDKit          3D

 24 23  0  0  1  0  0  0  0  0999 V2000
   26.9390  -18.3973  -14.1354 O   0  0  0  0  0  0  0  0  0  0  0  0
   27.5238  -19.4176  -14.8844 C   0  0  0  0  0  0  0  0  0  0  0  0
   27.9696  -20.5531  -13.9839 C   0  0  2  0  0  0  0  0  0  0  0  0
   28.5785  -21.6217  -14.7273 N   0  0  0  0  0  0  0  0  0  0  0  0
   26.8342  -21.0940  -13.2115 C   0  0  0  0  0  0  0  0  0  0  0  0
   26.0335  -21.8892  -13.7302 O   0  0  0  0  0  0  0  0  0  0  0  0
   28.0554  -21.0713   -8.7074 C   0  0  0  0  0  0  0  0  0  0  0  0
   26.7950  -20.3028   -8.9817 C   0  0  2  0  0  0  0  0  0  0  0  0
   26.3305  -19.7415   -7.6276 C   0  0  0  0  0  0  0  0  0  0  0  0
   25.7650  -21.1879   -9.5781 C   0  0  0  0  0  0  0  0  0  0  0  0
   25.5505  -21.1264  -11.0487 C   0  0  2  0  0  0  0  0  0  0  0  0
   26.6561  -20.6952  -11.8468 N   0  0  0  0  0  0  0  0  0  0  0  0
   24.2864  -20.4461  -11.3917 C   0  0  0  0  0  0  0  0  0  0  0  0
   24.1886  -19.2163  -11.1911 O   0  0  0  0  0  0  0  0  0  0  0  0
   22.4991  -22.1986  -16.0351 N   0  0  0  0  0  0  0  0  0  0  0  0
   22.9119  -20.8363  -16.0473 C   0  0  0  0  0  0  0  0  0  0  0  0
   23.5552  -20.3559  -17.0003 O   0  0  0  0  0  0  0  0  0  0  0  0
   22.5383  -20.0038  -14.8616 C   0  0  0  0  0  0  0  0  0  0  0  0
   21.8225  -20.8872  -13.8856 C   0  0  0  0  0  0  0  0  0  0  0  0
   22.0082  -20.4009  -12.4924 C   0  0  2  0  0  0  0  0  0  0  0  0
   23.1754  -21.1261  -11.9396 N   0  0  0  0  0  0  0  0  0  0  0  0
   20.8462  -20.7705  -11.6513 C   0  0  0  0  0  0  0  0  0  0  0  0
   20.8437  -21.6470  -10.7590 O   0  0  0  0  0  0  0  0  0  0  0  0
   19.6086  -20.1148  -11.8226 O   0  0  0  0  0  0  0  0  0  0  0  0
  2  1  1  0
  3  4  1  6
  3  2  1  0
  5  3  1  0
  6  5  2  0
  8  7  1  1
  8 10  1  0
  9  8  1  0
 11 10  1  1
 11 12  1  0
 12  5  1  0
 13 11  1  0
 14 13  2  0
 16 15  1  0
 16 18  1  0
 17 16  2  0
 20 19  1  6
 19 18  1  0
 20 21  1  0
 21 13  1  0
 22 24  1  0
 22 20  1  0
 23 22  2  0
M  END
$$$$
