SLQ.pdb
     RDKit          3D

 24 23  0  0  1  0  0  0  0  0999 V2000
   15.6983  -10.5311  -19.1105 O   0  0  0  0  0  0  0  0  0  0  0  0
   16.4898   -9.9103  -18.1451 C   0  0  0  0  0  0  0  0  0  0  0  0
   16.9340  -10.9098  -17.0950 C   0  0  2  0  0  0  0  0  0  0  0  0
   15.8525  -11.3010  -16.2333 N   0  0  0  0  0  0  0  0  0  0  0  0
   18.0283  -10.3612  -16.2704 C   0  0  0  0  0  0  0  0  0  0  0  0
   17.7888   -9.5859  -15.3303 O   0  0  0  0  0  0  0  0  0  0  0  0
   24.1171  -11.3591  -15.3185 C   0  0  0  0  0  0  0  0  0  0  0  0
   22.9120  -10.4964  -15.0779 C   0  0  2  0  0  0  0  0  0  0  0  0
   22.6497  -10.5370  -13.5633 C   0  0  0  0  0  0  0  0  0  0  0  0
   21.7458  -11.0072  -15.8389 C   0  0  0  0  0  0  0  0  0  0  0  0
   20.5030  -10.1901  -15.8544 C   0  0  2  0  0  0  0  0  0  0  0  0
   19.3824  -10.7294  -16.5605 N   0  0  0  0  0  0  0  0  0  0  0  0
   20.7771   -8.7793  -16.1906 C   0  0  0  0  0  0  0  0  0  0  0  0
   20.8187   -8.4422  -17.3935 O   0  0  0  0  0  0  0  0  0  0  0  0
   19.1592   -5.2238  -18.1835 N   0  0  0  0  0  0  0  0  0  0  0  0
   19.5091   -4.0718  -17.4239 C   0  0  0  0  0  0  0  0  0  0  0  0
   19.4603   -2.9263  -17.9121 O   0  0  0  0  0  0  0  0  0  0  0  0
   19.9394   -4.2974  -16.0088 C   0  0  0  0  0  0  0  0  0  0  0  0
   19.8462   -5.7663  -15.7277 C   0  0  0  0  0  0  0  0  0  0  0  0
   21.1986   -6.3638  -15.5652 C   0  0  2  0  0  0  0  0  0  0  0  0
   20.9957   -7.7870  -15.2086 N   0  0  0  0  0  0  0  0  0  0  0  0
   21.9106   -5.7416  -14.4250 C   0  0  0  0  0  0  0  0  0  0  0  0
   21.8327   -6.1079  -13.2316 O   0  0  0  0  0  0  0  0  0  0  0  0
   22.7641   -4.6383  -14.6377 O   0  0  0  0  0  0  0  0  0  0  0  0
  2  1  1  0
  3  4  1  1
  3  2  1  0
  5  3  1  0
  6  5  2  0
  8  7  1  1
  8 10  1  0
  9  8  1  0
 11 10  1  6
 11 12  1  0
 12  5  1  0
 13 11  1  0
 14 13  2  0
 16 15  1  0
 16 18  1  0
 17 16  2  0
 20 19  1  1
 19 18  1  0
 20 21  1  0
 21 13  1  0
 22 24  1  0
 22 20  1  0
 23 22  2  0
M  END
$$$$
