SLQ.pdb
     RDKit          3D

 24 23  0  0  1  0  0  0  0  0999 V2000
   31.4742  -32.2294  -19.3715 O   0  0  0  0  0  0  0  0  0  0  0  0
   30.8845  -31.7717  -18.1939 C   0  0  0  0  0  0  0  0  0  0  0  0
   30.0660  -30.5228  -18.4568 C   0  0  2  0  0  0  0  0  0  0  0  0
   30.8234  -29.3242  -18.2227 N   0  0  0  0  0  0  0  0  0  0  0  0
   28.8548  -30.4957  -17.6138 C   0  0  0  0  0  0  0  0  0  0  0  0
   28.7973  -29.7716  -16.6064 O   0  0  0  0  0  0  0  0  0  0  0  0
   22.8528  -30.7591  -18.3981 C   0  0  0  0  0  0  0  0  0  0  0  0
   23.9577  -30.9520  -17.3998 C   0  0  2  0  0  0  0  0  0  0  0  0
   23.8342  -29.7962  -16.3932 C   0  0  0  0  0  0  0  0  0  0  0  0
   25.2780  -30.9374  -18.0753 C   0  0  0  0  0  0  0  0  0  0  0  0
   26.4846  -31.2639  -17.2690 C   0  0  2  0  0  0  0  0  0  0  0  0
   27.7333  -31.3158  -17.9643 N   0  0  0  0  0  0  0  0  0  0  0  0
   26.2601  -32.4286  -16.3908 C   0  0  0  0  0  0  0  0  0  0  0  0
   26.3516  -33.5770  -16.8754 O   0  0  0  0  0  0  0  0  0  0  0  0
   26.2949  -32.1299  -10.2905 N   0  0  0  0  0  0  0  0  0  0  0  0
   26.1231  -33.5399  -10.3838 C   0  0  0  0  0  0  0  0  0  0  0  0
   26.1558  -34.2714   -9.3754 O   0  0  0  0  0  0  0  0  0  0  0  0
   25.9007  -34.1072  -11.7503 C   0  0  0  0  0  0  0  0  0  0  0  0
   25.9988  -32.9836  -12.7369 C   0  0  0  0  0  0  0  0  0  0  0  0
   25.8390  -33.4824  -14.1290 C   0  0  2  0  0  0  0  0  0  0  0  0
   25.9445  -32.3032  -15.0191 N   0  0  0  0  0  0  0  0  0  0  0  0
   24.4824  -34.0419  -14.3305 C   0  0  0  0  0  0  0  0  0  0  0  0
   23.4328  -33.3746  -14.4633 O   0  0  0  0  0  0  0  0  0  0  0  0
   24.2916  -35.4388  -14.3867 O   0  0  0  0  0  0  0  0  0  0  0  0
  2  1  1  0
  3  4  1  1
  3  2  1  0
  5  3  1  0
  6  5  2  0
  8  7  1  6
  8 10  1  0
  9  8  1  0
 11 10  1  6
 11 12  1  0
 12  5  1  0
 13 11  1  0
 14 13  2  0
 16 15  1  0
 16 18  1  0
 17 16  2  0
 20 19  1  1
 19 18  1  0
 20 21  1  0
 21 13  1  0
 22 24  1  0
 22 20  1  0
 23 22  2  0
M  END
$$$$
