SLQ.pdb
     RDKit          3D

 24 23  0  0  1  0  0  0  0  0999 V2000
   16.6946   -8.8708  -20.2695 O   0  0  0  0  0  0  0  0  0  0  0  0
   17.1412   -8.7865  -18.9513 C   0  0  0  0  0  0  0  0  0  0  0  0
   17.8133  -10.0791  -18.5313 C   0  0  2  0  0  0  0  0  0  0  0  0
   16.8573  -11.1070  -18.2235 N   0  0  0  0  0  0  0  0  0  0  0  0
   18.6827   -9.8673  -17.3576 C   0  0  0  0  0  0  0  0  0  0  0  0
   18.1954   -9.6891  -16.2292 O   0  0  0  0  0  0  0  0  0  0  0  0
   24.1873  -11.3393  -15.1849 C   0  0  0  0  0  0  0  0  0  0  0  0
   23.1052  -10.2983  -15.1757 C   0  0  2  0  0  0  0  0  0  0  0  0
   22.4956  -10.3243  -13.7644 C   0  0  0  0  0  0  0  0  0  0  0  0
   22.0837  -10.6003  -16.2079 C   0  0  0  0  0  0  0  0  0  0  0  0
   21.0147   -9.5960  -16.4549 C   0  0  2  0  0  0  0  0  0  0  0  0
   20.1058   -9.8679  -17.5250 N   0  0  0  0  0  0  0  0  0  0  0  0
   21.5486   -8.2204  -16.4817 C   0  0  0  0  0  0  0  0  0  0  0  0
   22.0858   -7.8013  -17.5296 O   0  0  0  0  0  0  0  0  0  0  0  0
   19.6243   -3.3636  -17.4788 N   0  0  0  0  0  0  0  0  0  0  0  0
   18.9567   -3.9895  -16.3884 C   0  0  0  0  0  0  0  0  0  0  0  0
   17.7935   -3.6783  -16.0675 O   0  0  0  0  0  0  0  0  0  0  0  0
   19.7155   -5.0410  -15.6419 C   0  0  0  0  0  0  0  0  0  0  0  0
   21.0514   -5.2007  -16.3015 C   0  0  0  0  0  0  0  0  0  0  0  0
   21.9874   -5.9606  -15.4306 C   0  0  2  0  0  0  0  0  0  0  0  0
   21.4797   -7.3508  -15.3700 N   0  0  0  0  0  0  0  0  0  0  0  0
   21.9513   -5.4386  -14.0448 C   0  0  0  0  0  0  0  0  0  0  0  0
   22.4288   -4.3463  -13.6664 O   0  0  0  0  0  0  0  0  0  0  0  0
   21.3405   -6.1903  -13.0187 O   0  0  0  0  0  0  0  0  0  0  0  0
  2  1  1  0
  3  4  1  1
  3  2  1  0
  5  3  1  0
  6  5  2  0
  8  7  1  1
  8 10  1  0
  9  8  1  0
 11 10  1  6
 11 12  1  0
 12  5  1  0
 13 11  1  0
 14 13  2  0
 16 15  1  0
 16 18  1  0
 17 16  2  0
 20 19  1  6
 19 18  1  0
 20 21  1  0
 21 13  1  0
 22 24  1  0
 22 20  1  0
 23 22  2  0
M  END
$$$$
