SLQ.pdb
     RDKit          3D

 24 23  0  0  1  0  0  0  0  0999 V2000
   27.2905  -24.6756  -19.5002 O   0  0  0  0  0  0  0  0  0  0  0  0
   26.4694  -23.9485  -18.6393 C   0  0  0  0  0  0  0  0  0  0  0  0
   27.2499  -23.4774  -17.4278 C   0  0  2  0  0  0  0  0  0  0  0  0
   27.6098  -24.5671  -16.5629 N   0  0  0  0  0  0  0  0  0  0  0  0
   26.4782  -22.4863  -16.6528 C   0  0  0  0  0  0  0  0  0  0  0  0
   25.9068  -22.8087  -15.5983 O   0  0  0  0  0  0  0  0  0  0  0  0
   27.5553  -16.7971  -16.3946 C   0  0  0  0  0  0  0  0  0  0  0  0
   26.9884  -18.0417  -15.7750 C   0  0  2  0  0  0  0  0  0  0  0  0
   28.1889  -18.9464  -15.4519 C   0  0  0  0  0  0  0  0  0  0  0  0
   26.0500  -18.7081  -16.7107 C   0  0  0  0  0  0  0  0  0  0  0  0
   25.6622  -20.1171  -16.4338 C   0  0  2  0  0  0  0  0  0  0  0  0
   26.3889  -21.1364  -17.1253 N   0  0  0  0  0  0  0  0  0  0  0  0
   24.1996  -20.3060  -16.4913 C   0  0  0  0  0  0  0  0  0  0  0  0
   23.6655  -20.5536  -17.5939 O   0  0  0  0  0  0  0  0  0  0  0  0
   19.9588  -23.8441  -13.3026 N   0  0  0  0  0  0  0  0  0  0  0  0
   19.7618  -22.4485  -13.1025 C   0  0  0  0  0  0  0  0  0  0  0  0
   19.3622  -21.9934  -12.0134 O   0  0  0  0  0  0  0  0  0  0  0  0
   20.0565  -21.5489  -14.2612 C   0  0  0  0  0  0  0  0  0  0  0  0
   21.5319  -21.2878  -14.2780 C   0  0  0  0  0  0  0  0  0  0  0  0
   21.9061  -20.4226  -15.4284 C   0  0  2  0  0  0  0  0  0  0  0  0
   23.3711  -20.2190  -15.3499 N   0  0  0  0  0  0  0  0  0  0  0  0
   21.2874  -19.0831  -15.2971 C   0  0  0  0  0  0  0  0  0  0  0  0
   21.8351  -18.0746  -14.7997 O   0  0  0  0  0  0  0  0  0  0  0  0
   19.9705  -18.8615  -15.7529 O   0  0  0  0  0  0  0  0  0  0  0  0
  2  1  1  0
  3  4  1  1
  3  2  1  0
  5  3  1  0
  6  5  2  0
  8  7  1  6
  8 10  1  0
  9  8  1  0
 11 10  1  6
 11 12  1  0
 12  5  1  0
 13 11  1  0
 14 13  2  0
 16 15  1  0
 16 18  1  0
 17 16  2  0
 20 19  1  1
 19 18  1  0
 20 21  1  0
 21 13  1  0
 22 24  1  0
 22 20  1  0
 23 22  2  0
M  END
$$$$
