SLQ.pdb
     RDKit          3D

 24 23  0  0  1  0  0  0  0  0999 V2000
   21.1963  -12.6038  -20.8787 O   0  0  0  0  0  0  0  0  0  0  0  0
   21.5063  -11.7664  -19.8079 C   0  0  0  0  0  0  0  0  0  0  0  0
   22.5621  -12.3995  -18.9229 C   0  0  2  0  0  0  0  0  0  0  0  0
   22.0526  -13.5370  -18.2075 N   0  0  0  0  0  0  0  0  0  0  0  0
   23.0951  -11.4235  -17.9525 C   0  0  0  0  0  0  0  0  0  0  0  0
   22.4338  -11.0932  -16.9544 O   0  0  0  0  0  0  0  0  0  0  0  0
   26.6653  -11.1142  -15.0978 C   0  0  0  0  0  0  0  0  0  0  0  0
   27.0399  -10.9936  -16.5468 C   0  0  2  0  0  0  0  0  0  0  0  0
   28.5732  -10.8869  -16.5871 C   0  0  0  0  0  0  0  0  0  0  0  0
   26.4022   -9.7987  -17.1515 C   0  0  0  0  0  0  0  0  0  0  0  0
   24.9275   -9.8107  -17.3461 C   0  0  2  0  0  0  0  0  0  0  0  0
   24.3914  -10.8518  -18.1670 N   0  0  0  0  0  0  0  0  0  0  0  0
   24.4079   -8.4732  -17.6913 C   0  0  0  0  0  0  0  0  0  0  0  0
   24.3818   -8.1266  -18.8919 O   0  0  0  0  0  0  0  0  0  0  0  0
   20.6616   -5.2952  -14.1451 N   0  0  0  0  0  0  0  0  0  0  0  0
   20.7629   -4.3106  -15.1681 C   0  0  0  0  0  0  0  0  0  0  0  0
   20.0791   -3.2690  -15.1441 O   0  0  0  0  0  0  0  0  0  0  0  0
   21.7297   -4.5819  -16.2773 C   0  0  0  0  0  0  0  0  0  0  0  0
   22.3988   -5.8926  -15.9947 C   0  0  0  0  0  0  0  0  0  0  0  0
   23.3287   -6.2634  -17.0947 C   0  0  2  0  0  0  0  0  0  0  0  0
   23.9359   -7.5614  -16.7202 N   0  0  0  0  0  0  0  0  0  0  0  0
   24.4411   -5.2898  -17.1883 C   0  0  0  0  0  0  0  0  0  0  0  0
   24.4674   -4.2848  -17.9324 O   0  0  0  0  0  0  0  0  0  0  0  0
   25.5974   -5.4546  -16.3965 O   0  0  0  0  0  0  0  0  0  0  0  0
  2  1  1  0
  3  4  1  1
  3  2  1  0
  5  3  1  0
  6  5  2  0
  8  7  1  1
  8 10  1  0
  9  8  1  0
 11 10  1  6
 11 12  1  0
 12  5  1  0
 13 11  1  0
 14 13  2  0
 16 15  1  0
 16 18  1  0
 17 16  2  0
 20 19  1  1
 19 18  1  0
 20 21  1  0
 21 13  1  0
 22 24  1  0
 22 20  1  0
 23 22  2  0
M  END
$$$$
