INY.pdb
     RDKit          3D

 29 29  0  0  1  0  0  0  0  0999 V2000
    7.6712  -11.5668   19.4581 C   0  0  0  0  0  0  0  0  0  0  0  0
    8.3829  -12.8503   19.1956 C   0  0  0  0  0  0  0  0  0  0  0  0
    7.9350  -13.9850   20.1096 C   0  0  2  0  0  0  0  0  0  0  0  0
    8.4076  -13.5769   21.5123 C   0  0  0  0  0  0  0  0  0  0  0  0
    8.7208  -15.1971   19.7332 C   0  0  2  0  0  0  0  0  0  0  0  0
    8.4370  -15.7257   18.4341 N   0  0  0  0  0  0  0  0  0  0  0  0
    8.5339  -16.3079   20.7168 C   0  0  0  0  0  0  0  0  0  0  0  0
    7.9714  -17.3892   20.4231 O   0  0  0  0  0  0  0  0  0  0  0  0
    8.5120  -20.3911   23.6482 N   0  0  0  0  0  0  0  0  0  0  0  0
    9.6582  -19.6065   23.5095 C   0  0  0  0  0  0  0  0  0  0  0  0
   10.6122  -19.8515   24.3208 O   0  0  0  0  0  0  0  0  0  0  0  0
    9.7978  -18.5242   22.4742 C   0  0  0  0  0  0  0  0  0  0  0  0
    9.0666  -17.3223   22.9236 C   0  0  2  0  0  0  0  0  0  0  0  0
    8.9813  -16.2188   22.0598 N   0  0  0  0  0  0  0  0  0  0  0  0
    9.6474  -16.8792   24.2168 C   0  0  0  0  0  0  0  0  0  0  0  0
   10.7827  -16.3520   24.2145 O   0  0  0  0  0  0  0  0  0  0  0  0
    6.4766  -11.4029   25.1126 O   0  0  0  0  0  0  0  0  0  0  0  0
    6.9433  -12.5595   25.7186 C   0  0  0  0  0  0  0  0  0  0  0  0
    6.1388  -13.6566   25.8933 C   0  0  0  0  0  0  0  0  0  0  0  0
    6.6572  -14.7762   26.5014 C   0  0  0  0  0  0  0  0  0  0  0  0
    7.9669  -14.7708   26.9197 C   0  0  0  0  0  0  0  0  0  0  0  0
    8.4912  -15.9960   27.5733 C   0  0  0  0  0  0  0  0  0  0  0  0
    9.5841  -16.5552   26.6933 C   0  0  2  0  0  0  0  0  0  0  0  0
    8.9850  -17.0197   25.4650 N   0  0  0  0  0  0  0  0  0  0  0  0
   10.3008  -17.6811   27.3842 C   0  0  0  0  0  0  0  0  0  0  0  0
   11.0595  -17.4501   28.5161 O   0  0  0  0  0  0  0  0  0  0  0  0
    8.7922  -13.6792   26.7539 C   0  0  0  0  0  0  0  0  0  0  0  0
    8.2570  -12.5708   26.1447 C   0  0  0  0  0  0  0  0  0  0  0  0
   10.2372  -18.8580   26.9639 O   0  0  0  0  0  0  0  0  0  0  0  0
  2  1  1  0
  3  2  1  0
  3  4  1  1
  5  3  1  0
  5  6  1  6
  7  8  2  0
  7  5  1  0
  9 10  1  0
 10 11  2  0
 10 12  1  0
 13 12  1  6
 13 14  1  0
 14  7  1  0
 15 24  1  0
 15 13  1  0
 16 15  2  0
 17 18  1  0
 18 28  2  0
 19 20  2  0
 19 18  1  0
 20 21  1  0
 21 22  1  0
 21 27  2  0
 23 22  1  1
 23 25  1  0
 23 24  1  0
 25 26  1  0
 28 27  1  0
 29 25  2  0
M  END
$$$$
