INY.pdb
     RDKit          3D

 29 29  0  0  1  0  0  0  0  0999 V2000
    7.6018  -12.2184   18.9189 C   0  0  0  0  0  0  0  0  0  0  0  0
    7.5123  -13.1327   20.0930 C   0  0  0  0  0  0  0  0  0  0  0  0
    8.0829  -14.5198   19.8211 C   0  0  2  0  0  0  0  0  0  0  0  0
    7.0646  -15.1939   18.8904 C   0  0  0  0  0  0  0  0  0  0  0  0
    8.0477  -15.2764   21.1074 C   0  0  2  0  0  0  0  0  0  0  0  0
    7.9028  -14.4716   22.2816 N   0  0  0  0  0  0  0  0  0  0  0  0
    9.2709  -16.1167   21.2913 C   0  0  0  0  0  0  0  0  0  0  0  0
    9.9164  -16.5981   20.3302 O   0  0  0  0  0  0  0  0  0  0  0  0
   11.5276  -19.0879   20.8013 N   0  0  0  0  0  0  0  0  0  0  0  0
   12.3796  -17.9963   20.9778 C   0  0  0  0  0  0  0  0  0  0  0  0
   13.3845  -17.9313   20.1941 O   0  0  0  0  0  0  0  0  0  0  0  0
   12.1581  -16.9362   22.0218 C   0  0  0  0  0  0  0  0  0  0  0  0
   10.9226  -17.2408   22.7715 C   0  0  2  0  0  0  0  0  0  0  0  0
    9.7924  -16.4320   22.5720 N   0  0  0  0  0  0  0  0  0  0  0  0
   11.2497  -17.2643   24.2201 C   0  0  0  0  0  0  0  0  0  0  0  0
   12.4015  -16.9312   24.5798 O   0  0  0  0  0  0  0  0  0  0  0  0
    6.3237  -11.6647   27.7545 O   0  0  0  0  0  0  0  0  0  0  0  0
    6.9926  -12.6559   27.0524 C   0  0  0  0  0  0  0  0  0  0  0  0
    8.2742  -12.4770   26.5977 C   0  0  0  0  0  0  0  0  0  0  0  0
    8.8871  -13.4964   25.9067 C   0  0  0  0  0  0  0  0  0  0  0  0
    8.2032  -14.6689   25.6877 C   0  0  0  0  0  0  0  0  0  0  0  0
    8.8959  -15.7458   24.9370 C   0  0  0  0  0  0  0  0  0  0  0  0
    9.5440  -16.6655   25.9447 C   0  0  2  0  0  0  0  0  0  0  0  0
   10.3252  -17.6454   25.2284 N   0  0  0  0  0  0  0  0  0  0  0  0
    8.5050  -17.3434   26.7929 C   0  0  0  0  0  0  0  0  0  0  0  0
    8.0796  -18.6261   26.5031 O   0  0  0  0  0  0  0  0  0  0  0  0
    6.9152  -14.8691   26.1359 C   0  0  0  0  0  0  0  0  0  0  0  0
    6.3198  -13.8402   26.8238 C   0  0  0  0  0  0  0  0  0  0  0  0
    7.9920  -16.7767   27.7836 O   0  0  0  0  0  0  0  0  0  0  0  0
  2  1  1  0
  3  2  1  0
  3  4  1  6
  5  3  1  0
  5  6  1  1
  7  8  2  0
  7  5  1  0
  9 10  1  0
 10 11  2  0
 10 12  1  0
 13 12  1  6
 13 14  1  0
 14  7  1  0
 15 24  1  0
 15 13  1  0
 16 15  2  0
 17 18  1  0
 18 28  2  0
 19 20  2  0
 19 18  1  0
 20 21  1  0
 21 22  1  0
 21 27  2  0
 23 22  1  6
 23 25  1  0
 23 24  1  0
 25 26  1  0
 28 27  1  0
 29 25  2  0
M  END
$$$$
