INY.pdb
     RDKit          3D

 29 29  0  0  1  0  0  0  0  0999 V2000
    7.6858  -11.5350   18.4832 C   0  0  0  0  0  0  0  0  0  0  0  0
    8.3044  -12.8288   18.0755 C   0  0  0  0  0  0  0  0  0  0  0  0
    7.9927  -13.9735   19.0327 C   0  0  2  0  0  0  0  0  0  0  0  0
    8.7499  -13.6306   20.3236 C   0  0  0  0  0  0  0  0  0  0  0  0
    8.6322  -15.2037   18.4798 C   0  0  2  0  0  0  0  0  0  0  0  0
    8.0502  -15.6996   17.2702 N   0  0  0  0  0  0  0  0  0  0  0  0
    8.6273  -16.3250   19.4690 C   0  0  0  0  0  0  0  0  0  0  0  0
    7.7098  -17.1775   19.5265 O   0  0  0  0  0  0  0  0  0  0  0  0
   11.1459  -20.5431   22.8020 N   0  0  0  0  0  0  0  0  0  0  0  0
   10.1426  -19.7167   22.2929 C   0  0  0  0  0  0  0  0  0  0  0  0
    9.0052  -19.7897   22.8667 O   0  0  0  0  0  0  0  0  0  0  0  0
   10.3528  -18.7800   21.1348 C   0  0  0  0  0  0  0  0  0  0  0  0
    9.6494  -17.5091   21.4019 C   0  0  2  0  0  0  0  0  0  0  0  0
    9.6649  -16.5068   20.4189 N   0  0  0  0  0  0  0  0  0  0  0  0
   10.1704  -16.9458   22.6737 C   0  0  0  0  0  0  0  0  0  0  0  0
   11.3277  -16.4692   22.6883 O   0  0  0  0  0  0  0  0  0  0  0  0
   11.1467  -14.2885   30.8367 O   0  0  0  0  0  0  0  0  0  0  0  0
   10.5846  -14.6901   29.6344 C   0  0  0  0  0  0  0  0  0  0  0  0
   10.3402  -13.7996   28.6202 C   0  0  0  0  0  0  0  0  0  0  0  0
    9.7805  -14.2563   27.4496 C   0  0  0  0  0  0  0  0  0  0  0  0
    9.4791  -15.5918   27.3225 C   0  0  0  0  0  0  0  0  0  0  0  0
    8.8747  -16.0478   26.0458 C   0  0  0  0  0  0  0  0  0  0  0  0
   10.0010  -16.4174   25.1097 C   0  0  2  0  0  0  0  0  0  0  0  0
    9.4266  -16.9163   23.8831 N   0  0  0  0  0  0  0  0  0  0  0  0
   10.8910  -17.4569   25.7311 C   0  0  0  0  0  0  0  0  0  0  0  0
   10.4621  -18.7627   25.8761 O   0  0  0  0  0  0  0  0  0  0  0  0
    9.7165  -16.5030   28.3291 C   0  0  0  0  0  0  0  0  0  0  0  0
   10.2758  -16.0286   29.4903 C   0  0  0  0  0  0  0  0  0  0  0  0
   12.0423  -17.1807   26.1361 O   0  0  0  0  0  0  0  0  0  0  0  0
  2  1  1  0
  3  2  1  0
  3  4  1  1
  5  3  1  0
  5  6  1  6
  7  8  2  0
  7  5  1  0
  9 10  1  0
 10 11  2  0
 10 12  1  0
 13 12  1  6
 13 14  1  0
 14  7  1  0
 15 24  1  0
 15 13  1  0
 16 15  2  0
 17 18  1  0
 18 28  2  0
 19 20  2  0
 19 18  1  0
 20 21  1  0
 21 22  1  0
 21 27  2  0
 23 22  1  1
 23 25  1  0
 23 24  1  0
 25 26  1  0
 28 27  1  0
 29 25  2  0
M  END
$$$$
