INY.pdb
     RDKit          3D

 29 29  0  0  1  0  0  0  0  0999 V2000
    6.9315  -11.8337   20.2221 C   0  0  0  0  0  0  0  0  0  0  0  0
    7.0927  -13.2725   19.8664 C   0  0  0  0  0  0  0  0  0  0  0  0
    7.6158  -14.1227   21.0184 C   0  0  2  0  0  0  0  0  0  0  0  0
    9.0372  -13.6054   21.2818 C   0  0  0  0  0  0  0  0  0  0  0  0
    7.7598  -15.5196   20.5120 C   0  0  2  0  0  0  0  0  0  0  0  0
    6.5434  -16.1379   20.0812 N   0  0  0  0  0  0  0  0  0  0  0  0
    8.3801  -16.4194   21.5326 C   0  0  0  0  0  0  0  0  0  0  0  0
    7.7052  -17.1578   22.2884 O   0  0  0  0  0  0  0  0  0  0  0  0
   12.7614  -18.2437   20.3722 N   0  0  0  0  0  0  0  0  0  0  0  0
   11.9831  -18.5394   21.4927 C   0  0  0  0  0  0  0  0  0  0  0  0
   11.4081  -19.6785   21.4966 O   0  0  0  0  0  0  0  0  0  0  0  0
   11.8085  -17.5941   22.6498 C   0  0  0  0  0  0  0  0  0  0  0  0
   10.3835  -17.2238   22.7662 C   0  0  2  0  0  0  0  0  0  0  0  0
    9.7833  -16.5034   21.7212 N   0  0  0  0  0  0  0  0  0  0  0  0
   10.1978  -16.4768   24.0364 C   0  0  0  0  0  0  0  0  0  0  0  0
    9.9784  -15.2456   23.9809 O   0  0  0  0  0  0  0  0  0  0  0  0
    6.6677  -11.0186   26.0466 O   0  0  0  0  0  0  0  0  0  0  0  0
    6.9950  -12.3660   26.0411 C   0  0  0  0  0  0  0  0  0  0  0  0
    6.2870  -13.2764   25.2986 C   0  0  0  0  0  0  0  0  0  0  0  0
    6.6582  -14.6006   25.3327 C   0  0  0  0  0  0  0  0  0  0  0  0
    7.7278  -14.9811   26.1083 C   0  0  0  0  0  0  0  0  0  0  0  0
    8.0981  -16.4184   26.1216 C   0  0  0  0  0  0  0  0  0  0  0  0
    9.5686  -16.5116   26.4540 C   0  0  2  0  0  0  0  0  0  0  0  0
   10.2552  -17.0822   25.3197 N   0  0  0  0  0  0  0  0  0  0  0  0
    9.7859  -17.3580   27.6767 C   0  0  0  0  0  0  0  0  0  0  0  0
   10.3914  -18.5969   27.5832 O   0  0  0  0  0  0  0  0  0  0  0  0
    8.4524  -14.0826   26.8617 C   0  0  0  0  0  0  0  0  0  0  0  0
    8.0671  -12.7652   26.8149 C   0  0  0  0  0  0  0  0  0  0  0  0
    9.4300  -16.9754   28.8138 O   0  0  0  0  0  0  0  0  0  0  0  0
  2  1  1  0
  3  2  1  0
  3  4  1  6
  5  3  1  0
  5  6  1  1
  7  8  2  0
  7  5  1  0
  9 10  1  0
 10 11  2  0
 10 12  1  0
 13 12  1  6
 13 14  1  0
 14  7  1  0
 15 24  1  0
 15 13  1  0
 16 15  2  0
 17 18  1  0
 18 28  2  0
 19 20  2  0
 19 18  1  0
 20 21  1  0
 21 22  1  0
 21 27  2  0
 23 22  1  6
 23 25  1  0
 23 24  1  0
 25 26  1  0
 28 27  1  0
 29 25  2  0
M  END
$$$$
