INY.pdb
     RDKit          3D

 29 29  0  0  1  0  0  0  0  0999 V2000
    7.6772  -11.5590   20.3539 C   0  0  0  0  0  0  0  0  0  0  0  0
    7.8200  -12.9904   19.9627 C   0  0  0  0  0  0  0  0  0  0  0  0
    7.8849  -13.9372   21.1556 C   0  0  2  0  0  0  0  0  0  0  0  0
    9.1895  -13.5762   21.8801 C   0  0  0  0  0  0  0  0  0  0  0  0
    8.0658  -15.3184   20.6192 C   0  0  2  0  0  0  0  0  0  0  0  0
    6.9686  -15.8197   19.8495 N   0  0  0  0  0  0  0  0  0  0  0  0
    8.3341  -16.3069   21.7087 C   0  0  0  0  0  0  0  0  0  0  0  0
    7.4220  -16.9302   22.3016 O   0  0  0  0  0  0  0  0  0  0  0  0
   11.5054  -19.3087   20.5200 N   0  0  0  0  0  0  0  0  0  0  0  0
   10.7008  -19.3325   21.6605 C   0  0  0  0  0  0  0  0  0  0  0  0
    9.6625  -20.0720   21.6042 O   0  0  0  0  0  0  0  0  0  0  0  0
   11.0082  -18.5446   22.9046 C   0  0  0  0  0  0  0  0  0  0  0  0
    9.9262  -17.5680   23.1430 C   0  0  2  0  0  0  0  0  0  0  0  0
    9.6458  -16.6126   22.1532 N   0  0  0  0  0  0  0  0  0  0  0  0
   10.2026  -16.8690   24.4241 C   0  0  0  0  0  0  0  0  0  0  0  0
   11.1935  -16.1069   24.4892 O   0  0  0  0  0  0  0  0  0  0  0  0
    6.4820  -11.4809   25.2575 O   0  0  0  0  0  0  0  0  0  0  0  0
    6.9740  -12.6414   25.8354 C   0  0  0  0  0  0  0  0  0  0  0  0
    6.2893  -13.8277   25.7648 C   0  0  0  0  0  0  0  0  0  0  0  0
    6.8271  -14.9466   26.3574 C   0  0  0  0  0  0  0  0  0  0  0  0
    8.0358  -14.8512   27.0057 C   0  0  0  0  0  0  0  0  0  0  0  0
    8.5842  -16.0787   27.6346 C   0  0  0  0  0  0  0  0  0  0  0  0
    9.8185  -16.4796   26.8618 C   0  0  2  0  0  0  0  0  0  0  0  0
    9.4024  -17.0159   25.5880 N   0  0  0  0  0  0  0  0  0  0  0  0
   10.6160  -17.5004   27.6237 C   0  0  0  0  0  0  0  0  0  0  0  0
   11.2591  -17.1640   28.7999 O   0  0  0  0  0  0  0  0  0  0  0  0
    8.7399  -13.6690   27.0882 C   0  0  0  0  0  0  0  0  0  0  0  0
    8.1873  -12.5628   26.4906 C   0  0  0  0  0  0  0  0  0  0  0  0
   10.7259  -18.6813   27.2248 O   0  0  0  0  0  0  0  0  0  0  0  0
  2  1  1  0
  3  2  1  0
  3  4  1  1
  5  3  1  0
  5  6  1  1
  7  8  2  0
  7  5  1  0
  9 10  1  0
 10 11  2  0
 10 12  1  0
 13 12  1  6
 13 14  1  0
 14  7  1  0
 15 24  1  0
 15 13  1  0
 16 15  2  0
 17 18  1  0
 18 28  2  0
 19 20  2  0
 19 18  1  0
 20 21  1  0
 21 22  1  0
 21 27  2  0
 23 22  1  1
 23 25  1  0
 23 24  1  0
 25 26  1  0
 28 27  1  0
 29 25  2  0
M  END
$$$$
