INY.pdb
     RDKit          3D

 29 29  0  0  1  0  0  0  0  0999 V2000
    7.5018  -12.1037   18.5655 C   0  0  0  0  0  0  0  0  0  0  0  0
    7.9258  -13.5167   18.3503 C   0  0  0  0  0  0  0  0  0  0  0  0
    8.0839  -14.3022   19.6471 C   0  0  2  0  0  0  0  0  0  0  0  0
    9.3329  -13.7143   20.3192 C   0  0  0  0  0  0  0  0  0  0  0  0
    8.4228  -15.7083   19.2782 C   0  0  2  0  0  0  0  0  0  0  0  0
    7.3877  -16.4237   18.5966 N   0  0  0  0  0  0  0  0  0  0  0  0
    8.8114  -16.5182   20.4737 C   0  0  0  0  0  0  0  0  0  0  0  0
    7.9724  -17.0830   21.2147 O   0  0  0  0  0  0  0  0  0  0  0  0
   13.2563  -19.1219   23.8565 N   0  0  0  0  0  0  0  0  0  0  0  0
   12.0079  -18.9032   23.2713 C   0  0  0  0  0  0  0  0  0  0  0  0
   10.9984  -19.3535   23.9086 O   0  0  0  0  0  0  0  0  0  0  0  0
   11.8236  -18.1816   21.9643 C   0  0  0  0  0  0  0  0  0  0  0  0
   10.5517  -17.4316   21.9966 C   0  0  2  0  0  0  0  0  0  0  0  0
   10.1634  -16.7071   20.8585 N   0  0  0  0  0  0  0  0  0  0  0  0
   10.5799  -16.5155   23.1655 C   0  0  0  0  0  0  0  0  0  0  0  0
   11.1008  -15.3855   23.0288 O   0  0  0  0  0  0  0  0  0  0  0  0
    6.2500  -11.1336   27.7476 O   0  0  0  0  0  0  0  0  0  0  0  0
    6.7710  -12.1692   26.9869 C   0  0  0  0  0  0  0  0  0  0  0  0
    7.9860  -12.7358   27.2768 C   0  0  0  0  0  0  0  0  0  0  0  0
    8.4518  -13.7605   26.4862 C   0  0  0  0  0  0  0  0  0  0  0  0
    7.6913  -14.1929   25.4255 C   0  0  0  0  0  0  0  0  0  0  0  0
    8.2269  -15.2994   24.5937 C   0  0  0  0  0  0  0  0  0  0  0  0
    9.4484  -15.8498   25.2912 C   0  0  2  0  0  0  0  0  0  0  0  0
   10.0464  -16.8492   24.4385 N   0  0  0  0  0  0  0  0  0  0  0  0
    9.0793  -16.4484   26.6193 C   0  0  0  0  0  0  0  0  0  0  0  0
    9.4069  -15.8099   27.8005 O   0  0  0  0  0  0  0  0  0  0  0  0
    6.4681  -13.6374   25.1169 C   0  0  0  0  0  0  0  0  0  0  0  0
    6.0195  -12.6157   25.9175 C   0  0  0  0  0  0  0  0  0  0  0  0
    8.4672  -17.5366   26.7036 O   0  0  0  0  0  0  0  0  0  0  0  0
  2  1  1  0
  3  2  1  0
  3  4  1  1
  5  3  1  0
  5  6  1  1
  7  8  2  0
  7  5  1  0
  9 10  1  0
 10 11  2  0
 10 12  1  0
 13 12  1  6
 13 14  1  0
 14  7  1  0
 15 24  1  0
 15 13  1  0
 16 15  2  0
 17 18  1  0
 18 28  2  0
 19 20  2  0
 19 18  1  0
 20 21  1  0
 21 22  1  0
 21 27  2  0
 23 22  1  6
 23 25  1  0
 23 24  1  0
 25 26  1  0
 28 27  1  0
 29 25  2  0
M  END
$$$$
