INY.pdb
     RDKit          3D

 29 29  0  0  1  0  0  0  0  0999 V2000
    7.0680  -12.3649   18.7007 C   0  0  0  0  0  0  0  0  0  0  0  0
    8.2626  -13.0519   19.2694 C   0  0  0  0  0  0  0  0  0  0  0  0
    7.9147  -14.0681   20.3511 C   0  0  2  0  0  0  0  0  0  0  0  0
    7.2657  -13.2474   21.4748 C   0  0  0  0  0  0  0  0  0  0  0  0
    9.2000  -14.5944   20.8983 C   0  0  2  0  0  0  0  0  0  0  0  0
   10.0555  -15.2246   19.9398 N   0  0  0  0  0  0  0  0  0  0  0  0
    8.9730  -15.5741   22.0050 C   0  0  0  0  0  0  0  0  0  0  0  0
    8.0606  -15.4412   22.8546 O   0  0  0  0  0  0  0  0  0  0  0  0
    8.9612  -19.0158   20.9212 N   0  0  0  0  0  0  0  0  0  0  0  0
   10.0154  -19.4123   21.7459 C   0  0  0  0  0  0  0  0  0  0  0  0
   10.8805  -20.1906   21.2224 O   0  0  0  0  0  0  0  0  0  0  0  0
   10.1573  -18.9678   23.1760 C   0  0  0  0  0  0  0  0  0  0  0  0
    9.7018  -17.5683   23.2990 C   0  0  2  0  0  0  0  0  0  0  0  0
    9.7768  -16.7301   22.1752 N   0  0  0  0  0  0  0  0  0  0  0  0
   10.4377  -16.9352   24.4232 C   0  0  0  0  0  0  0  0  0  0  0  0
   11.6184  -17.2892   24.6413 O   0  0  0  0  0  0  0  0  0  0  0  0
    6.4585  -10.9413   25.9580 O   0  0  0  0  0  0  0  0  0  0  0  0
    6.9416  -12.2096   26.2423 C   0  0  0  0  0  0  0  0  0  0  0  0
    8.1769  -12.4003   26.8070 C   0  0  0  0  0  0  0  0  0  0  0  0
    8.6030  -13.6823   27.0664 C   0  0  0  0  0  0  0  0  0  0  0  0
    7.7834  -14.7412   26.7546 C   0  0  0  0  0  0  0  0  0  0  0  0
    8.2773  -16.1100   27.0472 C   0  0  0  0  0  0  0  0  0  0  0  0
    9.7450  -16.1550   26.6933 C   0  0  2  0  0  0  0  0  0  0  0  0
    9.8759  -15.9444   25.2713 N   0  0  0  0  0  0  0  0  0  0  0  0
   10.3472  -17.4753   27.0841 C   0  0  0  0  0  0  0  0  0  0  0  0
   10.8778  -17.6670   28.3458 O   0  0  0  0  0  0  0  0  0  0  0  0
    6.5388  -14.5715   26.1868 C   0  0  0  0  0  0  0  0  0  0  0  0
    6.1306  -13.2846   25.9353 C   0  0  0  0  0  0  0  0  0  0  0  0
   10.3895  -18.4405   26.2888 O   0  0  0  0  0  0  0  0  0  0  0  0
  2  1  1  0
  3  2  1  0
  3  4  1  1
  5  3  1  0
  5  6  1  6
  7  8  2  0
  7  5  1  0
  9 10  1  0
 10 11  2  0
 10 12  1  0
 13 12  1  6
 13 14  1  0
 14  7  1  0
 15 24  1  0
 15 13  1  0
 16 15  2  0
 17 18  1  0
 18 28  2  0
 19 20  2  0
 19 18  1  0
 20 21  1  0
 21 22  1  0
 21 27  2  0
 23 22  1  6
 23 25  1  0
 23 24  1  0
 25 26  1  0
 28 27  1  0
 29 25  2  0
M  END
$$$$
