INY.pdb
     RDKit          3D

 29 29  0  0  1  0  0  0  0  0999 V2000
    7.4394  -11.7802   19.4184 C   0  0  0  0  0  0  0  0  0  0  0  0
    8.0864  -13.0738   19.0569 C   0  0  0  0  0  0  0  0  0  0  0  0
    7.8102  -14.1867   20.0612 C   0  0  2  0  0  0  0  0  0  0  0  0
    8.5320  -13.7530   21.3450 C   0  0  0  0  0  0  0  0  0  0  0  0
    8.5109  -15.4112   19.5736 C   0  0  2  0  0  0  0  0  0  0  0  0
    7.9951  -15.9629   18.3582 N   0  0  0  0  0  0  0  0  0  0  0  0
    8.5016  -16.5014   20.5970 C   0  0  0  0  0  0  0  0  0  0  0  0
    7.7564  -17.5063   20.5138 O   0  0  0  0  0  0  0  0  0  0  0  0
   11.2838  -17.8977   20.9640 N   0  0  0  0  0  0  0  0  0  0  0  0
   10.5560  -18.9823   21.4565 C   0  0  0  0  0  0  0  0  0  0  0  0
   10.8705  -20.1298   20.9956 O   0  0  0  0  0  0  0  0  0  0  0  0
    9.4562  -18.8453   22.4736 C   0  0  0  0  0  0  0  0  0  0  0  0
    9.2540  -17.4155   22.7835 C   0  0  2  0  0  0  0  0  0  0  0  0
    9.3386  -16.4780   21.7419 N   0  0  0  0  0  0  0  0  0  0  0  0
   10.2063  -17.0316   23.8569 C   0  0  0  0  0  0  0  0  0  0  0  0
   11.3105  -17.6182   23.9162 O   0  0  0  0  0  0  0  0  0  0  0  0
    6.2369  -10.6364   26.3891 O   0  0  0  0  0  0  0  0  0  0  0  0
    6.5404  -11.9627   26.1215 C   0  0  0  0  0  0  0  0  0  0  0  0
    5.8101  -12.9916   26.6593 C   0  0  0  0  0  0  0  0  0  0  0  0
    6.1584  -14.2878   26.3580 C   0  0  0  0  0  0  0  0  0  0  0  0
    7.2281  -14.5226   25.5267 C   0  0  0  0  0  0  0  0  0  0  0  0
    7.5754  -15.9339   25.2254 C   0  0  0  0  0  0  0  0  0  0  0  0
    8.9253  -16.2171   25.8411 C   0  0  2  0  0  0  0  0  0  0  0  0
    9.9352  -16.0305   24.8268 N   0  0  0  0  0  0  0  0  0  0  0  0
    8.9806  -17.6179   26.3827 C   0  0  0  0  0  0  0  0  0  0  0  0
    9.1249  -17.8491   27.7377 O   0  0  0  0  0  0  0  0  0  0  0  0
    7.9749  -13.5033   24.9759 C   0  0  0  0  0  0  0  0  0  0  0  0
    7.6122  -12.2160   25.2880 C   0  0  0  0  0  0  0  0  0  0  0  0
    8.8985  -18.6169   25.6337 O   0  0  0  0  0  0  0  0  0  0  0  0
  2  1  1  0
  3  2  1  0
  3  4  1  1
  5  3  1  0
  5  6  1  6
  7  8  2  0
  7  5  1  0
  9 10  1  0
 10 11  2  0
 10 12  1  0
 13 12  1  6
 13 14  1  0
 14  7  1  0
 15 24  1  0
 15 13  1  0
 16 15  2  0
 17 18  1  0
 18 28  2  0
 19 20  2  0
 19 18  1  0
 20 21  1  0
 21 22  1  0
 21 27  2  0
 23 22  1  6
 23 25  1  0
 23 24  1  0
 25 26  1  0
 28 27  1  0
 29 25  2  0
M  END
$$$$
