IPY.pdb
     RDKit          3D

 28 29  0  0  1  0  0  0  0  0999 V2000
    6.8475  -15.9552   18.6263 C   0  0  0  0  0  0  0  0  0  0  0  0
    6.9402  -14.7022   19.4312 C   0  0  0  0  0  0  0  0  0  0  0  0
    7.5785  -14.8092   20.7710 C   0  0  2  0  0  0  0  0  0  0  0  0
    6.7137  -15.7845   21.5747 C   0  0  0  0  0  0  0  0  0  0  0  0
    7.5932  -13.4502   21.4588 C   0  0  2  0  0  0  0  0  0  0  0  0
    8.1033  -12.4716   20.5844 N   0  0  0  0  0  0  0  0  0  0  0  0
    8.3376  -13.4994   22.7336 C   0  0  0  0  0  0  0  0  0  0  0  0
    9.6112  -13.2864   22.5939 O   0  0  0  0  0  0  0  0  0  0  0  0
    7.8026  -13.7451   23.9999 N   0  0  0  0  0  0  0  0  0  0  0  0
    6.3402  -13.9837   24.1656 C   0  0  0  0  0  0  0  0  0  0  0  0
    6.0219  -13.6136   25.5787 C   0  0  0  0  0  0  0  0  0  0  0  0
    7.3147  -13.1875   26.1921 C   0  0  0  0  0  0  0  0  0  0  0  0
    8.3836  -13.8136   25.2864 C   0  0  1  0  0  0  0  0  0  0  0  0
    8.7513  -15.1542   25.7714 C   0  0  0  0  0  0  0  0  0  0  0  0
    8.6672  -15.3574   27.0098 O   0  0  0  0  0  0  0  0  0  0  0  0
    6.9728  -19.8380   29.8961 O   0  0  0  0  0  0  0  0  0  0  0  0
    7.7630  -19.4911   28.7975 C   0  0  0  0  0  0  0  0  0  0  0  0
    7.2014  -19.0369   27.6190 C   0  0  0  0  0  0  0  0  0  0  0  0
    7.9730  -18.6903   26.5245 C   0  0  0  0  0  0  0  0  0  0  0  0
    9.3566  -18.7836   26.5599 C   0  0  0  0  0  0  0  0  0  0  0  0
   10.1924  -18.4028   25.3946 C   0  0  0  0  0  0  0  0  0  0  0  0
   10.4457  -16.9415   25.2707 C   0  0  2  0  0  0  0  0  0  0  0  0
    9.1923  -16.2379   24.9709 N   0  0  0  0  0  0  0  0  0  0  0  0
   11.4927  -16.6454   24.2927 C   0  0  0  0  0  0  0  0  0  0  0  0
   11.1987  -15.9946   23.1116 O   0  0  0  0  0  0  0  0  0  0  0  0
    9.9046  -19.2394   27.7445 C   0  0  0  0  0  0  0  0  0  0  0  0
    9.1368  -19.5838   28.8332 C   0  0  0  0  0  0  0  0  0  0  0  0
   12.6747  -16.9807   24.5160 O   0  0  0  0  0  0  0  0  0  0  0  0
  1  2  1  0
  2  3  1  0
  3  4  1  1
  5  3  1  0
  5  6  1  6
  7  9  1  0
  7  5  1  0
  8  7  2  0
  9 10  1  0
 10 11  1  0
 12 11  1  0
 13  9  1  0
 13 12  1  0
 13 14  1  1
 15 14  2  0
 16 17  1  0
 17 18  2  0
 18 19  1  0
 20 19  2  0
 20 21  1  0
 22 21  1  6
 22 24  1  0
 22 23  1  0
 23 14  1  0
 24 25  1  0
 26 20  1  0
 27 17  1  0
 27 26  2  0
 28 24  2  0
M  END
$$$$
