IPY.pdb
     RDKit          3D

 28 29  0  0  1  0  0  0  0  0999 V2000
    6.7210  -12.0231   27.5645 C   0  0  0  0  0  0  0  0  0  0  0  0
    6.0962  -13.1453   26.8050 C   0  0  0  0  0  0  0  0  0  0  0  0
    7.0051  -13.9888   25.9825 C   0  0  2  0  0  0  0  0  0  0  0  0
    7.6489  -13.0458   24.9620 C   0  0  0  0  0  0  0  0  0  0  0  0
    6.2112  -15.0665   25.2555 C   0  0  2  0  0  0  0  0  0  0  0  0
    5.5233  -15.8697   26.1850 N   0  0  0  0  0  0  0  0  0  0  0  0
    7.0771  -15.8646   24.3641 C   0  0  0  0  0  0  0  0  0  0  0  0
    7.1374  -17.1194   24.6942 O   0  0  0  0  0  0  0  0  0  0  0  0
    7.7924  -15.3948   23.2606 N   0  0  0  0  0  0  0  0  0  0  0  0
    7.6979  -13.9626   22.8569 C   0  0  0  0  0  0  0  0  0  0  0  0
    8.0405  -13.9234   21.4020 C   0  0  0  0  0  0  0  0  0  0  0  0
    8.3390  -15.3335   21.0129 C   0  0  0  0  0  0  0  0  0  0  0  0
    8.6594  -16.0295   22.3425 C   0  0  1  0  0  0  0  0  0  0  0  0
   10.1002  -15.9480   22.6344 C   0  0  0  0  0  0  0  0  0  0  0  0
   10.8550  -15.5902   21.6942 O   0  0  0  0  0  0  0  0  0  0  0  0
    9.6208  -15.9282   30.1019 O   0  0  0  0  0  0  0  0  0  0  0  0
   10.2542  -15.6596   28.8861 C   0  0  0  0  0  0  0  0  0  0  0  0
   10.2131  -14.4026   28.3128 C   0  0  0  0  0  0  0  0  0  0  0  0
   10.8363  -14.1241   27.1097 C   0  0  0  0  0  0  0  0  0  0  0  0
   11.5364  -15.1017   26.4179 C   0  0  0  0  0  0  0  0  0  0  0  0
   12.2176  -14.8087   25.1327 C   0  0  0  0  0  0  0  0  0  0  0  0
   12.1237  -15.8992   24.1243 C   0  0  2  0  0  0  0  0  0  0  0  0
   10.7159  -16.2364   23.8785 N   0  0  0  0  0  0  0  0  0  0  0  0
   12.9136  -17.0704   24.5050 C   0  0  0  0  0  0  0  0  0  0  0  0
   14.2859  -16.9923   24.6296 O   0  0  0  0  0  0  0  0  0  0  0  0
   11.5692  -16.3541   27.0026 C   0  0  0  0  0  0  0  0  0  0  0  0
   10.9495  -16.6305   28.1996 C   0  0  0  0  0  0  0  0  0  0  0  0
   12.3516  -18.1640   24.7231 O   0  0  0  0  0  0  0  0  0  0  0  0
  1  2  1  0
  2  3  1  0
  3  4  1  6
  5  3  1  0
  5  6  1  1
  7  9  1  0
  7  5  1  0
  8  7  2  0
  9 10  1  0
 10 11  1  0
 12 11  1  0
 13  9  1  0
 13 12  1  0
 13 14  1  1
 15 14  2  0
 16 17  1  0
 17 18  2  0
 18 19  1  0
 20 19  2  0
 20 21  1  0
 22 21  1  1
 22 24  1  0
 22 23  1  0
 23 14  1  0
 24 25  1  0
 26 20  1  0
 27 17  1  0
 27 26  2  0
 28 24  2  0
M  END
$$$$
