IPY.pdb
     RDKit          3D

 28 29  0  0  1  0  0  0  0  0999 V2000
    2.2150  -18.5255   20.0907 C   0  0  0  0  0  0  0  0  0  0  0  0
    3.2838  -18.6614   21.1229 C   0  0  0  0  0  0  0  0  0  0  0  0
    4.5089  -17.8381   20.9348 C   0  0  2  0  0  0  0  0  0  0  0  0
    5.0718  -18.2247   19.5641 C   0  0  0  0  0  0  0  0  0  0  0  0
    5.5312  -18.1579   22.0178 C   0  0  2  0  0  0  0  0  0  0  0  0
    5.0485  -17.7462   23.2747 N   0  0  0  0  0  0  0  0  0  0  0  0
    6.8484  -17.5665   21.7069 C   0  0  0  0  0  0  0  0  0  0  0  0
    7.6471  -18.3849   21.0909 O   0  0  0  0  0  0  0  0  0  0  0  0
    7.2707  -16.2706   22.0109 N   0  0  0  0  0  0  0  0  0  0  0  0
    6.2902  -15.2507   22.4816 C   0  0  0  0  0  0  0  0  0  0  0  0
    6.8847  -13.9221   22.1397 C   0  0  0  0  0  0  0  0  0  0  0  0
    8.1996  -14.2147   21.4960 C   0  0  0  0  0  0  0  0  0  0  0  0
    8.5341  -15.6395   21.9575 C   0  0  1  0  0  0  0  0  0  0  0  0
    9.3074  -15.6088   23.2100 C   0  0  0  0  0  0  0  0  0  0  0  0
   10.4351  -15.0532   23.1726 O   0  0  0  0  0  0  0  0  0  0  0  0
    5.7560  -11.0698   26.4599 O   0  0  0  0  0  0  0  0  0  0  0  0
    6.5392  -12.2230   26.5508 C   0  0  0  0  0  0  0  0  0  0  0  0
    7.8801  -12.1609   26.8806 C   0  0  0  0  0  0  0  0  0  0  0  0
    8.6660  -13.2953   26.9739 C   0  0  0  0  0  0  0  0  0  0  0  0
    8.1401  -14.5573   26.7387 C   0  0  0  0  0  0  0  0  0  0  0  0
    8.9731  -15.7803   26.8480 C   0  0  0  0  0  0  0  0  0  0  0  0
    9.7739  -16.0897   25.6323 C   0  0  2  0  0  0  0  0  0  0  0  0
    8.8980  -16.1488   24.4553 N   0  0  0  0  0  0  0  0  0  0  0  0
   10.5679  -17.3082   25.7916 C   0  0  0  0  0  0  0  0  0  0  0  0
   10.2883  -18.4403   25.0533 O   0  0  0  0  0  0  0  0  0  0  0  0
    6.7981  -14.6045   26.4098 C   0  0  0  0  0  0  0  0  0  0  0  0
    6.0166  -13.4758   26.3174 C   0  0  0  0  0  0  0  0  0  0  0  0
   11.5156  -17.3393   26.6042 O   0  0  0  0  0  0  0  0  0  0  0  0
  1  2  1  0
  2  3  1  0
  3  4  1  6
  5  3  1  0
  5  6  1  1
  7  9  1  0
  7  5  1  0
  8  7  2  0
  9 10  1  0
 10 11  1  0
 12 11  1  0
 13  9  1  0
 13 12  1  0
 13 14  1  1
 15 14  2  0
 16 17  1  0
 17 18  2  0
 18 19  1  0
 20 19  2  0
 20 21  1  0
 22 21  1  1
 22 24  1  0
 22 23  1  0
 23 14  1  0
 24 25  1  0
 26 20  1  0
 27 17  1  0
 27 26  2  0
 28 24  2  0
M  END
$$$$
