IPY.pdb
     RDKit          3D

 28 29  0  0  1  0  0  0  0  0999 V2000
    9.1276  -12.8733   27.1024 C   0  0  0  0  0  0  0  0  0  0  0  0
    8.1740  -13.9698   26.7637 C   0  0  0  0  0  0  0  0  0  0  0  0
    7.0521  -13.6265   25.8485 C   0  0  2  0  0  0  0  0  0  0  0  0
    6.1021  -12.7394   26.6582 C   0  0  0  0  0  0  0  0  0  0  0  0
    6.3240  -14.8902   25.4087 C   0  0  2  0  0  0  0  0  0  0  0  0
    5.9325  -15.6389   26.5350 N   0  0  0  0  0  0  0  0  0  0  0  0
    7.1421  -15.6843   24.4698 C   0  0  0  0  0  0  0  0  0  0  0  0
    7.3022  -16.9179   24.8438 O   0  0  0  0  0  0  0  0  0  0  0  0
    7.7212  -15.2308   23.2828 N   0  0  0  0  0  0  0  0  0  0  0  0
    7.4633  -13.8432   22.8019 C   0  0  0  0  0  0  0  0  0  0  0  0
    7.6842  -13.8741   21.3235 C   0  0  0  0  0  0  0  0  0  0  0  0
    8.0795  -15.2763   20.9971 C   0  0  0  0  0  0  0  0  0  0  0  0
    8.5673  -15.8491   22.3346 C   0  0  1  0  0  0  0  0  0  0  0  0
   10.0130  -15.6231   22.4971 C   0  0  0  0  0  0  0  0  0  0  0  0
   10.4732  -14.5332   22.0702 O   0  0  0  0  0  0  0  0  0  0  0  0
   10.5909  -15.9033   30.5554 O   0  0  0  0  0  0  0  0  0  0  0  0
   10.7332  -15.6723   29.1850 C   0  0  0  0  0  0  0  0  0  0  0  0
   11.1419  -16.6725   28.3229 C   0  0  0  0  0  0  0  0  0  0  0  0
   11.2863  -16.4563   26.9643 C   0  0  0  0  0  0  0  0  0  0  0  0
   11.0256  -15.2159   26.4005 C   0  0  0  0  0  0  0  0  0  0  0  0
   11.1667  -14.9785   24.9427 C   0  0  0  0  0  0  0  0  0  0  0  0
   11.8032  -16.0976   24.1961 C   0  0  2  0  0  0  0  0  0  0  0  0
   10.9354  -16.5217   23.0902 N   0  0  0  0  0  0  0  0  0  0  0  0
   12.1624  -17.2112   25.0743 C   0  0  0  0  0  0  0  0  0  0  0  0
   11.2462  -18.1952   25.3855 O   0  0  0  0  0  0  0  0  0  0  0  0
   10.6180  -14.2251   27.2743 C   0  0  0  0  0  0  0  0  0  0  0  0
   10.4741  -14.4406   28.6256 C   0  0  0  0  0  0  0  0  0  0  0  0
   13.3116  -17.2854   25.5575 O   0  0  0  0  0  0  0  0  0  0  0  0
  1  2  1  0
  2  3  1  0
  3  4  1  1
  5  3  1  0
  5  6  1  1
  7  9  1  0
  7  5  1  0
  8  7  2  0
  9 10  1  0
 10 11  1  0
 12 11  1  0
 13  9  1  0
 13 12  1  0
 13 14  1  1
 15 14  2  0
 16 17  1  0
 17 18  2  0
 18 19  1  0
 20 19  2  0
 20 21  1  0
 22 21  1  1
 22 24  1  0
 22 23  1  0
 23 14  1  0
 24 25  1  0
 26 20  1  0
 27 17  1  0
 27 26  2  0
 28 24  2  0
M  END
$$$$
