IPY.pdb
     RDKit          3D

 28 29  0  0  1  0  0  0  0  0999 V2000
    5.9232  -10.9143   26.2540 C   0  0  0  0  0  0  0  0  0  0  0  0
    5.5631  -12.3056   25.8527 C   0  0  0  0  0  0  0  0  0  0  0  0
    6.6858  -13.2134   25.4925 C   0  0  2  0  0  0  0  0  0  0  0  0
    7.3952  -12.5577   24.3043 C   0  0  0  0  0  0  0  0  0  0  0  0
    6.1495  -14.5782   25.0802 C   0  0  2  0  0  0  0  0  0  0  0  0
    5.4752  -15.1789   26.1604 N   0  0  0  0  0  0  0  0  0  0  0  0
    7.2233  -15.4402   24.5461 C   0  0  0  0  0  0  0  0  0  0  0  0
    7.5594  -16.4018   25.3520 O   0  0  0  0  0  0  0  0  0  0  0  0
    7.8644  -15.3025   23.3132 N   0  0  0  0  0  0  0  0  0  0  0  0
    7.5028  -14.1822   22.3981 C   0  0  0  0  0  0  0  0  0  0  0  0
    7.8730  -14.6398   21.0237 C   0  0  0  0  0  0  0  0  0  0  0  0
    8.4531  -16.0056   21.1886 C   0  0  0  0  0  0  0  0  0  0  0  0
    8.8651  -16.0620   22.6658 C   0  0  1  0  0  0  0  0  0  0  0  0
   10.2529  -15.5999   22.8332 C   0  0  0  0  0  0  0  0  0  0  0  0
   10.4396  -14.3573   22.8872 O   0  0  0  0  0  0  0  0  0  0  0  0
   10.4388  -14.3059   30.0522 O   0  0  0  0  0  0  0  0  0  0  0  0
   10.5793  -15.0207   28.8602 C   0  0  0  0  0  0  0  0  0  0  0  0
   10.7404  -16.3935   28.8563 C   0  0  0  0  0  0  0  0  0  0  0  0
   10.8803  -17.1124   27.6830 C   0  0  0  0  0  0  0  0  0  0  0  0
   10.8654  -16.4835   26.4466 C   0  0  0  0  0  0  0  0  0  0  0  0
   11.0032  -17.2483   25.1826 C   0  0  0  0  0  0  0  0  0  0  0  0
   12.0186  -16.7028   24.2412 C   0  0  2  0  0  0  0  0  0  0  0  0
   11.3995  -16.4270   22.9387 N   0  0  0  0  0  0  0  0  0  0  0  0
   13.1860  -17.5768   24.1238 C   0  0  0  0  0  0  0  0  0  0  0  0
   13.0974  -18.8000   23.4908 O   0  0  0  0  0  0  0  0  0  0  0  0
   10.7037  -15.1105   26.4654 C   0  0  0  0  0  0  0  0  0  0  0  0
   10.5641  -14.3958   27.6328 C   0  0  0  0  0  0  0  0  0  0  0  0
   14.2857  -17.2242   24.5991 O   0  0  0  0  0  0  0  0  0  0  0  0
  1  2  1  0
  2  3  1  0
  3  4  1  6
  5  3  1  0
  5  6  1  1
  7  9  1  0
  7  5  1  0
  8  7  2  0
  9 10  1  0
 10 11  1  0
 12 11  1  0
 13  9  1  0
 13 12  1  0
 13 14  1  6
 15 14  2  0
 16 17  1  0
 17 18  2  0
 18 19  1  0
 20 19  2  0
 20 21  1  0
 22 21  1  1
 22 24  1  0
 22 23  1  0
 23 14  1  0
 24 25  1  0
 26 20  1  0
 27 17  1  0
 27 26  2  0
 28 24  2  0
M  END
$$$$
