KCL.pdb
     RDKit          3D

 24 23  0  0  1  0  0  0  0  0999 V2000
   14.2766  -11.5518  -13.0237 N   0  0  0  0  0  0  0  0  0  0  0  0
   15.5800  -10.8912  -12.8425 C   0  0  1  0  0  0  0  0  0  0  0  0
   16.1691  -10.7240  -14.1865 C   0  0  0  0  0  0  0  0  0  0  0  0
   16.4344  -11.9019  -15.0134 C   0  0  0  0  0  0  0  0  0  0  0  0
   17.4902  -12.8686  -14.7108 C   0  0  0  0  0  0  0  0  0  0  0  0
   17.7397  -14.0164  -15.6130 C   0  0  0  0  0  0  0  0  0  0  0  0
   18.9151  -14.7329  -15.0667 N   0  0  0  0  0  0  0  0  0  0  0  0
   15.2092   -9.5174  -12.2698 C   0  0  0  0  0  0  0  0  0  0  0  0
   14.2153   -8.8837  -12.6468 O   0  0  0  0  0  0  0  0  0  0  0  0
   16.0419   -8.9610  -11.2722 N   0  0  0  0  0  0  0  0  0  0  0  0
   15.7905   -7.6341  -10.6725 C   0  0  1  0  0  0  0  0  0  0  0  0
   16.4199   -7.7503   -9.2830 C   0  0  0  0  0  0  0  0  0  0  0  0
   16.4754   -6.1614   -8.4426 S   0  0  0  0  0  0  0  0  0  0  0  0
   16.3860   -6.5816  -11.4935 C   0  0  0  0  0  0  0  0  0  0  0  0
   17.5762   -6.6996  -11.8728 O   0  0  0  0  0  0  0  0  0  0  0  0
   17.7495   -3.5458  -15.4155 C   0  0  0  0  0  0  0  0  0  0  0  0
   16.3548   -3.2975  -14.9041 C   0  0  1  0  0  0  0  0  0  0  0  0
   15.4023   -3.1119  -16.0938 C   0  0  0  0  0  0  0  0  0  0  0  0
   15.8117   -4.3526  -14.0167 C   0  0  0  0  0  0  0  0  0  0  0  0
   16.3178   -4.3872  -12.6181 C   0  0  2  0  0  0  0  0  0  0  0  0
   15.6582   -5.4418  -11.8697 N   0  0  0  0  0  0  0  0  0  0  0  0
   16.2344   -3.1313  -11.8671 C   0  0  0  0  0  0  0  0  0  0  0  0
   16.9567   -2.1304  -12.1229 O   0  0  0  0  0  0  0  0  0  0  0  0
   15.3328   -2.9595  -10.7983 O   0  0  0  0  0  0  0  0  0  0  0  0
  2  1  1  6
  3  4  1  0
  3  2  1  0
  5  6  1  0
  5  4  1  0
  7  6  1  0
  8  2  1  0
  8  9  2  0
 10  8  1  0
 11 10  1  0
 11 12  1  1
 13 12  1  0
 14 11  1  0
 15 14  2  0
 17 16  1  6
 17 18  1  0
 20 19  1  6
 19 17  1  0
 20 21  1  0
 21 14  1  0
 22 20  1  0
 23 22  2  0
 24 22  1  0
M  END
$$$$
