KCL.pdb
     RDKit          3D

 24 23  0  0  1  0  0  0  0  0999 V2000
   18.5020  -10.1194  -17.5884 N   0  0  0  0  0  0  0  0  0  0  0  0
   19.7031   -9.9609  -16.7516 C   0  0  1  0  0  0  0  0  0  0  0  0
   20.8434   -9.7592  -17.6682 C   0  0  0  0  0  0  0  0  0  0  0  0
   21.3414  -10.8818  -18.4639 C   0  0  0  0  0  0  0  0  0  0  0  0
   22.4577  -10.7624  -19.4023 C   0  0  0  0  0  0  0  0  0  0  0  0
   22.8581  -11.9129  -20.2446 C   0  0  0  0  0  0  0  0  0  0  0  0
   23.9514  -11.4325  -21.1206 N   0  0  0  0  0  0  0  0  0  0  0  0
   19.4317   -8.6653  -15.9766 C   0  0  0  0  0  0  0  0  0  0  0  0
   18.8291   -7.7050  -16.4726 O   0  0  0  0  0  0  0  0  0  0  0  0
   19.8923   -8.5738  -14.6432 N   0  0  0  0  0  0  0  0  0  0  0  0
   19.7113   -7.3611  -13.8186 C   0  0  1  0  0  0  0  0  0  0  0  0
   19.7555   -7.8986  -12.3869 C   0  0  0  0  0  0  0  0  0  0  0  0
   18.2389   -8.7623  -11.9532 S   0  0  0  0  0  0  0  0  0  0  0  0
   20.7625   -6.3868  -14.1057 C   0  0  0  0  0  0  0  0  0  0  0  0
   21.8408   -6.7800  -14.6125 O   0  0  0  0  0  0  0  0  0  0  0  0
   23.2906   -3.8251  -17.7617 C   0  0  0  0  0  0  0  0  0  0  0  0
   22.6824   -3.3179  -16.4805 C   0  0  1  0  0  0  0  0  0  0  0  0
   21.9152   -2.0181  -16.7612 C   0  0  0  0  0  0  0  0  0  0  0  0
   21.7773   -4.2686  -15.7929 C   0  0  0  0  0  0  0  0  0  0  0  0
   21.5633   -4.0650  -14.3347 C   0  0  2  0  0  0  0  0  0  0  0  0
   20.5945   -5.0208  -13.8297 N   0  0  0  0  0  0  0  0  0  0  0  0
   21.1773   -2.7137  -13.9186 C   0  0  0  0  0  0  0  0  0  0  0  0
   22.0095   -1.7789  -13.7680 O   0  0  0  0  0  0  0  0  0  0  0  0
   19.8370   -2.3681  -13.6557 O   0  0  0  0  0  0  0  0  0  0  0  0
  2  1  1  6
  3  4  1  0
  3  2  1  0
  5  6  1  0
  5  4  1  0
  7  6  1  0
  8  2  1  0
  8  9  2  0
 10  8  1  0
 11 10  1  0
 11 12  1  1
 13 12  1  0
 14 11  1  0
 15 14  2  0
 17 16  1  6
 17 18  1  0
 20 19  1  6
 19 17  1  0
 20 21  1  0
 21 14  1  0
 22 20  1  0
 23 22  2  0
 24 22  1  0
M  END
$$$$
