KCL.pdb
     RDKit          3D

 24 23  0  0  1  0  0  0  0  0999 V2000
   23.8316  -21.2049   -9.8194 N   0  0  0  0  0  0  0  0  0  0  0  0
   23.3921  -21.1109  -11.2216 C   0  0  1  0  0  0  0  0  0  0  0  0
   22.3391  -20.0768  -11.2748 C   0  0  0  0  0  0  0  0  0  0  0  0
   20.9704  -20.4533  -11.6304 C   0  0  0  0  0  0  0  0  0  0  0  0
   20.6134  -21.7776  -12.1403 C   0  0  0  0  0  0  0  0  0  0  0  0
   19.2360  -22.0571  -12.6073 C   0  0  0  0  0  0  0  0  0  0  0  0
   19.2200  -23.4712  -13.0471 N   0  0  0  0  0  0  0  0  0  0  0  0
   24.6419  -20.6096  -11.9562 C   0  0  0  0  0  0  0  0  0  0  0  0
   25.4191  -19.7828  -11.4627 O   0  0  0  0  0  0  0  0  0  0  0  0
   24.9081  -21.1180  -13.2481 N   0  0  0  0  0  0  0  0  0  0  0  0
   26.1269  -20.7686  -14.0069 C   0  0  1  0  0  0  0  0  0  0  0  0
   26.6340  -22.1241  -14.5030 C   0  0  0  0  0  0  0  0  0  0  0  0
   28.1042  -21.9515  -15.5240 S   0  0  0  0  0  0  0  0  0  0  0  0
   25.8064  -19.8378  -15.0874 C   0  0  0  0  0  0  0  0  0  0  0  0
   24.7251  -19.9702  -15.7099 O   0  0  0  0  0  0  0  0  0  0  0  0
   26.4375  -14.4174  -14.8343 C   0  0  0  0  0  0  0  0  0  0  0  0
   25.9175  -15.7800  -15.2104 C   0  0  1  0  0  0  0  0  0  0  0  0
   24.4821  -15.6487  -15.7387 C   0  0  0  0  0  0  0  0  0  0  0  0
   26.7305  -16.5107  -16.2108 C   0  0  0  0  0  0  0  0  0  0  0  0
   26.3182  -17.9040  -16.5307 C   0  0  2  0  0  0  0  0  0  0  0  0
   26.6785  -18.7976  -15.4450 N   0  0  0  0  0  0  0  0  0  0  0  0
   26.8122  -18.4517  -17.7972 C   0  0  0  0  0  0  0  0  0  0  0  0
   27.7652  -19.2742  -17.8631 O   0  0  0  0  0  0  0  0  0  0  0  0
   26.2489  -18.0899  -19.0369 O   0  0  0  0  0  0  0  0  0  0  0  0
  2  1  1  1
  3  4  1  0
  3  2  1  0
  5  6  1  0
  5  4  1  0
  7  6  1  0
  8  2  1  0
  8  9  2  0
 10  8  1  0
 11 10  1  0
 11 12  1  6
 13 12  1  0
 14 11  1  0
 15 14  2  0
 17 16  1  6
 17 18  1  0
 20 19  1  1
 19 17  1  0
 20 21  1  0
 21 14  1  0
 22 20  1  0
 23 22  2  0
 24 22  1  0
M  END
$$$$
