KCL.pdb
     RDKit          3D

 24 23  0  0  1  0  0  0  0  0999 V2000
   19.3149  -26.0369  -12.1710 N   0  0  0  0  0  0  0  0  0  0  0  0
   19.1727  -27.2104  -11.2931 C   0  0  1  0  0  0  0  0  0  0  0  0
   20.2274  -28.1689  -11.6806 C   0  0  0  0  0  0  0  0  0  0  0  0
   20.3013  -28.6463  -13.0619 C   0  0  0  0  0  0  0  0  0  0  0  0
   21.5380  -28.6400  -13.8439 C   0  0  0  0  0  0  0  0  0  0  0  0
   21.5895  -29.2886  -15.1744 C   0  0  0  0  0  0  0  0  0  0  0  0
   21.1521  -28.2696  -16.1561 N   0  0  0  0  0  0  0  0  0  0  0  0
   19.4741  -26.6520   -9.8966 C   0  0  0  0  0  0  0  0  0  0  0  0
   20.3936  -27.0835   -9.1897 O   0  0  0  0  0  0  0  0  0  0  0  0
   18.6637  -25.6028   -9.4058 N   0  0  0  0  0  0  0  0  0  0  0  0
   18.8970  -24.9612   -8.0954 C   0  0  1  0  0  0  0  0  0  0  0  0
   18.4671  -23.5120   -8.3310 C   0  0  0  0  0  0  0  0  0  0  0  0
   16.7183  -23.3936   -8.7330 S   0  0  0  0  0  0  0  0  0  0  0  0
   18.1244  -25.6338   -7.0527 C   0  0  0  0  0  0  0  0  0  0  0  0
   17.0966  -26.2790   -7.3712 O   0  0  0  0  0  0  0  0  0  0  0  0
   17.3528  -28.6985   -2.6914 C   0  0  0  0  0  0  0  0  0  0  0  0
   17.7642  -27.2774   -2.4089 C   0  0  1  0  0  0  0  0  0  0  0  0
   18.6512  -27.2441   -1.1563 C   0  0  0  0  0  0  0  0  0  0  0  0
   18.4741  -26.5947   -3.5160 C   0  0  0  0  0  0  0  0  0  0  0  0
   17.6610  -26.1928   -4.6953 C   0  0  2  0  0  0  0  0  0  0  0  0
   18.5053  -25.5769   -5.7028 N   0  0  0  0  0  0  0  0  0  0  0  0
   16.5119  -25.3240   -4.4249 C   0  0  0  0  0  0  0  0  0  0  0  0
   16.5550  -24.0707   -4.5530 O   0  0  0  0  0  0  0  0  0  0  0  0
   15.2716  -25.8384   -3.9984 O   0  0  0  0  0  0  0  0  0  0  0  0
  2  1  1  6
  3  4  1  0
  3  2  1  0
  5  6  1  0
  5  4  1  0
  7  6  1  0
  8  2  1  0
  8  9  2  0
 10  8  1  0
 11 10  1  0
 11 12  1  6
 13 12  1  0
 14 11  1  0
 15 14  2  0
 17 16  1  6
 17 18  1  0
 20 19  1  1
 19 17  1  0
 20 21  1  0
 21 14  1  0
 22 20  1  0
 23 22  2  0
 24 22  1  0
M  END
$$$$
