KCL.pdb
     RDKit          3D

 24 23  0  0  1  0  0  0  0  0999 V2000
   31.2354  -24.9017  -16.3925 N   0  0  0  0  0  0  0  0  0  0  0  0
   30.4947  -24.0494  -17.3375 C   0  0  1  0  0  0  0  0  0  0  0  0
   29.7997  -24.9516  -18.2780 C   0  0  0  0  0  0  0  0  0  0  0  0
   29.2113  -26.1979  -17.7862 C   0  0  0  0  0  0  0  0  0  0  0  0
   29.6133  -27.5176  -18.2739 C   0  0  0  0  0  0  0  0  0  0  0  0
   28.9574  -28.7414  -17.7585 C   0  0  0  0  0  0  0  0  0  0  0  0
   29.5542  -29.8799  -18.4939 N   0  0  0  0  0  0  0  0  0  0  0  0
   29.4643  -23.3407  -16.4494 C   0  0  0  0  0  0  0  0  0  0  0  0
   28.9230  -23.8939  -15.4838 O   0  0  0  0  0  0  0  0  0  0  0  0
   29.1258  -22.0024  -16.7539 N   0  0  0  0  0  0  0  0  0  0  0  0
   28.1710  -21.2175  -15.9441 C   0  0  1  0  0  0  0  0  0  0  0  0
   28.5130  -19.7697  -16.3011 C   0  0  0  0  0  0  0  0  0  0  0  0
   27.4333  -18.6038  -15.4591 S   0  0  0  0  0  0  0  0  0  0  0  0
   26.7961  -21.5877  -16.2744 C   0  0  0  0  0  0  0  0  0  0  0  0
   26.4545  -21.6638  -17.4793 O   0  0  0  0  0  0  0  0  0  0  0  0
   24.7536  -26.0842  -15.4629 C   0  0  0  0  0  0  0  0  0  0  0  0
   24.9295  -24.6914  -16.0084 C   0  0  1  0  0  0  0  0  0  0  0  0
   24.4883  -24.6614  -17.4786 C   0  0  0  0  0  0  0  0  0  0  0  0
   24.2064  -23.6294  -15.2703 C   0  0  0  0  0  0  0  0  0  0  0  0
   24.4939  -22.2214  -15.6556 C   0  0  2  0  0  0  0  0  0  0  0  0
   25.8482  -21.8620  -15.2761 N   0  0  0  0  0  0  0  0  0  0  0  0
   23.5617  -21.2083  -15.1528 C   0  0  0  0  0  0  0  0  0  0  0  0
   23.8833  -20.3503  -14.2872 O   0  0  0  0  0  0  0  0  0  0  0  0
   22.2309  -21.1274  -15.6082 O   0  0  0  0  0  0  0  0  0  0  0  0
  2  1  1  1
  3  4  1  0
  3  2  1  0
  5  6  1  0
  5  4  1  0
  7  6  1  0
  8  2  1  0
  8  9  2  0
 10  8  1  0
 11 10  1  0
 11 12  1  6
 13 12  1  0
 14 11  1  0
 15 14  2  0
 17 16  1  1
 17 18  1  0
 20 19  1  1
 19 17  1  0
 20 21  1  0
 21 14  1  0
 22 20  1  0
 23 22  2  0
 24 22  1  0
M  END
$$$$
