KCL.pdb
     RDKit          3D

 24 23  0  0  1  0  0  0  0  0999 V2000
   16.9323  -12.8270  -18.6675 N   0  0  0  0  0  0  0  0  0  0  0  0
   18.3575  -13.1968  -18.6736 C   0  0  1  0  0  0  0  0  0  0  0  0
   18.6177  -13.8889  -19.9521 C   0  0  0  0  0  0  0  0  0  0  0  0
   17.5287  -14.5933  -20.6299 C   0  0  0  0  0  0  0  0  0  0  0  0
   16.9101  -15.8079  -20.0979 C   0  0  0  0  0  0  0  0  0  0  0  0
   15.8418  -16.5008  -20.8543 C   0  0  0  0  0  0  0  0  0  0  0  0
   15.4466  -17.6754  -20.0435 N   0  0  0  0  0  0  0  0  0  0  0  0
   19.0792  -11.8433  -18.6663 C   0  0  0  0  0  0  0  0  0  0  0  0
   20.2842  -11.7284  -18.9236 O   0  0  0  0  0  0  0  0  0  0  0  0
   18.3297  -10.6867  -18.3517 N   0  0  0  0  0  0  0  0  0  0  0  0
   18.9199   -9.3321  -18.3431 C   0  0  1  0  0  0  0  0  0  0  0  0
   17.8189   -8.4640  -18.9553 C   0  0  0  0  0  0  0  0  0  0  0  0
   17.6754   -8.7242  -20.7289 S   0  0  0  0  0  0  0  0  0  0  0  0
   19.2786   -8.9400  -16.9814 C   0  0  0  0  0  0  0  0  0  0  0  0
   18.4896   -9.1993  -16.0410 O   0  0  0  0  0  0  0  0  0  0  0  0
   21.4308   -9.1561  -12.3820 C   0  0  0  0  0  0  0  0  0  0  0  0
   22.4042   -8.9459  -13.5120 C   0  0  1  0  0  0  0  0  0  0  0  0
   23.5798   -9.9214  -13.3588 C   0  0  0  0  0  0  0  0  0  0  0  0
   21.8335   -9.0945  -14.8714 C   0  0  0  0  0  0  0  0  0  0  0  0
   20.8698   -8.0529  -15.3183 C   0  0  2  0  0  0  0  0  0  0  0  0
   20.4857   -8.2814  -16.6995 N   0  0  0  0  0  0  0  0  0  0  0  0
   21.2981   -6.6607  -15.1556 C   0  0  0  0  0  0  0  0  0  0  0  0
   21.7272   -5.9593  -16.1111 O   0  0  0  0  0  0  0  0  0  0  0  0
   21.2591   -6.0091  -13.9070 O   0  0  0  0  0  0  0  0  0  0  0  0
  2  1  1  6
  3  4  1  0
  3  2  1  0
  5  6  1  0
  5  4  1  0
  7  6  1  0
  8  2  1  0
  8  9  2  0
 10  8  1  0
 11 10  1  0
 11 12  1  1
 13 12  1  0
 14 11  1  0
 15 14  2  0
 17 16  1  1
 17 18  1  0
 20 19  1  6
 19 17  1  0
 20 21  1  0
 21 14  1  0
 22 20  1  0
 23 22  2  0
 24 22  1  0
M  END
$$$$
