KCL.pdb
     RDKit          3D

 24 23  0  0  1  0  0  0  0  0999 V2000
   22.3502  -28.1932  -13.8162 N   0  0  0  0  0  0  0  0  0  0  0  0
   21.3555  -27.2229  -13.3293 C   0  0  1  0  0  0  0  0  0  0  0  0
   20.9249  -27.6809  -11.9929 C   0  0  0  0  0  0  0  0  0  0  0  0
   19.5632  -28.1815  -11.8019 C   0  0  0  0  0  0  0  0  0  0  0  0
   19.2594  -29.5880  -11.5365 C   0  0  0  0  0  0  0  0  0  0  0  0
   19.6349  -30.2074  -10.2447 C   0  0  0  0  0  0  0  0  0  0  0  0
   18.3680  -30.5267   -9.5473 N   0  0  0  0  0  0  0  0  0  0  0  0
   22.1590  -25.9235  -13.1927 C   0  0  0  0  0  0  0  0  0  0  0  0
   22.0717  -25.1861  -12.2028 O   0  0  0  0  0  0  0  0  0  0  0  0
   23.0315  -25.5622  -14.2446 N   0  0  0  0  0  0  0  0  0  0  0  0
   23.8549  -24.3357  -14.2119 C   0  0  1  0  0  0  0  0  0  0  0  0
   25.0130  -24.6633  -15.1562 C   0  0  0  0  0  0  0  0  0  0  0  0
   26.1375  -23.2718  -15.3380 S   0  0  0  0  0  0  0  0  0  0  0  0
   23.0672  -23.1803  -14.6380 C   0  0  0  0  0  0  0  0  0  0  0  0
   22.2712  -23.3025  -15.6001 O   0  0  0  0  0  0  0  0  0  0  0  0
   19.7957  -19.0441  -14.3103 C   0  0  0  0  0  0  0  0  0  0  0  0
   21.1217  -18.7847  -13.6446 C   0  0  1  0  0  0  0  0  0  0  0  0
   20.8950  -17.9857  -12.3534 C   0  0  0  0  0  0  0  0  0  0  0  0
   21.9140  -19.9954  -13.3250 C   0  0  0  0  0  0  0  0  0  0  0  0
   22.3918  -20.8138  -14.4719 C   0  0  2  0  0  0  0  0  0  0  0  0
   23.1785  -21.9371  -13.9959 N   0  0  0  0  0  0  0  0  0  0  0  0
   23.1402  -20.1000  -15.5105 C   0  0  0  0  0  0  0  0  0  0  0  0
   22.5807  -19.4651  -16.4447 O   0  0  0  0  0  0  0  0  0  0  0  0
   24.5487  -20.0777  -15.5332 O   0  0  0  0  0  0  0  0  0  0  0  0
  2  1  1  1
  3  4  1  0
  3  2  1  0
  5  6  1  0
  5  4  1  0
  7  6  1  0
  8  2  1  0
  8  9  2  0
 10  8  1  0
 11 10  1  0
 11 12  1  6
 13 12  1  0
 14 11  1  0
 15 14  2  0
 17 16  1  1
 17 18  1  0
 20 19  1  1
 19 17  1  0
 20 21  1  0
 21 14  1  0
 22 20  1  0
 23 22  2  0
 24 22  1  0
M  END
$$$$
