KCL.pdb
     RDKit          3D

 24 23  0  0  1  0  0  0  0  0999 V2000
   24.4003  -20.6055  -14.1648 N   0  0  0  0  0  0  0  0  0  0  0  0
   25.5830  -21.0615  -13.4156 C   0  0  1  0  0  0  0  0  0  0  0  0
   26.7638  -20.7630  -14.2509 C   0  0  0  0  0  0  0  0  0  0  0  0
   27.2117  -21.7363  -15.2476 C   0  0  0  0  0  0  0  0  0  0  0  0
   26.7012  -23.1061  -15.3117 C   0  0  0  0  0  0  0  0  0  0  0  0
   27.1808  -24.0389  -16.3573 C   0  0  0  0  0  0  0  0  0  0  0  0
   26.4071  -25.2908  -16.1909 N   0  0  0  0  0  0  0  0  0  0  0  0
   25.5906  -20.1603  -12.1745 C   0  0  0  0  0  0  0  0  0  0  0  0
   25.8365  -18.9488  -12.2313 O   0  0  0  0  0  0  0  0  0  0  0  0
   25.3043  -20.7458  -10.9201 N   0  0  0  0  0  0  0  0  0  0  0  0
   25.2641  -19.9650   -9.6662 C   0  0  1  0  0  0  0  0  0  0  0  0
   23.8505  -20.2182   -9.1386 C   0  0  0  0  0  0  0  0  0  0  0  0
   23.7294  -21.8005   -8.2927 S   0  0  0  0  0  0  0  0  0  0  0  0
   26.3137  -20.4120   -8.7523 C   0  0  0  0  0  0  0  0  0  0  0  0
   26.7273  -21.5943   -8.8253 O   0  0  0  0  0  0  0  0  0  0  0  0
   30.2618  -18.1098   -4.5433 C   0  0  0  0  0  0  0  0  0  0  0  0
   29.5754  -19.2927   -5.1743 C   0  0  1  0  0  0  0  0  0  0  0  0
   28.7614  -20.0375   -4.1068 C   0  0  0  0  0  0  0  0  0  0  0  0
   28.6866  -18.9708   -6.3154 C   0  0  0  0  0  0  0  0  0  0  0  0
   27.8309  -20.0700   -6.8378 C   0  0  2  0  0  0  0  0  0  0  0  0
   26.8718  -19.5500   -7.7954 N   0  0  0  0  0  0  0  0  0  0  0  0
   27.1299  -20.8781   -5.8358 C   0  0  0  0  0  0  0  0  0  0  0  0
   27.6419  -21.8952   -5.2951 O   0  0  0  0  0  0  0  0  0  0  0  0
   25.8238  -20.5680   -5.4080 O   0  0  0  0  0  0  0  0  0  0  0  0
  2  1  1  6
  3  4  1  0
  3  2  1  0
  5  6  1  0
  5  4  1  0
  7  6  1  0
  8  2  1  0
  8  9  2  0
 10  8  1  0
 11 10  1  0
 11 12  1  1
 13 12  1  0
 14 11  1  0
 15 14  2  0
 17 16  1  1
 17 18  1  0
 20 19  1  1
 19 17  1  0
 20 21  1  0
 21 14  1  0
 22 20  1  0
 23 22  2  0
 24 22  1  0
M  END
$$$$
