KCL.pdb
     RDKit          3D

 24 23  0  0  1  0  0  0  0  0999 V2000
   26.1421  -21.8753  -14.3896 N   0  0  0  0  0  0  0  0  0  0  0  0
   26.5995  -20.4765  -14.4359 C   0  0  1  0  0  0  0  0  0  0  0  0
   25.9616  -19.8532  -15.6131 C   0  0  0  0  0  0  0  0  0  0  0  0
   26.3418  -20.2865  -16.9582 C   0  0  0  0  0  0  0  0  0  0  0  0
   27.2993  -21.3641  -17.2091 C   0  0  0  0  0  0  0  0  0  0  0  0
   27.7124  -21.6957  -18.5922 C   0  0  0  0  0  0  0  0  0  0  0  0
   28.7434  -22.7532  -18.4810 N   0  0  0  0  0  0  0  0  0  0  0  0
   26.0186  -19.8667  -13.1539 C   0  0  0  0  0  0  0  0  0  0  0  0
   25.9622  -18.6454  -12.9623 O   0  0  0  0  0  0  0  0  0  0  0  0
   25.5306  -20.7425  -12.1574 N   0  0  0  0  0  0  0  0  0  0  0  0
   24.9334  -20.2601  -10.8948 C   0  0  1  0  0  0  0  0  0  0  0  0
   23.4701  -20.6913  -11.0097 C   0  0  0  0  0  0  0  0  0  0  0  0
   22.6679  -19.9498  -12.4382 S   0  0  0  0  0  0  0  0  0  0  0  0
   25.6231  -20.8462   -9.7470 C   0  0  0  0  0  0  0  0  0  0  0  0
   26.1027  -22.0015   -9.8446 O   0  0  0  0  0  0  0  0  0  0  0  0
   28.6099  -18.3154   -5.8765 C   0  0  0  0  0  0  0  0  0  0  0  0
   28.0582  -19.3761   -6.7925 C   0  0  1  0  0  0  0  0  0  0  0  0
   29.1006  -20.4896   -6.9674 C   0  0  0  0  0  0  0  0  0  0  0  0
   26.7788  -19.9828   -6.3558 C   0  0  0  0  0  0  0  0  0  0  0  0
   26.0876  -20.8756   -7.3247 C   0  0  2  0  0  0  0  0  0  0  0  0
   25.7635  -20.1473   -8.5378 N   0  0  0  0  0  0  0  0  0  0  0  0
   24.8894  -21.5617   -6.8332 C   0  0  0  0  0  0  0  0  0  0  0  0
   23.7322  -21.3179   -7.2697 O   0  0  0  0  0  0  0  0  0  0  0  0
   24.9533  -22.5480   -5.8292 O   0  0  0  0  0  0  0  0  0  0  0  0
  2  1  1  1
  3  4  1  0
  3  2  1  0
  5  6  1  0
  5  4  1  0
  7  6  1  0
  8  2  1  0
  8  9  2  0
 10  8  1  0
 11 10  1  0
 11 12  1  6
 13 12  1  0
 14 11  1  0
 15 14  2  0
 17 16  1  1
 17 18  1  0
 20 19  1  1
 19 17  1  0
 20 21  1  0
 21 14  1  0
 22 20  1  0
 23 22  2  0
 24 22  1  0
M  END
$$$$
