YIN.pdb
     RDKit          3D

 29 29  0  0  1  0  0  0  0  0999 V2000
    5.9888  -18.6910   16.5219 O   0  0  0  0  0  0  0  0  0  0  0  0
    6.5388  -18.2609   17.7278 C   0  0  0  0  0  0  0  0  0  0  0  0
    5.6696  -17.9003   18.7382 C   0  0  0  0  0  0  0  0  0  0  0  0
    6.1979  -17.4684   19.9484 C   0  0  0  0  0  0  0  0  0  0  0  0
    7.5512  -17.4022   20.1346 C   0  0  0  0  0  0  0  0  0  0  0  0
    8.0857  -16.9369   21.4400 C   0  0  0  0  0  0  0  0  0  0  0  0
    8.1118  -15.4364   21.5000 C   0  0  2  0  0  0  0  0  0  0  0  0
    8.8025  -14.8292   20.3989 N   0  0  0  0  0  0  0  0  0  0  0  0
    8.6606  -15.0371   22.8224 C   0  0  0  0  0  0  0  0  0  0  0  0
    9.8723  -14.7641   22.9144 O   0  0  0  0  0  0  0  0  0  0  0  0
    8.4035  -17.7659   19.1165 C   0  0  0  0  0  0  0  0  0  0  0  0
    7.8996  -18.1999   17.8998 C   0  0  0  0  0  0  0  0  0  0  0  0
    5.8972  -11.7820   25.7622 C   0  0  0  0  0  0  0  0  0  0  0  0
    7.0183  -12.5668   25.1779 C   0  0  0  0  0  0  0  0  0  0  0  0
    7.3900  -13.8031   26.0235 C   0  0  2  0  0  0  0  0  0  0  0  0
    7.8713  -13.3370   27.3787 C   0  0  0  0  0  0  0  0  0  0  0  0
    8.4176  -14.6137   25.3147 C   0  0  2  0  0  0  0  0  0  0  0  0
    7.8594  -14.9569   23.9731 N   0  0  0  0  0  0  0  0  0  0  0  0
    8.8889  -15.8285   25.9675 C   0  0  0  0  0  0  0  0  0  0  0  0
    8.0111  -16.7404   26.2388 O   0  0  0  0  0  0  0  0  0  0  0  0
   12.6587  -17.1039   24.1838 N   0  0  0  0  0  0  0  0  0  0  0  0
   11.8073  -18.0061   24.9266 C   0  0  0  0  0  0  0  0  0  0  0  0
   11.0927  -18.7693   24.2449 O   0  0  0  0  0  0  0  0  0  0  0  0
   11.8382  -17.9660   26.3889 C   0  0  0  0  0  0  0  0  0  0  0  0
   10.5214  -17.4918   26.9388 C   0  0  2  0  0  0  0  0  0  0  0  0
   10.1833  -16.1821   26.3574 N   0  0  0  0  0  0  0  0  0  0  0  0
   10.6490  -17.2469   28.3786 C   0  0  0  0  0  0  0  0  0  0  0  0
   10.8856  -18.1618   29.1832 O   0  0  0  0  0  0  0  0  0  0  0  0
   10.5093  -15.9785   28.8934 O   0  0  0  0  0  0  0  0  0  0  0  0
  2  1  1  0
  3  2  2  0
  4  3  1  0
  5  4  2  0
  5 11  1  0
  6  5  1  0
  7  6  1  0
  7  9  1  0
  7  8  1  6
  9 10  2  0
 11 12  2  0
 12  2  1  0
 13 14  1  0
 15 14  1  0
 15 17  1  0
 15 16  1  1
 17 18  1  6
 18  9  1  0
 19 17  1  0
 19 20  2  0
 21 22  1  0
 22 24  1  0
 23 22  2  0
 25 24  1  6
 25 26  1  0
 25 27  1  0
 26 19  1  0
 27 29  1  0
 28 27  2  0
M  END
$$$$
