YIN.pdb
     RDKit          3D

 29 29  0  0  1  0  0  0  0  0999 V2000
   14.8384  -17.1771   12.2243 O   0  0  0  0  0  0  0  0  0  0  0  0
   14.3911  -16.9450   13.5235 C   0  0  0  0  0  0  0  0  0  0  0  0
   15.2826  -16.3916   14.4209 C   0  0  0  0  0  0  0  0  0  0  0  0
   14.8564  -16.1525   15.7215 C   0  0  0  0  0  0  0  0  0  0  0  0
   13.5797  -16.4590   16.1042 C   0  0  0  0  0  0  0  0  0  0  0  0
   13.1534  -16.1912   17.5017 C   0  0  0  0  0  0  0  0  0  0  0  0
   12.7502  -14.7541   17.6690 C   0  0  2  0  0  0  0  0  0  0  0  0
   13.8306  -13.8288   17.4828 N   0  0  0  0  0  0  0  0  0  0  0  0
   12.0843  -14.6126   18.9903 C   0  0  0  0  0  0  0  0  0  0  0  0
   12.7878  -14.4561   20.0061 O   0  0  0  0  0  0  0  0  0  0  0  0
   12.7037  -17.0101   15.1965 C   0  0  0  0  0  0  0  0  0  0  0  0
   13.1064  -17.2580   13.8931 C   0  0  0  0  0  0  0  0  0  0  0  0
    7.3767  -12.0368   19.3180 C   0  0  0  0  0  0  0  0  0  0  0  0
    8.7134  -12.5875   19.6706 C   0  0  0  0  0  0  0  0  0  0  0  0
    8.6427  -14.0268   20.2227 C   0  0  2  0  0  0  0  0  0  0  0  0
    7.8093  -14.0222   21.4841 C   0  0  0  0  0  0  0  0  0  0  0  0
   10.0163  -14.5472   20.4632 C   0  0  2  0  0  0  0  0  0  0  0  0
   10.6876  -14.6495   19.1334 N   0  0  0  0  0  0  0  0  0  0  0  0
   10.1448  -15.8161   21.1684 C   0  0  0  0  0  0  0  0  0  0  0  0
   10.3987  -16.8701   20.4612 O   0  0  0  0  0  0  0  0  0  0  0  0
   13.9560  -17.7345   21.3616 N   0  0  0  0  0  0  0  0  0  0  0  0
   12.8856  -18.0260   22.2890 C   0  0  0  0  0  0  0  0  0  0  0  0
   12.5608  -19.2269   22.3891 O   0  0  0  0  0  0  0  0  0  0  0  0
   12.2700  -16.9239   23.0288 C   0  0  0  0  0  0  0  0  0  0  0  0
   10.7951  -17.1571   23.2066 C   0  0  2  0  0  0  0  0  0  0  0  0
   10.0388  -16.0871   22.5351 N   0  0  0  0  0  0  0  0  0  0  0  0
   10.4455  -17.0370   24.6252 C   0  0  0  0  0  0  0  0  0  0  0  0
    9.9608  -15.9967   25.0977 O   0  0  0  0  0  0  0  0  0  0  0  0
   10.6452  -18.0868   25.4921 O   0  0  0  0  0  0  0  0  0  0  0  0
  2  1  1  0
  3  2  2  0
  4  3  1  0
  5  4  2  0
  5 11  1  0
  6  5  1  0
  7  6  1  0
  7  9  1  0
  7  8  1  1
  9 10  2  0
 11 12  2  0
 12  2  1  0
 13 14  1  0
 15 14  1  0
 15 17  1  0
 15 16  1  1
 17 18  1  6
 18  9  1  0
 19 17  1  0
 19 20  2  0
 21 22  1  0
 22 24  1  0
 23 22  2  0
 25 24  1  1
 25 26  1  0
 25 27  1  0
 26 19  1  0
 27 29  1  0
 28 27  2  0
M  END
$$$$
