YIN.pdb
     RDKit          3D

 29 29  0  0  1  0  0  0  0  0999 V2000
    5.7787  -22.5823   29.5545 O   0  0  0  0  0  0  0  0  0  0  0  0
    6.1197  -21.8497   28.4192 C   0  0  0  0  0  0  0  0  0  0  0  0
    6.5811  -20.5611   28.6006 C   0  0  0  0  0  0  0  0  0  0  0  0
    6.9262  -19.8137   27.4814 C   0  0  0  0  0  0  0  0  0  0  0  0
    6.8112  -20.3442   26.2261 C   0  0  0  0  0  0  0  0  0  0  0  0
    7.1885  -19.5204   25.0491 C   0  0  0  0  0  0  0  0  0  0  0  0
    6.0544  -18.6244   24.6410 C   0  0  2  0  0  0  0  0  0  0  0  0
    5.1368  -19.2395   23.7256 N   0  0  0  0  0  0  0  0  0  0  0  0
    6.6317  -17.3567   24.1221 C   0  0  0  0  0  0  0  0  0  0  0  0
    6.7206  -17.1948   22.8904 O   0  0  0  0  0  0  0  0  0  0  0  0
    6.3496  -21.6309   26.0634 C   0  0  0  0  0  0  0  0  0  0  0  0
    5.9989  -22.3959   27.1654 C   0  0  0  0  0  0  0  0  0  0  0  0
    7.6839  -12.9946   27.5968 C   0  0  0  0  0  0  0  0  0  0  0  0
    7.8453  -14.2216   26.7704 C   0  0  0  0  0  0  0  0  0  0  0  0
    7.5028  -13.9927   25.2832 C   0  0  2  0  0  0  0  0  0  0  0  0
    6.0255  -13.6932   25.1662 C   0  0  0  0  0  0  0  0  0  0  0  0
    7.8960  -15.1837   24.4817 C   0  0  2  0  0  0  0  0  0  0  0  0
    7.0811  -16.3342   24.9734 N   0  0  0  0  0  0  0  0  0  0  0  0
    9.3046  -15.5577   24.4730 C   0  0  0  0  0  0  0  0  0  0  0  0
    9.6700  -16.5292   25.2466 O   0  0  0  0  0  0  0  0  0  0  0  0
   13.7445  -16.4725   20.7699 N   0  0  0  0  0  0  0  0  0  0  0  0
   13.5938  -15.7699   22.0246 C   0  0  0  0  0  0  0  0  0  0  0  0
   14.5784  -15.8021   22.7911 O   0  0  0  0  0  0  0  0  0  0  0  0
   12.3311  -15.0863   22.3060 C   0  0  0  0  0  0  0  0  0  0  0  0
   11.5920  -15.7673   23.4246 C   0  0  2  0  0  0  0  0  0  0  0  0
   10.3615  -15.0203   23.7337 N   0  0  0  0  0  0  0  0  0  0  0  0
   12.3919  -15.7065   24.6516 C   0  0  0  0  0  0  0  0  0  0  0  0
   12.3618  -14.7235   25.4087 O   0  0  0  0  0  0  0  0  0  0  0  0
   13.2136  -16.7504   25.0103 O   0  0  0  0  0  0  0  0  0  0  0  0
  2  1  1  0
  3  2  2  0
  4  3  1  0
  5  4  2  0
  5 11  1  0
  6  5  1  0
  7  6  1  0
  7  9  1  0
  7  8  1  6
  9 10  2  0
 11 12  2  0
 12  2  1  0
 13 14  1  0
 15 14  1  0
 15 17  1  0
 15 16  1  1
 17 18  1  1
 18  9  1  0
 19 17  1  0
 19 20  2  0
 21 22  1  0
 22 24  1  0
 23 22  2  0
 25 24  1  6
 25 26  1  0
 25 27  1  0
 26 19  1  0
 27 29  1  0
 28 27  2  0
M  END
$$$$
