YIN.pdb
     RDKit          3D

 29 29  0  0  1  0  0  0  0  0999 V2000
    7.4995  -14.1819   15.7231 O   0  0  0  0  0  0  0  0  0  0  0  0
    7.8943  -14.0873   17.0562 C   0  0  0  0  0  0  0  0  0  0  0  0
    7.4221  -13.0187   17.7921 C   0  0  0  0  0  0  0  0  0  0  0  0
    7.8042  -12.9061   19.1231 C   0  0  0  0  0  0  0  0  0  0  0  0
    8.6310  -13.8351   19.6922 C   0  0  0  0  0  0  0  0  0  0  0  0
    9.0214  -13.6876   21.1177 C   0  0  0  0  0  0  0  0  0  0  0  0
    8.6209  -14.9007   21.9074 C   0  0  2  0  0  0  0  0  0  0  0  0
    7.2446  -15.2684   21.7375 N   0  0  0  0  0  0  0  0  0  0  0  0
    8.9898  -14.6686   23.3285 C   0  0  0  0  0  0  0  0  0  0  0  0
   10.1863  -14.4779   23.6171 O   0  0  0  0  0  0  0  0  0  0  0  0
    9.0924  -14.8945   18.9440 C   0  0  0  0  0  0  0  0  0  0  0  0
    8.7248  -15.0278   17.6137 C   0  0  0  0  0  0  0  0  0  0  0  0
    6.0611  -11.4118   26.0236 C   0  0  0  0  0  0  0  0  0  0  0  0
    7.2420  -12.2244   25.6241 C   0  0  0  0  0  0  0  0  0  0  0  0
    7.3271  -13.5692   26.3762 C   0  0  2  0  0  0  0  0  0  0  0  0
    7.5672  -13.2906   27.8426 C   0  0  0  0  0  0  0  0  0  0  0  0
    8.4002  -14.4150   25.7857 C   0  0  2  0  0  0  0  0  0  0  0  0
    8.0350  -14.6570   24.3583 N   0  0  0  0  0  0  0  0  0  0  0  0
    8.6908  -15.6881   26.4330 C   0  0  0  0  0  0  0  0  0  0  0  0
    8.9343  -15.6706   27.7042 O   0  0  0  0  0  0  0  0  0  0  0  0
    6.8512  -21.1947   27.1614 N   0  0  0  0  0  0  0  0  0  0  0  0
    7.5292  -20.0196   27.6614 C   0  0  0  0  0  0  0  0  0  0  0  0
    8.1333  -20.1564   28.7450 O   0  0  0  0  0  0  0  0  0  0  0  0
    7.4640  -18.7807   26.8856 C   0  0  0  0  0  0  0  0  0  0  0  0
    8.8361  -18.1949   26.6973 C   0  0  2  0  0  0  0  0  0  0  0  0
    8.7461  -16.9715   25.8831 N   0  0  0  0  0  0  0  0  0  0  0  0
    9.6605  -19.1161   25.9093 C   0  0  0  0  0  0  0  0  0  0  0  0
   10.0487  -18.8363   24.7641 O   0  0  0  0  0  0  0  0  0  0  0  0
   10.0369  -20.3376   26.4189 O   0  0  0  0  0  0  0  0  0  0  0  0
  2  1  1  0
  3  2  2  0
  4  3  1  0
  5  4  2  0
  5 11  1  0
  6  5  1  0
  7  6  1  0
  7  9  1  0
  7  8  1  1
  9 10  2  0
 11 12  2  0
 12  2  1  0
 13 14  1  0
 15 14  1  0
 15 17  1  0
 15 16  1  1
 17 18  1  6
 18  9  1  0
 19 17  1  0
 19 20  2  0
 21 22  1  0
 22 24  1  0
 23 22  2  0
 25 24  1  6
 25 26  1  0
 25 27  1  0
 26 19  1  0
 27 29  1  0
 28 27  2  0
M  END
$$$$
