YIN.pdb
     RDKit          3D

 29 29  0  0  1  0  0  0  0  0999 V2000
    6.7817  -23.3361   29.4782 O   0  0  0  0  0  0  0  0  0  0  0  0
    7.0234  -22.2925   28.5870 C   0  0  0  0  0  0  0  0  0  0  0  0
    7.2111  -21.0294   29.1121 C   0  0  0  0  0  0  0  0  0  0  0  0
    7.4531  -19.9750   28.2403 C   0  0  0  0  0  0  0  0  0  0  0  0
    7.5045  -20.1847   26.8898 C   0  0  0  0  0  0  0  0  0  0  0  0
    7.7657  -19.0373   25.9833 C   0  0  0  0  0  0  0  0  0  0  0  0
    6.4768  -18.4445   25.4903 C   0  0  2  0  0  0  0  0  0  0  0  0
    5.6901  -19.3519   24.7054 N   0  0  0  0  0  0  0  0  0  0  0  0
    6.7942  -17.1810   24.7746 C   0  0  0  0  0  0  0  0  0  0  0  0
    6.9001  -17.2014   23.5338 O   0  0  0  0  0  0  0  0  0  0  0  0
    7.3154  -21.4507   26.3832 C   0  0  0  0  0  0  0  0  0  0  0  0
    7.0722  -22.5185   27.2336 C   0  0  0  0  0  0  0  0  0  0  0  0
    5.5591  -12.4260   26.7416 C   0  0  0  0  0  0  0  0  0  0  0  0
    6.0022  -13.3224   25.6396 C   0  0  0  0  0  0  0  0  0  0  0  0
    7.5121  -13.6368   25.6922 C   0  0  2  0  0  0  0  0  0  0  0  0
    8.2764  -12.4309   25.1950 C   0  0  0  0  0  0  0  0  0  0  0  0
    7.8063  -14.8544   24.8883 C   0  0  2  0  0  0  0  0  0  0  0  0
    6.9791  -15.9634   25.4498 N   0  0  0  0  0  0  0  0  0  0  0  0
    9.1956  -15.2856   24.7979 C   0  0  0  0  0  0  0  0  0  0  0  0
    9.7157  -15.8492   25.8407 O   0  0  0  0  0  0  0  0  0  0  0  0
   12.2664  -17.3879   25.7316 N   0  0  0  0  0  0  0  0  0  0  0  0
   11.5229  -18.1538   24.7562 C   0  0  0  0  0  0  0  0  0  0  0  0
   11.4270  -19.3780   24.9800 O   0  0  0  0  0  0  0  0  0  0  0  0
   10.9477  -17.4623   23.6022 C   0  0  0  0  0  0  0  0  0  0  0  0
   11.3096  -16.0029   23.6182 C   0  0  2  0  0  0  0  0  0  0  0  0
   10.0871  -15.1895   23.7263 N   0  0  0  0  0  0  0  0  0  0  0  0
   11.9025  -15.6288   22.3307 C   0  0  0  0  0  0  0  0  0  0  0  0
   13.1310  -15.5825   22.1607 O   0  0  0  0  0  0  0  0  0  0  0  0
   11.1071  -15.3124   21.2533 O   0  0  0  0  0  0  0  0  0  0  0  0
  2  1  1  0
  3  2  2  0
  4  3  1  0
  5  4  2  0
  5 11  1  0
  6  5  1  0
  7  6  1  0
  7  9  1  0
  7  8  1  6
  9 10  2  0
 11 12  2  0
 12  2  1  0
 13 14  1  0
 15 14  1  0
 15 17  1  0
 15 16  1  6
 17 18  1  1
 18  9  1  0
 19 17  1  0
 19 20  2  0
 21 22  1  0
 22 24  1  0
 23 22  2  0
 25 24  1  6
 25 26  1  0
 25 27  1  0
 26 19  1  0
 27 29  1  0
 28 27  2  0
M  END
$$$$
