YIN.pdb
     RDKit          3D

 29 29  0  0  1  0  0  0  0  0999 V2000
   11.5126  -16.4773   32.7515 O   0  0  0  0  0  0  0  0  0  0  0  0
   11.1679  -16.6867   31.4176 C   0  0  0  0  0  0  0  0  0  0  0  0
   10.5566  -15.6496   30.7414 C   0  0  0  0  0  0  0  0  0  0  0  0
   10.2047  -15.8383   29.4106 C   0  0  0  0  0  0  0  0  0  0  0  0
   10.4589  -17.0269   28.7839 C   0  0  0  0  0  0  0  0  0  0  0  0
   10.0713  -17.1981   27.3602 C   0  0  0  0  0  0  0  0  0  0  0  0
    8.5806  -17.3232   27.2259 C   0  0  2  0  0  0  0  0  0  0  0  0
    8.0927  -18.6528   27.4542 N   0  0  0  0  0  0  0  0  0  0  0  0
    8.1898  -16.7800   25.8986 C   0  0  0  0  0  0  0  0  0  0  0  0
    7.7181  -17.5551   25.0454 O   0  0  0  0  0  0  0  0  0  0  0  0
   11.0694  -18.0504   29.4731 C   0  0  0  0  0  0  0  0  0  0  0  0
   11.4296  -17.8856   30.8019 C   0  0  0  0  0  0  0  0  0  0  0  0
    6.7179  -11.7840   26.1384 C   0  0  0  0  0  0  0  0  0  0  0  0
    6.6113  -13.1338   25.5211 C   0  0  0  0  0  0  0  0  0  0  0  0
    7.6986  -13.3947   24.4575 C   0  0  2  0  0  0  0  0  0  0  0  0
    7.2994  -12.7006   23.1752 C   0  0  0  0  0  0  0  0  0  0  0  0
    7.8813  -14.8594   24.2658 C   0  0  2  0  0  0  0  0  0  0  0  0
    8.3343  -15.4216   25.5728 N   0  0  0  0  0  0  0  0  0  0  0  0
    8.7883  -15.2954   23.2116 C   0  0  0  0  0  0  0  0  0  0  0  0
   10.0429  -15.0058   23.3447 O   0  0  0  0  0  0  0  0  0  0  0  0
    8.2690  -19.4933   22.1587 N   0  0  0  0  0  0  0  0  0  0  0  0
    9.4210  -18.8349   21.5842 C   0  0  0  0  0  0  0  0  0  0  0  0
   10.5329  -19.2032   22.0155 O   0  0  0  0  0  0  0  0  0  0  0  0
    9.2134  -17.8078   20.5630 C   0  0  0  0  0  0  0  0  0  0  0  0
    9.5551  -16.4448   21.0983 C   0  0  2  0  0  0  0  0  0  0  0  0
    8.5123  -16.0055   22.0403 N   0  0  0  0  0  0  0  0  0  0  0  0
    9.5198  -15.4651   20.0082 C   0  0  0  0  0  0  0  0  0  0  0  0
    8.4655  -15.1669   19.4254 O   0  0  0  0  0  0  0  0  0  0  0  0
   10.6689  -14.8348   19.5890 O   0  0  0  0  0  0  0  0  0  0  0  0
  2  1  1  0
  3  2  2  0
  4  3  1  0
  5  4  2  0
  5 11  1  0
  6  5  1  0
  7  6  1  0
  7  9  1  0
  7  8  1  6
  9 10  2  0
 11 12  2  0
 12  2  1  0
 13 14  1  0
 15 14  1  0
 15 17  1  0
 15 16  1  6
 17 18  1  1
 18  9  1  0
 19 17  1  0
 19 20  2  0
 21 22  1  0
 22 24  1  0
 23 22  2  0
 25 24  1  6
 25 26  1  0
 25 27  1  0
 26 19  1  0
 27 29  1  0
 28 27  2  0
M  END
$$$$
