YIN.pdb
     RDKit          3D

 29 29  0  0  1  0  0  0  0  0999 V2000
    4.6728  -19.3117   17.1686 O   0  0  0  0  0  0  0  0  0  0  0  0
    5.3473  -18.7357   18.2434 C   0  0  0  0  0  0  0  0  0  0  0  0
    6.7157  -18.5849   18.1371 C   0  0  0  0  0  0  0  0  0  0  0  0
    7.4070  -18.0130   19.1978 C   0  0  0  0  0  0  0  0  0  0  0  0
    6.7451  -17.6076   20.3239 C   0  0  0  0  0  0  0  0  0  0  0  0
    7.5119  -16.9991   21.4411 C   0  0  0  0  0  0  0  0  0  0  0  0
    7.5132  -15.5012   21.3319 C   0  0  2  0  0  0  0  0  0  0  0  0
    8.0482  -15.0158   20.0925 N   0  0  0  0  0  0  0  0  0  0  0  0
    8.2138  -14.9525   22.5226 C   0  0  0  0  0  0  0  0  0  0  0  0
    9.4469  -14.7848   22.4720 O   0  0  0  0  0  0  0  0  0  0  0  0
    5.3804  -17.7652   20.4131 C   0  0  0  0  0  0  0  0  0  0  0  0
    4.6691  -18.3335   19.3673 C   0  0  0  0  0  0  0  0  0  0  0  0
    6.1449  -11.3597   25.7157 C   0  0  0  0  0  0  0  0  0  0  0  0
    7.1626  -12.2296   25.0660 C   0  0  0  0  0  0  0  0  0  0  0  0
    7.4185  -13.5376   25.8438 C   0  0  2  0  0  0  0  0  0  0  0  0
    8.0998  -13.1996   27.1504 C   0  0  0  0  0  0  0  0  0  0  0  0
    8.2303  -14.4709   25.0161 C   0  0  2  0  0  0  0  0  0  0  0  0
    7.5328  -14.6164   23.7040 N   0  0  0  0  0  0  0  0  0  0  0  0
    8.5099  -15.7921   25.5641 C   0  0  0  0  0  0  0  0  0  0  0  0
    7.8340  -16.7903   25.0923 O   0  0  0  0  0  0  0  0  0  0  0  0
   11.8588  -19.3773   24.6103 N   0  0  0  0  0  0  0  0  0  0  0  0
   12.2751  -18.0693   25.0647 C   0  0  0  0  0  0  0  0  0  0  0  0
   13.4919  -17.9370   25.3091 O   0  0  0  0  0  0  0  0  0  0  0  0
   11.2698  -17.0154   25.2047 C   0  0  0  0  0  0  0  0  0  0  0  0
   10.3761  -17.2820   26.3842 C   0  0  2  0  0  0  0  0  0  0  0  0
    9.4264  -16.1691   26.5492 N   0  0  0  0  0  0  0  0  0  0  0  0
   11.1733  -17.2870   27.6144 C   0  0  0  0  0  0  0  0  0  0  0  0
   11.4652  -16.2400   28.2136 O   0  0  0  0  0  0  0  0  0  0  0  0
   11.6308  -18.4674   28.1536 O   0  0  0  0  0  0  0  0  0  0  0  0
  2  1  1  0
  3  2  2  0
  4  3  1  0
  5  4  2  0
  5 11  1  0
  6  5  1  0
  7  6  1  0
  7  9  1  0
  7  8  1  6
  9 10  2  0
 11 12  2  0
 12  2  1  0
 13 14  1  0
 15 14  1  0
 15 17  1  0
 15 16  1  1
 17 18  1  6
 18  9  1  0
 19 17  1  0
 19 20  2  0
 21 22  1  0
 22 24  1  0
 23 22  2  0
 25 24  1  6
 25 26  1  0
 25 27  1  0
 26 19  1  0
 27 29  1  0
 28 27  2  0
M  END
$$$$
