YIN.pdb
     RDKit          3D

 29 29  0  0  1  0  0  0  0  0999 V2000
    5.8039  -19.4636   16.8922 O   0  0  0  0  0  0  0  0  0  0  0  0
    6.3431  -18.9249   18.0588 C   0  0  0  0  0  0  0  0  0  0  0  0
    7.6109  -19.3293   18.4272 C   0  0  0  0  0  0  0  0  0  0  0  0
    8.1665  -18.8041   19.5872 C   0  0  0  0  0  0  0  0  0  0  0  0
    7.4716  -17.9050   20.3481 C   0  0  0  0  0  0  0  0  0  0  0  0
    8.0926  -17.3609   21.5829 C   0  0  0  0  0  0  0  0  0  0  0  0
    8.0823  -15.8591   21.5666 C   0  0  2  0  0  0  0  0  0  0  0  0
    8.7026  -15.2928   20.4036 N   0  0  0  0  0  0  0  0  0  0  0  0
    8.6840  -15.3798   22.8385 C   0  0  0  0  0  0  0  0  0  0  0  0
    9.9159  -15.2054   22.8942 O   0  0  0  0  0  0  0  0  0  0  0  0
    6.2086  -17.5124   19.9660 C   0  0  0  0  0  0  0  0  0  0  0  0
    5.6333  -18.0231   18.8124 C   0  0  0  0  0  0  0  0  0  0  0  0
    6.0305  -11.9216   25.9087 C   0  0  0  0  0  0  0  0  0  0  0  0
    7.1693  -12.6629   25.3020 C   0  0  0  0  0  0  0  0  0  0  0  0
    7.4988  -13.9724   26.0491 C   0  0  2  0  0  0  0  0  0  0  0  0
    7.9664  -13.6299   27.4454 C   0  0  0  0  0  0  0  0  0  0  0  0
    8.5207  -14.7461   25.2924 C   0  0  2  0  0  0  0  0  0  0  0  0
    7.9107  -15.1165   23.9809 N   0  0  0  0  0  0  0  0  0  0  0  0
    9.0701  -15.9391   25.9242 C   0  0  0  0  0  0  0  0  0  0  0  0
    8.2812  -16.9548   26.0714 O   0  0  0  0  0  0  0  0  0  0  0  0
   11.8676  -19.9361   27.5008 N   0  0  0  0  0  0  0  0  0  0  0  0
   12.7834  -18.9520   26.9683 C   0  0  0  0  0  0  0  0  0  0  0  0
   13.9955  -19.2436   27.0294 O   0  0  0  0  0  0  0  0  0  0  0  0
   12.2439  -17.7126   26.4084 C   0  0  0  0  0  0  0  0  0  0  0  0
   10.8252  -17.4959   26.8575 C   0  0  2  0  0  0  0  0  0  0  0  0
   10.3593  -16.1730   26.4098 N   0  0  0  0  0  0  0  0  0  0  0  0
   10.7755  -17.4410   28.3216 C   0  0  0  0  0  0  0  0  0  0  0  0
   10.7468  -16.3648   28.9392 O   0  0  0  0  0  0  0  0  0  0  0  0
   10.7587  -18.5953   29.0705 O   0  0  0  0  0  0  0  0  0  0  0  0
  2  1  1  0
  3  2  2  0
  4  3  1  0
  5  4  2  0
  5 11  1  0
  6  5  1  0
  7  6  1  0
  7  9  1  0
  7  8  1  6
  9 10  2  0
 11 12  2  0
 12  2  1  0
 13 14  1  0
 15 14  1  0
 15 17  1  0
 15 16  1  1
 17 18  1  6
 18  9  1  0
 19 17  1  0
 19 20  2  0
 21 22  1  0
 22 24  1  0
 23 22  2  0
 25 24  1  1
 25 26  1  0
 25 27  1  0
 26 19  1  0
 27 29  1  0
 28 27  2  0
M  END
$$$$
