YIN.pdb
     RDKit          3D

 29 29  0  0  1  0  0  0  0  0999 V2000
   12.3712  -17.0536   32.7461 O   0  0  0  0  0  0  0  0  0  0  0  0
   11.9239  -16.9964   31.4276 C   0  0  0  0  0  0  0  0  0  0  0  0
   11.3198  -15.8293   31.0040 C   0  0  0  0  0  0  0  0  0  0  0  0
   10.8665  -15.7521   29.6929 C   0  0  0  0  0  0  0  0  0  0  0  0
   11.0162  -16.8105   28.8399 C   0  0  0  0  0  0  0  0  0  0  0  0
   10.5217  -16.6974   27.4438 C   0  0  0  0  0  0  0  0  0  0  0  0
    9.0461  -16.9692   27.3782 C   0  0  2  0  0  0  0  0  0  0  0  0
    8.6995  -18.3317   27.6639 N   0  0  0  0  0  0  0  0  0  0  0  0
    8.5505  -16.5082   26.0548 C   0  0  0  0  0  0  0  0  0  0  0  0
    8.2382  -17.3575   25.1990 O   0  0  0  0  0  0  0  0  0  0  0  0
   11.6211  -17.9667   29.2788 C   0  0  0  0  0  0  0  0  0  0  0  0
   12.0812  -18.0672   30.5829 C   0  0  0  0  0  0  0  0  0  0  0  0
    6.2098  -11.9024   26.2240 C   0  0  0  0  0  0  0  0  0  0  0  0
    6.3378  -13.2255   25.5551 C   0  0  0  0  0  0  0  0  0  0  0  0
    7.5036  -13.2770   24.5452 C   0  0  2  0  0  0  0  0  0  0  0  0
    7.0360  -12.6871   23.2341 C   0  0  0  0  0  0  0  0  0  0  0  0
    7.9791  -14.6786   24.3886 C   0  0  2  0  0  0  0  0  0  0  0  0
    8.4222  -15.1466   25.7355 N   0  0  0  0  0  0  0  0  0  0  0  0
    9.0368  -14.9293   23.4177 C   0  0  0  0  0  0  0  0  0  0  0  0
   10.2178  -14.4742   23.6893 O   0  0  0  0  0  0  0  0  0  0  0  0
   13.3499  -17.2898   21.9069 N   0  0  0  0  0  0  0  0  0  0  0  0
   11.9981  -17.7312   21.6454 C   0  0  0  0  0  0  0  0  0  0  0  0
   11.8735  -18.6383   20.7971 O   0  0  0  0  0  0  0  0  0  0  0  0
   10.8949  -17.1025   22.3724 C   0  0  0  0  0  0  0  0  0  0  0  0
   10.1742  -16.1129   21.4992 C   0  0  2  0  0  0  0  0  0  0  0  0
    8.9802  -15.6106   22.1990 N   0  0  0  0  0  0  0  0  0  0  0  0
    9.6583  -16.7928   20.3072 C   0  0  0  0  0  0  0  0  0  0  0  0
    8.6242  -17.4784   20.3366 O   0  0  0  0  0  0  0  0  0  0  0  0
   10.3111  -16.6925   19.1001 O   0  0  0  0  0  0  0  0  0  0  0  0
  2  1  1  0
  3  2  2  0
  4  3  1  0
  5  4  2  0
  5 11  1  0
  6  5  1  0
  7  6  1  0
  7  9  1  0
  7  8  1  6
  9 10  2  0
 11 12  2  0
 12  2  1  0
 13 14  1  0
 15 14  1  0
 15 17  1  0
 15 16  1  6
 17 18  1  1
 18  9  1  0
 19 17  1  0
 19 20  2  0
 21 22  1  0
 22 24  1  0
 23 22  2  0
 25 24  1  1
 25 26  1  0
 25 27  1  0
 26 19  1  0
 27 29  1  0
 28 27  2  0
M  END
$$$$
