GNA.pdb
     RDKit          3D

 18 17  0  0  1  0  0  0  0  0999 V2000
    8.9230  -17.4390   16.3736 N   0  0  0  0  0  0  0  0  0  0  0  0
    9.0743  -17.9229   17.7198 C   0  0  0  0  0  0  0  0  0  0  0  0
    9.6109  -16.8382   18.6147 C   0  0  0  0  0  0  0  0  0  0  0  0
   10.8367  -16.5904   18.6614 O   0  0  0  0  0  0  0  0  0  0  0  0
    8.7389  -12.9521   18.3113 N   0  0  0  0  0  0  0  0  0  0  0  0
    8.0239  -13.0341   19.5215 C   0  0  0  0  0  0  0  0  0  0  0  0
    7.0824  -12.1873   19.7046 O   0  0  0  0  0  0  0  0  0  0  0  0
    8.2327  -13.9900   20.6113 C   0  0  0  0  0  0  0  0  0  0  0  0
    9.2748  -15.0346   20.3625 C   0  0  2  0  0  0  0  0  0  0  0  0
    8.7506  -16.0613   19.4335 N   0  0  0  0  0  0  0  0  0  0  0  0
    9.6315  -15.8152   21.5847 C   0  0  0  0  0  0  0  0  0  0  0  0
    8.7628  -16.5597   22.0847 O   0  0  0  0  0  0  0  0  0  0  0  0
   11.2066  -18.0607   22.9881 C   0  0  0  0  0  0  0  0  0  0  0  0
   11.2995  -16.5850   23.3310 C   0  0  2  0  0  0  0  0  0  0  0  0
   10.9011  -15.7609   22.2124 N   0  0  0  0  0  0  0  0  0  0  0  0
   12.7104  -16.2878   23.7293 C   0  0  0  0  0  0  0  0  0  0  0  0
   13.2619  -16.8213   24.8726 O   0  0  0  0  0  0  0  0  0  0  0  0
   13.4491  -15.5381   23.0344 O   0  0  0  0  0  0  0  0  0  0  0  0
  2  1  1  0
  3  2  1  0
  4  3  2  0
  5  6  1  0
  6  8  1  0
  6  7  2  0
  9  8  1  1
  9 10  1  0
 10  3  1  0
 11  9  1  0
 11 12  2  0
 14 13  1  6
 14 15  1  0
 15 11  1  0
 16 14  1  0
 17 16  1  0
 18 16  2  0
M  END
$$$$
