GNA.pdb
     RDKit          3D

 18 17  0  0  1  0  0  0  0  0999 V2000
   10.5348  -18.0939   16.2909 N   0  0  0  0  0  0  0  0  0  0  0  0
    9.5819  -17.7246   17.3032 C   0  0  0  0  0  0  0  0  0  0  0  0
    9.8803  -16.3479   17.8335 C   0  0  0  0  0  0  0  0  0  0  0  0
   10.9941  -15.8111   17.6396 O   0  0  0  0  0  0  0  0  0  0  0  0
    8.2033  -13.2095   16.3693 N   0  0  0  0  0  0  0  0  0  0  0  0
    7.4694  -13.0602   17.5616 C   0  0  0  0  0  0  0  0  0  0  0  0
    6.2991  -12.5512   17.4697 O   0  0  0  0  0  0  0  0  0  0  0  0
    7.8933  -13.4258   18.9151 C   0  0  0  0  0  0  0  0  0  0  0  0
    9.1593  -14.2186   19.0026 C   0  0  2  0  0  0  0  0  0  0  0  0
    8.9144  -15.6128   18.5689 N   0  0  0  0  0  0  0  0  0  0  0  0
    9.6663  -14.3685   20.3992 C   0  0  0  0  0  0  0  0  0  0  0  0
   10.3197  -13.4270   20.8949 O   0  0  0  0  0  0  0  0  0  0  0  0
    8.8910  -16.2517   23.4639 C   0  0  0  0  0  0  0  0  0  0  0  0
    9.9581  -15.6952   22.5391 C   0  0  2  0  0  0  0  0  0  0  0  0
    9.4493  -15.5192   21.1977 N   0  0  0  0  0  0  0  0  0  0  0  0
   11.1173  -16.6407   22.5441 C   0  0  0  0  0  0  0  0  0  0  0  0
   11.8635  -16.8569   23.6809 O   0  0  0  0  0  0  0  0  0  0  0  0
   11.4561  -17.2759   21.5086 O   0  0  0  0  0  0  0  0  0  0  0  0
  2  1  1  0
  3  2  1  0
  4  3  2  0
  5  6  1  0
  6  8  1  0
  6  7  2  0
  9  8  1  1
  9 10  1  0
 10  3  1  0
 11  9  1  0
 11 12  2  0
 14 13  1  1
 14 15  1  0
 15 11  1  0
 16 14  1  0
 17 16  1  0
 18 16  2  0
M  END
$$$$
