GNA.pdb
     RDKit          3D

 18 17  0  0  1  0  0  0  0  0999 V2000
    9.1315  -14.3953   14.2146 N   0  0  0  0  0  0  0  0  0  0  0  0
    8.0888  -14.3566   15.2048 C   0  0  0  0  0  0  0  0  0  0  0  0
    8.6757  -14.2656   16.5878 C   0  0  0  0  0  0  0  0  0  0  0  0
    9.9112  -14.3479   16.7692 O   0  0  0  0  0  0  0  0  0  0  0  0
    8.9824  -13.9302   22.0127 N   0  0  0  0  0  0  0  0  0  0  0  0
    7.8013  -13.4113   21.4486 C   0  0  0  0  0  0  0  0  0  0  0  0
    6.9674  -12.8549   22.2435 O   0  0  0  0  0  0  0  0  0  0  0  0
    7.4095  -13.4323   20.0375 C   0  0  0  0  0  0  0  0  0  0  0  0
    8.4206  -14.0062   19.0955 C   0  0  2  0  0  0  0  0  0  0  0  0
    7.8533  -14.0842   17.7302 N   0  0  0  0  0  0  0  0  0  0  0  0
    8.7818  -15.4211   19.4079 C   0  0  0  0  0  0  0  0  0  0  0  0
    8.2267  -16.3302   18.7564 O   0  0  0  0  0  0  0  0  0  0  0  0
   10.8319  -17.6934   19.3346 C   0  0  0  0  0  0  0  0  0  0  0  0
   10.2117  -17.1385   20.6039 C   0  0  2  0  0  0  0  0  0  0  0  0
    9.7198  -15.7943   20.4027 N   0  0  0  0  0  0  0  0  0  0  0  0
   11.2509  -17.1646   21.6796 C   0  0  0  0  0  0  0  0  0  0  0  0
   11.8445  -18.3418   22.0769 O   0  0  0  0  0  0  0  0  0  0  0  0
   11.6235  -16.1109   22.2639 O   0  0  0  0  0  0  0  0  0  0  0  0
  2  1  1  0
  3  2  1  0
  4  3  2  0
  5  6  1  0
  6  8  1  0
  6  7  2  0
  9  8  1  1
  9 10  1  0
 10  3  1  0
 11  9  1  0
 11 12  2  0
 14 13  1  6
 14 15  1  0
 15 11  1  0
 16 14  1  0
 17 16  1  0
 18 16  2  0
M  END
$$$$
