GNA.pdb
     RDKit          3D

 18 17  0  0  1  0  0  0  0  0999 V2000
    9.6038  -15.6575   15.9077 N   0  0  0  0  0  0  0  0  0  0  0  0
   10.0064  -14.7313   16.9319 C   0  0  0  0  0  0  0  0  0  0  0  0
   11.1083  -15.3183   17.7726 C   0  0  0  0  0  0  0  0  0  0  0  0
   11.2706  -16.5569   17.8470 O   0  0  0  0  0  0  0  0  0  0  0  0
   15.0122  -15.7783   17.1946 N   0  0  0  0  0  0  0  0  0  0  0  0
   15.1225  -14.6203   17.9880 C   0  0  0  0  0  0  0  0  0  0  0  0
   16.0040  -13.7580   17.6470 O   0  0  0  0  0  0  0  0  0  0  0  0
   14.3341  -14.2805   19.1746 C   0  0  0  0  0  0  0  0  0  0  0  0
   13.0705  -15.0614   19.3551 C   0  0  2  0  0  0  0  0  0  0  0  0
   11.9984  -14.4924   18.5073 N   0  0  0  0  0  0  0  0  0  0  0  0
   12.5123  -14.9695   20.7372 C   0  0  0  0  0  0  0  0  0  0  0  0
   11.9306  -13.9163   21.0706 O   0  0  0  0  0  0  0  0  0  0  0  0
   10.3425  -16.0871   22.6251 C   0  0  0  0  0  0  0  0  0  0  0  0
   11.8321  -16.0716   22.9159 C   0  0  2  0  0  0  0  0  0  0  0  0
   12.6040  -16.0098   21.6954 N   0  0  0  0  0  0  0  0  0  0  0  0
   12.1678  -17.3066   23.6905 C   0  0  0  0  0  0  0  0  0  0  0  0
   12.9537  -18.3010   23.1525 O   0  0  0  0  0  0  0  0  0  0  0  0
   11.7447  -17.4851   24.8651 O   0  0  0  0  0  0  0  0  0  0  0  0
  2  1  1  0
  3  2  1  0
  4  3  2  0
  5  6  1  0
  6  8  1  0
  6  7  2  0
  9  8  1  1
  9 10  1  0
 10  3  1  0
 11  9  1  0
 11 12  2  0
 14 13  1  6
 14 15  1  0
 15 11  1  0
 16 14  1  0
 17 16  1  0
 18 16  2  0
M  END
$$$$
