GNA.pdb
     RDKit          3D

 18 17  0  0  1  0  0  0  0  0999 V2000
    8.8498  -16.2951   14.0101 N   0  0  0  0  0  0  0  0  0  0  0  0
    7.9590  -16.2562   15.1389 C   0  0  0  0  0  0  0  0  0  0  0  0
    8.6142  -15.5681   16.3063 C   0  0  0  0  0  0  0  0  0  0  0  0
    9.8483  -15.3610   16.3213 O   0  0  0  0  0  0  0  0  0  0  0  0
    8.2495  -11.4716   20.5844 N   0  0  0  0  0  0  0  0  0  0  0  0
    7.9802  -12.8455   20.4345 C   0  0  0  0  0  0  0  0  0  0  0  0
    8.1653  -13.5938   21.4557 O   0  0  0  0  0  0  0  0  0  0  0  0
    7.5046  -13.5293   19.2298 C   0  0  0  0  0  0  0  0  0  0  0  0
    8.4932  -14.4398   18.5719 C   0  0  2  0  0  0  0  0  0  0  0  0
    7.8598  -15.1316   17.4264 N   0  0  0  0  0  0  0  0  0  0  0  0
    8.9429  -15.5583   19.4534 C   0  0  0  0  0  0  0  0  0  0  0  0
    8.3993  -16.6739   19.3162 O   0  0  0  0  0  0  0  0  0  0  0  0
   11.4085  -17.3490   20.0194 C   0  0  0  0  0  0  0  0  0  0  0  0
   10.6489  -16.5367   21.0523 C   0  0  2  0  0  0  0  0  0  0  0  0
    9.9530  -15.4282   20.4391 N   0  0  0  0  0  0  0  0  0  0  0  0
   11.6286  -16.0462   22.0709 C   0  0  0  0  0  0  0  0  0  0  0  0
   11.4228  -16.2413   23.4183 O   0  0  0  0  0  0  0  0  0  0  0  0
   12.6800  -15.4357   21.7358 O   0  0  0  0  0  0  0  0  0  0  0  0
  2  1  1  0
  3  2  1  0
  4  3  2  0
  5  6  1  0
  6  8  1  0
  6  7  2  0
  9  8  1  1
  9 10  1  0
 10  3  1  0
 11  9  1  0
 11 12  2  0
 14 13  1  6
 14 15  1  0
 15 11  1  0
 16 14  1  0
 17 16  1  0
 18 16  2  0
M  END
$$$$
