GNA.pdb
     RDKit          3D

 18 17  0  0  1  0  0  0  0  0999 V2000
   -0.9048  -26.2487   33.3051 N   0  0  0  0  0  0  0  0  0  0  0  0
   -2.1349  -26.9567   33.5392 C   0  0  0  0  0  0  0  0  0  0  0  0
   -3.2660  -25.9906   33.7687 C   0  0  0  0  0  0  0  0  0  0  0  0
   -4.3763  -26.3877   34.1878 O   0  0  0  0  0  0  0  0  0  0  0  0
   -2.7172  -22.7401   36.9816 N   0  0  0  0  0  0  0  0  0  0  0  0
   -3.7892  -22.7472   36.0687 C   0  0  0  0  0  0  0  0  0  0  0  0
   -4.9568  -22.9792   36.5376 O   0  0  0  0  0  0  0  0  0  0  0  0
   -3.7246  -22.5151   34.6240 C   0  0  0  0  0  0  0  0  0  0  0  0
   -4.2133  -23.6405   33.7673 C   0  0  2  0  0  0  0  0  0  0  0  0
   -3.1149  -24.6017   33.5194 N   0  0  0  0  0  0  0  0  0  0  0  0
   -4.6170  -23.2064   32.3966 C   0  0  0  0  0  0  0  0  0  0  0  0
   -3.7208  -22.8663   31.5966 O   0  0  0  0  0  0  0  0  0  0  0  0
   -6.8922  -23.7607   29.7688 C   0  0  0  0  0  0  0  0  0  0  0  0
   -6.3793  -22.6467   30.6630 C   0  0  2  0  0  0  0  0  0  0  0  0
   -5.9609  -23.1574   31.9488 N   0  0  0  0  0  0  0  0  0  0  0  0
   -7.4735  -21.6397   30.8259 C   0  0  0  0  0  0  0  0  0  0  0  0
   -7.5671  -20.5406   30.0017 O   0  0  0  0  0  0  0  0  0  0  0  0
   -8.3518  -21.7577   31.7232 O   0  0  0  0  0  0  0  0  0  0  0  0
  2  1  1  0
  3  2  1  0
  4  3  2  0
  5  6  1  0
  6  8  1  0
  6  7  2  0
  9  8  1  1
  9 10  1  0
 10  3  1  0
 11  9  1  0
 11 12  2  0
 14 13  1  6
 14 15  1  0
 15 11  1  0
 16 14  1  0
 17 16  1  0
 18 16  2  0
M  END
$$$$
