KSF.pdb
     RDKit          3D

 27 27  0  0  1  0  0  0  0  0999 V2000
    9.2301  -19.1427   19.6510 N   0  0  0  0  0  0  0  0  0  0  0  0
   10.0948  -18.0340   19.4563 C   0  0  1  0  0  0  0  0  0  0  0  0
   10.3573  -17.7327   18.0338 C   0  0  0  0  0  0  0  0  0  0  0  0
   11.6169  -18.3579   17.5349 C   0  0  0  0  0  0  0  0  0  0  0  0
   11.5558  -19.1267   16.2721 C   0  0  0  0  0  0  0  0  0  0  0  0
   11.4638  -18.1937   15.0539 C   0  0  0  0  0  0  0  0  0  0  0  0
   11.4753  -18.9667   13.8278 N   0  0  0  0  0  0  0  0  0  0  0  0
    9.6940  -16.8354   20.2448 C   0  0  0  0  0  0  0  0  0  0  0  0
   10.4921  -15.8737   20.2812 O   0  0  0  0  0  0  0  0  0  0  0  0
    5.8043  -16.0868   21.7292 O   0  0  0  0  0  0  0  0  0  0  0  0
    6.7518  -15.0649   21.5165 C   0  0  0  0  0  0  0  0  0  0  0  0
    8.1540  -15.5681   21.7191 C   0  0  2  0  0  0  0  0  0  0  0  0
    8.4870  -16.7133   20.9461 N   0  0  0  0  0  0  0  0  0  0  0  0
    8.3115  -15.8110   23.1927 C   0  0  0  0  0  0  0  0  0  0  0  0
    7.6477  -16.7004   23.7958 O   0  0  0  0  0  0  0  0  0  0  0  0
    9.2150  -15.0525   23.9811 N   0  0  0  0  0  0  0  0  0  0  0  0
    9.3612  -15.2085   25.4205 C   0  0  1  0  0  0  0  0  0  0  0  0
    7.9708  -14.9655   25.9933 C   0  0  0  0  0  0  0  0  0  0  0  0
    7.6267  -13.5536   26.1409 C   0  0  0  0  0  0  0  0  0  0  0  0
    6.3357  -13.1297   26.3633 C   0  0  0  0  0  0  0  0  0  0  0  0
    6.0357  -11.7724   26.5064 C   0  0  0  0  0  0  0  0  0  0  0  0
    7.0224  -10.8346   26.4280 C   0  0  0  0  0  0  0  0  0  0  0  0
    8.3250  -11.2538   26.2043 C   0  0  0  0  0  0  0  0  0  0  0  0
    8.6140  -12.5953   26.0641 C   0  0  0  0  0  0  0  0  0  0  0  0
    9.8792  -16.5317   25.7862 C   0  0  0  0  0  0  0  0  0  0  0  0
   10.1416  -16.8397   27.1071 O   0  0  0  0  0  0  0  0  0  0  0  0
   10.0915  -17.4003   24.9138 O   0  0  0  0  0  0  0  0  0  0  0  0
  2  1  1  6
  3  4  1  0
  3  2  1  0
  4  5  1  0
  5  6  1  0
  7  6  1  0
  8  9  2  0
  8  2  1  0
 10 11  1  0
 12 11  1  1
 12 13  1  0
 12 14  1  0
 13  8  1  0
 14 16  1  0
 15 14  2  0
 16 17  1  0
 17 25  1  0
 17 18  1  1
 19 18  1  0
 20 19  2  0
 21 20  1  0
 22 21  2  0
 22 23  1  0
 23 24  2  0
 24 19  1  0
 25 27  2  0
 25 26  1  0
M  END
$$$$
