KSF.pdb
     RDKit          3D

 27 27  0  0  1  0  0  0  0  0999 V2000
    9.1503  -15.4564   19.2579 N   0  0  0  0  0  0  0  0  0  0  0  0
    8.6040  -14.5234   20.1777 C   0  0  1  0  0  0  0  0  0  0  0  0
    7.4898  -13.7287   19.6208 C   0  0  0  0  0  0  0  0  0  0  0  0
    7.2031  -14.0585   18.1941 C   0  0  0  0  0  0  0  0  0  0  0  0
    7.9454  -13.3189   17.1494 C   0  0  0  0  0  0  0  0  0  0  0  0
    7.4952  -13.7389   15.7409 C   0  0  0  0  0  0  0  0  0  0  0  0
    8.3469  -13.1290   14.7391 N   0  0  0  0  0  0  0  0  0  0  0  0
    8.2888  -15.1261   21.5029 C   0  0  0  0  0  0  0  0  0  0  0  0
    7.6113  -14.4438   22.3021 O   0  0  0  0  0  0  0  0  0  0  0  0
   10.0186  -18.6960   22.9713 O   0  0  0  0  0  0  0  0  0  0  0  0
    8.6893  -18.4059   23.3402 C   0  0  0  0  0  0  0  0  0  0  0  0
    8.3873  -16.9407   23.1907 C   0  0  2  0  0  0  0  0  0  0  0  0
    8.6988  -16.4017   21.9130 N   0  0  0  0  0  0  0  0  0  0  0  0
    9.1198  -16.2388   24.2981 C   0  0  0  0  0  0  0  0  0  0  0  0
   10.1850  -15.5934   24.0877 O   0  0  0  0  0  0  0  0  0  0  0  0
    8.6508  -16.2661   25.6369 N   0  0  0  0  0  0  0  0  0  0  0  0
    9.3902  -15.7198   26.7650 C   0  0  1  0  0  0  0  0  0  0  0  0
    8.3508  -15.0008   27.6152 C   0  0  0  0  0  0  0  0  0  0  0  0
    7.7501  -13.8393   26.9643 C   0  0  0  0  0  0  0  0  0  0  0  0
    6.4529  -13.8428   26.5027 C   0  0  0  0  0  0  0  0  0  0  0  0
    5.9017  -12.7151   25.8885 C   0  0  0  0  0  0  0  0  0  0  0  0
    6.6429  -11.5811   25.7332 C   0  0  0  0  0  0  0  0  0  0  0  0
    7.9501  -11.5700   26.1956 C   0  0  0  0  0  0  0  0  0  0  0  0
    8.4876  -12.6867   26.8009 C   0  0  0  0  0  0  0  0  0  0  0  0
   10.0929  -16.7599   27.5248 C   0  0  0  0  0  0  0  0  0  0  0  0
    9.9876  -18.0872   27.1564 O   0  0  0  0  0  0  0  0  0  0  0  0
   10.7963  -16.4657   28.5145 O   0  0  0  0  0  0  0  0  0  0  0  0
  2  1  1  6
  3  4  1  0
  3  2  1  0
  4  5  1  0
  5  6  1  0
  7  6  1  0
  8  9  2  0
  8  2  1  0
 10 11  1  0
 12 11  1  6
 12 13  1  0
 12 14  1  0
 13  8  1  0
 14 16  1  0
 15 14  2  0
 16 17  1  0
 17 25  1  0
 17 18  1  1
 19 18  1  0
 20 19  2  0
 21 20  1  0
 22 21  2  0
 22 23  1  0
 23 24  2  0
 24 19  1  0
 25 27  2  0
 25 26  1  0
M  END
$$$$
