KSF.pdb
     RDKit          3D

 27 27  0  0  1  0  0  0  0  0999 V2000
   11.4850  -16.9243   18.7558 N   0  0  0  0  0  0  0  0  0  0  0  0
   10.7146  -17.7869   19.5787 C   0  0  1  0  0  0  0  0  0  0  0  0
   11.2125  -19.1778   19.6050 C   0  0  0  0  0  0  0  0  0  0  0  0
   12.6912  -19.2575   19.7873 C   0  0  0  0  0  0  0  0  0  0  0  0
   13.3212  -20.5961   19.7622 C   0  0  0  0  0  0  0  0  0  0  0  0
   14.8377  -20.5044   19.9960 C   0  0  0  0  0  0  0  0  0  0  0  0
   15.4165  -21.8317   20.0618 N   0  0  0  0  0  0  0  0  0  0  0  0
   10.4642  -17.2285   20.9368 C   0  0  0  0  0  0  0  0  0  0  0  0
   11.1076  -16.2098   21.2710 O   0  0  0  0  0  0  0  0  0  0  0  0
    8.0465  -19.0593   23.9350 O   0  0  0  0  0  0  0  0  0  0  0  0
    8.0505  -17.6558   23.8025 C   0  0  0  0  0  0  0  0  0  0  0  0
    9.3050  -17.1735   23.1288 C   0  0  2  0  0  0  0  0  0  0  0  0
    9.5593  -17.7658   21.8620 N   0  0  0  0  0  0  0  0  0  0  0  0
   10.4269  -17.4043   24.1001 C   0  0  0  0  0  0  0  0  0  0  0  0
   11.2693  -18.3313   23.9367 O   0  0  0  0  0  0  0  0  0  0  0  0
   10.5963  -16.5914   25.2507 N   0  0  0  0  0  0  0  0  0  0  0  0
   11.6461  -16.7942   26.2377 C   0  0  1  0  0  0  0  0  0  0  0  0
   11.9593  -15.4059   26.7807 C   0  0  0  0  0  0  0  0  0  0  0  0
   10.8412  -14.7726   27.4753 C   0  0  0  0  0  0  0  0  0  0  0  0
   10.7665  -14.7124   28.8488 C   0  0  0  0  0  0  0  0  0  0  0  0
    9.6874  -14.0952   29.4871 C   0  0  0  0  0  0  0  0  0  0  0  0
    8.6803  -13.5366   28.7572 C   0  0  0  0  0  0  0  0  0  0  0  0
    8.7486  -13.5932   27.3734 C   0  0  0  0  0  0  0  0  0  0  0  0
    9.8167  -14.2040   26.7500 C   0  0  0  0  0  0  0  0  0  0  0  0
   11.2372  -17.7178   27.3020 C   0  0  0  0  0  0  0  0  0  0  0  0
    9.9497  -18.2171   27.3385 O   0  0  0  0  0  0  0  0  0  0  0  0
   12.0423  -18.0680   28.1908 O   0  0  0  0  0  0  0  0  0  0  0  0
  2  1  1  1
  3  4  1  0
  3  2  1  0
  4  5  1  0
  5  6  1  0
  7  6  1  0
  8  9  2  0
  8  2  1  0
 10 11  1  0
 12 11  1  1
 12 13  1  0
 12 14  1  0
 13  8  1  0
 14 16  1  0
 15 14  2  0
 16 17  1  0
 17 25  1  0
 17 18  1  1
 19 18  1  0
 20 19  2  0
 21 20  1  0
 22 21  2  0
 22 23  1  0
 23 24  2  0
 24 19  1  0
 25 27  2  0
 25 26  1  0
M  END
$$$$
