KSF.pdb
     RDKit          3D

 27 27  0  0  1  0  0  0  0  0999 V2000
   10.5246  -13.6711   18.9007 N   0  0  0  0  0  0  0  0  0  0  0  0
    9.2449  -13.4077   19.4558 C   0  0  1  0  0  0  0  0  0  0  0  0
    8.2054  -13.1386   18.4409 C   0  0  0  0  0  0  0  0  0  0  0  0
    8.0124  -14.2780   17.4970 C   0  0  0  0  0  0  0  0  0  0  0  0
    8.1531  -14.0094   16.0488 C   0  0  0  0  0  0  0  0  0  0  0  0
    7.9416  -15.2870   15.2205 C   0  0  0  0  0  0  0  0  0  0  0  0
    8.1659  -15.0162   13.8143 N   0  0  0  0  0  0  0  0  0  0  0  0
    8.8281  -14.4181   20.4677 C   0  0  0  0  0  0  0  0  0  0  0  0
    7.7292  -14.2458   21.0387 O   0  0  0  0  0  0  0  0  0  0  0  0
   11.2678  -17.6240   21.8080 O   0  0  0  0  0  0  0  0  0  0  0  0
    9.8739  -17.8162   21.7223 C   0  0  0  0  0  0  0  0  0  0  0  0
    9.1371  -16.5065   21.7696 C   0  0  2  0  0  0  0  0  0  0  0  0
    9.5818  -15.5451   20.8220 N   0  0  0  0  0  0  0  0  0  0  0  0
    9.2460  -16.0062   23.1814 C   0  0  0  0  0  0  0  0  0  0  0  0
   10.1210  -15.1617   23.5231 O   0  0  0  0  0  0  0  0  0  0  0  0
    8.3702  -16.4580   24.2023 N   0  0  0  0  0  0  0  0  0  0  0  0
    8.4628  -16.0382   25.5925 C   0  0  1  0  0  0  0  0  0  0  0  0
    7.0571  -15.5888   25.9700 C   0  0  0  0  0  0  0  0  0  0  0  0
    6.9581  -14.1732   26.3163 C   0  0  0  0  0  0  0  0  0  0  0  0
    5.7519  -13.5604   26.5723 C   0  0  0  0  0  0  0  0  0  0  0  0
    5.6870  -12.2052   26.9071 C   0  0  0  0  0  0  0  0  0  0  0  0
    6.8247  -11.4579   26.9873 C   0  0  0  0  0  0  0  0  0  0  0  0
    8.0431  -12.0681   26.7309 C   0  0  0  0  0  0  0  0  0  0  0  0
    8.0998  -13.4062   26.4011 C   0  0  0  0  0  0  0  0  0  0  0  0
    8.9458  -17.1132   26.4666 C   0  0  0  0  0  0  0  0  0  0  0  0
    9.6397  -16.8156   27.6234 O   0  0  0  0  0  0  0  0  0  0  0  0
    8.7395  -18.3120   26.1819 O   0  0  0  0  0  0  0  0  0  0  0  0
  2  1  1  6
  3  4  1  0
  3  2  1  0
  4  5  1  0
  5  6  1  0
  7  6  1  0
  8  9  2  0
  8  2  1  0
 10 11  1  0
 12 11  1  1
 12 13  1  0
 12 14  1  0
 13  8  1  0
 14 16  1  0
 15 14  2  0
 16 17  1  0
 17 25  1  0
 17 18  1  1
 19 18  1  0
 20 19  2  0
 21 20  1  0
 22 21  2  0
 22 23  1  0
 23 24  2  0
 24 19  1  0
 25 27  2  0
 25 26  1  0
M  END
$$$$
