KSF.pdb
     RDKit          3D

 27 27  0  0  1  0  0  0  0  0999 V2000
    8.0235  -16.4587   17.6246 N   0  0  0  0  0  0  0  0  0  0  0  0
    8.6292  -15.5725   18.5534 C   0  0  1  0  0  0  0  0  0  0  0  0
    8.0171  -14.2278   18.5717 C   0  0  0  0  0  0  0  0  0  0  0  0
    8.1986  -13.4941   17.2852 C   0  0  0  0  0  0  0  0  0  0  0  0
    8.1557  -14.2760   16.0297 C   0  0  0  0  0  0  0  0  0  0  0  0
    8.2587  -13.3617   14.7984 C   0  0  0  0  0  0  0  0  0  0  0  0
    8.0261  -14.1231   13.5871 N   0  0  0  0  0  0  0  0  0  0  0  0
    8.7822  -16.1651   19.9114 C   0  0  0  0  0  0  0  0  0  0  0  0
    7.7540  -16.2732   20.6145 O   0  0  0  0  0  0  0  0  0  0  0  0
   12.5082  -17.1626   21.7509 O   0  0  0  0  0  0  0  0  0  0  0  0
   11.3686  -17.9588   21.9845 C   0  0  0  0  0  0  0  0  0  0  0  0
   10.1020  -17.1841   21.7475 C   0  0  2  0  0  0  0  0  0  0  0  0
    9.9965  -16.6081   20.4525 N   0  0  0  0  0  0  0  0  0  0  0  0
   10.0220  -16.1533   22.8368 C   0  0  0  0  0  0  0  0  0  0  0  0
   10.6413  -15.0550   22.7611 O   0  0  0  0  0  0  0  0  0  0  0  0
    9.2459  -16.3625   24.0059 N   0  0  0  0  0  0  0  0  0  0  0  0
    9.1034  -15.3798   25.0697 C   0  0  1  0  0  0  0  0  0  0  0  0
    7.8611  -14.5757   24.7088 C   0  0  0  0  0  0  0  0  0  0  0  0
    7.5235  -13.5356   25.6773 C   0  0  0  0  0  0  0  0  0  0  0  0
    8.4307  -13.0672   26.6011 C   0  0  0  0  0  0  0  0  0  0  0  0
    8.0822  -12.0671   27.5127 C   0  0  0  0  0  0  0  0  0  0  0  0
    6.8282  -11.5317   27.5052 C   0  0  0  0  0  0  0  0  0  0  0  0
    5.9091  -11.9983   26.5777 C   0  0  0  0  0  0  0  0  0  0  0  0
    6.2599  -12.9857   25.6808 C   0  0  0  0  0  0  0  0  0  0  0  0
    8.9845  -16.0052   26.3916 C   0  0  0  0  0  0  0  0  0  0  0  0
    8.4640  -17.2785   26.5189 O   0  0  0  0  0  0  0  0  0  0  0  0
    9.3502  -15.4005   27.4219 O   0  0  0  0  0  0  0  0  0  0  0  0
  2  1  1  6
  3  4  1  0
  3  2  1  0
  4  5  1  0
  5  6  1  0
  7  6  1  0
  8  9  2  0
  8  2  1  0
 10 11  1  0
 12 11  1  6
 12 13  1  0
 12 14  1  0
 13  8  1  0
 14 16  1  0
 15 14  2  0
 16 17  1  0
 17 25  1  0
 17 18  1  6
 19 18  1  0
 20 19  2  0
 21 20  1  0
 22 21  2  0
 22 23  1  0
 23 24  2  0
 24 19  1  0
 25 27  2  0
 25 26  1  0
M  END
$$$$
