KSF.pdb
     RDKit          3D

 27 27  0  0  1  0  0  0  0  0999 V2000
    7.8345  -17.4199   19.8687 N   0  0  0  0  0  0  0  0  0  0  0  0
    8.6011  -16.5389   20.6756 C   0  0  1  0  0  0  0  0  0  0  0  0
    8.5555  -15.1333   20.2226 C   0  0  0  0  0  0  0  0  0  0  0  0
    8.2363  -15.0055   18.7706 C   0  0  0  0  0  0  0  0  0  0  0  0
    8.1778  -13.6453   18.1913 C   0  0  0  0  0  0  0  0  0  0  0  0
    7.8701  -13.6919   16.6859 C   0  0  0  0  0  0  0  0  0  0  0  0
    7.7420  -12.3481   16.1580 N   0  0  0  0  0  0  0  0  0  0  0  0
    8.3283  -16.6944   22.1317 C   0  0  0  0  0  0  0  0  0  0  0  0
    7.1635  -16.4735   22.5288 O   0  0  0  0  0  0  0  0  0  0  0  0
   10.6114  -19.0507   24.6067 O   0  0  0  0  0  0  0  0  0  0  0  0
    9.2929  -18.6817   24.9427 C   0  0  0  0  0  0  0  0  0  0  0  0
    8.9696  -17.2985   24.4502 C   0  0  2  0  0  0  0  0  0  0  0  0
    9.2857  -17.0701   23.0834 N   0  0  0  0  0  0  0  0  0  0  0  0
    9.6794  -16.3427   25.3656 C   0  0  0  0  0  0  0  0  0  0  0  0
   10.7322  -15.7403   25.0129 O   0  0  0  0  0  0  0  0  0  0  0  0
    9.2020  -16.0688   26.6733 N   0  0  0  0  0  0  0  0  0  0  0  0
    9.9118  -15.2419   27.6376 C   0  0  1  0  0  0  0  0  0  0  0  0
    8.8473  -14.3467   28.2585 C   0  0  0  0  0  0  0  0  0  0  0  0
    8.1850  -13.4605   27.3048 C   0  0  0  0  0  0  0  0  0  0  0  0
    8.7718  -12.3029   26.8451 C   0  0  0  0  0  0  0  0  0  0  0  0
    8.1173  -11.4762   25.9280 C   0  0  0  0  0  0  0  0  0  0  0  0
    6.8760  -11.8020   25.4672 C   0  0  0  0  0  0  0  0  0  0  0  0
    6.2786  -12.9663   25.9255 C   0  0  0  0  0  0  0  0  0  0  0  0
    6.9305  -13.7776   26.8307 C   0  0  0  0  0  0  0  0  0  0  0  0
   10.6099  -16.0432   28.6493 C   0  0  0  0  0  0  0  0  0  0  0  0
   10.4987  -17.4202   28.6500 O   0  0  0  0  0  0  0  0  0  0  0  0
   11.3144  -15.4975   29.5249 O   0  0  0  0  0  0  0  0  0  0  0  0
  2  1  1  6
  3  4  1  0
  3  2  1  0
  4  5  1  0
  5  6  1  0
  7  6  1  0
  8  9  2  0
  8  2  1  0
 10 11  1  0
 12 11  1  1
 12 13  1  0
 12 14  1  0
 13  8  1  0
 14 16  1  0
 15 14  2  0
 16 17  1  0
 17 25  1  0
 17 18  1  1
 19 18  1  0
 20 19  2  0
 21 20  1  0
 22 21  2  0
 22 23  1  0
 23 24  2  0
 24 19  1  0
 25 27  2  0
 25 26  1  0
M  END
$$$$
