LGK.pdb
     RDKit          3D

 22 21  0  0  1  0  0  0  0  0999 V2000
   27.3971  -18.3302   -7.1171 C   0  0  0  0  0  0  0  0  0  0  0  0
   27.2603  -19.7955   -6.7672 C   0  0  2  0  0  0  0  0  0  0  0  0
   28.3399  -20.2256   -5.7857 C   0  0  0  0  0  0  0  0  0  0  0  0
   27.3394  -20.6043   -8.0416 C   0  0  0  0  0  0  0  0  0  0  0  0
   26.1848  -20.3406   -8.9579 C   0  0  2  0  0  0  0  0  0  0  0  0
   24.9513  -20.5263   -8.2750 N   0  0  0  0  0  0  0  0  0  0  0  0
   26.3103  -21.0658  -10.2414 C   0  0  0  0  0  0  0  0  0  0  0  0
   25.7648  -22.1927  -10.3030 O   0  0  0  0  0  0  0  0  0  0  0  0
   26.9996  -20.5635  -11.3782 N   0  0  0  0  0  0  0  0  0  0  0  0
   27.2195  -21.3085  -12.5840 C   0  0  0  0  0  0  0  0  0  0  0  0
   26.1235  -21.2962  -13.5506 C   0  0  0  0  0  0  0  0  0  0  0  0
   26.2147  -21.9675  -14.6417 O   0  0  0  0  0  0  0  0  0  0  0  0
   24.9406  -20.5843  -13.3780 N   0  0  0  0  0  0  0  0  0  0  0  0
   23.8143  -20.6716  -14.4082 C   0  0  1  0  0  0  0  0  0  0  0  0
   22.6156  -20.5785  -13.5197 C   0  0  0  0  0  0  0  0  0  0  0  0
   21.8462  -21.7319  -13.0956 C   0  0  0  0  0  0  0  0  0  0  0  0
   20.6485  -21.5367  -12.2565 C   0  0  0  0  0  0  0  0  0  0  0  0
   20.0645  -22.8892  -11.7956 C   0  0  0  0  0  0  0  0  0  0  0  0
   19.0493  -22.7053  -10.8058 N   0  0  0  0  0  0  0  0  0  0  0  0
   24.0979  -19.5101  -15.2648 C   0  0  0  0  0  0  0  0  0  0  0  0
   23.5815  -19.3954  -16.5799 O   0  0  0  0  0  0  0  0  0  0  0  0
   24.7987  -18.5606  -14.9058 O   0  0  0  0  0  0  0  0  0  0  0  0
  2  1  1  6
  3  2  1  0
  4  5  1  0
  4  2  1  0
  5  6  1  1
  7  5  1  0
  7  8  2  0
  9  7  1  0
 10  9  1  0
 10 11  1  0
 11 13  1  0
 12 11  2  0
 13 14  1  0
 14 15  1  1
 14 20  1  0
 16 15  1  0
 17 16  1  0
 18 17  1  0
 19 18  1  0
 20 22  2  0
 20 21  1  0
M  END
$$$$
