LGK.pdb
     RDKit          3D

 22 21  0  0  1  0  0  0  0  0999 V2000
   24.8809  -21.9495   -9.2745 C   0  0  0  0  0  0  0  0  0  0  0  0
   25.9690  -21.0542   -9.8246 C   0  0  2  0  0  0  0  0  0  0  0  0
   26.5157  -20.1325   -8.7450 C   0  0  0  0  0  0  0  0  0  0  0  0
   25.4001  -20.2559  -10.9751 C   0  0  0  0  0  0  0  0  0  0  0  0
   24.9651  -21.1257  -12.1137 C   0  0  2  0  0  0  0  0  0  0  0  0
   26.0415  -21.9404  -12.5608 N   0  0  0  0  0  0  0  0  0  0  0  0
   24.2726  -20.3588  -13.1727 C   0  0  0  0  0  0  0  0  0  0  0  0
   23.2376  -19.7405  -12.8298 O   0  0  0  0  0  0  0  0  0  0  0  0
   24.7095  -20.2888  -14.5232 N   0  0  0  0  0  0  0  0  0  0  0  0
   24.0351  -19.5531  -15.5533 C   0  0  0  0  0  0  0  0  0  0  0  0
   22.6972  -20.0254  -15.9034 C   0  0  0  0  0  0  0  0  0  0  0  0
   21.8847  -19.2585  -16.5368 O   0  0  0  0  0  0  0  0  0  0  0  0
   22.2114  -21.2912  -15.5909 N   0  0  0  0  0  0  0  0  0  0  0  0
   20.8069  -21.7201  -16.0161 C   0  0  1  0  0  0  0  0  0  0  0  0
   20.9721  -23.2051  -16.0674 C   0  0  0  0  0  0  0  0  0  0  0  0
   19.9273  -24.1085  -16.5082 C   0  0  0  0  0  0  0  0  0  0  0  0
   20.1565  -25.5650  -16.4536 C   0  0  0  0  0  0  0  0  0  0  0  0
   18.9893  -26.3376  -17.1042 C   0  0  0  0  0  0  0  0  0  0  0  0
   19.2876  -27.7316  -17.2141 N   0  0  0  0  0  0  0  0  0  0  0  0
   19.9829  -21.1809  -14.9235 C   0  0  0  0  0  0  0  0  0  0  0  0
   18.6379  -20.7778  -15.1180 O   0  0  0  0  0  0  0  0  0  0  0  0
   20.3972  -21.0411  -13.7702 O   0  0  0  0  0  0  0  0  0  0  0  0
  2  1  1  1
  3  2  1  0
  4  5  1  0
  4  2  1  0
  5  6  1  6
  7  5  1  0
  7  8  2  0
  9  7  1  0
 10  9  1  0
 10 11  1  0
 11 13  1  0
 12 11  2  0
 13 14  1  0
 14 15  1  1
 14 20  1  0
 16 15  1  0
 17 16  1  0
 18 17  1  0
 19 18  1  0
 20 22  2  0
 20 21  1  0
M  END
$$$$
