LGK.pdb
     RDKit          3D

 22 21  0  0  1  0  0  0  0  0999 V2000
   17.4827  -22.8704  -10.3389 C   0  0  0  0  0  0  0  0  0  0  0  0
   17.3318  -24.3532  -10.5974 C   0  0  2  0  0  0  0  0  0  0  0  0
   16.3820  -24.6113  -11.7572 C   0  0  0  0  0  0  0  0  0  0  0  0
   16.8293  -25.0136   -9.3341 C   0  0  0  0  0  0  0  0  0  0  0  0
   17.8512  -25.0043   -8.2396 C   0  0  2  0  0  0  0  0  0  0  0  0
   19.0806  -25.5524   -8.6980 N   0  0  0  0  0  0  0  0  0  0  0  0
   17.3315  -25.5857   -6.9822 C   0  0  0  0  0  0  0  0  0  0  0  0
   17.2834  -26.8368   -6.9223 O   0  0  0  0  0  0  0  0  0  0  0  0
   16.8957  -24.8187   -5.8680 N   0  0  0  0  0  0  0  0  0  0  0  0
   16.3695  -25.3795   -4.6573 C   0  0  0  0  0  0  0  0  0  0  0  0
   16.0247  -24.4227   -3.6080 C   0  0  0  0  0  0  0  0  0  0  0  0
   16.6445  -23.3009   -3.5252 O   0  0  0  0  0  0  0  0  0  0  0  0
   15.0393  -24.6390   -2.6497 N   0  0  0  0  0  0  0  0  0  0  0  0
   14.7781  -23.6129   -1.5469 C   0  0  1  0  0  0  0  0  0  0  0  0
   13.4199  -23.1243   -1.9362 C   0  0  0  0  0  0  0  0  0  0  0  0
   13.1392  -21.7459   -2.2874 C   0  0  0  0  0  0  0  0  0  0  0  0
   11.7638  -21.3554   -2.6517 C   0  0  0  0  0  0  0  0  0  0  0  0
   11.6894  -19.8594   -3.0245 C   0  0  0  0  0  0  0  0  0  0  0  0
   10.3579  -19.4794   -3.3807 N   0  0  0  0  0  0  0  0  0  0  0  0
   14.8631  -24.4432   -0.3357 C   0  0  0  0  0  0  0  0  0  0  0  0
   15.1116  -25.8377   -0.3900 O   0  0  0  0  0  0  0  0  0  0  0  0
   14.7256  -23.9921    0.8040 O   0  0  0  0  0  0  0  0  0  0  0  0
  2  1  1  1
  3  2  1  0
  4  5  1  0
  4  2  1  0
  5  6  1  6
  7  5  1  0
  7  8  2  0
  9  7  1  0
 10  9  1  0
 10 11  1  0
 11 13  1  0
 12 11  2  0
 13 14  1  0
 14 15  1  6
 14 20  1  0
 16 15  1  0
 17 16  1  0
 18 17  1  0
 19 18  1  0
 20 22  2  0
 20 21  1  0
M  END
$$$$
