LGK.pdb
     RDKit          3D

 22 21  0  0  1  0  0  0  0  0999 V2000
   29.5302  -21.9748   -9.4361 C   0  0  0  0  0  0  0  0  0  0  0  0
   29.1751  -20.5248   -9.6804 C   0  0  2  0  0  0  0  0  0  0  0  0
   30.0354  -19.6014   -8.8312 C   0  0  0  0  0  0  0  0  0  0  0  0
   27.7088  -20.3292   -9.3701 C   0  0  0  0  0  0  0  0  0  0  0  0
   26.8232  -21.1478  -10.2578 C   0  0  2  0  0  0  0  0  0  0  0  0
   27.1901  -20.9814  -11.6216 N   0  0  0  0  0  0  0  0  0  0  0  0
   25.3882  -20.9427   -9.9613 C   0  0  0  0  0  0  0  0  0  0  0  0
   25.0948  -20.6787   -8.7716 O   0  0  0  0  0  0  0  0  0  0  0  0
   24.3526  -21.0273  -10.9308 N   0  0  0  0  0  0  0  0  0  0  0  0
   23.4453  -19.9601  -11.2390 C   0  0  0  0  0  0  0  0  0  0  0  0
   22.5313  -20.2012  -12.3536 C   0  0  0  0  0  0  0  0  0  0  0  0
   21.6876  -19.2993  -12.7061 O   0  0  0  0  0  0  0  0  0  0  0  0
   22.4985  -21.3792  -13.0932 N   0  0  0  0  0  0  0  0  0  0  0  0
   21.5052  -21.5578  -14.2416 C   0  0  1  0  0  0  0  0  0  0  0  0
   22.1768  -22.6389  -15.0260 C   0  0  0  0  0  0  0  0  0  0  0  0
   21.8336  -22.9589  -16.3978 C   0  0  0  0  0  0  0  0  0  0  0  0
   22.8382  -22.7667  -17.4611 C   0  0  0  0  0  0  0  0  0  0  0  0
   22.2786  -23.1821  -18.8383 C   0  0  0  0  0  0  0  0  0  0  0  0
   23.2555  -23.0108  -19.8681 N   0  0  0  0  0  0  0  0  0  0  0  0
   20.2755  -21.9248  -13.5228 C   0  0  0  0  0  0  0  0  0  0  0  0
   20.2901  -22.3749  -12.1788 O   0  0  0  0  0  0  0  0  0  0  0  0
   19.1532  -21.8688  -14.0314 O   0  0  0  0  0  0  0  0  0  0  0  0
  2  1  1  1
  3  2  1  0
  4  5  1  0
  4  2  1  0
  5  6  1  6
  7  5  1  0
  7  8  2  0
  9  7  1  0
 10  9  1  0
 10 11  1  0
 11 13  1  0
 12 11  2  0
 13 14  1  0
 14 15  1  6
 14 20  1  0
 16 15  1  0
 17 16  1  0
 18 17  1  0
 19 18  1  0
 20 22  2  0
 20 21  1  0
M  END
$$$$
