LGK.pdb
     RDKit          3D

 22 21  0  0  1  0  0  0  0  0999 V2000
   26.2331  -16.6131  -16.6123 C   0  0  0  0  0  0  0  0  0  0  0  0
   26.4759  -15.3834  -15.7653 C   0  0  2  0  0  0  0  0  0  0  0  0
   27.0767  -15.7578  -14.4189 C   0  0  0  0  0  0  0  0  0  0  0  0
   25.1632  -14.6563  -15.5846 C   0  0  0  0  0  0  0  0  0  0  0  0
   24.5482  -14.2553  -16.8897 C   0  0  2  0  0  0  0  0  0  0  0  0
   25.4857  -13.5425  -17.6867 N   0  0  0  0  0  0  0  0  0  0  0  0
   23.2381  -13.5912  -16.7117 C   0  0  0  0  0  0  0  0  0  0  0  0
   22.3476  -14.2566  -16.1326 O   0  0  0  0  0  0  0  0  0  0  0  0
   22.9452  -12.2721  -17.1520 N   0  0  0  0  0  0  0  0  0  0  0  0
   21.7419  -11.5612  -16.8295 C   0  0  0  0  0  0  0  0  0  0  0  0
   21.8421  -10.1033  -16.8311 C   0  0  0  0  0  0  0  0  0  0  0  0
   22.9466   -9.5303  -17.1492 O   0  0  0  0  0  0  0  0  0  0  0  0
   20.7942   -9.2501  -16.4998 N   0  0  0  0  0  0  0  0  0  0  0  0
   20.9166   -7.7400  -16.7044 C   0  0  1  0  0  0  0  0  0  0  0  0
   19.4800   -7.3644  -16.8778 C   0  0  0  0  0  0  0  0  0  0  0  0
   18.7180   -7.6593  -18.0755 C   0  0  0  0  0  0  0  0  0  0  0  0
   17.2891   -7.2964  -18.1343 C   0  0  0  0  0  0  0  0  0  0  0  0
   16.6642   -7.7100  -19.4837 C   0  0  0  0  0  0  0  0  0  0  0  0
   15.3034   -7.2815  -19.5780 N   0  0  0  0  0  0  0  0  0  0  0  0
   21.5673   -7.3178  -15.4547 C   0  0  0  0  0  0  0  0  0  0  0  0
   22.3151   -6.1174  -15.3588 O   0  0  0  0  0  0  0  0  0  0  0  0
   21.5110   -7.9703  -14.4096 O   0  0  0  0  0  0  0  0  0  0  0  0
  2  1  1  6
  3  2  1  0
  4  5  1  0
  4  2  1  0
  5  6  1  1
  7  5  1  0
  7  8  2  0
  9  7  1  0
 10  9  1  0
 10 11  1  0
 11 13  1  0
 12 11  2  0
 13 14  1  0
 14 15  1  1
 14 20  1  0
 16 15  1  0
 17 16  1  0
 18 17  1  0
 19 18  1  0
 20 22  2  0
 20 21  1  0
M  END
$$$$
