LGK.pdb
     RDKit          3D

 22 21  0  0  1  0  0  0  0  0999 V2000
   26.9689  -14.5557  -17.0161 C   0  0  0  0  0  0  0  0  0  0  0  0
   27.7209  -13.3948  -16.4039 C   0  0  2  0  0  0  0  0  0  0  0  0
   28.8752  -13.8850  -15.5430 C   0  0  0  0  0  0  0  0  0  0  0  0
   26.7525  -12.5714  -15.5860 C   0  0  0  0  0  0  0  0  0  0  0  0
   25.5940  -12.0798  -16.3974 C   0  0  2  0  0  0  0  0  0  0  0  0
   26.0500  -11.3904  -17.5546 N   0  0  0  0  0  0  0  0  0  0  0  0
   24.6046  -11.3477  -15.5762 C   0  0  0  0  0  0  0  0  0  0  0  0
   24.1109  -11.9709  -14.6072 O   0  0  0  0  0  0  0  0  0  0  0  0
   24.1962  -10.0091  -15.8231 N   0  0  0  0  0  0  0  0  0  0  0  0
   23.2757   -9.2803  -14.9992 C   0  0  0  0  0  0  0  0  0  0  0  0
   22.1334   -8.6859  -15.6902 C   0  0  0  0  0  0  0  0  0  0  0  0
   22.1783   -8.4799  -16.9571 O   0  0  0  0  0  0  0  0  0  0  0  0
   20.9524   -8.3072  -15.0596 N   0  0  0  0  0  0  0  0  0  0  0  0
   19.7822   -7.7370  -15.8613 C   0  0  1  0  0  0  0  0  0  0  0  0
   18.6237   -8.2522  -15.0692 C   0  0  0  0  0  0  0  0  0  0  0  0
   17.9513   -9.5029  -15.3618 C   0  0  0  0  0  0  0  0  0  0  0  0
   16.8096   -9.9254  -14.5282 C   0  0  0  0  0  0  0  0  0  0  0  0
   16.1361  -11.1890  -15.1047 C   0  0  0  0  0  0  0  0  0  0  0  0
   15.0786  -11.6453  -14.2575 N   0  0  0  0  0  0  0  0  0  0  0  0
   20.0442   -6.2913  -15.7913 C   0  0  0  0  0  0  0  0  0  0  0  0
   19.4830   -5.3747  -16.7156 O   0  0  0  0  0  0  0  0  0  0  0  0
   20.7641   -5.7758  -14.9326 O   0  0  0  0  0  0  0  0  0  0  0  0
  2  1  1  1
  3  2  1  0
  4  5  1  0
  4  2  1  0
  5  6  1  6
  7  5  1  0
  7  8  2  0
  9  7  1  0
 10  9  1  0
 10 11  1  0
 11 13  1  0
 12 11  2  0
 13 14  1  0
 14 15  1  1
 14 20  1  0
 16 15  1  0
 17 16  1  0
 18 17  1  0
 19 18  1  0
 20 22  2  0
 20 21  1  0
M  END
$$$$
