LGK.pdb
     RDKit          3D

 22 21  0  0  1  0  0  0  0  0999 V2000
   29.7446  -19.1879   -6.1762 C   0  0  0  0  0  0  0  0  0  0  0  0
   28.5214  -19.6032   -5.3890 C   0  0  2  0  0  0  0  0  0  0  0  0
   28.9129  -20.3821   -4.1424 C   0  0  0  0  0  0  0  0  0  0  0  0
   27.6318  -20.4344   -6.2846 C   0  0  0  0  0  0  0  0  0  0  0  0
   27.2489  -19.7115   -7.5388 C   0  0  2  0  0  0  0  0  0  0  0  0
   26.7962  -18.3969   -7.2405 N   0  0  0  0  0  0  0  0  0  0  0  0
   26.3437  -20.5114   -8.3932 C   0  0  0  0  0  0  0  0  0  0  0  0
   25.3694  -21.0545   -7.8213 O   0  0  0  0  0  0  0  0  0  0  0  0
   26.5175  -20.6908   -9.7922 N   0  0  0  0  0  0  0  0  0  0  0  0
   25.6908  -21.5328  -10.6075 C   0  0  0  0  0  0  0  0  0  0  0  0
   24.5411  -20.8841  -11.2344 C   0  0  0  0  0  0  0  0  0  0  0  0
   23.7952  -20.0898  -10.5544 O   0  0  0  0  0  0  0  0  0  0  0  0
   24.1725  -21.0669  -12.5635 N   0  0  0  0  0  0  0  0  0  0  0  0
   23.0229  -20.2669  -13.1766 C   0  0  1  0  0  0  0  0  0  0  0  0
   23.3176  -20.4265  -14.6335 C   0  0  0  0  0  0  0  0  0  0  0  0
   24.1169  -19.4850  -15.3929 C   0  0  0  0  0  0  0  0  0  0  0  0
   24.3657  -19.7342  -16.8257 C   0  0  0  0  0  0  0  0  0  0  0  0
   25.2922  -18.6555  -17.4263 C   0  0  0  0  0  0  0  0  0  0  0  0
   25.5251  -18.8882  -18.8176 N   0  0  0  0  0  0  0  0  0  0  0  0
   21.8470  -20.9800  -12.6548 C   0  0  0  0  0  0  0  0  0  0  0  0
   21.9028  -22.3374  -12.2503 O   0  0  0  0  0  0  0  0  0  0  0  0
   20.7376  -20.4549  -12.5325 O   0  0  0  0  0  0  0  0  0  0  0  0
  2  1  1  6
  3  2  1  0
  4  5  1  0
  4  2  1  0
  5  6  1  1
  7  5  1  0
  7  8  2  0
  9  7  1  0
 10  9  1  0
 10 11  1  0
 11 13  1  0
 12 11  2  0
 13 14  1  0
 14 15  1  6
 14 20  1  0
 16 15  1  0
 17 16  1  0
 18 17  1  0
 19 18  1  0
 20 22  2  0
 20 21  1  0
M  END
$$$$
