LGK.pdb
     RDKit          3D

 22 21  0  0  1  0  0  0  0  0999 V2000
   22.2631  -19.8749  -18.2395 C   0  0  0  0  0  0  0  0  0  0  0  0
   22.1651  -19.1748  -16.9022 C   0  0  2  0  0  0  0  0  0  0  0  0
   21.5373  -17.7973  -17.0517 C   0  0  0  0  0  0  0  0  0  0  0  0
   23.5519  -19.0718  -16.3098 C   0  0  0  0  0  0  0  0  0  0  0  0
   24.1711  -20.4138  -16.0693 C   0  0  2  0  0  0  0  0  0  0  0  0
   23.1867  -21.3521  -15.6538 N   0  0  0  0  0  0  0  0  0  0  0  0
   25.3689  -20.3320  -15.2046 C   0  0  0  0  0  0  0  0  0  0  0  0
   26.3196  -19.6346  -15.6301 O   0  0  0  0  0  0  0  0  0  0  0  0
   25.4936  -20.9863  -13.9493 N   0  0  0  0  0  0  0  0  0  0  0  0
   26.5810  -20.7822  -13.0364 C   0  0  0  0  0  0  0  0  0  0  0  0
   26.3717  -21.2709  -11.6751 C   0  0  0  0  0  0  0  0  0  0  0  0
   25.8336  -22.4198  -11.4750 O   0  0  0  0  0  0  0  0  0  0  0  0
   26.7207  -20.5612  -10.5304 N   0  0  0  0  0  0  0  0  0  0  0  0
   26.3577  -21.0851   -9.1407 C   0  0  1  0  0  0  0  0  0  0  0  0
   27.1952  -20.1953   -8.2795 C   0  0  0  0  0  0  0  0  0  0  0  0
   27.2231  -20.2829   -6.8325 C   0  0  0  0  0  0  0  0  0  0  0  0
   28.1036  -19.3795   -6.0675 C   0  0  0  0  0  0  0  0  0  0  0  0
   28.0238  -19.6729   -4.5542 C   0  0  0  0  0  0  0  0  0  0  0  0
   28.9788  -18.8984   -3.8247 N   0  0  0  0  0  0  0  0  0  0  0  0
   24.9036  -20.8660   -9.1059 C   0  0  0  0  0  0  0  0  0  0  0  0
   24.0438  -21.6243   -8.2722 O   0  0  0  0  0  0  0  0  0  0  0  0
   24.3316  -20.0158   -9.7923 O   0  0  0  0  0  0  0  0  0  0  0  0
  2  1  1  6
  3  2  1  0
  4  5  1  0
  4  2  1  0
  5  6  1  1
  7  5  1  0
  7  8  2  0
  9  7  1  0
 10  9  1  0
 10 11  1  0
 11 13  1  0
 12 11  2  0
 13 14  1  0
 14 15  1  1
 14 20  1  0
 16 15  1  0
 17 16  1  0
 18 17  1  0
 19 18  1  0
 20 22  2  0
 20 21  1  0
M  END
$$$$
