KIM.pdb
     RDKit          3D

 26 25  0  0  1  0  0  0  0  0999 V2000
    7.6432  -17.2984   16.4993 N   0  0  0  0  0  0  0  0  0  0  0  0
    8.7428  -17.9432   17.1732 C   0  0  1  0  0  0  0  0  0  0  0  0
    9.8715  -18.2740   16.1811 C   0  0  0  0  0  0  0  0  0  0  0  0
    9.4226  -18.0536   14.7797 C   0  0  0  0  0  0  0  0  0  0  0  0
   10.3862  -18.3872   13.7065 C   0  0  0  0  0  0  0  0  0  0  0  0
    9.9480  -18.1753   12.3043 C   0  0  0  0  0  0  0  0  0  0  0  0
   10.9559  -18.2817   11.3004 N   0  0  0  0  0  0  0  0  0  0  0  0
    9.2442  -17.0358   18.2357 C   0  0  0  0  0  0  0  0  0  0  0  0
   10.4771  -16.8618   18.4149 O   0  0  0  0  0  0  0  0  0  0  0  0
    6.6330  -12.4009   19.4203 C   0  0  0  0  0  0  0  0  0  0  0  0
    7.7799  -13.3815   19.2175 C   0  0  0  0  0  0  0  0  0  0  0  0
    7.9270  -14.3068   20.3958 C   0  0  2  0  0  0  0  0  0  0  0  0
    8.2475  -13.5328   21.6582 C   0  0  0  0  0  0  0  0  0  0  0  0
    8.8468  -15.4546   20.1774 C   0  0  2  0  0  0  0  0  0  0  0  0
    8.3744  -16.3198   19.1012 N   0  0  0  0  0  0  0  0  0  0  0  0
    9.1906  -16.2718   21.3414 C   0  0  0  0  0  0  0  0  0  0  0  0
    8.3205  -17.0740   21.7983 O   0  0  0  0  0  0  0  0  0  0  0  0
   14.5197  -20.6300   24.8918 C   0  0  0  0  0  0  0  0  0  0  0  0
   14.1380  -19.4050   23.5865 S   0  0  0  0  0  0  0  0  0  0  0  0
   12.5708  -18.6357   23.9778 C   0  0  0  0  0  0  0  0  0  0  0  0
   12.0300  -17.6771   22.9958 C   0  0  0  0  0  0  0  0  0  0  0  0
   10.6719  -17.0899   23.2312 C   0  0  2  0  0  0  0  0  0  0  0  0
   10.4267  -16.2568   22.0131 N   0  0  0  0  0  0  0  0  0  0  0  0
   10.5885  -16.2040   24.3812 C   0  0  0  0  0  0  0  0  0  0  0  0
   10.9169  -14.8466   24.3729 O   0  0  0  0  0  0  0  0  0  0  0  0
   10.1902  -16.6892   25.5000 O   0  0  0  0  0  0  0  0  0  0  0  0
  2  1  1  6
  3  2  1  0
  4  5  1  0
  4  3  1  0
  6  7  1  0
  6  5  1  0
  8 15  1  0
  8  2  1  0
  9  8  2  0
 10 11  1  0
 12 11  1  0
 12 14  1  0
 12 13  1  1
 14 15  1  6
 16 14  1  0
 16 23  1  0
 17 16  2  0
 18 19  1  0
 19 20  1  0
 20 21  1  0
 22 21  1  6
 22 23  1  0
 22 24  1  0
 24 26  2  0
 24 25  1  0
M  END
$$$$
