KIM.pdb
     RDKit          3D

 26 25  0  0  1  0  0  0  0  0999 V2000
   10.4467  -18.7115   18.8611 N   0  0  0  0  0  0  0  0  0  0  0  0
    9.2636  -18.4641   19.6473 C   0  0  1  0  0  0  0  0  0  0  0  0
    9.0232  -19.6102   20.6455 C   0  0  0  0  0  0  0  0  0  0  0  0
    8.9111  -20.9128   19.9352 C   0  0  0  0  0  0  0  0  0  0  0  0
    9.8739  -21.9704   20.3177 C   0  0  0  0  0  0  0  0  0  0  0  0
    9.6878  -23.3143   19.7158 C   0  0  0  0  0  0  0  0  0  0  0  0
    9.6583  -23.3740   18.2908 N   0  0  0  0  0  0  0  0  0  0  0  0
    9.4376  -17.1808   20.3730 C   0  0  0  0  0  0  0  0  0  0  0  0
   10.5828  -16.7305   20.6340 O   0  0  0  0  0  0  0  0  0  0  0  0
    7.1928  -12.9686   18.4663 C   0  0  0  0  0  0  0  0  0  0  0  0
    8.1706  -13.8436   19.2386 C   0  0  0  0  0  0  0  0  0  0  0  0
    7.7232  -14.0440   20.6619 C   0  0  2  0  0  0  0  0  0  0  0  0
    7.6439  -12.7223   21.3981 C   0  0  0  0  0  0  0  0  0  0  0  0
    8.4833  -15.0761   21.4159 C   0  0  2  0  0  0  0  0  0  0  0  0
    8.3372  -16.3956   20.8097 N   0  0  0  0  0  0  0  0  0  0  0  0
    8.2387  -15.1736   22.8552 C   0  0  0  0  0  0  0  0  0  0  0  0
    7.2090  -15.7972   23.2551 O   0  0  0  0  0  0  0  0  0  0  0  0
    6.8586  -11.5363   28.3496 C   0  0  0  0  0  0  0  0  0  0  0  0
    6.0530  -11.9121   26.7496 S   0  0  0  0  0  0  0  0  0  0  0  0
    6.4138  -13.6120   26.3236 C   0  0  0  0  0  0  0  0  0  0  0  0
    7.2312  -13.8426   25.1175 C   0  0  0  0  0  0  0  0  0  0  0  0
    8.5815  -14.4738   25.2693 C   0  0  2  0  0  0  0  0  0  0  0  0
    9.0611  -14.6345   23.8614 N   0  0  0  0  0  0  0  0  0  0  0  0
    8.5648  -15.7974   25.8709 C   0  0  0  0  0  0  0  0  0  0  0  0
    9.1446  -16.1277   27.0977 O   0  0  0  0  0  0  0  0  0  0  0  0
    7.9824  -16.7497   25.2386 O   0  0  0  0  0  0  0  0  0  0  0  0
  2  1  1  1
  3  2  1  0
  4  5  1  0
  4  3  1  0
  6  7  1  0
  6  5  1  0
  8 15  1  0
  8  2  1  0
  9  8  2  0
 10 11  1  0
 12 11  1  0
 12 14  1  0
 12 13  1  1
 14 15  1  6
 16 14  1  0
 16 23  1  0
 17 16  2  0
 18 19  1  0
 19 20  1  0
 20 21  1  0
 22 21  1  6
 22 23  1  0
 22 24  1  0
 24 26  2  0
 24 25  1  0
M  END
$$$$
