KIM.pdb
     RDKit          3D

 26 25  0  0  1  0  0  0  0  0999 V2000
    9.3443  -18.6274   19.4779 N   0  0  0  0  0  0  0  0  0  0  0  0
   10.1484  -17.5263   19.0088 C   0  0  1  0  0  0  0  0  0  0  0  0
    9.9378  -17.3012   17.5013 C   0  0  0  0  0  0  0  0  0  0  0  0
   10.2376  -18.5416   16.7363 C   0  0  0  0  0  0  0  0  0  0  0  0
   11.6612  -18.8180   16.4380 C   0  0  0  0  0  0  0  0  0  0  0  0
   11.9685  -20.0248   15.6304 C   0  0  0  0  0  0  0  0  0  0  0  0
   10.8672  -20.6431   14.9671 N   0  0  0  0  0  0  0  0  0  0  0  0
    9.7697  -16.3073   19.7667 C   0  0  0  0  0  0  0  0  0  0  0  0
    9.8276  -15.1675   19.2376 O   0  0  0  0  0  0  0  0  0  0  0  0
    7.3070  -12.8299   19.2849 C   0  0  0  0  0  0  0  0  0  0  0  0
    8.3284  -13.8185   19.8306 C   0  0  0  0  0  0  0  0  0  0  0  0
    7.8905  -14.3875   21.1536 C   0  0  2  0  0  0  0  0  0  0  0  0
    7.2587  -13.3193   22.0225 C   0  0  0  0  0  0  0  0  0  0  0  0
    8.9310  -15.1702   21.8719 C   0  0  2  0  0  0  0  0  0  0  0  0
    9.3254  -16.3542   21.1153 N   0  0  0  0  0  0  0  0  0  0  0  0
    8.6501  -15.5506   23.2565 C   0  0  0  0  0  0  0  0  0  0  0  0
    7.6403  -16.2811   23.4925 O   0  0  0  0  0  0  0  0  0  0  0  0
    7.8981  -11.4938   27.4103 C   0  0  0  0  0  0  0  0  0  0  0  0
    6.2908  -12.2210   26.9225 S   0  0  0  0  0  0  0  0  0  0  0  0
    6.5613  -13.9304   26.4686 C   0  0  0  0  0  0  0  0  0  0  0  0
    7.5312  -14.1925   25.3887 C   0  0  0  0  0  0  0  0  0  0  0  0
    8.7913  -14.9350   25.7134 C   0  0  2  0  0  0  0  0  0  0  0  0
    9.4166  -15.1797   24.3766 N   0  0  0  0  0  0  0  0  0  0  0  0
    8.5838  -16.2333   26.3344 C   0  0  0  0  0  0  0  0  0  0  0  0
    9.0047  -16.5839   27.6190 O   0  0  0  0  0  0  0  0  0  0  0  0
    7.9741  -17.1418   25.6644 O   0  0  0  0  0  0  0  0  0  0  0  0
  2  1  1  1
  3  2  1  0
  4  5  1  0
  4  3  1  0
  6  7  1  0
  6  5  1  0
  8 15  1  0
  8  2  1  0
  9  8  2  0
 10 11  1  0
 12 11  1  0
 12 14  1  0
 12 13  1  1
 14 15  1  6
 16 14  1  0
 16 23  1  0
 17 16  2  0
 18 19  1  0
 19 20  1  0
 20 21  1  0
 22 21  1  6
 22 23  1  0
 22 24  1  0
 24 26  2  0
 24 25  1  0
M  END
$$$$
