KIM.pdb
     RDKit          3D

 26 25  0  0  1  0  0  0  0  0999 V2000
    5.6298  -18.7578   22.8483 N   0  0  0  0  0  0  0  0  0  0  0  0
    6.0873  -18.3007   24.1370 C   0  0  1  0  0  0  0  0  0  0  0  0
    6.9482  -19.3762   24.8225 C   0  0  0  0  0  0  0  0  0  0  0  0
    6.1568  -20.6143   25.0565 C   0  0  0  0  0  0  0  0  0  0  0  0
    6.8111  -21.6917   25.8331 C   0  0  0  0  0  0  0  0  0  0  0  0
    6.0172  -22.9155   26.1071 C   0  0  0  0  0  0  0  0  0  0  0  0
    6.6070  -23.8721   26.9858 N   0  0  0  0  0  0  0  0  0  0  0  0
    6.8766  -17.0581   23.9455 C   0  0  0  0  0  0  0  0  0  0  0  0
    7.5200  -16.8525   22.8843 O   0  0  0  0  0  0  0  0  0  0  0  0
    5.0348  -12.5389   26.1858 C   0  0  0  0  0  0  0  0  0  0  0  0
    5.7511  -13.3348   25.1034 C   0  0  0  0  0  0  0  0  0  0  0  0
    7.1552  -13.6859   25.5174 C   0  0  2  0  0  0  0  0  0  0  0  0
    8.0455  -12.4600   25.5145 C   0  0  0  0  0  0  0  0  0  0  0  0
    7.7545  -14.8320   24.7835 C   0  0  2  0  0  0  0  0  0  0  0  0
    6.9514  -16.0412   24.9348 N   0  0  0  0  0  0  0  0  0  0  0  0
    9.1578  -15.1446   25.0551 C   0  0  0  0  0  0  0  0  0  0  0  0
   10.0298  -14.2453   24.8553 O   0  0  0  0  0  0  0  0  0  0  0  0
   10.9603  -15.1245   30.4799 C   0  0  0  0  0  0  0  0  0  0  0  0
   10.4369  -13.8505   29.2744 S   0  0  0  0  0  0  0  0  0  0  0  0
   10.7464  -14.4745   27.6263 C   0  0  0  0  0  0  0  0  0  0  0  0
   10.8988  -15.9342   27.4791 C   0  0  0  0  0  0  0  0  0  0  0  0
   11.0192  -16.5132   26.1025 C   0  0  2  0  0  0  0  0  0  0  0  0
    9.6419  -16.3754   25.5351 N   0  0  0  0  0  0  0  0  0  0  0  0
   11.3574  -17.9270   26.0700 C   0  0  0  0  0  0  0  0  0  0  0  0
   10.4884  -18.9506   25.6860 O   0  0  0  0  0  0  0  0  0  0  0  0
   12.5386  -18.2820   26.4231 O   0  0  0  0  0  0  0  0  0  0  0  0
  2  1  1  6
  3  2  1  0
  4  5  1  0
  4  3  1  0
  6  7  1  0
  6  5  1  0
  8 15  1  0
  8  2  1  0
  9  8  2  0
 10 11  1  0
 12 11  1  0
 12 14  1  0
 12 13  1  6
 14 15  1  1
 16 14  1  0
 16 23  1  0
 17 16  2  0
 18 19  1  0
 19 20  1  0
 20 21  1  0
 22 21  1  1
 22 23  1  0
 22 24  1  0
 24 26  2  0
 24 25  1  0
M  END
$$$$
