KIM.pdb
     RDKit          3D

 26 25  0  0  1  0  0  0  0  0999 V2000
    6.7271  -16.8272   21.2122 N   0  0  0  0  0  0  0  0  0  0  0  0
    8.0983  -16.5086   20.9003 C   0  0  1  0  0  0  0  0  0  0  0  0
    8.1829  -15.6605   19.6192 C   0  0  0  0  0  0  0  0  0  0  0  0
    8.2898  -16.5308   18.4172 C   0  0  0  0  0  0  0  0  0  0  0  0
    9.5342  -17.3189   18.2683 C   0  0  0  0  0  0  0  0  0  0  0  0
    9.6301  -18.2311   17.1013 C   0  0  0  0  0  0  0  0  0  0  0  0
   10.8812  -18.8893   16.9102 N   0  0  0  0  0  0  0  0  0  0  0  0
    8.6839  -15.7670   22.0453 C   0  0  0  0  0  0  0  0  0  0  0  0
    9.7883  -15.1740   21.9405 O   0  0  0  0  0  0  0  0  0  0  0  0
    5.6005  -12.7632   25.2178 C   0  0  0  0  0  0  0  0  0  0  0  0
    6.8176  -13.2554   24.4466 C   0  0  0  0  0  0  0  0  0  0  0  0
    7.5991  -14.2678   25.2406 C   0  0  2  0  0  0  0  0  0  0  0  0
    8.1551  -13.6527   26.5085 C   0  0  0  0  0  0  0  0  0  0  0  0
    8.6272  -15.0110   24.4647 C   0  0  2  0  0  0  0  0  0  0  0  0
    8.0413  -15.6835   23.3096 N   0  0  0  0  0  0  0  0  0  0  0  0
    9.4716  -15.9542   25.1983 C   0  0  0  0  0  0  0  0  0  0  0  0
    9.1559  -17.1827   25.1932 O   0  0  0  0  0  0  0  0  0  0  0  0
   10.7099  -13.9592   30.5724 C   0  0  0  0  0  0  0  0  0  0  0  0
   11.8585  -15.3548   30.8610 S   0  0  0  0  0  0  0  0  0  0  0  0
   11.9373  -16.3367   29.3673 C   0  0  0  0  0  0  0  0  0  0  0  0
   11.4711  -15.7006   28.1208 C   0  0  0  0  0  0  0  0  0  0  0  0
   11.2394  -16.5584   26.9145 C   0  0  2  0  0  0  0  0  0  0  0  0
   10.6323  -15.6201   25.9200 N   0  0  0  0  0  0  0  0  0  0  0  0
   10.2908  -17.6415   27.1174 C   0  0  0  0  0  0  0  0  0  0  0  0
   10.6281  -18.9920   27.2298 O   0  0  0  0  0  0  0  0  0  0  0  0
    9.0427  -17.3553   27.1960 O   0  0  0  0  0  0  0  0  0  0  0  0
  2  1  1  1
  3  2  1  0
  4  5  1  0
  4  3  1  0
  6  7  1  0
  6  5  1  0
  8 15  1  0
  8  2  1  0
  9  8  2  0
 10 11  1  0
 12 11  1  0
 12 14  1  0
 12 13  1  1
 14 15  1  6
 16 14  1  0
 16 23  1  0
 17 16  2  0
 18 19  1  0
 19 20  1  0
 20 21  1  0
 22 21  1  1
 22 23  1  0
 22 24  1  0
 24 26  2  0
 24 25  1  0
M  END
$$$$
