KIM.pdb
     RDKit          3D

 26 25  0  0  1  0  0  0  0  0999 V2000
    8.8966  -18.8133   18.6303 N   0  0  0  0  0  0  0  0  0  0  0  0
    8.3715  -18.5459   19.9462 C   0  0  1  0  0  0  0  0  0  0  0  0
    8.6855  -19.7079   20.9048 C   0  0  0  0  0  0  0  0  0  0  0  0
    8.6708  -21.0073   20.1801 C   0  0  0  0  0  0  0  0  0  0  0  0
    9.9666  -21.7082   20.0337 C   0  0  0  0  0  0  0  0  0  0  0  0
    9.9322  -23.1199   19.5766 C   0  0  0  0  0  0  0  0  0  0  0  0
   11.1942  -23.7489   19.3605 N   0  0  0  0  0  0  0  0  0  0  0  0
    8.9770  -17.2878   20.4506 C   0  0  0  0  0  0  0  0  0  0  0  0
   10.1830  -17.0099   20.2258 O   0  0  0  0  0  0  0  0  0  0  0  0
    6.6674  -12.7530   19.2033 C   0  0  0  0  0  0  0  0  0  0  0  0
    7.8037  -13.6845   19.6026 C   0  0  0  0  0  0  0  0  0  0  0  0
    7.8072  -13.9432   21.0855 C   0  0  2  0  0  0  0  0  0  0  0  0
    7.9727  -12.6529   21.8621 C   0  0  0  0  0  0  0  0  0  0  0  0
    8.7466  -15.0060   21.5318 C   0  0  2  0  0  0  0  0  0  0  0  0
    8.2413  -16.3360   21.2064 N   0  0  0  0  0  0  0  0  0  0  0  0
    9.1771  -14.9794   22.9299 C   0  0  0  0  0  0  0  0  0  0  0  0
    9.8479  -13.9838   23.3397 O   0  0  0  0  0  0  0  0  0  0  0  0
    7.0644  -11.2801   26.6206 C   0  0  0  0  0  0  0  0  0  0  0  0
    6.2134  -12.8687   26.9408 S   0  0  0  0  0  0  0  0  0  0  0  0
    7.4214  -14.1846   26.8387 C   0  0  0  0  0  0  0  0  0  0  0  0
    7.7926  -14.6516   25.4897 C   0  0  0  0  0  0  0  0  0  0  0  0
    8.8807  -15.6722   25.3521 C   0  0  2  0  0  0  0  0  0  0  0  0
    8.9046  -15.9739   23.8871 N   0  0  0  0  0  0  0  0  0  0  0  0
    8.6241  -16.9249   26.0442 C   0  0  0  0  0  0  0  0  0  0  0  0
    8.3723  -18.1486   25.4202 O   0  0  0  0  0  0  0  0  0  0  0  0
    8.6188  -16.9254   27.3271 O   0  0  0  0  0  0  0  0  0  0  0  0
  2  1  1  6
  3  2  1  0
  4  5  1  0
  4  3  1  0
  6  7  1  0
  6  5  1  0
  8 15  1  0
  8  2  1  0
  9  8  2  0
 10 11  1  0
 12 11  1  0
 12 14  1  0
 12 13  1  1
 14 15  1  1
 16 14  1  0
 16 23  1  0
 17 16  2  0
 18 19  1  0
 19 20  1  0
 20 21  1  0
 22 21  1  6
 22 23  1  0
 22 24  1  0
 24 26  2  0
 24 25  1  0
M  END
$$$$
