KIM.pdb
     RDKit          3D

 26 25  0  0  1  0  0  0  0  0999 V2000
    9.8961  -18.7023   18.5552 N   0  0  0  0  0  0  0  0  0  0  0  0
    9.1376  -18.6082   19.7778 C   0  0  1  0  0  0  0  0  0  0  0  0
    9.4959  -19.7612   20.7316 C   0  0  0  0  0  0  0  0  0  0  0  0
    9.1697  -21.0756   20.1151 C   0  0  0  0  0  0  0  0  0  0  0  0
    8.6425  -22.1261   21.0153 C   0  0  0  0  0  0  0  0  0  0  0  0
    8.2488  -23.4185   20.4005 C   0  0  0  0  0  0  0  0  0  0  0  0
    7.8151  -24.4418   21.2949 N   0  0  0  0  0  0  0  0  0  0  0  0
    9.4336  -17.3023   20.4188 C   0  0  0  0  0  0  0  0  0  0  0  0
   10.5888  -16.8059   20.3819 O   0  0  0  0  0  0  0  0  0  0  0  0
    6.6864  -12.9254   19.4918 C   0  0  0  0  0  0  0  0  0  0  0  0
    7.7930  -13.9007   19.8691 C   0  0  0  0  0  0  0  0  0  0  0  0
    7.7672  -14.2191   21.3402 C   0  0  2  0  0  0  0  0  0  0  0  0
    7.8820  -12.9578   22.1715 C   0  0  0  0  0  0  0  0  0  0  0  0
    8.7217  -15.2765   21.7670 C   0  0  2  0  0  0  0  0  0  0  0  0
    8.4442  -16.5458   21.1023 N   0  0  0  0  0  0  0  0  0  0  0  0
    8.8739  -15.5047   23.2043 C   0  0  0  0  0  0  0  0  0  0  0  0
    7.9307  -16.0756   23.8316 O   0  0  0  0  0  0  0  0  0  0  0  0
    7.4411  -11.4225   27.4739 C   0  0  0  0  0  0  0  0  0  0  0  0
    8.6210  -12.7089   28.0245 S   0  0  0  0  0  0  0  0  0  0  0  0
    8.2397  -14.2288   27.1607 C   0  0  0  0  0  0  0  0  0  0  0  0
    8.6950  -14.3380   25.7620 C   0  0  0  0  0  0  0  0  0  0  0  0
    9.9479  -15.1050   25.4674 C   0  0  2  0  0  0  0  0  0  0  0  0
    9.9972  -15.1486   23.9729 N   0  0  0  0  0  0  0  0  0  0  0  0
    9.9375  -16.4811   25.9369 C   0  0  0  0  0  0  0  0  0  0  0  0
   10.7681  -16.9936   26.9359 O   0  0  0  0  0  0  0  0  0  0  0  0
    9.1129  -17.3046   25.4005 O   0  0  0  0  0  0  0  0  0  0  0  0
  2  1  1  6
  3  2  1  0
  4  5  1  0
  4  3  1  0
  6  7  1  0
  6  5  1  0
  8 15  1  0
  8  2  1  0
  9  8  2  0
 10 11  1  0
 12 11  1  0
 12 14  1  0
 12 13  1  1
 14 15  1  6
 16 14  1  0
 16 23  1  0
 17 16  2  0
 18 19  1  0
 19 20  1  0
 20 21  1  0
 22 21  1  6
 22 23  1  0
 22 24  1  0
 24 26  2  0
 24 25  1  0
M  END
$$$$
