KIM.pdb
     RDKit          3D

 26 25  0  0  1  0  0  0  0  0999 V2000
    7.2001  -14.4522   19.8028 N   0  0  0  0  0  0  0  0  0  0  0  0
    7.4583  -15.5519   20.6989 C   0  0  1  0  0  0  0  0  0  0  0  0
    8.3055  -16.6329   20.0051 C   0  0  0  0  0  0  0  0  0  0  0  0
    7.4762  -17.8252   19.6816 C   0  0  0  0  0  0  0  0  0  0  0  0
    7.3590  -18.1928   18.2523 C   0  0  0  0  0  0  0  0  0  0  0  0
    6.5900  -19.4189   17.9228 C   0  0  0  0  0  0  0  0  0  0  0  0
    6.3844  -19.6869   16.5368 N   0  0  0  0  0  0  0  0  0  0  0  0
    8.1698  -15.0318   21.8935 C   0  0  0  0  0  0  0  0  0  0  0  0
    9.2933  -14.4754   21.7912 O   0  0  0  0  0  0  0  0  0  0  0  0
    5.6466  -12.0639   25.4871 C   0  0  0  0  0  0  0  0  0  0  0  0
    6.6947  -12.6958   24.5814 C   0  0  0  0  0  0  0  0  0  0  0  0
    7.3854  -13.8482   25.2604 C   0  0  2  0  0  0  0  0  0  0  0  0
    8.0316  -13.4066   26.5576 C   0  0  0  0  0  0  0  0  0  0  0  0
    8.3126  -14.6203   24.3912 C   0  0  2  0  0  0  0  0  0  0  0  0
    7.6322  -15.1298   23.2049 N   0  0  0  0  0  0  0  0  0  0  0  0
    9.0752  -15.7020   25.0151 C   0  0  0  0  0  0  0  0  0  0  0  0
    8.5007  -16.8161   25.2094 O   0  0  0  0  0  0  0  0  0  0  0  0
   10.0535  -13.5973   30.0352 C   0  0  0  0  0  0  0  0  0  0  0  0
   11.2845  -14.9008   30.4034 S   0  0  0  0  0  0  0  0  0  0  0  0
   11.3005  -16.0605   29.0410 C   0  0  0  0  0  0  0  0  0  0  0  0
   11.0360  -15.5182   27.6950 C   0  0  0  0  0  0  0  0  0  0  0  0
   10.9556  -16.4655   26.5370 C   0  0  2  0  0  0  0  0  0  0  0  0
   10.4194  -15.6233   25.4229 N   0  0  0  0  0  0  0  0  0  0  0  0
   10.0290  -17.5703   26.7243 C   0  0  0  0  0  0  0  0  0  0  0  0
   10.3543  -18.9214   26.5868 O   0  0  0  0  0  0  0  0  0  0  0  0
    8.8131  -17.3034   27.0344 O   0  0  0  0  0  0  0  0  0  0  0  0
  2  1  1  6
  3  2  1  0
  4  5  1  0
  4  3  1  0
  6  7  1  0
  6  5  1  0
  8 15  1  0
  8  2  1  0
  9  8  2  0
 10 11  1  0
 12 11  1  0
 12 14  1  0
 12 13  1  1
 14 15  1  6
 16 14  1  0
 16 23  1  0
 17 16  2  0
 18 19  1  0
 19 20  1  0
 20 21  1  0
 22 21  1  1
 22 23  1  0
 22 24  1  0
 24 26  2  0
 24 25  1  0
M  END
$$$$
