KIM.pdb
     RDKit          3D

 26 25  0  0  1  0  0  0  0  0999 V2000
    6.6777  -16.1241   20.0975 N   0  0  0  0  0  0  0  0  0  0  0  0
    6.9331  -16.9456   21.2546 C   0  0  1  0  0  0  0  0  0  0  0  0
    7.5617  -18.2880   20.8419 C   0  0  0  0  0  0  0  0  0  0  0  0
    6.5986  -19.0992   20.0493 C   0  0  0  0  0  0  0  0  0  0  0  0
    7.0034  -19.4652   18.6731 C   0  0  0  0  0  0  0  0  0  0  0  0
    6.0724  -20.3157   17.8901 C   0  0  0  0  0  0  0  0  0  0  0  0
    6.4715  -20.6359   16.5585 N   0  0  0  0  0  0  0  0  0  0  0  0
    7.8470  -16.2102   22.1644 C   0  0  0  0  0  0  0  0  0  0  0  0
    8.9659  -15.7947   21.7671 O   0  0  0  0  0  0  0  0  0  0  0  0
    5.8678  -12.4254   25.1940 C   0  0  0  0  0  0  0  0  0  0  0  0
    6.8503  -13.2234   24.3478 C   0  0  0  0  0  0  0  0  0  0  0  0
    7.6589  -14.1720   25.1918 C   0  0  2  0  0  0  0  0  0  0  0  0
    8.5444  -13.4169   26.1618 C   0  0  0  0  0  0  0  0  0  0  0  0
    8.3997  -15.2110   24.4282 C   0  0  2  0  0  0  0  0  0  0  0  0
    7.5175  -15.9354   23.5188 N   0  0  0  0  0  0  0  0  0  0  0  0
    9.1977  -16.1680   25.1950 C   0  0  0  0  0  0  0  0  0  0  0  0
    8.5976  -16.9898   25.9524 O   0  0  0  0  0  0  0  0  0  0  0  0
   10.1412  -13.1855   29.1409 C   0  0  0  0  0  0  0  0  0  0  0  0
   10.7264  -14.6784   30.0235 S   0  0  0  0  0  0  0  0  0  0  0  0
   11.3652  -15.8324   28.8145 C   0  0  0  0  0  0  0  0  0  0  0  0
   10.9141  -15.6622   27.4205 C   0  0  0  0  0  0  0  0  0  0  0  0
   11.3904  -16.6325   26.3830 C   0  0  2  0  0  0  0  0  0  0  0  0
   10.6006  -16.2700   25.1653 N   0  0  0  0  0  0  0  0  0  0  0  0
   11.1024  -18.0259   26.6825 C   0  0  0  0  0  0  0  0  0  0  0  0
   11.9901  -18.9148   27.2926 O   0  0  0  0  0  0  0  0  0  0  0  0
    9.9516  -18.4951   26.3641 O   0  0  0  0  0  0  0  0  0  0  0  0
  2  1  1  6
  3  2  1  0
  4  5  1  0
  4  3  1  0
  6  7  1  0
  6  5  1  0
  8 15  1  0
  8  2  1  0
  9  8  2  0
 10 11  1  0
 12 11  1  0
 12 14  1  0
 12 13  1  6
 14 15  1  1
 16 14  1  0
 16 23  1  0
 17 16  2  0
 18 19  1  0
 19 20  1  0
 20 21  1  0
 22 21  1  1
 22 23  1  0
 22 24  1  0
 24 26  2  0
 24 25  1  0
M  END
$$$$
