KIM.pdb
     RDKit          3D

 26 25  0  0  1  0  0  0  0  0999 V2000
    9.4405  -18.6640   18.7017 N   0  0  0  0  0  0  0  0  0  0  0  0
    8.4480  -18.3145   19.6876 C   0  0  1  0  0  0  0  0  0  0  0  0
    8.2401  -19.4682   20.6842 C   0  0  0  0  0  0  0  0  0  0  0  0
    7.6697  -20.6597   19.9994 C   0  0  0  0  0  0  0  0  0  0  0  0
    7.4517  -21.8682   20.8264 C   0  0  0  0  0  0  0  0  0  0  0  0
    6.7916  -23.0294   20.1791 C   0  0  0  0  0  0  0  0  0  0  0  0
    7.3484  -23.4682   18.9411 N   0  0  0  0  0  0  0  0  0  0  0  0
    8.9006  -17.0949   20.4029 C   0  0  0  0  0  0  0  0  0  0  0  0
   10.1123  -16.7572   20.4116 O   0  0  0  0  0  0  0  0  0  0  0  0
    6.9665  -12.3690   19.4458 C   0  0  0  0  0  0  0  0  0  0  0  0
    7.8842  -13.5015   19.8857 C   0  0  0  0  0  0  0  0  0  0  0  0
    7.6752  -13.8466   21.3360 C   0  0  2  0  0  0  0  0  0  0  0  0
    7.8861  -12.6339   22.2193 C   0  0  0  0  0  0  0  0  0  0  0  0
    8.4278  -15.0388   21.8089 C   0  0  2  0  0  0  0  0  0  0  0  0
    8.0053  -16.2484   21.1101 N   0  0  0  0  0  0  0  0  0  0  0  0
    8.4484  -15.2930   23.2496 C   0  0  0  0  0  0  0  0  0  0  0  0
    7.4074  -15.7679   23.7973 O   0  0  0  0  0  0  0  0  0  0  0  0
    6.3620  -11.7387   26.1796 C   0  0  0  0  0  0  0  0  0  0  0  0
    6.3445  -12.9843   27.5206 S   0  0  0  0  0  0  0  0  0  0  0  0
    7.6785  -14.1410   27.2315 C   0  0  0  0  0  0  0  0  0  0  0  0
    8.2021  -14.2313   25.8555 C   0  0  0  0  0  0  0  0  0  0  0  0
    9.3996  -15.0925   25.5927 C   0  0  2  0  0  0  0  0  0  0  0  0
    9.5421  -15.0618   24.1039 N   0  0  0  0  0  0  0  0  0  0  0  0
    9.2383  -16.4847   25.9800 C   0  0  0  0  0  0  0  0  0  0  0  0
    9.1430  -17.5580   25.0916 O   0  0  0  0  0  0  0  0  0  0  0  0
    9.1706  -16.7685   27.2293 O   0  0  0  0  0  0  0  0  0  0  0  0
  2  1  1  6
  3  2  1  0
  4  5  1  0
  4  3  1  0
  6  7  1  0
  6  5  1  0
  8 15  1  0
  8  2  1  0
  9  8  2  0
 10 11  1  0
 12 11  1  0
 12 14  1  0
 12 13  1  1
 14 15  1  6
 16 14  1  0
 16 23  1  0
 17 16  2  0
 18 19  1  0
 19 20  1  0
 20 21  1  0
 22 21  1  6
 22 23  1  0
 22 24  1  0
 24 26  2  0
 24 25  1  0
M  END
$$$$
