LGL.pdb
     RDKit          3D

 21 20  0  0  1  0  0  0  0  0999 V2000
    9.2432  -12.5740   18.7480 C   0  0  0  0  0  0  0  0  0  0  0  0
    8.0851  -13.4750   18.3515 C   0  0  2  0  0  0  0  0  0  0  0  0
    7.0879  -12.6788   17.5425 C   0  0  0  0  0  0  0  0  0  0  0  0
    7.4554  -14.1210   19.5605 C   0  0  0  0  0  0  0  0  0  0  0  0
    8.5204  -14.7335   20.4024 C   0  0  2  0  0  0  0  0  0  0  0  0
    9.1014  -15.9124   19.7963 N   0  0  0  0  0  0  0  0  0  0  0  0
    8.0088  -15.1542   21.7453 C   0  0  0  0  0  0  0  0  0  0  0  0
    7.3543  -14.3873   22.4974 O   0  0  0  0  0  0  0  0  0  0  0  0
    8.2557  -16.4744   22.2245 N   0  0  0  0  0  0  0  0  0  0  0  0
    7.7241  -16.9686   23.4650 C   0  0  0  0  0  0  0  0  0  0  0  0
    8.4147  -16.2741   24.5961 C   0  0  0  0  0  0  0  0  0  0  0  0
    9.6616  -16.1637   24.5747 O   0  0  0  0  0  0  0  0  0  0  0  0
    5.7513  -12.2308   27.0425 C   0  0  0  0  0  0  0  0  0  0  0  0
    6.8515  -13.0181   26.3886 C   0  0  1  0  0  0  0  0  0  0  0  0
    7.8277  -12.0992   25.6757 C   0  0  0  0  0  0  0  0  0  0  0  0
    7.4802  -14.0077   27.2557 C   0  0  0  0  0  0  0  0  0  0  0  0
    8.4273  -15.0213   26.7808 C   0  0  2  0  0  0  0  0  0  0  0  0
    7.7044  -15.7363   25.6921 N   0  0  0  0  0  0  0  0  0  0  0  0
    9.0358  -15.9645   27.6929 C   0  0  0  0  0  0  0  0  0  0  0  0
    8.6803  -17.3304   27.5190 O   0  0  0  0  0  0  0  0  0  0  0  0
    9.8341  -15.7759   28.6227 O   0  0  0  0  0  0  0  0  0  0  0  0
  2  1  1  1
  3  2  1  0
  4  2  1  0
  5  4  1  0
  5  6  1  6
  7  5  1  0
  7  8  2  0
  9  7  1  0
 10  9  1  0
 10 11  1  0
 11 18  1  0
 12 11  2  0
 14 15  1  1
 14 13  1  0
 16 14  1  0
 17 16  1  1
 18 17  1  0
 19 20  1  0
 19 17  1  0
 21 19  2  0
M  END
$$$$
