LGL.pdb
     RDKit          3D

 21 20  0  0  1  0  0  0  0  0999 V2000
    5.0363  -12.5450   25.6280 C   0  0  0  0  0  0  0  0  0  0  0  0
    6.4705  -12.9551   25.9201 C   0  0  2  0  0  0  0  0  0  0  0  0
    7.0906  -11.9579   26.8709 C   0  0  0  0  0  0  0  0  0  0  0  0
    7.2670  -13.1042   24.6478 C   0  0  0  0  0  0  0  0  0  0  0  0
    6.9941  -14.4407   24.0497 C   0  0  2  0  0  0  0  0  0  0  0  0
    6.2450  -15.3057   24.9359 N   0  0  0  0  0  0  0  0  0  0  0  0
    8.2528  -15.1740   23.7037 C   0  0  0  0  0  0  0  0  0  0  0  0
    9.2721  -14.6002   23.2410 O   0  0  0  0  0  0  0  0  0  0  0  0
    8.3354  -16.5848   23.8941 N   0  0  0  0  0  0  0  0  0  0  0  0
    9.5093  -17.3501   23.5745 C   0  0  0  0  0  0  0  0  0  0  0  0
   10.3524  -17.4757   24.8042 C   0  0  0  0  0  0  0  0  0  0  0  0
   11.5658  -17.7605   24.6860 O   0  0  0  0  0  0  0  0  0  0  0  0
   11.4876  -14.0819   28.1002 C   0  0  0  0  0  0  0  0  0  0  0  0
   10.7459  -15.1077   28.9099 C   0  0  1  0  0  0  0  0  0  0  0  0
    9.8872  -14.4444   29.9720 C   0  0  0  0  0  0  0  0  0  0  0  0
   10.0503  -16.1132   28.1153 C   0  0  0  0  0  0  0  0  0  0  0  0
   10.7325  -17.0929   27.2641 C   0  0  2  0  0  0  0  0  0  0  0  0
    9.8233  -17.2829   26.0995 N   0  0  0  0  0  0  0  0  0  0  0  0
   11.1627  -18.3704   27.7880 C   0  0  0  0  0  0  0  0  0  0  0  0
   12.5283  -18.4679   28.1728 O   0  0  0  0  0  0  0  0  0  0  0  0
   10.5242  -19.4192   27.9615 O   0  0  0  0  0  0  0  0  0  0  0  0
  2  1  1  6
  3  2  1  0
  4  2  1  0
  5  4  1  0
  5  6  1  1
  7  5  1  0
  7  8  2  0
  9  7  1  0
 10  9  1  0
 10 11  1  0
 11 18  1  0
 12 11  2  0
 14 15  1  6
 14 13  1  0
 16 14  1  0
 17 16  1  1
 18 17  1  0
 19 20  1  0
 19 17  1  0
 21 19  2  0
M  END
$$$$
