LGL.pdb
     RDKit          3D

 21 20  0  0  1  0  0  0  0  0999 V2000
   12.2638  -20.2850   18.3946 C   0  0  0  0  0  0  0  0  0  0  0  0
   10.7824  -20.6200   18.4549 C   0  0  2  0  0  0  0  0  0  0  0  0
   10.3762  -21.3174   17.1777 C   0  0  0  0  0  0  0  0  0  0  0  0
    9.9533  -19.3886   18.7230 C   0  0  0  0  0  0  0  0  0  0  0  0
   10.2867  -18.8548   20.0729 C   0  0  2  0  0  0  0  0  0  0  0  0
    9.7608  -19.6757   21.1427 N   0  0  0  0  0  0  0  0  0  0  0  0
    9.7418  -17.4767   20.2874 C   0  0  0  0  0  0  0  0  0  0  0  0
   10.1061  -16.4847   19.6052 O   0  0  0  0  0  0  0  0  0  0  0  0
    8.7659  -17.2418   21.3003 N   0  0  0  0  0  0  0  0  0  0  0  0
    8.1348  -15.9658   21.4979 C   0  0  0  0  0  0  0  0  0  0  0  0
    8.5722  -15.4108   22.8168 C   0  0  0  0  0  0  0  0  0  0  0  0
    9.7912  -15.2119   23.0215 O   0  0  0  0  0  0  0  0  0  0  0  0
    7.9632  -11.4936   26.4487 C   0  0  0  0  0  0  0  0  0  0  0  0
    6.9418  -12.5917   26.5421 C   0  0  1  0  0  0  0  0  0  0  0  0
    5.5732  -12.0328   26.8884 C   0  0  0  0  0  0  0  0  0  0  0  0
    6.9466  -13.5153   25.4137 C   0  0  0  0  0  0  0  0  0  0  0  0
    8.0951  -14.3515   25.0512 C   0  0  2  0  0  0  0  0  0  0  0  0
    7.6523  -15.1023   23.8432 N   0  0  0  0  0  0  0  0  0  0  0  0
    8.7045  -15.2452   26.0112 C   0  0  0  0  0  0  0  0  0  0  0  0
    9.9732  -14.8543   26.5213 O   0  0  0  0  0  0  0  0  0  0  0  0
    8.2955  -16.3204   26.4741 O   0  0  0  0  0  0  0  0  0  0  0  0
  2  1  1  6
  3  2  1  0
  4  2  1  0
  5  4  1  0
  5  6  1  1
  7  5  1  0
  7  8  2  0
  9  7  1  0
 10  9  1  0
 10 11  1  0
 11 18  1  0
 12 11  2  0
 14 15  1  6
 14 13  1  0
 16 14  1  0
 17 16  1  1
 18 17  1  0
 19 20  1  0
 19 17  1  0
 21 19  2  0
M  END
$$$$
