LGL.pdb
     RDKit          3D

 21 20  0  0  1  0  0  0  0  0999 V2000
    9.6135  -12.8218   18.8751 C   0  0  0  0  0  0  0  0  0  0  0  0
    8.3093  -13.4357   18.3927 C   0  0  2  0  0  0  0  0  0  0  0  0
    7.4225  -12.3476   17.8338 C   0  0  0  0  0  0  0  0  0  0  0  0
    7.6328  -14.2171   19.4914 C   0  0  0  0  0  0  0  0  0  0  0  0
    8.6680  -14.8650   20.3441 C   0  0  2  0  0  0  0  0  0  0  0  0
    9.1187  -16.1318   19.8083 N   0  0  0  0  0  0  0  0  0  0  0  0
    8.1690  -15.1424   21.7283 C   0  0  0  0  0  0  0  0  0  0  0  0
    7.6778  -14.2516   22.4682 O   0  0  0  0  0  0  0  0  0  0  0  0
    8.2380  -16.4622   22.2637 N   0  0  0  0  0  0  0  0  0  0  0  0
    7.6366  -16.8311   23.5159 C   0  0  0  0  0  0  0  0  0  0  0  0
    8.3167  -16.0802   24.6169 C   0  0  0  0  0  0  0  0  0  0  0  0
    9.5317  -15.7996   24.5048 O   0  0  0  0  0  0  0  0  0  0  0  0
    5.8673  -11.9950   26.9437 C   0  0  0  0  0  0  0  0  0  0  0  0
    6.9237  -12.8862   26.3540 C   0  0  1  0  0  0  0  0  0  0  0  0
    7.9823  -12.0707   25.6330 C   0  0  0  0  0  0  0  0  0  0  0  0
    7.4561  -13.8808   27.2778 C   0  0  0  0  0  0  0  0  0  0  0  0
    8.3559  -14.9663   26.8753 C   0  0  2  0  0  0  0  0  0  0  0  0
    7.6313  -15.6752   25.7837 N   0  0  0  0  0  0  0  0  0  0  0  0
    8.8704  -15.9110   27.8420 C   0  0  0  0  0  0  0  0  0  0  0  0
    9.8104  -15.4045   28.7815 O   0  0  0  0  0  0  0  0  0  0  0  0
    8.6227  -17.1167   27.9914 O   0  0  0  0  0  0  0  0  0  0  0  0
  2  1  1  1
  3  2  1  0
  4  2  1  0
  5  4  1  0
  5  6  1  6
  7  5  1  0
  7  8  2  0
  9  7  1  0
 10  9  1  0
 10 11  1  0
 11 18  1  0
 12 11  2  0
 14 15  1  1
 14 13  1  0
 16 14  1  0
 17 16  1  1
 18 17  1  0
 19 20  1  0
 19 17  1  0
 21 19  2  0
M  END
$$$$
