LGL.pdb
     RDKit          3D

 21 20  0  0  1  0  0  0  0  0999 V2000
    6.5749  -14.1325   19.3859 C   0  0  0  0  0  0  0  0  0  0  0  0
    7.4838  -13.5465   20.4541 C   0  0  2  0  0  0  0  0  0  0  0  0
    7.4927  -12.0407   20.3304 C   0  0  0  0  0  0  0  0  0  0  0  0
    8.8705  -14.1352   20.3759 C   0  0  0  0  0  0  0  0  0  0  0  0
    8.8578  -15.5049   20.9608 C   0  0  2  0  0  0  0  0  0  0  0  0
    8.0373  -15.5959   22.1496 N   0  0  0  0  0  0  0  0  0  0  0  0
   10.2272  -15.9659   21.3531 C   0  0  0  0  0  0  0  0  0  0  0  0
   11.2008  -15.9691   20.5566 O   0  0  0  0  0  0  0  0  0  0  0  0
   10.4750  -16.4281   22.6792 N   0  0  0  0  0  0  0  0  0  0  0  0
   11.7908  -16.7413   23.1655 C   0  0  0  0  0  0  0  0  0  0  0  0
   11.7338  -16.8807   24.6542 C   0  0  0  0  0  0  0  0  0  0  0  0
   12.7779  -17.1719   25.2806 O   0  0  0  0  0  0  0  0  0  0  0  0
   11.1004  -14.1815   28.9890 C   0  0  0  0  0  0  0  0  0  0  0  0
    9.7935  -14.4562   28.3002 C   0  0  1  0  0  0  0  0  0  0  0  0
    8.9252  -13.2111   28.2655 C   0  0  0  0  0  0  0  0  0  0  0  0
    9.9212  -15.1366   27.0168 C   0  0  0  0  0  0  0  0  0  0  0  0
   10.5770  -16.4369   26.8468 C   0  0  2  0  0  0  0  0  0  0  0  0
   10.5366  -16.6939   25.3800 N   0  0  0  0  0  0  0  0  0  0  0  0
   10.1334  -17.6018   27.5801 C   0  0  0  0  0  0  0  0  0  0  0  0
   10.8869  -17.9449   28.7364 O   0  0  0  0  0  0  0  0  0  0  0  0
    9.1836  -18.3690   27.3634 O   0  0  0  0  0  0  0  0  0  0  0  0
  2  1  1  6
  3  2  1  0
  4  2  1  0
  5  4  1  0
  5  6  1  1
  7  5  1  0
  7  8  2  0
  9  7  1  0
 10  9  1  0
 10 11  1  0
 11 18  1  0
 12 11  2  0
 14 15  1  6
 14 13  1  0
 16 14  1  0
 17 16  1  6
 18 17  1  0
 19 20  1  0
 19 17  1  0
 21 19  2  0
M  END
$$$$
