LGL.pdb
     RDKit          3D

 21 20  0  0  1  0  0  0  0  0999 V2000
    8.3175  -12.5027   21.0436 C   0  0  0  0  0  0  0  0  0  0  0  0
    8.0626  -13.5663   19.9881 C   0  0  2  0  0  0  0  0  0  0  0  0
    7.6244  -12.9004   18.7045 C   0  0  0  0  0  0  0  0  0  0  0  0
    7.0647  -14.5891   20.4715 C   0  0  0  0  0  0  0  0  0  0  0  0
    7.5018  -15.1168   21.7940 C   0  0  2  0  0  0  0  0  0  0  0  0
    8.8248  -15.7022   21.7511 N   0  0  0  0  0  0  0  0  0  0  0  0
    6.5831  -16.1800   22.3112 C   0  0  0  0  0  0  0  0  0  0  0  0
    5.6133  -16.6269   21.6463 O   0  0  0  0  0  0  0  0  0  0  0  0
    6.7865  -16.7328   23.6098 N   0  0  0  0  0  0  0  0  0  0  0  0
    7.8802  -17.6108   23.9240 C   0  0  0  0  0  0  0  0  0  0  0  0
    8.4427  -17.2228   25.2551 C   0  0  0  0  0  0  0  0  0  0  0  0
    9.4464  -17.8289   25.6939 O   0  0  0  0  0  0  0  0  0  0  0  0
    6.2115  -12.4364   26.7186 C   0  0  0  0  0  0  0  0  0  0  0  0
    7.2992  -13.3341   26.2002 C   0  0  1  0  0  0  0  0  0  0  0  0
    8.2783  -12.5587   25.3367 C   0  0  0  0  0  0  0  0  0  0  0  0
    7.9255  -14.1700   27.2178 C   0  0  0  0  0  0  0  0  0  0  0  0
    8.7397  -15.3506   26.9132 C   0  0  2  0  0  0  0  0  0  0  0  0
    7.8770  -16.1914   26.0368 N   0  0  0  0  0  0  0  0  0  0  0  0
    9.3264  -16.1489   27.9669 C   0  0  0  0  0  0  0  0  0  0  0  0
    8.9195  -17.5102   28.0291 O   0  0  0  0  0  0  0  0  0  0  0  0
   10.1439  -15.8366   28.8454 O   0  0  0  0  0  0  0  0  0  0  0  0
  2  1  1  1
  3  2  1  0
  4  2  1  0
  5  4  1  0
  5  6  1  6
  7  5  1  0
  7  8  2  0
  9  7  1  0
 10  9  1  0
 10 11  1  0
 11 18  1  0
 12 11  2  0
 14 15  1  1
 14 13  1  0
 16 14  1  0
 17 16  1  1
 18 17  1  0
 19 20  1  0
 19 17  1  0
 21 19  2  0
M  END
$$$$
