LGL.pdb
     RDKit          3D

 21 20  0  0  1  0  0  0  0  0999 V2000
    9.3453  -13.5771   19.8513 C   0  0  0  0  0  0  0  0  0  0  0  0
    7.9564  -13.8204   19.2840 C   0  0  2  0  0  0  0  0  0  0  0  0
    7.4022  -12.5214   18.7470 C   0  0  0  0  0  0  0  0  0  0  0  0
    7.0478  -14.4488   20.3112 C   0  0  0  0  0  0  0  0  0  0  0  0
    7.8620  -15.2620   21.2569 C   0  0  2  0  0  0  0  0  0  0  0  0
    7.8133  -16.6776   20.9597 N   0  0  0  0  0  0  0  0  0  0  0  0
    7.4041  -15.1092   22.6743 C   0  0  0  0  0  0  0  0  0  0  0  0
    7.3539  -13.9968   23.2594 O   0  0  0  0  0  0  0  0  0  0  0  0
    7.0000  -16.2530   23.4239 N   0  0  0  0  0  0  0  0  0  0  0  0
    6.6066  -16.1848   24.8046 C   0  0  0  0  0  0  0  0  0  0  0  0
    7.7913  -15.7797   25.6238 C   0  0  0  0  0  0  0  0  0  0  0  0
    7.6316  -14.9818   26.5753 O   0  0  0  0  0  0  0  0  0  0  0  0
    9.6764  -15.1877   29.8415 C   0  0  0  0  0  0  0  0  0  0  0  0
    9.4437  -14.9196   28.3814 C   0  0  1  0  0  0  0  0  0  0  0  0
    9.8163  -13.4914   28.0249 C   0  0  0  0  0  0  0  0  0  0  0  0
   10.0021  -15.9279   27.4882 C   0  0  0  0  0  0  0  0  0  0  0  0
   10.2693  -15.6964   26.0652 C   0  0  2  0  0  0  0  0  0  0  0  0
    9.0894  -16.2693   25.3590 N   0  0  0  0  0  0  0  0  0  0  0  0
   11.4986  -16.1464   25.4504 C   0  0  0  0  0  0  0  0  0  0  0  0
   12.5937  -15.2398   25.4907 O   0  0  0  0  0  0  0  0  0  0  0  0
   11.7627  -17.2156   24.8807 O   0  0  0  0  0  0  0  0  0  0  0  0
  2  1  1  1
  3  2  1  0
  4  2  1  0
  5  4  1  0
  5  6  1  6
  7  5  1  0
  7  8  2  0
  9  7  1  0
 10  9  1  0
 10 11  1  0
 11 18  1  0
 12 11  2  0
 14 15  1  6
 14 13  1  0
 16 14  1  0
 17 16  1  1
 18 17  1  0
 19 20  1  0
 19 17  1  0
 21 19  2  0
M  END
$$$$
