LGL.pdb
     RDKit          3D

 21 20  0  0  1  0  0  0  0  0999 V2000
    9.3618  -12.5966   18.8941 C   0  0  0  0  0  0  0  0  0  0  0  0
    8.2385  -13.4730   18.3643 C   0  0  2  0  0  0  0  0  0  0  0  0
    7.2399  -12.6120   17.6265 C   0  0  0  0  0  0  0  0  0  0  0  0
    7.5976  -14.2708   19.4725 C   0  0  0  0  0  0  0  0  0  0  0  0
    8.6575  -14.7975   20.3766 C   0  0  2  0  0  0  0  0  0  0  0  0
    9.3102  -15.9746   19.8443 N   0  0  0  0  0  0  0  0  0  0  0  0
    8.1172  -15.1816   21.7192 C   0  0  0  0  0  0  0  0  0  0  0  0
    7.4296  -14.4016   22.4270 O   0  0  0  0  0  0  0  0  0  0  0  0
    8.3736  -16.4801   22.2499 N   0  0  0  0  0  0  0  0  0  0  0  0
    7.8962  -16.9079   23.5363 C   0  0  0  0  0  0  0  0  0  0  0  0
    8.5917  -16.1142   24.5969 C   0  0  0  0  0  0  0  0  0  0  0  0
    9.8155  -15.8779   24.4789 O   0  0  0  0  0  0  0  0  0  0  0  0
    5.8057  -12.1900   27.1111 C   0  0  0  0  0  0  0  0  0  0  0  0
    6.8954  -12.9458   26.4046 C   0  0  1  0  0  0  0  0  0  0  0  0
    7.7636  -12.0081   25.5846 C   0  0  0  0  0  0  0  0  0  0  0  0
    7.6406  -13.8644   27.2573 C   0  0  0  0  0  0  0  0  0  0  0  0
    8.6368  -14.8154   26.7542 C   0  0  2  0  0  0  0  0  0  0  0  0
    7.9113  -15.6201   25.7318 N   0  0  0  0  0  0  0  0  0  0  0  0
    9.3714  -15.6776   27.6534 C   0  0  0  0  0  0  0  0  0  0  0  0
    9.0807  -17.0675   27.5740 O   0  0  0  0  0  0  0  0  0  0  0  0
   10.2322  -15.4002   28.5017 O   0  0  0  0  0  0  0  0  0  0  0  0
  2  1  1  1
  3  2  1  0
  4  2  1  0
  5  4  1  0
  5  6  1  6
  7  5  1  0
  7  8  2  0
  9  7  1  0
 10  9  1  0
 10 11  1  0
 11 18  1  0
 12 11  2  0
 14 15  1  1
 14 13  1  0
 16 14  1  0
 17 16  1  1
 18 17  1  0
 19 20  1  0
 19 17  1  0
 21 19  2  0
M  END
$$$$
