LGL.pdb
     RDKit          3D

 21 20  0  0  1  0  0  0  0  0999 V2000
    7.9043  -13.8069   19.2141 C   0  0  0  0  0  0  0  0  0  0  0  0
    7.2903  -13.5013   20.5706 C   0  0  2  0  0  0  0  0  0  0  0  0
    6.9665  -12.0277   20.6510 C   0  0  0  0  0  0  0  0  0  0  0  0
    8.1918  -13.9511   21.6933 C   0  0  0  0  0  0  0  0  0  0  0  0
    8.5667  -15.3771   21.4826 C   0  0  2  0  0  0  0  0  0  0  0  0
    7.6484  -16.2953   22.1217 N   0  0  0  0  0  0  0  0  0  0  0  0
    9.9270  -15.6909   22.0238 C   0  0  0  0  0  0  0  0  0  0  0  0
   10.9687  -15.1020   21.6359 O   0  0  0  0  0  0  0  0  0  0  0  0
   10.0862  -16.6953   23.0235 N   0  0  0  0  0  0  0  0  0  0  0  0
   11.3679  -17.0848   23.5443 C   0  0  0  0  0  0  0  0  0  0  0  0
   11.4503  -16.6723   24.9802 C   0  0  0  0  0  0  0  0  0  0  0  0
   12.5628  -16.6788   25.5544 O   0  0  0  0  0  0  0  0  0  0  0  0
    8.3731  -13.7515   25.6399 C   0  0  0  0  0  0  0  0  0  0  0  0
    9.3645  -13.7717   26.7689 C   0  0  1  0  0  0  0  0  0  0  0  0
    9.2039  -12.5493   27.6551 C   0  0  0  0  0  0  0  0  0  0  0  0
    9.4260  -15.0360   27.4929 C   0  0  0  0  0  0  0  0  0  0  0  0
   10.3872  -16.1011   27.1906 C   0  0  2  0  0  0  0  0  0  0  0  0
   10.3104  -16.2741   25.7130 N   0  0  0  0  0  0  0  0  0  0  0  0
   10.3204  -17.3827   27.8574 C   0  0  0  0  0  0  0  0  0  0  0  0
   10.7744  -17.4180   29.2047 O   0  0  0  0  0  0  0  0  0  0  0  0
    9.9241  -18.4811   27.4402 O   0  0  0  0  0  0  0  0  0  0  0  0
  2  1  1  6
  3  2  1  0
  4  2  1  0
  5  4  1  0
  5  6  1  1
  7  5  1  0
  7  8  2  0
  9  7  1  0
 10  9  1  0
 10 11  1  0
 11 18  1  0
 12 11  2  0
 14 15  1  1
 14 13  1  0
 16 14  1  0
 17 16  1  1
 18 17  1  0
 19 20  1  0
 19 17  1  0
 21 19  2  0
M  END
$$$$
