HVC.pdb
     RDKit          3D

 24 24  0  0  1  0  0  0  0  0999 V2000
   28.3551  -21.2001  -17.7212 N   0  0  0  0  0  0  0  0  0  0  0  0
   27.2351  -20.4675  -17.1953 C   0  0  1  0  0  0  0  0  0  0  0  0
   26.3326  -20.0956  -18.3476 C   0  0  0  0  0  0  0  0  0  0  0  0
   27.0466  -19.0846  -19.1658 C   0  0  0  0  0  0  0  0  0  0  0  0
   27.4722  -19.2157  -20.4904 C   0  0  0  0  0  0  0  0  0  0  0  0
   28.0776  -18.0872  -20.8747 N   0  0  0  0  0  0  0  0  0  0  0  0
   28.0614  -17.2294  -19.8513 C   0  0  0  0  0  0  0  0  0  0  0  0
   27.4304  -17.8459  -18.8124 N   0  0  0  0  0  0  0  0  0  0  0  0
   26.5145  -21.2243  -16.1388 C   0  0  0  0  0  0  0  0  0  0  0  0
   26.1438  -22.4055  -16.3595 O   0  0  0  0  0  0  0  0  0  0  0  0
   25.4709  -20.2613  -11.5983 C   0  0  0  0  0  0  0  0  0  0  0  0
   26.1696  -21.2476  -12.4756 C   0  0  2  0  0  0  0  0  0  0  0  0
   27.6374  -20.9586  -12.6297 C   0  0  0  0  0  0  0  0  0  0  0  0
   25.5068  -21.4066  -13.8272 C   0  0  2  0  0  0  0  0  0  0  0  0
   26.2107  -20.6803  -14.8599 N   0  0  0  0  0  0  0  0  0  0  0  0
   24.0677  -21.0437  -13.7801 C   0  0  0  0  0  0  0  0  0  0  0  0
   23.6699  -19.8568  -13.8928 O   0  0  0  0  0  0  0  0  0  0  0  0
   23.0368  -22.0225  -13.6032 N   0  0  0  0  0  0  0  0  0  0  0  0
   21.6310  -21.6791  -13.5138 C   0  0  1  0  0  0  0  0  0  0  0  0
   20.7279  -22.8562  -13.7339 C   0  0  0  0  0  0  0  0  0  0  0  0
   19.6267  -22.9648  -12.2841 S   0  0  0  0  0  0  0  0  0  0  0  0
   21.3266  -20.9427  -12.2606 C   0  0  0  0  0  0  0  0  0  0  0  0
   22.0336  -21.2352  -11.1113 O   0  0  0  0  0  0  0  0  0  0  0  0
   20.4413  -20.0512  -12.1954 O   0  0  0  0  0  0  0  0  0  0  0  0
  2  1  1  6
  3  2  1  0
  4  3  1  0
  5  4  2  0
  6  7  1  0
  6  5  1  0
  7  8  2  0
  8  4  1  0
  9  2  1  0
  9 10  2  0
 12 11  1  6
 12 13  1  0
 12 14  1  0
 14 15  1  6
 14 16  1  0
 15  9  1  0
 16 17  2  0
 16 18  1  0
 18 19  1  0
 19 22  1  0
 19 20  1  1
 20 21  1  0
 22 24  2  0
 22 23  1  0
M  END
$$$$
