HVC.pdb
     RDKit          3D

 24 24  0  0  1  0  0  0  0  0999 V2000
   27.6774  -20.6915  -16.5829 N   0  0  0  0  0  0  0  0  0  0  0  0
   26.7322  -19.8792  -15.8656 C   0  0  1  0  0  0  0  0  0  0  0  0
   25.8998  -19.1236  -16.8739 C   0  0  0  0  0  0  0  0  0  0  0  0
   26.7860  -18.1314  -17.5308 C   0  0  0  0  0  0  0  0  0  0  0  0
   26.9918  -16.8013  -17.1548 C   0  0  0  0  0  0  0  0  0  0  0  0
   27.8624  -16.2331  -17.9955 N   0  0  0  0  0  0  0  0  0  0  0  0
   28.2292  -17.1425  -18.9021 C   0  0  0  0  0  0  0  0  0  0  0  0
   27.5678  -18.2981  -18.6113 N   0  0  0  0  0  0  0  0  0  0  0  0
   25.8962  -20.6799  -14.9338 C   0  0  0  0  0  0  0  0  0  0  0  0
   25.5378  -21.8411  -15.2574 O   0  0  0  0  0  0  0  0  0  0  0  0
   24.3737  -21.7065  -10.3718 C   0  0  0  0  0  0  0  0  0  0  0  0
   25.1407  -20.8486  -11.3238 C   0  0  2  0  0  0  0  0  0  0  0  0
   25.1959  -19.4068  -10.8997 C   0  0  0  0  0  0  0  0  0  0  0  0
   24.6533  -20.9722  -12.7516 C   0  0  2  0  0  0  0  0  0  0  0  0
   25.4653  -20.2008  -13.6655 N   0  0  0  0  0  0  0  0  0  0  0  0
   23.2128  -20.6332  -12.8723 C   0  0  0  0  0  0  0  0  0  0  0  0
   22.8073  -19.4476  -12.9707 O   0  0  0  0  0  0  0  0  0  0  0  0
   22.1890  -21.6352  -12.8847 N   0  0  0  0  0  0  0  0  0  0  0  0
   20.7762  -21.3175  -12.9560 C   0  0  1  0  0  0  0  0  0  0  0  0
   19.9350  -22.4889  -13.3681 C   0  0  0  0  0  0  0  0  0  0  0  0
   20.7443  -23.2462  -14.8165 S   0  0  0  0  0  0  0  0  0  0  0  0
   20.2971  -20.6720  -11.7073 C   0  0  0  0  0  0  0  0  0  0  0  0
   19.2749  -19.7459  -11.7697 O   0  0  0  0  0  0  0  0  0  0  0  0
   20.7859  -20.9328  -10.5778 O   0  0  0  0  0  0  0  0  0  0  0  0
  2  1  1  6
  3  2  1  0
  4  3  1  0
  5  4  2  0
  6  7  1  0
  6  5  1  0
  7  8  2  0
  8  4  1  0
  9  2  1  0
  9 10  2  0
 12 11  1  1
 12 13  1  0
 12 14  1  0
 14 15  1  6
 14 16  1  0
 15  9  1  0
 16 17  2  0
 16 18  1  0
 18 19  1  0
 19 22  1  0
 19 20  1  1
 20 21  1  0
 22 24  2  0
 22 23  1  0
M  END
$$$$
