HVC.pdb
     RDKit          3D

 24 24  0  0  1  0  0  0  0  0999 V2000
   27.6507  -21.6300  -19.8561 N   0  0  0  0  0  0  0  0  0  0  0  0
   26.7278  -20.7067  -19.2530 C   0  0  1  0  0  0  0  0  0  0  0  0
   25.3514  -20.9869  -19.8075 C   0  0  0  0  0  0  0  0  0  0  0  0
   25.0607  -19.9487  -20.8269 C   0  0  0  0  0  0  0  0  0  0  0  0
   24.7631  -20.1491  -22.1775 C   0  0  0  0  0  0  0  0  0  0  0  0
   24.5627  -18.9660  -22.7671 N   0  0  0  0  0  0  0  0  0  0  0  0
   24.7187  -18.0060  -21.8519 C   0  0  0  0  0  0  0  0  0  0  0  0
   25.0224  -18.6143  -20.6706 N   0  0  0  0  0  0  0  0  0  0  0  0
   26.7592  -20.7696  -17.7687 C   0  0  0  0  0  0  0  0  0  0  0  0
   27.1092  -21.8330  -17.1960 O   0  0  0  0  0  0  0  0  0  0  0  0
   27.1603  -18.2687  -13.5021 C   0  0  0  0  0  0  0  0  0  0  0  0
   26.9845  -18.3023  -14.9849 C   0  0  2  0  0  0  0  0  0  0  0  0
   26.0426  -17.2432  -15.4877 C   0  0  0  0  0  0  0  0  0  0  0  0
   26.5840  -19.6683  -15.4996 C   0  0  2  0  0  0  0  0  0  0  0  0
   26.4084  -19.6719  -16.9344 N   0  0  0  0  0  0  0  0  0  0  0  0
   25.3860  -20.1918  -14.7956 C   0  0  0  0  0  0  0  0  0  0  0  0
   24.2480  -20.2109  -15.3288 O   0  0  0  0  0  0  0  0  0  0  0  0
   25.4476  -20.7100  -13.4614 N   0  0  0  0  0  0  0  0  0  0  0  0
   24.2707  -21.1171  -12.7190 C   0  0  1  0  0  0  0  0  0  0  0  0
   24.6031  -21.7528  -11.4018 C   0  0  0  0  0  0  0  0  0  0  0  0
   25.9586  -22.9349  -11.7045 S   0  0  0  0  0  0  0  0  0  0  0  0
   23.2914  -20.0077  -12.5952 C   0  0  0  0  0  0  0  0  0  0  0  0
   21.9648  -20.2967  -12.3439 O   0  0  0  0  0  0  0  0  0  0  0  0
   23.6179  -18.7981  -12.7103 O   0  0  0  0  0  0  0  0  0  0  0  0
  2  1  1  6
  3  2  1  0
  4  3  1  0
  5  4  2  0
  6  7  1  0
  6  5  1  0
  7  8  2  0
  8  4  1  0
  9  2  1  0
  9 10  2  0
 12 11  1  1
 12 13  1  0
 12 14  1  0
 14 15  1  6
 14 16  1  0
 15  9  1  0
 16 17  2  0
 16 18  1  0
 18 19  1  0
 19 22  1  0
 19 20  1  1
 20 21  1  0
 22 24  2  0
 22 23  1  0
M  END
$$$$
