HVC.pdb
     RDKit          3D

 24 24  0  0  1  0  0  0  0  0999 V2000
   17.1144  -12.4248  -16.3772 N   0  0  0  0  0  0  0  0  0  0  0  0
   17.0992  -10.9887  -16.3061 C   0  0  1  0  0  0  0  0  0  0  0  0
   15.9894  -10.5753  -15.3690 C   0  0  0  0  0  0  0  0  0  0  0  0
   14.7016  -10.8755  -16.0419 C   0  0  0  0  0  0  0  0  0  0  0  0
   13.7701  -11.8551  -15.6875 C   0  0  0  0  0  0  0  0  0  0  0  0
   12.7389  -11.8137  -16.5374 N   0  0  0  0  0  0  0  0  0  0  0  0
   12.9649  -10.8456  -17.4291 C   0  0  0  0  0  0  0  0  0  0  0  0
   14.1648  -10.2781  -17.1196 N   0  0  0  0  0  0  0  0  0  0  0  0
   18.4154  -10.4322  -15.8986 C   0  0  0  0  0  0  0  0  0  0  0  0
   18.9918  -10.8786  -14.8740 O   0  0  0  0  0  0  0  0  0  0  0  0
   21.6538  -10.3777  -17.8260 C   0  0  0  0  0  0  0  0  0  0  0  0
   21.3573   -8.9723  -17.4165 C   0  0  2  0  0  0  0  0  0  0  0  0
   22.5974   -8.1702  -17.1333 C   0  0  0  0  0  0  0  0  0  0  0  0
   20.3852   -8.8888  -16.2591 C   0  0  2  0  0  0  0  0  0  0  0  0
   19.0803   -9.3986  -16.6151 N   0  0  0  0  0  0  0  0  0  0  0  0
   20.3080   -7.5139  -15.7037 C   0  0  0  0  0  0  0  0  0  0  0  0
   19.7696   -6.5658  -16.3289 O   0  0  0  0  0  0  0  0  0  0  0  0
   20.8424   -7.1765  -14.4181 N   0  0  0  0  0  0  0  0  0  0  0  0
   20.7852   -5.8364  -13.8679 C   0  0  1  0  0  0  0  0  0  0  0  0
   20.2092   -5.7982  -12.4836 C   0  0  0  0  0  0  0  0  0  0  0  0
   21.3039   -6.7970  -11.4203 S   0  0  0  0  0  0  0  0  0  0  0  0
   22.0972   -5.1478  -13.9678 C   0  0  0  0  0  0  0  0  0  0  0  0
   22.1719   -3.7897  -13.7304 O   0  0  0  0  0  0  0  0  0  0  0  0
   23.1602   -5.7524  -14.2630 O   0  0  0  0  0  0  0  0  0  0  0  0
  2  1  1  1
  3  2  1  0
  4  3  1  0
  5  4  2  0
  6  7  1  0
  6  5  1  0
  7  8  2  0
  8  4  1  0
  9  2  1  0
  9 10  2  0
 12 11  1  1
 12 13  1  0
 12 14  1  0
 14 15  1  6
 14 16  1  0
 15  9  1  0
 16 17  2  0
 16 18  1  0
 18 19  1  0
 19 22  1  0
 19 20  1  1
 20 21  1  0
 22 24  2  0
 22 23  1  0
M  END
$$$$
