HVC.pdb
     RDKit          3D

 24 24  0  0  1  0  0  0  0  0999 V2000
   17.7149  -11.7382  -17.5068 N   0  0  0  0  0  0  0  0  0  0  0  0
   18.6395  -10.6788  -17.8076 C   0  0  1  0  0  0  0  0  0  0  0  0
   17.9705   -9.7298  -18.7732 C   0  0  0  0  0  0  0  0  0  0  0  0
   17.8210  -10.4407  -20.0669 C   0  0  0  0  0  0  0  0  0  0  0  0
   18.8322  -10.7683  -20.9740 C   0  0  0  0  0  0  0  0  0  0  0  0
   18.2985  -11.4066  -22.0206 N   0  0  0  0  0  0  0  0  0  0  0  0
   16.9808  -11.5059  -21.8278 C   0  0  0  0  0  0  0  0  0  0  0  0
   16.6977  -10.9139  -20.6332 N   0  0  0  0  0  0  0  0  0  0  0  0
   19.1206   -9.9881  -16.5831 C   0  0  0  0  0  0  0  0  0  0  0  0
   18.2952   -9.6200  -15.7087 O   0  0  0  0  0  0  0  0  0  0  0  0
   22.6327   -9.2209  -13.2511 C   0  0  0  0  0  0  0  0  0  0  0  0
   22.1023   -9.8644  -14.4901 C   0  0  2  0  0  0  0  0  0  0  0  0
   23.1761  -10.1710  -15.4973 C   0  0  0  0  0  0  0  0  0  0  0  0
   20.9756   -9.0783  -15.1258 C   0  0  2  0  0  0  0  0  0  0  0  0
   20.4933   -9.7105  -16.3330 N   0  0  0  0  0  0  0  0  0  0  0  0
   21.3562   -7.6620  -15.3586 C   0  0  0  0  0  0  0  0  0  0  0  0
   22.0214   -7.3011  -16.3620 O   0  0  0  0  0  0  0  0  0  0  0  0
   20.9903   -6.6126  -14.4547 N   0  0  0  0  0  0  0  0  0  0  0  0
   21.4404   -5.2435  -14.6131 C   0  0  1  0  0  0  0  0  0  0  0  0
   20.3154   -4.2857  -14.8711 C   0  0  0  0  0  0  0  0  0  0  0  0
   21.0457   -2.6178  -14.9773 S   0  0  0  0  0  0  0  0  0  0  0  0
   22.3133   -4.8212  -13.4884 C   0  0  0  0  0  0  0  0  0  0  0  0
   23.4108   -4.0229  -13.7422 O   0  0  0  0  0  0  0  0  0  0  0  0
   22.0969   -5.1616  -12.2966 O   0  0  0  0  0  0  0  0  0  0  0  0
  2  1  1  1
  3  2  1  0
  4  3  1  0
  5  4  2  0
  6  7  1  0
  6  5  1  0
  7  8  2  0
  8  4  1  0
  9  2  1  0
  9 10  2  0
 12 11  1  1
 12 13  1  0
 12 14  1  0
 14 15  1  6
 14 16  1  0
 15  9  1  0
 16 17  2  0
 16 18  1  0
 18 19  1  0
 19 22  1  0
 19 20  1  1
 20 21  1  0
 22 24  2  0
 22 23  1  0
M  END
$$$$
