HVC.pdb
     RDKit          3D

 24 24  0  0  1  0  0  0  0  0999 V2000
   19.3177  -13.3360  -16.7269 N   0  0  0  0  0  0  0  0  0  0  0  0
   19.6709  -12.1043  -17.3794 C   0  0  1  0  0  0  0  0  0  0  0  0
   18.7931  -11.9484  -18.5983 C   0  0  0  0  0  0  0  0  0  0  0  0
   19.1473  -13.0340  -19.5456 C   0  0  0  0  0  0  0  0  0  0  0  0
   20.2869  -13.1164  -20.3501 C   0  0  0  0  0  0  0  0  0  0  0  0
   20.2438  -14.2457  -21.0646 N   0  0  0  0  0  0  0  0  0  0  0  0
   19.1209  -14.8990  -20.7550 C   0  0  0  0  0  0  0  0  0  0  0  0
   18.4575  -14.1527  -19.8273 N   0  0  0  0  0  0  0  0  0  0  0  0
   19.5758  -10.9366  -16.4653 C   0  0  0  0  0  0  0  0  0  0  0  0
   18.5935  -10.8310  -15.6874 O   0  0  0  0  0  0  0  0  0  0  0  0
   23.0298   -8.5890  -15.3793 C   0  0  0  0  0  0  0  0  0  0  0  0
   21.7843   -8.8262  -14.5899 C   0  0  2  0  0  0  0  0  0  0  0  0
   21.8557  -10.0651  -13.7404 C   0  0  0  0  0  0  0  0  0  0  0  0
   20.5363   -8.8313  -15.4466 C   0  0  2  0  0  0  0  0  0  0  0  0
   20.5534   -9.9042  -16.4152 N   0  0  0  0  0  0  0  0  0  0  0  0
   20.3040   -7.5124  -16.0879 C   0  0  0  0  0  0  0  0  0  0  0  0
   20.9195   -7.1502  -17.1221 O   0  0  0  0  0  0  0  0  0  0  0  0
   19.3625   -6.5647  -15.5702 N   0  0  0  0  0  0  0  0  0  0  0  0
   19.0723   -5.3041  -16.2249 C   0  0  1  0  0  0  0  0  0  0  0  0
   17.6453   -4.8742  -16.0564 C   0  0  0  0  0  0  0  0  0  0  0  0
   16.5999   -6.2284  -16.6887 S   0  0  0  0  0  0  0  0  0  0  0  0
   20.0437   -4.2500  -15.8369 C   0  0  0  0  0  0  0  0  0  0  0  0
   20.2006   -3.1400  -16.6430 O   0  0  0  0  0  0  0  0  0  0  0  0
   20.7414   -4.3213  -14.7924 O   0  0  0  0  0  0  0  0  0  0  0  0
  2  1  1  1
  3  2  1  0
  4  3  1  0
  5  4  2  0
  6  7  1  0
  6  5  1  0
  7  8  2  0
  8  4  1  0
  9  2  1  0
  9 10  2  0
 12 11  1  6
 12 13  1  0
 12 14  1  0
 14 15  1  6
 14 16  1  0
 15  9  1  0
 16 17  2  0
 16 18  1  0
 18 19  1  0
 19 22  1  0
 19 20  1  1
 20 21  1  0
 22 24  2  0
 22 23  1  0
M  END
$$$$
