HVC.pdb
     RDKit          3D

 24 24  0  0  1  0  0  0  0  0999 V2000
   29.1854  -22.9141  -18.1107 N   0  0  0  0  0  0  0  0  0  0  0  0
   27.8761  -22.4641  -17.7220 C   0  0  1  0  0  0  0  0  0  0  0  0
   26.9608  -23.6643  -17.6734 C   0  0  0  0  0  0  0  0  0  0  0  0
   26.4753  -23.9119  -19.0534 C   0  0  0  0  0  0  0  0  0  0  0  0
   26.3480  -25.1459  -19.6967 C   0  0  0  0  0  0  0  0  0  0  0  0
   25.8764  -24.9541  -20.9330 N   0  0  0  0  0  0  0  0  0  0  0  0
   25.6929  -23.6441  -21.1167 C   0  0  0  0  0  0  0  0  0  0  0  0
   26.0607  -23.0153  -19.9649 N   0  0  0  0  0  0  0  0  0  0  0  0
   27.8963  -21.7203  -16.4357 C   0  0  0  0  0  0  0  0  0  0  0  0
   28.7762  -21.9827  -15.5765 O   0  0  0  0  0  0  0  0  0  0  0  0
   27.8875  -17.8419  -15.9473 C   0  0  0  0  0  0  0  0  0  0  0  0
   26.7898  -18.4567  -15.1424 C   0  0  2  0  0  0  0  0  0  0  0  0
   26.5238  -17.7230  -13.8569 C   0  0  0  0  0  0  0  0  0  0  0  0
   27.0035  -19.9332  -14.8861 C   0  0  2  0  0  0  0  0  0  0  0  0
   26.9569  -20.7033  -16.1085 N   0  0  0  0  0  0  0  0  0  0  0  0
   26.0587  -20.4570  -13.8674 C   0  0  0  0  0  0  0  0  0  0  0  0
   24.8595  -20.7207  -14.1356 O   0  0  0  0  0  0  0  0  0  0  0  0
   26.4515  -20.6967  -12.5107 N   0  0  0  0  0  0  0  0  0  0  0  0
   25.5056  -21.0305  -11.4637 C   0  0  1  0  0  0  0  0  0  0  0  0
   26.0673  -20.8361  -10.0866 C   0  0  0  0  0  0  0  0  0  0  0  0
   24.8003  -21.4080   -8.9059 S   0  0  0  0  0  0  0  0  0  0  0  0
   24.2055  -20.3405  -11.6610 C   0  0  0  0  0  0  0  0  0  0  0  0
   24.1761  -18.9647  -11.7729 O   0  0  0  0  0  0  0  0  0  0  0  0
   23.1126  -20.9597  -11.7321 O   0  0  0  0  0  0  0  0  0  0  0  0
  2  1  1  1
  3  2  1  0
  4  3  1  0
  5  4  2  0
  6  7  1  0
  6  5  1  0
  7  8  2  0
  8  4  1  0
  9  2  1  0
  9 10  2  0
 12 11  1  1
 12 13  1  0
 12 14  1  0
 14 15  1  6
 14 16  1  0
 15  9  1  0
 16 17  2  0
 16 18  1  0
 18 19  1  0
 19 22  1  0
 19 20  1  1
 20 21  1  0
 22 24  2  0
 22 23  1  0
M  END
$$$$
