HVC.pdb
     RDKit          3D

 24 24  0  0  1  0  0  0  0  0999 V2000
   27.0879  -27.9398  -16.6017 N   0  0  0  0  0  0  0  0  0  0  0  0
   28.4781  -28.0320  -16.9574 C   0  0  1  0  0  0  0  0  0  0  0  0
   28.6354  -29.1536  -17.9562 C   0  0  0  0  0  0  0  0  0  0  0  0
   28.5396  -30.4326  -17.2103 C   0  0  0  0  0  0  0  0  0  0  0  0
   29.4700  -30.9587  -16.3101 C   0  0  0  0  0  0  0  0  0  0  0  0
   29.0236  -32.1305  -15.8462 N   0  0  0  0  0  0  0  0  0  0  0  0
   27.8402  -32.3851  -16.4103 C   0  0  0  0  0  0  0  0  0  0  0  0
   27.5522  -31.3439  -17.2414 N   0  0  0  0  0  0  0  0  0  0  0  0
   29.0138  -26.7440  -17.4697 C   0  0  0  0  0  0  0  0  0  0  0  0
   28.2944  -26.0143  -18.1986 O   0  0  0  0  0  0  0  0  0  0  0  0
   32.4143  -25.0276  -15.5943 C   0  0  0  0  0  0  0  0  0  0  0  0
   31.3532  -24.2359  -16.2857 C   0  0  2  0  0  0  0  0  0  0  0  0
   30.2522  -23.7971  -15.3600 C   0  0  0  0  0  0  0  0  0  0  0  0
   30.7876  -24.9426  -17.4990 C   0  0  2  0  0  0  0  0  0  0  0  0
   30.3245  -26.2739  -17.1784 N   0  0  0  0  0  0  0  0  0  0  0  0
   31.7504  -24.9504  -18.6294 C   0  0  0  0  0  0  0  0  0  0  0  0
   32.4741  -25.9446  -18.8890 O   0  0  0  0  0  0  0  0  0  0  0  0
   31.9183  -23.8249  -19.4997 N   0  0  0  0  0  0  0  0  0  0  0  0
   32.8948  -23.7959  -20.5710 C   0  0  1  0  0  0  0  0  0  0  0  0
   32.3271  -23.2906  -21.8641 C   0  0  0  0  0  0  0  0  0  0  0  0
   33.6522  -23.4058  -23.1120 S   0  0  0  0  0  0  0  0  0  0  0  0
   34.1319  -23.0822  -20.1642 C   0  0  0  0  0  0  0  0  0  0  0  0
   35.3629  -23.6328  -20.4601 O   0  0  0  0  0  0  0  0  0  0  0  0
   34.1112  -21.9826  -19.5532 O   0  0  0  0  0  0  0  0  0  0  0  0
  2  1  1  6
  3  2  1  0
  4  3  1  0
  5  4  2  0
  6  7  1  0
  6  5  1  0
  7  8  2  0
  8  4  1  0
  9  2  1  0
  9 10  2  0
 12 11  1  1
 12 13  1  0
 12 14  1  0
 14 15  1  1
 14 16  1  0
 15  9  1  0
 16 17  2  0
 16 18  1  0
 18 19  1  0
 19 22  1  0
 19 20  1  6
 20 21  1  0
 22 24  2  0
 22 23  1  0
M  END
$$$$
