WKE.pdb
     RDKit          3D

 33 34  0  0  1  0  0  0  0  0999 V2000
    6.5672  -17.9900   24.6878 N   0  0  0  0  0  0  0  0  0  0  0  0
    6.8869  -16.6199   24.4433 C   0  0  1  0  0  0  0  0  0  0  0  0
    7.7075  -15.9949   25.5640 C   0  0  0  0  0  0  0  0  0  0  0  0
    6.8888  -14.9682   26.2875 C   0  0  0  0  0  0  0  0  0  0  0  0
    5.7609  -15.1967   27.0239 C   0  0  0  0  0  0  0  0  0  0  0  0
    5.3314  -13.9996   27.5051 N   0  0  0  0  0  0  0  0  0  0  0  0
    6.1555  -13.0280   27.0927 C   0  0  0  0  0  0  0  0  0  0  0  0
    6.1938  -11.6668   27.2786 C   0  0  0  0  0  0  0  0  0  0  0  0
    7.1961  -10.8845   26.7142 C   0  0  0  0  0  0  0  0  0  0  0  0
    8.1646  -11.4916   25.9560 C   0  0  0  0  0  0  0  0  0  0  0  0
    8.1301  -12.8726   25.7645 C   0  0  0  0  0  0  0  0  0  0  0  0
    7.1275  -13.6193   26.3349 C   0  0  0  0  0  0  0  0  0  0  0  0
    7.6311  -16.5073   23.1714 C   0  0  0  0  0  0  0  0  0  0  0  0
    8.3802  -17.4456   22.7678 O   0  0  0  0  0  0  0  0  0  0  0  0
    7.5505  -15.3595   22.3435 N   0  0  0  0  0  0  0  0  0  0  0  0
    8.2628  -15.3219   21.0658 C   0  0  1  0  0  0  0  0  0  0  0  0
    8.0799  -13.9650   20.4426 C   0  0  0  0  0  0  0  0  0  0  0  0
    8.7618  -13.9020   19.1004 C   0  0  0  0  0  0  0  0  0  0  0  0
    7.8311  -13.3842   18.0309 C   0  0  0  0  0  0  0  0  0  0  0  0
    8.0598  -14.0227   16.6872 C   0  0  0  0  0  0  0  0  0  0  0  0
    9.4804  -13.8130   16.3690 N   0  0  0  0  0  0  0  0  0  0  0  0
    9.7143  -15.5581   21.2914 C   0  0  0  0  0  0  0  0  0  0  0  0
   10.2731  -15.0223   22.2921 O   0  0  0  0  0  0  0  0  0  0  0  0
   10.5258  -16.3492   20.4579 N   0  0  0  0  0  0  0  0  0  0  0  0
   11.8975  -16.7529   20.8180 C   0  0  1  0  0  0  0  0  0  0  0  0
   12.1028  -18.1586   20.3342 C   0  0  0  0  0  0  0  0  0  0  0  0
   13.4957  -18.6520   20.5743 C   0  0  0  0  0  0  0  0  0  0  0  0
   13.6803  -20.0547   20.1569 C   0  0  0  0  0  0  0  0  0  0  0  0
   12.8592  -20.9633   20.3949 O   0  0  0  0  0  0  0  0  0  0  0  0
   12.8352  -15.7799   20.2067 C   0  0  0  0  0  0  0  0  0  0  0  0
   12.5401  -15.2517   18.9671 O   0  0  0  0  0  0  0  0  0  0  0  0
   14.8252  -20.4123   19.4574 O   0  0  0  0  0  0  0  0  0  0  0  0
   13.8885  -15.4073   20.7561 O   0  0  0  0  0  0  0  0  0  0  0  0
  2  1  1  1
  3  2  1  0
  4  5  2  0
  4  3  1  0
  6  5  1  0
  7 12  2  0
  7  6  1  0
  8  7  1  0
  9 10  1  0
  9  8  2  0
 10 11  2  0
 11 12  1  0
 12  4  1  0
 13 14  2  0
 13  2  1  0
 15 13  1  0
 16 15  1  0
 16 17  1  1
 18 17  1  0
 19 18  1  0
 20 19  1  0
 20 21  1  0
 22 16  1  0
 23 22  2  0
 24 22  1  0
 25 30  1  0
 25 24  1  0
 25 26  1  6
 27 26  1  0
 28 27  1  0
 29 28  2  0
 30 31  1  0
 32 28  1  0
 33 30  2  0
M  END
$$$$
