WKE.pdb
     RDKit          3D

 33 34  0  0  1  0  0  0  0  0999 V2000
    6.1371  -17.5152   24.0850 N   0  0  0  0  0  0  0  0  0  0  0  0
    7.0103  -16.4142   23.8307 C   0  0  1  0  0  0  0  0  0  0  0  0
    7.8709  -16.0517   25.0339 C   0  0  0  0  0  0  0  0  0  0  0  0
    7.1322  -15.0972   25.9235 C   0  0  0  0  0  0  0  0  0  0  0  0
    6.1566  -15.4137   26.8261 C   0  0  0  0  0  0  0  0  0  0  0  0
    5.7518  -14.2591   27.4195 N   0  0  0  0  0  0  0  0  0  0  0  0
    6.4438  -13.2290   26.9163 C   0  0  0  0  0  0  0  0  0  0  0  0
    6.4418  -11.8743   27.1482 C   0  0  0  0  0  0  0  0  0  0  0  0
    7.2936  -11.0179   26.4582 C   0  0  0  0  0  0  0  0  0  0  0  0
    8.1521  -11.5439   25.5267 C   0  0  0  0  0  0  0  0  0  0  0  0
    8.1581  -12.9178   25.2879 C   0  0  0  0  0  0  0  0  0  0  0  0
    7.3050  -13.7390   25.9853 C   0  0  0  0  0  0  0  0  0  0  0  0
    7.8848  -16.7342   22.6830 C   0  0  0  0  0  0  0  0  0  0  0  0
    8.3642  -17.8968   22.5315 O   0  0  0  0  0  0  0  0  0  0  0  0
    8.2320  -15.7721   21.7015 N   0  0  0  0  0  0  0  0  0  0  0  0
    9.2503  -16.0800   20.6967 C   0  0  1  0  0  0  0  0  0  0  0  0
    9.2936  -14.9667   19.6860 C   0  0  0  0  0  0  0  0  0  0  0  0
    8.3810  -15.2687   18.5255 C   0  0  0  0  0  0  0  0  0  0  0  0
    8.3638  -14.1374   17.5265 C   0  0  0  0  0  0  0  0  0  0  0  0
    7.5022  -14.4214   16.3254 C   0  0  0  0  0  0  0  0  0  0  0  0
    7.6463  -13.2613   15.4328 N   0  0  0  0  0  0  0  0  0  0  0  0
   10.5829  -16.1927   21.3486 C   0  0  0  0  0  0  0  0  0  0  0  0
   10.7388  -15.7136   22.5091 O   0  0  0  0  0  0  0  0  0  0  0  0
   11.7031  -16.8053   20.7578 N   0  0  0  0  0  0  0  0  0  0  0  0
   12.9161  -17.1657   21.5147 C   0  0  1  0  0  0  0  0  0  0  0  0
   12.7298  -18.5585   22.0417 C   0  0  0  0  0  0  0  0  0  0  0  0
   13.9585  -19.0888   22.7129 C   0  0  0  0  0  0  0  0  0  0  0  0
   13.7537  -19.3435   24.1512 C   0  0  0  0  0  0  0  0  0  0  0  0
   13.0699  -18.6118   24.8951 O   0  0  0  0  0  0  0  0  0  0  0  0
   14.0788  -17.0346   20.6034 C   0  0  0  0  0  0  0  0  0  0  0  0
   15.3321  -16.8266   21.1406 O   0  0  0  0  0  0  0  0  0  0  0  0
   14.3450  -20.4549   24.7373 O   0  0  0  0  0  0  0  0  0  0  0  0
   13.9872  -17.1024   19.3636 O   0  0  0  0  0  0  0  0  0  0  0  0
  2  1  1  1
  3  2  1  0
  4  5  2  0
  4  3  1  0
  6  5  1  0
  7 12  2  0
  7  6  1  0
  8  7  1  0
  9 10  1  0
  9  8  2  0
 10 11  2  0
 11 12  1  0
 12  4  1  0
 13 14  2  0
 13  2  1  0
 15 13  1  0
 16 15  1  0
 16 17  1  6
 18 17  1  0
 19 18  1  0
 20 19  1  0
 20 21  1  0
 22 16  1  0
 23 22  2  0
 24 22  1  0
 25 30  1  0
 25 24  1  0
 25 26  1  6
 27 26  1  0
 28 27  1  0
 29 28  2  0
 30 31  1  0
 32 28  1  0
 33 30  2  0
M  END
$$$$
