WKE.pdb
     RDKit          3D

 33 34  0  0  1  0  0  0  0  0999 V2000
    6.6161  -18.6684   25.9577 N   0  0  0  0  0  0  0  0  0  0  0  0
    7.4363  -17.5138   25.7748 C   0  0  1  0  0  0  0  0  0  0  0  0
    8.8774  -17.7363   26.2150 C   0  0  0  0  0  0  0  0  0  0  0  0
    9.1274  -17.0424   27.5203 C   0  0  0  0  0  0  0  0  0  0  0  0
    9.3729  -17.6375   28.7255 C   0  0  0  0  0  0  0  0  0  0  0  0
    9.5412  -16.6518   29.6469 N   0  0  0  0  0  0  0  0  0  0  0  0
    9.4087  -15.4573   29.0561 C   0  0  0  0  0  0  0  0  0  0  0  0
    9.4788  -14.1593   29.5024 C   0  0  0  0  0  0  0  0  0  0  0  0
    9.2939  -13.0836   28.6399 C   0  0  0  0  0  0  0  0  0  0  0  0
    9.0360  -13.3311   27.3157 C   0  0  0  0  0  0  0  0  0  0  0  0
    8.9641  -14.6464   26.8579 C   0  0  0  0  0  0  0  0  0  0  0  0
    9.1512  -15.6887   27.7337 C   0  0  0  0  0  0  0  0  0  0  0  0
    7.4160  -17.1159   24.3515 C   0  0  0  0  0  0  0  0  0  0  0  0
    7.4674  -17.9835   23.4301 O   0  0  0  0  0  0  0  0  0  0  0  0
    7.3396  -15.7606   23.9430 N   0  0  0  0  0  0  0  0  0  0  0  0
    7.8357  -15.3597   22.6261 C   0  0  1  0  0  0  0  0  0  0  0  0
    7.4679  -13.9217   22.3809 C   0  0  0  0  0  0  0  0  0  0  0  0
    8.1474  -13.4052   21.1392 C   0  0  0  0  0  0  0  0  0  0  0  0
    7.4513  -13.8833   19.8882 C   0  0  0  0  0  0  0  0  0  0  0  0
    8.1053  -13.3951   18.6234 C   0  0  0  0  0  0  0  0  0  0  0  0
    7.2804  -13.8972   17.5140 N   0  0  0  0  0  0  0  0  0  0  0  0
    9.3168  -15.4934   22.5838 C   0  0  0  0  0  0  0  0  0  0  0  0
   10.0045  -14.9760   23.5112 O   0  0  0  0  0  0  0  0  0  0  0  0
   10.0216  -16.1664   21.5692 N   0  0  0  0  0  0  0  0  0  0  0  0
   11.4761  -16.4029   21.6204 C   0  0  1  0  0  0  0  0  0  0  0  0
   11.6963  -17.8855   21.6963 C   0  0  0  0  0  0  0  0  0  0  0  0
   13.1433  -18.2578   21.6027 C   0  0  0  0  0  0  0  0  0  0  0  0
   13.3573  -19.7167   21.6441 C   0  0  0  0  0  0  0  0  0  0  0  0
   12.7548  -20.5275   20.9121 O   0  0  0  0  0  0  0  0  0  0  0  0
   12.0825  -15.7813   20.4181 C   0  0  0  0  0  0  0  0  0  0  0  0
   13.3676  -15.2859   20.4948 O   0  0  0  0  0  0  0  0  0  0  0  0
   14.2768  -20.2452   22.5403 O   0  0  0  0  0  0  0  0  0  0  0  0
   11.4897  -15.6795   19.3280 O   0  0  0  0  0  0  0  0  0  0  0  0
  2  1  1  6
  3  2  1  0
  4  5  2  0
  4  3  1  0
  6  5  1  0
  7 12  2  0
  7  6  1  0
  8  7  1  0
  9 10  1  0
  9  8  2  0
 10 11  2  0
 11 12  1  0
 12  4  1  0
 13 14  2  0
 13  2  1  0
 15 13  1  0
 16 15  1  0
 16 17  1  1
 18 17  1  0
 19 18  1  0
 20 19  1  0
 20 21  1  0
 22 16  1  0
 23 22  2  0
 24 22  1  0
 25 30  1  0
 25 24  1  0
 25 26  1  6
 27 26  1  0
 28 27  1  0
 29 28  2  0
 30 31  1  0
 32 28  1  0
 33 30  2  0
M  END
$$$$
