WKE.pdb
     RDKit          3D

 33 34  0  0  1  0  0  0  0  0999 V2000
    5.9284  -18.1011   23.9850 N   0  0  0  0  0  0  0  0  0  0  0  0
    6.4569  -16.7774   24.0727 C   0  0  1  0  0  0  0  0  0  0  0  0
    7.1330  -16.4977   25.4086 C   0  0  0  0  0  0  0  0  0  0  0  0
    6.5861  -15.2357   26.0055 C   0  0  0  0  0  0  0  0  0  0  0  0
    5.3269  -15.0479   26.5014 C   0  0  0  0  0  0  0  0  0  0  0  0
    5.2434  -13.7644   26.9427 N   0  0  0  0  0  0  0  0  0  0  0  0
    6.4115  -13.1423   26.7386 C   0  0  0  0  0  0  0  0  0  0  0  0
    6.8717  -11.8714   26.9873 C   0  0  0  0  0  0  0  0  0  0  0  0
    8.1693  -11.4917   26.6600 C   0  0  0  0  0  0  0  0  0  0  0  0
    9.0029  -12.4111   26.0760 C   0  0  0  0  0  0  0  0  0  0  0  0
    8.5407  -13.7021   25.8217 C   0  0  0  0  0  0  0  0  0  0  0  0
    7.2536  -14.0481   26.1563 C   0  0  0  0  0  0  0  0  0  0  0  0
    7.4273  -16.5612   22.9792 C   0  0  0  0  0  0  0  0  0  0  0  0
    8.1996  -17.4902   22.5983 O   0  0  0  0  0  0  0  0  0  0  0  0
    7.5476  -15.3201   22.3049 N   0  0  0  0  0  0  0  0  0  0  0  0
    8.6087  -15.1185   21.3176 C   0  0  1  0  0  0  0  0  0  0  0  0
    8.5455  -13.7029   20.8127 C   0  0  0  0  0  0  0  0  0  0  0  0
    7.6389  -13.6082   19.6128 C   0  0  0  0  0  0  0  0  0  0  0  0
    8.1508  -14.4445   18.4654 C   0  0  0  0  0  0  0  0  0  0  0  0
    7.2848  -14.3583   17.2374 C   0  0  0  0  0  0  0  0  0  0  0  0
    8.0682  -13.6233   16.2327 N   0  0  0  0  0  0  0  0  0  0  0  0
    9.9355  -15.3467   21.9508 C   0  0  0  0  0  0  0  0  0  0  0  0
   10.1984  -14.7696   23.0456 O   0  0  0  0  0  0  0  0  0  0  0  0
   10.9377  -16.1735   21.4111 N   0  0  0  0  0  0  0  0  0  0  0  0
   12.2130  -16.4462   22.0991 C   0  0  1  0  0  0  0  0  0  0  0  0
   12.3177  -17.9302   22.2976 C   0  0  0  0  0  0  0  0  0  0  0  0
   13.6298  -18.3401   22.8907 C   0  0  0  0  0  0  0  0  0  0  0  0
   13.4961  -19.4552   23.8470 C   0  0  0  0  0  0  0  0  0  0  0  0
   12.9768  -20.5537   23.5639 O   0  0  0  0  0  0  0  0  0  0  0  0
   13.3080  -15.8873   21.2696 C   0  0  0  0  0  0  0  0  0  0  0  0
   14.3778  -15.2787   21.8923 O   0  0  0  0  0  0  0  0  0  0  0  0
   13.9668  -19.3005   25.1441 O   0  0  0  0  0  0  0  0  0  0  0  0
   13.3172  -15.9367   20.0255 O   0  0  0  0  0  0  0  0  0  0  0  0
  2  1  1  1
  3  2  1  0
  4  5  2  0
  4  3  1  0
  6  5  1  0
  7 12  2  0
  7  6  1  0
  8  7  1  0
  9 10  1  0
  9  8  2  0
 10 11  2  0
 11 12  1  0
 12  4  1  0
 13 14  2  0
 13  2  1  0
 15 13  1  0
 16 15  1  0
 16 17  1  1
 18 17  1  0
 19 18  1  0
 20 19  1  0
 20 21  1  0
 22 16  1  0
 23 22  2  0
 24 22  1  0
 25 30  1  0
 25 24  1  0
 25 26  1  6
 27 26  1  0
 28 27  1  0
 29 28  2  0
 30 31  1  0
 32 28  1  0
 33 30  2  0
M  END
$$$$
