WKE.pdb
     RDKit          3D

 33 34  0  0  1  0  0  0  0  0999 V2000
    6.2350  -17.6252   24.9612 N   0  0  0  0  0  0  0  0  0  0  0  0
    6.8686  -16.3850   24.6453 C   0  0  1  0  0  0  0  0  0  0  0  0
    7.9001  -15.9661   25.6847 C   0  0  0  0  0  0  0  0  0  0  0  0
    7.3067  -14.9517   26.6156 C   0  0  0  0  0  0  0  0  0  0  0  0
    6.7377  -15.1977   27.8332 C   0  0  0  0  0  0  0  0  0  0  0  0
    6.3256  -14.0073   28.3453 N   0  0  0  0  0  0  0  0  0  0  0  0
    6.6189  -13.0230   27.4860 C   0  0  0  0  0  0  0  0  0  0  0  0
    6.4319  -11.6614   27.4952 C   0  0  0  0  0  0  0  0  0  0  0  0
    6.8491  -10.8638   26.4346 C   0  0  0  0  0  0  0  0  0  0  0  0
    7.4598  -11.4558   25.3586 C   0  0  0  0  0  0  0  0  0  0  0  0
    7.6519  -12.8371   25.3446 C   0  0  0  0  0  0  0  0  0  0  0  0
    7.2292  -13.5992   26.4070 C   0  0  0  0  0  0  0  0  0  0  0  0
    7.5211  -16.4883   23.3232 C   0  0  0  0  0  0  0  0  0  0  0  0
    8.1682  -17.5262   22.9936 O   0  0  0  0  0  0  0  0  0  0  0  0
    7.4613  -15.4468   22.3634 N   0  0  0  0  0  0  0  0  0  0  0  0
    8.1984  -15.5626   21.1046 C   0  0  1  0  0  0  0  0  0  0  0  0
    7.9345  -14.3405   20.2681 C   0  0  0  0  0  0  0  0  0  0  0  0
    8.5737  -14.4792   18.9107 C   0  0  0  0  0  0  0  0  0  0  0  0
    7.8238  -13.6928   17.8632 C   0  0  0  0  0  0  0  0  0  0  0  0
    8.2727  -13.9983   16.4594 C   0  0  0  0  0  0  0  0  0  0  0  0
    7.3918  -13.2269   15.5692 N   0  0  0  0  0  0  0  0  0  0  0  0
    9.6574  -15.6524   21.3818 C   0  0  0  0  0  0  0  0  0  0  0  0
   10.1492  -14.9427   22.3065 O   0  0  0  0  0  0  0  0  0  0  0  0
   10.5464  -16.4850   20.6779 N   0  0  0  0  0  0  0  0  0  0  0  0
   11.9552  -16.6728   21.0708 C   0  0  1  0  0  0  0  0  0  0  0  0
   12.1422  -18.1188   21.4267 C   0  0  0  0  0  0  0  0  0  0  0  0
   13.5793  -18.4759   21.6470 C   0  0  0  0  0  0  0  0  0  0  0  0
   13.7615  -19.8927   22.0146 C   0  0  0  0  0  0  0  0  0  0  0  0
   13.2390  -20.8426   21.3974 O   0  0  0  0  0  0  0  0  0  0  0  0
   12.8073  -16.2330   19.9394 C   0  0  0  0  0  0  0  0  0  0  0  0
   12.3086  -16.3073   18.6555 O   0  0  0  0  0  0  0  0  0  0  0  0
   14.5555  -20.2164   23.1068 O   0  0  0  0  0  0  0  0  0  0  0  0
   13.9635  -15.7942   20.0842 O   0  0  0  0  0  0  0  0  0  0  0  0
  2  1  1  1
  3  2  1  0
  4  5  2  0
  4  3  1  0
  6  5  1  0
  7 12  2  0
  7  6  1  0
  8  7  1  0
  9 10  1  0
  9  8  2  0
 10 11  2  0
 11 12  1  0
 12  4  1  0
 13 14  2  0
 13  2  1  0
 15 13  1  0
 16 15  1  0
 16 17  1  6
 18 17  1  0
 19 18  1  0
 20 19  1  0
 20 21  1  0
 22 16  1  0
 23 22  2  0
 24 22  1  0
 25 30  1  0
 25 24  1  0
 25 26  1  6
 27 26  1  0
 28 27  1  0
 29 28  2  0
 30 31  1  0
 32 28  1  0
 33 30  2  0
M  END
$$$$
