WKE.pdb
     RDKit          3D

 33 34  0  0  1  0  0  0  0  0999 V2000
    6.6106  -18.3052   24.7228 N   0  0  0  0  0  0  0  0  0  0  0  0
    6.8019  -16.8991   24.5634 C   0  0  1  0  0  0  0  0  0  0  0  0
    7.5395  -16.2658   25.7359 C   0  0  0  0  0  0  0  0  0  0  0  0
    6.8158  -15.0344   26.1919 C   0  0  0  0  0  0  0  0  0  0  0  0
    5.5045  -14.9518   26.5666 C   0  0  0  0  0  0  0  0  0  0  0  0
    5.2516  -13.6592   26.9047 N   0  0  0  0  0  0  0  0  0  0  0  0
    6.3642  -12.9295   26.7534 C   0  0  0  0  0  0  0  0  0  0  0  0
    6.6686  -11.6031   26.9462 C   0  0  0  0  0  0  0  0  0  0  0  0
    7.9451  -11.1078   26.7008 C   0  0  0  0  0  0  0  0  0  0  0  0
    8.9170  -11.9677   26.2565 C   0  0  0  0  0  0  0  0  0  0  0  0
    8.6131  -13.3144   26.0595 C   0  0  0  0  0  0  0  0  0  0  0  0
    7.3429  -13.7748   26.3105 C   0  0  0  0  0  0  0  0  0  0  0  0
    7.5539  -16.6426   23.3171 C   0  0  0  0  0  0  0  0  0  0  0  0
    8.4130  -17.4700   22.8908 O   0  0  0  0  0  0  0  0  0  0  0  0
    7.3595  -15.4731   22.5399 N   0  0  0  0  0  0  0  0  0  0  0  0
    8.1923  -15.2249   21.3626 C   0  0  1  0  0  0  0  0  0  0  0  0
    7.7408  -13.9504   20.7031 C   0  0  0  0  0  0  0  0  0  0  0  0
    8.6718  -13.5769   19.5787 C   0  0  0  0  0  0  0  0  0  0  0  0
    8.0584  -13.8716   18.2315 C   0  0  0  0  0  0  0  0  0  0  0  0
    8.9466  -13.4857   17.0793 C   0  0  0  0  0  0  0  0  0  0  0  0
    8.2299  -13.8813   15.8574 N   0  0  0  0  0  0  0  0  0  0  0  0
    9.6146  -15.0784   21.7737 C   0  0  0  0  0  0  0  0  0  0  0  0
    9.8874  -14.3870   22.7975 O   0  0  0  0  0  0  0  0  0  0  0  0
   10.6985  -15.6641   21.0946 N   0  0  0  0  0  0  0  0  0  0  0  0
   12.1055  -15.4175   21.4602 C   0  0  1  0  0  0  0  0  0  0  0  0
   12.5635  -16.5622   22.3160 C   0  0  0  0  0  0  0  0  0  0  0  0
   12.5076  -17.8751   21.5988 C   0  0  0  0  0  0  0  0  0  0  0  0
   13.0446  -18.9860   22.4070 C   0  0  0  0  0  0  0  0  0  0  0  0
   14.2287  -19.3749   22.3521 O   0  0  0  0  0  0  0  0  0  0  0  0
   12.8849  -15.2747   20.2065 C   0  0  0  0  0  0  0  0  0  0  0  0
   14.1938  -14.8449   20.2755 O   0  0  0  0  0  0  0  0  0  0  0  0
   12.2056  -19.6553   23.2880 O   0  0  0  0  0  0  0  0  0  0  0  0
   12.4188  -15.5241   19.0792 O   0  0  0  0  0  0  0  0  0  0  0  0
  2  1  1  1
  3  2  1  0
  4  5  2  0
  4  3  1  0
  6  5  1  0
  7 12  2  0
  7  6  1  0
  8  7  1  0
  9 10  1  0
  9  8  2  0
 10 11  2  0
 11 12  1  0
 12  4  1  0
 13 14  2  0
 13  2  1  0
 15 13  1  0
 16 15  1  0
 16 17  1  1
 18 17  1  0
 19 18  1  0
 20 19  1  0
 20 21  1  0
 22 16  1  0
 23 22  2  0
 24 22  1  0
 25 30  1  0
 25 24  1  0
 25 26  1  6
 27 26  1  0
 28 27  1  0
 29 28  2  0
 30 31  1  0
 32 28  1  0
 33 30  2  0
M  END
$$$$
