WKE.pdb
     RDKit          3D

 33 34  0  0  1  0  0  0  0  0999 V2000
    7.1977  -18.1722   25.5242 N   0  0  0  0  0  0  0  0  0  0  0  0
    7.7787  -16.9174   25.1674 C   0  0  1  0  0  0  0  0  0  0  0  0
    9.2419  -16.8058   25.5752 C   0  0  0  0  0  0  0  0  0  0  0  0
    9.3441  -16.3215   26.9904 C   0  0  0  0  0  0  0  0  0  0  0  0
    9.7408  -17.0518   28.0749 C   0  0  0  0  0  0  0  0  0  0  0  0
    9.6893  -16.2379   29.1630 N   0  0  0  0  0  0  0  0  0  0  0  0
    9.2725  -15.0200   28.7936 C   0  0  0  0  0  0  0  0  0  0  0  0
    9.0451  -13.8443   29.4681 C   0  0  0  0  0  0  0  0  0  0  0  0
    8.6007  -12.7029   28.8087 C   0  0  0  0  0  0  0  0  0  0  0  0
    8.3866  -12.7590   27.4551 C   0  0  0  0  0  0  0  0  0  0  0  0
    8.6160  -13.9496   26.7662 C   0  0  0  0  0  0  0  0  0  0  0  0
    9.0550  -15.0610   27.4447 C   0  0  0  0  0  0  0  0  0  0  0  0
    7.6615  -16.7178   23.7077 C   0  0  0  0  0  0  0  0  0  0  0  0
    7.7924  -17.6876   22.9034 O   0  0  0  0  0  0  0  0  0  0  0  0
    7.4005  -15.4484   23.1333 N   0  0  0  0  0  0  0  0  0  0  0  0
    7.8841  -15.1356   21.7881 C   0  0  1  0  0  0  0  0  0  0  0  0
    7.6337  -13.6798   21.5037 C   0  0  0  0  0  0  0  0  0  0  0  0
    8.2965  -13.2702   20.2139 C   0  0  0  0  0  0  0  0  0  0  0  0
    7.5180  -13.7528   19.0144 C   0  0  0  0  0  0  0  0  0  0  0  0
    8.1267  -13.3300   17.7043 C   0  0  0  0  0  0  0  0  0  0  0  0
    7.2827  -13.9148   16.6512 N   0  0  0  0  0  0  0  0  0  0  0  0
    9.3458  -15.3997   21.7044 C   0  0  0  0  0  0  0  0  0  0  0  0
   10.1080  -14.9071   22.5860 O   0  0  0  0  0  0  0  0  0  0  0  0
    9.9537  -16.1723   20.6980 N   0  0  0  0  0  0  0  0  0  0  0  0
   11.4045  -16.4303   20.6472 C   0  0  1  0  0  0  0  0  0  0  0  0
   11.6134  -17.7289   19.9243 C   0  0  0  0  0  0  0  0  0  0  0  0
   11.3520  -18.9197   20.7933 C   0  0  0  0  0  0  0  0  0  0  0  0
   11.5341  -20.1957   20.0762 C   0  0  0  0  0  0  0  0  0  0  0  0
   11.8705  -20.2764   18.8776 O   0  0  0  0  0  0  0  0  0  0  0  0
   12.0505  -15.2759   19.9768 C   0  0  0  0  0  0  0  0  0  0  0  0
   13.4272  -15.1911   19.9653 O   0  0  0  0  0  0  0  0  0  0  0  0
   11.3253  -21.3917   20.7501 O   0  0  0  0  0  0  0  0  0  0  0  0
   11.4123  -14.3659   19.4157 O   0  0  0  0  0  0  0  0  0  0  0  0
  2  1  1  6
  3  2  1  0
  4  5  2  0
  4  3  1  0
  6  5  1  0
  7 12  2  0
  7  6  1  0
  8  7  1  0
  9 10  1  0
  9  8  2  0
 10 11  2  0
 11 12  1  0
 12  4  1  0
 13 14  2  0
 13  2  1  0
 15 13  1  0
 16 15  1  0
 16 17  1  1
 18 17  1  0
 19 18  1  0
 20 19  1  0
 20 21  1  0
 22 16  1  0
 23 22  2  0
 24 22  1  0
 25 30  1  0
 25 24  1  0
 25 26  1  6
 27 26  1  0
 28 27  1  0
 29 28  2  0
 30 31  1  0
 32 28  1  0
 33 30  2  0
M  END
$$$$
