WKE.pdb
     RDKit          3D

 33 34  0  0  1  0  0  0  0  0999 V2000
    6.1918  -17.3078   24.2468 N   0  0  0  0  0  0  0  0  0  0  0  0
    6.9334  -16.1106   24.0105 C   0  0  1  0  0  0  0  0  0  0  0  0
    8.0415  -15.8898   25.0319 C   0  0  0  0  0  0  0  0  0  0  0  0
    7.5313  -15.0575   26.1698 C   0  0  0  0  0  0  0  0  0  0  0  0
    7.2582  -15.4896   27.4369 C   0  0  0  0  0  0  0  0  0  0  0  0
    6.8166  -14.4208   28.1522 N   0  0  0  0  0  0  0  0  0  0  0  0
    6.8046  -13.3323   27.3722 C   0  0  0  0  0  0  0  0  0  0  0  0
    6.4577  -12.0178   27.5741 C   0  0  0  0  0  0  0  0  0  0  0  0
    6.5477  -11.0777   26.5527 C   0  0  0  0  0  0  0  0  0  0  0  0
    6.9932  -11.4784   25.3189 C   0  0  0  0  0  0  0  0  0  0  0  0
    7.3465  -12.8110   25.1091 C   0  0  0  0  0  0  0  0  0  0  0  0
    7.2471  -13.7171   26.1374 C   0  0  0  0  0  0  0  0  0  0  0  0
    7.5202  -16.1543   22.6547 C   0  0  0  0  0  0  0  0  0  0  0  0
    7.6921  -17.2555   22.0528 O   0  0  0  0  0  0  0  0  0  0  0  0
    7.9185  -14.9837   21.9615 N   0  0  0  0  0  0  0  0  0  0  0  0
    8.6049  -15.0887   20.6734 C   0  0  1  0  0  0  0  0  0  0  0  0
    8.6024  -13.7407   20.0057 C   0  0  0  0  0  0  0  0  0  0  0  0
    7.4694  -13.6410   19.0172 C   0  0  0  0  0  0  0  0  0  0  0  0
    7.9763  -13.6135   17.5958 C   0  0  0  0  0  0  0  0  0  0  0  0
    6.8728  -13.5382   16.5751 C   0  0  0  0  0  0  0  0  0  0  0  0
    7.5307  -13.5086   15.2599 N   0  0  0  0  0  0  0  0  0  0  0  0
   10.0129  -15.5194   20.8868 C   0  0  0  0  0  0  0  0  0  0  0  0
   10.8537  -15.3444   19.9577 O   0  0  0  0  0  0  0  0  0  0  0  0
   10.4866  -16.1175   22.0687 N   0  0  0  0  0  0  0  0  0  0  0  0
   11.8683  -16.6083   22.2246 C   0  0  1  0  0  0  0  0  0  0  0  0
   12.0230  -17.1001   23.6341 C   0  0  0  0  0  0  0  0  0  0  0  0
   13.3683  -17.7061   23.8876 C   0  0  0  0  0  0  0  0  0  0  0  0
   13.5322  -18.1600   25.2814 C   0  0  0  0  0  0  0  0  0  0  0  0
   13.0394  -19.2145   25.7304 O   0  0  0  0  0  0  0  0  0  0  0  0
   12.0957  -17.6634   21.2075 C   0  0  0  0  0  0  0  0  0  0  0  0
   13.3609  -17.8283   20.6832 O   0  0  0  0  0  0  0  0  0  0  0  0
   14.2728  -17.3881   26.1667 O   0  0  0  0  0  0  0  0  0  0  0  0
   11.1973  -18.4196   20.7937 O   0  0  0  0  0  0  0  0  0  0  0  0
  2  1  1  1
  3  2  1  0
  4  5  2  0
  4  3  1  0
  6  5  1  0
  7 12  2  0
  7  6  1  0
  8  7  1  0
  9 10  1  0
  9  8  2  0
 10 11  2  0
 11 12  1  0
 12  4  1  0
 13 14  2  0
 13  2  1  0
 15 13  1  0
 16 15  1  0
 16 17  1  1
 18 17  1  0
 19 18  1  0
 20 19  1  0
 20 21  1  0
 22 16  1  0
 23 22  2  0
 24 22  1  0
 25 30  1  0
 25 24  1  0
 25 26  1  1
 27 26  1  0
 28 27  1  0
 29 28  2  0
 30 31  1  0
 32 28  1  0
 33 30  2  0
M  END
$$$$
