WKE.pdb
     RDKit          3D

 33 34  0  0  1  0  0  0  0  0999 V2000
    6.5799  -16.9147   25.5111 N   0  0  0  0  0  0  0  0  0  0  0  0
    7.1345  -15.8017   24.8091 C   0  0  1  0  0  0  0  0  0  0  0  0
    8.4072  -15.2697   25.4548 C   0  0  0  0  0  0  0  0  0  0  0  0
    8.0620  -14.3775   26.6092 C   0  0  0  0  0  0  0  0  0  0  0  0
    8.2357  -14.6569   27.9353 C   0  0  0  0  0  0  0  0  0  0  0  0
    7.7923  -13.5853   28.6454 N   0  0  0  0  0  0  0  0  0  0  0  0
    7.3460  -12.6431   27.8049 C   0  0  0  0  0  0  0  0  0  0  0  0
    6.8026  -11.3923   27.9757 C   0  0  0  0  0  0  0  0  0  0  0  0
    6.4179  -10.6130   26.8895 C   0  0  0  0  0  0  0  0  0  0  0  0
    6.5873  -11.1101   25.6224 C   0  0  0  0  0  0  0  0  0  0  0  0
    7.1384  -12.3787   25.4439 C   0  0  0  0  0  0  0  0  0  0  0  0
    7.5091  -13.1254   26.5363 C   0  0  0  0  0  0  0  0  0  0  0  0
    7.4216  -16.1934   23.4132 C   0  0  0  0  0  0  0  0  0  0  0  0
    7.6960  -17.3935   23.1150 O   0  0  0  0  0  0  0  0  0  0  0  0
    7.4070  -15.2619   22.3448 N   0  0  0  0  0  0  0  0  0  0  0  0
    8.0916  -15.5713   21.0890 C   0  0  1  0  0  0  0  0  0  0  0  0
    7.9185  -14.4174   20.1395 C   0  0  0  0  0  0  0  0  0  0  0  0
    8.5763  -14.7161   18.8171 C   0  0  0  0  0  0  0  0  0  0  0  0
    7.9924  -13.8767   17.7069 C   0  0  0  0  0  0  0  0  0  0  0  0
    8.5698  -14.1990   16.3547 C   0  0  0  0  0  0  0  0  0  0  0  0
    7.9660  -13.2450   15.4120 N   0  0  0  0  0  0  0  0  0  0  0  0
    9.5433  -15.7739   21.3436 C   0  0  0  0  0  0  0  0  0  0  0  0
   10.1260  -15.0318   22.1865 O   0  0  0  0  0  0  0  0  0  0  0  0
   10.3300  -16.7491   20.7039 N   0  0  0  0  0  0  0  0  0  0  0  0
   11.7168  -17.0528   21.1022 C   0  0  1  0  0  0  0  0  0  0  0  0
   11.8422  -18.5434   21.2235 C   0  0  0  0  0  0  0  0  0  0  0  0
   13.2380  -18.9791   21.5447 C   0  0  0  0  0  0  0  0  0  0  0  0
   13.3648  -20.4450   21.6480 C   0  0  0  0  0  0  0  0  0  0  0  0
   13.3789  -21.2115   20.6638 O   0  0  0  0  0  0  0  0  0  0  0  0
   12.6227  -16.4695   20.0830 C   0  0  0  0  0  0  0  0  0  0  0  0
   12.1450  -16.2499   18.8078 O   0  0  0  0  0  0  0  0  0  0  0  0
   13.4763  -21.0326   22.9012 O   0  0  0  0  0  0  0  0  0  0  0  0
   13.8067  -16.1625   20.3158 O   0  0  0  0  0  0  0  0  0  0  0  0
  2  1  1  1
  3  2  1  0
  4  5  2  0
  4  3  1  0
  6  5  1  0
  7 12  2  0
  7  6  1  0
  8  7  1  0
  9 10  1  0
  9  8  2  0
 10 11  2  0
 11 12  1  0
 12  4  1  0
 13 14  2  0
 13  2  1  0
 15 13  1  0
 16 15  1  0
 16 17  1  6
 18 17  1  0
 19 18  1  0
 20 19  1  0
 20 21  1  0
 22 16  1  0
 23 22  2  0
 24 22  1  0
 25 30  1  0
 25 24  1  0
 25 26  1  6
 27 26  1  0
 28 27  1  0
 29 28  2  0
 30 31  1  0
 32 28  1  0
 33 30  2  0
M  END
$$$$
