WKE.pdb
     RDKit          3D

 33 34  0  0  1  0  0  0  0  0999 V2000
    6.4202  -17.7044   24.2753 N   0  0  0  0  0  0  0  0  0  0  0  0
    6.8734  -16.3732   24.0270 C   0  0  1  0  0  0  0  0  0  0  0  0
    7.8052  -15.8532   25.1139 C   0  0  0  0  0  0  0  0  0  0  0  0
    7.0543  -14.9456   26.0415 C   0  0  0  0  0  0  0  0  0  0  0  0
    6.0257  -15.2967   26.8694 C   0  0  0  0  0  0  0  0  0  0  0  0
    5.6292  -14.1784   27.5337 N   0  0  0  0  0  0  0  0  0  0  0  0
    6.3779  -13.1375   27.1475 C   0  0  0  0  0  0  0  0  0  0  0  0
    6.4077  -11.8059   27.4868 C   0  0  0  0  0  0  0  0  0  0  0  0
    7.3196  -10.9292   26.9081 C   0  0  0  0  0  0  0  0  0  0  0  0
    8.2058  -11.4109   25.9787 C   0  0  0  0  0  0  0  0  0  0  0  0
    8.1796  -12.7612   25.6311 C   0  0  0  0  0  0  0  0  0  0  0  0
    7.2672  -13.6034   26.2199 C   0  0  0  0  0  0  0  0  0  0  0  0
    7.5681  -16.3246   22.7234 C   0  0  0  0  0  0  0  0  0  0  0  0
    8.2446  -17.3111   22.3068 O   0  0  0  0  0  0  0  0  0  0  0  0
    7.5179  -15.1877   21.8781 N   0  0  0  0  0  0  0  0  0  0  0  0
    8.2448  -15.1820   20.6081 C   0  0  1  0  0  0  0  0  0  0  0  0
    8.0502  -13.8492   19.9383 C   0  0  0  0  0  0  0  0  0  0  0  0
    8.8200  -13.7890   18.6443 C   0  0  0  0  0  0  0  0  0  0  0  0
    7.8977  -13.8209   17.4500 C   0  0  0  0  0  0  0  0  0  0  0  0
    8.6299  -13.7852   16.1354 C   0  0  0  0  0  0  0  0  0  0  0  0
    7.5994  -13.8630   15.0888 N   0  0  0  0  0  0  0  0  0  0  0  0
    9.6966  -15.3896   20.8580 C   0  0  0  0  0  0  0  0  0  0  0  0
   10.2382  -14.8044   21.8403 O   0  0  0  0  0  0  0  0  0  0  0  0
   10.5266  -16.2050   20.0672 N   0  0  0  0  0  0  0  0  0  0  0  0
   11.9575  -16.4155   20.3541 C   0  0  1  0  0  0  0  0  0  0  0  0
   12.2460  -17.8796   20.1940 C   0  0  0  0  0  0  0  0  0  0  0  0
   13.7079  -18.1906   20.2787 C   0  0  0  0  0  0  0  0  0  0  0  0
   13.9971  -19.6204   20.0601 C   0  0  0  0  0  0  0  0  0  0  0  0
   14.6933  -20.3132   20.8293 O   0  0  0  0  0  0  0  0  0  0  0  0
   12.7394  -15.5597   19.4290 C   0  0  0  0  0  0  0  0  0  0  0  0
   13.9157  -14.9921   19.8728 O   0  0  0  0  0  0  0  0  0  0  0  0
   13.4769  -20.2574   18.9412 O   0  0  0  0  0  0  0  0  0  0  0  0
   12.3900  -15.3207   18.2581 O   0  0  0  0  0  0  0  0  0  0  0  0
  2  1  1  1
  3  2  1  0
  4  5  2  0
  4  3  1  0
  6  5  1  0
  7 12  2  0
  7  6  1  0
  8  7  1  0
  9 10  1  0
  9  8  2  0
 10 11  2  0
 11 12  1  0
 12  4  1  0
 13 14  2  0
 13  2  1  0
 15 13  1  0
 16 15  1  0
 16 17  1  1
 18 17  1  0
 19 18  1  0
 20 19  1  0
 20 21  1  0
 22 16  1  0
 23 22  2  0
 24 22  1  0
 25 30  1  0
 25 24  1  0
 25 26  1  6
 27 26  1  0
 28 27  1  0
 29 28  2  0
 30 31  1  0
 32 28  1  0
 33 30  2  0
M  END
$$$$
