WKE.pdb
     RDKit          3D

 33 34  0  0  1  0  0  0  0  0999 V2000
    6.4356  -17.4179   25.4666 N   0  0  0  0  0  0  0  0  0  0  0  0
    7.0688  -16.2193   25.0174 C   0  0  1  0  0  0  0  0  0  0  0  0
    8.2995  -15.8571   25.8383 C   0  0  0  0  0  0  0  0  0  0  0  0
    7.9309  -14.8726   26.9074 C   0  0  0  0  0  0  0  0  0  0  0  0
    7.9739  -15.0812   28.2570 C   0  0  0  0  0  0  0  0  0  0  0  0
    7.5578  -13.9387   28.8656 N   0  0  0  0  0  0  0  0  0  0  0  0
    7.2554  -13.0206   27.9388 C   0  0  0  0  0  0  0  0  0  0  0  0
    6.7977  -11.7257   27.9925 C   0  0  0  0  0  0  0  0  0  0  0  0
    6.5640  -10.9894   26.8356 C   0  0  0  0  0  0  0  0  0  0  0  0
    6.7974  -11.5748   25.6174 C   0  0  0  0  0  0  0  0  0  0  0  0
    7.2620  -12.8884   25.5577 C   0  0  0  0  0  0  0  0  0  0  0  0
    7.4838  -13.5909   26.7177 C   0  0  0  0  0  0  0  0  0  0  0  0
    7.4543  -16.3683   23.5984 C   0  0  0  0  0  0  0  0  0  0  0  0
    7.7548  -17.5015   23.1188 O   0  0  0  0  0  0  0  0  0  0  0  0
    7.5093  -15.2675   22.7069 N   0  0  0  0  0  0  0  0  0  0  0  0
    8.1272  -15.4178   21.3890 C   0  0  1  0  0  0  0  0  0  0  0  0
    7.9600  -14.1355   20.6204 C   0  0  0  0  0  0  0  0  0  0  0  0
    8.5763  -14.2545   19.2505 C   0  0  0  0  0  0  0  0  0  0  0  0
    7.6941  -13.6387   18.1918 C   0  0  0  0  0  0  0  0  0  0  0  0
    8.2410  -13.7993   16.7987 C   0  0  0  0  0  0  0  0  0  0  0  0
    7.3728  -12.9989   15.9217 N   0  0  0  0  0  0  0  0  0  0  0  0
    9.5792  -15.7028   21.5431 C   0  0  0  0  0  0  0  0  0  0  0  0
   10.2323  -15.0870   22.4347 O   0  0  0  0  0  0  0  0  0  0  0  0
   10.2922  -16.6249   20.7553 N   0  0  0  0  0  0  0  0  0  0  0  0
   11.7233  -16.9177   20.9560 C   0  0  1  0  0  0  0  0  0  0  0  0
   11.8711  -18.4047   21.0956 C   0  0  0  0  0  0  0  0  0  0  0  0
   13.3031  -18.8397   21.1319 C   0  0  0  0  0  0  0  0  0  0  0  0
   13.4525  -20.2731   21.4463 C   0  0  0  0  0  0  0  0  0  0  0  0
   12.4916  -21.0532   21.6026 O   0  0  0  0  0  0  0  0  0  0  0  0
   12.4697  -16.3605   19.8019 C   0  0  0  0  0  0  0  0  0  0  0  0
   13.7047  -15.7848   20.0164 O   0  0  0  0  0  0  0  0  0  0  0  0
   14.7252  -20.8118   21.5820 O   0  0  0  0  0  0  0  0  0  0  0  0
   12.0392  -16.3828   18.6338 O   0  0  0  0  0  0  0  0  0  0  0  0
  2  1  1  1
  3  2  1  0
  4  5  2  0
  4  3  1  0
  6  5  1  0
  7 12  2  0
  7  6  1  0
  8  7  1  0
  9 10  1  0
  9  8  2  0
 10 11  2  0
 11 12  1  0
 12  4  1  0
 13 14  2  0
 13  2  1  0
 15 13  1  0
 16 15  1  0
 16 17  1  6
 18 17  1  0
 19 18  1  0
 20 19  1  0
 20 21  1  0
 22 16  1  0
 23 22  2  0
 24 22  1  0
 25 30  1  0
 25 24  1  0
 25 26  1  6
 27 26  1  0
 28 27  1  0
 29 28  2  0
 30 31  1  0
 32 28  1  0
 33 30  2  0
M  END
$$$$
