WKE.pdb
     RDKit          3D

 33 34  0  0  1  0  0  0  0  0999 V2000
    6.9722  -17.6431   25.1124 N   0  0  0  0  0  0  0  0  0  0  0  0
    7.2624  -16.3148   24.6755 C   0  0  1  0  0  0  0  0  0  0  0  0
    8.5325  -15.7512   25.2991 C   0  0  0  0  0  0  0  0  0  0  0  0
    8.1838  -14.8388   26.4365 C   0  0  0  0  0  0  0  0  0  0  0  0
    8.4077  -15.0696   27.7644 C   0  0  0  0  0  0  0  0  0  0  0  0
    7.9404  -13.9958   28.4555 N   0  0  0  0  0  0  0  0  0  0  0  0
    7.4307  -13.0992   27.6014 C   0  0  0  0  0  0  0  0  0  0  0  0
    6.8404  -11.8671   27.7514 C   0  0  0  0  0  0  0  0  0  0  0  0
    6.3918  -11.1382   26.6548 C   0  0  0  0  0  0  0  0  0  0  0  0
    6.5450  -11.6668   25.3985 C   0  0  0  0  0  0  0  0  0  0  0  0
    7.1435  -12.9166   25.2410 C   0  0  0  0  0  0  0  0  0  0  0  0
    7.5769  -13.6134   26.3433 C   0  0  0  0  0  0  0  0  0  0  0  0
    7.3916  -16.2980   23.2033 C   0  0  0  0  0  0  0  0  0  0  0  0
    7.7537  -17.3321   22.5677 O   0  0  0  0  0  0  0  0  0  0  0  0
    7.1224  -15.1404   22.4306 N   0  0  0  0  0  0  0  0  0  0  0  0
    7.7457  -14.9705   21.1176 C   0  0  1  0  0  0  0  0  0  0  0  0
    7.4100  -13.6026   20.5894 C   0  0  0  0  0  0  0  0  0  0  0  0
    8.0352  -13.3893   19.2350 C   0  0  0  0  0  0  0  0  0  0  0  0
    7.1049  -13.8109   18.1238 C   0  0  0  0  0  0  0  0  0  0  0  0
    7.6680  -13.5558   16.7514 C   0  0  0  0  0  0  0  0  0  0  0  0
    8.5466  -14.6961   16.4492 N   0  0  0  0  0  0  0  0  0  0  0  0
    9.2233  -15.0909   21.2423 C   0  0  0  0  0  0  0  0  0  0  0  0
    9.9177  -14.0370   21.3311 O   0  0  0  0  0  0  0  0  0  0  0  0
    9.9176  -16.3141   21.2698 N   0  0  0  0  0  0  0  0  0  0  0  0
   11.3886  -16.4037   21.3196 C   0  0  1  0  0  0  0  0  0  0  0  0
   11.7854  -16.6265   22.7498 C   0  0  0  0  0  0  0  0  0  0  0  0
   13.2686  -16.7277   22.9263 C   0  0  0  0  0  0  0  0  0  0  0  0
   13.6610  -16.9031   24.3372 C   0  0  0  0  0  0  0  0  0  0  0  0
   14.8223  -16.7344   24.7608 O   0  0  0  0  0  0  0  0  0  0  0  0
   11.8100  -17.5021   20.4167 C   0  0  0  0  0  0  0  0  0  0  0  0
   10.8459  -18.2917   19.8254 O   0  0  0  0  0  0  0  0  0  0  0  0
   12.7025  -17.2776   25.2695 O   0  0  0  0  0  0  0  0  0  0  0  0
   13.0012  -17.7560   20.1581 O   0  0  0  0  0  0  0  0  0  0  0  0
  2  1  1  1
  3  2  1  0
  4  5  2  0
  4  3  1  0
  6  5  1  0
  7 12  2  0
  7  6  1  0
  8  7  1  0
  9 10  1  0
  9  8  2  0
 10 11  2  0
 11 12  1  0
 12  4  1  0
 13 14  2  0
 13  2  1  0
 15 13  1  0
 16 15  1  0
 16 17  1  1
 18 17  1  0
 19 18  1  0
 20 19  1  0
 20 21  1  0
 22 16  1  0
 23 22  2  0
 24 22  1  0
 25 30  1  0
 25 24  1  0
 25 26  1  1
 27 26  1  0
 28 27  1  0
 29 28  2  0
 30 31  1  0
 32 28  1  0
 33 30  2  0
M  END
$$$$
