WKE.pdb
     RDKit          3D

 33 34  0  0  1  0  0  0  0  0999 V2000
    6.1940  -17.6231   24.5148 N   0  0  0  0  0  0  0  0  0  0  0  0
    6.8209  -16.3536   24.3291 C   0  0  1  0  0  0  0  0  0  0  0  0
    7.9424  -16.0962   25.3271 C   0  0  0  0  0  0  0  0  0  0  0  0
    7.5080  -15.0733   26.3335 C   0  0  0  0  0  0  0  0  0  0  0  0
    6.9838  -15.3192   27.5710 C   0  0  0  0  0  0  0  0  0  0  0  0
    6.7248  -14.1195   28.1564 N   0  0  0  0  0  0  0  0  0  0  0  0
    7.0705  -13.1295   27.3237 C   0  0  0  0  0  0  0  0  0  0  0  0
    7.0254  -11.7580   27.4015 C   0  0  0  0  0  0  0  0  0  0  0  0
    7.4641  -10.9561   26.3529 C   0  0  0  0  0  0  0  0  0  0  0  0
    7.9513  -11.5541   25.2186 C   0  0  0  0  0  0  0  0  0  0  0  0
    7.9992  -12.9453   25.1349 C   0  0  0  0  0  0  0  0  0  0  0  0
    7.5588  -13.7114   26.1872 C   0  0  0  0  0  0  0  0  0  0  0  0
    7.3595  -16.2666   22.9555 C   0  0  0  0  0  0  0  0  0  0  0  0
    8.0534  -17.2062   22.4655 O   0  0  0  0  0  0  0  0  0  0  0  0
    7.1340  -15.1431   22.1211 N   0  0  0  0  0  0  0  0  0  0  0  0
    7.9095  -14.9713   20.8922 C   0  0  1  0  0  0  0  0  0  0  0  0
    7.6212  -13.6115   20.3170 C   0  0  0  0  0  0  0  0  0  0  0  0
    8.5071  -13.3400   19.1287 C   0  0  0  0  0  0  0  0  0  0  0  0
    7.9329  -13.9310   17.8642 C   0  0  0  0  0  0  0  0  0  0  0  0
    8.7862  -13.6758   16.6508 C   0  0  0  0  0  0  0  0  0  0  0  0
    8.0858  -14.2989   15.5174 N   0  0  0  0  0  0  0  0  0  0  0  0
    9.3626  -15.0690   21.1960 C   0  0  0  0  0  0  0  0  0  0  0  0
    9.8192  -14.4574   22.2051 O   0  0  0  0  0  0  0  0  0  0  0  0
   10.2832  -15.8063   20.4291 N   0  0  0  0  0  0  0  0  0  0  0  0
   11.7277  -15.8439   20.7226 C   0  0  1  0  0  0  0  0  0  0  0  0
   12.0775  -17.2479   21.1209 C   0  0  0  0  0  0  0  0  0  0  0  0
   13.5556  -17.4775   21.1818 C   0  0  0  0  0  0  0  0  0  0  0  0
   13.8995  -18.8566   21.5759 C   0  0  0  0  0  0  0  0  0  0  0  0
   13.0904  -19.6526   22.0938 O   0  0  0  0  0  0  0  0  0  0  0  0
   12.4514  -15.3801   19.5140 C   0  0  0  0  0  0  0  0  0  0  0  0
   13.7329  -14.8874   19.6473 O   0  0  0  0  0  0  0  0  0  0  0  0
   15.1915  -19.3219   21.3702 O   0  0  0  0  0  0  0  0  0  0  0  0
   11.9617  -15.4104   18.3697 O   0  0  0  0  0  0  0  0  0  0  0  0
  2  1  1  1
  3  2  1  0
  4  5  2  0
  4  3  1  0
  6  5  1  0
  7 12  2  0
  7  6  1  0
  8  7  1  0
  9 10  1  0
  9  8  2  0
 10 11  2  0
 11 12  1  0
 12  4  1  0
 13 14  2  0
 13  2  1  0
 15 13  1  0
 16 15  1  0
 16 17  1  1
 18 17  1  0
 19 18  1  0
 20 19  1  0
 20 21  1  0
 22 16  1  0
 23 22  2  0
 24 22  1  0
 25 30  1  0
 25 24  1  0
 25 26  1  6
 27 26  1  0
 28 27  1  0
 29 28  2  0
 30 31  1  0
 32 28  1  0
 33 30  2  0
M  END
$$$$
