WKE.pdb
     RDKit          3D

 33 34  0  0  1  0  0  0  0  0999 V2000
    6.0797  -17.3666   24.2910 N   0  0  0  0  0  0  0  0  0  0  0  0
    6.7659  -16.1194   24.1769 C   0  0  1  0  0  0  0  0  0  0  0  0
    7.5754  -15.7738   25.4199 C   0  0  0  0  0  0  0  0  0  0  0  0
    6.8374  -14.7652   26.2481 C   0  0  0  0  0  0  0  0  0  0  0  0
    5.9852  -15.0276   27.2833 C   0  0  0  0  0  0  0  0  0  0  0  0
    5.5313  -13.8368   27.7576 N   0  0  0  0  0  0  0  0  0  0  0  0
    6.0730  -12.8362   27.0513 C   0  0  0  0  0  0  0  0  0  0  0  0
    5.9655  -11.4669   27.1000 C   0  0  0  0  0  0  0  0  0  0  0  0
    6.6643  -10.6515   26.2157 C   0  0  0  0  0  0  0  0  0  0  0  0
    7.4769  -11.2337   25.2765 C   0  0  0  0  0  0  0  0  0  0  0  0
    7.5894  -12.6228   25.2232 C   0  0  0  0  0  0  0  0  0  0  0  0
    6.8868  -13.4024   26.1101 C   0  0  0  0  0  0  0  0  0  0  0  0
    7.6639  -16.1571   23.0037 C   0  0  0  0  0  0  0  0  0  0  0  0
    8.1190  -17.2546   22.5646 O   0  0  0  0  0  0  0  0  0  0  0  0
    8.0617  -14.9843   22.3139 N   0  0  0  0  0  0  0  0  0  0  0  0
    8.9531  -15.0772   21.1572 C   0  0  1  0  0  0  0  0  0  0  0  0
    8.9812  -13.7485   20.4524 C   0  0  0  0  0  0  0  0  0  0  0  0
    8.0109  -13.7394   19.2996 C   0  0  0  0  0  0  0  0  0  0  0  0
    8.4818  -14.6270   18.1733 C   0  0  0  0  0  0  0  0  0  0  0  0
    7.5621  -14.6099   16.9819 C   0  0  0  0  0  0  0  0  0  0  0  0
    8.0923  -13.5866   16.0681 N   0  0  0  0  0  0  0  0  0  0  0  0
   10.3302  -15.4138   21.6085 C   0  0  0  0  0  0  0  0  0  0  0  0
   10.9490  -14.5947   22.3482 O   0  0  0  0  0  0  0  0  0  0  0  0
   11.0070  -16.5989   21.2670 N   0  0  0  0  0  0  0  0  0  0  0  0
   12.3997  -16.8739   21.6655 C   0  0  1  0  0  0  0  0  0  0  0  0
   12.5953  -18.3618   21.6486 C   0  0  0  0  0  0  0  0  0  0  0  0
   11.9935  -19.0349   22.8428 C   0  0  0  0  0  0  0  0  0  0  0  0
   12.1685  -20.4993   22.8164 C   0  0  0  0  0  0  0  0  0  0  0  0
   11.2516  -21.3121   23.0507 O   0  0  0  0  0  0  0  0  0  0  0  0
   13.2940  -16.1546   20.7262 C   0  0  0  0  0  0  0  0  0  0  0  0
   12.8516  -15.8931   19.4461 O   0  0  0  0  0  0  0  0  0  0  0  0
   13.4156  -21.0311   22.5165 O   0  0  0  0  0  0  0  0  0  0  0  0
   14.4375  -15.7677   21.0312 O   0  0  0  0  0  0  0  0  0  0  0  0
  2  1  1  1
  3  2  1  0
  4  5  2  0
  4  3  1  0
  6  5  1  0
  7 12  2  0
  7  6  1  0
  8  7  1  0
  9 10  1  0
  9  8  2  0
 10 11  2  0
 11 12  1  0
 12  4  1  0
 13 14  2  0
 13  2  1  0
 15 13  1  0
 16 15  1  0
 16 17  1  1
 18 17  1  0
 19 18  1  0
 20 19  1  0
 20 21  1  0
 22 16  1  0
 23 22  2  0
 24 22  1  0
 25 30  1  0
 25 24  1  0
 25 26  1  6
 27 26  1  0
 28 27  1  0
 29 28  2  0
 30 31  1  0
 32 28  1  0
 33 30  2  0
M  END
$$$$
