CMT.pdb
     RDKit          3D

 22 21  0  0  1  0  0  0  0  0999 V2000
    8.5916  -15.3036   19.1523 N   0  0  0  0  0  0  0  0  0  0  0  0
    7.7259  -14.8517   20.2068 C   0  0  1  0  0  0  0  0  0  0  0  0
    6.4739  -15.7281   20.2345 C   0  0  0  0  0  0  0  0  0  0  0  0
    6.9435  -17.4179   20.6184 S   0  0  0  0  0  0  0  0  0  0  0  0
    8.3970  -14.9325   21.5524 C   0  0  0  0  0  0  0  0  0  0  0  0
    9.5691  -15.3595   21.5828 O   0  0  0  0  0  0  0  0  0  0  0  0
    5.4292  -12.2306   26.6677 C   0  0  0  0  0  0  0  0  0  0  0  0
    7.1733  -11.9671   27.1483 S   0  0  0  0  0  0  0  0  0  0  0  0
    8.1621  -13.1966   26.2506 C   0  0  0  0  0  0  0  0  0  0  0  0
    7.5261  -13.3831   24.8980 C   0  0  0  0  0  0  0  0  0  0  0  0
    8.2748  -14.3871   24.0292 C   0  0  2  0  0  0  0  0  0  0  0  0
    7.7010  -14.5338   22.7133 N   0  0  0  0  0  0  0  0  0  0  0  0
    8.3561  -15.6508   24.7537 C   0  0  0  0  0  0  0  0  0  0  0  0
    7.2724  -16.3210   24.8554 O   0  0  0  0  0  0  0  0  0  0  0  0
    9.7915  -18.6745   23.7138 C   0  0  0  0  0  0  0  0  0  0  0  0
   10.3867  -18.4635   25.0831 C   0  0  1  0  0  0  0  0  0  0  0  0
   11.6412  -17.9082   25.0002 O   0  0  0  0  0  0  0  0  0  0  0  0
    9.4940  -17.5308   25.8734 C   0  0  2  0  0  0  0  0  0  0  0  0
    9.4992  -16.1922   25.3418 N   0  0  0  0  0  0  0  0  0  0  0  0
    9.9023  -17.4712   27.3094 C   0  0  0  0  0  0  0  0  0  0  0  0
    9.8637  -18.6120   28.1052 O   0  0  0  0  0  0  0  0  0  0  0  0
   10.2871  -16.3971   27.8273 O   0  0  0  0  0  0  0  0  0  0  0  0
  2  1  1  6
  2  5  1  0
  3  2  1  0
  3  4  1  0
  5  6  2  0
  8  7  1  0
  8  9  1  0
  9 10  1  0
 11 10  1  1
 11 13  1  0
 12  5  1  0
 12 11  1  0
 13 14  2  0
 13 19  1  0
 16 15  1  6
 16 17  1  0
 18 16  1  0
 18 20  1  0
 18 19  1  6
 20 21  1  0
 22 20  2  0
M  END
$$$$
