CMT.pdb
     RDKit          3D

 22 21  0  0  1  0  0  0  0  0999 V2000
    5.2623  -18.0609   20.8508 N   0  0  0  0  0  0  0  0  0  0  0  0
    5.5261  -18.1395   22.2614 C   0  0  1  0  0  0  0  0  0  0  0  0
    5.9370  -19.5691   22.6132 C   0  0  0  0  0  0  0  0  0  0  0  0
    6.1219  -19.7099   24.3934 S   0  0  0  0  0  0  0  0  0  0  0  0
    6.6343  -17.2073   22.6743 C   0  0  0  0  0  0  0  0  0  0  0  0
    7.6306  -17.1356   21.9263 O   0  0  0  0  0  0  0  0  0  0  0  0
    5.8996  -11.8772   26.4590 C   0  0  0  0  0  0  0  0  0  0  0  0
    7.2969  -12.7011   27.3022 S   0  0  0  0  0  0  0  0  0  0  0  0
    8.0886  -13.7851   26.0803 C   0  0  0  0  0  0  0  0  0  0  0  0
    7.0147  -14.6689   25.5019 C   0  0  0  0  0  0  0  0  0  0  0  0
    7.5440  -15.6114   24.4272 C   0  0  2  0  0  0  0  0  0  0  0  0
    6.5201  -16.4588   23.8649 N   0  0  0  0  0  0  0  0  0  0  0  0
    8.6580  -16.3684   24.9881 C   0  0  0  0  0  0  0  0  0  0  0  0
    8.3574  -17.3106   25.7978 O   0  0  0  0  0  0  0  0  0  0  0  0
   13.2465  -18.0724   24.6815 C   0  0  0  0  0  0  0  0  0  0  0  0
   12.2772  -16.9888   24.2817 C   0  0  1  0  0  0  0  0  0  0  0  0
   11.9869  -17.0511   22.9397 O   0  0  0  0  0  0  0  0  0  0  0  0
   10.9930  -17.1587   25.0648 C   0  0  2  0  0  0  0  0  0  0  0  0
   10.0119  -16.1607   24.7244 N   0  0  0  0  0  0  0  0  0  0  0  0
   11.2396  -17.0969   26.5372 C   0  0  0  0  0  0  0  0  0  0  0  0
   11.6670  -18.2240   27.2322 O   0  0  0  0  0  0  0  0  0  0  0  0
   11.0677  -16.0331   27.1766 O   0  0  0  0  0  0  0  0  0  0  0  0
  2  1  1  6
  2  5  1  0
  3  2  1  0
  3  4  1  0
  5  6  2  0
  8  7  1  0
  8  9  1  0
  9 10  1  0
 11 10  1  1
 11 13  1  0
 12  5  1  0
 12 11  1  0
 13 14  2  0
 13 19  1  0
 16 15  1  1
 16 17  1  0
 18 16  1  0
 18 20  1  0
 18 19  1  6
 20 21  1  0
 22 20  2  0
M  END
$$$$
