CMT.pdb
     RDKit          3D

 22 21  0  0  1  0  0  0  0  0999 V2000
    7.3843  -15.5524   18.9517 N   0  0  0  0  0  0  0  0  0  0  0  0
    6.9147  -16.0705   20.2074 C   0  0  1  0  0  0  0  0  0  0  0  0
    7.0031  -17.5963   20.1818 C   0  0  0  0  0  0  0  0  0  0  0  0
    5.3841  -18.2760   19.8072 S   0  0  0  0  0  0  0  0  0  0  0  0
    7.7362  -15.5624   21.3625 C   0  0  0  0  0  0  0  0  0  0  0  0
    8.9754  -15.5396   21.2175 O   0  0  0  0  0  0  0  0  0  0  0  0
    7.2545  -10.9235   27.4085 C   0  0  0  0  0  0  0  0  0  0  0  0
    6.3615  -12.4226   26.8631 S   0  0  0  0  0  0  0  0  0  0  0  0
    7.5439  -13.4325   25.9263 C   0  0  0  0  0  0  0  0  0  0  0  0
    6.8462  -13.8939   24.6736 C   0  0  0  0  0  0  0  0  0  0  0  0
    7.7667  -14.6713   23.7399 C   0  0  2  0  0  0  0  0  0  0  0  0
    7.0999  -15.1365   22.5477 N   0  0  0  0  0  0  0  0  0  0  0  0
    8.3847  -15.7528   24.4995 C   0  0  0  0  0  0  0  0  0  0  0  0
    7.6350  -16.7461   24.7910 O   0  0  0  0  0  0  0  0  0  0  0  0
   12.2602  -18.5038   25.4878 C   0  0  0  0  0  0  0  0  0  0  0  0
   11.6839  -17.2554   24.8690 C   0  0  1  0  0  0  0  0  0  0  0  0
   11.6184  -17.3630   23.5003 O   0  0  0  0  0  0  0  0  0  0  0  0
   10.2860  -17.0355   25.4064 C   0  0  2  0  0  0  0  0  0  0  0  0
    9.7091  -15.8031   24.9344 N   0  0  0  0  0  0  0  0  0  0  0  0
   10.2715  -17.0230   26.9004 C   0  0  0  0  0  0  0  0  0  0  0  0
   10.2071  -18.2131   27.6185 O   0  0  0  0  0  0  0  0  0  0  0  0
   10.3168  -15.9451   27.5376 O   0  0  0  0  0  0  0  0  0  0  0  0
  2  1  1  6
  2  5  1  0
  3  2  1  0
  3  4  1  0
  5  6  2  0
  8  7  1  0
  8  9  1  0
  9 10  1  0
 11 10  1  1
 11 13  1  0
 12  5  1  0
 12 11  1  0
 13 14  2  0
 13 19  1  0
 16 15  1  1
 16 17  1  0
 18 16  1  0
 18 20  1  0
 18 19  1  6
 20 21  1  0
 22 20  2  0
M  END
$$$$
