CMT.pdb
     RDKit          3D

 22 21  0  0  1  0  0  0  0  0999 V2000
    9.1396  -15.8590   19.3744 N   0  0  0  0  0  0  0  0  0  0  0  0
    8.1953  -16.1325   20.4229 C   0  0  1  0  0  0  0  0  0  0  0  0
    7.8642  -17.6247   20.4193 C   0  0  0  0  0  0  0  0  0  0  0  0
    6.8522  -18.0022   18.9852 S   0  0  0  0  0  0  0  0  0  0  0  0
    8.7439  -15.7668   21.7767 C   0  0  0  0  0  0  0  0  0  0  0  0
    9.9668  -15.9312   21.9623 O   0  0  0  0  0  0  0  0  0  0  0  0
    6.7801  -10.9569   26.3300 C   0  0  0  0  0  0  0  0  0  0  0  0
    6.3399  -12.6286   26.9252 S   0  0  0  0  0  0  0  0  0  0  0  0
    7.5866  -13.7714   26.2658 C   0  0  0  0  0  0  0  0  0  0  0  0
    7.2350  -14.0365   24.8253 C   0  0  0  0  0  0  0  0  0  0  0  0
    8.2711  -14.9011   24.1164 C   0  0  2  0  0  0  0  0  0  0  0  0
    7.8831  -15.2611   22.7739 N   0  0  0  0  0  0  0  0  0  0  0  0
    8.5507  -16.0626   24.9538 C   0  0  0  0  0  0  0  0  0  0  0  0
    7.5859  -16.8814   25.1343 O   0  0  0  0  0  0  0  0  0  0  0  0
   10.7753  -18.7030   24.0924 C   0  0  0  0  0  0  0  0  0  0  0  0
   11.1380  -18.3920   25.5226 C   0  0  1  0  0  0  0  0  0  0  0  0
   12.2661  -17.6100   25.5910 O   0  0  0  0  0  0  0  0  0  0  0  0
    9.9916  -17.6490   26.1745 C   0  0  2  0  0  0  0  0  0  0  0  0
    9.7652  -16.3607   25.5716 N   0  0  0  0  0  0  0  0  0  0  0  0
   10.2300  -17.4520   27.6363 C   0  0  0  0  0  0  0  0  0  0  0  0
   10.2838  -18.5425   28.4989 O   0  0  0  0  0  0  0  0  0  0  0  0
   10.3862  -16.3052   28.1162 O   0  0  0  0  0  0  0  0  0  0  0  0
  2  1  1  6
  2  5  1  0
  3  2  1  0
  3  4  1  0
  5  6  2  0
  8  7  1  0
  8  9  1  0
  9 10  1  0
 11 10  1  1
 11 13  1  0
 12  5  1  0
 12 11  1  0
 13 14  2  0
 13 19  1  0
 16 15  1  6
 16 17  1  0
 18 16  1  0
 18 20  1  0
 18 19  1  6
 20 21  1  0
 22 20  2  0
M  END
$$$$
