CMT.pdb
     RDKit          3D

 22 21  0  0  1  0  0  0  0  0999 V2000
    7.6924  -12.7313   19.0160 N   0  0  0  0  0  0  0  0  0  0  0  0
    7.2587  -13.6051   20.0716 C   0  0  1  0  0  0  0  0  0  0  0  0
    6.9107  -14.9700   19.4781 C   0  0  0  0  0  0  0  0  0  0  0  0
    6.4469  -16.0896   20.8027 S   0  0  0  0  0  0  0  0  0  0  0  0
    8.3290  -13.7947   21.1137 C   0  0  0  0  0  0  0  0  0  0  0  0
    9.5148  -13.7812   20.7255 O   0  0  0  0  0  0  0  0  0  0  0  0
    5.3512  -12.1315   27.2235 C   0  0  0  0  0  0  0  0  0  0  0  0
    7.0174  -11.9204   26.5012 S   0  0  0  0  0  0  0  0  0  0  0  0
    7.2191  -13.2162   25.2460 C   0  0  0  0  0  0  0  0  0  0  0  0
    8.6110  -13.0851   24.6853 C   0  0  0  0  0  0  0  0  0  0  0  0
    8.8935  -14.0870   23.5719 C   0  0  2  0  0  0  0  0  0  0  0  0
    7.9723  -13.9778   22.4666 N   0  0  0  0  0  0  0  0  0  0  0  0
    8.9210  -15.4247   24.1537 C   0  0  0  0  0  0  0  0  0  0  0  0
    7.7899  -15.9925   24.3326 O   0  0  0  0  0  0  0  0  0  0  0  0
   10.2342  -18.4074   22.6296 C   0  0  0  0  0  0  0  0  0  0  0  0
   10.8116  -18.4150   24.0225 C   0  0  1  0  0  0  0  0  0  0  0  0
   12.1053  -17.9511   24.0274 O   0  0  0  0  0  0  0  0  0  0  0  0
    9.9723  -17.5230   24.9120 C   0  0  2  0  0  0  0  0  0  0  0  0
   10.0597  -16.1369   24.5305 N   0  0  0  0  0  0  0  0  0  0  0  0
   10.3766  -17.6456   26.3451 C   0  0  0  0  0  0  0  0  0  0  0  0
   10.8668  -16.5443   27.0400 O   0  0  0  0  0  0  0  0  0  0  0  0
   10.2837  -18.7384   26.9510 O   0  0  0  0  0  0  0  0  0  0  0  0
  2  1  1  6
  2  5  1  0
  3  2  1  0
  3  4  1  0
  5  6  2  0
  8  7  1  0
  8  9  1  0
  9 10  1  0
 11 10  1  1
 11 13  1  0
 12  5  1  0
 12 11  1  0
 13 14  2  0
 13 19  1  0
 16 15  1  6
 16 17  1  0
 18 16  1  0
 18 20  1  0
 18 19  1  6
 20 21  1  0
 22 20  2  0
M  END
$$$$
