CMT.pdb
     RDKit          3D

 22 21  0  0  1  0  0  0  0  0999 V2000
    8.7009  -14.8032   18.9185 N   0  0  0  0  0  0  0  0  0  0  0  0
    7.7473  -15.0931   19.9541 C   0  0  1  0  0  0  0  0  0  0  0  0
    7.2789  -16.5409   19.8098 C   0  0  0  0  0  0  0  0  0  0  0  0
    7.3137  -17.0034   18.0754 S   0  0  0  0  0  0  0  0  0  0  0  0
    8.3428  -14.9168   21.3259 C   0  0  0  0  0  0  0  0  0  0  0  0
    9.5792  -15.0466   21.4342 O   0  0  0  0  0  0  0  0  0  0  0  0
    7.0825  -11.3205   28.0747 C   0  0  0  0  0  0  0  0  0  0  0  0
    6.1835  -12.3272   26.8415 S   0  0  0  0  0  0  0  0  0  0  0  0
    7.4102  -13.3911   26.0300 C   0  0  0  0  0  0  0  0  0  0  0  0
    6.9388  -13.6237   24.6184 C   0  0  0  0  0  0  0  0  0  0  0  0
    7.9509  -14.3954   23.7797 C   0  0  2  0  0  0  0  0  0  0  0  0
    7.5090  -14.6173   22.4240 N   0  0  0  0  0  0  0  0  0  0  0  0
    8.2761  -15.6347   24.4775 C   0  0  0  0  0  0  0  0  0  0  0  0
    7.3570  -16.5218   24.5232 O   0  0  0  0  0  0  0  0  0  0  0  0
   10.2878  -18.2835   23.4830 C   0  0  0  0  0  0  0  0  0  0  0  0
   10.7914  -18.0058   24.8769 C   0  0  1  0  0  0  0  0  0  0  0  0
   11.9396  -17.2507   24.8499 O   0  0  0  0  0  0  0  0  0  0  0  0
    9.7300  -17.2484   25.6458 C   0  0  2  0  0  0  0  0  0  0  0  0
    9.4890  -15.9395   25.0952 N   0  0  0  0  0  0  0  0  0  0  0  0
   10.1033  -17.0952   27.0844 C   0  0  0  0  0  0  0  0  0  0  0  0
   10.2117  -18.2092   27.9110 O   0  0  0  0  0  0  0  0  0  0  0  0
   10.3261  -15.9648   27.5768 O   0  0  0  0  0  0  0  0  0  0  0  0
  2  1  1  6
  2  5  1  0
  3  2  1  0
  3  4  1  0
  5  6  2  0
  8  7  1  0
  8  9  1  0
  9 10  1  0
 11 10  1  1
 11 13  1  0
 12  5  1  0
 12 11  1  0
 13 14  2  0
 13 19  1  0
 16 15  1  6
 16 17  1  0
 18 16  1  0
 18 20  1  0
 18 19  1  6
 20 21  1  0
 22 20  2  0
M  END
$$$$
