SIA.pdb
     RDKit          3D

 20 19  0  0  1  0  0  0  0  0999 V2000
   16.5555   -3.7960  -15.3054 O   0  0  0  0  0  0  0  0  0  0  0  0
   16.7542   -5.0244  -14.6836 C   0  0  0  0  0  0  0  0  0  0  0  0
   17.3692   -4.8013  -13.2946 C   0  0  2  0  0  0  0  0  0  0  0  0
   18.7597   -4.4601  -13.5178 N   0  0  0  0  0  0  0  0  0  0  0  0
   17.2337   -6.0526  -12.4931 C   0  0  0  0  0  0  0  0  0  0  0  0
   18.2104   -6.8647  -12.5433 O   0  0  0  0  0  0  0  0  0  0  0  0
   15.3767   -6.3461   -7.5421 C   0  0  0  0  0  0  0  0  0  0  0  0
   16.1038   -6.7150   -8.7930 C   0  0  0  0  0  0  0  0  0  0  0  0
   15.1647   -7.4546   -9.7735 C   0  0  2  0  0  0  0  0  0  0  0  0
   14.9105   -8.8039   -9.1471 C   0  0  0  0  0  0  0  0  0  0  0  0
   15.9334   -7.6547  -11.0648 C   0  0  2  0  0  0  0  0  0  0  0  0
   16.0990   -6.3451  -11.7147 N   0  0  0  0  0  0  0  0  0  0  0  0
   15.2306   -8.5738  -11.9711 C   0  0  0  0  0  0  0  0  0  0  0  0
   14.0490   -8.2149  -12.3391 O   0  0  0  0  0  0  0  0  0  0  0  0
   15.7474  -11.6017  -14.0399 C   0  0  0  0  0  0  0  0  0  0  0  0
   14.8327  -10.6430  -13.3131 C   0  0  2  0  0  0  0  0  0  0  0  0
   15.6723   -9.7901  -12.4949 N   0  0  0  0  0  0  0  0  0  0  0  0
   13.8008  -11.3409  -12.5222 C   0  0  0  0  0  0  0  0  0  0  0  0
   14.0164  -11.5691  -11.3142 O   0  0  0  0  0  0  0  0  0  0  0  0
   12.6079  -11.7480  -13.0747 O   0  0  0  0  0  0  0  0  0  0  0  0
  2  1  1  0
  2  3  1  0
  3  4  1  6
  5  6  2  0
  5  3  1  0
  8  7  1  0
  8  9  1  0
  9 11  1  0
  9 10  1  1
 11 12  1  6
 11 13  1  0
 12  5  1  0
 13 17  1  0
 14 13  2  0
 16 15  1  1
 16 18  1  0
 17 16  1  0
 18 19  2  0
 18 20  1  0
M  END
$$$$
