SIA.pdb
     RDKit          3D

 20 19  0  0  1  0  0  0  0  0999 V2000
   22.9526   -8.8043  -13.5851 O   0  0  0  0  0  0  0  0  0  0  0  0
   22.0749   -8.1670  -14.4560 C   0  0  0  0  0  0  0  0  0  0  0  0
   21.2630   -9.2191  -15.2250 C   0  0  2  0  0  0  0  0  0  0  0  0
   22.1665   -9.7926  -16.2021 N   0  0  0  0  0  0  0  0  0  0  0  0
   20.0977   -8.5555  -15.8791 C   0  0  0  0  0  0  0  0  0  0  0  0
   20.2422   -8.2345  -17.1007 O   0  0  0  0  0  0  0  0  0  0  0  0
   15.9416  -10.9119  -15.9222 C   0  0  0  0  0  0  0  0  0  0  0  0
   16.5948   -9.7307  -16.5606 C   0  0  0  0  0  0  0  0  0  0  0  0
   16.5160   -8.4952  -15.6346 C   0  0  2  0  0  0  0  0  0  0  0  0
   15.3039   -7.7232  -16.0958 C   0  0  0  0  0  0  0  0  0  0  0  0
   17.7536   -7.6597  -15.8965 C   0  0  2  0  0  0  0  0  0  0  0  0
   18.8919   -8.2864  -15.2063 N   0  0  0  0  0  0  0  0  0  0  0  0
   17.5813   -6.2805  -15.4188 C   0  0  0  0  0  0  0  0  0  0  0  0
   17.4079   -6.1368  -14.1500 O   0  0  0  0  0  0  0  0  0  0  0  0
   17.7481   -2.7692  -16.6433 C   0  0  0  0  0  0  0  0  0  0  0  0
   17.5898   -3.7850  -15.5355 C   0  0  2  0  0  0  0  0  0  0  0  0
   17.5831   -5.0952  -16.1563 N   0  0  0  0  0  0  0  0  0  0  0  0
   16.3844   -3.5437  -14.7195 C   0  0  0  0  0  0  0  0  0  0  0  0
   15.3059   -4.0692  -15.0639 O   0  0  0  0  0  0  0  0  0  0  0  0
   16.4119   -2.7575  -13.5903 O   0  0  0  0  0  0  0  0  0  0  0  0
  2  1  1  0
  2  3  1  0
  3  4  1  6
  5  6  2  0
  5  3  1  0
  8  7  1  0
  8  9  1  0
  9 11  1  0
  9 10  1  6
 11 12  1  1
 11 13  1  0
 12  5  1  0
 13 17  1  0
 14 13  2  0
 16 15  1  6
 16 18  1  0
 17 16  1  0
 18 19  2  0
 18 20  1  0
M  END
$$$$
