SIA.pdb
     RDKit          3D

 20 19  0  0  1  0  0  0  0  0999 V2000
   22.2239  -13.2591  -21.8417 O   0  0  0  0  0  0  0  0  0  0  0  0
   22.0870  -12.6505  -20.5983 C   0  0  0  0  0  0  0  0  0  0  0  0
   23.1282  -13.2277  -19.6287 C   0  0  2  0  0  0  0  0  0  0  0  0
   22.7512  -14.6090  -19.4055 N   0  0  0  0  0  0  0  0  0  0  0  0
   23.1046  -12.4414  -18.3608 C   0  0  0  0  0  0  0  0  0  0  0  0
   22.1856  -12.7324  -17.5321 O   0  0  0  0  0  0  0  0  0  0  0  0
   27.5512  -11.7704  -15.7796 C   0  0  0  0  0  0  0  0  0  0  0  0
   26.1014  -11.8983  -16.1135 C   0  0  0  0  0  0  0  0  0  0  0  0
   25.4693  -10.5069  -16.3475 C   0  0  2  0  0  0  0  0  0  0  0  0
   25.4743   -9.8305  -14.9984 C   0  0  0  0  0  0  0  0  0  0  0  0
   24.0320  -10.7340  -16.7726 C   0  0  2  0  0  0  0  0  0  0  0  0
   24.0352  -11.4272  -18.0704 N   0  0  0  0  0  0  0  0  0  0  0  0
   23.2997   -9.4650  -16.8892 C   0  0  0  0  0  0  0  0  0  0  0  0
   23.7874   -8.6018  -17.7121 O   0  0  0  0  0  0  0  0  0  0  0  0
   20.0318   -8.0834  -16.7562 C   0  0  0  0  0  0  0  0  0  0  0  0
   21.4891   -7.7928  -16.4810 C   0  0  2  0  0  0  0  0  0  0  0  0
   22.1371   -9.0648  -16.2279 N   0  0  0  0  0  0  0  0  0  0  0  0
   21.6721   -6.8382  -15.3708 C   0  0  0  0  0  0  0  0  0  0  0  0
   22.0409   -7.2680  -14.2585 O   0  0  0  0  0  0  0  0  0  0  0  0
   21.4492   -5.4888  -15.5232 O   0  0  0  0  0  0  0  0  0  0  0  0
  2  1  1  0
  2  3  1  0
  3  4  1  1
  5  6  2  0
  5  3  1  0
  8  7  1  0
  8  9  1  0
  9 11  1  0
  9 10  1  1
 11 12  1  6
 11 13  1  0
 12  5  1  0
 13 17  1  0
 14 13  2  0
 16 15  1  1
 16 18  1  0
 17 16  1  0
 18 19  2  0
 18 20  1  0
M  END
$$$$
