SIA.pdb
     RDKit          3D

 20 19  0  0  1  0  0  0  0  0999 V2000
   21.5346  -24.9136   -6.4939 O   0  0  0  0  0  0  0  0  0  0  0  0
   22.0477  -23.8860   -7.2787 C   0  0  0  0  0  0  0  0  0  0  0  0
   22.0701  -22.5836   -6.4659 C   0  0  2  0  0  0  0  0  0  0  0  0
   20.6883  -22.2768   -6.1553 N   0  0  0  0  0  0  0  0  0  0  0  0
   22.6999  -21.5069   -7.2847 C   0  0  0  0  0  0  0  0  0  0  0  0
   21.9109  -20.6544   -7.8010 O   0  0  0  0  0  0  0  0  0  0  0  0
   27.5847  -19.5307   -6.1061 C   0  0  0  0  0  0  0  0  0  0  0  0
   26.1740  -19.6397   -6.5833 C   0  0  0  0  0  0  0  0  0  0  0  0
   26.1249  -20.2118   -8.0187 C   0  0  2  0  0  0  0  0  0  0  0  0
   26.7128  -19.1373   -8.9006 C   0  0  0  0  0  0  0  0  0  0  0  0
   24.6634  -20.3915   -8.3793 C   0  0  2  0  0  0  0  0  0  0  0  0
   24.0883  -21.4145   -7.4918 N   0  0  0  0  0  0  0  0  0  0  0  0
   24.5029  -20.8030   -9.7811 C   0  0  0  0  0  0  0  0  0  0  0  0
   24.9777  -21.9601  -10.0909 O   0  0  0  0  0  0  0  0  0  0  0  0
   22.6397  -20.0318  -12.8512 C   0  0  0  0  0  0  0  0  0  0  0  0
   23.8689  -20.6113  -12.1899 C   0  0  2  0  0  0  0  0  0  0  0  0
   23.8989  -20.1081  -10.8305 N   0  0  0  0  0  0  0  0  0  0  0  0
   25.1059  -20.3001  -12.9316 C   0  0  0  0  0  0  0  0  0  0  0  0
   25.9035  -19.4668  -12.4548 O   0  0  0  0  0  0  0  0  0  0  0  0
   25.4081  -20.8999  -14.1328 O   0  0  0  0  0  0  0  0  0  0  0  0
  2  1  1  0
  2  3  1  0
  3  4  1  6
  5  6  2  0
  5  3  1  0
  8  7  1  0
  8  9  1  0
  9 11  1  0
  9 10  1  6
 11 12  1  1
 11 13  1  0
 12  5  1  0
 13 17  1  0
 14 13  2  0
 16 15  1  6
 16 18  1  0
 17 16  1  0
 18 19  2  0
 18 20  1  0
M  END
$$$$
