SIA.pdb
     RDKit          3D

 20 19  0  0  1  0  0  0  0  0999 V2000
   18.8368  -11.2317  -19.9854 O   0  0  0  0  0  0  0  0  0  0  0  0
   19.2633  -10.8442  -18.7193 C   0  0  0  0  0  0  0  0  0  0  0  0
   20.2801  -11.8643  -18.1874 C   0  0  2  0  0  0  0  0  0  0  0  0
   19.5105  -13.0098  -17.7453 N   0  0  0  0  0  0  0  0  0  0  0  0
   21.0456  -11.2512  -17.0629 C   0  0  0  0  0  0  0  0  0  0  0  0
   20.5393  -11.3705  -15.9030 O   0  0  0  0  0  0  0  0  0  0  0  0
   26.6432  -10.2344  -15.0267 C   0  0  0  0  0  0  0  0  0  0  0  0
   25.2040   -9.8367  -15.0077 C   0  0  0  0  0  0  0  0  0  0  0  0
   24.4447  -10.4743  -16.1940 C   0  0  2  0  0  0  0  0  0  0  0  0
   25.0693   -9.8849  -17.4351 C   0  0  0  0  0  0  0  0  0  0  0  0
   23.0047  -10.0087  -16.1060 C   0  0  2  0  0  0  0  0  0  0  0  0
   22.2638  -10.5718  -17.2457 N   0  0  0  0  0  0  0  0  0  0  0  0
   22.9122   -8.5421  -16.1292 C   0  0  0  0  0  0  0  0  0  0  0  0
   23.4251   -7.9572  -17.1565 O   0  0  0  0  0  0  0  0  0  0  0  0
   21.0859   -5.8167  -15.9615 C   0  0  0  0  0  0  0  0  0  0  0  0
   22.3782   -6.2449  -15.3052 C   0  0  2  0  0  0  0  0  0  0  0  0
   22.3373   -7.6891  -15.1853 N   0  0  0  0  0  0  0  0  0  0  0  0
   22.5969   -5.5792  -14.0067 C   0  0  0  0  0  0  0  0  0  0  0  0
   22.9275   -4.3757  -13.9923 O   0  0  0  0  0  0  0  0  0  0  0  0
   22.4477   -6.2435  -12.8107 O   0  0  0  0  0  0  0  0  0  0  0  0
  2  1  1  0
  2  3  1  0
  3  4  1  1
  5  6  2  0
  5  3  1  0
  8  7  1  0
  8  9  1  0
  9 11  1  0
  9 10  1  6
 11 12  1  6
 11 13  1  0
 12  5  1  0
 13 17  1  0
 14 13  2  0
 16 15  1  1
 16 18  1  0
 17 16  1  0
 18 19  2  0
 18 20  1  0
M  END
$$$$
