SIA.pdb
     RDKit          3D

 20 19  0  0  1  0  0  0  0  0999 V2000
   19.4576  -10.6971  -21.0435 O   0  0  0  0  0  0  0  0  0  0  0  0
   19.7620  -10.4943  -19.7014 C   0  0  0  0  0  0  0  0  0  0  0  0
   20.8953  -11.4427  -19.2849 C   0  0  2  0  0  0  0  0  0  0  0  0
   20.3048  -12.7628  -19.1927 N   0  0  0  0  0  0  0  0  0  0  0  0
   21.4486  -10.9970  -17.9728 C   0  0  0  0  0  0  0  0  0  0  0  0
   20.8125  -11.3664  -16.9360 O   0  0  0  0  0  0  0  0  0  0  0  0
   26.5089  -10.1266  -14.8574 C   0  0  0  0  0  0  0  0  0  0  0  0
   25.0818   -9.7345  -15.0554 C   0  0  0  0  0  0  0  0  0  0  0  0
   24.5703  -10.2102  -16.4346 C   0  0  2  0  0  0  0  0  0  0  0  0
   25.3785   -9.4408  -17.4508 C   0  0  0  0  0  0  0  0  0  0  0  0
   23.1191   -9.7855  -16.5447 C   0  0  2  0  0  0  0  0  0  0  0  0
   22.6091  -10.2102  -17.8579 N   0  0  0  0  0  0  0  0  0  0  0  0
   22.9733   -8.3300  -16.4022 C   0  0  0  0  0  0  0  0  0  0  0  0
   23.6742   -7.6079  -17.2070 O   0  0  0  0  0  0  0  0  0  0  0  0
   20.6322   -5.8058  -15.6748 C   0  0  0  0  0  0  0  0  0  0  0  0
   22.0900   -6.1694  -15.5120 C   0  0  2  0  0  0  0  0  0  0  0  0
   22.1707   -7.6169  -15.5098 N   0  0  0  0  0  0  0  0  0  0  0  0
   22.6868   -5.5715  -14.3021 C   0  0  0  0  0  0  0  0  0  0  0  0
   23.0201   -4.3689  -14.3234 O   0  0  0  0  0  0  0  0  0  0  0  0
   22.8874   -6.2983  -13.1508 O   0  0  0  0  0  0  0  0  0  0  0  0
  2  1  1  0
  2  3  1  0
  3  4  1  1
  5  6  2  0
  5  3  1  0
  8  7  1  0
  8  9  1  0
  9 11  1  0
  9 10  1  6
 11 12  1  6
 11 13  1  0
 12  5  1  0
 13 17  1  0
 14 13  2  0
 16 15  1  1
 16 18  1  0
 17 16  1  0
 18 19  2  0
 18 20  1  0
M  END
$$$$
