SIA.pdb
     RDKit          3D

 20 19  0  0  1  0  0  0  0  0999 V2000
   17.1539  -10.5724  -19.6721 O   0  0  0  0  0  0  0  0  0  0  0  0
   17.6862  -10.2218  -18.4357 C   0  0  0  0  0  0  0  0  0  0  0  0
   18.5895  -11.3547  -17.9276 C   0  0  2  0  0  0  0  0  0  0  0  0
   17.7043  -12.4324  -17.5343 N   0  0  0  0  0  0  0  0  0  0  0  0
   19.3948  -10.8581  -16.7739 C   0  0  0  0  0  0  0  0  0  0  0  0
   18.8835  -11.0109  -15.6200 O   0  0  0  0  0  0  0  0  0  0  0  0
   24.9353  -10.4568  -14.5071 C   0  0  0  0  0  0  0  0  0  0  0  0
   23.5733   -9.8487  -14.5771 C   0  0  0  0  0  0  0  0  0  0  0  0
   22.7703  -10.4404  -15.7583 C   0  0  2  0  0  0  0  0  0  0  0  0
   23.5192  -10.0267  -17.0016 C   0  0  0  0  0  0  0  0  0  0  0  0
   21.4133   -9.7644  -15.7603 C   0  0  2  0  0  0  0  0  0  0  0  0
   20.6542  -10.2495  -16.9237 N   0  0  0  0  0  0  0  0  0  0  0  0
   21.5421   -8.3019  -15.8259 C   0  0  0  0  0  0  0  0  0  0  0  0
   22.1811   -7.8334  -16.8421 O   0  0  0  0  0  0  0  0  0  0  0  0
   19.8753   -5.2821  -15.0877 C   0  0  0  0  0  0  0  0  0  0  0  0
   21.2449   -5.9192  -15.1364 C   0  0  2  0  0  0  0  0  0  0  0  0
   21.0604   -7.3427  -14.9332 N   0  0  0  0  0  0  0  0  0  0  0  0
   22.1753   -5.3275  -14.1558 C   0  0  0  0  0  0  0  0  0  0  0  0
   22.4133   -5.9464  -13.0983 O   0  0  0  0  0  0  0  0  0  0  0  0
   22.7892   -4.1147  -14.3706 O   0  0  0  0  0  0  0  0  0  0  0  0
  2  1  1  0
  2  3  1  0
  3  4  1  1
  5  6  2  0
  5  3  1  0
  8  7  1  0
  8  9  1  0
  9 11  1  0
  9 10  1  6
 11 12  1  6
 11 13  1  0
 12  5  1  0
 13 17  1  0
 14 13  2  0
 16 15  1  1
 16 18  1  0
 17 16  1  0
 18 19  2  0
 18 20  1  0
M  END
$$$$
