SIA.pdb
     RDKit          3D

 20 19  0  0  1  0  0  0  0  0999 V2000
   18.1971  -26.0116   -7.9970 O   0  0  0  0  0  0  0  0  0  0  0  0
   18.3067  -24.7545   -8.5825 C   0  0  0  0  0  0  0  0  0  0  0  0
   19.3120  -23.9068   -7.7898 C   0  0  2  0  0  0  0  0  0  0  0  0
   18.6792  -23.6108   -6.5203 N   0  0  0  0  0  0  0  0  0  0  0  0
   19.6131  -22.6622   -8.5556 C   0  0  0  0  0  0  0  0  0  0  0  0
   18.7951  -21.6994   -8.4142 O   0  0  0  0  0  0  0  0  0  0  0  0
   24.4842  -20.7541   -8.5192 C   0  0  0  0  0  0  0  0  0  0  0  0
   22.9974  -20.8574   -8.6095 C   0  0  0  0  0  0  0  0  0  0  0  0
   22.5526  -21.0809  -10.0733 C   0  0  2  0  0  0  0  0  0  0  0  0
   22.8844  -19.7977  -10.7951 C   0  0  0  0  0  0  0  0  0  0  0  0
   21.0470  -21.2573  -10.0617 C   0  0  2  0  0  0  0  0  0  0  0  0
   20.7336  -22.5316   -9.3962 N   0  0  0  0  0  0  0  0  0  0  0  0
   20.4962  -21.2600  -11.4243 C   0  0  0  0  0  0  0  0  0  0  0  0
   20.8108  -22.2689  -12.1617 O   0  0  0  0  0  0  0  0  0  0  0  0
   17.8354  -19.8526  -13.4812 C   0  0  0  0  0  0  0  0  0  0  0  0
   19.2324  -20.4249  -13.4109 C   0  0  2  0  0  0  0  0  0  0  0  0
   19.6697  -20.3138  -12.0331 N   0  0  0  0  0  0  0  0  0  0  0  0
   20.1589  -19.7634  -14.3496 C   0  0  0  0  0  0  0  0  0  0  0  0
   20.9736  -18.9278  -13.9071 O   0  0  0  0  0  0  0  0  0  0  0  0
   20.1531  -20.0390  -15.6980 O   0  0  0  0  0  0  0  0  0  0  0  0
  2  1  1  0
  2  3  1  0
  3  4  1  1
  5  6  2  0
  5  3  1  0
  8  7  1  0
  8  9  1  0
  9 11  1  0
  9 10  1  6
 11 12  1  6
 11 13  1  0
 12  5  1  0
 13 17  1  0
 14 13  2  0
 16 15  1  1
 16 18  1  0
 17 16  1  0
 18 19  2  0
 18 20  1  0
M  END
$$$$
