SIA.pdb
     RDKit          3D

 20 19  0  0  1  0  0  0  0  0999 V2000
   21.1633  -11.0029  -21.9931 O   0  0  0  0  0  0  0  0  0  0  0  0
   20.6550  -10.6521  -20.7467 C   0  0  0  0  0  0  0  0  0  0  0  0
   21.2745  -11.5535  -19.6692 C   0  0  2  0  0  0  0  0  0  0  0  0
   20.6382  -12.8478  -19.8096 N   0  0  0  0  0  0  0  0  0  0  0  0
   21.0158  -10.9584  -18.3257 C   0  0  0  0  0  0  0  0  0  0  0  0
   19.9590  -11.3410  -17.7318 O   0  0  0  0  0  0  0  0  0  0  0  0
   24.1367  -11.3462  -14.4393 C   0  0  0  0  0  0  0  0  0  0  0  0
   22.9078  -11.0828  -15.2455 C   0  0  0  0  0  0  0  0  0  0  0  0
   22.7377   -9.5681  -15.5044 C   0  0  2  0  0  0  0  0  0  0  0  0
   22.3954   -8.9665  -14.1633 C   0  0  0  0  0  0  0  0  0  0  0  0
   21.5483   -9.4029  -16.4297 C   0  0  2  0  0  0  0  0  0  0  0  0
   21.8763  -10.0225  -17.7233 N   0  0  0  0  0  0  0  0  0  0  0  0
   21.2154   -7.9852  -16.6283 C   0  0  0  0  0  0  0  0  0  0  0  0
   22.1665   -7.2350  -17.0678 O   0  0  0  0  0  0  0  0  0  0  0  0
   18.3132   -5.6705  -16.6492 C   0  0  0  0  0  0  0  0  0  0  0  0
   19.8024   -5.9257  -16.6833 C   0  0  2  0  0  0  0  0  0  0  0  0
   19.9997   -7.3353  -16.4076 N   0  0  0  0  0  0  0  0  0  0  0  0
   20.5427   -5.0606  -15.7448 C   0  0  0  0  0  0  0  0  0  0  0  0
   20.7372   -5.4608  -14.5786 O   0  0  0  0  0  0  0  0  0  0  0  0
   21.0256   -3.8262  -16.1148 O   0  0  0  0  0  0  0  0  0  0  0  0
  2  1  1  0
  2  3  1  0
  3  4  1  1
  5  6  2  0
  5  3  1  0
  8  7  1  0
  8  9  1  0
  9 11  1  0
  9 10  1  1
 11 12  1  6
 11 13  1  0
 12  5  1  0
 13 17  1  0
 14 13  2  0
 16 15  1  1
 16 18  1  0
 17 16  1  0
 18 19  2  0
 18 20  1  0
M  END
$$$$
