SIA.pdb
     RDKit          3D

 20 19  0  0  1  0  0  0  0  0999 V2000
   20.8756  -10.3103  -21.5093 O   0  0  0  0  0  0  0  0  0  0  0  0
   20.9602  -10.0384  -20.1477 C   0  0  0  0  0  0  0  0  0  0  0  0
   21.8889  -11.0615  -19.4783 C   0  0  2  0  0  0  0  0  0  0  0  0
   21.1726  -12.3211  -19.4818 N   0  0  0  0  0  0  0  0  0  0  0  0
   22.1953  -10.6090  -18.0899 C   0  0  0  0  0  0  0  0  0  0  0  0
   21.3609  -10.9409  -17.1900 O   0  0  0  0  0  0  0  0  0  0  0  0
   26.8797  -11.1692  -15.8769 C   0  0  0  0  0  0  0  0  0  0  0  0
   25.4156  -10.9785  -16.0994 C   0  0  0  0  0  0  0  0  0  0  0  0
   25.0530   -9.4756  -16.0953 C   0  0  2  0  0  0  0  0  0  0  0  0
   25.2963   -9.0067  -14.6815 C   0  0  0  0  0  0  0  0  0  0  0  0
   23.5703   -9.3719  -16.3938 C   0  0  2  0  0  0  0  0  0  0  0  0
   23.3373   -9.8550  -17.7640 N   0  0  0  0  0  0  0  0  0  0  0  0
   23.0925   -7.9878  -16.2672 C   0  0  0  0  0  0  0  0  0  0  0  0
   23.6919   -7.1115  -16.9974 O   0  0  0  0  0  0  0  0  0  0  0  0
   20.2368   -5.9937  -15.1693 C   0  0  0  0  0  0  0  0  0  0  0  0
   21.7266   -6.0809  -15.4077 C   0  0  2  0  0  0  0  0  0  0  0  0
   22.0681   -7.4889  -15.4606 N   0  0  0  0  0  0  0  0  0  0  0  0
   22.5030   -5.3523  -14.3862 C   0  0  0  0  0  0  0  0  0  0  0  0
   22.5669   -4.1074  -14.4493 O   0  0  0  0  0  0  0  0  0  0  0  0
   23.1590   -6.0023  -13.3658 O   0  0  0  0  0  0  0  0  0  0  0  0
  2  1  1  0
  2  3  1  0
  3  4  1  1
  5  6  2  0
  5  3  1  0
  8  7  1  0
  8  9  1  0
  9 11  1  0
  9 10  1  1
 11 12  1  6
 11 13  1  0
 12  5  1  0
 13 17  1  0
 14 13  2  0
 16 15  1  1
 16 18  1  0
 17 16  1  0
 18 19  2  0
 18 20  1  0
M  END
$$$$
