YGF.pdb
     RDKit          3D

 28 29  0  0  1  0  0  0  0  0999 V2000
    6.6459  -24.2481   17.8629 O   0  0  0  0  0  0  0  0  0  0  0  0
    6.7801  -22.8820   18.0559 C   0  0  0  0  0  0  0  0  0  0  0  0
    7.8611  -22.3505   18.6897 C   0  0  0  0  0  0  0  0  0  0  0  0
    7.9797  -20.9824   18.8744 C   0  0  0  0  0  0  0  0  0  0  0  0
    6.9961  -20.1267   18.4153 C   0  0  0  0  0  0  0  0  0  0  0  0
    7.0947  -18.6450   18.5991 C   0  0  0  0  0  0  0  0  0  0  0  0
    7.7594  -18.4221   19.9383 C   0  0  2  0  0  0  0  0  0  0  0  0
    6.8526  -18.9240   20.9546 N   0  0  0  0  0  0  0  0  0  0  0  0
    8.1527  -17.0309   20.1686 C   0  0  0  0  0  0  0  0  0  0  0  0
    8.9719  -16.4894   19.3896 O   0  0  0  0  0  0  0  0  0  0  0  0
    5.9072  -20.7010   17.7734 C   0  0  0  0  0  0  0  0  0  0  0  0
    5.7892  -22.0560   17.5902 C   0  0  0  0  0  0  0  0  0  0  0  0
    7.6368  -16.2705   21.2478 N   0  0  0  0  0  0  0  0  0  0  0  0
    8.0144  -14.8908   21.4801 C   0  0  0  0  0  0  0  0  0  0  0  0
    8.6798  -14.7833   22.7972 C   0  0  0  0  0  0  0  0  0  0  0  0
    9.7133  -14.0692   22.9055 O   0  0  0  0  0  0  0  0  0  0  0  0
    8.2320  -15.4346   23.9614 N   0  0  0  0  0  0  0  0  0  0  0  0
    8.9474  -15.2756   25.2098 C   0  0  1  0  0  0  0  0  0  0  0  0
    7.9022  -15.0589   26.2780 C   0  0  0  0  0  0  0  0  0  0  0  0
    7.3115  -13.7184   26.2748 C   0  0  0  0  0  0  0  0  0  0  0  0
    8.1322  -12.6195   26.3109 C   0  0  0  0  0  0  0  0  0  0  0  0
    7.6128  -11.3553   26.3068 C   0  0  0  0  0  0  0  0  0  0  0  0
    6.2325  -11.2093   26.2652 C   0  0  0  0  0  0  0  0  0  0  0  0
    5.4044  -12.3032   26.2289 C   0  0  0  0  0  0  0  0  0  0  0  0
    5.9497  -13.5535   26.2339 C   0  0  0  0  0  0  0  0  0  0  0  0
    9.8510  -16.4054   25.4829 C   0  0  0  0  0  0  0  0  0  0  0  0
    9.9263  -17.3768   24.6922 O   0  0  0  0  0  0  0  0  0  0  0  0
   10.6438  -16.4341   26.6150 O   0  0  0  0  0  0  0  0  0  0  0  0
  2  3  2  0
  2  1  1  0
  4  3  1  0
  5  4  2  0
  6  5  1  0
  7  6  1  0
  7  8  1  1
  9 10  2  0
  9  7  1  0
 11  5  1  0
 11 12  2  0
 12  2  1  0
 13  9  1  0
 14 15  1  0
 14 13  1  0
 15 16  2  0
 17 15  1  0
 17 18  1  0
 18 19  1  1
 19 20  1  0
 20 21  2  0
 21 22  1  0
 23 22  2  0
 24 23  1  0
 25 24  2  0
 25 20  1  0
 26 28  1  0
 26 18  1  0
 27 26  2  0
M  END
$$$$
