YGF.pdb
     RDKit          3D

 28 29  0  0  1  0  0  0  0  0999 V2000
    6.2633  -13.3131   24.6801 O   0  0  0  0  0  0  0  0  0  0  0  0
    7.0395  -13.3636   23.5327 C   0  0  0  0  0  0  0  0  0  0  0  0
    8.3981  -13.4259   23.5886 C   0  0  0  0  0  0  0  0  0  0  0  0
    9.1591  -13.4758   22.4317 C   0  0  0  0  0  0  0  0  0  0  0  0
    8.5486  -13.4632   21.1918 C   0  0  0  0  0  0  0  0  0  0  0  0
    9.3422  -13.5160   19.9243 C   0  0  0  0  0  0  0  0  0  0  0  0
    9.0007  -14.8295   19.2588 C   0  0  2  0  0  0  0  0  0  0  0  0
    7.7767  -14.6223   18.5064 N   0  0  0  0  0  0  0  0  0  0  0  0
    8.9053  -15.9498   20.1964 C   0  0  0  0  0  0  0  0  0  0  0  0
    7.9612  -16.7661   20.0806 O   0  0  0  0  0  0  0  0  0  0  0  0
    7.1619  -13.3992   21.1700 C   0  0  0  0  0  0  0  0  0  0  0  0
    6.4076  -13.3497   22.3155 C   0  0  0  0  0  0  0  0  0  0  0  0
    9.8484  -16.1448   21.2364 N   0  0  0  0  0  0  0  0  0  0  0  0
    9.8188  -17.3015   22.1088 C   0  0  0  0  0  0  0  0  0  0  0  0
   10.9003  -17.1830   23.1115 C   0  0  0  0  0  0  0  0  0  0  0  0
   11.8974  -16.4553   22.8546 O   0  0  0  0  0  0  0  0  0  0  0  0
   10.8950  -17.8380   24.3568 N   0  0  0  0  0  0  0  0  0  0  0  0
   10.8807  -17.0732   25.5858 C   0  0  1  0  0  0  0  0  0  0  0  0
    9.8141  -16.0169   25.4207 C   0  0  0  0  0  0  0  0  0  0  0  0
    9.6301  -15.1626   26.5964 C   0  0  0  0  0  0  0  0  0  0  0  0
   10.4388  -15.3378   27.6908 C   0  0  0  0  0  0  0  0  0  0  0  0
   10.2944  -14.5559   28.8025 C   0  0  0  0  0  0  0  0  0  0  0  0
    9.3080  -13.5784   28.7979 C   0  0  0  0  0  0  0  0  0  0  0  0
    8.4948  -13.3966   27.7074 C   0  0  0  0  0  0  0  0  0  0  0  0
    8.6609  -14.1912   26.6111 C   0  0  0  0  0  0  0  0  0  0  0  0
   10.6945  -17.9256   26.7716 C   0  0  0  0  0  0  0  0  0  0  0  0
    9.7337  -18.7296   26.8435 O   0  0  0  0  0  0  0  0  0  0  0  0
   11.5680  -17.8694   27.8415 O   0  0  0  0  0  0  0  0  0  0  0  0
  2  3  2  0
  2  1  1  0
  4  3  1  0
  5  4  2  0
  6  5  1  0
  7  6  1  0
  7  8  1  1
  9 10  2  0
  9  7  1  0
 11  5  1  0
 11 12  2  0
 12  2  1  0
 13  9  1  0
 14 15  1  0
 14 13  1  0
 15 16  2  0
 17 15  1  0
 17 18  1  0
 18 19  1  6
 19 20  1  0
 20 21  2  0
 21 22  1  0
 23 22  2  0
 24 23  1  0
 25 24  2  0
 25 20  1  0
 26 28  1  0
 26 18  1  0
 27 26  2  0
M  END
$$$$
