YGF.pdb
     RDKit          3D

 28 29  0  0  1  0  0  0  0  0999 V2000
   10.0413  -12.6515   17.3877 O   0  0  0  0  0  0  0  0  0  0  0  0
    9.2745  -13.1349   18.4364 C   0  0  0  0  0  0  0  0  0  0  0  0
    7.9428  -12.8702   18.5320 C   0  0  0  0  0  0  0  0  0  0  0  0
    7.1908  -13.3614   19.5872 C   0  0  0  0  0  0  0  0  0  0  0  0
    7.7830  -14.1341   20.5682 C   0  0  0  0  0  0  0  0  0  0  0  0
    6.9986  -14.6792   21.7199 C   0  0  0  0  0  0  0  0  0  0  0  0
    7.0455  -16.1850   21.5965 C   0  0  2  0  0  0  0  0  0  0  0  0
    6.1760  -16.5510   20.4933 N   0  0  0  0  0  0  0  0  0  0  0  0
    6.7068  -16.8818   22.8387 C   0  0  0  0  0  0  0  0  0  0  0  0
    5.5125  -16.9107   23.2181 O   0  0  0  0  0  0  0  0  0  0  0  0
    9.1426  -14.3853   20.4408 C   0  0  0  0  0  0  0  0  0  0  0  0
    9.8879  -13.8991   19.3960 C   0  0  0  0  0  0  0  0  0  0  0  0
    7.6875  -17.5286   23.6317 N   0  0  0  0  0  0  0  0  0  0  0  0
    7.5591  -17.6703   25.0682 C   0  0  0  0  0  0  0  0  0  0  0  0
    8.5918  -16.8454   25.7331 C   0  0  0  0  0  0  0  0  0  0  0  0
    9.4772  -16.2875   25.0299 O   0  0  0  0  0  0  0  0  0  0  0  0
    8.6573  -16.6350   27.1229 N   0  0  0  0  0  0  0  0  0  0  0  0
    9.7751  -15.9209   27.7028 C   0  0  1  0  0  0  0  0  0  0  0  0
    9.1867  -14.7999   28.5260 C   0  0  0  0  0  0  0  0  0  0  0  0
    8.3559  -13.8671   27.7607 C   0  0  0  0  0  0  0  0  0  0  0  0
    8.8974  -12.6854   27.3219 C   0  0  0  0  0  0  0  0  0  0  0  0
    8.1498  -11.7947   26.6038 C   0  0  0  0  0  0  0  0  0  0  0  0
    6.8269  -12.1147   26.3284 C   0  0  0  0  0  0  0  0  0  0  0  0
    6.2774  -13.2947   26.7637 C   0  0  0  0  0  0  0  0  0  0  0  0
    7.0465  -14.1655   27.4785 C   0  0  0  0  0  0  0  0  0  0  0  0
   10.6712  -16.8086   28.4620 C   0  0  0  0  0  0  0  0  0  0  0  0
   10.3429  -17.9930   28.7154 O   0  0  0  0  0  0  0  0  0  0  0  0
   11.8995  -16.3694   28.9194 O   0  0  0  0  0  0  0  0  0  0  0  0
  2  3  2  0
  2  1  1  0
  4  3  1  0
  5  4  2  0
  6  5  1  0
  7  6  1  0
  7  8  1  6
  9 10  2  0
  9  7  1  0
 11  5  1  0
 11 12  2  0
 12  2  1  0
 13  9  1  0
 14 15  1  0
 14 13  1  0
 15 16  2  0
 17 15  1  0
 17 18  1  0
 18 19  1  1
 19 20  1  0
 20 21  2  0
 21 22  1  0
 23 22  2  0
 24 23  1  0
 25 24  2  0
 25 20  1  0
 26 28  1  0
 26 18  1  0
 27 26  2  0
M  END
$$$$
