YGF.pdb
     RDKit          3D

 28 29  0  0  1  0  0  0  0  0999 V2000
    4.7048  -25.0395   23.3744 O   0  0  0  0  0  0  0  0  0  0  0  0
    4.8374  -23.7096   23.0068 C   0  0  0  0  0  0  0  0  0  0  0  0
    5.4953  -23.3413   21.8736 C   0  0  0  0  0  0  0  0  0  0  0  0
    5.6187  -22.0070   21.5207 C   0  0  0  0  0  0  0  0  0  0  0  0
    5.0723  -21.0192   22.3182 C   0  0  0  0  0  0  0  0  0  0  0  0
    5.1883  -19.5698   21.9647 C   0  0  0  0  0  0  0  0  0  0  0  0
    6.6523  -19.2141   22.0875 C   0  0  2  0  0  0  0  0  0  0  0  0
    7.0821  -19.6230   23.4124 N   0  0  0  0  0  0  0  0  0  0  0  0
    6.9341  -17.8043   21.8116 C   0  0  0  0  0  0  0  0  0  0  0  0
    6.4598  -17.2762   20.7785 O   0  0  0  0  0  0  0  0  0  0  0  0
    4.4080  -21.4285   23.4665 C   0  0  0  0  0  0  0  0  0  0  0  0
    4.2855  -22.7499   23.8166 C   0  0  0  0  0  0  0  0  0  0  0  0
    7.7289  -17.0111   22.6766 N   0  0  0  0  0  0  0  0  0  0  0  0
    7.8566  -15.5761   22.5208 C   0  0  0  0  0  0  0  0  0  0  0  0
    8.7609  -15.0511   23.5675 C   0  0  0  0  0  0  0  0  0  0  0  0
    8.9305  -13.8054   23.6628 O   0  0  0  0  0  0  0  0  0  0  0  0
    9.4593  -15.8599   24.4830 N   0  0  0  0  0  0  0  0  0  0  0  0
    9.1029  -15.8525   25.8860 C   0  0  1  0  0  0  0  0  0  0  0  0
    7.6142  -15.6072   25.9486 C   0  0  0  0  0  0  0  0  0  0  0  0
    7.2475  -14.2174   26.2317 C   0  0  0  0  0  0  0  0  0  0  0  0
    6.3352  -13.5832   25.4269 C   0  0  0  0  0  0  0  0  0  0  0  0
    5.9702  -12.2878   25.6652 C   0  0  0  0  0  0  0  0  0  0  0  0
    6.5456  -11.6278   26.7430 C   0  0  0  0  0  0  0  0  0  0  0  0
    7.4591  -12.2549   27.5530 C   0  0  0  0  0  0  0  0  0  0  0  0
    7.8052  -13.5483   27.2921 C   0  0  0  0  0  0  0  0  0  0  0  0
    9.5327  -17.0791   26.5775 C   0  0  0  0  0  0  0  0  0  0  0  0
    9.6366  -18.1658   25.9586 O   0  0  0  0  0  0  0  0  0  0  0  0
    9.8351  -17.0753   27.9264 O   0  0  0  0  0  0  0  0  0  0  0  0
  2  3  2  0
  2  1  1  0
  4  3  1  0
  5  4  2  0
  6  5  1  0
  7  6  1  0
  7  8  1  1
  9 10  2  0
  9  7  1  0
 11  5  1  0
 11 12  2  0
 12  2  1  0
 13  9  1  0
 14 15  1  0
 14 13  1  0
 15 16  2  0
 17 15  1  0
 17 18  1  0
 18 19  1  6
 19 20  1  0
 20 21  2  0
 21 22  1  0
 23 22  2  0
 24 23  1  0
 25 24  2  0
 25 20  1  0
 26 28  1  0
 26 18  1  0
 27 26  2  0
M  END
$$$$
