YGF.pdb
     RDKit          3D

 28 29  0  0  1  0  0  0  0  0999 V2000
    8.5513  -13.3493   15.6989 O   0  0  0  0  0  0  0  0  0  0  0  0
    8.1407  -13.7940   16.9459 C   0  0  0  0  0  0  0  0  0  0  0  0
    7.5337  -15.0009   17.1123 C   0  0  0  0  0  0  0  0  0  0  0  0
    7.1294  -15.4303   18.3662 C   0  0  0  0  0  0  0  0  0  0  0  0
    7.3363  -14.6358   19.4781 C   0  0  0  0  0  0  0  0  0  0  0  0
    6.9114  -15.0709   20.8452 C   0  0  0  0  0  0  0  0  0  0  0  0
    8.1792  -15.3022   21.6352 C   0  0  2  0  0  0  0  0  0  0  0  0
    8.9713  -16.2704   20.8988 N   0  0  0  0  0  0  0  0  0  0  0  0
    7.9361  -15.7072   23.0209 C   0  0  0  0  0  0  0  0  0  0  0  0
    7.2898  -14.9445   23.7770 O   0  0  0  0  0  0  0  0  0  0  0  0
    7.9577  -13.4112   19.2737 C   0  0  0  0  0  0  0  0  0  0  0  0
    8.3584  -12.9853   18.0321 C   0  0  0  0  0  0  0  0  0  0  0  0
    8.4087  -16.9384   23.5403 N   0  0  0  0  0  0  0  0  0  0  0  0
    8.2021  -17.3333   24.9192 C   0  0  0  0  0  0  0  0  0  0  0  0
    9.0853  -16.5302   25.7933 C   0  0  0  0  0  0  0  0  0  0  0  0
   10.1458  -16.0451   25.3138 O   0  0  0  0  0  0  0  0  0  0  0  0
    8.8205  -16.2639   27.1493 N   0  0  0  0  0  0  0  0  0  0  0  0
    9.8044  -15.5875   27.9678 C   0  0  1  0  0  0  0  0  0  0  0  0
    9.0957  -14.4206   28.6134 C   0  0  0  0  0  0  0  0  0  0  0  0
    8.3405  -13.5856   27.6761 C   0  0  0  0  0  0  0  0  0  0  0  0
    8.9778  -12.5642   27.0182 C   0  0  0  0  0  0  0  0  0  0  0  0
    8.3023  -11.7684   26.1359 C   0  0  0  0  0  0  0  0  0  0  0  0
    6.9535  -12.0187   25.9209 C   0  0  0  0  0  0  0  0  0  0  0  0
    6.3083  -13.0384   26.5748 C   0  0  0  0  0  0  0  0  0  0  0  0
    7.0069  -13.8173   27.4502 C   0  0  0  0  0  0  0  0  0  0  0  0
   10.4505  -16.4962   28.9293 C   0  0  0  0  0  0  0  0  0  0  0  0
   10.0186  -17.6610   29.1062 O   0  0  0  0  0  0  0  0  0  0  0  0
   11.5501  -16.0986   29.6666 O   0  0  0  0  0  0  0  0  0  0  0  0
  2  3  2  0
  2  1  1  0
  4  3  1  0
  5  4  2  0
  6  5  1  0
  7  6  1  0
  7  8  1  6
  9 10  2  0
  9  7  1  0
 11  5  1  0
 11 12  2  0
 12  2  1  0
 13  9  1  0
 14 15  1  0
 14 13  1  0
 15 16  2  0
 17 15  1  0
 17 18  1  0
 18 19  1  1
 19 20  1  0
 20 21  2  0
 21 22  1  0
 23 22  2  0
 24 23  1  0
 25 24  2  0
 25 20  1  0
 26 28  1  0
 26 18  1  0
 27 26  2  0
M  END
$$$$
