YGF.pdb
     RDKit          3D

 28 29  0  0  1  0  0  0  0  0999 V2000
    8.2780  -12.5172   16.9315 O   0  0  0  0  0  0  0  0  0  0  0  0
    7.8069  -13.2718   17.9945 C   0  0  0  0  0  0  0  0  0  0  0  0
    7.1857  -14.4680   17.8048 C   0  0  0  0  0  0  0  0  0  0  0  0
    6.7207  -15.2098   18.8788 C   0  0  0  0  0  0  0  0  0  0  0  0
    6.8803  -14.7457   20.1709 C   0  0  0  0  0  0  0  0  0  0  0  0
    6.3895  -15.5229   21.3515 C   0  0  0  0  0  0  0  0  0  0  0  0
    7.5960  -16.2188   21.9388 C   0  0  2  0  0  0  0  0  0  0  0  0
    8.2324  -16.9540   20.8609 N   0  0  0  0  0  0  0  0  0  0  0  0
    7.2770  -17.0657   23.0896 C   0  0  0  0  0  0  0  0  0  0  0  0
    7.3921  -18.3094   22.9848 O   0  0  0  0  0  0  0  0  0  0  0  0
    7.5179  -13.5226   20.3296 C   0  0  0  0  0  0  0  0  0  0  0  0
    7.9786  -12.7875   19.2662 C   0  0  0  0  0  0  0  0  0  0  0  0
    6.8401  -16.5254   24.3250 N   0  0  0  0  0  0  0  0  0  0  0  0
    7.1019  -17.1725   25.5949 C   0  0  0  0  0  0  0  0  0  0  0  0
    8.3808  -16.6696   26.1431 C   0  0  0  0  0  0  0  0  0  0  0  0
    9.4052  -16.6700   25.4080 O   0  0  0  0  0  0  0  0  0  0  0  0
    8.5384  -16.1811   27.4532 N   0  0  0  0  0  0  0  0  0  0  0  0
    9.8089  -15.6367   27.8832 C   0  0  1  0  0  0  0  0  0  0  0  0
    9.5444  -14.2098   28.3009 C   0  0  0  0  0  0  0  0  0  0  0  0
    8.6776  -13.4677   27.3822 C   0  0  0  0  0  0  0  0  0  0  0  0
    7.5005  -12.9370   27.8460 C   0  0  0  0  0  0  0  0  0  0  0  0
    6.6706  -12.2375   27.0153 C   0  0  0  0  0  0  0  0  0  0  0  0
    7.0478  -12.0766   25.6886 C   0  0  0  0  0  0  0  0  0  0  0  0
    8.2235  -12.6043   25.2165 C   0  0  0  0  0  0  0  0  0  0  0  0
    9.0329  -13.2980   26.0677 C   0  0  0  0  0  0  0  0  0  0  0  0
   10.4409  -16.4553   28.9311 C   0  0  0  0  0  0  0  0  0  0  0  0
    9.8272  -17.4146   29.4580 O   0  0  0  0  0  0  0  0  0  0  0  0
   11.7264  -16.1958   29.3682 O   0  0  0  0  0  0  0  0  0  0  0  0
  2  3  2  0
  2  1  1  0
  4  3  1  0
  5  4  2  0
  6  5  1  0
  7  6  1  0
  7  8  1  6
  9 10  2  0
  9  7  1  0
 11  5  1  0
 11 12  2  0
 12  2  1  0
 13  9  1  0
 14 15  1  0
 14 13  1  0
 15 16  2  0
 17 15  1  0
 17 18  1  0
 18 19  1  1
 19 20  1  0
 20 21  2  0
 21 22  1  0
 23 22  2  0
 24 23  1  0
 25 24  2  0
 25 20  1  0
 26 28  1  0
 26 18  1  0
 27 26  2  0
M  END
$$$$
