YGF.pdb
     RDKit          3D

 28 29  0  0  1  0  0  0  0  0999 V2000
    8.7693  -11.8144   17.3478 O   0  0  0  0  0  0  0  0  0  0  0  0
    8.1424  -12.7043   18.2060 C   0  0  0  0  0  0  0  0  0  0  0  0
    7.1841  -13.5667   17.7693 C   0  0  0  0  0  0  0  0  0  0  0  0
    6.5672  -14.4500   18.6408 C   0  0  0  0  0  0  0  0  0  0  0  0
    6.9160  -14.4717   19.9780 C   0  0  0  0  0  0  0  0  0  0  0  0
    6.2687  -15.4133   20.9441 C   0  0  0  0  0  0  0  0  0  0  0  0
    7.2046  -16.5917   21.0869 C   0  0  2  0  0  0  0  0  0  0  0  0
    6.8550  -17.5438   20.0484 N   0  0  0  0  0  0  0  0  0  0  0  0
    7.1935  -17.1852   22.4252 C   0  0  0  0  0  0  0  0  0  0  0  0
    6.5376  -18.2347   22.6238 O   0  0  0  0  0  0  0  0  0  0  0  0
    7.8966  -13.5795   20.3905 C   0  0  0  0  0  0  0  0  0  0  0  0
    8.5079  -12.7044   19.5279 C   0  0  0  0  0  0  0  0  0  0  0  0
    7.9023  -16.6113   23.5102 N   0  0  0  0  0  0  0  0  0  0  0  0
    7.7818  -17.1038   24.8677 C   0  0  0  0  0  0  0  0  0  0  0  0
    8.8336  -16.4859   25.7050 C   0  0  0  0  0  0  0  0  0  0  0  0
    9.8594  -16.0092   25.1480 O   0  0  0  0  0  0  0  0  0  0  0  0
    8.7691  -16.3905   27.1074 N   0  0  0  0  0  0  0  0  0  0  0  0
    9.8392  -15.7558   27.8475 C   0  0  1  0  0  0  0  0  0  0  0  0
    9.2510  -14.5114   28.4689 C   0  0  0  0  0  0  0  0  0  0  0  0
    8.5751  -13.6280   27.5156 C   0  0  0  0  0  0  0  0  0  0  0  0
    9.2641  -12.5777   26.9638 C   0  0  0  0  0  0  0  0  0  0  0  0
    8.6633  -11.7364   26.0698 C   0  0  0  0  0  0  0  0  0  0  0  0
    7.3367  -11.9705   25.7326 C   0  0  0  0  0  0  0  0  0  0  0  0
    6.6402  -13.0189   26.2799 C   0  0  0  0  0  0  0  0  0  0  0  0
    7.2646  -13.8429   27.1697 C   0  0  0  0  0  0  0  0  0  0  0  0
   10.4625  -16.6682   28.8204 C   0  0  0  0  0  0  0  0  0  0  0  0
   11.4632  -16.3126   29.4887 O   0  0  0  0  0  0  0  0  0  0  0  0
    9.9684  -17.9422   29.0296 O   0  0  0  0  0  0  0  0  0  0  0  0
  2  3  2  0
  2  1  1  0
  4  3  1  0
  5  4  2  0
  6  5  1  0
  7  6  1  0
  7  8  1  6
  9 10  2  0
  9  7  1  0
 11  5  1  0
 11 12  2  0
 12  2  1  0
 13  9  1  0
 14 15  1  0
 14 13  1  0
 15 16  2  0
 17 15  1  0
 17 18  1  0
 18 19  1  1
 19 20  1  0
 20 21  2  0
 21 22  1  0
 23 22  2  0
 24 23  1  0
 25 24  2  0
 25 20  1  0
 26 28  1  0
 26 18  1  0
 27 26  2  0
M  END
$$$$
