YGF.pdb
     RDKit          3D

 28 29  0  0  1  0  0  0  0  0999 V2000
    8.6808  -12.4231   17.5632 O   0  0  0  0  0  0  0  0  0  0  0  0
    8.2950  -13.0070   18.7598 C   0  0  0  0  0  0  0  0  0  0  0  0
    6.9931  -13.0366   19.1559 C   0  0  0  0  0  0  0  0  0  0  0  0
    6.6246  -13.6244   20.3554 C   0  0  0  0  0  0  0  0  0  0  0  0
    7.5784  -14.1950   21.1769 C   0  0  0  0  0  0  0  0  0  0  0  0
    7.2127  -14.8373   22.4780 C   0  0  0  0  0  0  0  0  0  0  0  0
    7.3808  -16.3268   22.2833 C   0  0  2  0  0  0  0  0  0  0  0  0
    6.1162  -16.8387   21.7873 N   0  0  0  0  0  0  0  0  0  0  0  0
    7.8399  -17.0232   23.4864 C   0  0  0  0  0  0  0  0  0  0  0  0
    7.0179  -17.2765   24.3982 O   0  0  0  0  0  0  0  0  0  0  0  0
    8.8966  -14.1478   20.7436 C   0  0  0  0  0  0  0  0  0  0  0  0
    9.2622  -13.5658   19.5557 C   0  0  0  0  0  0  0  0  0  0  0  0
    9.1889  -17.4232   23.6574 N   0  0  0  0  0  0  0  0  0  0  0  0
    9.6467  -18.1401   24.8306 C   0  0  0  0  0  0  0  0  0  0  0  0
   10.2367  -17.1795   25.7888 C   0  0  0  0  0  0  0  0  0  0  0  0
   11.3501  -16.6520   25.5211 O   0  0  0  0  0  0  0  0  0  0  0  0
    9.6310  -16.8051   27.0025 N   0  0  0  0  0  0  0  0  0  0  0  0
   10.3450  -15.9776   27.9518 C   0  0  1  0  0  0  0  0  0  0  0  0
    9.3013  -15.1716   28.6877 C   0  0  0  0  0  0  0  0  0  0  0  0
    8.4750  -14.3279   27.8208 C   0  0  0  0  0  0  0  0  0  0  0  0
    8.9112  -13.0701   27.4895 C   0  0  0  0  0  0  0  0  0  0  0  0
    8.1652  -12.2588   26.6811 C   0  0  0  0  0  0  0  0  0  0  0  0
    6.9533  -12.7389   26.2025 C   0  0  0  0  0  0  0  0  0  0  0  0
    6.5096  -13.9959   26.5291 C   0  0  0  0  0  0  0  0  0  0  0  0
    7.2744  -14.7844   27.3378 C   0  0  0  0  0  0  0  0  0  0  0  0
   11.2176  -16.7682   28.8356 C   0  0  0  0  0  0  0  0  0  0  0  0
   11.2070  -18.0224   28.7986 O   0  0  0  0  0  0  0  0  0  0  0  0
   12.0745  -16.1580   29.7325 O   0  0  0  0  0  0  0  0  0  0  0  0
  2  3  2  0
  2  1  1  0
  4  3  1  0
  5  4  2  0
  6  5  1  0
  7  6  1  0
  7  8  1  1
  9 10  2  0
  9  7  1  0
 11  5  1  0
 11 12  2  0
 12  2  1  0
 13  9  1  0
 14 15  1  0
 14 13  1  0
 15 16  2  0
 17 15  1  0
 17 18  1  0
 18 19  1  1
 19 20  1  0
 20 21  2  0
 21 22  1  0
 23 22  2  0
 24 23  1  0
 25 24  2  0
 25 20  1  0
 26 28  1  0
 26 18  1  0
 27 26  2  0
M  END
$$$$
