YGF.pdb
     RDKit          3D

 28 29  0  0  1  0  0  0  0  0999 V2000
    8.2140  -13.0404   16.2273 O   0  0  0  0  0  0  0  0  0  0  0  0
    7.8971  -13.5383   17.4815 C   0  0  0  0  0  0  0  0  0  0  0  0
    8.3441  -12.9450   18.6221 C   0  0  0  0  0  0  0  0  0  0  0  0
    8.0178  -13.4558   19.8682 C   0  0  0  0  0  0  0  0  0  0  0  0
    7.2275  -14.5845   19.9764 C   0  0  0  0  0  0  0  0  0  0  0  0
    6.8577  -15.1605   21.3070 C   0  0  0  0  0  0  0  0  0  0  0  0
    8.1375  -15.6821   21.9194 C   0  0  2  0  0  0  0  0  0  0  0  0
    8.7633  -16.5439   20.9330 N   0  0  0  0  0  0  0  0  0  0  0  0
    7.9372  -16.3489   23.2072 C   0  0  0  0  0  0  0  0  0  0  0  0
    7.3177  -15.7493   24.1171 O   0  0  0  0  0  0  0  0  0  0  0  0
    6.7884  -15.1651   18.7942 C   0  0  0  0  0  0  0  0  0  0  0  0
    7.1112  -14.6596   17.5597 C   0  0  0  0  0  0  0  0  0  0  0  0
    8.4219  -17.6562   23.4626 N   0  0  0  0  0  0  0  0  0  0  0  0
    8.3462  -18.2737   24.7714 C   0  0  0  0  0  0  0  0  0  0  0  0
    9.4427  -17.7551   25.6186 C   0  0  0  0  0  0  0  0  0  0  0  0
   10.5763  -18.3038   25.5582 O   0  0  0  0  0  0  0  0  0  0  0  0
    9.3076  -16.6707   26.5052 N   0  0  0  0  0  0  0  0  0  0  0  0
   10.4752  -16.0887   27.1325 C   0  0  1  0  0  0  0  0  0  0  0  0
   10.4423  -14.6130   26.8132 C   0  0  0  0  0  0  0  0  0  0  0  0
    9.1749  -13.9568   27.1436 C   0  0  0  0  0  0  0  0  0  0  0  0
    8.0768  -14.1722   26.3499 C   0  0  0  0  0  0  0  0  0  0  0  0
    6.8793  -13.5768   26.6319 C   0  0  0  0  0  0  0  0  0  0  0  0
    6.8005  -12.7473   27.7428 C   0  0  0  0  0  0  0  0  0  0  0  0
    7.8941  -12.5265   28.5421 C   0  0  0  0  0  0  0  0  0  0  0  0
    9.0770  -13.1337   28.2373 C   0  0  0  0  0  0  0  0  0  0  0  0
   10.5400  -16.3837   28.5734 C   0  0  0  0  0  0  0  0  0  0  0  0
   11.4717  -15.9326   29.2828 O   0  0  0  0  0  0  0  0  0  0  0  0
    9.5808  -17.1643   29.1911 O   0  0  0  0  0  0  0  0  0  0  0  0
  2  3  2  0
  2  1  1  0
  4  3  1  0
  5  4  2  0
  6  5  1  0
  7  6  1  0
  7  8  1  6
  9 10  2  0
  9  7  1  0
 11  5  1  0
 11 12  2  0
 12  2  1  0
 13  9  1  0
 14 15  1  0
 14 13  1  0
 15 16  2  0
 17 15  1  0
 17 18  1  0
 18 19  1  1
 19 20  1  0
 20 21  2  0
 21 22  1  0
 23 22  2  0
 24 23  1  0
 25 24  2  0
 25 20  1  0
 26 28  1  0
 26 18  1  0
 27 26  2  0
M  END
$$$$
