NQF.pdb
     RDKit          3D

 29 29  0  0  1  0  0  0  0  0999 V2000
   29.0641  -18.0726  -16.5364 N   0  0  0  0  0  0  0  0  0  0  0  0
   27.9728  -17.2564  -16.1523 C   0  0  0  0  0  0  0  0  0  0  0  0
   27.7393  -16.2161  -16.8011 O   0  0  0  0  0  0  0  0  0  0  0  0
   27.1173  -17.6165  -15.0067 C   0  0  0  0  0  0  0  0  0  0  0  0
   27.6805  -18.8378  -14.3471 C   0  0  2  0  0  0  0  0  0  0  0  0
   27.7214  -19.9856  -15.1937 N   0  0  0  0  0  0  0  0  0  0  0  0
   26.9571  -19.1867  -13.0902 C   0  0  0  0  0  0  0  0  0  0  0  0
   26.5576  -18.2878  -12.2936 O   0  0  0  0  0  0  0  0  0  0  0  0
   24.9178  -24.3414  -13.6450 N   0  0  0  0  0  0  0  0  0  0  0  0
   24.0047  -23.2986  -13.9342 C   0  0  0  0  0  0  0  0  0  0  0  0
   23.1930  -23.3932  -14.8804 O   0  0  0  0  0  0  0  0  0  0  0  0
   24.0330  -22.0636  -13.0707 C   0  0  0  0  0  0  0  0  0  0  0  0
   25.1188  -22.2198  -12.0424 C   0  0  0  0  0  0  0  0  0  0  0  0
   25.8168  -20.9569  -11.6877 C   0  0  2  0  0  0  0  0  0  0  0  0
   26.7103  -20.5244  -12.7758 N   0  0  0  0  0  0  0  0  0  0  0  0
   26.5731  -21.0141  -10.4324 C   0  0  0  0  0  0  0  0  0  0  0  0
   27.8184  -21.2561  -10.4431 O   0  0  0  0  0  0  0  0  0  0  0  0
   25.8970  -20.7961   -9.2096 N   0  0  0  0  0  0  0  0  0  0  0  0
   26.5944  -20.9715   -7.9630 C   0  0  1  0  0  0  0  0  0  0  0  0
   27.5068  -19.7566   -7.8407 C   0  0  0  0  0  0  0  0  0  0  0  0
   28.1186  -19.6411   -6.5231 C   0  0  0  0  0  0  0  0  0  0  0  0
   29.1517  -20.4621   -6.1666 C   0  0  0  0  0  0  0  0  0  0  0  0
   29.7655  -20.3707   -4.9122 C   0  0  0  0  0  0  0  0  0  0  0  0
   29.3161  -19.4276   -4.0113 C   0  0  0  0  0  0  0  0  0  0  0  0
   28.2653  -18.5888   -4.3661 C   0  0  0  0  0  0  0  0  0  0  0  0
   27.6682  -18.7003   -5.6275 C   0  0  0  0  0  0  0  0  0  0  0  0
   25.5890  -20.9755   -6.8758 C   0  0  0  0  0  0  0  0  0  0  0  0
   24.2324  -20.7396   -7.0706 O   0  0  0  0  0  0  0  0  0  0  0  0
   25.9188  -21.2009   -5.6631 O   0  0  0  0  0  0  0  0  0  0  0  0
  2  1  1  0
  2  3  2  0
  4  2  1  0
  4  5  1  0
  5  6  1  6
  5  7  1  0
  7  8  2  0
  9 10  1  0
 10 11  2  0
 10 12  1  0
 12 13  1  0
 14 13  1  6
 15  7  1  0
 15 14  1  0
 16 17  2  0
 16 14  1  0
 18 16  1  0
 19 18  1  0
 19 20  1  1
 21 22  2  0
 21 20  1  0
 23 22  1  0
 24 23  2  0
 25 24  1  0
 25 26  2  0
 26 21  1  0
 27 28  1  0
 27 19  1  0
 29 27  2  0
M  END
$$$$
