NQF.pdb
     RDKit          3D

 29 29  0  0  1  0  0  0  0  0999 V2000
   20.0986  -17.4166  -18.9164 N   0  0  0  0  0  0  0  0  0  0  0  0
   20.4430  -16.7226  -17.7314 C   0  0  0  0  0  0  0  0  0  0  0  0
   20.3988  -15.4754  -17.7276 O   0  0  0  0  0  0  0  0  0  0  0  0
   20.8492  -17.4480  -16.5136 C   0  0  0  0  0  0  0  0  0  0  0  0
   20.8045  -18.9196  -16.7893 C   0  0  2  0  0  0  0  0  0  0  0  0
   19.4940  -19.4803  -16.7271 N   0  0  0  0  0  0  0  0  0  0  0  0
   21.7068  -19.6921  -15.8869 C   0  0  0  0  0  0  0  0  0  0  0  0
   21.6518  -19.5525  -14.6301 O   0  0  0  0  0  0  0  0  0  0  0  0
   22.8996  -24.4054  -14.4375 N   0  0  0  0  0  0  0  0  0  0  0  0
   24.3120  -24.3858  -14.5338 C   0  0  0  0  0  0  0  0  0  0  0  0
   25.0210  -25.1033  -13.7951 O   0  0  0  0  0  0  0  0  0  0  0  0
   24.9465  -23.4749  -15.5533 C   0  0  0  0  0  0  0  0  0  0  0  0
   23.8632  -22.6835  -16.2323 C   0  0  0  0  0  0  0  0  0  0  0  0
   23.5903  -21.3593  -15.6160 C   0  0  2  0  0  0  0  0  0  0  0  0
   22.6322  -20.5878  -16.4260 N   0  0  0  0  0  0  0  0  0  0  0  0
   24.7862  -20.5456  -15.3731 C   0  0  0  0  0  0  0  0  0  0  0  0
   25.3045  -19.8687  -16.3127 O   0  0  0  0  0  0  0  0  0  0  0  0
   25.3547  -20.5248  -14.0784 N   0  0  0  0  0  0  0  0  0  0  0  0
   26.6238  -19.8816  -13.8623 C   0  0  1  0  0  0  0  0  0  0  0  0
   26.4248  -19.0082  -12.6290 C   0  0  0  0  0  0  0  0  0  0  0  0
   25.9277  -19.7571  -11.4819 C   0  0  0  0  0  0  0  0  0  0  0  0
   26.7996  -20.2909  -10.5747 C   0  0  0  0  0  0  0  0  0  0  0  0
   26.3536  -21.0081   -9.4587 C   0  0  0  0  0  0  0  0  0  0  0  0
   24.9982  -21.1812   -9.2692 C   0  0  0  0  0  0  0  0  0  0  0  0
   24.1045  -20.6415  -10.1877 C   0  0  0  0  0  0  0  0  0  0  0  0
   24.5763  -19.9280  -11.2960 C   0  0  0  0  0  0  0  0  0  0  0  0
   27.6283  -20.9359  -13.5935 C   0  0  0  0  0  0  0  0  0  0  0  0
   27.3144  -22.2756  -13.3920 O   0  0  0  0  0  0  0  0  0  0  0  0
   28.8751  -20.6683  -13.5283 O   0  0  0  0  0  0  0  0  0  0  0  0
  2  1  1  0
  2  3  2  0
  4  2  1  0
  4  5  1  0
  5  6  1  1
  5  7  1  0
  7  8  2  0
  9 10  1  0
 10 11  2  0
 10 12  1  0
 12 13  1  0
 14 13  1  6
 15  7  1  0
 15 14  1  0
 16 17  2  0
 16 14  1  0
 18 16  1  0
 19 18  1  0
 19 20  1  1
 21 22  2  0
 21 20  1  0
 23 22  1  0
 24 23  2  0
 25 24  1  0
 25 26  2  0
 26 21  1  0
 27 28  1  0
 27 19  1  0
 29 27  2  0
M  END
$$$$
