NQF.pdb
     RDKit          3D

 29 29  0  0  1  0  0  0  0  0999 V2000
   18.7479  -16.0903  -15.9677 N   0  0  0  0  0  0  0  0  0  0  0  0
   19.6022  -15.3735  -15.0953 C   0  0  0  0  0  0  0  0  0  0  0  0
   20.1330  -15.9762  -14.1400 O   0  0  0  0  0  0  0  0  0  0  0  0
   19.8699  -13.9380  -15.2994 C   0  0  0  0  0  0  0  0  0  0  0  0
   19.0881  -13.4637  -16.4858 C   0  0  2  0  0  0  0  0  0  0  0  0
   19.5225  -14.0213  -17.7253 N   0  0  0  0  0  0  0  0  0  0  0  0
   19.0779  -11.9765  -16.5991 C   0  0  0  0  0  0  0  0  0  0  0  0
   20.0383  -11.3545  -17.1403 O   0  0  0  0  0  0  0  0  0  0  0  0
   13.8487   -8.8869  -16.3556 N   0  0  0  0  0  0  0  0  0  0  0  0
   14.3534   -9.4636  -17.5462 C   0  0  0  0  0  0  0  0  0  0  0  0
   13.5985   -9.7307  -18.5064 O   0  0  0  0  0  0  0  0  0  0  0  0
   15.8306   -9.7505  -17.6312 C   0  0  0  0  0  0  0  0  0  0  0  0
   16.4735   -9.3556  -16.3306 C   0  0  0  0  0  0  0  0  0  0  0  0
   17.8905   -9.7801  -16.1907 C   0  0  2  0  0  0  0  0  0  0  0  0
   17.9959  -11.2466  -16.1034 N   0  0  0  0  0  0  0  0  0  0  0  0
   18.5956   -9.1745  -15.0561 C   0  0  0  0  0  0  0  0  0  0  0  0
   18.4868   -9.6702  -13.8933 O   0  0  0  0  0  0  0  0  0  0  0  0
   19.3985   -8.0309  -15.2741 N   0  0  0  0  0  0  0  0  0  0  0  0
   20.0457   -7.3861  -14.1622 C   0  0  1  0  0  0  0  0  0  0  0  0
   21.4887   -7.8755  -14.2006 C   0  0  0  0  0  0  0  0  0  0  0  0
   22.4042   -6.8887  -14.7590 C   0  0  0  0  0  0  0  0  0  0  0  0
   22.6556   -5.7232  -14.0906 C   0  0  0  0  0  0  0  0  0  0  0  0
   23.5355   -4.7595  -14.5964 C   0  0  0  0  0  0  0  0  0  0  0  0
   24.1658   -4.9916  -15.8013 C   0  0  0  0  0  0  0  0  0  0  0  0
   23.9153   -6.1747  -16.4877 C   0  0  0  0  0  0  0  0  0  0  0  0
   23.0306   -7.1230  -15.9602 C   0  0  0  0  0  0  0  0  0  0  0  0
   19.9887   -5.9237  -14.3883 C   0  0  0  0  0  0  0  0  0  0  0  0
   20.0923   -4.9759  -13.3759 O   0  0  0  0  0  0  0  0  0  0  0  0
   19.8358   -5.4351  -15.5580 O   0  0  0  0  0  0  0  0  0  0  0  0
  2  1  1  0
  2  3  2  0
  4  2  1  0
  4  5  1  0
  5  6  1  6
  5  7  1  0
  7  8  2  0
  9 10  1  0
 10 11  2  0
 10 12  1  0
 12 13  1  0
 14 13  1  1
 15  7  1  0
 15 14  1  0
 16 17  2  0
 16 14  1  0
 18 16  1  0
 19 18  1  0
 19 20  1  6
 21 22  2  0
 21 20  1  0
 23 22  1  0
 24 23  2  0
 25 24  1  0
 25 26  2  0
 26 21  1  0
 27 28  1  0
 27 19  1  0
 29 27  2  0
M  END
$$$$
