NQF.pdb
     RDKit          3D

 29 29  0  0  1  0  0  0  0  0999 V2000
   16.8123  -13.0823  -15.0633 N   0  0  0  0  0  0  0  0  0  0  0  0
   18.0487  -12.7469  -14.4606 C   0  0  0  0  0  0  0  0  0  0  0  0
   18.7948  -13.6646  -14.0623 O   0  0  0  0  0  0  0  0  0  0  0  0
   18.4618  -11.3407  -14.2994 C   0  0  0  0  0  0  0  0  0  0  0  0
   17.2884  -10.4555  -14.5879 C   0  0  2  0  0  0  0  0  0  0  0  0
   16.8706  -10.4748  -15.9520 N   0  0  0  0  0  0  0  0  0  0  0  0
   17.5298   -9.0430  -14.1737 C   0  0  0  0  0  0  0  0  0  0  0  0
   17.7528   -8.1384  -15.0306 O   0  0  0  0  0  0  0  0  0  0  0  0
   15.6171   -6.9231   -8.7237 N   0  0  0  0  0  0  0  0  0  0  0  0
   16.2024   -5.7193   -9.1853 C   0  0  0  0  0  0  0  0  0  0  0  0
   16.0771   -4.6521   -8.5460 O   0  0  0  0  0  0  0  0  0  0  0  0
   16.9850   -5.7527  -10.4730 C   0  0  0  0  0  0  0  0  0  0  0  0
   16.9385   -7.1491  -11.0287 C   0  0  0  0  0  0  0  0  0  0  0  0
   17.6437   -7.3192  -12.3254 C   0  0  2  0  0  0  0  0  0  0  0  0
   17.5119   -8.7001  -12.8205 N   0  0  0  0  0  0  0  0  0  0  0  0
   19.0621   -6.9469  -12.2975 C   0  0  0  0  0  0  0  0  0  0  0  0
   19.8360   -7.4304  -11.4160 O   0  0  0  0  0  0  0  0  0  0  0  0
   19.5566   -6.0423  -13.2654 N   0  0  0  0  0  0  0  0  0  0  0  0
   20.9402   -5.6471  -13.2373 C   0  0  1  0  0  0  0  0  0  0  0  0
   21.5489   -6.2314  -14.5067 C   0  0  0  0  0  0  0  0  0  0  0  0
   21.7269   -7.6760  -14.4336 C   0  0  0  0  0  0  0  0  0  0  0  0
   22.5501   -8.2239  -13.4900 C   0  0  0  0  0  0  0  0  0  0  0  0
   22.7357   -9.6074  -13.3889 C   0  0  0  0  0  0  0  0  0  0  0  0
   22.0706  -10.4403  -14.2646 C   0  0  0  0  0  0  0  0  0  0  0  0
   21.2314   -9.8908  -15.2276 C   0  0  0  0  0  0  0  0  0  0  0  0
   21.0627   -8.5033  -15.3079 C   0  0  0  0  0  0  0  0  0  0  0  0
   20.9914   -4.1675  -13.2721 C   0  0  0  0  0  0  0  0  0  0  0  0
   22.1619   -3.4270  -13.1473 O   0  0  0  0  0  0  0  0  0  0  0  0
   19.9345   -3.4668  -13.4216 O   0  0  0  0  0  0  0  0  0  0  0  0
  2  1  1  0
  2  3  2  0
  4  2  1  0
  4  5  1  0
  5  6  1  6
  5  7  1  0
  7  8  2  0
  9 10  1  0
 10 11  2  0
 10 12  1  0
 12 13  1  0
 14 13  1  1
 15  7  1  0
 15 14  1  0
 16 17  2  0
 16 14  1  0
 18 16  1  0
 19 18  1  0
 19 20  1  6
 21 22  2  0
 21 20  1  0
 23 22  1  0
 24 23  2  0
 25 24  1  0
 25 26  2  0
 26 21  1  0
 27 28  1  0
 27 19  1  0
 29 27  2  0
M  END
$$$$
