NQF.pdb
     RDKit          3D

 29 29  0  0  1  0  0  0  0  0999 V2000
   26.6001  -20.9179  -19.7392 N   0  0  0  0  0  0  0  0  0  0  0  0
   27.1222  -19.6933  -19.2571 C   0  0  0  0  0  0  0  0  0  0  0  0
   28.2861  -19.6684  -18.8075 O   0  0  0  0  0  0  0  0  0  0  0  0
   26.3157  -18.4591  -19.2794 C   0  0  0  0  0  0  0  0  0  0  0  0
   24.8917  -18.8168  -19.5760 C   0  0  2  0  0  0  0  0  0  0  0  0
   24.6980  -19.4004  -20.8636 N   0  0  0  0  0  0  0  0  0  0  0  0
   23.9727  -17.6513  -19.4277 C   0  0  0  0  0  0  0  0  0  0  0  0
   23.9820  -16.6998  -20.2624 O   0  0  0  0  0  0  0  0  0  0  0  0
   18.6753  -19.2245  -16.6708 N   0  0  0  0  0  0  0  0  0  0  0  0
   18.8156  -18.1087  -17.5310 C   0  0  0  0  0  0  0  0  0  0  0  0
   17.8684  -17.3150  -17.7211 O   0  0  0  0  0  0  0  0  0  0  0  0
   20.1407  -17.8972  -18.2174 C   0  0  0  0  0  0  0  0  0  0  0  0
   20.9385  -16.8978  -17.4265 C   0  0  0  0  0  0  0  0  0  0  0  0
   22.1943  -16.4535  -18.0848 C   0  0  2  0  0  0  0  0  0  0  0  0
   23.0823  -17.5974  -18.3537 N   0  0  0  0  0  0  0  0  0  0  0  0
   22.9360  -15.4267  -17.3454 C   0  0  0  0  0  0  0  0  0  0  0  0
   23.3273  -15.6462  -16.1587 O   0  0  0  0  0  0  0  0  0  0  0  0
   23.2096  -14.1886  -17.9716 N   0  0  0  0  0  0  0  0  0  0  0  0
   23.9464  -13.1744  -17.2646 C   0  0  1  0  0  0  0  0  0  0  0  0
   25.4033  -13.6172  -17.3334 C   0  0  0  0  0  0  0  0  0  0  0  0
   26.3270  -12.5917  -16.8655 C   0  0  0  0  0  0  0  0  0  0  0  0
   26.6322  -12.4909  -15.5369 C   0  0  0  0  0  0  0  0  0  0  0  0
   27.5216  -11.5226  -15.0572 C   0  0  0  0  0  0  0  0  0  0  0  0
   28.1054  -10.6463  -15.9484 C   0  0  0  0  0  0  0  0  0  0  0  0
   27.8000  -10.7420  -17.3017 C   0  0  0  0  0  0  0  0  0  0  0  0
   26.9072  -11.7199  -17.7562 C   0  0  0  0  0  0  0  0  0  0  0  0
   23.7602  -11.8929  -17.9829 C   0  0  0  0  0  0  0  0  0  0  0  0
   23.4439  -11.7975  -19.3338 O   0  0  0  0  0  0  0  0  0  0  0  0
   23.8839  -10.7703  -17.3872 O   0  0  0  0  0  0  0  0  0  0  0  0
  2  1  1  0
  2  3  2  0
  4  2  1  0
  4  5  1  0
  5  6  1  6
  5  7  1  0
  7  8  2  0
  9 10  1  0
 10 11  2  0
 10 12  1  0
 12 13  1  0
 14 13  1  1
 15  7  1  0
 15 14  1  0
 16 17  2  0
 16 14  1  0
 18 16  1  0
 19 18  1  0
 19 20  1  6
 21 22  2  0
 21 20  1  0
 23 22  1  0
 24 23  2  0
 25 24  1  0
 25 26  2  0
 26 21  1  0
 27 28  1  0
 27 19  1  0
 29 27  2  0
M  END
$$$$
