ANL.pdb
     RDKit          3D

 22 21  0  0  1  0  0  0  0  0999 V2000
   19.3548  -10.4657  -18.2024 C   0  0  0  0  0  0  0  0  0  0  0  0
   20.0885   -9.2313  -18.6945 C   0  0  2  0  0  0  0  0  0  0  0  0
   21.5015   -9.5841  -18.7752 N   0  0  0  0  0  0  0  0  0  0  0  0
   19.8808   -8.1750  -17.6510 C   0  0  0  0  0  0  0  0  0  0  0  0
   18.7470   -7.7218  -17.4602 O   0  0  0  0  0  0  0  0  0  0  0  0
   22.7205   -4.7389  -13.8506 N   0  0  0  0  0  0  0  0  0  0  0  0
   21.8485   -5.8450  -13.7430 C   0  0  0  0  0  0  0  0  0  0  0  0
   21.0630   -5.9376  -12.7495 O   0  0  0  0  0  0  0  0  0  0  0  0
   21.9003   -6.8607  -14.8221 C   0  0  0  0  0  0  0  0  0  0  0  0
   20.8559   -6.6515  -15.8810 C   0  0  2  0  0  0  0  0  0  0  0  0
   20.9845   -7.6883  -16.8751 N   0  0  0  0  0  0  0  0  0  0  0  0
   21.0046   -5.2895  -16.5096 C   0  0  0  0  0  0  0  0  0  0  0  0
   21.9031   -5.0777  -17.3594 O   0  0  0  0  0  0  0  0  0  0  0  0
   21.1511   -1.2277  -18.7228 C   0  0  0  0  0  0  0  0  0  0  0  0
   19.7620   -1.8016  -19.0153 C   0  0  2  0  0  0  0  0  0  0  0  0
   18.6947   -0.7736  -18.7605 C   0  0  0  0  0  0  0  0  0  0  0  0
   19.5131   -3.0415  -18.2078 C   0  0  0  0  0  0  0  0  0  0  0  0
   20.1737   -2.9458  -16.8824 C   0  0  2  0  0  0  0  0  0  0  0  0
   20.1458   -4.2175  -16.1661 N   0  0  0  0  0  0  0  0  0  0  0  0
   19.6615   -1.8513  -16.0765 C   0  0  0  0  0  0  0  0  0  0  0  0
   20.1705   -0.5725  -15.9851 O   0  0  0  0  0  0  0  0  0  0  0  0
   18.6205   -2.0744  -15.3570 O   0  0  0  0  0  0  0  0  0  0  0  0
  2  1  1  1
  2  4  1  0
  2  3  1  0
  4 11  1  0
  5  4  2  0
  7  8  2  0
  7  6  1  0
  9  7  1  0
 10  9  1  1
 10 12  1  0
 11 10  1  0
 12 13  2  0
 12 19  1  0
 15 14  1  1
 15 16  1  0
 18 17  1  6
 17 15  1  0
 18 20  1  0
 19 18  1  0
 20 22  2  0
 20 21  1  0
M  END
$$$$
