ANL.pdb
     RDKit          3D

 22 21  0  0  1  0  0  0  0  0999 V2000
   14.4880  -10.9579  -18.0014 C   0  0  0  0  0  0  0  0  0  0  0  0
   15.4739  -11.1405  -16.8617 C   0  0  2  0  0  0  0  0  0  0  0  0
   14.6940  -11.1706  -15.6295 N   0  0  0  0  0  0  0  0  0  0  0  0
   16.3635   -9.9338  -16.8781 C   0  0  0  0  0  0  0  0  0  0  0  0
   17.0906   -9.7263  -17.8555 O   0  0  0  0  0  0  0  0  0  0  0  0
   15.7756   -6.2464  -17.4004 N   0  0  0  0  0  0  0  0  0  0  0  0
   15.6673   -5.9161  -16.0314 C   0  0  0  0  0  0  0  0  0  0  0  0
   14.9230   -4.9530  -15.6694 O   0  0  0  0  0  0  0  0  0  0  0  0
   16.4476   -6.7320  -15.0701 C   0  0  0  0  0  0  0  0  0  0  0  0
   17.2119   -7.8467  -15.7252 C   0  0  2  0  0  0  0  0  0  0  0  0
   16.3768   -9.0215  -15.7715 N   0  0  0  0  0  0  0  0  0  0  0  0
   18.4867   -8.1288  -14.9718 C   0  0  0  0  0  0  0  0  0  0  0  0
   18.4474   -8.4875  -13.7701 O   0  0  0  0  0  0  0  0  0  0  0  0
   24.1428  -10.2339  -15.6150 C   0  0  0  0  0  0  0  0  0  0  0  0
   23.0983   -9.5132  -14.7579 C   0  0  2  0  0  0  0  0  0  0  0  0
   22.7985  -10.2966  -13.5101 C   0  0  0  0  0  0  0  0  0  0  0  0
   21.8450   -9.2577  -15.5422 C   0  0  0  0  0  0  0  0  0  0  0  0
   20.9958   -8.2497  -14.8603 C   0  0  2  0  0  0  0  0  0  0  0  0
   19.7550   -7.9998  -15.5879 N   0  0  0  0  0  0  0  0  0  0  0  0
   21.7117   -7.0221  -14.5596 C   0  0  0  0  0  0  0  0  0  0  0  0
   22.3399   -6.6902  -13.3773 O   0  0  0  0  0  0  0  0  0  0  0  0
   21.7790   -6.1281  -15.4802 O   0  0  0  0  0  0  0  0  0  0  0  0
  2  1  1  6
  2  4  1  0
  2  3  1  0
  4 11  1  0
  5  4  2  0
  7  8  2  0
  7  6  1  0
  9  7  1  0
 10  9  1  1
 10 12  1  0
 11 10  1  0
 12 13  2  0
 12 19  1  0
 15 14  1  6
 15 16  1  0
 18 17  1  6
 17 15  1  0
 18 20  1  0
 19 18  1  0
 20 22  2  0
 20 21  1  0
M  END
$$$$
