ANL.pdb
     RDKit          3D

 22 21  0  0  1  0  0  0  0  0999 V2000
   17.1689  -13.8811  -20.0826 C   0  0  0  0  0  0  0  0  0  0  0  0
   18.4095  -13.4506  -19.3211 C   0  0  2  0  0  0  0  0  0  0  0  0
   18.6113  -14.4268  -18.2563 N   0  0  0  0  0  0  0  0  0  0  0  0
   18.0975  -12.1066  -18.7346 C   0  0  0  0  0  0  0  0  0  0  0  0
   17.8782  -11.1501  -19.4858 O   0  0  0  0  0  0  0  0  0  0  0  0
   17.8554  -13.1714  -15.6246 N   0  0  0  0  0  0  0  0  0  0  0  0
   16.9315  -12.3095  -14.9931 C   0  0  0  0  0  0  0  0  0  0  0  0
   16.2316  -12.7334  -14.0221 O   0  0  0  0  0  0  0  0  0  0  0  0
   16.8280  -10.9242  -15.5120 C   0  0  0  0  0  0  0  0  0  0  0  0
   17.7257  -10.6651  -16.6880 C   0  0  2  0  0  0  0  0  0  0  0  0
   18.0517  -11.9233  -17.3129 N   0  0  0  0  0  0  0  0  0  0  0  0
   18.9772   -9.9476  -16.2507 C   0  0  0  0  0  0  0  0  0  0  0  0
   19.9614  -10.5948  -15.8183 O   0  0  0  0  0  0  0  0  0  0  0  0
   22.5044   -5.4290  -17.9823 C   0  0  0  0  0  0  0  0  0  0  0  0
   22.1685   -6.4693  -16.9101 C   0  0  2  0  0  0  0  0  0  0  0  0
   23.2970   -7.4489  -16.7441 C   0  0  0  0  0  0  0  0  0  0  0  0
   20.8877   -7.1800  -17.2352 C   0  0  0  0  0  0  0  0  0  0  0  0
   20.3344   -7.8426  -16.0281 C   0  0  2  0  0  0  0  0  0  0  0  0
   19.0821   -8.5370  -16.3127 N   0  0  0  0  0  0  0  0  0  0  0  0
   20.2160   -6.9405  -14.8959 C   0  0  0  0  0  0  0  0  0  0  0  0
   21.1564   -6.7041  -13.9148 O   0  0  0  0  0  0  0  0  0  0  0  0
   19.1214   -6.2793  -14.7698 O   0  0  0  0  0  0  0  0  0  0  0  0
  2  1  1  6
  2  4  1  0
  2  3  1  0
  4 11  1  0
  5  4  2  0
  7  8  2  0
  7  6  1  0
  9  7  1  0
 10  9  1  1
 10 12  1  0
 11 10  1  0
 12 13  2  0
 12 19  1  0
 15 14  1  6
 15 16  1  0
 18 17  1  6
 17 15  1  0
 18 20  1  0
 19 18  1  0
 20 22  2  0
 20 21  1  0
M  END
$$$$
