ANL.pdb
     RDKit          3D

 22 21  0  0  1  0  0  0  0  0999 V2000
   29.9450  -23.0592  -16.2728 C   0  0  0  0  0  0  0  0  0  0  0  0
   28.5916  -23.2764  -16.9249 C   0  0  2  0  0  0  0  0  0  0  0  0
   28.8072  -23.2410  -18.3671 N   0  0  0  0  0  0  0  0  0  0  0  0
   27.7323  -22.1219  -16.5047 C   0  0  0  0  0  0  0  0  0  0  0  0
   28.2528  -21.0222  -16.2883 O   0  0  0  0  0  0  0  0  0  0  0  0
   24.0269  -18.4365  -17.0251 N   0  0  0  0  0  0  0  0  0  0  0  0
   23.5969  -19.7701  -16.8465 C   0  0  0  0  0  0  0  0  0  0  0  0
   22.4160  -20.0060  -16.4432 O   0  0  0  0  0  0  0  0  0  0  0  0
   24.5718  -20.8462  -17.1473 C   0  0  0  0  0  0  0  0  0  0  0  0
   25.4331  -21.2086  -15.9714 C   0  0  2  0  0  0  0  0  0  0  0  0
   26.3154  -22.2838  -16.3524 N   0  0  0  0  0  0  0  0  0  0  0  0
   24.5809  -21.6106  -14.7948 C   0  0  0  0  0  0  0  0  0  0  0  0
   23.9140  -22.6730  -14.8279 O   0  0  0  0  0  0  0  0  0  0  0  0
   25.7569  -22.4696  -10.8776 C   0  0  0  0  0  0  0  0  0  0  0  0
   25.5860  -20.9524  -10.9938 C   0  0  2  0  0  0  0  0  0  0  0  0
   26.1229  -20.2592   -9.7724 C   0  0  0  0  0  0  0  0  0  0  0  0
   24.1482  -20.5908  -11.2246 C   0  0  0  0  0  0  0  0  0  0  0  0
   23.6575  -21.1764  -12.4967 C   0  0  2  0  0  0  0  0  0  0  0  0
   24.5057  -20.8125  -13.6277 N   0  0  0  0  0  0  0  0  0  0  0  0
   22.2564  -20.8854  -12.7461 C   0  0  0  0  0  0  0  0  0  0  0  0
   21.1616  -21.4951  -12.1696 O   0  0  0  0  0  0  0  0  0  0  0  0
   21.9794  -19.9633  -13.5971 O   0  0  0  0  0  0  0  0  0  0  0  0
  2  1  1  1
  2  4  1  0
  2  3  1  0
  4 11  1  0
  5  4  2  0
  7  8  2  0
  7  6  1  0
  9  7  1  0
 10  9  1  6
 10 12  1  0
 11 10  1  0
 12 13  2  0
 12 19  1  0
 15 14  1  1
 15 16  1  0
 18 17  1  1
 17 15  1  0
 18 20  1  0
 19 18  1  0
 20 22  2  0
 20 21  1  0
M  END
$$$$
