ANL.pdb
     RDKit          3D

 22 21  0  0  1  0  0  0  0  0999 V2000
   14.8029  -15.8892  -13.8094 C   0  0  0  0  0  0  0  0  0  0  0  0
   15.1420  -15.0708  -15.0421 C   0  0  2  0  0  0  0  0  0  0  0  0
   16.2342  -15.7605  -15.7195 N   0  0  0  0  0  0  0  0  0  0  0  0
   15.6067  -13.7349  -14.5450 C   0  0  0  0  0  0  0  0  0  0  0  0
   16.7939  -13.4166  -14.6730 O   0  0  0  0  0  0  0  0  0  0  0  0
   15.2214   -8.2925  -15.3079 N   0  0  0  0  0  0  0  0  0  0  0  0
   15.7468   -9.2837  -14.4495 C   0  0  0  0  0  0  0  0  0  0  0  0
   16.4804   -8.9479  -13.4689 O   0  0  0  0  0  0  0  0  0  0  0  0
   15.4040  -10.6950  -14.7487 C   0  0  0  0  0  0  0  0  0  0  0  0
   15.0451  -11.4880  -13.5247 C   0  0  2  0  0  0  0  0  0  0  0  0
   14.6867  -12.8266  -13.9240 N   0  0  0  0  0  0  0  0  0  0  0  0
   13.9090  -10.8314  -12.7827 C   0  0  0  0  0  0  0  0  0  0  0  0
   12.7333  -10.9254  -13.2108 O   0  0  0  0  0  0  0  0  0  0  0  0
   10.2316  -10.0640   -9.5792 C   0  0  0  0  0  0  0  0  0  0  0  0
   11.5436   -9.6750   -8.8921 C   0  0  2  0  0  0  0  0  0  0  0  0
   11.6742   -8.1801   -8.7971 C   0  0  0  0  0  0  0  0  0  0  0  0
   12.7206  -10.2696   -9.6079 C   0  0  0  0  0  0  0  0  0  0  0  0
   13.0290   -9.5008  -10.8392 C   0  0  2  0  0  0  0  0  0  0  0  0
   14.1285  -10.0960  -11.5929 N   0  0  0  0  0  0  0  0  0  0  0  0
   13.2433   -8.0876  -10.5808 C   0  0  0  0  0  0  0  0  0  0  0  0
   14.4508   -7.4233  -10.5221 O   0  0  0  0  0  0  0  0  0  0  0  0
   12.2087   -7.3530  -10.3780 O   0  0  0  0  0  0  0  0  0  0  0  0
  2  1  1  1
  2  4  1  0
  2  3  1  0
  4 11  1  0
  5  4  2  0
  7  8  2  0
  7  6  1  0
  9  7  1  0
 10  9  1  6
 10 12  1  0
 11 10  1  0
 12 13  2  0
 12 19  1  0
 15 14  1  6
 15 16  1  0
 18 17  1  1
 17 15  1  0
 18 20  1  0
 19 18  1  0
 20 22  2  0
 20 21  1  0
M  END
$$$$
