FWH.pdb
     RDKit          3D

 36 39  0  0  1  0  0  0  0  0999 V2000
   25.7753  -21.0537  -13.1596 N   0  0  0  0  0  0  0  0  0  0  0  0
   24.6185  -20.5310  -12.4603 C   0  0  1  0  0  0  0  0  0  0  0  0
   23.3539  -20.7619  -13.2560 C   0  0  0  0  0  0  0  0  0  0  0  0
   23.4239  -19.9418  -14.4865 C   0  0  0  0  0  0  0  0  0  0  0  0
   23.7317  -20.4819  -15.7140 C   0  0  0  0  0  0  0  0  0  0  0  0
   23.7948  -19.7123  -16.8520 C   0  0  0  0  0  0  0  0  0  0  0  0
   23.5483  -18.3597  -16.7952 C   0  0  0  0  0  0  0  0  0  0  0  0
   23.2339  -17.7812  -15.5681 C   0  0  0  0  0  0  0  0  0  0  0  0
   23.1803  -18.5759  -14.4598 C   0  0  0  0  0  0  0  0  0  0  0  0
   24.5438  -21.1273  -11.1047 C   0  0  0  0  0  0  0  0  0  0  0  0
   24.7695  -22.3787  -10.9724 O   0  0  0  0  0  0  0  0  0  0  0  0
   24.2427  -20.4351   -9.9291 N   0  0  0  0  0  0  0  0  0  0  0  0
   24.1494  -21.1105   -8.6172 C   0  0  1  0  0  0  0  0  0  0  0  0
   24.7453  -20.1568   -7.6436 C   0  0  0  0  0  0  0  0  0  0  0  0
   26.1898  -20.1629   -7.4952 C   0  0  0  0  0  0  0  0  0  0  0  0
   27.0982  -20.3413   -8.5161 C   0  0  0  0  0  0  0  0  0  0  0  0
   28.3286  -20.2985   -7.9878 N   0  0  0  0  0  0  0  0  0  0  0  0
   28.2286  -20.0979   -6.6601 C   0  0  0  0  0  0  0  0  0  0  0  0
   29.1629  -19.9780   -5.6634 C   0  0  0  0  0  0  0  0  0  0  0  0
   28.7467  -19.7728   -4.3578 C   0  0  0  0  0  0  0  0  0  0  0  0
   27.4146  -19.6869   -4.0414 C   0  0  0  0  0  0  0  0  0  0  0  0
   26.4511  -19.8036   -5.0224 C   0  0  0  0  0  0  0  0  0  0  0  0
   26.8819  -20.0076   -6.3166 C   0  0  0  0  0  0  0  0  0  0  0  0
   22.7522  -21.4466   -8.3513 C   0  0  0  0  0  0  0  0  0  0  0  0
   21.8593  -20.5979   -8.6943 O   0  0  0  0  0  0  0  0  0  0  0  0
   22.3086  -22.6430   -7.7450 N   0  0  0  0  0  0  0  0  0  0  0  0
   20.8646  -22.8759   -7.6354 C   0  0  1  0  0  0  0  0  0  0  0  0
   20.5979  -24.3690   -7.7664 C   0  0  0  0  0  0  0  0  0  0  0  0
   19.1564  -24.6367   -7.6313 C   0  0  0  0  0  0  0  0  0  0  0  0
   18.1172  -23.7794   -7.3198 C   0  0  0  0  0  0  0  0  0  0  0  0
   16.9714  -24.4709   -7.2759 N   0  0  0  0  0  0  0  0  0  0  0  0
   17.2416  -25.7496   -7.5500 C   0  0  0  0  0  0  0  0  0  0  0  0
   18.5564  -25.8527   -7.7642 N   0  0  0  0  0  0  0  0  0  0  0  0
   20.3680  -22.4103   -6.3423 C   0  0  0  0  0  0  0  0  0  0  0  0
   19.0286  -22.0455   -6.2178 O   0  0  0  0  0  0  0  0  0  0  0  0
   21.1418  -22.3396   -5.3549 O   0  0  0  0  0  0  0  0  0  0  0  0
  2  1  1  6
  2  3  1  0
  4  3  1  0
  4  9  1  0
  5  4  2  0
  6  5  1  0
  6  7  2  0
  7  8  1  0
  8  9  2  0
 10  2  1  0
 11 10  2  0
 12 10  1  0
 13 12  1  0
 14 15  1  0
 13 14  1  1
 15 16  2  0
 17 16  1  0
 18 17  1  0
 19 18  2  0
 20 19  1  0
 21 22  1  0
 21 20  2  0
 22 23  2  0
 23 15  1  0
 23 18  1  0
 24 13  1  0
 24 25  2  0
 26 24  1  0
 27 34  1  0
 27 26  1  0
 28 29  1  0
 27 28  1  1
 29 30  2  0
 30 31  1  0
 32 31  1  0
 33 29  1  0
 33 32  2  0
 34 35  1  0
 36 34  2  0
M  END
$$$$
