FWH.pdb
     RDKit          3D

 36 39  0  0  1  0  0  0  0  0999 V2000
   27.4435  -24.5397  -15.9550 N   0  0  0  0  0  0  0  0  0  0  0  0
   27.0173  -23.1750  -16.1925 C   0  0  1  0  0  0  0  0  0  0  0  0
   26.1610  -23.0829  -17.4352 C   0  0  0  0  0  0  0  0  0  0  0  0
   27.0565  -23.0350  -18.6130 C   0  0  0  0  0  0  0  0  0  0  0  0
   27.2610  -24.1258  -19.4265 C   0  0  0  0  0  0  0  0  0  0  0  0
   28.0950  -24.0724  -20.5186 C   0  0  0  0  0  0  0  0  0  0  0  0
   28.7591  -22.9092  -20.8343 C   0  0  0  0  0  0  0  0  0  0  0  0
   28.5742  -21.7866  -20.0314 C   0  0  0  0  0  0  0  0  0  0  0  0
   27.7390  -21.8764  -18.9557 C   0  0  0  0  0  0  0  0  0  0  0  0
   26.3198  -22.6543  -14.9921 C   0  0  0  0  0  0  0  0  0  0  0  0
   25.5435  -23.4383  -14.3461 O   0  0  0  0  0  0  0  0  0  0  0  0
   26.4326  -21.3567  -14.4869 N   0  0  0  0  0  0  0  0  0  0  0  0
   25.6685  -20.8998  -13.3066 C   0  0  1  0  0  0  0  0  0  0  0  0
   26.5672  -19.9444  -12.6052 C   0  0  0  0  0  0  0  0  0  0  0  0
   27.5902  -20.4984  -11.7362 C   0  0  0  0  0  0  0  0  0  0  0  0
   28.7918  -21.0295  -12.1525 C   0  0  0  0  0  0  0  0  0  0  0  0
   29.4569  -21.4493  -11.0679 N   0  0  0  0  0  0  0  0  0  0  0  0
   28.7125  -21.2002   -9.9738 C   0  0  0  0  0  0  0  0  0  0  0  0
   28.9173  -21.4269   -8.6369 C   0  0  0  0  0  0  0  0  0  0  0  0
   27.9443  -21.0533   -7.7238 C   0  0  0  0  0  0  0  0  0  0  0  0
   26.7769  -20.4595   -8.1317 C   0  0  0  0  0  0  0  0  0  0  0  0
   26.5423  -20.2185   -9.4701 C   0  0  0  0  0  0  0  0  0  0  0  0
   27.5204  -20.5963  -10.3659 C   0  0  0  0  0  0  0  0  0  0  0  0
   24.4035  -20.3190  -13.7519 C   0  0  0  0  0  0  0  0  0  0  0  0
   24.3270  -19.9141  -14.9624 O   0  0  0  0  0  0  0  0  0  0  0  0
   23.2521  -20.1723  -12.9466 N   0  0  0  0  0  0  0  0  0  0  0  0
   22.0662  -20.9714  -13.2729 C   0  0  1  0  0  0  0  0  0  0  0  0
   22.3867  -22.4414  -13.0402 C   0  0  0  0  0  0  0  0  0  0  0  0
   21.2518  -23.2776  -13.4654 C   0  0  0  0  0  0  0  0  0  0  0  0
   19.9743  -22.9152  -13.8507 C   0  0  0  0  0  0  0  0  0  0  0  0
   19.2649  -24.0177  -14.1231 N   0  0  0  0  0  0  0  0  0  0  0  0
   20.0482  -25.0809  -13.9244 C   0  0  0  0  0  0  0  0  0  0  0  0
   21.2450  -24.6386  -13.5282 N   0  0  0  0  0  0  0  0  0  0  0  0
   20.9399  -20.5849  -12.4258 C   0  0  0  0  0  0  0  0  0  0  0  0
   19.6804  -20.4206  -12.9995 O   0  0  0  0  0  0  0  0  0  0  0  0
   21.1074  -20.4024  -11.1940 O   0  0  0  0  0  0  0  0  0  0  0  0
  2  1  1  1
  2  3  1  0
  4  3  1  0
  4  9  1  0
  5  4  2  0
  6  5  1  0
  6  7  2  0
  7  8  1  0
  8  9  2  0
 10  2  1  0
 11 10  2  0
 12 10  1  0
 13 12  1  0
 14 15  1  0
 13 14  1  6
 15 16  2  0
 17 16  1  0
 18 17  1  0
 19 18  2  0
 20 19  1  0
 21 22  1  0
 21 20  2  0
 22 23  2  0
 23 15  1  0
 23 18  1  0
 24 13  1  0
 24 25  2  0
 26 24  1  0
 27 34  1  0
 27 26  1  0
 28 29  1  0
 27 28  1  1
 29 30  2  0
 30 31  1  0
 32 31  1  0
 33 29  1  0
 33 32  2  0
 34 35  1  0
 36 34  2  0
M  END
$$$$
