FWH.pdb
     RDKit          3D

 36 39  0  0  1  0  0  0  0  0999 V2000
   14.1205  -13.5620    4.9314 N   0  0  0  0  0  0  0  0  0  0  0  0
   15.5499  -13.7291    5.1026 C   0  0  1  0  0  0  0  0  0  0  0  0
   16.0531  -12.9231    6.2785 C   0  0  0  0  0  0  0  0  0  0  0  0
   17.5225  -12.7919    6.1561 C   0  0  0  0  0  0  0  0  0  0  0  0
   18.3745  -13.0565    7.2037 C   0  0  0  0  0  0  0  0  0  0  0  0
   19.7386  -12.9317    7.0812 C   0  0  0  0  0  0  0  0  0  0  0  0
   20.2994  -12.5326    5.8896 C   0  0  0  0  0  0  0  0  0  0  0  0
   19.4651  -12.2568    4.8092 C   0  0  0  0  0  0  0  0  0  0  0  0
   18.1162  -12.3915    4.9675 C   0  0  0  0  0  0  0  0  0  0  0  0
   15.8713  -15.1708    5.2334 C   0  0  0  0  0  0  0  0  0  0  0  0
   15.0056  -15.9456    5.7670 O   0  0  0  0  0  0  0  0  0  0  0  0
   17.0591  -15.7784    4.8191 N   0  0  0  0  0  0  0  0  0  0  0  0
   17.3100  -17.2244    4.9972 C   0  0  1  0  0  0  0  0  0  0  0  0
   18.3528  -17.5666    3.9932 C   0  0  0  0  0  0  0  0  0  0  0  0
   17.9065  -17.9672    2.6707 C   0  0  0  0  0  0  0  0  0  0  0  0
   17.9658  -17.1874    1.5360 C   0  0  0  0  0  0  0  0  0  0  0  0
   17.4502  -17.8935    0.5209 N   0  0  0  0  0  0  0  0  0  0  0  0
   17.0647  -19.1001    0.9777 C   0  0  0  0  0  0  0  0  0  0  0  0
   16.4864  -20.1848    0.3696 C   0  0  0  0  0  0  0  0  0  0  0  0
   16.1970  -21.3141    1.1185 C   0  0  0  0  0  0  0  0  0  0  0  0
   16.4783  -21.3689    2.4600 C   0  0  0  0  0  0  0  0  0  0  0  0
   17.0600  -20.2935    3.0999 C   0  0  0  0  0  0  0  0  0  0  0  0
   17.3417  -19.1772    2.3404 C   0  0  0  0  0  0  0  0  0  0  0  0
   17.7042  -17.4739    6.3822 C   0  0  0  0  0  0  0  0  0  0  0  0
   18.7837  -16.9317    6.8016 O   0  0  0  0  0  0  0  0  0  0  0  0
   16.9806  -18.2683    7.2993 N   0  0  0  0  0  0  0  0  0  0  0  0
   17.5937  -18.5688    8.5974 C   0  0  1  0  0  0  0  0  0  0  0  0
   16.6783  -18.0582    9.7015 C   0  0  0  0  0  0  0  0  0  0  0  0
   16.7174  -16.5870    9.7478 C   0  0  0  0  0  0  0  0  0  0  0  0
   17.7346  -15.7355   10.1378 C   0  0  0  0  0  0  0  0  0  0  0  0
   17.3107  -14.4687   10.0458 N   0  0  0  0  0  0  0  0  0  0  0  0
   16.0491  -14.4787    9.6078 C   0  0  0  0  0  0  0  0  0  0  0  0
   15.6891  -15.7526    9.4276 N   0  0  0  0  0  0  0  0  0  0  0  0
   17.7788  -20.0099    8.7544 C   0  0  0  0  0  0  0  0  0  0  0  0
   18.2608  -20.5074    9.9639 O   0  0  0  0  0  0  0  0  0  0  0  0
   17.5068  -20.7902    7.8080 O   0  0  0  0  0  0  0  0  0  0  0  0
  2  1  1  1
  2  3  1  0
  4  3  1  0
  4  9  1  0
  5  4  2  0
  6  5  1  0
  6  7  2  0
  7  8  1  0
  8  9  2  0
 10  2  1  0
 11 10  2  0
 12 10  1  0
 13 12  1  0
 14 15  1  0
 13 14  1  6
 15 16  2  0
 17 16  1  0
 18 17  1  0
 19 18  2  0
 20 19  1  0
 21 22  1  0
 21 20  2  0
 22 23  2  0
 23 15  1  0
 23 18  1  0
 24 13  1  0
 24 25  2  0
 26 24  1  0
 27 34  1  0
 27 26  1  0
 28 29  1  0
 27 28  1  1
 29 30  2  0
 30 31  1  0
 32 31  1  0
 33 29  1  0
 33 32  2  0
 34 35  1  0
 36 34  2  0
M  END
$$$$
