FWH.pdb
     RDKit          3D

 36 39  0  0  1  0  0  0  0  0999 V2000
   25.7782  -11.1697  -17.9471 N   0  0  0  0  0  0  0  0  0  0  0  0
   24.5735  -11.4580  -17.1946 C   0  0  1  0  0  0  0  0  0  0  0  0
   24.8674  -11.5476  -15.7143 C   0  0  0  0  0  0  0  0  0  0  0  0
   25.7698  -12.6994  -15.4894 C   0  0  0  0  0  0  0  0  0  0  0  0
   27.1028  -12.5414  -15.1871 C   0  0  0  0  0  0  0  0  0  0  0  0
   27.9341  -13.6173  -14.9801 C   0  0  0  0  0  0  0  0  0  0  0  0
   27.4496  -14.9021  -15.0706 C   0  0  0  0  0  0  0  0  0  0  0  0
   26.1048  -15.0970  -15.3751 C   0  0  0  0  0  0  0  0  0  0  0  0
   25.3096  -14.0058  -15.5741 C   0  0  0  0  0  0  0  0  0  0  0  0
   23.5394  -10.4400  -17.4995 C   0  0  0  0  0  0  0  0  0  0  0  0
   23.8677   -9.2048  -17.4688 O   0  0  0  0  0  0  0  0  0  0  0  0
   22.2076  -10.7083  -17.8253 N   0  0  0  0  0  0  0  0  0  0  0  0
   21.2406   -9.6355  -18.1412 C   0  0  1  0  0  0  0  0  0  0  0  0
   20.2944  -10.2377  -19.1182 C   0  0  0  0  0  0  0  0  0  0  0  0
   19.2314   -9.3927  -19.6326 C   0  0  0  0  0  0  0  0  0  0  0  0
   19.1887   -8.0181  -19.5443 C   0  0  0  0  0  0  0  0  0  0  0  0
   18.0515   -7.6015  -20.1173 N   0  0  0  0  0  0  0  0  0  0  0  0
   17.3700   -8.6720  -20.5675 C   0  0  0  0  0  0  0  0  0  0  0  0
   16.1698   -8.8060  -21.2172 C   0  0  0  0  0  0  0  0  0  0  0  0
   15.7158  -10.0695  -21.5601 C   0  0  0  0  0  0  0  0  0  0  0  0
   16.4453  -11.1923  -21.2618 C   0  0  0  0  0  0  0  0  0  0  0  0
   17.6565  -11.0895  -20.6086 C   0  0  0  0  0  0  0  0  0  0  0  0
   18.0941   -9.8250  -20.2743 C   0  0  0  0  0  0  0  0  0  0  0  0
   20.6149   -9.1765  -16.9028 C   0  0  0  0  0  0  0  0  0  0  0  0
   20.0738  -10.0549  -16.1473 O   0  0  0  0  0  0  0  0  0  0  0  0
   20.5639   -7.8322  -16.4715 N   0  0  0  0  0  0  0  0  0  0  0  0
   19.8467   -7.5248  -15.2295 C   0  0  1  0  0  0  0  0  0  0  0  0
   20.8543   -7.0762  -14.1801 C   0  0  0  0  0  0  0  0  0  0  0  0
   21.5964   -8.2390  -13.6652 C   0  0  0  0  0  0  0  0  0  0  0  0
   21.5160   -9.5736  -14.0179 C   0  0  0  0  0  0  0  0  0  0  0  0
   22.3608  -10.2832  -13.2592 N   0  0  0  0  0  0  0  0  0  0  0  0
   22.9839   -9.4447  -12.4272 C   0  0  0  0  0  0  0  0  0  0  0  0
   22.5256   -8.2132  -12.6691 N   0  0  0  0  0  0  0  0  0  0  0  0
   18.8751   -6.4559  -15.4510 C   0  0  0  0  0  0  0  0  0  0  0  0
   18.0341   -6.0724  -14.4078 O   0  0  0  0  0  0  0  0  0  0  0  0
   18.7996   -5.8907  -16.5706 O   0  0  0  0  0  0  0  0  0  0  0  0
  2  1  1  6
  2  3  1  0
  4  3  1  0
  4  9  1  0
  5  4  2  0
  6  5  1  0
  6  7  2  0
  7  8  1  0
  8  9  2  0
 10  2  1  0
 11 10  2  0
 12 10  1  0
 13 12  1  0
 14 15  1  0
 13 14  1  6
 15 16  2  0
 17 16  1  0
 18 17  1  0
 19 18  2  0
 20 19  1  0
 21 22  1  0
 21 20  2  0
 22 23  2  0
 23 15  1  0
 23 18  1  0
 24 13  1  0
 24 25  2  0
 26 24  1  0
 27 34  1  0
 27 26  1  0
 28 29  1  0
 27 28  1  1
 29 30  2  0
 30 31  1  0
 32 31  1  0
 33 29  1  0
 33 32  2  0
 34 35  1  0
 36 34  2  0
M  END
$$$$
