FWH.pdb
     RDKit          3D

 36 39  0  0  1  0  0  0  0  0999 V2000
   28.7530  -23.2706  -16.9739 N   0  0  0  0  0  0  0  0  0  0  0  0
   27.7977  -22.1811  -16.9452 C   0  0  1  0  0  0  0  0  0  0  0  0
   26.8819  -22.2311  -18.1471 C   0  0  0  0  0  0  0  0  0  0  0  0
   27.6111  -21.6751  -19.3093 C   0  0  0  0  0  0  0  0  0  0  0  0
   27.8164  -20.3242  -19.4712 C   0  0  0  0  0  0  0  0  0  0  0  0
   28.4947  -19.8163  -20.5543 C   0  0  0  0  0  0  0  0  0  0  0  0
   28.9954  -20.6569  -21.5219 C   0  0  0  0  0  0  0  0  0  0  0  0
   28.8050  -22.0299  -21.3884 C   0  0  0  0  0  0  0  0  0  0  0  0
   28.1269  -22.4981  -20.3004 C   0  0  0  0  0  0  0  0  0  0  0  0
   27.0463  -22.2102  -15.6672 C   0  0  0  0  0  0  0  0  0  0  0  0
   26.7487  -23.3441  -15.1570 O   0  0  0  0  0  0  0  0  0  0  0  0
   26.6219  -21.0892  -14.9495 N   0  0  0  0  0  0  0  0  0  0  0  0
   25.9604  -21.1994  -13.6319 C   0  0  1  0  0  0  0  0  0  0  0  0
   26.5680  -20.1274  -12.7988 C   0  0  0  0  0  0  0  0  0  0  0  0
   27.4956  -20.5306  -11.7569 C   0  0  0  0  0  0  0  0  0  0  0  0
   28.8206  -20.8578  -11.9482 C   0  0  0  0  0  0  0  0  0  0  0  0
   29.3412  -21.1890  -10.7589 N   0  0  0  0  0  0  0  0  0  0  0  0
   28.3850  -21.0817   -9.8169 C   0  0  0  0  0  0  0  0  0  0  0  0
   28.3831  -21.2996   -8.4630 C   0  0  0  0  0  0  0  0  0  0  0  0
   27.2172  -21.1017   -7.7408 C   0  0  0  0  0  0  0  0  0  0  0  0
   26.0614  -20.6910   -8.3551 C   0  0  0  0  0  0  0  0  0  0  0  0
   26.0322  -20.4637   -9.7158 C   0  0  0  0  0  0  0  0  0  0  0  0
   27.2008  -20.6652  -10.4201 C   0  0  0  0  0  0  0  0  0  0  0  0
   24.5152  -21.0752  -13.8111 C   0  0  0  0  0  0  0  0  0  0  0  0
   24.0924  -20.2445  -14.6866 O   0  0  0  0  0  0  0  0  0  0  0  0
   23.5444  -21.8070  -13.0916 N   0  0  0  0  0  0  0  0  0  0  0  0
   22.1277  -21.5435  -13.3654 C   0  0  1  0  0  0  0  0  0  0  0  0
   21.3222  -22.7882  -13.0197 C   0  0  0  0  0  0  0  0  0  0  0  0
   19.8828  -22.5109  -13.1582 C   0  0  0  0  0  0  0  0  0  0  0  0
   19.2264  -21.3223  -13.4195 C   0  0  0  0  0  0  0  0  0  0  0  0
   17.9050  -21.5387  -13.4249 N   0  0  0  0  0  0  0  0  0  0  0  0
   17.6902  -22.8328  -13.1745 C   0  0  0  0  0  0  0  0  0  0  0  0
   18.8791  -23.4207  -13.0133 N   0  0  0  0  0  0  0  0  0  0  0  0
   21.6506  -20.4225  -12.5584 C   0  0  0  0  0  0  0  0  0  0  0  0
   20.5610  -19.6766  -13.0044 O   0  0  0  0  0  0  0  0  0  0  0  0
   22.2183  -20.1353  -11.4749 O   0  0  0  0  0  0  0  0  0  0  0  0
  2  1  1  1
  2  3  1  0
  4  3  1  0
  4  9  1  0
  5  4  2  0
  6  5  1  0
  6  7  2  0
  7  8  1  0
  8  9  2  0
 10  2  1  0
 11 10  2  0
 12 10  1  0
 13 12  1  0
 14 15  1  0
 13 14  1  1
 15 16  2  0
 17 16  1  0
 18 17  1  0
 19 18  2  0
 20 19  1  0
 21 22  1  0
 21 20  2  0
 22 23  2  0
 23 15  1  0
 23 18  1  0
 24 13  1  0
 24 25  2  0
 26 24  1  0
 27 34  1  0
 27 26  1  0
 28 29  1  0
 27 28  1  1
 29 30  2  0
 30 31  1  0
 32 31  1  0
 33 29  1  0
 33 32  2  0
 34 35  1  0
 36 34  2  0
M  END
$$$$
