FWH.pdb
     RDKit          3D

 36 39  0  0  1  0  0  0  0  0999 V2000
   27.9043  -21.1898  -16.2712 N   0  0  0  0  0  0  0  0  0  0  0  0
   28.0138  -20.3386  -15.1033 C   0  0  1  0  0  0  0  0  0  0  0  0
   27.5069  -18.9451  -15.3986 C   0  0  0  0  0  0  0  0  0  0  0  0
   28.4043  -18.3281  -16.4013 C   0  0  0  0  0  0  0  0  0  0  0  0
   28.0006  -18.0729  -17.6917 C   0  0  0  0  0  0  0  0  0  0  0  0
   28.8412  -17.4995  -18.6168 C   0  0  0  0  0  0  0  0  0  0  0  0
   30.1296  -17.1592  -18.2738 C   0  0  0  0  0  0  0  0  0  0  0  0
   30.5701  -17.4041  -16.9756 C   0  0  0  0  0  0  0  0  0  0  0  0
   29.7082  -17.9745  -16.0842 C   0  0  0  0  0  0  0  0  0  0  0  0
   27.3017  -20.9633  -13.9625 C   0  0  0  0  0  0  0  0  0  0  0  0
   26.2140  -21.5952  -14.1909 O   0  0  0  0  0  0  0  0  0  0  0  0
   27.7161  -20.9263  -12.6288 N   0  0  0  0  0  0  0  0  0  0  0  0
   26.8638  -21.4140  -11.5235 C   0  0  1  0  0  0  0  0  0  0  0  0
   27.7245  -21.3565  -10.3118 C   0  0  0  0  0  0  0  0  0  0  0  0
   27.1031  -20.9468   -9.0650 C   0  0  0  0  0  0  0  0  0  0  0  0
   25.7503  -20.7793   -8.8626 C   0  0  0  0  0  0  0  0  0  0  0  0
   25.5670  -20.3837   -7.5957 N   0  0  0  0  0  0  0  0  0  0  0  0
   26.7647  -20.2949   -6.9868 C   0  0  0  0  0  0  0  0  0  0  0  0
   27.1393  -19.9408   -5.7160 C   0  0  0  0  0  0  0  0  0  0  0  0
   28.4821  -19.9425   -5.3741 C   0  0  0  0  0  0  0  0  0  0  0  0
   29.4470  -20.2925   -6.2841 C   0  0  0  0  0  0  0  0  0  0  0  0
   29.1011  -20.6535   -7.5703 C   0  0  0  0  0  0  0  0  0  0  0  0
   27.7606  -20.6465   -7.8946 C   0  0  0  0  0  0  0  0  0  0  0  0
   25.6615  -20.5866  -11.4467 C   0  0  0  0  0  0  0  0  0  0  0  0
   25.8045  -19.3185  -11.5281 O   0  0  0  0  0  0  0  0  0  0  0  0
   24.3472  -21.0809  -11.2921 N   0  0  0  0  0  0  0  0  0  0  0  0
   23.2426  -20.3257  -11.8930 C   0  0  1  0  0  0  0  0  0  0  0  0
   23.4420  -20.2832  -13.4017 C   0  0  0  0  0  0  0  0  0  0  0  0
   22.3012  -19.6069  -14.0415 C   0  0  0  0  0  0  0  0  0  0  0  0
   21.4073  -20.0723  -14.9882 C   0  0  0  0  0  0  0  0  0  0  0  0
   20.5493  -19.0943  -15.3048 N   0  0  0  0  0  0  0  0  0  0  0  0
   20.8641  -18.0114  -14.5895 C   0  0  0  0  0  0  0  0  0  0  0  0
   21.9186  -18.3169  -13.8281 N   0  0  0  0  0  0  0  0  0  0  0  0
   21.9633  -20.9660  -11.5949 C   0  0  0  0  0  0  0  0  0  0  0  0
   20.8376  -20.1726  -11.3807 O   0  0  0  0  0  0  0  0  0  0  0  0
   21.8812  -22.2182  -11.5320 O   0  0  0  0  0  0  0  0  0  0  0  0
  2  1  1  6
  2  3  1  0
  4  3  1  0
  4  9  1  0
  5  4  2  0
  6  5  1  0
  6  7  2  0
  7  8  1  0
  8  9  2  0
 10  2  1  0
 11 10  2  0
 12 10  1  0
 13 12  1  0
 14 15  1  0
 13 14  1  1
 15 16  2  0
 17 16  1  0
 18 17  1  0
 19 18  2  0
 20 19  1  0
 21 22  1  0
 21 20  2  0
 22 23  2  0
 23 15  1  0
 23 18  1  0
 24 13  1  0
 24 25  2  0
 26 24  1  0
 27 34  1  0
 27 26  1  0
 28 29  1  0
 27 28  1  6
 29 30  2  0
 30 31  1  0
 32 31  1  0
 33 29  1  0
 33 32  2  0
 34 35  1  0
 36 34  2  0
M  END
$$$$
