FWH.pdb
     RDKit          3D

 36 39  0  0  1  0  0  0  0  0999 V2000
   28.0245  -20.7353  -15.5334 N   0  0  0  0  0  0  0  0  0  0  0  0
   28.0088  -20.1111  -14.2255 C   0  0  1  0  0  0  0  0  0  0  0  0
   27.4852  -18.6951  -14.3068 C   0  0  0  0  0  0  0  0  0  0  0  0
   28.2295  -17.9858  -15.3719 C   0  0  0  0  0  0  0  0  0  0  0  0
   29.6037  -17.9183  -15.3891 C   0  0  0  0  0  0  0  0  0  0  0  0
   30.2870  -17.2569  -16.3824 C   0  0  0  0  0  0  0  0  0  0  0  0
   29.6061  -16.6340  -17.4033 C   0  0  0  0  0  0  0  0  0  0  0  0
   28.2145  -16.6832  -17.4157 C   0  0  0  0  0  0  0  0  0  0  0  0
   27.5700  -17.3487  -16.4135 C   0  0  0  0  0  0  0  0  0  0  0  0
   27.2234  -20.9453  -13.2842 C   0  0  0  0  0  0  0  0  0  0  0  0
   26.3079  -21.7035  -13.7548 O   0  0  0  0  0  0  0  0  0  0  0  0
   27.3924  -20.9827  -11.8979 N   0  0  0  0  0  0  0  0  0  0  0  0
   26.4103  -21.6272  -11.0001 C   0  0  1  0  0  0  0  0  0  0  0  0
   27.1440  -21.8712   -9.7294 C   0  0  0  0  0  0  0  0  0  0  0  0
   27.0523  -20.8563   -8.6950 C   0  0  0  0  0  0  0  0  0  0  0  0
   26.1267  -19.8361   -8.6549 C   0  0  0  0  0  0  0  0  0  0  0  0
   26.3690  -19.0997   -7.5623 N   0  0  0  0  0  0  0  0  0  0  0  0
   27.4223  -19.6226   -6.9063 C   0  0  0  0  0  0  0  0  0  0  0  0
   28.0731  -19.2637   -5.7538 C   0  0  0  0  0  0  0  0  0  0  0  0
   29.1537  -20.0134   -5.3176 C   0  0  0  0  0  0  0  0  0  0  0  0
   29.5868  -21.1107   -6.0178 C   0  0  0  0  0  0  0  0  0  0  0  0
   28.9523  -21.4965   -7.1809 C   0  0  0  0  0  0  0  0  0  0  0  0
   27.8786  -20.7398   -7.6014 C   0  0  0  0  0  0  0  0  0  0  0  0
   25.2446  -20.7563  -10.8634 C   0  0  0  0  0  0  0  0  0  0  0  0
   25.4455  -19.4943  -10.8177 O   0  0  0  0  0  0  0  0  0  0  0  0
   23.9065  -21.2019  -10.7810 N   0  0  0  0  0  0  0  0  0  0  0  0
   22.8966  -20.5338  -11.6087 C   0  0  1  0  0  0  0  0  0  0  0  0
   23.2485  -20.7427  -13.0750 C   0  0  0  0  0  0  0  0  0  0  0  0
   22.2165  -20.1356  -13.9320 C   0  0  0  0  0  0  0  0  0  0  0  0
   21.0605  -19.4586  -13.5896 C   0  0  0  0  0  0  0  0  0  0  0  0
   20.4053  -19.1104  -14.7042 N   0  0  0  0  0  0  0  0  0  0  0  0
   21.1055  -19.5433  -15.7558 C   0  0  0  0  0  0  0  0  0  0  0  0
   22.1964  -20.1612  -15.2940 N   0  0  0  0  0  0  0  0  0  0  0  0
   21.5712  -21.0915  -11.3482 C   0  0  0  0  0  0  0  0  0  0  0  0
   21.4386  -22.4623  -11.1339 O   0  0  0  0  0  0  0  0  0  0  0  0
   20.5632  -20.3419  -11.3189 O   0  0  0  0  0  0  0  0  0  0  0  0
  2  1  1  6
  2  3  1  0
  4  3  1  0
  4  9  1  0
  5  4  2  0
  6  5  1  0
  6  7  2  0
  7  8  1  0
  8  9  2  0
 10  2  1  0
 11 10  2  0
 12 10  1  0
 13 12  1  0
 14 15  1  0
 13 14  1  1
 15 16  2  0
 17 16  1  0
 18 17  1  0
 19 18  2  0
 20 19  1  0
 21 22  1  0
 21 20  2  0
 22 23  2  0
 23 15  1  0
 23 18  1  0
 24 13  1  0
 24 25  2  0
 26 24  1  0
 27 34  1  0
 27 26  1  0
 28 29  1  0
 27 28  1  6
 29 30  2  0
 30 31  1  0
 32 31  1  0
 33 29  1  0
 33 32  2  0
 34 35  1  0
 36 34  2  0
M  END
$$$$
