FWH.pdb
     RDKit          3D

 36 39  0  0  1  0  0  0  0  0999 V2000
   28.3799  -21.5770  -15.1417 N   0  0  0  0  0  0  0  0  0  0  0  0
   27.4669  -20.5622  -14.6547 C   0  0  1  0  0  0  0  0  0  0  0  0
   26.6295  -20.0007  -15.7813 C   0  0  0  0  0  0  0  0  0  0  0  0
   27.2748  -18.7591  -16.2646 C   0  0  0  0  0  0  0  0  0  0  0  0
   27.2829  -17.5985  -15.5255 C   0  0  0  0  0  0  0  0  0  0  0  0
   27.8847  -16.4495  -15.9825 C   0  0  0  0  0  0  0  0  0  0  0  0
   28.5054  -16.4267  -17.2104 C   0  0  0  0  0  0  0  0  0  0  0  0
   28.5153  -17.5847  -17.9839 C   0  0  0  0  0  0  0  0  0  0  0  0
   27.9081  -18.7064  -17.4982 C   0  0  0  0  0  0  0  0  0  0  0  0
   26.6339  -21.1231  -13.5637 C   0  0  0  0  0  0  0  0  0  0  0  0
   26.2029  -22.3215  -13.6761 O   0  0  0  0  0  0  0  0  0  0  0  0
   26.2659  -20.4504  -12.3959 N   0  0  0  0  0  0  0  0  0  0  0  0
   25.2936  -21.0123  -11.4343 C   0  0  1  0  0  0  0  0  0  0  0  0
   25.7116  -20.4900  -10.1058 C   0  0  0  0  0  0  0  0  0  0  0  0
   27.0317  -20.8567   -9.6246 C   0  0  0  0  0  0  0  0  0  0  0  0
   27.9981  -21.5093  -10.3591 C   0  0  0  0  0  0  0  0  0  0  0  0
   29.0687  -21.6833   -9.5727 N   0  0  0  0  0  0  0  0  0  0  0  0
   28.8107  -21.1599   -8.3592 C   0  0  0  0  0  0  0  0  0  0  0  0
   29.5490  -21.0720   -7.2068 C   0  0  0  0  0  0  0  0  0  0  0  0
   29.0013  -20.4628   -6.0893 C   0  0  0  0  0  0  0  0  0  0  0  0
   27.7314  -19.9444   -6.1127 C   0  0  0  0  0  0  0  0  0  0  0  0
   26.9643  -20.0177   -7.2574 C   0  0  0  0  0  0  0  0  0  0  0  0
   27.5240  -20.6271   -8.3609 C   0  0  0  0  0  0  0  0  0  0  0  0
   23.9439  -20.6217  -11.8363 C   0  0  0  0  0  0  0  0  0  0  0  0
   23.6413  -19.3804  -11.7810 O   0  0  0  0  0  0  0  0  0  0  0  0
   22.9438  -21.5120  -12.2866 N   0  0  0  0  0  0  0  0  0  0  0  0
   21.5981  -20.9828  -12.5329 C   0  0  1  0  0  0  0  0  0  0  0  0
   21.6775  -19.9364  -13.6359 C   0  0  0  0  0  0  0  0  0  0  0  0
   22.1645  -20.5534  -14.8810 C   0  0  0  0  0  0  0  0  0  0  0  0
   23.0049  -21.6352  -15.0689 C   0  0  0  0  0  0  0  0  0  0  0  0
   23.2000  -21.8211  -16.3805 N   0  0  0  0  0  0  0  0  0  0  0  0
   22.5096  -20.8902  -17.0441 C   0  0  0  0  0  0  0  0  0  0  0  0
   21.8852  -20.1253  -16.1439 N   0  0  0  0  0  0  0  0  0  0  0  0
   20.6957  -22.0537  -12.9501 C   0  0  0  0  0  0  0  0  0  0  0  0
   21.2074  -23.3329  -13.1609 O   0  0  0  0  0  0  0  0  0  0  0  0
   19.4722  -21.8218  -13.1173 O   0  0  0  0  0  0  0  0  0  0  0  0
  2  1  1  6
  2  3  1  0
  4  3  1  0
  4  9  1  0
  5  4  2  0
  6  5  1  0
  6  7  2  0
  7  8  1  0
  8  9  2  0
 10  2  1  0
 11 10  2  0
 12 10  1  0
 13 12  1  0
 14 15  1  0
 13 14  1  1
 15 16  2  0
 17 16  1  0
 18 17  1  0
 19 18  2  0
 20 19  1  0
 21 22  1  0
 21 20  2  0
 22 23  2  0
 23 15  1  0
 23 18  1  0
 24 13  1  0
 24 25  2  0
 26 24  1  0
 27 34  1  0
 27 26  1  0
 28 29  1  0
 27 28  1  6
 29 30  2  0
 30 31  1  0
 32 31  1  0
 33 29  1  0
 33 32  2  0
 34 35  1  0
 36 34  2  0
M  END
$$$$
