FWH.pdb
     RDKit          3D

 36 39  0  0  1  0  0  0  0  0999 V2000
   28.7219  -20.7165  -15.4899 N   0  0  0  0  0  0  0  0  0  0  0  0
   27.9356  -20.0331  -14.4824 C   0  0  1  0  0  0  0  0  0  0  0  0
   26.8864  -19.1508  -15.1199 C   0  0  0  0  0  0  0  0  0  0  0  0
   27.5713  -18.0093  -15.7674 C   0  0  0  0  0  0  0  0  0  0  0  0
   27.9786  -18.0448  -17.0812 C   0  0  0  0  0  0  0  0  0  0  0  0
   28.6146  -16.9797  -17.6746 C   0  0  0  0  0  0  0  0  0  0  0  0
   28.8658  -15.8302  -16.9610 C   0  0  0  0  0  0  0  0  0  0  0  0
   28.4666  -15.7613  -15.6287 C   0  0  0  0  0  0  0  0  0  0  0  0
   27.8380  -16.8378  -15.0730 C   0  0  0  0  0  0  0  0  0  0  0  0
   27.3434  -21.0258  -13.5538 C   0  0  0  0  0  0  0  0  0  0  0  0
   26.9375  -22.1419  -14.0273 O   0  0  0  0  0  0  0  0  0  0  0  0
   27.1826  -20.8539  -12.1767 N   0  0  0  0  0  0  0  0  0  0  0  0
   26.2325  -21.6648  -11.3856 C   0  0  1  0  0  0  0  0  0  0  0  0
   26.9474  -21.9796  -10.1198 C   0  0  0  0  0  0  0  0  0  0  0  0
   26.8978  -20.9919   -9.0565 C   0  0  0  0  0  0  0  0  0  0  0  0
   25.8909  -20.0703   -8.8670 C   0  0  0  0  0  0  0  0  0  0  0  0
   26.2057  -19.3270   -7.7978 N   0  0  0  0  0  0  0  0  0  0  0  0
   27.3841  -19.7497   -7.3019 C   0  0  0  0  0  0  0  0  0  0  0  0
   28.1467  -19.3417   -6.2376 C   0  0  0  0  0  0  0  0  0  0  0  0
   29.3444  -19.9846   -5.9690 C   0  0  0  0  0  0  0  0  0  0  0  0
   29.7838  -21.0241   -6.7488 C   0  0  0  0  0  0  0  0  0  0  0  0
   29.0385  -21.4571   -7.8264 C   0  0  0  0  0  0  0  0  0  0  0  0
   27.8491  -20.8068   -8.0803 C   0  0  0  0  0  0  0  0  0  0  0  0
   24.9946  -20.9092  -11.2049 C   0  0  0  0  0  0  0  0  0  0  0  0
   25.0899  -19.6537  -10.9816 O   0  0  0  0  0  0  0  0  0  0  0  0
   23.6948  -21.4595  -11.2615 N   0  0  0  0  0  0  0  0  0  0  0  0
   22.7217  -20.8576  -12.1792 C   0  0  1  0  0  0  0  0  0  0  0  0
   23.2368  -21.0038  -13.6043 C   0  0  0  0  0  0  0  0  0  0  0  0
   22.3388  -20.3046  -14.5385 C   0  0  0  0  0  0  0  0  0  0  0  0
   21.1425  -19.6524  -14.3032 C   0  0  0  0  0  0  0  0  0  0  0  0
   20.6559  -19.1894  -15.4616 N   0  0  0  0  0  0  0  0  0  0  0  0
   21.5040  -19.5242  -16.4373 C   0  0  0  0  0  0  0  0  0  0  0  0
   22.5182  -20.1960  -15.8846 N   0  0  0  0  0  0  0  0  0  0  0  0
   21.4280  -21.5274  -12.0644 C   0  0  0  0  0  0  0  0  0  0  0  0
   20.2993  -20.7783  -11.7367 O   0  0  0  0  0  0  0  0  0  0  0  0
   21.3364  -22.7654  -12.2586 O   0  0  0  0  0  0  0  0  0  0  0  0
  2  1  1  6
  2  3  1  0
  4  3  1  0
  4  9  1  0
  5  4  2  0
  6  5  1  0
  6  7  2  0
  7  8  1  0
  8  9  2  0
 10  2  1  0
 11 10  2  0
 12 10  1  0
 13 12  1  0
 14 15  1  0
 13 14  1  1
 15 16  2  0
 17 16  1  0
 18 17  1  0
 19 18  2  0
 20 19  1  0
 21 22  1  0
 21 20  2  0
 22 23  2  0
 23 15  1  0
 23 18  1  0
 24 13  1  0
 24 25  2  0
 26 24  1  0
 27 34  1  0
 27 26  1  0
 28 29  1  0
 27 28  1  6
 29 30  2  0
 30 31  1  0
 32 31  1  0
 33 29  1  0
 33 32  2  0
 34 35  1  0
 36 34  2  0
M  END
$$$$
