FWH.pdb
     RDKit          3D

 36 39  0  0  1  0  0  0  0  0999 V2000
   27.2462  -18.9172  -18.7193 N   0  0  0  0  0  0  0  0  0  0  0  0
   26.5993  -18.3291  -17.5634 C   0  0  1  0  0  0  0  0  0  0  0  0
   25.1914  -17.8893  -17.8954 C   0  0  0  0  0  0  0  0  0  0  0  0
   25.2707  -16.7698  -18.8607 C   0  0  0  0  0  0  0  0  0  0  0  0
   25.7861  -15.5401  -18.5205 C   0  0  0  0  0  0  0  0  0  0  0  0
   25.8556  -14.5055  -19.4238 C   0  0  0  0  0  0  0  0  0  0  0  0
   25.4052  -14.6724  -20.7133 C   0  0  0  0  0  0  0  0  0  0  0  0
   24.8776  -15.9048  -21.0904 C   0  0  0  0  0  0  0  0  0  0  0  0
   24.8244  -16.9087  -20.1673 C   0  0  0  0  0  0  0  0  0  0  0  0
   26.6346  -19.2862  -16.4314 C   0  0  0  0  0  0  0  0  0  0  0  0
   26.3065  -20.5029  -16.6472 O   0  0  0  0  0  0  0  0  0  0  0  0
   27.0012  -18.9779  -15.1190 N   0  0  0  0  0  0  0  0  0  0  0  0
   26.9703  -19.9818  -14.0342 C   0  0  1  0  0  0  0  0  0  0  0  0
   27.8590  -19.4376  -12.9728 C   0  0  0  0  0  0  0  0  0  0  0  0
   28.1151  -20.2763  -11.8154 C   0  0  0  0  0  0  0  0  0  0  0  0
   28.9466  -21.3750  -11.7919 C   0  0  0  0  0  0  0  0  0  0  0  0
   28.9130  -21.8934  -10.5570 N   0  0  0  0  0  0  0  0  0  0  0  0
   28.0838  -21.1557   -9.7945 C   0  0  0  0  0  0  0  0  0  0  0  0
   27.6960  -21.2480   -8.4824 C   0  0  0  0  0  0  0  0  0  0  0  0
   26.8057  -20.3202   -7.9662 C   0  0  0  0  0  0  0  0  0  0  0  0
   26.3030  -19.3082   -8.7439 C   0  0  0  0  0  0  0  0  0  0  0  0
   26.6745  -19.1893  -10.0676 C   0  0  0  0  0  0  0  0  0  0  0  0
   27.5612  -20.1206  -10.5659 C   0  0  0  0  0  0  0  0  0  0  0  0
   25.5861  -20.1871  -13.6125 C   0  0  0  0  0  0  0  0  0  0  0  0
   24.8116  -19.1697  -13.5939 O   0  0  0  0  0  0  0  0  0  0  0  0
   25.0334  -21.4282  -13.2252 N   0  0  0  0  0  0  0  0  0  0  0  0
   23.6760  -21.4444  -12.6697 C   0  0  1  0  0  0  0  0  0  0  0  0
   23.5123  -20.2489  -11.7414 C   0  0  0  0  0  0  0  0  0  0  0  0
   22.1585  -20.2427  -11.1625 C   0  0  0  0  0  0  0  0  0  0  0  0
   21.6588  -20.9111  -10.0600 C   0  0  0  0  0  0  0  0  0  0  0  0
   20.3566  -20.6298   -9.9249 N   0  0  0  0  0  0  0  0  0  0  0  0
   20.0020  -19.7991  -10.9086 C   0  0  0  0  0  0  0  0  0  0  0  0
   21.0847  -19.5644  -11.6555 N   0  0  0  0  0  0  0  0  0  0  0  0
   22.6843  -21.3617  -13.7398 C   0  0  0  0  0  0  0  0  0  0  0  0
   22.7447  -20.3034  -14.6447 O   0  0  0  0  0  0  0  0  0  0  0  0
   21.7871  -22.2355  -13.8408 O   0  0  0  0  0  0  0  0  0  0  0  0
  2  1  1  6
  2  3  1  0
  4  3  1  0
  4  9  1  0
  5  4  2  0
  6  5  1  0
  6  7  2  0
  7  8  1  0
  8  9  2  0
 10  2  1  0
 11 10  2  0
 12 10  1  0
 13 12  1  0
 14 15  1  0
 13 14  1  1
 15 16  2  0
 17 16  1  0
 18 17  1  0
 19 18  2  0
 20 19  1  0
 21 22  1  0
 21 20  2  0
 22 23  2  0
 23 15  1  0
 23 18  1  0
 24 13  1  0
 24 25  2  0
 26 24  1  0
 27 34  1  0
 27 26  1  0
 28 29  1  0
 27 28  1  1
 29 30  2  0
 30 31  1  0
 32 31  1  0
 33 29  1  0
 33 32  2  0
 34 35  1  0
 36 34  2  0
M  END
$$$$
