FWH.pdb
     RDKit          3D

 36 39  0  0  1  0  0  0  0  0999 V2000
   27.8007  -21.5187  -15.0869 N   0  0  0  0  0  0  0  0  0  0  0  0
   27.7556  -20.4866  -14.0704 C   0  0  1  0  0  0  0  0  0  0  0  0
   27.0486  -19.2521  -14.5823 C   0  0  0  0  0  0  0  0  0  0  0  0
   27.9233  -18.5973  -15.5811 C   0  0  0  0  0  0  0  0  0  0  0  0
   28.9077  -17.7046  -15.2241 C   0  0  0  0  0  0  0  0  0  0  0  0
   29.7156  -17.1007  -16.1589 C   0  0  0  0  0  0  0  0  0  0  0  0
   29.5607  -17.3758  -17.4983 C   0  0  0  0  0  0  0  0  0  0  0  0
   28.5735  -18.2749  -17.8935 C   0  0  0  0  0  0  0  0  0  0  0  0
   27.7904  -18.8551  -16.9381 C   0  0  0  0  0  0  0  0  0  0  0  0
   27.1239  -21.0245  -12.8414 C   0  0  0  0  0  0  0  0  0  0  0  0
   26.1428  -21.8354  -12.9612 O   0  0  0  0  0  0  0  0  0  0  0  0
   27.5080  -20.7223  -11.5326 N   0  0  0  0  0  0  0  0  0  0  0  0
   26.6898  -21.1038  -10.3618 C   0  0  1  0  0  0  0  0  0  0  0  0
   27.6136  -21.0285   -9.1984 C   0  0  0  0  0  0  0  0  0  0  0  0
   27.0282  -20.8013   -7.8891 C   0  0  0  0  0  0  0  0  0  0  0  0
   25.7140  -21.0381   -7.5484 C   0  0  0  0  0  0  0  0  0  0  0  0
   25.5509  -20.6947   -6.2637 N   0  0  0  0  0  0  0  0  0  0  0  0
   26.7240  -20.2463   -5.7778 C   0  0  0  0  0  0  0  0  0  0  0  0
   27.1035  -19.7775   -4.5462 C   0  0  0  0  0  0  0  0  0  0  0  0
   28.4141  -19.3769   -4.3419 C   0  0  0  0  0  0  0  0  0  0  0  0
   29.3423  -19.4401   -5.3500 C   0  0  0  0  0  0  0  0  0  0  0  0
   28.9904  -19.9072   -6.5999 C   0  0  0  0  0  0  0  0  0  0  0  0
   27.6822  -20.3019   -6.7869 C   0  0  0  0  0  0  0  0  0  0  0  0
   25.5369  -20.2100  -10.2728 C   0  0  0  0  0  0  0  0  0  0  0  0
   25.7371  -18.9596  -10.4509 O   0  0  0  0  0  0  0  0  0  0  0  0
   24.2119  -20.6219  -10.0076 N   0  0  0  0  0  0  0  0  0  0  0  0
   23.1461  -20.1640  -10.9053 C   0  0  1  0  0  0  0  0  0  0  0  0
   23.4564  -20.6409  -12.3173 C   0  0  0  0  0  0  0  0  0  0  0  0
   22.3991  -20.1989  -13.2418 C   0  0  0  0  0  0  0  0  0  0  0  0
   21.2537  -19.4637  -12.9979 C   0  0  0  0  0  0  0  0  0  0  0  0
   20.5654  -19.3260  -14.1382 N   0  0  0  0  0  0  0  0  0  0  0  0
   21.2338  -19.9514  -15.1106 C   0  0  0  0  0  0  0  0  0  0  0  0
   22.3382  -20.4781  -14.5739 N   0  0  0  0  0  0  0  0  0  0  0  0
   21.8559  -20.7079  -10.4867 C   0  0  0  0  0  0  0  0  0  0  0  0
   21.7731  -22.0437  -10.0979 O   0  0  0  0  0  0  0  0  0  0  0  0
   20.8334  -19.9778  -10.4789 O   0  0  0  0  0  0  0  0  0  0  0  0
  2  1  1  6
  2  3  1  0
  4  3  1  0
  4  9  1  0
  5  4  2  0
  6  5  1  0
  6  7  2  0
  7  8  1  0
  8  9  2  0
 10  2  1  0
 11 10  2  0
 12 10  1  0
 13 12  1  0
 14 15  1  0
 13 14  1  1
 15 16  2  0
 17 16  1  0
 18 17  1  0
 19 18  2  0
 20 19  1  0
 21 22  1  0
 21 20  2  0
 22 23  2  0
 23 15  1  0
 23 18  1  0
 24 13  1  0
 24 25  2  0
 26 24  1  0
 27 34  1  0
 27 26  1  0
 28 29  1  0
 27 28  1  6
 29 30  2  0
 30 31  1  0
 32 31  1  0
 33 29  1  0
 33 32  2  0
 34 35  1  0
 36 34  2  0
M  END
$$$$
