FWH.pdb
     RDKit          3D

 36 39  0  0  1  0  0  0  0  0999 V2000
   28.3219  -21.1229  -15.3167 N   0  0  0  0  0  0  0  0  0  0  0  0
   27.8973  -20.0326  -14.4615 C   0  0  1  0  0  0  0  0  0  0  0  0
   27.0019  -19.0725  -15.2113 C   0  0  0  0  0  0  0  0  0  0  0  0
   27.8458  -18.2662  -16.1218 C   0  0  0  0  0  0  0  0  0  0  0  0
   27.9745  -18.5608  -17.4596 C   0  0  0  0  0  0  0  0  0  0  0  0
   28.7610  -17.8063  -18.2982 C   0  0  0  0  0  0  0  0  0  0  0  0
   29.4526  -16.7185  -17.8165 C   0  0  0  0  0  0  0  0  0  0  0  0
   29.3442  -16.3927  -16.4669 C   0  0  0  0  0  0  0  0  0  0  0  0
   28.5545  -17.1641  -15.6645 C   0  0  0  0  0  0  0  0  0  0  0  0
   27.2424  -20.5770  -13.2476 C   0  0  0  0  0  0  0  0  0  0  0  0
   26.4512  -21.5735  -13.3727 O   0  0  0  0  0  0  0  0  0  0  0  0
   27.4115  -20.0931  -11.9480 N   0  0  0  0  0  0  0  0  0  0  0  0
   26.7436  -20.7106  -10.7825 C   0  0  1  0  0  0  0  0  0  0  0  0
   27.3803  -20.0871   -9.5916 C   0  0  0  0  0  0  0  0  0  0  0  0
   26.8198  -20.3995   -8.2890 C   0  0  0  0  0  0  0  0  0  0  0  0
   25.5935  -20.9874   -8.0659 C   0  0  0  0  0  0  0  0  0  0  0  0
   25.4229  -21.1000   -6.7418 N   0  0  0  0  0  0  0  0  0  0  0  0
   26.5058  -20.6004   -6.1166 C   0  0  0  0  0  0  0  0  0  0  0  0
   26.8400  -20.4717   -4.7928 C   0  0  0  0  0  0  0  0  0  0  0  0
   28.0547  -19.9016   -4.4471 C   0  0  0  0  0  0  0  0  0  0  0  0
   28.9321  -19.4620   -5.4056 C   0  0  0  0  0  0  0  0  0  0  0  0
   28.6240  -19.5779   -6.7457 C   0  0  0  0  0  0  0  0  0  0  0  0
   27.4113  -20.1475   -7.0729 C   0  0  0  0  0  0  0  0  0  0  0  0
   25.3032  -20.4840  -10.8819 C   0  0  0  0  0  0  0  0  0  0  0  0
   24.8874  -19.2748  -10.8624 O   0  0  0  0  0  0  0  0  0  0  0  0
   24.3301  -21.5010  -11.0018 N   0  0  0  0  0  0  0  0  0  0  0  0
   22.9646  -21.1192  -11.3774 C   0  0  1  0  0  0  0  0  0  0  0  0
   22.2348  -22.3527  -11.8909 C   0  0  0  0  0  0  0  0  0  0  0  0
   20.8560  -22.0008  -12.2692 C   0  0  0  0  0  0  0  0  0  0  0  0
   20.1742  -20.8052  -12.1368 C   0  0  0  0  0  0  0  0  0  0  0  0
   18.9235  -20.9566  -12.5904 N   0  0  0  0  0  0  0  0  0  0  0  0
   18.7789  -22.2156  -13.0117 C   0  0  0  0  0  0  0  0  0  0  0  0
   19.9407  -22.8468  -12.8194 N   0  0  0  0  0  0  0  0  0  0  0  0
   22.2476  -20.5821  -10.2229 C   0  0  0  0  0  0  0  0  0  0  0  0
   21.4766  -19.4309  -10.3745 O   0  0  0  0  0  0  0  0  0  0  0  0
   22.3271  -21.1529   -9.1064 O   0  0  0  0  0  0  0  0  0  0  0  0
  2  1  1  6
  2  3  1  0
  4  3  1  0
  4  9  1  0
  5  4  2  0
  6  5  1  0
  6  7  2  0
  7  8  1  0
  8  9  2  0
 10  2  1  0
 11 10  2  0
 12 10  1  0
 13 12  1  0
 14 15  1  0
 13 14  1  1
 15 16  2  0
 17 16  1  0
 18 17  1  0
 19 18  2  0
 20 19  1  0
 21 22  1  0
 21 20  2  0
 22 23  2  0
 23 15  1  0
 23 18  1  0
 24 13  1  0
 24 25  2  0
 26 24  1  0
 27 34  1  0
 27 26  1  0
 28 29  1  0
 27 28  1  1
 29 30  2  0
 30 31  1  0
 32 31  1  0
 33 29  1  0
 33 32  2  0
 34 35  1  0
 36 34  2  0
M  END
$$$$
