ADN.pdb
     RDKit          3D

 22 21  0  0  1  0  0  0  0  0999 V2000
    7.0867  -12.8577   19.3368 C   0  0  0  0  0  0  0  0  0  0  0  0
    8.5694  -13.1141   19.1918 C   0  0  2  0  0  0  0  0  0  0  0  0
    9.0400  -12.8003   17.8581 N   0  0  0  0  0  0  0  0  0  0  0  0
    8.8523  -14.5288   19.5508 C   0  0  0  0  0  0  0  0  0  0  0  0
    8.5215  -15.0468   20.6477 O   0  0  0  0  0  0  0  0  0  0  0  0
    9.5417  -15.4135   18.6367 N   0  0  0  0  0  0  0  0  0  0  0  0
    9.8405  -16.7815   18.9627 C   0  0  1  0  0  0  0  0  0  0  0  0
    9.5730  -17.7237   17.8179 C   0  0  0  0  0  0  0  0  0  0  0  0
    9.8624  -19.1302   18.1516 C   0  0  0  0  0  0  0  0  0  0  0  0
   10.9983  -19.6581   18.0764 O   0  0  0  0  0  0  0  0  0  0  0  0
   11.2229  -16.8937   19.4886 C   0  0  0  0  0  0  0  0  0  0  0  0
   12.2069  -16.3295   18.9323 O   0  0  0  0  0  0  0  0  0  0  0  0
    8.8021  -19.9185   18.5768 O   0  0  0  0  0  0  0  0  0  0  0  0
   14.1739  -15.2280   23.8466 N   0  0  0  0  0  0  0  0  0  0  0  0
   14.1673  -15.7447   22.5031 C   0  0  0  0  0  0  0  0  0  0  0  0
   15.2900  -16.0275   21.9788 O   0  0  0  0  0  0  0  0  0  0  0  0
   12.8868  -15.9271   21.7858 C   0  0  0  0  0  0  0  0  0  0  0  0
   12.6955  -17.3840   21.4841 C   0  0  2  0  0  0  0  0  0  0  0  0
   11.5382  -17.6501   20.6655 N   0  0  0  0  0  0  0  0  0  0  0  0
   12.7741  -18.2672   22.6690 C   0  0  0  0  0  0  0  0  0  0  0  0
   13.9498  -18.5309   23.3611 O   0  0  0  0  0  0  0  0  0  0  0  0
   11.7442  -18.8338   23.1118 O   0  0  0  0  0  0  0  0  0  0  0  0
  2  1  1  6
  3  2  1  0
  4  6  1  0
  4  2  1  0
  5  4  2  0
  7  6  1  0
  7 11  1  0
  7  8  1  6
  9  8  1  0
 10  9  2  0
 11 19  1  0
 12 11  2  0
 13  9  1  0
 15 14  1  0
 16 15  2  0
 17 15  1  0
 18 20  1  0
 18 17  1  1
 19 18  1  0
 20 21  1  0
 22 20  2  0
M  END
$$$$
