ADN.pdb
     RDKit          3D

 22 21  0  0  1  0  0  0  0  0999 V2000
    7.6668  -19.4886   17.5391 C   0  0  0  0  0  0  0  0  0  0  0  0
    8.0304  -18.1448   18.1283 C   0  0  2  0  0  0  0  0  0  0  0  0
    8.0235  -17.0997   17.1251 N   0  0  0  0  0  0  0  0  0  0  0  0
    9.3552  -18.2519   18.7944 C   0  0  0  0  0  0  0  0  0  0  0  0
    9.6144  -19.0906   19.6947 O   0  0  0  0  0  0  0  0  0  0  0  0
   10.4500  -17.3761   18.4371 N   0  0  0  0  0  0  0  0  0  0  0  0
   11.7445  -17.4648   19.0562 C   0  0  1  0  0  0  0  0  0  0  0  0
   12.8726  -17.3168   18.0687 C   0  0  0  0  0  0  0  0  0  0  0  0
   12.9782  -18.4582   17.1415 C   0  0  0  0  0  0  0  0  0  0  0  0
   13.0363  -19.6597   17.4988 O   0  0  0  0  0  0  0  0  0  0  0  0
   11.8400  -16.5082   20.1858 C   0  0  0  0  0  0  0  0  0  0  0  0
   11.3058  -15.3639   20.1509 O   0  0  0  0  0  0  0  0  0  0  0  0
   13.0156  -18.1778   15.7827 O   0  0  0  0  0  0  0  0  0  0  0  0
   10.6169  -16.2742   25.2880 N   0  0  0  0  0  0  0  0  0  0  0  0
   10.5502  -16.4941   23.8671 C   0  0  0  0  0  0  0  0  0  0  0  0
    9.9706  -17.5513   23.4647 O   0  0  0  0  0  0  0  0  0  0  0  0
   11.1438  -15.5099   22.9364 C   0  0  0  0  0  0  0  0  0  0  0  0
   12.5232  -15.9613   22.5576 C   0  0  2  0  0  0  0  0  0  0  0  0
   12.5450  -16.8162   21.3960 N   0  0  0  0  0  0  0  0  0  0  0  0
   13.3175  -16.5034   23.6825 C   0  0  0  0  0  0  0  0  0  0  0  0
   13.9684  -15.7131   24.6219 O   0  0  0  0  0  0  0  0  0  0  0  0
   13.4390  -17.7439   23.8382 O   0  0  0  0  0  0  0  0  0  0  0  0
  2  1  1  6
  3  2  1  0
  4  6  1  0
  4  2  1  0
  5  4  2  0
  7  6  1  0
  7 11  1  0
  7  8  1  6
  9  8  1  0
 10  9  2  0
 11 19  1  0
 12 11  2  0
 13  9  1  0
 15 14  1  0
 16 15  2  0
 17 15  1  0
 18 20  1  0
 18 17  1  1
 19 18  1  0
 20 21  1  0
 22 20  2  0
M  END
$$$$
