ADN.pdb
     RDKit          3D

 22 21  0  0  1  0  0  0  0  0999 V2000
    6.6305  -13.5596   19.1401 C   0  0  0  0  0  0  0  0  0  0  0  0
    8.0278  -14.0048   18.7735 C   0  0  2  0  0  0  0  0  0  0  0  0
    8.1707  -14.2015   17.3453 N   0  0  0  0  0  0  0  0  0  0  0  0
    8.3542  -15.2428   19.5293 C   0  0  0  0  0  0  0  0  0  0  0  0
    8.1893  -15.3631   20.7700 O   0  0  0  0  0  0  0  0  0  0  0  0
    8.8938  -16.4095   18.8652 N   0  0  0  0  0  0  0  0  0  0  0  0
    9.0596  -17.6717   19.5334 C   0  0  1  0  0  0  0  0  0  0  0  0
    8.7175  -18.8452   18.6527 C   0  0  0  0  0  0  0  0  0  0  0  0
    7.4120  -18.7000   17.9832 C   0  0  0  0  0  0  0  0  0  0  0  0
    7.2645  -18.4428   16.7640 O   0  0  0  0  0  0  0  0  0  0  0  0
   10.4195  -17.7684   20.1177 C   0  0  0  0  0  0  0  0  0  0  0  0
   10.7550  -18.7009   20.9012 O   0  0  0  0  0  0  0  0  0  0  0  0
    6.2731  -18.8599   18.7601 O   0  0  0  0  0  0  0  0  0  0  0  0
   11.6369  -12.8621   19.0398 N   0  0  0  0  0  0  0  0  0  0  0  0
   12.3135  -13.9966   19.6118 C   0  0  0  0  0  0  0  0  0  0  0  0
   13.3387  -14.4355   19.0023 O   0  0  0  0  0  0  0  0  0  0  0  0
   11.8099  -14.6069   20.8612 C   0  0  0  0  0  0  0  0  0  0  0  0
   12.1387  -16.0704   20.8608 C   0  0  2  0  0  0  0  0  0  0  0  0
   11.4480  -16.8103   19.8333 N   0  0  0  0  0  0  0  0  0  0  0  0
   12.0488  -16.7157   22.1896 C   0  0  0  0  0  0  0  0  0  0  0  0
   13.1438  -16.9483   23.0128 O   0  0  0  0  0  0  0  0  0  0  0  0
   10.9392  -17.0922   22.6422 O   0  0  0  0  0  0  0  0  0  0  0  0
  2  1  1  6
  3  2  1  0
  4  6  1  0
  4  2  1  0
  5  4  2  0
  7  6  1  0
  7 11  1  0
  7  8  1  6
  9  8  1  0
 10  9  2  0
 11 19  1  0
 12 11  2  0
 13  9  1  0
 15 14  1  0
 16 15  2  0
 17 15  1  0
 18 20  1  0
 18 17  1  1
 19 18  1  0
 20 21  1  0
 22 20  2  0
M  END
$$$$
