ADN.pdb
     RDKit          3D

 22 21  0  0  1  0  0  0  0  0999 V2000
    8.1890  -20.3131   19.3602 C   0  0  0  0  0  0  0  0  0  0  0  0
    8.6950  -18.9458   19.7597 C   0  0  2  0  0  0  0  0  0  0  0  0
    8.4250  -17.9545   18.7383 N   0  0  0  0  0  0  0  0  0  0  0  0
   10.1483  -19.0373   20.0596 C   0  0  0  0  0  0  0  0  0  0  0  0
   10.6388  -19.8578   20.8764 O   0  0  0  0  0  0  0  0  0  0  0  0
   11.1061  -18.1663   19.4137 N   0  0  0  0  0  0  0  0  0  0  0  0
   12.5025  -18.1641   19.7558 C   0  0  1  0  0  0  0  0  0  0  0  0
   13.3927  -17.9254   18.5640 C   0  0  0  0  0  0  0  0  0  0  0  0
   14.5196  -18.8730   18.4894 C   0  0  0  0  0  0  0  0  0  0  0  0
   14.5678  -19.9678   19.1006 O   0  0  0  0  0  0  0  0  0  0  0  0
   12.7580  -17.2122   20.8642 C   0  0  0  0  0  0  0  0  0  0  0  0
   13.3735  -16.1224   20.6924 O   0  0  0  0  0  0  0  0  0  0  0  0
   15.5971  -18.5244   17.6870 O   0  0  0  0  0  0  0  0  0  0  0  0
    8.7296  -16.1353   23.8168 N   0  0  0  0  0  0  0  0  0  0  0  0
   10.0708  -15.9679   23.3217 C   0  0  0  0  0  0  0  0  0  0  0  0
   10.2100  -15.4347   22.1764 O   0  0  0  0  0  0  0  0  0  0  0  0
   11.2223  -16.4109   24.1373 C   0  0  0  0  0  0  0  0  0  0  0  0
   12.4407  -16.4896   23.2659 C   0  0  2  0  0  0  0  0  0  0  0  0
   12.3236  -17.4627   22.2077 N   0  0  0  0  0  0  0  0  0  0  0  0
   13.7154  -16.6025   24.0092 C   0  0  0  0  0  0  0  0  0  0  0  0
   14.2287  -15.5994   24.8222 O   0  0  0  0  0  0  0  0  0  0  0  0
   14.4085  -17.6472   23.9321 O   0  0  0  0  0  0  0  0  0  0  0  0
  2  1  1  6
  3  2  1  0
  4  6  1  0
  4  2  1  0
  5  4  2  0
  7  6  1  0
  7 11  1  0
  7  8  1  6
  9  8  1  0
 10  9  2  0
 11 19  1  0
 12 11  2  0
 13  9  1  0
 15 14  1  0
 16 15  2  0
 17 15  1  0
 18 20  1  0
 18 17  1  1
 19 18  1  0
 20 21  1  0
 22 20  2  0
M  END
$$$$
