ADN.pdb
     RDKit          3D

 22 21  0  0  1  0  0  0  0  0999 V2000
    8.3107  -12.3222   20.2619 C   0  0  0  0  0  0  0  0  0  0  0  0
    7.9041  -13.2861   19.1707 C   0  0  2  0  0  0  0  0  0  0  0  0
    6.4861  -13.2057   18.8850 N   0  0  0  0  0  0  0  0  0  0  0  0
    8.3027  -14.6620   19.5685 C   0  0  0  0  0  0  0  0  0  0  0  0
    7.5061  -15.5011   20.0609 O   0  0  0  0  0  0  0  0  0  0  0  0
    9.6634  -15.1270   19.4085 N   0  0  0  0  0  0  0  0  0  0  0  0
   10.0710  -16.4602   19.7601 C   0  0  1  0  0  0  0  0  0  0  0  0
   10.8975  -17.1178   18.6857 C   0  0  0  0  0  0  0  0  0  0  0  0
   11.1524  -18.5457   18.9499 C   0  0  0  0  0  0  0  0  0  0  0  0
   11.5812  -19.0005   20.0380 O   0  0  0  0  0  0  0  0  0  0  0  0
   10.7427  -16.4596   21.0827 C   0  0  0  0  0  0  0  0  0  0  0  0
   11.6775  -15.6588   21.3670 O   0  0  0  0  0  0  0  0  0  0  0  0
   10.8989  -19.4422   17.9212 O   0  0  0  0  0  0  0  0  0  0  0  0
   11.3650  -16.1968   26.3529 N   0  0  0  0  0  0  0  0  0  0  0  0
   10.7718  -17.4051   25.8428 C   0  0  0  0  0  0  0  0  0  0  0  0
   10.9167  -18.4642   26.5304 O   0  0  0  0  0  0  0  0  0  0  0  0
   10.0294  -17.3833   24.5639 C   0  0  0  0  0  0  0  0  0  0  0  0
   11.0082  -17.3666   23.4274 C   0  0  2  0  0  0  0  0  0  0  0  0
   10.3769  -17.3678   22.1305 N   0  0  0  0  0  0  0  0  0  0  0  0
   12.0890  -18.3714   23.5391 C   0  0  0  0  0  0  0  0  0  0  0  0
   11.9085  -19.7306   23.3137 O   0  0  0  0  0  0  0  0  0  0  0  0
   13.2541  -18.0228   23.8532 O   0  0  0  0  0  0  0  0  0  0  0  0
  2  1  1  1
  3  2  1  0
  4  6  1  0
  4  2  1  0
  5  4  2  0
  7  6  1  0
  7 11  1  0
  7  8  1  6
  9  8  1  0
 10  9  2  0
 11 19  1  0
 12 11  2  0
 13  9  1  0
 15 14  1  0
 16 15  2  0
 17 15  1  0
 18 20  1  0
 18 17  1  1
 19 18  1  0
 20 21  1  0
 22 20  2  0
M  END
$$$$
