ADN.pdb
     RDKit          3D

 22 21  0  0  1  0  0  0  0  0999 V2000
    0.5349  -22.4182   12.2763 C   0  0  0  0  0  0  0  0  0  0  0  0
   -0.2134  -21.9120   13.4882 C   0  0  2  0  0  0  0  0  0  0  0  0
   -0.1611  -20.4675   13.5862 N   0  0  0  0  0  0  0  0  0  0  0  0
    0.3422  -22.5611   14.7049 C   0  0  0  0  0  0  0  0  0  0  0  0
    0.2352  -23.7903   14.9470 O   0  0  0  0  0  0  0  0  0  0  0  0
    1.0555  -21.7977   15.7058 N   0  0  0  0  0  0  0  0  0  0  0  0
    1.5962  -22.3975   16.8953 C   0  0  1  0  0  0  0  0  0  0  0  0
    2.8631  -21.7275   17.3600 C   0  0  0  0  0  0  0  0  0  0  0  0
    3.4349  -22.3532   18.5663 C   0  0  0  0  0  0  0  0  0  0  0  0
    3.7321  -21.7316   19.6150 O   0  0  0  0  0  0  0  0  0  0  0  0
    0.5591  -22.4637   17.9538 C   0  0  0  0  0  0  0  0  0  0  0  0
   -0.0666  -21.4416   18.3534 O   0  0  0  0  0  0  0  0  0  0  0  0
    3.6573  -23.7228   18.5328 O   0  0  0  0  0  0  0  0  0  0  0  0
   -3.9700  -23.2772   20.6251 N   0  0  0  0  0  0  0  0  0  0  0  0
   -3.0661  -24.3464   20.2910 C   0  0  0  0  0  0  0  0  0  0  0  0
   -3.0977  -25.3887   21.0176 O   0  0  0  0  0  0  0  0  0  0  0  0
   -2.1467  -24.2071   19.1409 C   0  0  0  0  0  0  0  0  0  0  0  0
   -0.8006  -23.7700   19.6377 C   0  0  2  0  0  0  0  0  0  0  0  0
    0.1946  -23.6927   18.5965 N   0  0  0  0  0  0  0  0  0  0  0  0
   -0.3241  -24.5030   20.8318 C   0  0  0  0  0  0  0  0  0  0  0  0
   -0.8098  -24.2893   22.1160 O   0  0  0  0  0  0  0  0  0  0  0  0
    0.5702  -25.3788   20.7280 O   0  0  0  0  0  0  0  0  0  0  0  0
  2  1  1  6
  3  2  1  0
  4  6  1  0
  4  2  1  0
  5  4  2  0
  7  6  1  0
  7 11  1  0
  7  8  1  1
  9  8  1  0
 10  9  2  0
 11 19  1  0
 12 11  2  0
 13  9  1  0
 15 14  1  0
 16 15  2  0
 17 15  1  0
 18 20  1  0
 18 17  1  6
 19 18  1  0
 20 21  1  0
 22 20  2  0
M  END
$$$$
