ADN.pdb
     RDKit          3D

 22 21  0  0  1  0  0  0  0  0999 V2000
    8.0200  -12.4290   19.8498 C   0  0  0  0  0  0  0  0  0  0  0  0
    7.5839  -13.5573   18.9433 C   0  0  2  0  0  0  0  0  0  0  0  0
    6.1407  -13.6506   18.8593 N   0  0  0  0  0  0  0  0  0  0  0  0
    8.1847  -14.8273   19.4297 C   0  0  0  0  0  0  0  0  0  0  0  0
    7.5743  -15.6502   20.1586 O   0  0  0  0  0  0  0  0  0  0  0  0
    9.5396  -15.1994   19.0845 N   0  0  0  0  0  0  0  0  0  0  0  0
   10.1840  -16.3636   19.6288 C   0  0  1  0  0  0  0  0  0  0  0  0
   11.0912  -17.0434   18.6364 C   0  0  0  0  0  0  0  0  0  0  0  0
   11.6472  -18.3120   19.1412 C   0  0  0  0  0  0  0  0  0  0  0  0
   11.1109  -19.0185   20.0289 O   0  0  0  0  0  0  0  0  0  0  0  0
   10.8722  -16.0233   20.8979 C   0  0  0  0  0  0  0  0  0  0  0  0
   10.9907  -14.8336   21.3059 O   0  0  0  0  0  0  0  0  0  0  0  0
   12.8452  -18.7488   18.5933 O   0  0  0  0  0  0  0  0  0  0  0  0
   10.3805  -15.2482   25.8858 N   0  0  0  0  0  0  0  0  0  0  0  0
   10.1633  -16.5037   25.2161 C   0  0  0  0  0  0  0  0  0  0  0  0
   10.0458  -17.5413   25.9406 O   0  0  0  0  0  0  0  0  0  0  0  0
   10.0858  -16.5524   23.7400 C   0  0  0  0  0  0  0  0  0  0  0  0
   11.4277  -16.9347   23.1896 C   0  0  2  0  0  0  0  0  0  0  0  0
   11.4505  -17.0214   21.7500 N   0  0  0  0  0  0  0  0  0  0  0  0
   12.0421  -18.1115   23.8438 C   0  0  0  0  0  0  0  0  0  0  0  0
   12.7498  -18.0513   25.0381 O   0  0  0  0  0  0  0  0  0  0  0  0
   11.9445  -19.2521   23.3269 O   0  0  0  0  0  0  0  0  0  0  0  0
  2  1  1  1
  3  2  1  0
  4  6  1  0
  4  2  1  0
  5  4  2  0
  7  6  1  0
  7 11  1  0
  7  8  1  6
  9  8  1  0
 10  9  2  0
 11 19  1  0
 12 11  2  0
 13  9  1  0
 15 14  1  0
 16 15  2  0
 17 15  1  0
 18 20  1  0
 18 17  1  1
 19 18  1  0
 20 21  1  0
 22 20  2  0
M  END
$$$$
