KFA.pdb
     RDKit          3D

 26 26  0  0  1  0  0  0  0  0999 V2000
   28.4521  -23.5036  -16.9494 N   0  0  0  0  0  0  0  0  0  0  0  0
   27.7157  -22.2359  -16.8134 C   0  0  1  0  0  0  0  0  0  0  0  0
   27.0188  -21.9238  -18.1080 C   0  0  0  0  0  0  0  0  0  0  0  0
   27.9442  -21.7141  -19.2600 C   0  0  0  0  0  0  0  0  0  0  0  0
   28.8036  -20.4751  -19.0857 C   0  0  0  0  0  0  0  0  0  0  0  0
   29.6592  -20.2156  -20.3001 C   0  0  0  0  0  0  0  0  0  0  0  0
   30.6229  -19.1598  -20.0956 N   0  0  0  0  0  0  0  0  0  0  0  0
   26.8357  -22.3402  -15.6430 C   0  0  0  0  0  0  0  0  0  0  0  0
   26.2515  -23.4004  -15.3902 O   0  0  0  0  0  0  0  0  0  0  0  0
   26.6034  -21.2618  -14.7491 N   0  0  0  0  0  0  0  0  0  0  0  0
   25.7405  -21.3035  -13.6208 C   0  0  1  0  0  0  0  0  0  0  0  0
   26.0003  -20.2722  -12.5751 C   0  0  0  0  0  0  0  0  0  0  0  0
   25.1854  -20.3781  -11.3725 C   0  0  0  0  0  0  0  0  0  0  0  0
   23.9346  -19.8613  -11.2200 C   0  0  0  0  0  0  0  0  0  0  0  0
   23.2346  -20.0041  -10.0579 C   0  0  0  0  0  0  0  0  0  0  0  0
   23.7561  -20.6802   -8.9731 C   0  0  0  0  0  0  0  0  0  0  0  0
   25.0228  -21.2107   -9.1097 C   0  0  0  0  0  0  0  0  0  0  0  0
   25.7237  -21.0643  -10.2817 C   0  0  0  0  0  0  0  0  0  0  0  0
   24.3478  -21.1085  -14.1034 C   0  0  0  0  0  0  0  0  0  0  0  0
   24.0339  -20.0565  -14.7051 O   0  0  0  0  0  0  0  0  0  0  0  0
   21.3255  -23.0793  -14.8378 C   0  0  0  0  0  0  0  0  0  0  0  0
   21.9756  -21.7992  -14.3533 C   0  0  2  0  0  0  0  0  0  0  0  0
   23.3270  -22.0725  -13.9158 N   0  0  0  0  0  0  0  0  0  0  0  0
   21.1606  -21.2100  -13.2613 C   0  0  0  0  0  0  0  0  0  0  0  0
   20.0628  -20.6894  -13.5725 O   0  0  0  0  0  0  0  0  0  0  0  0
   21.5311  -21.1973  -11.9267 O   0  0  0  0  0  0  0  0  0  0  0  0
  2  3  1  0
  2  1  1  6
  4  5  1  0
  4  3  1  0
  6  7  1  0
  6  5  1  0
  8  2  1  0
  9  8  2  0
 10  8  1  0
 11 10  1  0
 11 12  1  1
 12 13  1  0
 13 18  2  0
 14 13  1  0
 14 15  2  0
 15 16  1  0
 16 17  2  0
 18 17  1  0
 19 11  1  0
 19 20  2  0
 22 21  1  1
 22 23  1  0
 23 19  1  0
 24 22  1  0
 25 24  2  0
 26 24  1  0
M  END
$$$$
