KFA.pdb
     RDKit          3D

 26 26  0  0  1  0  0  0  0  0999 V2000
   27.0909  -21.7767  -13.8013 N   0  0  0  0  0  0  0  0  0  0  0  0
   27.1484  -20.5394  -13.0053 C   0  0  1  0  0  0  0  0  0  0  0  0
   26.1115  -19.5749  -13.5089 C   0  0  0  0  0  0  0  0  0  0  0  0
   26.5396  -18.7947  -14.7070 C   0  0  0  0  0  0  0  0  0  0  0  0
   26.8150  -19.6878  -15.9031 C   0  0  0  0  0  0  0  0  0  0  0  0
   27.1224  -18.8822  -17.1404 C   0  0  0  0  0  0  0  0  0  0  0  0
   28.1775  -17.9175  -16.9373 N   0  0  0  0  0  0  0  0  0  0  0  0
   27.0254  -20.9002  -11.5876 C   0  0  0  0  0  0  0  0  0  0  0  0
   26.2578  -21.8032  -11.2346 O   0  0  0  0  0  0  0  0  0  0  0  0
   27.7584  -20.2549  -10.5569 N   0  0  0  0  0  0  0  0  0  0  0  0
   27.5926  -20.4863   -9.1647 C   0  0  1  0  0  0  0  0  0  0  0  0
   28.5317  -19.7449   -8.2741 C   0  0  0  0  0  0  0  0  0  0  0  0
   28.2325  -19.8130   -6.8503 C   0  0  0  0  0  0  0  0  0  0  0  0
   27.5085  -18.8945   -6.1523 C   0  0  0  0  0  0  0  0  0  0  0  0
   27.2717  -19.0310   -4.8158 C   0  0  0  0  0  0  0  0  0  0  0  0
   27.7530  -20.1076   -4.0980 C   0  0  0  0  0  0  0  0  0  0  0  0
   28.4889  -21.0485   -4.7893 C   0  0  0  0  0  0  0  0  0  0  0  0
   28.7247  -20.9067   -6.1348 C   0  0  0  0  0  0  0  0  0  0  0  0
   26.2114  -20.0783   -8.7951 C   0  0  0  0  0  0  0  0  0  0  0  0
   25.8364  -18.8977   -8.9764 O   0  0  0  0  0  0  0  0  0  0  0  0
   23.0011  -20.6672   -9.0283 C   0  0  0  0  0  0  0  0  0  0  0  0
   23.9520  -20.5089   -7.8592 C   0  0  2  0  0  0  0  0  0  0  0  0
   25.2691  -20.9747   -8.2339 N   0  0  0  0  0  0  0  0  0  0  0  0
   23.4267  -21.2527   -6.6867 C   0  0  0  0  0  0  0  0  0  0  0  0
   24.1421  -22.1661   -6.2107 O   0  0  0  0  0  0  0  0  0  0  0  0
   22.2032  -21.0053   -6.0862 O   0  0  0  0  0  0  0  0  0  0  0  0
  2  3  1  0
  2  1  1  6
  4  5  1  0
  4  3  1  0
  6  7  1  0
  6  5  1  0
  8  2  1  0
  9  8  2  0
 10  8  1  0
 11 10  1  0
 11 12  1  1
 12 13  1  0
 13 18  2  0
 14 13  1  0
 14 15  2  0
 15 16  1  0
 16 17  2  0
 18 17  1  0
 19 11  1  0
 19 20  2  0
 22 21  1  6
 22 23  1  0
 23 19  1  0
 24 22  1  0
 25 24  2  0
 26 24  1  0
M  END
$$$$
