KFA.pdb
     RDKit          3D

 26 26  0  0  1  0  0  0  0  0999 V2000
   28.8460  -20.2982  -14.6554 N   0  0  0  0  0  0  0  0  0  0  0  0
   27.4702  -19.7802  -14.7366 C   0  0  1  0  0  0  0  0  0  0  0  0
   27.0530  -19.6995  -16.1783 C   0  0  0  0  0  0  0  0  0  0  0  0
   27.5425  -18.4789  -16.8841 C   0  0  0  0  0  0  0  0  0  0  0  0
   29.0513  -18.4805  -17.0507 C   0  0  0  0  0  0  0  0  0  0  0  0
   29.5337  -17.2437  -17.7661 C   0  0  0  0  0  0  0  0  0  0  0  0
   30.9666  -17.2173  -17.9427 N   0  0  0  0  0  0  0  0  0  0  0  0
   26.6141  -20.6179  -13.8877 C   0  0  0  0  0  0  0  0  0  0  0  0
   26.3738  -21.7896  -14.2018 O   0  0  0  0  0  0  0  0  0  0  0  0
   26.0220  -20.1520  -12.6843 N   0  0  0  0  0  0  0  0  0  0  0  0
   25.2027  -20.9272  -11.8199 C   0  0  1  0  0  0  0  0  0  0  0  0
   25.1397  -20.4603  -10.4048 C   0  0  0  0  0  0  0  0  0  0  0  0
   26.4014  -20.4882   -9.6776 C   0  0  0  0  0  0  0  0  0  0  0  0
   27.4683  -21.2786   -9.9804 C   0  0  0  0  0  0  0  0  0  0  0  0
   28.6183  -21.2455   -9.2475 C   0  0  0  0  0  0  0  0  0  0  0  0
   28.7633  -20.4090   -8.1588 C   0  0  0  0  0  0  0  0  0  0  0  0
   27.6919  -19.6007   -7.8373 C   0  0  0  0  0  0  0  0  0  0  0  0
   26.5361  -19.6376   -8.5781 C   0  0  0  0  0  0  0  0  0  0  0  0
   23.8175  -20.9026  -12.3599 C   0  0  0  0  0  0  0  0  0  0  0  0
   23.2706  -19.8105  -12.6345 O   0  0  0  0  0  0  0  0  0  0  0  0
   21.3185  -23.3066  -13.7394 C   0  0  0  0  0  0  0  0  0  0  0  0
   21.7118  -21.9885  -13.1037 C   0  0  2  0  0  0  0  0  0  0  0  0
   23.0602  -22.0778  -12.5878 N   0  0  0  0  0  0  0  0  0  0  0  0
   20.7429  -21.6442  -12.0330 C   0  0  0  0  0  0  0  0  0  0  0  0
   21.1110  -21.8018  -10.8445 O   0  0  0  0  0  0  0  0  0  0  0  0
   19.4641  -21.1622  -12.2591 O   0  0  0  0  0  0  0  0  0  0  0  0
  2  3  1  0
  2  1  1  6
  4  5  1  0
  4  3  1  0
  6  7  1  0
  6  5  1  0
  8  2  1  0
  9  8  2  0
 10  8  1  0
 11 10  1  0
 11 12  1  1
 12 13  1  0
 13 18  2  0
 14 13  1  0
 14 15  2  0
 15 16  1  0
 16 17  2  0
 18 17  1  0
 19 11  1  0
 19 20  2  0
 22 21  1  1
 22 23  1  0
 23 19  1  0
 24 22  1  0
 25 24  2  0
 26 24  1  0
M  END
$$$$
