KFA.pdb
     RDKit          3D

 26 26  0  0  1  0  0  0  0  0999 V2000
   28.8348  -22.8637  -17.4819 N   0  0  0  0  0  0  0  0  0  0  0  0
   28.4661  -21.5497  -16.9294 C   0  0  1  0  0  0  0  0  0  0  0  0
   27.8544  -20.7077  -18.0138 C   0  0  0  0  0  0  0  0  0  0  0  0
   26.8012  -21.4090  -18.8052 C   0  0  0  0  0  0  0  0  0  0  0  0
   27.1955  -21.5758  -20.2616 C   0  0  0  0  0  0  0  0  0  0  0  0
   26.2751  -22.5286  -20.9821 C   0  0  0  0  0  0  0  0  0  0  0  0
   26.7357  -22.8623  -22.3093 N   0  0  0  0  0  0  0  0  0  0  0  0
   27.6116  -21.7690  -15.7560 C   0  0  0  0  0  0  0  0  0  0  0  0
   27.0596  -22.8611  -15.5776 O   0  0  0  0  0  0  0  0  0  0  0  0
   27.3691  -20.7707  -14.7760 N   0  0  0  0  0  0  0  0  0  0  0  0
   26.6269  -20.9599  -13.5790 C   0  0  1  0  0  0  0  0  0  0  0  0
   27.0138  -20.0811  -12.4377 C   0  0  0  0  0  0  0  0  0  0  0  0
   26.2356  -20.2556  -11.2189 C   0  0  0  0  0  0  0  0  0  0  0  0
   25.1796  -19.4831  -10.8407 C   0  0  0  0  0  0  0  0  0  0  0  0
   24.5006  -19.7124   -9.6800 C   0  0  0  0  0  0  0  0  0  0  0  0
   24.8470  -20.7399   -8.8255 C   0  0  0  0  0  0  0  0  0  0  0  0
   25.9150  -21.5330   -9.1928 C   0  0  0  0  0  0  0  0  0  0  0  0
   26.5955  -21.2983  -10.3624 C   0  0  0  0  0  0  0  0  0  0  0  0
   25.1958  -20.6936  -13.8820 C   0  0  0  0  0  0  0  0  0  0  0  0
   24.8642  -19.6368  -14.4654 O   0  0  0  0  0  0  0  0  0  0  0  0
   22.0795  -22.5359  -14.3539 C   0  0  0  0  0  0  0  0  0  0  0  0
   22.7838  -21.2839  -13.8715 C   0  0  2  0  0  0  0  0  0  0  0  0
   24.1569  -21.5931  -13.5383 N   0  0  0  0  0  0  0  0  0  0  0  0
   22.0560  -20.7217  -12.7061 C   0  0  0  0  0  0  0  0  0  0  0  0
   22.2638  -21.2440  -11.5850 O   0  0  0  0  0  0  0  0  0  0  0  0
   21.1662  -19.6624  -12.7750 O   0  0  0  0  0  0  0  0  0  0  0  0
  2  3  1  0
  2  1  1  6
  4  5  1  0
  4  3  1  0
  6  7  1  0
  6  5  1  0
  8  2  1  0
  9  8  2  0
 10  8  1  0
 11 10  1  0
 11 12  1  1
 12 13  1  0
 13 18  2  0
 14 13  1  0
 14 15  2  0
 15 16  1  0
 16 17  2  0
 18 17  1  0
 19 11  1  0
 19 20  2  0
 22 21  1  1
 22 23  1  0
 23 19  1  0
 24 22  1  0
 25 24  2  0
 26 24  1  0
M  END
$$$$
