KFA.pdb
     RDKit          3D

 26 26  0  0  1  0  0  0  0  0999 V2000
   28.1760  -23.0911  -17.4940 N   0  0  0  0  0  0  0  0  0  0  0  0
   27.5620  -21.7964  -17.1554 C   0  0  1  0  0  0  0  0  0  0  0  0
   26.7528  -21.3085  -18.3243 C   0  0  0  0  0  0  0  0  0  0  0  0
   27.4258  -20.2451  -19.1266 C   0  0  0  0  0  0  0  0  0  0  0  0
   26.5398  -19.7238  -20.2436 C   0  0  0  0  0  0  0  0  0  0  0  0
   27.2360  -18.6616  -21.0567 C   0  0  0  0  0  0  0  0  0  0  0  0
   26.4512  -18.2069  -22.1803 N   0  0  0  0  0  0  0  0  0  0  0  0
   26.8116  -21.9581  -15.9041 C   0  0  0  0  0  0  0  0  0  0  0  0
   26.0171  -22.8957  -15.7660 O   0  0  0  0  0  0  0  0  0  0  0  0
   26.9443  -21.0743  -14.8008 N   0  0  0  0  0  0  0  0  0  0  0  0
   26.2078  -21.1599  -13.5885 C   0  0  1  0  0  0  0  0  0  0  0  0
   26.8090  -20.4537  -12.4204 C   0  0  0  0  0  0  0  0  0  0  0  0
   26.0285  -20.4957  -11.1915 C   0  0  0  0  0  0  0  0  0  0  0  0
   24.9074  -19.7628  -10.9443 C   0  0  0  0  0  0  0  0  0  0  0  0
   24.2311  -19.8597   -9.7636 C   0  0  0  0  0  0  0  0  0  0  0  0
   24.6462  -20.7060   -8.7549 C   0  0  0  0  0  0  0  0  0  0  0  0
   25.7807  -21.4566   -8.9880 C   0  0  0  0  0  0  0  0  0  0  0  0
   26.4582  -21.3556  -10.1784 C   0  0  0  0  0  0  0  0  0  0  0  0
   24.8657  -20.5658  -13.8266 C   0  0  0  0  0  0  0  0  0  0  0  0
   24.7580  -19.3491  -14.1009 O   0  0  0  0  0  0  0  0  0  0  0  0
   21.6802  -21.2461  -15.1415 C   0  0  0  0  0  0  0  0  0  0  0  0
   22.3869  -20.6708  -13.9308 C   0  0  2  0  0  0  0  0  0  0  0  0
   23.6682  -21.3195  -13.7588 N   0  0  0  0  0  0  0  0  0  0  0  0
   21.5298  -20.8356  -12.7300 C   0  0  0  0  0  0  0  0  0  0  0  0
   20.4843  -20.1460  -12.6640 O   0  0  0  0  0  0  0  0  0  0  0  0
   21.8075  -21.6973  -11.6816 O   0  0  0  0  0  0  0  0  0  0  0  0
  2  3  1  0
  2  1  1  6
  4  5  1  0
  4  3  1  0
  6  7  1  0
  6  5  1  0
  8  2  1  0
  9  8  2  0
 10  8  1  0
 11 10  1  0
 11 12  1  1
 12 13  1  0
 13 18  2  0
 14 13  1  0
 14 15  2  0
 15 16  1  0
 16 17  2  0
 18 17  1  0
 19 11  1  0
 19 20  2  0
 22 21  1  6
 22 23  1  0
 23 19  1  0
 24 22  1  0
 25 24  2  0
 26 24  1  0
M  END
$$$$
