KFA.pdb
     RDKit          3D

 26 26  0  0  1  0  0  0  0  0999 V2000
   28.7158  -20.4771  -14.7891 N   0  0  0  0  0  0  0  0  0  0  0  0
   28.0248  -19.6615  -13.7766 C   0  0  1  0  0  0  0  0  0  0  0  0
   27.5047  -18.4062  -14.4191 C   0  0  0  0  0  0  0  0  0  0  0  0
   27.8105  -18.2987  -15.8759 C   0  0  0  0  0  0  0  0  0  0  0  0
   28.5245  -17.0031  -16.2168 C   0  0  0  0  0  0  0  0  0  0  0  0
   28.7262  -16.8532  -17.7038 C   0  0  0  0  0  0  0  0  0  0  0  0
   29.4500  -15.6546  -18.0565 N   0  0  0  0  0  0  0  0  0  0  0  0
   27.0053  -20.4981  -13.1318 C   0  0  0  0  0  0  0  0  0  0  0  0
   26.7029  -21.5981  -13.6093 O   0  0  0  0  0  0  0  0  0  0  0  0
   26.3184  -20.1113  -11.9509 N   0  0  0  0  0  0  0  0  0  0  0  0
   25.4061  -20.9269  -11.2285 C   0  0  1  0  0  0  0  0  0  0  0  0
   25.1575  -20.5172   -9.8161 C   0  0  0  0  0  0  0  0  0  0  0  0
   26.3329  -20.4809   -8.9567 C   0  0  0  0  0  0  0  0  0  0  0  0
   27.3378  -21.4002   -8.9564 C   0  0  0  0  0  0  0  0  0  0  0  0
   28.4083  -21.2947   -8.1176 C   0  0  0  0  0  0  0  0  0  0  0  0
   28.5314  -20.2501   -7.2233 C   0  0  0  0  0  0  0  0  0  0  0  0
   27.5222  -19.3089   -7.2097 C   0  0  0  0  0  0  0  0  0  0  0  0
   26.4463  -19.4195   -8.0562 C   0  0  0  0  0  0  0  0  0  0  0  0
   24.1006  -20.8922  -11.9395 C   0  0  0  0  0  0  0  0  0  0  0  0
   23.5751  -19.7944  -12.2327 O   0  0  0  0  0  0  0  0  0  0  0  0
   21.8328  -23.2877  -13.7007 C   0  0  0  0  0  0  0  0  0  0  0  0
   22.1445  -21.9653  -13.0296 C   0  0  2  0  0  0  0  0  0  0  0  0
   23.3979  -22.0636  -12.3144 N   0  0  0  0  0  0  0  0  0  0  0  0
   21.0299  -21.5933  -12.1223 C   0  0  0  0  0  0  0  0  0  0  0  0
   21.2793  -21.5219  -10.8954 O   0  0  0  0  0  0  0  0  0  0  0  0
   19.7376  -21.3208  -12.5400 O   0  0  0  0  0  0  0  0  0  0  0  0
  2  3  1  0
  2  1  1  6
  4  5  1  0
  4  3  1  0
  6  7  1  0
  6  5  1  0
  8  2  1  0
  9  8  2  0
 10  8  1  0
 11 10  1  0
 11 12  1  1
 12 13  1  0
 13 18  2  0
 14 13  1  0
 14 15  2  0
 15 16  1  0
 16 17  2  0
 18 17  1  0
 19 11  1  0
 19 20  2  0
 22 21  1  1
 22 23  1  0
 23 19  1  0
 24 22  1  0
 25 24  2  0
 26 24  1  0
M  END
$$$$
