KFA.pdb
     RDKit          3D

 26 26  0  0  1  0  0  0  0  0999 V2000
   28.1970  -21.3753  -17.1604 N   0  0  0  0  0  0  0  0  0  0  0  0
   26.8409  -21.8952  -17.4025 C   0  0  1  0  0  0  0  0  0  0  0  0
   26.9229  -23.1043  -18.2916 C   0  0  0  0  0  0  0  0  0  0  0  0
   26.6793  -22.8136  -19.7350 C   0  0  0  0  0  0  0  0  0  0  0  0
   26.7011  -21.3249  -20.0307 C   0  0  0  0  0  0  0  0  0  0  0  0
   26.3590  -21.0382  -21.4711 C   0  0  0  0  0  0  0  0  0  0  0  0
   26.4578  -19.6370  -21.8060 N   0  0  0  0  0  0  0  0  0  0  0  0
   26.1980  -22.1221  -16.1023 C   0  0  0  0  0  0  0  0  0  0  0  0
   25.8465  -23.2592  -15.7665 O   0  0  0  0  0  0  0  0  0  0  0  0
   25.9444  -21.0811  -15.1707 N   0  0  0  0  0  0  0  0  0  0  0  0
   25.3734  -21.2560  -13.8812 C   0  0  1  0  0  0  0  0  0  0  0  0
   25.7997  -20.2659  -12.8504 C   0  0  0  0  0  0  0  0  0  0  0  0
   25.2657  -20.4827  -11.5128 C   0  0  0  0  0  0  0  0  0  0  0  0
   25.8571  -21.2295  -10.5394 C   0  0  0  0  0  0  0  0  0  0  0  0
   25.2907  -21.3841   -9.3081 C   0  0  0  0  0  0  0  0  0  0  0  0
   24.0871  -20.7919   -8.9816 C   0  0  0  0  0  0  0  0  0  0  0  0
   23.4733  -20.0314   -9.9560 C   0  0  0  0  0  0  0  0  0  0  0  0
   24.0474  -19.8786  -11.1942 C   0  0  0  0  0  0  0  0  0  0  0  0
   23.8965  -21.1503  -14.0175 C   0  0  0  0  0  0  0  0  0  0  0  0
   23.3871  -20.1443  -14.5613 O   0  0  0  0  0  0  0  0  0  0  0  0
   20.9327  -23.2981  -14.0519 C   0  0  0  0  0  0  0  0  0  0  0  0
   21.5783  -21.9768  -13.6865 C   0  0  2  0  0  0  0  0  0  0  0  0
   23.0081  -22.1514  -13.5539 N   0  0  0  0  0  0  0  0  0  0  0  0
   20.9763  -21.4592  -12.4321 C   0  0  0  0  0  0  0  0  0  0  0  0
   21.6606  -21.5384  -11.3841 O   0  0  0  0  0  0  0  0  0  0  0  0
   19.7136  -20.8968  -12.3432 O   0  0  0  0  0  0  0  0  0  0  0  0
  2  3  1  0
  2  1  1  1
  4  5  1  0
  4  3  1  0
  6  7  1  0
  6  5  1  0
  8  2  1  0
  9  8  2  0
 10  8  1  0
 11 10  1  0
 11 12  1  1
 12 13  1  0
 13 18  2  0
 14 13  1  0
 14 15  2  0
 15 16  1  0
 16 17  2  0
 18 17  1  0
 19 11  1  0
 19 20  2  0
 22 21  1  1
 22 23  1  0
 23 19  1  0
 24 22  1  0
 25 24  2  0
 26 24  1  0
M  END
$$$$
