KFA.pdb
     RDKit          3D

 26 26  0  0  1  0  0  0  0  0999 V2000
   26.9813  -18.1986  -17.1603 N   0  0  0  0  0  0  0  0  0  0  0  0
   25.9399  -17.9271  -16.1555 C   0  0  1  0  0  0  0  0  0  0  0  0
   24.9064  -17.0090  -16.7455 C   0  0  0  0  0  0  0  0  0  0  0  0
   25.4653  -15.9841  -17.6753 C   0  0  0  0  0  0  0  0  0  0  0  0
   25.7499  -14.6688  -16.9731 C   0  0  0  0  0  0  0  0  0  0  0  0
   26.1456  -13.5902  -17.9500 C   0  0  0  0  0  0  0  0  0  0  0  0
   25.4720  -13.7069  -19.2219 N   0  0  0  0  0  0  0  0  0  0  0  0
   25.4245  -19.2132  -15.6703 C   0  0  0  0  0  0  0  0  0  0  0  0
   24.6793  -19.8984  -16.3807 O   0  0  0  0  0  0  0  0  0  0  0  0
   25.7382  -19.7410  -14.3901 N   0  0  0  0  0  0  0  0  0  0  0  0
   25.2962  -20.9953  -13.8896 C   0  0  1  0  0  0  0  0  0  0  0  0
   26.1163  -21.5711  -12.7848 C   0  0  0  0  0  0  0  0  0  0  0  0
   26.0149  -20.8849  -11.5041 C   0  0  0  0  0  0  0  0  0  0  0  0
   26.4612  -19.6239  -11.2480 C   0  0  0  0  0  0  0  0  0  0  0  0
   26.3282  -19.0503  -10.0175 C   0  0  0  0  0  0  0  0  0  0  0  0
   25.7338  -19.7169   -8.9647 C   0  0  0  0  0  0  0  0  0  0  0  0
   25.2754  -20.9960   -9.2061 C   0  0  0  0  0  0  0  0  0  0  0  0
   25.4116  -21.5693  -10.4466 C   0  0  0  0  0  0  0  0  0  0  0  0
   23.9129  -20.8195  -13.3735 C   0  0  0  0  0  0  0  0  0  0  0  0
   23.4847  -19.6743  -13.1043 O   0  0  0  0  0  0  0  0  0  0  0  0
   21.7598  -20.5126  -11.6378 C   0  0  0  0  0  0  0  0  0  0  0  0
   21.7110  -21.6754  -12.6083 C   0  0  2  0  0  0  0  0  0  0  0  0
   23.0270  -21.9046  -13.1631 N   0  0  0  0  0  0  0  0  0  0  0  0
   20.7152  -21.3934  -13.6725 C   0  0  0  0  0  0  0  0  0  0  0  0
   21.1377  -21.2817  -14.8480 O   0  0  0  0  0  0  0  0  0  0  0  0
   19.3554  -21.2460  -13.4537 O   0  0  0  0  0  0  0  0  0  0  0  0
  2  3  1  0
  2  1  1  6
  4  5  1  0
  4  3  1  0
  6  7  1  0
  6  5  1  0
  8  2  1  0
  9  8  2  0
 10  8  1  0
 11 10  1  0
 11 12  1  1
 12 13  1  0
 13 18  2  0
 14 13  1  0
 14 15  2  0
 15 16  1  0
 16 17  2  0
 18 17  1  0
 19 11  1  0
 19 20  2  0
 22 21  1  1
 22 23  1  0
 23 19  1  0
 24 22  1  0
 25 24  2  0
 26 24  1  0
M  END
$$$$
