KFA.pdb
     RDKit          3D

 26 26  0  0  1  0  0  0  0  0999 V2000
   27.8845  -19.9617  -15.0592 N   0  0  0  0  0  0  0  0  0  0  0  0
   27.4581  -21.3613  -15.2239 C   0  0  1  0  0  0  0  0  0  0  0  0
   28.6714  -22.2396  -15.3494 C   0  0  0  0  0  0  0  0  0  0  0  0
   29.6184  -21.8164  -16.4225 C   0  0  0  0  0  0  0  0  0  0  0  0
   29.1543  -22.2531  -17.8003 C   0  0  0  0  0  0  0  0  0  0  0  0
   30.2048  -23.0713  -18.5083 C   0  0  0  0  0  0  0  0  0  0  0  0
   31.4006  -22.3182  -18.8049 N   0  0  0  0  0  0  0  0  0  0  0  0
   26.5577  -21.6998  -14.1149 C   0  0  0  0  0  0  0  0  0  0  0  0
   26.1438  -22.8566  -13.9739 O   0  0  0  0  0  0  0  0  0  0  0  0
   26.1148  -20.7490  -13.1580 N   0  0  0  0  0  0  0  0  0  0  0  0
   25.1798  -21.0057  -12.1191 C   0  0  1  0  0  0  0  0  0  0  0  0
   25.3017  -20.1337  -10.9153 C   0  0  0  0  0  0  0  0  0  0  0  0
   26.3844  -20.4721  -10.0017 C   0  0  0  0  0  0  0  0  0  0  0  0
   27.4047  -21.3325  -10.2730 C   0  0  0  0  0  0  0  0  0  0  0  0
   28.3836  -21.5972   -9.3606 C   0  0  0  0  0  0  0  0  0  0  0  0
   28.3933  -21.0073   -8.1124 C   0  0  0  0  0  0  0  0  0  0  0  0
   27.3668  -20.1323   -7.8201 C   0  0  0  0  0  0  0  0  0  0  0  0
   26.3835  -19.8690   -8.7420 C   0  0  0  0  0  0  0  0  0  0  0  0
   23.8146  -20.8108  -12.6749 C   0  0  0  0  0  0  0  0  0  0  0  0
   23.4307  -19.6670  -13.0090 O   0  0  0  0  0  0  0  0  0  0  0  0
   21.0296  -22.8890  -14.0161 C   0  0  0  0  0  0  0  0  0  0  0  0
   21.5803  -21.6220  -13.3937 C   0  0  2  0  0  0  0  0  0  0  0  0
   22.8976  -21.8757  -12.8527 N   0  0  0  0  0  0  0  0  0  0  0  0
   20.6476  -21.1368  -12.3456 C   0  0  0  0  0  0  0  0  0  0  0  0
   19.5091  -20.7590  -12.7115 O   0  0  0  0  0  0  0  0  0  0  0  0
   20.9507  -21.0741  -10.9955 O   0  0  0  0  0  0  0  0  0  0  0  0
  2  3  1  0
  2  1  1  1
  4  5  1  0
  4  3  1  0
  6  7  1  0
  6  5  1  0
  8  2  1  0
  9  8  2  0
 10  8  1  0
 11 10  1  0
 11 12  1  1
 12 13  1  0
 13 18  2  0
 14 13  1  0
 14 15  2  0
 15 16  1  0
 16 17  2  0
 18 17  1  0
 19 11  1  0
 19 20  2  0
 22 21  1  1
 22 23  1  0
 23 19  1  0
 24 22  1  0
 25 24  2  0
 26 24  1  0
M  END
$$$$
