DFI.pdb
     RDKit          3D

 28 28  0  0  1  0  0  0  0  0999 V2000
   27.9165  -22.8120  -17.6294 N   0  0  0  0  0  0  0  0  0  0  0  0
   27.7085  -21.5026  -17.0426 C   0  0  1  0  0  0  0  0  0  0  0  0
   27.0383  -20.5706  -17.9982 C   0  0  0  0  0  0  0  0  0  0  0  0
   27.9769  -20.1158  -19.0566 C   0  0  0  0  0  0  0  0  0  0  0  0
   28.5565  -20.9811  -19.7651 O   0  0  0  0  0  0  0  0  0  0  0  0
   27.0115  -21.6512  -15.7504 C   0  0  0  0  0  0  0  0  0  0  0  0
   26.2109  -22.6363  -15.6636 O   0  0  0  0  0  0  0  0  0  0  0  0
   28.2581  -18.7850  -19.3163 O   0  0  0  0  0  0  0  0  0  0  0  0
   27.1534  -20.8173  -14.6343 N   0  0  0  0  0  0  0  0  0  0  0  0
   26.3932  -20.9810  -13.4091 C   0  0  1  0  0  0  0  0  0  0  0  0
   27.1128  -20.5662  -12.1947 C   0  0  0  0  0  0  0  0  0  0  0  0
   26.4240  -20.5643  -10.9197 C   0  0  0  0  0  0  0  0  0  0  0  0
   25.8079  -19.4423  -10.4041 C   0  0  0  0  0  0  0  0  0  0  0  0
   25.1670  -19.4284   -9.1882 C   0  0  0  0  0  0  0  0  0  0  0  0
   25.1308  -20.5871   -8.4365 C   0  0  0  0  0  0  0  0  0  0  0  0
   25.7256  -21.7135   -8.9088 C   0  0  0  0  0  0  0  0  0  0  0  0
   26.3708  -21.7018  -10.1484 C   0  0  0  0  0  0  0  0  0  0  0  0
   24.9977  -20.4789  -13.5703 C   0  0  0  0  0  0  0  0  0  0  0  0
   24.8246  -19.2946  -13.9807 O   0  0  0  0  0  0  0  0  0  0  0  0
   21.6574  -21.4596  -17.0609 C   0  0  0  0  0  0  0  0  0  0  0  0
   22.3759  -20.9539  -15.8648 C   0  0  0  0  0  0  0  0  0  0  0  0
   21.7584  -21.2373  -14.5318 C   0  0  2  0  0  0  0  0  0  0  0  0
   20.2877  -20.9093  -14.6259 C   0  0  0  0  0  0  0  0  0  0  0  0
   22.4755  -20.8129  -13.3346 C   0  0  2  0  0  0  0  0  0  0  0  0
   23.8712  -21.2586  -13.2930 N   0  0  0  0  0  0  0  0  0  0  0  0
   21.8310  -20.9535  -12.0187 C   0  0  0  0  0  0  0  0  0  0  0  0
   22.0560  -21.8225  -11.1630 O   0  0  0  0  0  0  0  0  0  0  0  0
   20.8346  -20.0212  -11.6380 O   0  0  0  0  0  0  0  0  0  0  0  0
  2  1  1  6
  2  6  1  0
  3  2  1  0
  4  3  1  0
  5  4  2  0
  6  9  1  0
  6  7  2  0
  8  4  1  0
  9 10  1  0
 10 18  1  0
 10 11  1  1
 11 12  1  0
 12 17  2  0
 13 12  1  0
 13 14  2  0
 14 15  1  0
 15 16  2  0
 17 16  1  0
 18 19  2  0
 21 20  1  0
 22 21  1  0
 22 23  1  6
 24 22  1  0
 24 25  1  1
 25 18  1  0
 26 28  1  0
 26 24  1  0
 27 26  2  0
M  END
$$$$
