DFI.pdb
     RDKit          3D

 28 28  0  0  1  0  0  0  0  0999 V2000
   27.9760  -22.7430  -17.7577 N   0  0  0  0  0  0  0  0  0  0  0  0
   27.9774  -21.4793  -17.0470 C   0  0  1  0  0  0  0  0  0  0  0  0
   27.4699  -20.3653  -17.9029 C   0  0  0  0  0  0  0  0  0  0  0  0
   28.5698  -19.7376  -18.6802 C   0  0  0  0  0  0  0  0  0  0  0  0
   29.4508  -20.4792  -19.1904 O   0  0  0  0  0  0  0  0  0  0  0  0
   27.2592  -21.6372  -15.7677 C   0  0  0  0  0  0  0  0  0  0  0  0
   26.3128  -22.4877  -15.7657 O   0  0  0  0  0  0  0  0  0  0  0  0
   28.6888  -18.3727  -18.8814 O   0  0  0  0  0  0  0  0  0  0  0  0
   27.5250  -20.9447  -14.5798 N   0  0  0  0  0  0  0  0  0  0  0  0
   26.6950  -21.0395  -13.3933 C   0  0  1  0  0  0  0  0  0  0  0  0
   27.3867  -20.6819  -12.1450 C   0  0  0  0  0  0  0  0  0  0  0  0
   26.6382  -20.6128  -10.9061 C   0  0  0  0  0  0  0  0  0  0  0  0
   26.2836  -19.4188  -10.3120 C   0  0  0  0  0  0  0  0  0  0  0  0
   25.5882  -19.3453   -9.1286 C   0  0  0  0  0  0  0  0  0  0  0  0
   25.2207  -20.5160   -8.4935 C   0  0  0  0  0  0  0  0  0  0  0  0
   25.5508  -21.7125   -9.0459 C   0  0  0  0  0  0  0  0  0  0  0  0
   26.2582  -21.7604  -10.2502 C   0  0  0  0  0  0  0  0  0  0  0  0
   25.3560  -20.4228  -13.6224 C   0  0  0  0  0  0  0  0  0  0  0  0
   25.3030  -19.2294  -14.0393 O   0  0  0  0  0  0  0  0  0  0  0  0
   20.4800  -19.9818  -16.5816 C   0  0  0  0  0  0  0  0  0  0  0  0
   20.9467  -19.9914  -15.1728 C   0  0  0  0  0  0  0  0  0  0  0  0
   22.3067  -20.5577  -14.9121 C   0  0  2  0  0  0  0  0  0  0  0  0
   22.4326  -21.8376  -15.7030 C   0  0  0  0  0  0  0  0  0  0  0  0
   22.8055  -20.5524  -13.5413 C   0  0  2  0  0  0  0  0  0  0  0  0
   24.1559  -21.1048  -13.4020 N   0  0  0  0  0  0  0  0  0  0  0  0
   21.9273  -21.0083  -12.4515 C   0  0  0  0  0  0  0  0  0  0  0  0
   21.7726  -22.1716  -12.0507 O   0  0  0  0  0  0  0  0  0  0  0  0
   21.1486  -20.0543  -11.7511 O   0  0  0  0  0  0  0  0  0  0  0  0
  2  1  1  6
  2  6  1  0
  3  2  1  0
  4  3  1  0
  5  4  2  0
  6  9  1  0
  6  7  2  0
  8  4  1  0
  9 10  1  0
 10 18  1  0
 10 11  1  1
 11 12  1  0
 12 17  2  0
 13 12  1  0
 13 14  2  0
 14 15  1  0
 15 16  2  0
 17 16  1  0
 18 19  2  0
 21 20  1  0
 22 21  1  0
 22 23  1  1
 24 22  1  0
 24 25  1  6
 25 18  1  0
 26 28  1  0
 26 24  1  0
 27 26  2  0
M  END
$$$$
