DFI.pdb
     RDKit          3D

 28 28  0  0  1  0  0  0  0  0999 V2000
   25.9633  -19.7893  -12.8420 N   0  0  0  0  0  0  0  0  0  0  0  0
   25.8410  -21.1836  -12.4637 C   0  0  1  0  0  0  0  0  0  0  0  0
   26.6656  -22.0671  -13.3416 C   0  0  0  0  0  0  0  0  0  0  0  0
   26.5889  -21.6392  -14.7625 C   0  0  0  0  0  0  0  0  0  0  0  0
   25.4722  -21.6675  -15.3444 O   0  0  0  0  0  0  0  0  0  0  0  0
   26.1242  -21.3255  -11.0225 C   0  0  0  0  0  0  0  0  0  0  0  0
   25.9648  -22.4919  -10.5395 O   0  0  0  0  0  0  0  0  0  0  0  0
   27.6807  -21.2062  -15.4961 O   0  0  0  0  0  0  0  0  0  0  0  0
   26.5448  -20.3066  -10.1587 N   0  0  0  0  0  0  0  0  0  0  0  0
   26.7861  -20.5053   -8.7416 C   0  0  1  0  0  0  0  0  0  0  0  0
   28.0180  -19.8715   -8.2465 C   0  0  0  0  0  0  0  0  0  0  0  0
   28.2918  -19.8530   -6.8236 C   0  0  0  0  0  0  0  0  0  0  0  0
   28.8780  -20.9121   -6.1609 C   0  0  0  0  0  0  0  0  0  0  0  0
   29.1257  -20.9085   -4.8088 C   0  0  0  0  0  0  0  0  0  0  0  0
   28.7756  -19.7971   -4.0663 C   0  0  0  0  0  0  0  0  0  0  0  0
   28.1961  -18.7333   -4.6813 C   0  0  0  0  0  0  0  0  0  0  0  0
   27.9549  -18.7615   -6.0576 C   0  0  0  0  0  0  0  0  0  0  0  0
   25.5443  -20.2771   -7.9469 C   0  0  0  0  0  0  0  0  0  0  0  0
   24.8812  -19.2190   -8.1514 O   0  0  0  0  0  0  0  0  0  0  0  0
   20.3278  -22.4565   -6.1476 C   0  0  0  0  0  0  0  0  0  0  0  0
   21.5047  -21.6736   -5.6954 C   0  0  0  0  0  0  0  0  0  0  0  0
   22.7368  -21.7508   -6.5407 C   0  0  2  0  0  0  0  0  0  0  0  0
   22.9308  -23.1932   -6.9421 C   0  0  0  0  0  0  0  0  0  0  0  0
   23.9123  -20.9976   -6.1178 C   0  0  2  0  0  0  0  0  0  0  0  0
   25.0765  -21.1813   -6.9892 N   0  0  0  0  0  0  0  0  0  0  0  0
   24.3018  -21.0038   -4.6983 C   0  0  0  0  0  0  0  0  0  0  0  0
   25.2561  -21.6076   -4.1858 O   0  0  0  0  0  0  0  0  0  0  0  0
   23.5347  -20.2560   -3.7714 O   0  0  0  0  0  0  0  0  0  0  0  0
  2  1  1  6
  2  6  1  0
  3  2  1  0
  4  3  1  0
  5  4  2  0
  6  9  1  0
  6  7  2  0
  8  4  1  0
  9 10  1  0
 10 18  1  0
 10 11  1  1
 11 12  1  0
 12 17  2  0
 13 12  1  0
 13 14  2  0
 14 15  1  0
 15 16  2  0
 17 16  1  0
 18 19  2  0
 21 20  1  0
 22 21  1  0
 22 23  1  1
 24 22  1  0
 24 25  1  6
 25 18  1  0
 26 28  1  0
 26 24  1  0
 27 26  2  0
M  END
$$$$
