DFI.pdb
     RDKit          3D

 28 28  0  0  1  0  0  0  0  0999 V2000
   19.0615  -25.4024  -11.8265 N   0  0  0  0  0  0  0  0  0  0  0  0
   17.9800  -25.2267  -10.8769 C   0  0  1  0  0  0  0  0  0  0  0  0
   16.9439  -26.2933  -11.0182 C   0  0  0  0  0  0  0  0  0  0  0  0
   16.0859  -26.0581  -12.2084 C   0  0  0  0  0  0  0  0  0  0  0  0
   15.3314  -25.0496  -12.2215 O   0  0  0  0  0  0  0  0  0  0  0  0
   18.5392  -25.1004   -9.5172 C   0  0  0  0  0  0  0  0  0  0  0  0
   19.5489  -25.8322   -9.2639 O   0  0  0  0  0  0  0  0  0  0  0  0
   16.0633  -26.8873  -13.3172 O   0  0  0  0  0  0  0  0  0  0  0  0
   18.0630  -24.2608   -8.5025 N   0  0  0  0  0  0  0  0  0  0  0  0
   18.6140  -24.2326   -7.1604 C   0  0  1  0  0  0  0  0  0  0  0  0
   19.1033  -22.9108   -6.7386 C   0  0  0  0  0  0  0  0  0  0  0  0
   20.1175  -22.2381   -7.5252 C   0  0  0  0  0  0  0  0  0  0  0  0
   21.4643  -22.3181   -7.2349 C   0  0  0  0  0  0  0  0  0  0  0  0
   22.4307  -21.6697   -7.9664 C   0  0  0  0  0  0  0  0  0  0  0  0
   22.0484  -20.8977   -9.0465 C   0  0  0  0  0  0  0  0  0  0  0  0
   20.7319  -20.7931   -9.3654 C   0  0  0  0  0  0  0  0  0  0  0  0
   19.7685  -21.4624   -8.6060 C   0  0  0  0  0  0  0  0  0  0  0  0
   17.7347  -24.9632   -6.2019 C   0  0  0  0  0  0  0  0  0  0  0  0
   16.4807  -24.8394   -6.3166 O   0  0  0  0  0  0  0  0  0  0  0  0
   19.1829  -29.7969   -4.9411 C   0  0  0  0  0  0  0  0  0  0  0  0
   18.1451  -28.7479   -5.1002 C   0  0  0  0  0  0  0  0  0  0  0  0
   17.8956  -27.8561   -3.9251 C   0  0  2  0  0  0  0  0  0  0  0  0
   17.1612  -28.6631   -2.8816 C   0  0  0  0  0  0  0  0  0  0  0  0
   17.4403  -26.4934   -4.1771 C   0  0  2  0  0  0  0  0  0  0  0  0
   18.2325  -25.7828   -5.1850 N   0  0  0  0  0  0  0  0  0  0  0  0
   17.1160  -25.6182   -3.0389 C   0  0  0  0  0  0  0  0  0  0  0  0
   17.8680  -24.8055   -2.4804 O   0  0  0  0  0  0  0  0  0  0  0  0
   15.8157  -25.6714   -2.4792 O   0  0  0  0  0  0  0  0  0  0  0  0
  2  1  1  6
  2  6  1  0
  3  2  1  0
  4  3  1  0
  5  4  2  0
  6  9  1  0
  6  7  2  0
  8  4  1  0
  9 10  1  0
 10 18  1  0
 10 11  1  1
 11 12  1  0
 12 17  2  0
 13 12  1  0
 13 14  2  0
 14 15  1  0
 15 16  2  0
 17 16  1  0
 18 19  2  0
 21 20  1  0
 22 21  1  0
 22 23  1  1
 24 22  1  0
 24 25  1  1
 25 18  1  0
 26 28  1  0
 26 24  1  0
 27 26  2  0
M  END
$$$$
