DFI.pdb
     RDKit          3D

 28 28  0  0  1  0  0  0  0  0999 V2000
   37.8742   -2.9359   -6.5832 N   0  0  0  0  0  0  0  0  0  0  0  0
   38.7927   -3.1201   -7.6898 C   0  0  1  0  0  0  0  0  0  0  0  0
   39.8774   -2.0933   -7.6823 C   0  0  0  0  0  0  0  0  0  0  0  0
   39.3323   -0.7307   -7.9146 C   0  0  0  0  0  0  0  0  0  0  0  0
   39.6646    0.1967   -7.1297 O   0  0  0  0  0  0  0  0  0  0  0  0
   39.2768   -4.5141   -7.6962 C   0  0  0  0  0  0  0  0  0  0  0  0
   39.6897   -4.9617   -6.5790 O   0  0  0  0  0  0  0  0  0  0  0  0
   38.4720   -0.4122   -8.9519 O   0  0  0  0  0  0  0  0  0  0  0  0
   39.3196   -5.3689   -8.8047 N   0  0  0  0  0  0  0  0  0  0  0  0
   39.8210   -6.7295   -8.7493 C   0  0  1  0  0  0  0  0  0  0  0  0
   38.7719   -7.7598   -8.8010 C   0  0  0  0  0  0  0  0  0  0  0  0
   37.8959   -7.9474   -7.6620 C   0  0  0  0  0  0  0  0  0  0  0  0
   36.9882   -6.9926   -7.2511 C   0  0  0  0  0  0  0  0  0  0  0  0
   36.1657   -7.1566   -6.1621 C   0  0  0  0  0  0  0  0  0  0  0  0
   36.2417   -8.3293   -5.4355 C   0  0  0  0  0  0  0  0  0  0  0  0
   37.1226   -9.2944   -5.8073 C   0  0  0  0  0  0  0  0  0  0  0  0
   37.9479   -9.1035   -6.9188 C   0  0  0  0  0  0  0  0  0  0  0  0
   40.9888   -6.9104   -9.6599 C   0  0  0  0  0  0  0  0  0  0  0  0
   40.9195   -6.4413  -10.8330 O   0  0  0  0  0  0  0  0  0  0  0  0
   45.0348   -4.6038   -9.8637 C   0  0  0  0  0  0  0  0  0  0  0  0
   44.3826   -5.6812   -9.0785 C   0  0  0  0  0  0  0  0  0  0  0  0
   44.5386   -7.0801   -9.5853 C   0  0  2  0  0  0  0  0  0  0  0  0
   45.7983   -7.1317  -10.4159 C   0  0  0  0  0  0  0  0  0  0  0  0
   43.3567   -7.7646  -10.0976 C   0  0  2  0  0  0  0  0  0  0  0  0
   42.1591   -7.5708   -9.2751 N   0  0  0  0  0  0  0  0  0  0  0  0
   43.4708   -9.1594  -10.5538 C   0  0  0  0  0  0  0  0  0  0  0  0
   43.8272  -10.1402   -9.8838 O   0  0  0  0  0  0  0  0  0  0  0  0
   43.1528   -9.4712  -11.8986 O   0  0  0  0  0  0  0  0  0  0  0  0
  2  1  1  1
  2  6  1  0
  3  2  1  0
  4  3  1  0
  5  4  2  0
  6  9  1  0
  6  7  2  0
  8  4  1  0
  9 10  1  0
 10 18  1  0
 10 11  1  6
 11 12  1  0
 12 17  2  0
 13 12  1  0
 13 14  2  0
 14 15  1  0
 15 16  2  0
 17 16  1  0
 18 19  2  0
 21 20  1  0
 22 21  1  0
 22 23  1  6
 24 22  1  0
 24 25  1  1
 25 18  1  0
 26 28  1  0
 26 24  1  0
 27 26  2  0
M  END
$$$$
