DFI.pdb
     RDKit          3D

 28 28  0  0  1  0  0  0  0  0999 V2000
   27.9669  -21.3278  -16.5139 N   0  0  0  0  0  0  0  0  0  0  0  0
   27.1141  -20.3277  -15.9020 C   0  0  1  0  0  0  0  0  0  0  0  0
   26.1541  -19.7449  -16.8868 C   0  0  0  0  0  0  0  0  0  0  0  0
   26.8068  -18.7090  -17.7287 C   0  0  0  0  0  0  0  0  0  0  0  0
   28.0624  -18.7121  -17.8284 O   0  0  0  0  0  0  0  0  0  0  0  0
   26.4778  -20.8979  -14.6989 C   0  0  0  0  0  0  0  0  0  0  0  0
   25.9927  -22.0668  -14.8307 O   0  0  0  0  0  0  0  0  0  0  0  0
   26.1136  -17.7288  -18.4188 O   0  0  0  0  0  0  0  0  0  0  0  0
   26.3646  -20.2747  -13.4498 N   0  0  0  0  0  0  0  0  0  0  0  0
   25.6076  -20.8288  -12.3427 C   0  0  1  0  0  0  0  0  0  0  0  0
   26.2796  -20.7172  -11.0387 C   0  0  0  0  0  0  0  0  0  0  0  0
   27.7091  -20.9374  -10.9487 C   0  0  0  0  0  0  0  0  0  0  0  0
   28.5959  -20.4956  -11.9093 C   0  0  0  0  0  0  0  0  0  0  0  0
   29.9510  -20.7150  -11.8390 C   0  0  0  0  0  0  0  0  0  0  0  0
   30.4624  -21.4101  -10.7600 C   0  0  0  0  0  0  0  0  0  0  0  0
   29.6224  -21.8621   -9.7926 C   0  0  0  0  0  0  0  0  0  0  0  0
   28.2482  -21.6258   -9.8870 C   0  0  0  0  0  0  0  0  0  0  0  0
   24.1782  -20.4058  -12.4027 C   0  0  0  0  0  0  0  0  0  0  0  0
   23.8424  -19.3268  -11.8337 O   0  0  0  0  0  0  0  0  0  0  0  0
   21.9517  -18.7273  -16.4184 C   0  0  0  0  0  0  0  0  0  0  0  0
   22.2781  -19.1819  -15.0438 C   0  0  0  0  0  0  0  0  0  0  0  0
   21.3909  -20.2281  -14.4464 C   0  0  2  0  0  0  0  0  0  0  0  0
   19.9614  -19.7750  -14.6212 C   0  0  0  0  0  0  0  0  0  0  0  0
   21.7707  -20.8029  -13.1606 C   0  0  2  0  0  0  0  0  0  0  0  0
   23.1926  -21.1448  -13.0633 N   0  0  0  0  0  0  0  0  0  0  0  0
   20.9278  -21.8499  -12.5604 C   0  0  0  0  0  0  0  0  0  0  0  0
   19.9131  -21.6884  -11.8660 O   0  0  0  0  0  0  0  0  0  0  0  0
   21.2698  -23.2093  -12.7651 O   0  0  0  0  0  0  0  0  0  0  0  0
  2  1  1  6
  2  6  1  0
  3  2  1  0
  4  3  1  0
  5  4  2  0
  6  9  1  0
  6  7  2  0
  8  4  1  0
  9 10  1  0
 10 18  1  0
 10 11  1  1
 11 12  1  0
 12 17  2  0
 13 12  1  0
 13 14  2  0
 14 15  1  0
 15 16  2  0
 17 16  1  0
 18 19  2  0
 21 20  1  0
 22 21  1  0
 22 23  1  1
 24 22  1  0
 24 25  1  6
 25 18  1  0
 26 28  1  0
 26 24  1  0
 27 26  2  0
M  END
$$$$
