DFI.pdb
     RDKit          3D

 28 28  0  0  1  0  0  0  0  0999 V2000
   28.3223  -21.7944  -15.7289 N   0  0  0  0  0  0  0  0  0  0  0  0
   27.8347  -20.5744  -15.1156 C   0  0  1  0  0  0  0  0  0  0  0  0
   27.2940  -19.6241  -16.1332 C   0  0  0  0  0  0  0  0  0  0  0  0
   28.3776  -19.0774  -16.9906 C   0  0  0  0  0  0  0  0  0  0  0  0
   28.7706  -19.7558  -17.9764 O   0  0  0  0  0  0  0  0  0  0  0  0
   26.8853  -20.9146  -14.0383 C   0  0  0  0  0  0  0  0  0  0  0  0
   26.2939  -22.0351  -14.1554 O   0  0  0  0  0  0  0  0  0  0  0  0
   28.9898  -17.8547  -16.7717 O   0  0  0  0  0  0  0  0  0  0  0  0
   26.5859  -20.1252  -12.9209 N   0  0  0  0  0  0  0  0  0  0  0  0
   25.5113  -20.4239  -11.9928 C   0  0  1  0  0  0  0  0  0  0  0  0
   25.6836  -19.8251  -10.6600 C   0  0  0  0  0  0  0  0  0  0  0  0
   26.7871  -20.2489   -9.8218 C   0  0  0  0  0  0  0  0  0  0  0  0
   26.8074  -20.0523   -8.4560 C   0  0  0  0  0  0  0  0  0  0  0  0
   27.8575  -20.4366   -7.6567 C   0  0  0  0  0  0  0  0  0  0  0  0
   28.9513  -21.0502   -8.2364 C   0  0  0  0  0  0  0  0  0  0  0  0
   28.9703  -21.2620   -9.5782 C   0  0  0  0  0  0  0  0  0  0  0  0
   27.8898  -20.8621  -10.3692 C   0  0  0  0  0  0  0  0  0  0  0  0
   24.1780  -20.2548  -12.6404 C   0  0  0  0  0  0  0  0  0  0  0  0
   24.0879  -19.4987  -13.6509 O   0  0  0  0  0  0  0  0  0  0  0  0
   20.6522  -22.5468  -16.2508 C   0  0  0  0  0  0  0  0  0  0  0  0
   20.5391  -21.8749  -14.9324 C   0  0  0  0  0  0  0  0  0  0  0  0
   21.7959  -21.7317  -14.1334 C   0  0  2  0  0  0  0  0  0  0  0  0
   22.4842  -23.0752  -14.1122 C   0  0  0  0  0  0  0  0  0  0  0  0
   21.7392  -20.9757  -12.8872 C   0  0  2  0  0  0  0  0  0  0  0  0
   23.0233  -20.8975  -12.1848 N   0  0  0  0  0  0  0  0  0  0  0  0
   20.6309  -21.2135  -11.9480 C   0  0  0  0  0  0  0  0  0  0  0  0
   19.4321  -20.9474  -12.1209 O   0  0  0  0  0  0  0  0  0  0  0  0
   20.9091  -21.8073  -10.6923 O   0  0  0  0  0  0  0  0  0  0  0  0
  2  1  1  6
  2  6  1  0
  3  2  1  0
  4  3  1  0
  5  4  2  0
  6  9  1  0
  6  7  2  0
  8  4  1  0
  9 10  1  0
 10 18  1  0
 10 11  1  1
 11 12  1  0
 12 17  2  0
 13 12  1  0
 13 14  2  0
 14 15  1  0
 15 16  2  0
 17 16  1  0
 18 19  2  0
 21 20  1  0
 22 21  1  0
 22 23  1  1
 24 22  1  0
 24 25  1  1
 25 18  1  0
 26 28  1  0
 26 24  1  0
 27 26  2  0
M  END
$$$$
