DFI.pdb
     RDKit          3D

 28 28  0  0  1  0  0  0  0  0999 V2000
   28.0426  -22.4498  -16.7986 N   0  0  0  0  0  0  0  0  0  0  0  0
   27.8371  -21.1670  -16.1549 C   0  0  1  0  0  0  0  0  0  0  0  0
   26.9887  -20.2624  -16.9874 C   0  0  0  0  0  0  0  0  0  0  0  0
   27.6391  -19.9587  -18.2885 C   0  0  0  0  0  0  0  0  0  0  0  0
   26.9246  -19.9017  -19.3243 O   0  0  0  0  0  0  0  0  0  0  0  0
   27.3315  -21.3827  -14.7855 C   0  0  0  0  0  0  0  0  0  0  0  0
   26.3390  -22.1719  -14.6800 O   0  0  0  0  0  0  0  0  0  0  0  0
   28.9971  -19.7316  -18.4360 O   0  0  0  0  0  0  0  0  0  0  0  0
   27.8406  -20.8045  -13.6160 N   0  0  0  0  0  0  0  0  0  0  0  0
   27.2058  -20.9303  -12.3172 C   0  0  1  0  0  0  0  0  0  0  0  0
   28.0871  -20.6102  -11.1833 C   0  0  0  0  0  0  0  0  0  0  0  0
   27.5295  -20.5076   -9.8498 C   0  0  0  0  0  0  0  0  0  0  0  0
   27.7307  -21.4676   -8.8790 C   0  0  0  0  0  0  0  0  0  0  0  0
   27.1916  -21.3853   -7.6173 C   0  0  0  0  0  0  0  0  0  0  0  0
   26.4087  -20.2941   -7.2928 C   0  0  0  0  0  0  0  0  0  0  0  0
   26.1864  -19.3268   -8.2206 C   0  0  0  0  0  0  0  0  0  0  0  0
   26.7462  -19.4336   -9.4967 C   0  0  0  0  0  0  0  0  0  0  0  0
   25.8521  -20.3034  -12.3165 C   0  0  0  0  0  0  0  0  0  0  0  0
   25.7378  -19.1104  -12.7223 O   0  0  0  0  0  0  0  0  0  0  0  0
   20.7158  -19.9990  -14.7253 C   0  0  0  0  0  0  0  0  0  0  0  0
   21.3029  -19.9960  -13.3622 C   0  0  0  0  0  0  0  0  0  0  0  0
   22.6918  -20.5337  -13.2201 C   0  0  2  0  0  0  0  0  0  0  0  0
   22.7530  -21.8520  -13.9535 C   0  0  0  0  0  0  0  0  0  0  0  0
   23.3335  -20.4513  -11.9128 C   0  0  2  0  0  0  0  0  0  0  0  0
   24.7021  -20.9754  -11.8924 N   0  0  0  0  0  0  0  0  0  0  0  0
   22.5859  -20.8645  -10.7139 C   0  0  0  0  0  0  0  0  0  0  0  0
   21.4824  -20.4427  -10.3366 O   0  0  0  0  0  0  0  0  0  0  0  0
   23.1440  -21.8479   -9.8606 O   0  0  0  0  0  0  0  0  0  0  0  0
  2  1  1  6
  2  6  1  0
  3  2  1  0
  4  3  1  0
  5  4  2  0
  6  9  1  0
  6  7  2  0
  8  4  1  0
  9 10  1  0
 10 18  1  0
 10 11  1  1
 11 12  1  0
 12 17  2  0
 13 12  1  0
 13 14  2  0
 14 15  1  0
 15 16  2  0
 17 16  1  0
 18 19  2  0
 21 20  1  0
 22 21  1  0
 22 23  1  1
 24 22  1  0
 24 25  1  6
 25 18  1  0
 26 28  1  0
 26 24  1  0
 27 26  2  0
M  END
$$$$
