DFI.pdb
     RDKit          3D

 28 28  0  0  1  0  0  0  0  0999 V2000
   28.5296  -16.4904  -18.8156 N   0  0  0  0  0  0  0  0  0  0  0  0
   27.9017  -17.7896  -18.6737 C   0  0  1  0  0  0  0  0  0  0  0  0
   28.8848  -18.8342  -18.2573 C   0  0  0  0  0  0  0  0  0  0  0  0
   29.8987  -19.0741  -19.3168 C   0  0  0  0  0  0  0  0  0  0  0  0
   29.8779  -18.3535  -20.3496 O   0  0  0  0  0  0  0  0  0  0  0  0
   26.7293  -17.6714  -17.7855 C   0  0  0  0  0  0  0  0  0  0  0  0
   26.8290  -16.8165  -16.8483 O   0  0  0  0  0  0  0  0  0  0  0  0
   30.8766  -20.0516  -19.2395 O   0  0  0  0  0  0  0  0  0  0  0  0
   25.5405  -18.4051  -17.8842 N   0  0  0  0  0  0  0  0  0  0  0  0
   24.4003  -18.2061  -17.0089 C   0  0  1  0  0  0  0  0  0  0  0  0
   23.2583  -17.5368  -17.6513 C   0  0  0  0  0  0  0  0  0  0  0  0
   21.9884  -17.4634  -16.9572 C   0  0  0  0  0  0  0  0  0  0  0  0
   21.0096  -18.4279  -17.0843 C   0  0  0  0  0  0  0  0  0  0  0  0
   19.7964  -18.3569  -16.4422 C   0  0  0  0  0  0  0  0  0  0  0  0
   19.5317  -17.2728  -15.6275 C   0  0  0  0  0  0  0  0  0  0  0  0
   20.4694  -16.3014  -15.4758 C   0  0  0  0  0  0  0  0  0  0  0  0
   21.6955  -16.3970  -16.1395 C   0  0  0  0  0  0  0  0  0  0  0  0
   24.1038  -19.4386  -16.2224 C   0  0  0  0  0  0  0  0  0  0  0  0
   24.0986  -20.5525  -16.8226 O   0  0  0  0  0  0  0  0  0  0  0  0
   26.8887  -20.8605  -12.0703 C   0  0  0  0  0  0  0  0  0  0  0  0
   25.9551  -20.7079  -13.2140 C   0  0  0  0  0  0  0  0  0  0  0  0
   24.4917  -20.7591  -12.9071 C   0  0  2  0  0  0  0  0  0  0  0  0
   24.2599  -21.9089  -11.9566 C   0  0  0  0  0  0  0  0  0  0  0  0
   23.5493  -20.5839  -14.0067 C   0  0  2  0  0  0  0  0  0  0  0  0
   23.8360  -19.4203  -14.8506 N   0  0  0  0  0  0  0  0  0  0  0  0
   22.1059  -20.7132  -13.7484 C   0  0  0  0  0  0  0  0  0  0  0  0
   21.3600  -21.6362  -14.1084 O   0  0  0  0  0  0  0  0  0  0  0  0
   21.4451  -19.6979  -13.0141 O   0  0  0  0  0  0  0  0  0  0  0  0
  2  1  1  1
  2  6  1  0
  3  2  1  0
  4  3  1  0
  5  4  2  0
  6  9  1  0
  6  7  2  0
  8  4  1  0
  9 10  1  0
 10 18  1  0
 10 11  1  6
 11 12  1  0
 12 17  2  0
 13 12  1  0
 13 14  2  0
 14 15  1  0
 15 16  2  0
 17 16  1  0
 18 19  2  0
 21 20  1  0
 22 21  1  0
 22 23  1  6
 24 22  1  0
 24 25  1  1
 25 18  1  0
 26 28  1  0
 26 24  1  0
 27 26  2  0
M  END
$$$$
