DFI.pdb
     RDKit          3D

 28 28  0  0  1  0  0  0  0  0999 V2000
   27.8448  -19.2841  -17.8182 N   0  0  0  0  0  0  0  0  0  0  0  0
   26.9100  -20.3102  -17.3994 C   0  0  1  0  0  0  0  0  0  0  0  0
   26.8349  -21.4249  -18.3907 C   0  0  0  0  0  0  0  0  0  0  0  0
   26.6110  -20.9097  -19.7664 C   0  0  0  0  0  0  0  0  0  0  0  0
   26.2910  -21.7230  -20.6733 O   0  0  0  0  0  0  0  0  0  0  0  0
   27.2389  -20.7401  -16.0266 C   0  0  0  0  0  0  0  0  0  0  0  0
   26.5500  -21.7074  -15.5697 O   0  0  0  0  0  0  0  0  0  0  0  0
   26.7333  -19.5760  -20.1184 O   0  0  0  0  0  0  0  0  0  0  0  0
   28.2246  -20.1854  -15.2008 N   0  0  0  0  0  0  0  0  0  0  0  0
   28.4471  -20.5998  -13.8280 C   0  0  1  0  0  0  0  0  0  0  0  0
   29.8198  -20.3777  -13.3475 C   0  0  0  0  0  0  0  0  0  0  0  0
   30.1471  -20.6530  -11.9629 C   0  0  0  0  0  0  0  0  0  0  0  0
   29.5650  -19.9792  -10.9086 C   0  0  0  0  0  0  0  0  0  0  0  0
   29.8823  -20.2231   -9.5936 C   0  0  0  0  0  0  0  0  0  0  0  0
   30.8279  -21.1867   -9.3000 C   0  0  0  0  0  0  0  0  0  0  0  0
   31.4245  -21.8726  -10.3097 C   0  0  0  0  0  0  0  0  0  0  0  0
   31.0842  -21.6060  -11.6387 C   0  0  0  0  0  0  0  0  0  0  0  0
   27.3396  -20.1397  -12.9406 C   0  0  0  0  0  0  0  0  0  0  0  0
   27.0740  -18.9033  -12.8962 O   0  0  0  0  0  0  0  0  0  0  0  0
   21.6871  -20.1509  -11.6914 C   0  0  0  0  0  0  0  0  0  0  0  0
   23.0159  -20.1705  -11.0306 C   0  0  0  0  0  0  0  0  0  0  0  0
   24.1800  -20.6123  -11.8600 C   0  0  2  0  0  0  0  0  0  0  0  0
   23.7492  -21.8244  -12.6504 C   0  0  0  0  0  0  0  0  0  0  0  0
   25.4997  -20.6379  -11.2392 C   0  0  2  0  0  0  0  0  0  0  0  0
   26.5779  -21.0127  -12.1587 N   0  0  0  0  0  0  0  0  0  0  0  0
   25.6684  -21.2840   -9.9274 C   0  0  0  0  0  0  0  0  0  0  0  0
   26.4381  -22.2140   -9.6436 O   0  0  0  0  0  0  0  0  0  0  0  0
   24.8880  -20.8343   -8.8339 O   0  0  0  0  0  0  0  0  0  0  0  0
  2  1  1  6
  2  6  1  0
  3  2  1  0
  4  3  1  0
  5  4  2  0
  6  9  1  0
  6  7  2  0
  8  4  1  0
  9 10  1  0
 10 18  1  0
 10 11  1  1
 11 12  1  0
 12 17  2  0
 13 12  1  0
 13 14  2  0
 14 15  1  0
 15 16  2  0
 17 16  1  0
 18 19  2  0
 21 20  1  0
 22 21  1  0
 22 23  1  1
 24 22  1  0
 24 25  1  6
 25 18  1  0
 26 28  1  0
 26 24  1  0
 27 26  2  0
M  END
$$$$
