AER.pdb
     RDKit          3D

 26 25  0  0  1  0  0  0  0  0999 V2000
    3.2775  -20.5723   22.0764 C   0  0  0  0  0  0  0  0  0  0  0  0
    4.7565  -20.2601   22.0384 C   0  0  2  0  0  0  0  0  0  0  0  0
    5.5211  -21.4824   22.1004 N   0  0  0  0  0  0  0  0  0  0  0  0
    5.1970  -19.3678   23.1115 C   0  0  0  0  0  0  0  0  0  0  0  0
    4.6784  -18.2290   23.2377 O   0  0  0  0  0  0  0  0  0  0  0  0
    6.1936  -19.7430   24.0199 N   0  0  0  0  0  0  0  0  0  0  0  0
    6.6943  -18.9646   25.0968 C   0  0  1  0  0  0  0  0  0  0  0  0
    7.2196  -19.7325   26.2646 C   0  0  0  0  0  0  0  0  0  0  0  0
    7.6802  -18.8091   27.3923 C   0  0  0  0  0  0  0  0  0  0  0  0
    8.2379  -19.6295   28.4986 C   0  0  0  0  0  0  0  0  0  0  0  0
    7.4599  -20.3310   29.2174 O   0  0  0  0  0  0  0  0  0  0  0  0
    7.7858  -18.0267   24.6690 C   0  0  0  0  0  0  0  0  0  0  0  0
    8.8990  -18.4729   24.2875 O   0  0  0  0  0  0  0  0  0  0  0  0
    9.5696  -19.6694   28.7886 O   0  0  0  0  0  0  0  0  0  0  0  0
    8.0303  -11.6354   20.0294 N   0  0  0  0  0  0  0  0  0  0  0  0
    7.8964  -12.8385   19.2643 C   0  0  0  0  0  0  0  0  0  0  0  0
    8.2795  -12.8274   18.0236 N   0  0  0  0  0  0  0  0  0  0  0  0
    7.3621  -14.0061   19.8427 N   0  0  0  0  0  0  0  0  0  0  0  0
    7.0370  -14.0535   21.2650 C   0  0  0  0  0  0  0  0  0  0  0  0
    8.2954  -14.3545   22.0768 C   0  0  0  0  0  0  0  0  0  0  0  0
    8.0198  -14.4992   23.5377 C   0  0  0  0  0  0  0  0  0  0  0  0
    8.6640  -15.7154   24.0935 C   0  0  2  0  0  0  0  0  0  0  0  0
    7.6325  -16.6216   24.6689 N   0  0  0  0  0  0  0  0  0  0  0  0
    9.5468  -15.3855   25.2073 C   0  0  0  0  0  0  0  0  0  0  0  0
    9.3237  -15.9075   26.4643 O   0  0  0  0  0  0  0  0  0  0  0  0
   10.5240  -14.6304   25.0737 O   0  0  0  0  0  0  0  0  0  0  0  0
  2  1  1  1
  3  2  1  0
  4  5  2  0
  4  2  1  0
  6  4  1  0
  7  6  1  0
  7  8  1  1
  9  8  1  0
 10 14  1  0
 10  9  1  0
 11 10  2  0
 12 13  2  0
 12  7  1  0
 16 15  1  0
 17 16  2  0
 18 16  1  0
 19 18  1  0
 20 19  1  0
 21 20  1  0
 22 21  1  1
 22 23  1  0
 23 12  1  0
 24 22  1  0
 25 24  1  0
 26 24  2  0
M  END
$$$$
