AER.pdb
     RDKit          3D

 26 25  0  0  1  0  0  0  0  0999 V2000
    8.6066  -11.8093   19.6939 C   0  0  0  0  0  0  0  0  0  0  0  0
    8.7856  -12.8507   18.6124 C   0  0  2  0  0  0  0  0  0  0  0  0
    7.5158  -13.4603   18.2985 N   0  0  0  0  0  0  0  0  0  0  0  0
    9.7448  -13.9001   18.9595 C   0  0  0  0  0  0  0  0  0  0  0  0
    9.3369  -15.0195   19.3621 O   0  0  0  0  0  0  0  0  0  0  0  0
   11.1263  -13.6992   18.8576 N   0  0  0  0  0  0  0  0  0  0  0  0
   12.1419  -14.6623   19.0968 C   0  0  1  0  0  0  0  0  0  0  0  0
   13.3386  -14.5794   18.2077 C   0  0  0  0  0  0  0  0  0  0  0  0
   14.3025  -15.7427   18.4407 C   0  0  0  0  0  0  0  0  0  0  0  0
   15.4418  -15.6304   17.4935 C   0  0  0  0  0  0  0  0  0  0  0  0
   15.2236  -15.6312   16.2419 O   0  0  0  0  0  0  0  0  0  0  0  0
   12.6487  -14.6243   20.5095 C   0  0  0  0  0  0  0  0  0  0  0  0
   13.3105  -13.6376   20.9249 O   0  0  0  0  0  0  0  0  0  0  0  0
   16.7370  -15.5242   17.9065 O   0  0  0  0  0  0  0  0  0  0  0  0
    7.3011  -17.5927   23.7651 N   0  0  0  0  0  0  0  0  0  0  0  0
    7.4639  -16.3801   24.5092 C   0  0  0  0  0  0  0  0  0  0  0  0
    6.5311  -15.4797   24.4346 N   0  0  0  0  0  0  0  0  0  0  0  0
    8.6077  -16.1682   25.3030 N   0  0  0  0  0  0  0  0  0  0  0  0
    9.8733  -16.8192   24.9781 C   0  0  0  0  0  0  0  0  0  0  0  0
   10.7891  -15.8401   24.2459 C   0  0  0  0  0  0  0  0  0  0  0  0
   12.0092  -16.4970   23.6882 C   0  0  0  0  0  0  0  0  0  0  0  0
   12.8068  -15.5521   22.8671 C   0  0  2  0  0  0  0  0  0  0  0  0
   12.4189  -15.6679   21.4345 N   0  0  0  0  0  0  0  0  0  0  0  0
   14.2269  -15.8844   22.9064 C   0  0  0  0  0  0  0  0  0  0  0  0
   14.7795  -16.7353   21.9722 O   0  0  0  0  0  0  0  0  0  0  0  0
   14.9892  -15.4219   23.7712 O   0  0  0  0  0  0  0  0  0  0  0  0
  2  1  1  1
  3  2  1  0
  4  5  2  0
  4  2  1  0
  6  4  1  0
  7  6  1  0
  7  8  1  6
  9  8  1  0
 10 14  1  0
 10  9  1  0
 11 10  2  0
 12 13  2  0
 12  7  1  0
 16 15  1  0
 17 16  2  0
 18 16  1  0
 19 18  1  0
 20 19  1  0
 21 20  1  0
 22 21  1  1
 22 23  1  0
 23 12  1  0
 24 22  1  0
 25 24  1  0
 26 24  2  0
M  END
$$$$
