AER.pdb
     RDKit          3D

 26 25  0  0  1  0  0  0  0  0999 V2000
    6.7446  -13.5768   18.2080 C   0  0  0  0  0  0  0  0  0  0  0  0
    8.2336  -13.5672   18.4712 C   0  0  2  0  0  0  0  0  0  0  0  0
    8.9556  -13.7076   17.2296 N   0  0  0  0  0  0  0  0  0  0  0  0
    8.6736  -14.6101   19.3987 C   0  0  0  0  0  0  0  0  0  0  0  0
    8.0907  -14.7592   20.5030 O   0  0  0  0  0  0  0  0  0  0  0  0
    9.7403  -15.4643   19.0955 N   0  0  0  0  0  0  0  0  0  0  0  0
   10.2603  -16.4956   19.9213 C   0  0  1  0  0  0  0  0  0  0  0  0
   11.4761  -17.1914   19.4044 C   0  0  0  0  0  0  0  0  0  0  0  0
   11.8783  -18.3693   20.2918 C   0  0  0  0  0  0  0  0  0  0  0  0
   13.0984  -19.0074   19.7332 C   0  0  0  0  0  0  0  0  0  0  0  0
   14.2257  -18.4369   19.8666 O   0  0  0  0  0  0  0  0  0  0  0  0
   10.5928  -16.0125   21.3034 C   0  0  0  0  0  0  0  0  0  0  0  0
   11.4338  -15.0918   21.4736 O   0  0  0  0  0  0  0  0  0  0  0  0
   13.0706  -20.1989   19.0708 O   0  0  0  0  0  0  0  0  0  0  0  0
    7.8010  -12.8676   27.6931 N   0  0  0  0  0  0  0  0  0  0  0  0
    6.8756  -12.3148   26.7504 C   0  0  0  0  0  0  0  0  0  0  0  0
    6.4804  -11.0894   26.9188 N   0  0  0  0  0  0  0  0  0  0  0  0
    6.4050  -13.0809   25.6665 N   0  0  0  0  0  0  0  0  0  0  0  0
    6.7194  -14.5029   25.5648 C   0  0  0  0  0  0  0  0  0  0  0  0
    8.1931  -14.6856   25.2070 C   0  0  0  0  0  0  0  0  0  0  0  0
    8.3918  -15.5249   23.9874 C   0  0  0  0  0  0  0  0  0  0  0  0
    9.8330  -15.7478   23.7111 C   0  0  2  0  0  0  0  0  0  0  0  0
    9.9962  -16.5489   22.4670 N   0  0  0  0  0  0  0  0  0  0  0  0
   10.4572  -16.5437   24.7625 C   0  0  0  0  0  0  0  0  0  0  0  0
   10.8061  -15.9723   25.9684 O   0  0  0  0  0  0  0  0  0  0  0  0
   10.6984  -17.7538   24.6193 O   0  0  0  0  0  0  0  0  0  0  0  0
  2  1  1  6
  3  2  1  0
  4  5  2  0
  4  2  1  0
  6  4  1  0
  7  6  1  0
  7  8  1  6
  9  8  1  0
 10 14  1  0
 10  9  1  0
 11 10  2  0
 12 13  2  0
 12  7  1  0
 16 15  1  0
 17 16  2  0
 18 16  1  0
 19 18  1  0
 20 19  1  0
 21 20  1  0
 22 21  1  1
 22 23  1  0
 23 12  1  0
 24 22  1  0
 25 24  1  0
 26 24  2  0
M  END
$$$$
