AER.pdb
     RDKit          3D

 26 25  0  0  1  0  0  0  0  0999 V2000
    9.3298  -17.5591   16.2239 C   0  0  0  0  0  0  0  0  0  0  0  0
   10.3848  -16.9534   17.1220 C   0  0  2  0  0  0  0  0  0  0  0  0
   11.7006  -17.2608   16.6154 N   0  0  0  0  0  0  0  0  0  0  0  0
   10.2955  -17.3944   18.5145 C   0  0  0  0  0  0  0  0  0  0  0  0
    9.2845  -17.1049   19.2043 O   0  0  0  0  0  0  0  0  0  0  0  0
   11.3140  -18.1410   19.1182 N   0  0  0  0  0  0  0  0  0  0  0  0
   11.3370  -18.6150   20.4565 C   0  0  1  0  0  0  0  0  0  0  0  0
   12.3313  -19.6900   20.7483 C   0  0  0  0  0  0  0  0  0  0  0  0
   13.7527  -19.1374   20.8528 C   0  0  0  0  0  0  0  0  0  0  0  0
   14.6873  -20.2492   21.1664 C   0  0  0  0  0  0  0  0  0  0  0  0
   14.7289  -20.7248   22.3438 O   0  0  0  0  0  0  0  0  0  0  0  0
   11.5819  -17.5172   21.4508 C   0  0  0  0  0  0  0  0  0  0  0  0
   12.5777  -16.7568   21.3312 O   0  0  0  0  0  0  0  0  0  0  0  0
   15.5203  -20.7973   20.2365 O   0  0  0  0  0  0  0  0  0  0  0  0
    6.9328  -11.9361   20.3360 N   0  0  0  0  0  0  0  0  0  0  0  0
    7.2265  -13.1474   19.6308 C   0  0  0  0  0  0  0  0  0  0  0  0
    6.7319  -13.3045   18.4405 N   0  0  0  0  0  0  0  0  0  0  0  0
    8.0322  -14.1447   20.2135 N   0  0  0  0  0  0  0  0  0  0  0  0
    8.6913  -13.9174   21.4960 C   0  0  0  0  0  0  0  0  0  0  0  0
    9.4605  -15.1689   21.9148 C   0  0  0  0  0  0  0  0  0  0  0  0
   10.2085  -14.9862   23.1947 C   0  0  0  0  0  0  0  0  0  0  0  0
   11.0002  -16.1939   23.5377 C   0  0  2  0  0  0  0  0  0  0  0  0
   10.7305  -17.2775   22.5532 N   0  0  0  0  0  0  0  0  0  0  0  0
   10.5983  -16.7420   24.8287 C   0  0  0  0  0  0  0  0  0  0  0  0
   10.9476  -16.1105   26.0040 O   0  0  0  0  0  0  0  0  0  0  0  0
    9.9334  -17.7869   24.9240 O   0  0  0  0  0  0  0  0  0  0  0  0
  2  1  1  6
  3  2  1  0
  4  5  2  0
  4  2  1  0
  6  4  1  0
  7  6  1  0
  7  8  1  6
  9  8  1  0
 10 14  1  0
 10  9  1  0
 11 10  2  0
 12 13  2  0
 12  7  1  0
 16 15  1  0
 17 16  2  0
 18 16  1  0
 19 18  1  0
 20 19  1  0
 21 20  1  0
 22 21  1  6
 22 23  1  0
 23 12  1  0
 24 22  1  0
 25 24  1  0
 26 24  2  0
M  END
$$$$
