AER.pdb
     RDKit          3D

 26 25  0  0  1  0  0  0  0  0999 V2000
    0.8274  -19.2997   23.1973 C   0  0  0  0  0  0  0  0  0  0  0  0
    1.5864  -19.5331   21.9105 C   0  0  2  0  0  0  0  0  0  0  0  0
    1.1535  -20.7661   21.2984 N   0  0  0  0  0  0  0  0  0  0  0  0
    3.0391  -19.5714   22.0832 C   0  0  0  0  0  0  0  0  0  0  0  0
    3.5505  -20.3113   22.9623 O   0  0  0  0  0  0  0  0  0  0  0  0
    3.8964  -18.7997   21.2904 N   0  0  0  0  0  0  0  0  0  0  0  0
    5.3083  -18.7087   21.4109 C   0  0  1  0  0  0  0  0  0  0  0  0
    6.0372  -18.2565   20.1887 C   0  0  0  0  0  0  0  0  0  0  0  0
    7.5531  -18.3069   20.3787 C   0  0  0  0  0  0  0  0  0  0  0  0
    8.2180  -17.9255   19.1058 C   0  0  0  0  0  0  0  0  0  0  0  0
    8.1249  -18.6870   18.0931 O   0  0  0  0  0  0  0  0  0  0  0  0
    5.7322  -17.8003   22.5286 C   0  0  0  0  0  0  0  0  0  0  0  0
    5.1806  -16.6801   22.6862 O   0  0  0  0  0  0  0  0  0  0  0  0
    8.9381  -16.7763   18.9650 O   0  0  0  0  0  0  0  0  0  0  0  0
    6.9108  -22.0450   26.5616 N   0  0  0  0  0  0  0  0  0  0  0  0
    7.2177  -21.6965   27.9162 C   0  0  0  0  0  0  0  0  0  0  0  0
    7.2544  -22.6430   28.8044 N   0  0  0  0  0  0  0  0  0  0  0  0
    7.4738  -20.3596   28.2774 N   0  0  0  0  0  0  0  0  0  0  0  0
    6.6798  -19.2698   27.7180 C   0  0  0  0  0  0  0  0  0  0  0  0
    7.3190  -18.7717   26.4231 C   0  0  0  0  0  0  0  0  0  0  0  0
    6.5835  -17.6190   25.8218 C   0  0  0  0  0  0  0  0  0  0  0  0
    7.1822  -17.2095   24.5268 C   0  0  2  0  0  0  0  0  0  0  0  0
    6.7505  -18.1401   23.4480 N   0  0  0  0  0  0  0  0  0  0  0  0
    8.6373  -17.3117   24.5598 C   0  0  0  0  0  0  0  0  0  0  0  0
    9.3835  -16.5055   25.3937 O   0  0  0  0  0  0  0  0  0  0  0  0
    9.2586  -18.1181   23.8480 O   0  0  0  0  0  0  0  0  0  0  0  0
  2  1  1  1
  3  2  1  0
  4  5  2  0
  4  2  1  0
  6  4  1  0
  7  6  1  0
  7  8  1  6
  9  8  1  0
 10 14  1  0
 10  9  1  0
 11 10  2  0
 12 13  2  0
 12  7  1  0
 16 15  1  0
 17 16  2  0
 18 16  1  0
 19 18  1  0
 20 19  1  0
 21 20  1  0
 22 21  1  1
 22 23  1  0
 23 12  1  0
 24 22  1  0
 25 24  1  0
 26 24  2  0
M  END
$$$$
