AER.pdb
     RDKit          3D

 26 25  0  0  1  0  0  0  0  0999 V2000
    8.3960  -12.5747   19.3541 C   0  0  0  0  0  0  0  0  0  0  0  0
    8.3664  -14.0065   18.8692 C   0  0  2  0  0  0  0  0  0  0  0  0
    7.0509  -14.3332   18.3740 N   0  0  0  0  0  0  0  0  0  0  0  0
    8.7460  -14.9818   19.8921 C   0  0  0  0  0  0  0  0  0  0  0  0
    7.8829  -15.4253   20.6921 O   0  0  0  0  0  0  0  0  0  0  0  0
   10.0602  -15.4479   20.0148 N   0  0  0  0  0  0  0  0  0  0  0  0
   10.5177  -16.4713   20.8862 C   0  0  1  0  0  0  0  0  0  0  0  0
   11.7419  -17.2027   20.4436 C   0  0  0  0  0  0  0  0  0  0  0  0
   11.4805  -18.0476   19.1968 C   0  0  0  0  0  0  0  0  0  0  0  0
   12.5928  -19.0171   19.0216 C   0  0  0  0  0  0  0  0  0  0  0  0
   13.7956  -18.6239   19.1343 O   0  0  0  0  0  0  0  0  0  0  0  0
   10.7934  -15.9650   22.2725 C   0  0  0  0  0  0  0  0  0  0  0  0
   11.4778  -14.9235   22.4483 O   0  0  0  0  0  0  0  0  0  0  0  0
   12.3853  -20.3351   18.7403 O   0  0  0  0  0  0  0  0  0  0  0  0
    5.1261  -11.5908   27.2532 N   0  0  0  0  0  0  0  0  0  0  0  0
    6.4142  -12.0212   26.7990 C   0  0  0  0  0  0  0  0  0  0  0  0
    7.3943  -12.0416   27.6506 N   0  0  0  0  0  0  0  0  0  0  0  0
    6.6142  -12.4131   25.4612 N   0  0  0  0  0  0  0  0  0  0  0  0
    6.5678  -13.8217   25.0808 C   0  0  0  0  0  0  0  0  0  0  0  0
    7.8981  -14.4946   25.4135 C   0  0  0  0  0  0  0  0  0  0  0  0
    8.4803  -15.2300   24.2509 C   0  0  0  0  0  0  0  0  0  0  0  0
    9.7833  -15.8500   24.5986 C   0  0  2  0  0  0  0  0  0  0  0  0
   10.3131  -16.6112   23.4341 N   0  0  0  0  0  0  0  0  0  0  0  0
    9.6336  -16.8360   25.6634 C   0  0  0  0  0  0  0  0  0  0  0  0
    9.5378  -18.1809   25.3727 O   0  0  0  0  0  0  0  0  0  0  0  0
    9.5862  -16.5116   26.8615 O   0  0  0  0  0  0  0  0  0  0  0  0
  2  1  1  1
  3  2  1  0
  4  5  2  0
  4  2  1  0
  6  4  1  0
  7  6  1  0
  7  8  1  6
  9  8  1  0
 10 14  1  0
 10  9  1  0
 11 10  2  0
 12 13  2  0
 12  7  1  0
 16 15  1  0
 17 16  2  0
 18 16  1  0
 19 18  1  0
 20 19  1  0
 21 20  1  0
 22 21  1  6
 22 23  1  0
 23 12  1  0
 24 22  1  0
 25 24  1  0
 26 24  2  0
M  END
$$$$
