AER.pdb
     RDKit          3D

 26 25  0  0  1  0  0  0  0  0999 V2000
    7.9034  -12.4476   19.7677 C   0  0  0  0  0  0  0  0  0  0  0  0
    7.9875  -13.6219   18.8190 C   0  0  2  0  0  0  0  0  0  0  0  0
    6.6834  -13.9095   18.2720 N   0  0  0  0  0  0  0  0  0  0  0  0
    8.5249  -14.8367   19.4331 C   0  0  0  0  0  0  0  0  0  0  0  0
    7.7749  -15.5868   20.1089 O   0  0  0  0  0  0  0  0  0  0  0  0
    9.8690  -15.2012   19.2928 N   0  0  0  0  0  0  0  0  0  0  0  0
   10.4864  -16.3730   19.8046 C   0  0  1  0  0  0  0  0  0  0  0  0
   11.6664  -16.8734   19.0387 C   0  0  0  0  0  0  0  0  0  0  0  0
   12.1514  -18.2261   19.5601 C   0  0  0  0  0  0  0  0  0  0  0  0
   13.2939  -18.6884   18.7301 C   0  0  0  0  0  0  0  0  0  0  0  0
   13.3666  -19.9076   18.3805 O   0  0  0  0  0  0  0  0  0  0  0  0
   10.9315  -16.2125   21.2295 C   0  0  0  0  0  0  0  0  0  0  0  0
   11.6317  -15.2247   21.5731 O   0  0  0  0  0  0  0  0  0  0  0  0
   14.2898  -17.8543   18.3154 O   0  0  0  0  0  0  0  0  0  0  0  0
    8.8311  -13.2520   28.2319 N   0  0  0  0  0  0  0  0  0  0  0  0
    9.7505  -14.3281   28.4496 C   0  0  0  0  0  0  0  0  0  0  0  0
   10.6164  -14.2158   29.4108 N   0  0  0  0  0  0  0  0  0  0  0  0
    9.7173  -15.4808   27.6412 N   0  0  0  0  0  0  0  0  0  0  0  0
   10.3657  -15.4946   26.3334 C   0  0  0  0  0  0  0  0  0  0  0  0
    9.3684  -15.9334   25.2628 C   0  0  0  0  0  0  0  0  0  0  0  0
    9.7981  -17.1711   24.5453 C   0  0  0  0  0  0  0  0  0  0  0  0
   10.9682  -16.9119   23.6695 C   0  0  2  0  0  0  0  0  0  0  0  0
   10.5993  -17.1377   22.2450 N   0  0  0  0  0  0  0  0  0  0  0  0
   12.0498  -17.8535   23.9379 C   0  0  0  0  0  0  0  0  0  0  0  0
   13.1681  -17.4624   24.6441 O   0  0  0  0  0  0  0  0  0  0  0  0
   12.0111  -19.0320   23.5472 O   0  0  0  0  0  0  0  0  0  0  0  0
  2  1  1  1
  3  2  1  0
  4  5  2  0
  4  2  1  0
  6  4  1  0
  7  6  1  0
  7  8  1  6
  9  8  1  0
 10 14  1  0
 10  9  1  0
 11 10  2  0
 12 13  2  0
 12  7  1  0
 16 15  1  0
 17 16  2  0
 18 16  1  0
 19 18  1  0
 20 19  1  0
 21 20  1  0
 22 21  1  1
 22 23  1  0
 23 12  1  0
 24 22  1  0
 25 24  1  0
 26 24  2  0
M  END
$$$$
