AER.pdb
     RDKit          3D

 26 25  0  0  1  0  0  0  0  0999 V2000
    2.9672  -20.0347   22.5509 C   0  0  0  0  0  0  0  0  0  0  0  0
    4.4553  -20.2201   22.3581 C   0  0  2  0  0  0  0  0  0  0  0  0
    4.8456  -21.5464   22.7717 N   0  0  0  0  0  0  0  0  0  0  0  0
    5.2683  -19.2385   23.0770 C   0  0  0  0  0  0  0  0  0  0  0  0
    5.1719  -18.0154   22.8002 O   0  0  0  0  0  0  0  0  0  0  0  0
    6.1666  -19.6185   24.0810 N   0  0  0  0  0  0  0  0  0  0  0  0
    7.0198  -18.7598   24.8232 C   0  0  1  0  0  0  0  0  0  0  0  0
    7.5628  -19.3236   26.0948 C   0  0  0  0  0  0  0  0  0  0  0  0
    6.4786  -20.0196   26.9175 C   0  0  0  0  0  0  0  0  0  0  0  0
    7.0841  -20.5692   28.1581 C   0  0  0  0  0  0  0  0  0  0  0  0
    8.2830  -20.2749   28.4585 O   0  0  0  0  0  0  0  0  0  0  0  0
    8.1978  -18.2870   24.0214 C   0  0  0  0  0  0  0  0  0  0  0  0
    8.6652  -18.9964   23.0928 O   0  0  0  0  0  0  0  0  0  0  0  0
    6.4055  -21.3905   29.0091 O   0  0  0  0  0  0  0  0  0  0  0  0
    7.5802  -11.6837   19.0177 N   0  0  0  0  0  0  0  0  0  0  0  0
    8.2646  -12.8330   18.5065 C   0  0  0  0  0  0  0  0  0  0  0  0
    8.2521  -13.0398   17.2245 N   0  0  0  0  0  0  0  0  0  0  0  0
    8.9355  -13.7182   19.3723 N   0  0  0  0  0  0  0  0  0  0  0  0
    8.9321  -13.4974   20.8153 C   0  0  0  0  0  0  0  0  0  0  0  0
    9.7091  -14.6116   21.5140 C   0  0  0  0  0  0  0  0  0  0  0  0
    8.8664  -15.3929   22.4682 C   0  0  0  0  0  0  0  0  0  0  0  0
    9.6754  -16.3849   23.2197 C   0  0  2  0  0  0  0  0  0  0  0  0
    8.8366  -17.0481   24.2554 N   0  0  0  0  0  0  0  0  0  0  0  0
   10.7543  -15.7380   23.9587 C   0  0  0  0  0  0  0  0  0  0  0  0
   10.7647  -15.7373   25.3379 O   0  0  0  0  0  0  0  0  0  0  0  0
   11.6972  -15.1674   23.3857 O   0  0  0  0  0  0  0  0  0  0  0  0
  2  1  1  1
  3  2  1  0
  4  5  2  0
  4  2  1  0
  6  4  1  0
  7  6  1  0
  7  8  1  1
  9  8  1  0
 10 14  1  0
 10  9  1  0
 11 10  2  0
 12 13  2  0
 12  7  1  0
 16 15  1  0
 17 16  2  0
 18 16  1  0
 19 18  1  0
 20 19  1  0
 21 20  1  0
 22 21  1  1
 22 23  1  0
 23 12  1  0
 24 22  1  0
 25 24  1  0
 26 24  2  0
M  END
$$$$
