AER.pdb
     RDKit          3D

 26 25  0  0  1  0  0  0  0  0999 V2000
    7.7637  -20.8624   23.1559 C   0  0  0  0  0  0  0  0  0  0  0  0
    8.6415  -20.2074   22.1135 C   0  0  2  0  0  0  0  0  0  0  0  0
    9.9125  -20.8868   22.0404 N   0  0  0  0  0  0  0  0  0  0  0  0
    8.8759  -18.7829   22.3529 C   0  0  0  0  0  0  0  0  0  0  0  0
    9.7783  -18.4172   23.1490 O   0  0  0  0  0  0  0  0  0  0  0  0
    8.1178  -17.7936   21.7160 N   0  0  0  0  0  0  0  0  0  0  0  0
    8.2675  -16.3888   21.8588 C   0  0  1  0  0  0  0  0  0  0  0  0
    7.7545  -15.5620   20.7263 C   0  0  0  0  0  0  0  0  0  0  0  0
    8.0838  -14.0804   20.9084 C   0  0  0  0  0  0  0  0  0  0  0  0
    7.7897  -13.3557   19.6450 C   0  0  0  0  0  0  0  0  0  0  0  0
    8.7339  -12.7978   19.0037 O   0  0  0  0  0  0  0  0  0  0  0  0
    7.6166  -15.8655   23.1065 C   0  0  0  0  0  0  0  0  0  0  0  0
    6.4241  -16.1625   23.3782 O   0  0  0  0  0  0  0  0  0  0  0  0
    6.5323  -13.2561   19.1271 O   0  0  0  0  0  0  0  0  0  0  0  0
   10.8086  -16.8472   29.3858 N   0  0  0  0  0  0  0  0  0  0  0  0
   10.6022  -15.4543   29.6465 C   0  0  0  0  0  0  0  0  0  0  0  0
   10.6266  -15.0464   30.8791 N   0  0  0  0  0  0  0  0  0  0  0  0
   10.3781  -14.5480   28.5922 N   0  0  0  0  0  0  0  0  0  0  0  0
    9.2805  -13.5875   28.6537 C   0  0  0  0  0  0  0  0  0  0  0  0
    8.1979  -13.9695   27.6460 C   0  0  0  0  0  0  0  0  0  0  0  0
    8.7598  -14.4313   26.3414 C   0  0  0  0  0  0  0  0  0  0  0  0
    7.6885  -14.6617   25.3403 C   0  0  2  0  0  0  0  0  0  0  0  0
    8.2869  -15.0291   24.0276 N   0  0  0  0  0  0  0  0  0  0  0  0
    6.9296  -13.4418   25.0861 C   0  0  0  0  0  0  0  0  0  0  0  0
    5.8405  -13.1119   25.8654 O   0  0  0  0  0  0  0  0  0  0  0  0
    7.2271  -12.6584   24.1692 O   0  0  0  0  0  0  0  0  0  0  0  0
  2  1  1  1
  3  2  1  0
  4  5  2  0
  4  2  1  0
  6  4  1  0
  7  6  1  0
  7  8  1  6
  9  8  1  0
 10 14  1  0
 10  9  1  0
 11 10  2  0
 12 13  2  0
 12  7  1  0
 16 15  1  0
 17 16  2  0
 18 16  1  0
 19 18  1  0
 20 19  1  0
 21 20  1  0
 22 21  1  1
 22 23  1  0
 23 12  1  0
 24 22  1  0
 25 24  1  0
 26 24  2  0
M  END
$$$$
