AER.pdb
     RDKit          3D

 26 25  0  0  1  0  0  0  0  0999 V2000
    8.2390  -12.5399   19.5138 C   0  0  0  0  0  0  0  0  0  0  0  0
    8.3311  -13.9325   18.9320 C   0  0  2  0  0  0  0  0  0  0  0  0
    7.1142  -14.2545   18.2263 N   0  0  0  0  0  0  0  0  0  0  0  0
    8.5921  -14.9707   19.9298 C   0  0  0  0  0  0  0  0  0  0  0  0
    7.6384  -15.4895   20.5646 O   0  0  0  0  0  0  0  0  0  0  0  0
    9.8895  -15.4158   20.2087 N   0  0  0  0  0  0  0  0  0  0  0  0
   10.2548  -16.4456   21.1156 C   0  0  1  0  0  0  0  0  0  0  0  0
   11.6237  -17.0143   20.9361 C   0  0  0  0  0  0  0  0  0  0  0  0
   11.7168  -17.8904   19.6870 C   0  0  0  0  0  0  0  0  0  0  0  0
   13.1448  -18.1891   19.4052 C   0  0  0  0  0  0  0  0  0  0  0  0
   13.8364  -18.8256   20.2600 O   0  0  0  0  0  0  0  0  0  0  0  0
   10.1505  -16.0123   22.5493 C   0  0  0  0  0  0  0  0  0  0  0  0
   10.7379  -14.9728   22.9473 O   0  0  0  0  0  0  0  0  0  0  0  0
   13.7648  -17.8076   18.2523 O   0  0  0  0  0  0  0  0  0  0  0  0
    7.6270  -11.4591   27.1977 N   0  0  0  0  0  0  0  0  0  0  0  0
    6.2560  -11.8401   27.0372 C   0  0  0  0  0  0  0  0  0  0  0  0
    5.3350  -10.9812   27.3541 N   0  0  0  0  0  0  0  0  0  0  0  0
    5.9136  -13.1154   26.5475 N   0  0  0  0  0  0  0  0  0  0  0  0
    6.3265  -13.5383   25.2127 C   0  0  0  0  0  0  0  0  0  0  0  0
    7.7182  -14.1649   25.2726 C   0  0  0  0  0  0  0  0  0  0  0  0
    7.7222  -15.6032   24.8696 C   0  0  0  0  0  0  0  0  0  0  0  0
    9.0985  -16.1588   24.8549 C   0  0  2  0  0  0  0  0  0  0  0  0
    9.4050  -16.7275   23.5138 N   0  0  0  0  0  0  0  0  0  0  0  0
    9.2285  -17.2771   25.7829 C   0  0  0  0  0  0  0  0  0  0  0  0
    9.3584  -17.0589   27.1385 O   0  0  0  0  0  0  0  0  0  0  0  0
    9.2279  -18.4580   25.3976 O   0  0  0  0  0  0  0  0  0  0  0  0
  2  1  1  1
  3  2  1  0
  4  5  2  0
  4  2  1  0
  6  4  1  0
  7  6  1  0
  7  8  1  6
  9  8  1  0
 10 14  1  0
 10  9  1  0
 11 10  2  0
 12 13  2  0
 12  7  1  0
 16 15  1  0
 17 16  2  0
 18 16  1  0
 19 18  1  0
 20 19  1  0
 21 20  1  0
 22 21  1  6
 22 23  1  0
 23 12  1  0
 24 22  1  0
 25 24  1  0
 26 24  2  0
M  END
$$$$
