AER.pdb
     RDKit          3D

 26 25  0  0  1  0  0  0  0  0999 V2000
    8.6106  -12.1808   19.5678 C   0  0  0  0  0  0  0  0  0  0  0  0
    8.5418  -13.4975   18.8276 C   0  0  2  0  0  0  0  0  0  0  0  0
    7.2387  -13.6605   18.2295 N   0  0  0  0  0  0  0  0  0  0  0  0
    8.8290  -14.6604   19.6682 C   0  0  0  0  0  0  0  0  0  0  0  0
    7.9048  -15.2122   20.3187 O   0  0  0  0  0  0  0  0  0  0  0  0
   10.1196  -15.1911   19.7767 N   0  0  0  0  0  0  0  0  0  0  0  0
   10.5108  -16.3145   20.5521 C   0  0  1  0  0  0  0  0  0  0  0  0
   11.8132  -16.9412   20.1773 C   0  0  0  0  0  0  0  0  0  0  0  0
   11.7576  -17.5842   18.7916 C   0  0  0  0  0  0  0  0  0  0  0  0
   13.0820  -18.1790   18.4755 C   0  0  0  0  0  0  0  0  0  0  0  0
   13.3117  -18.6215   17.3069 O   0  0  0  0  0  0  0  0  0  0  0  0
   10.5868  -16.0021   22.0186 C   0  0  0  0  0  0  0  0  0  0  0  0
   11.2081  -14.9855   22.4243 O   0  0  0  0  0  0  0  0  0  0  0  0
   14.0852  -18.2766   19.3939 O   0  0  0  0  0  0  0  0  0  0  0  0
    5.7411  -13.1340   27.3999 N   0  0  0  0  0  0  0  0  0  0  0  0
    6.2317  -12.1796   26.4516 C   0  0  0  0  0  0  0  0  0  0  0  0
    6.2054  -10.9214   26.7717 N   0  0  0  0  0  0  0  0  0  0  0  0
    6.7307  -12.5946   25.2019 N   0  0  0  0  0  0  0  0  0  0  0  0
    6.7731  -14.0101   24.8474 C   0  0  0  0  0  0  0  0  0  0  0  0
    8.1823  -14.5586   25.0632 C   0  0  0  0  0  0  0  0  0  0  0  0
    8.3327  -15.9675   24.5905 C   0  0  0  0  0  0  0  0  0  0  0  0
    9.7601  -16.3255   24.3969 C   0  0  2  0  0  0  0  0  0  0  0  0
    9.9806  -16.8105   23.0069 N   0  0  0  0  0  0  0  0  0  0  0  0
   10.1484  -17.4388   25.2561 C   0  0  0  0  0  0  0  0  0  0  0  0
   10.2698  -17.2701   26.6196 O   0  0  0  0  0  0  0  0  0  0  0  0
   10.3836  -18.5713   24.8032 O   0  0  0  0  0  0  0  0  0  0  0  0
  2  1  1  1
  3  2  1  0
  4  5  2  0
  4  2  1  0
  6  4  1  0
  7  6  1  0
  7  8  1  6
  9  8  1  0
 10 14  1  0
 10  9  1  0
 11 10  2  0
 12 13  2  0
 12  7  1  0
 16 15  1  0
 17 16  2  0
 18 16  1  0
 19 18  1  0
 20 19  1  0
 21 20  1  0
 22 21  1  6
 22 23  1  0
 23 12  1  0
 24 22  1  0
 25 24  1  0
 26 24  2  0
M  END
$$$$
