NPI.pdb
     RDKit          3D

 24 24  0  0  1  0  0  0  0  0999 V2000
   23.6169  -20.1612  -15.5127 N   0  0  0  0  0  0  0  0  0  0  0  0
   23.1241  -20.2062  -14.1829 C   0  0  0  0  0  0  0  0  0  0  0  0
   22.0937  -19.5244  -13.9320 O   0  0  0  0  0  0  0  0  0  0  0  0
   23.7409  -20.9950  -13.0970 C   0  0  0  0  0  0  0  0  0  0  0  0
   24.9361  -21.7960  -13.6457 C   0  0  2  0  0  0  0  0  0  0  0  0
   24.3856  -22.9743  -14.2109 N   0  0  0  0  0  0  0  0  0  0  0  0
   25.9390  -21.9221  -12.6109 C   0  0  0  0  0  0  0  0  0  0  0  0
   25.8510  -22.9503  -11.8409 O   0  0  0  0  0  0  0  0  0  0  0  0
   27.0314  -21.0667  -12.3029 N   0  0  0  0  0  0  0  0  0  0  0  0
   27.3942  -19.8760  -13.0118 C   0  0  0  0  0  0  0  0  0  0  0  0
   28.9188  -19.9549  -12.9922 C   0  0  0  0  0  0  0  0  0  0  0  0
   29.2612  -20.7186  -11.7455 C   0  0  0  0  0  0  0  0  0  0  0  0
   27.9744  -21.1702  -11.2212 C   0  0  1  0  0  0  0  0  0  0  0  0
   27.5183  -20.5031   -9.9815 C   0  0  0  0  0  0  0  0  0  0  0  0
   26.4862  -19.7931  -10.0701 O   0  0  0  0  0  0  0  0  0  0  0  0
   30.4463  -20.1124   -5.0312 C   0  0  0  0  0  0  0  0  0  0  0  0
   29.5970  -20.7244   -6.0902 C   0  0  0  0  0  0  0  0  0  0  0  0
   28.2707  -20.0417   -6.3296 C   0  0  2  0  0  0  0  0  0  0  0  0
   27.5082  -20.1054   -5.0051 C   0  0  0  0  0  0  0  0  0  0  0  0
   27.4849  -20.6289   -7.4574 C   0  0  2  0  0  0  0  0  0  0  0  0
   28.1713  -20.6172   -8.7220 N   0  0  0  0  0  0  0  0  0  0  0  0
   26.1220  -20.0036   -7.5691 C   0  0  0  0  0  0  0  0  0  0  0  0
   24.9495  -20.6223   -7.2104 O   0  0  0  0  0  0  0  0  0  0  0  0
   26.0052  -18.8140   -8.0267 O   0  0  0  0  0  0  0  0  0  0  0  0
  1  2  1  0
  2  3  2  0
  4  2  1  0
  5  4  1  0
  5  6  1  1
  7  5  1  0
  7  8  2  0
  9  7  1  0
 10  9  1  0
 11 10  1  0
 12 11  1  0
 12 13  1  0
 13  9  1  0
 14 21  1  0
 13 14  1  1
 15 14  2  0
 17 16  1  0
 18 17  1  0
 18 19  1  1
 20 21  1  6
 20 18  1  0
 22 20  1  0
 23 22  1  0
 24 22  2  0
M  END
$$$$
