NPI.pdb
     RDKit          3D

 24 24  0  0  1  0  0  0  0  0999 V2000
   27.2468  -21.7935  -19.5801 N   0  0  0  0  0  0  0  0  0  0  0  0
   26.5130  -22.6207  -18.6911 C   0  0  0  0  0  0  0  0  0  0  0  0
   25.5106  -23.2208  -19.1651 O   0  0  0  0  0  0  0  0  0  0  0  0
   26.8543  -22.8141  -17.2670 C   0  0  0  0  0  0  0  0  0  0  0  0
   28.1285  -22.0217  -16.9218 C   0  0  2  0  0  0  0  0  0  0  0  0
   29.2065  -22.9260  -17.0987 N   0  0  0  0  0  0  0  0  0  0  0  0
   27.9577  -21.3842  -15.6346 C   0  0  0  0  0  0  0  0  0  0  0  0
   28.4767  -21.9813  -14.6188 O   0  0  0  0  0  0  0  0  0  0  0  0
   27.2888  -20.1735  -15.3081 N   0  0  0  0  0  0  0  0  0  0  0  0
   26.5325  -19.3593  -16.2120 C   0  0  0  0  0  0  0  0  0  0  0  0
   26.9058  -17.9528  -15.7500 C   0  0  0  0  0  0  0  0  0  0  0  0
   27.2223  -18.0856  -14.2882 C   0  0  0  0  0  0  0  0  0  0  0  0
   27.1848  -19.5230  -14.0290 C   0  0  1  0  0  0  0  0  0  0  0  0
   26.0390  -19.9985  -13.2221 C   0  0  0  0  0  0  0  0  0  0  0  0
   25.0744  -20.4983  -13.8521 O   0  0  0  0  0  0  0  0  0  0  0  0
   26.9837  -20.1975   -7.7825 C   0  0  0  0  0  0  0  0  0  0  0  0
   26.5356  -20.8461   -9.0458 C   0  0  0  0  0  0  0  0  0  0  0  0
   25.1657  -20.4350   -9.5325 C   0  0  2  0  0  0  0  0  0  0  0  0
   24.1582  -21.2636   -8.7336 C   0  0  0  0  0  0  0  0  0  0  0  0
   24.9770  -20.5926  -11.0069 C   0  0  2  0  0  0  0  0  0  0  0  0
   25.9699  -19.9207  -11.8027 N   0  0  0  0  0  0  0  0  0  0  0  0
   23.5859  -20.2120  -11.4323 C   0  0  0  0  0  0  0  0  0  0  0  0
   22.5504  -21.0996  -11.5934 O   0  0  0  0  0  0  0  0  0  0  0  0
   23.3088  -18.9855  -11.6714 O   0  0  0  0  0  0  0  0  0  0  0  0
  1  2  1  0
  2  3  2  0
  4  2  1  0
  5  4  1  0
  5  6  1  1
  7  5  1  0
  7  8  2  0
  9  7  1  0
 10  9  1  0
 11 10  1  0
 12 11  1  0
 12 13  1  0
 13  9  1  0
 14 21  1  0
 13 14  1  6
 15 14  2  0
 17 16  1  0
 18 17  1  0
 18 19  1  1
 20 21  1  6
 20 18  1  0
 22 20  1  0
 23 22  1  0
 24 22  2  0
M  END
$$$$
