NPI.pdb
     RDKit          3D

 24 24  0  0  1  0  0  0  0  0999 V2000
   22.8707  -19.8047  -14.9055 N   0  0  0  0  0  0  0  0  0  0  0  0
   22.4256  -20.1748  -13.6101 C   0  0  0  0  0  0  0  0  0  0  0  0
   21.3384  -19.6736  -13.2147 O   0  0  0  0  0  0  0  0  0  0  0  0
   23.1529  -21.0994  -12.7168 C   0  0  0  0  0  0  0  0  0  0  0  0
   24.4022  -21.6448  -13.4329 C   0  0  2  0  0  0  0  0  0  0  0  0
   23.9632  -22.7726  -14.1720 N   0  0  0  0  0  0  0  0  0  0  0  0
   25.4667  -21.8150  -12.4683 C   0  0  0  0  0  0  0  0  0  0  0  0
   25.4054  -22.8577  -11.7157 O   0  0  0  0  0  0  0  0  0  0  0  0
   26.5957  -20.9899  -12.2145 N   0  0  0  0  0  0  0  0  0  0  0  0
   26.8956  -19.7497  -12.8655 C   0  0  0  0  0  0  0  0  0  0  0  0
   28.4126  -19.8357  -13.0145 C   0  0  0  0  0  0  0  0  0  0  0  0
   28.8761  -20.6941  -11.8730 C   0  0  0  0  0  0  0  0  0  0  0  0
   27.6467  -21.1798  -11.2504 C   0  0  1  0  0  0  0  0  0  0  0  0
   27.3325  -20.6080   -9.9220 C   0  0  0  0  0  0  0  0  0  0  0  0
   26.2969  -19.9022   -9.8425 O   0  0  0  0  0  0  0  0  0  0  0  0
   29.1468  -20.8018   -3.8648 C   0  0  0  0  0  0  0  0  0  0  0  0
   28.1261  -20.7240   -4.9462 C   0  0  0  0  0  0  0  0  0  0  0  0
   28.6684  -20.8089   -6.3538 C   0  0  2  0  0  0  0  0  0  0  0  0
   29.7303  -19.7144   -6.4730 C   0  0  0  0  0  0  0  0  0  0  0  0
   27.6198  -20.6900   -7.4123 C   0  0  2  0  0  0  0  0  0  0  0  0
   28.1228  -20.8076   -8.7553 N   0  0  0  0  0  0  0  0  0  0  0  0
   26.7993  -19.4413   -7.2431 C   0  0  0  0  0  0  0  0  0  0  0  0
   25.6348  -19.3667   -6.5187 O   0  0  0  0  0  0  0  0  0  0  0  0
   27.1790  -18.3525   -7.7984 O   0  0  0  0  0  0  0  0  0  0  0  0
  1  2  1  0
  2  3  2  0
  4  2  1  0
  5  4  1  0
  5  6  1  1
  7  5  1  0
  7  8  2  0
  9  7  1  0
 10  9  1  0
 11 10  1  0
 12 11  1  0
 12 13  1  0
 13  9  1  0
 14 21  1  0
 13 14  1  1
 15 14  2  0
 17 16  1  0
 18 17  1  0
 18 19  1  6
 20 21  1  6
 20 18  1  0
 22 20  1  0
 23 22  1  0
 24 22  2  0
M  END
$$$$
