NPI.pdb
     RDKit          3D

 24 24  0  0  1  0  0  0  0  0999 V2000
   22.2077  -19.5342  -14.3258 N   0  0  0  0  0  0  0  0  0  0  0  0
   21.9141  -19.6698  -12.9443 C   0  0  0  0  0  0  0  0  0  0  0  0
   20.8957  -19.0635  -12.5145 O   0  0  0  0  0  0  0  0  0  0  0  0
   22.7216  -20.4689  -12.0003 C   0  0  0  0  0  0  0  0  0  0  0  0
   23.8638  -21.1738  -12.7548 C   0  0  2  0  0  0  0  0  0  0  0  0
   23.2528  -22.2197  -13.4924 N   0  0  0  0  0  0  0  0  0  0  0  0
   24.9182  -21.5033  -11.8210 C   0  0  0  0  0  0  0  0  0  0  0  0
   24.7289  -22.5345  -11.0736 O   0  0  0  0  0  0  0  0  0  0  0  0
   26.1593  -20.8496  -11.5929 N   0  0  0  0  0  0  0  0  0  0  0  0
   26.6154  -19.6579  -12.2439 C   0  0  0  0  0  0  0  0  0  0  0  0
   28.1003  -19.9570  -12.4350 C   0  0  0  0  0  0  0  0  0  0  0  0
   28.4668  -20.8842  -11.3123 C   0  0  0  0  0  0  0  0  0  0  0  0
   27.1976  -21.1968  -10.6592 C   0  0  1  0  0  0  0  0  0  0  0  0
   27.0029  -20.5999   -9.3191 C   0  0  0  0  0  0  0  0  0  0  0  0
   26.1234  -19.7090   -9.2209 O   0  0  0  0  0  0  0  0  0  0  0  0
   28.9458  -21.0211   -3.3116 C   0  0  0  0  0  0  0  0  0  0  0  0
   28.0648  -20.5018   -4.3940 C   0  0  0  0  0  0  0  0  0  0  0  0
   28.3729  -21.0165   -5.7806 C   0  0  2  0  0  0  0  0  0  0  0  0
   29.8552  -20.7300   -6.0268 C   0  0  0  0  0  0  0  0  0  0  0  0
   27.5044  -20.4321   -6.8476 C   0  0  2  0  0  0  0  0  0  0  0  0
   27.7426  -20.9700   -8.1608 N   0  0  0  0  0  0  0  0  0  0  0  0
   27.5660  -18.9297   -6.8526 C   0  0  0  0  0  0  0  0  0  0  0  0
   26.7705  -18.1151   -6.0847 O   0  0  0  0  0  0  0  0  0  0  0  0
   28.4042  -18.3315   -7.6127 O   0  0  0  0  0  0  0  0  0  0  0  0
  1  2  1  0
  2  3  2  0
  4  2  1  0
  5  4  1  0
  5  6  1  1
  7  5  1  0
  7  8  2  0
  9  7  1  0
 10  9  1  0
 11 10  1  0
 12 11  1  0
 12 13  1  0
 13  9  1  0
 14 21  1  0
 13 14  1  1
 15 14  2  0
 17 16  1  0
 18 17  1  0
 18 19  1  6
 20 21  1  6
 20 18  1  0
 22 20  1  0
 23 22  1  0
 24 22  2  0
M  END
$$$$
