NPI.pdb
     RDKit          3D

 24 24  0  0  1  0  0  0  0  0999 V2000
   15.2121  -13.0202  -13.0426 N   0  0  0  0  0  0  0  0  0  0  0  0
   15.3652  -12.0256  -12.0423 C   0  0  0  0  0  0  0  0  0  0  0  0
   14.8883  -12.2821  -10.9038 O   0  0  0  0  0  0  0  0  0  0  0  0
   16.0415  -10.7303  -12.2586 C   0  0  0  0  0  0  0  0  0  0  0  0
   15.0710   -9.5752  -11.9509 C   0  0  2  0  0  0  0  0  0  0  0  0
   14.0267   -9.6826  -12.9043 N   0  0  0  0  0  0  0  0  0  0  0  0
   15.8156   -8.3377  -11.8693 C   0  0  0  0  0  0  0  0  0  0  0  0
   16.1181   -7.7688  -12.9840 O   0  0  0  0  0  0  0  0  0  0  0  0
   16.2781   -7.6360  -10.7232 N   0  0  0  0  0  0  0  0  0  0  0  0
   16.2166   -8.1009   -9.3697 C   0  0  0  0  0  0  0  0  0  0  0  0
   15.8716   -6.8187   -8.6160 C   0  0  0  0  0  0  0  0  0  0  0  0
   16.4508   -5.7052   -9.4401 C   0  0  0  0  0  0  0  0  0  0  0  0
   16.9293   -6.3546  -10.6583 C   0  0  1  0  0  0  0  0  0  0  0  0
   18.3996   -6.4375  -10.8047 C   0  0  0  0  0  0  0  0  0  0  0  0
   19.0217   -7.0571   -9.9069 O   0  0  0  0  0  0  0  0  0  0  0  0
   20.6210   -7.6354  -15.6251 C   0  0  0  0  0  0  0  0  0  0  0  0
   20.2723   -6.7051  -14.5159 C   0  0  0  0  0  0  0  0  0  0  0  0
   20.8608   -7.0558  -13.1694 C   0  0  2  0  0  0  0  0  0  0  0  0
   20.3517   -8.4574  -12.8286 C   0  0  0  0  0  0  0  0  0  0  0  0
   20.5408   -6.0668  -12.0953 C   0  0  2  0  0  0  0  0  0  0  0  0
   19.1323   -5.8644  -11.8819 N   0  0  0  0  0  0  0  0  0  0  0  0
   21.2542   -4.7611  -12.3125 C   0  0  0  0  0  0  0  0  0  0  0  0
   20.6332   -3.5769  -12.6258 O   0  0  0  0  0  0  0  0  0  0  0  0
   22.5289   -4.7094  -12.2081 O   0  0  0  0  0  0  0  0  0  0  0  0
  1  2  1  0
  2  3  2  0
  4  2  1  0
  5  4  1  0
  5  6  1  6
  7  5  1  0
  7  8  2  0
  9  7  1  0
 10  9  1  0
 11 10  1  0
 12 11  1  0
 12 13  1  0
 13  9  1  0
 14 21  1  0
 13 14  1  1
 15 14  2  0
 17 16  1  0
 18 17  1  0
 18 19  1  1
 20 21  1  6
 20 18  1  0
 22 20  1  0
 23 22  1  0
 24 22  2  0
M  END
$$$$
