NPI.pdb
     RDKit          3D

 24 24  0  0  1  0  0  0  0  0999 V2000
   14.5991  -12.2270  -16.3491 N   0  0  0  0  0  0  0  0  0  0  0  0
   13.8470  -11.7274  -15.2546 C   0  0  0  0  0  0  0  0  0  0  0  0
   12.5918  -11.8107  -15.3383 O   0  0  0  0  0  0  0  0  0  0  0  0
   14.4442  -11.1271  -14.0443 C   0  0  0  0  0  0  0  0  0  0  0  0
   15.9788  -11.1137  -14.1692 C   0  0  2  0  0  0  0  0  0  0  0  0
   16.3882  -12.4667  -14.0550 N   0  0  0  0  0  0  0  0  0  0  0  0
   16.5224  -10.1409  -13.2469 C   0  0  0  0  0  0  0  0  0  0  0  0
   16.8539  -10.5712  -12.0796 O   0  0  0  0  0  0  0  0  0  0  0  0
   16.7512   -8.7505  -13.4320 N   0  0  0  0  0  0  0  0  0  0  0  0
   16.4465   -7.9967  -14.6114 C   0  0  0  0  0  0  0  0  0  0  0  0
   17.6421   -7.0509  -14.6934 C   0  0  0  0  0  0  0  0  0  0  0  0
   18.0972   -6.8616  -13.2751 C   0  0  0  0  0  0  0  0  0  0  0  0
   17.2887   -7.7977  -12.4974 C   0  0  1  0  0  0  0  0  0  0  0  0
   16.2590   -7.1858  -11.6283 C   0  0  0  0  0  0  0  0  0  0  0  0
   15.2777   -6.6549  -12.2045 O   0  0  0  0  0  0  0  0  0  0  0  0
   13.1943   -9.5773   -8.4566 C   0  0  0  0  0  0  0  0  0  0  0  0
   13.9176   -8.5740   -9.2859 C   0  0  0  0  0  0  0  0  0  0  0  0
   14.5455   -7.4339   -8.5189 C   0  0  2  0  0  0  0  0  0  0  0  0
   13.4004   -6.7114   -7.8071 C   0  0  0  0  0  0  0  0  0  0  0  0
   15.3508   -6.5057   -9.3699 C   0  0  2  0  0  0  0  0  0  0  0  0
   16.3187   -7.1643  -10.2064 N   0  0  0  0  0  0  0  0  0  0  0  0
   15.9860   -5.4143   -8.5534 C   0  0  0  0  0  0  0  0  0  0  0  0
   15.4660   -4.1523   -8.4013 O   0  0  0  0  0  0  0  0  0  0  0  0
   17.0890   -5.6381   -7.9439 O   0  0  0  0  0  0  0  0  0  0  0  0
  1  2  1  0
  2  3  2  0
  4  2  1  0
  5  4  1  0
  5  6  1  1
  7  5  1  0
  7  8  2  0
  9  7  1  0
 10  9  1  0
 11 10  1  0
 12 11  1  0
 12 13  1  0
 13  9  1  0
 14 21  1  0
 13 14  1  6
 15 14  2  0
 17 16  1  0
 18 17  1  0
 18 19  1  6
 20 21  1  1
 20 18  1  0
 22 20  1  0
 23 22  1  0
 24 22  2  0
M  END
$$$$
