NPI.pdb
     RDKit          3D

 24 24  0  0  1  0  0  0  0  0999 V2000
   18.5375  -15.2236  -20.5307 N   0  0  0  0  0  0  0  0  0  0  0  0
   19.7401  -14.9951  -19.8132 C   0  0  0  0  0  0  0  0  0  0  0  0
   20.7288  -15.7189  -20.1103 O   0  0  0  0  0  0  0  0  0  0  0  0
   19.8938  -13.9735  -18.7576 C   0  0  0  0  0  0  0  0  0  0  0  0
   20.5219  -14.6076  -17.5028 C   0  0  2  0  0  0  0  0  0  0  0  0
   19.6021  -15.5947  -17.0662 N   0  0  0  0  0  0  0  0  0  0  0  0
   20.9083  -13.5598  -16.5834 C   0  0  0  0  0  0  0  0  0  0  0  0
   20.0193  -13.1770  -15.7344 O   0  0  0  0  0  0  0  0  0  0  0  0
   22.1452  -12.8692  -16.4696 N   0  0  0  0  0  0  0  0  0  0  0  0
   23.2728  -13.0124  -17.3413 C   0  0  0  0  0  0  0  0  0  0  0  0
   24.4378  -12.9386  -16.3573 C   0  0  0  0  0  0  0  0  0  0  0  0
   23.9445  -12.0910  -15.2203 C   0  0  0  0  0  0  0  0  0  0  0  0
   22.5293  -11.8698  -15.5084 C   0  0  1  0  0  0  0  0  0  0  0  0
   22.1663  -10.4946  -15.9172 C   0  0  0  0  0  0  0  0  0  0  0  0
   22.4169  -10.1748  -17.1054 O   0  0  0  0  0  0  0  0  0  0  0  0
   17.5893   -7.1587  -16.9115 C   0  0  0  0  0  0  0  0  0  0  0  0
   18.9805   -7.0716  -16.3877 C   0  0  0  0  0  0  0  0  0  0  0  0
   19.5436   -8.3590  -15.8325 C   0  0  2  0  0  0  0  0  0  0  0  0
   18.6988   -8.7046  -14.6050 C   0  0  0  0  0  0  0  0  0  0  0  0
   21.0010   -8.2895  -15.5082 C   0  0  2  0  0  0  0  0  0  0  0  0
   21.5638   -9.5344  -15.0566 N   0  0  0  0  0  0  0  0  0  0  0  0
   21.3034   -7.1724  -14.5481 C   0  0  0  0  0  0  0  0  0  0  0  0
   21.6085   -7.3475  -13.2206 O   0  0  0  0  0  0  0  0  0  0  0  0
   21.2838   -5.9602  -14.9585 O   0  0  0  0  0  0  0  0  0  0  0  0
  1  2  1  0
  2  3  2  0
  4  2  1  0
  5  4  1  0
  5  6  1  1
  7  5  1  0
  7  8  2  0
  9  7  1  0
 10  9  1  0
 11 10  1  0
 12 11  1  0
 12 13  1  0
 13  9  1  0
 14 21  1  0
 13 14  1  6
 15 14  2  0
 17 16  1  0
 18 17  1  0
 18 19  1  1
 20 21  1  1
 20 18  1  0
 22 20  1  0
 23 22  1  0
 24 22  2  0
M  END
$$$$
