LFD.pdb
     RDKit          3D

 28 28  0  0  1  0  0  0  0  0999 V2000
   23.4049  -19.6362  -20.7441 C   0  0  0  0  0  0  0  0  0  0  0  0
   24.5989  -19.9250  -19.8887 C   0  0  2  0  0  0  0  0  0  0  0  0
   25.6442  -20.7550  -20.6273 C   0  0  0  0  0  0  0  0  0  0  0  0
   24.2717  -20.6239  -18.6016 C   0  0  0  0  0  0  0  0  0  0  0  0
   23.1490  -19.9353  -17.8834 C   0  0  2  0  0  0  0  0  0  0  0  0
   23.3268  -18.5062  -17.8089 N   0  0  0  0  0  0  0  0  0  0  0  0
   23.0389  -20.5350  -16.5272 C   0  0  0  0  0  0  0  0  0  0  0  0
   23.2492  -21.7647  -16.3866 O   0  0  0  0  0  0  0  0  0  0  0  0
   22.7054  -19.7436  -15.4173 N   0  0  0  0  0  0  0  0  0  0  0  0
   22.6249  -20.3649  -14.0929 C   0  0  1  0  0  0  0  0  0  0  0  0
   23.2694  -19.3976  -13.1230 C   0  0  0  0  0  0  0  0  0  0  0  0
   23.2271  -19.8876  -11.7310 C   0  0  0  0  0  0  0  0  0  0  0  0
   24.2553  -20.6417  -11.2278 C   0  0  0  0  0  0  0  0  0  0  0  0
   24.2633  -21.1138   -9.9388 C   0  0  0  0  0  0  0  0  0  0  0  0
   23.2012  -20.8261   -9.1047 C   0  0  0  0  0  0  0  0  0  0  0  0
   22.1729  -20.0712   -9.6101 C   0  0  0  0  0  0  0  0  0  0  0  0
   22.1766  -19.6045  -10.9020 C   0  0  0  0  0  0  0  0  0  0  0  0
   21.2086  -20.6368  -13.8123 C   0  0  0  0  0  0  0  0  0  0  0  0
   20.3466  -19.7754  -14.0953 O   0  0  0  0  0  0  0  0  0  0  0  0
   20.8175  -21.8586  -13.2286 N   0  0  0  0  0  0  0  0  0  0  0  0
   19.3706  -22.0557  -12.9609 C   0  0  1  0  0  0  0  0  0  0  0  0
   19.0222  -23.4976  -13.2687 C   0  0  0  0  0  0  0  0  0  0  0  0
   18.6335  -23.6332  -14.6784 C   0  0  0  0  0  0  0  0  0  0  0  0
   18.5618  -22.6097  -15.4337 O   0  0  0  0  0  0  0  0  0  0  0  0
   19.1083  -21.7072  -11.5415 C   0  0  0  0  0  0  0  0  0  0  0  0
   19.7761  -22.3025  -10.6463 O   0  0  0  0  0  0  0  0  0  0  0  0
   18.3238  -24.8560  -15.2620 O   0  0  0  0  0  0  0  0  0  0  0  0
   18.1819  -20.7748  -11.1454 O   0  0  0  0  0  0  0  0  0  0  0  0
  2  3  1  6
  2  1  1  0
  4  2  1  0
  5  7  1  0
  5  4  1  0
  5  6  1  1
  7  8  2  0
  9 10  1  0
  9  7  1  0
 10 11  1  1
 11 12  1  0
 12 17  2  0
 13 12  1  0
 13 14  2  0
 14 15  1  0
 15 16  2  0
 17 16  1  0
 18 10  1  0
 19 18  2  0
 20 18  1  0
 21 22  1  1
 21 20  1  0
 22 23  1  0
 23 24  2  0
 23 27  1  0
 25 28  1  0
 25 21  1  0
 26 25  2  0
M  END
$$$$
