LFD.pdb
     RDKit          3D

 28 28  0  0  1  0  0  0  0  0999 V2000
   29.0755  -19.5904  -16.3506 C   0  0  0  0  0  0  0  0  0  0  0  0
   29.1929  -20.6299  -15.2799 C   0  0  2  0  0  0  0  0  0  0  0  0
   30.2338  -21.6906  -15.6243 C   0  0  0  0  0  0  0  0  0  0  0  0
   27.9023  -21.3274  -14.9637 C   0  0  0  0  0  0  0  0  0  0  0  0
   26.8419  -20.3452  -14.5619 C   0  0  2  0  0  0  0  0  0  0  0  0
   27.3775  -19.0459  -14.2388 N   0  0  0  0  0  0  0  0  0  0  0  0
   26.0983  -20.9219  -13.4106 C   0  0  0  0  0  0  0  0  0  0  0  0
   25.8138  -22.1446  -13.4207 O   0  0  0  0  0  0  0  0  0  0  0  0
   25.7176  -20.1166  -12.3261 N   0  0  0  0  0  0  0  0  0  0  0  0
   24.7237  -20.6198  -11.3746 C   0  0  1  0  0  0  0  0  0  0  0  0
   24.9225  -19.8415  -10.0915 C   0  0  0  0  0  0  0  0  0  0  0  0
   26.1829  -20.1965   -9.4098 C   0  0  0  0  0  0  0  0  0  0  0  0
   26.4130  -19.7940   -8.1198 C   0  0  0  0  0  0  0  0  0  0  0  0
   27.5662  -20.1051   -7.4431 C   0  0  0  0  0  0  0  0  0  0  0  0
   28.5416  -20.8519   -8.0734 C   0  0  0  0  0  0  0  0  0  0  0  0
   28.3097  -21.2540   -9.3646 C   0  0  0  0  0  0  0  0  0  0  0  0
   27.1514  -20.9362  -10.0310 C   0  0  0  0  0  0  0  0  0  0  0  0
   23.3966  -20.4439  -11.9800 C   0  0  0  0  0  0  0  0  0  0  0  0
   23.2486  -19.6289  -12.9175 O   0  0  0  0  0  0  0  0  0  0  0  0
   22.2936  -21.1861  -11.5119 N   0  0  0  0  0  0  0  0  0  0  0  0
   21.0742  -21.2054  -12.3586 C   0  0  1  0  0  0  0  0  0  0  0  0
   21.4270  -21.8448  -13.6860 C   0  0  0  0  0  0  0  0  0  0  0  0
   20.2125  -22.0517  -14.4852 C   0  0  0  0  0  0  0  0  0  0  0  0
   19.2912  -21.1720  -14.5065 O   0  0  0  0  0  0  0  0  0  0  0  0
   20.0186  -21.9602  -11.6368 C   0  0  0  0  0  0  0  0  0  0  0  0
   18.8457  -21.4848  -11.6246 O   0  0  0  0  0  0  0  0  0  0  0  0
   19.9956  -23.1936  -15.2473 O   0  0  0  0  0  0  0  0  0  0  0  0
   20.2433  -23.1454  -10.9817 O   0  0  0  0  0  0  0  0  0  0  0  0
  2  3  1  6
  2  1  1  0
  4  2  1  0
  5  7  1  0
  5  4  1  0
  5  6  1  1
  7  8  2  0
  9 10  1  0
  9  7  1  0
 10 11  1  1
 11 12  1  0
 12 17  2  0
 13 12  1  0
 13 14  2  0
 14 15  1  0
 15 16  2  0
 17 16  1  0
 18 10  1  0
 19 18  2  0
 20 18  1  0
 21 22  1  6
 21 20  1  0
 22 23  1  0
 23 24  2  0
 23 27  1  0
 25 28  1  0
 25 21  1  0
 26 25  2  0
M  END
$$$$
