LFD.pdb
     RDKit          3D

 28 28  0  0  1  0  0  0  0  0999 V2000
   26.0686  -19.8385  -17.9501 C   0  0  0  0  0  0  0  0  0  0  0  0
   24.9046  -20.7205  -17.6216 C   0  0  2  0  0  0  0  0  0  0  0  0
   23.5935  -20.1643  -18.1682 C   0  0  0  0  0  0  0  0  0  0  0  0
   24.7280  -20.9748  -16.1532 C   0  0  0  0  0  0  0  0  0  0  0  0
   25.9904  -21.5066  -15.5415 C   0  0  2  0  0  0  0  0  0  0  0  0
   26.4088  -22.7580  -16.1231 N   0  0  0  0  0  0  0  0  0  0  0  0
   25.7664  -21.6420  -14.0778 C   0  0  0  0  0  0  0  0  0  0  0  0
   25.0408  -22.5760  -13.6569 O   0  0  0  0  0  0  0  0  0  0  0  0
   26.3548  -20.7424  -13.1754 N   0  0  0  0  0  0  0  0  0  0  0  0
   26.0562  -20.8636  -11.7462 C   0  0  1  0  0  0  0  0  0  0  0  0
   27.1084  -20.0565  -11.0160 C   0  0  0  0  0  0  0  0  0  0  0  0
   26.9062  -20.0641   -9.5536 C   0  0  0  0  0  0  0  0  0  0  0  0
   26.4259  -18.9518   -8.9124 C   0  0  0  0  0  0  0  0  0  0  0  0
   26.2157  -18.9138   -7.5563 C   0  0  0  0  0  0  0  0  0  0  0  0
   26.4945  -20.0316   -6.7954 C   0  0  0  0  0  0  0  0  0  0  0  0
   26.9752  -21.1441   -7.4389 C   0  0  0  0  0  0  0  0  0  0  0  0
   27.1812  -21.1697   -8.7967 C   0  0  0  0  0  0  0  0  0  0  0  0
   24.6833  -20.3849  -11.5346 C   0  0  0  0  0  0  0  0  0  0  0  0
   24.2721  -19.3882  -12.1691 O   0  0  0  0  0  0  0  0  0  0  0  0
   23.8304  -21.0405  -10.6240 N   0  0  0  0  0  0  0  0  0  0  0  0
   22.4028  -20.6331  -10.6103 C   0  0  1  0  0  0  0  0  0  0  0  0
   21.8086  -20.9367  -11.9704 C   0  0  0  0  0  0  0  0  0  0  0  0
   20.3663  -20.6602  -11.9643 C   0  0  0  0  0  0  0  0  0  0  0  0
   19.9121  -19.5912  -11.4406 O   0  0  0  0  0  0  0  0  0  0  0  0
   21.7176  -21.3751   -9.5218 C   0  0  0  0  0  0  0  0  0  0  0  0
   20.5727  -21.8604   -9.7574 O   0  0  0  0  0  0  0  0  0  0  0  0
   19.4288  -21.5273  -12.5129 O   0  0  0  0  0  0  0  0  0  0  0  0
   22.2565  -21.5648   -8.2736 O   0  0  0  0  0  0  0  0  0  0  0  0
  2  3  1  1
  2  1  1  0
  4  2  1  0
  5  7  1  0
  5  4  1  0
  5  6  1  6
  7  8  2  0
  9 10  1  0
  9  7  1  0
 10 11  1  1
 11 12  1  0
 12 17  2  0
 13 12  1  0
 13 14  2  0
 14 15  1  0
 15 16  2  0
 17 16  1  0
 18 10  1  0
 19 18  2  0
 20 18  1  0
 21 22  1  6
 21 20  1  0
 22 23  1  0
 23 24  2  0
 23 27  1  0
 25 28  1  0
 25 21  1  0
 26 25  2  0
M  END
$$$$
