LFD.pdb
     RDKit          3D

 28 28  0  0  1  0  0  0  0  0999 V2000
   28.2388  -21.1837  -16.8531 C   0  0  0  0  0  0  0  0  0  0  0  0
   28.6814  -21.7046  -15.5214 C   0  0  2  0  0  0  0  0  0  0  0  0
   29.5794  -22.9303  -15.6565 C   0  0  0  0  0  0  0  0  0  0  0  0
   27.5515  -22.0529  -14.5972 C   0  0  0  0  0  0  0  0  0  0  0  0
   26.6186  -20.8911  -14.4228 C   0  0  2  0  0  0  0  0  0  0  0  0
   27.3066  -19.6663  -14.0971 N   0  0  0  0  0  0  0  0  0  0  0  0
   25.6333  -21.2511  -13.3690 C   0  0  0  0  0  0  0  0  0  0  0  0
   25.2382  -22.4398  -13.2858 O   0  0  0  0  0  0  0  0  0  0  0  0
   25.1487  -20.2811  -12.4780 N   0  0  0  0  0  0  0  0  0  0  0  0
   24.1159  -20.6525  -11.5075 C   0  0  1  0  0  0  0  0  0  0  0  0
   24.2391  -19.6804  -10.3536 C   0  0  0  0  0  0  0  0  0  0  0  0
   25.3323  -20.0422   -9.4297 C   0  0  0  0  0  0  0  0  0  0  0  0
   26.6002  -19.5614   -9.6307 C   0  0  0  0  0  0  0  0  0  0  0  0
   27.6466  -19.8650   -8.7956 C   0  0  0  0  0  0  0  0  0  0  0  0
   27.4289  -20.6854   -7.7066 C   0  0  0  0  0  0  0  0  0  0  0  0
   26.1593  -21.1657   -7.5069 C   0  0  0  0  0  0  0  0  0  0  0  0
   25.1204  -20.8546   -8.3500 C   0  0  0  0  0  0  0  0  0  0  0  0
   22.8182  -20.6020  -12.1947 C   0  0  0  0  0  0  0  0  0  0  0  0
   22.5496  -19.6310  -12.9363 O   0  0  0  0  0  0  0  0  0  0  0  0
   21.8782  -21.6380  -12.0236 N   0  0  0  0  0  0  0  0  0  0  0  0
   20.5979  -21.5286  -12.7672 C   0  0  1  0  0  0  0  0  0  0  0  0
   20.4142  -22.7900  -13.5860 C   0  0  0  0  0  0  0  0  0  0  0  0
   20.2616  -22.4517  -15.0069 C   0  0  0  0  0  0  0  0  0  0  0  0
   20.2476  -21.2358  -15.3872 O   0  0  0  0  0  0  0  0  0  0  0  0
   19.5031  -21.3361  -11.7827 C   0  0  0  0  0  0  0  0  0  0  0  0
   18.3269  -21.1725  -12.2205 O   0  0  0  0  0  0  0  0  0  0  0  0
   20.1230  -23.4127  -16.0012 O   0  0  0  0  0  0  0  0  0  0  0  0
   19.6949  -21.3256  -10.4234 O   0  0  0  0  0  0  0  0  0  0  0  0
  2  3  1  6
  2  1  1  0
  4  2  1  0
  5  7  1  0
  5  4  1  0
  5  6  1  1
  7  8  2  0
  9 10  1  0
  9  7  1  0
 10 11  1  1
 11 12  1  0
 12 17  2  0
 13 12  1  0
 13 14  2  0
 14 15  1  0
 15 16  2  0
 17 16  1  0
 18 10  1  0
 19 18  2  0
 20 18  1  0
 21 22  1  1
 21 20  1  0
 22 23  1  0
 23 24  2  0
 23 27  1  0
 25 28  1  0
 25 21  1  0
 26 25  2  0
M  END
$$$$
