CNP.pdb
     RDKit          3D

 22 22  0  0  1  0  0  0  0  0999 V2000
   18.2794  -12.1169  -17.8956 N   0  0  0  0  0  0  0  0  0  0  0  0
   18.4438  -11.5648  -16.5863 C   0  0  1  0  0  0  0  0  0  0  0  0
   19.5667  -12.2751  -15.8748 C   0  0  0  0  0  0  0  0  0  0  0  0
   18.9523  -13.8662  -15.2745 S   0  0  0  0  0  0  0  0  0  0  0  0
   18.7435  -10.0895  -16.6593 C   0  0  0  0  0  0  0  0  0  0  0  0
   19.4237   -9.6154  -17.6050 O   0  0  0  0  0  0  0  0  0  0  0  0
   14.9563   -7.5528  -15.1946 N   0  0  0  0  0  0  0  0  0  0  0  0
   16.1850   -7.0348  -15.6870 C   0  0  0  0  0  0  0  0  0  0  0  0
   16.2490   -6.4761  -16.7989 O   0  0  0  0  0  0  0  0  0  0  0  0
   17.3840   -7.1691  -14.8602 C   0  0  0  0  0  0  0  0  0  0  0  0
   18.5270   -7.7552  -15.6849 C   0  0  2  0  0  0  0  0  0  0  0  0
   18.2719   -9.1924  -15.6709 N   0  0  0  0  0  0  0  0  0  0  0  0
   19.7517   -7.5238  -14.8659 C   0  0  0  0  0  0  0  0  0  0  0  0
   19.9423   -8.3616  -13.9139 O   0  0  0  0  0  0  0  0  0  0  0  0
   20.6615   -6.4771  -15.0849 N   0  0  0  0  0  0  0  0  0  0  0  0
   20.4896   -5.4489  -16.1175 C   0  0  0  0  0  0  0  0  0  0  0  0
   21.8046   -4.6995  -16.1773 C   0  0  0  0  0  0  0  0  0  0  0  0
   22.7467   -5.7110  -15.5605 C   0  0  0  0  0  0  0  0  0  0  0  0
   21.8784   -6.1754  -14.3763 C   0  0  1  0  0  0  0  0  0  0  0  0
   21.7233   -4.9530  -13.5304 C   0  0  0  0  0  0  0  0  0  0  0  0
   20.5564   -4.2138  -13.6116 O   0  0  0  0  0  0  0  0  0  0  0  0
   22.6190   -4.5847  -12.7549 O   0  0  0  0  0  0  0  0  0  0  0  0
  2  1  1  6
  2  3  1  0
  2  5  1  0
  3  4  1  0
  5 12  1  0
  5  6  2  0
  8  7  1  0
  8 10  1  0
  9  8  2  0
 11 10  1  1
 11 13  1  0
 12 11  1  0
 13 14  2  0
 13 15  1  0
 15 16  1  0
 16 17  1  0
 18 17  1  0
 19 15  1  0
 19 18  1  0
 19 20  1  1
 21 20  1  0
 22 20  2  0
M  END
$$$$
