CNP.pdb
     RDKit          3D

 22 22  0  0  1  0  0  0  0  0999 V2000
   25.5266  -11.6434  -18.1011 N   0  0  0  0  0  0  0  0  0  0  0  0
   25.3497  -11.0242  -16.8239 C   0  0  1  0  0  0  0  0  0  0  0  0
   26.6323  -10.3524  -16.4050 C   0  0  0  0  0  0  0  0  0  0  0  0
   27.7595  -11.6127  -15.7645 S   0  0  0  0  0  0  0  0  0  0  0  0
   24.2373  -10.0084  -16.8690 C   0  0  0  0  0  0  0  0  0  0  0  0
   24.1766   -9.1587  -17.7943 O   0  0  0  0  0  0  0  0  0  0  0  0
   20.3166  -10.5807  -17.0628 N   0  0  0  0  0  0  0  0  0  0  0  0
   20.1875  -10.5002  -15.6495 C   0  0  0  0  0  0  0  0  0  0  0  0
   19.3102  -11.1464  -15.0450 O   0  0  0  0  0  0  0  0  0  0  0  0
   21.1093   -9.6390  -14.9093 C   0  0  0  0  0  0  0  0  0  0  0  0
   22.1273   -9.0182  -15.8625 C   0  0  2  0  0  0  0  0  0  0  0  0
   23.2283   -9.9765  -15.8764 N   0  0  0  0  0  0  0  0  0  0  0  0
   22.6213   -7.7996  -15.1589 C   0  0  0  0  0  0  0  0  0  0  0  0
   23.4789   -8.0117  -14.2293 O   0  0  0  0  0  0  0  0  0  0  0  0
   22.2068   -6.4922  -15.4592 N   0  0  0  0  0  0  0  0  0  0  0  0
   21.0763   -6.1764  -16.3396 C   0  0  0  0  0  0  0  0  0  0  0  0
   21.1533   -4.6848  -16.5921 C   0  0  0  0  0  0  0  0  0  0  0  0
   22.6059   -4.4075  -16.2692 C   0  0  0  0  0  0  0  0  0  0  0  0
   22.7425   -5.2432  -14.9827 C   0  0  1  0  0  0  0  0  0  0  0  0
   21.8099   -4.5879  -14.0159 C   0  0  0  0  0  0  0  0  0  0  0  0
   20.5470   -5.1196  -13.8231 O   0  0  0  0  0  0  0  0  0  0  0  0
   22.1427   -3.5756  -13.3806 O   0  0  0  0  0  0  0  0  0  0  0  0
  2  1  1  6
  2  3  1  0
  2  5  1  0
  3  4  1  0
  5 12  1  0
  5  6  2  0
  8  7  1  0
  8 10  1  0
  9  8  2  0
 11 10  1  1
 11 13  1  0
 12 11  1  0
 13 14  2  0
 13 15  1  0
 15 16  1  0
 16 17  1  0
 18 17  1  0
 19 15  1  0
 19 18  1  0
 19 20  1  1
 21 20  1  0
 22 20  2  0
M  END
$$$$
