CNP.pdb
     RDKit          3D

 22 22  0  0  1  0  0  0  0  0999 V2000
   14.6645  -12.6072  -12.8914 N   0  0  0  0  0  0  0  0  0  0  0  0
   15.6282  -11.5525  -12.9630 C   0  0  1  0  0  0  0  0  0  0  0  0
   15.8932  -11.2062  -14.4058 C   0  0  0  0  0  0  0  0  0  0  0  0
   16.9874  -12.4630  -15.1077 S   0  0  0  0  0  0  0  0  0  0  0  0
   15.1409  -10.3291  -12.2299 C   0  0  0  0  0  0  0  0  0  0  0  0
   13.9719   -9.8979  -12.4002 O   0  0  0  0  0  0  0  0  0  0  0  0
   14.9938   -6.9294   -8.0940 N   0  0  0  0  0  0  0  0  0  0  0  0
   16.2687   -7.0821   -8.7038 C   0  0  0  0  0  0  0  0  0  0  0  0
   17.1448   -6.2029   -8.5937 O   0  0  0  0  0  0  0  0  0  0  0  0
   16.5384   -8.2988   -9.4694 C   0  0  0  0  0  0  0  0  0  0  0  0
   15.6084   -8.3754  -10.6774 C   0  0  2  0  0  0  0  0  0  0  0  0
   15.9786   -9.6279  -11.3294 N   0  0  0  0  0  0  0  0  0  0  0  0
   16.0514   -7.2708  -11.5761 C   0  0  0  0  0  0  0  0  0  0  0  0
   17.1846   -7.4499  -12.1492 O   0  0  0  0  0  0  0  0  0  0  0  0
   15.3133   -6.0995  -11.8101 N   0  0  0  0  0  0  0  0  0  0  0  0
   14.0548   -5.7779  -11.1278 C   0  0  0  0  0  0  0  0  0  0  0  0
   13.4796   -4.5848  -11.8627 C   0  0  0  0  0  0  0  0  0  0  0  0
   14.1924   -4.6890  -13.1939 C   0  0  0  0  0  0  0  0  0  0  0  0
   15.6149   -5.0038  -12.6947 C   0  0  1  0  0  0  0  0  0  0  0  0
   16.0158   -3.7845  -11.9289 C   0  0  0  0  0  0  0  0  0  0  0  0
   15.9934   -3.8128  -10.5456 O   0  0  0  0  0  0  0  0  0  0  0  0
   16.3692   -2.7448  -12.5063 O   0  0  0  0  0  0  0  0  0  0  0  0
  2  1  1  6
  2  3  1  0
  2  5  1  0
  3  4  1  0
  5 12  1  0
  5  6  2  0
  8  7  1  0
  8 10  1  0
  9  8  2  0
 11 10  1  1
 11 13  1  0
 12 11  1  0
 13 14  2  0
 13 15  1  0
 15 16  1  0
 16 17  1  0
 18 17  1  0
 19 15  1  0
 19 18  1  0
 19 20  1  1
 21 20  1  0
 22 20  2  0
M  END
$$$$
