CNP.pdb
     RDKit          3D

 22 22  0  0  1  0  0  0  0  0999 V2000
   25.8932  -20.5761  -16.3934 N   0  0  0  0  0  0  0  0  0  0  0  0
   26.5546  -20.9937  -15.1958 C   0  0  1  0  0  0  0  0  0  0  0  0
   28.0199  -20.6512  -15.2811 C   0  0  0  0  0  0  0  0  0  0  0  0
   28.8922  -22.0406  -16.0414 S   0  0  0  0  0  0  0  0  0  0  0  0
   25.9484  -20.3276  -13.9873 C   0  0  0  0  0  0  0  0  0  0  0  0
   25.4289  -19.1854  -14.0729 O   0  0  0  0  0  0  0  0  0  0  0  0
   22.1335  -19.8114  -10.4195 N   0  0  0  0  0  0  0  0  0  0  0  0
   23.1490  -20.8039  -10.3553 C   0  0  0  0  0  0  0  0  0  0  0  0
   23.4046  -21.3959   -9.2890 O   0  0  0  0  0  0  0  0  0  0  0  0
   23.8961  -21.1222  -11.5717 C   0  0  0  0  0  0  0  0  0  0  0  0
   25.2579  -20.4329  -11.5465 C   0  0  2  0  0  0  0  0  0  0  0  0
   25.9434  -20.9619  -12.7216 N   0  0  0  0  0  0  0  0  0  0  0  0
   25.9515  -20.9926  -10.3508 C   0  0  0  0  0  0  0  0  0  0  0  0
   26.2450  -22.2391  -10.4193 O   0  0  0  0  0  0  0  0  0  0  0  0
   26.2817  -20.2461   -9.2084 N   0  0  0  0  0  0  0  0  0  0  0  0
   25.8204  -18.8740   -8.9686 C   0  0  0  0  0  0  0  0  0  0  0  0
   26.6150  -18.3727   -7.7804 C   0  0  0  0  0  0  0  0  0  0  0  0
   27.8046  -19.3082   -7.8076 C   0  0  0  0  0  0  0  0  0  0  0  0
   27.0740  -20.6381   -8.0715 C   0  0  1  0  0  0  0  0  0  0  0  0
   26.2212  -20.8375   -6.8604 C   0  0  0  0  0  0  0  0  0  0  0  0
   24.8453  -20.7448   -6.9751 O   0  0  0  0  0  0  0  0  0  0  0  0
   26.7196  -21.0850   -5.7515 O   0  0  0  0  0  0  0  0  0  0  0  0
  2  1  1  6
  2  3  1  0
  2  5  1  0
  3  4  1  0
  5 12  1  0
  5  6  2  0
  8  7  1  0
  8 10  1  0
  9  8  2  0
 11 10  1  6
 11 13  1  0
 12 11  1  0
 13 14  2  0
 13 15  1  0
 15 16  1  0
 16 17  1  0
 18 17  1  0
 19 15  1  0
 19 18  1  0
 19 20  1  1
 21 20  1  0
 22 20  2  0
M  END
$$$$
