CNP.pdb
     RDKit          3D

 22 22  0  0  1  0  0  0  0  0999 V2000
   23.0941  -13.2032  -17.2446 N   0  0  0  0  0  0  0  0  0  0  0  0
   23.1535  -12.3986  -16.0634 C   0  0  1  0  0  0  0  0  0  0  0  0
   24.5920  -12.1914  -15.6639 C   0  0  0  0  0  0  0  0  0  0  0  0
   25.2526  -13.7614  -15.0571 S   0  0  0  0  0  0  0  0  0  0  0  0
   22.4933  -11.0628  -16.2898 C   0  0  0  0  0  0  0  0  0  0  0  0
   22.8176  -10.3402  -17.2667 O   0  0  0  0  0  0  0  0  0  0  0  0
   17.6869   -9.6125  -16.4311 N   0  0  0  0  0  0  0  0  0  0  0  0
   18.5679  -10.2615  -15.5238 C   0  0  0  0  0  0  0  0  0  0  0  0
   18.5309  -11.4964  -15.3620 O   0  0  0  0  0  0  0  0  0  0  0  0
   19.5274   -9.4493  -14.7763 C   0  0  0  0  0  0  0  0  0  0  0  0
   20.8184   -9.2935  -15.5760 C   0  0  2  0  0  0  0  0  0  0  0  0
   21.4910  -10.5790  -15.4149 N   0  0  0  0  0  0  0  0  0  0  0  0
   21.6199   -8.2867  -14.8223 C   0  0  0  0  0  0  0  0  0  0  0  0
   22.2824   -8.7468  -13.8253 O   0  0  0  0  0  0  0  0  0  0  0  0
   21.6771   -6.9215  -15.1451 N   0  0  0  0  0  0  0  0  0  0  0  0
   20.8616   -6.2954  -16.1919 C   0  0  0  0  0  0  0  0  0  0  0  0
   21.4276   -4.9029  -16.3790 C   0  0  0  0  0  0  0  0  0  0  0  0
   22.8191   -5.0728  -15.8081 C   0  0  0  0  0  0  0  0  0  0  0  0
   22.4763   -5.8845  -14.5449 C   0  0  1  0  0  0  0  0  0  0  0  0
   21.6354   -4.9579  -13.7275 C   0  0  0  0  0  0  0  0  0  0  0  0
   22.2495   -4.0274  -12.9079 O   0  0  0  0  0  0  0  0  0  0  0  0
   20.3962   -5.0039  -13.7668 O   0  0  0  0  0  0  0  0  0  0  0  0
  2  1  1  6
  2  3  1  0
  2  5  1  0
  3  4  1  0
  5 12  1  0
  5  6  2  0
  8  7  1  0
  8 10  1  0
  9  8  2  0
 11 10  1  1
 11 13  1  0
 12 11  1  0
 13 14  2  0
 13 15  1  0
 15 16  1  0
 16 17  1  0
 18 17  1  0
 19 15  1  0
 19 18  1  0
 19 20  1  1
 21 20  1  0
 22 20  2  0
M  END
$$$$
