CNP.pdb
     RDKit          3D

 22 22  0  0  1  0  0  0  0  0999 V2000
   24.8223  -14.8818  -16.4051 N   0  0  0  0  0  0  0  0  0  0  0  0
   25.5550  -16.0611  -16.0607 C   0  0  1  0  0  0  0  0  0  0  0  0
   26.8799  -15.6749  -15.4547 C   0  0  0  0  0  0  0  0  0  0  0  0
   28.0697  -15.4140  -16.7909 S   0  0  0  0  0  0  0  0  0  0  0  0
   24.7799  -16.9092  -15.0853 C   0  0  0  0  0  0  0  0  0  0  0  0
   24.3729  -16.4306  -13.9958 O   0  0  0  0  0  0  0  0  0  0  0  0
   22.3531  -21.6937  -13.8550 N   0  0  0  0  0  0  0  0  0  0  0  0
   21.7738  -20.6026  -14.5581 C   0  0  0  0  0  0  0  0  0  0  0  0
   20.5486  -20.3815  -14.5078 O   0  0  0  0  0  0  0  0  0  0  0  0
   22.6467  -19.7354  -15.3488 C   0  0  0  0  0  0  0  0  0  0  0  0
   23.7357  -19.1377  -14.4616 C   0  0  2  0  0  0  0  0  0  0  0  0
   24.4854  -18.2662  -15.3612 N   0  0  0  0  0  0  0  0  0  0  0  0
   24.6287  -20.2829  -14.1224 C   0  0  0  0  0  0  0  0  0  0  0  0
   25.3612  -20.7117  -15.0838 O   0  0  0  0  0  0  0  0  0  0  0  0
   24.6978  -20.8812  -12.8542 N   0  0  0  0  0  0  0  0  0  0  0  0
   23.7928  -20.5536  -11.7467 C   0  0  0  0  0  0  0  0  0  0  0  0
   24.3833  -21.2180  -10.5202 C   0  0  0  0  0  0  0  0  0  0  0  0
   25.8231  -21.4002  -10.9501 C   0  0  0  0  0  0  0  0  0  0  0  0
   25.5955  -21.9059  -12.3869 C   0  0  1  0  0  0  0  0  0  0  0  0
   24.8851  -23.2091  -12.2116 C   0  0  0  0  0  0  0  0  0  0  0  0
   25.6138  -24.3444  -11.9035 O   0  0  0  0  0  0  0  0  0  0  0  0
   23.6538  -23.2968  -12.3362 O   0  0  0  0  0  0  0  0  0  0  0  0
  2  1  1  1
  2  3  1  0
  2  5  1  0
  3  4  1  0
  5 12  1  0
  5  6  2  0
  8  7  1  0
  8 10  1  0
  9  8  2  0
 11 10  1  6
 11 13  1  0
 12 11  1  0
 13 14  2  0
 13 15  1  0
 15 16  1  0
 16 17  1  0
 18 17  1  0
 19 15  1  0
 19 18  1  0
 19 20  1  1
 21 20  1  0
 22 20  2  0
M  END
$$$$
