CNP.pdb
     RDKit          3D

 22 22  0  0  1  0  0  0  0  0999 V2000
   25.9893  -20.8809   -8.6599 N   0  0  0  0  0  0  0  0  0  0  0  0
   25.2526  -21.0802   -9.8697 C   0  0  1  0  0  0  0  0  0  0  0  0
   23.9160  -20.3910   -9.7677 C   0  0  0  0  0  0  0  0  0  0  0  0
   22.8618  -21.3426   -8.6485 S   0  0  0  0  0  0  0  0  0  0  0  0
   26.0111  -20.5413  -11.0554 C   0  0  0  0  0  0  0  0  0  0  0  0
   26.7275  -19.5131  -10.9498 O   0  0  0  0  0  0  0  0  0  0  0  0
   27.8248  -20.2984  -15.8874 N   0  0  0  0  0  0  0  0  0  0  0  0
   27.5701  -21.6610  -15.5727 C   0  0  0  0  0  0  0  0  0  0  0  0
   27.9594  -22.5784  -16.3207 O   0  0  0  0  0  0  0  0  0  0  0  0
   26.8373  -21.9721  -14.3458 C   0  0  0  0  0  0  0  0  0  0  0  0
   26.6684  -20.7114  -13.5017 C   0  0  2  0  0  0  0  0  0  0  0  0
   25.9429  -21.1712  -12.3214 N   0  0  0  0  0  0  0  0  0  0  0  0
   25.7316  -19.8496  -14.2787 C   0  0  0  0  0  0  0  0  0  0  0  0
   24.5192  -20.2643  -14.3313 O   0  0  0  0  0  0  0  0  0  0  0  0
   26.1046  -18.6592  -14.9229 N   0  0  0  0  0  0  0  0  0  0  0  0
   27.4909  -18.1918  -15.0355 C   0  0  0  0  0  0  0  0  0  0  0  0
   27.4071  -16.7707  -15.5531 C   0  0  0  0  0  0  0  0  0  0  0  0
   25.9878  -16.4044  -15.1755 C   0  0  0  0  0  0  0  0  0  0  0  0
   25.2712  -17.6997  -15.6005 C   0  0  1  0  0  0  0  0  0  0  0  0
   25.4678  -17.7619  -17.0808 C   0  0  0  0  0  0  0  0  0  0  0  0
   24.6924  -16.9640  -17.9035 O   0  0  0  0  0  0  0  0  0  0  0  0
   26.3124  -18.5143  -17.5904 O   0  0  0  0  0  0  0  0  0  0  0  0
  2  1  1  1
  2  3  1  0
  2  5  1  0
  3  4  1  0
  5 12  1  0
  5  6  2  0
  8  7  1  0
  8 10  1  0
  9  8  2  0
 11 10  1  6
 11 13  1  0
 12 11  1  0
 13 14  2  0
 13 15  1  0
 15 16  1  0
 16 17  1  0
 18 17  1  0
 19 15  1  0
 19 18  1  0
 19 20  1  6
 21 20  1  0
 22 20  2  0
M  END
$$$$
