CNP.pdb
     RDKit          3D

 22 22  0  0  1  0  0  0  0  0999 V2000
   15.2640  -11.2632  -14.7526 N   0  0  0  0  0  0  0  0  0  0  0  0
   16.5880  -11.0505  -14.2548 C   0  0  1  0  0  0  0  0  0  0  0  0
   17.5932  -11.4267  -15.3131 C   0  0  0  0  0  0  0  0  0  0  0  0
   18.0280  -13.1688  -15.1004 S   0  0  0  0  0  0  0  0  0  0  0  0
   16.7870   -9.6107  -13.8563 C   0  0  0  0  0  0  0  0  0  0  0  0
   16.3408   -8.6762  -14.5699 O   0  0  0  0  0  0  0  0  0  0  0  0
   18.3659   -5.5882  -11.0224 N   0  0  0  0  0  0  0  0  0  0  0  0
   17.7962   -6.5850  -10.1844 C   0  0  0  0  0  0  0  0  0  0  0  0
   17.5156   -6.3429   -8.9947 O   0  0  0  0  0  0  0  0  0  0  0  0
   17.5422   -7.9115  -10.7457 C   0  0  0  0  0  0  0  0  0  0  0  0
   17.7514   -7.8902  -12.2577 C   0  0  2  0  0  0  0  0  0  0  0  0
   17.4795   -9.2635  -12.6712 N   0  0  0  0  0  0  0  0  0  0  0  0
   19.2138   -7.6630  -12.4416 C   0  0  0  0  0  0  0  0  0  0  0  0
   19.9792   -8.4200  -11.7447 O   0  0  0  0  0  0  0  0  0  0  0  0
   19.7605   -6.7011  -13.3060 N   0  0  0  0  0  0  0  0  0  0  0  0
   18.9560   -5.8179  -14.1577 C   0  0  0  0  0  0  0  0  0  0  0  0
   19.9351   -5.1476  -15.0993 C   0  0  0  0  0  0  0  0  0  0  0  0
   21.1032   -6.1083  -15.0400 C   0  0  0  0  0  0  0  0  0  0  0  0
   21.1438   -6.3633  -13.5217 C   0  0  1  0  0  0  0  0  0  0  0  0
   21.4736   -5.0300  -12.9321 C   0  0  0  0  0  0  0  0  0  0  0  0
   20.4548   -4.2344  -12.4384 O   0  0  0  0  0  0  0  0  0  0  0  0
   22.6428   -4.6190  -12.8750 O   0  0  0  0  0  0  0  0  0  0  0  0
  2  1  1  6
  2  3  1  0
  2  5  1  0
  3  4  1  0
  5 12  1  0
  5  6  2  0
  8  7  1  0
  8 10  1  0
  9  8  2  0
 11 10  1  1
 11 13  1  0
 12 11  1  0
 13 14  2  0
 13 15  1  0
 15 16  1  0
 16 17  1  0
 18 17  1  0
 19 15  1  0
 19 18  1  0
 19 20  1  1
 21 20  1  0
 22 20  2  0
M  END
$$$$
