CNP.pdb
     RDKit          3D

 22 22  0  0  1  0  0  0  0  0999 V2000
   23.0673  -11.9551  -16.0748 N   0  0  0  0  0  0  0  0  0  0  0  0
   23.4496  -10.6776  -15.5573 C   0  0  1  0  0  0  0  0  0  0  0  0
   24.6931  -10.1978  -16.2610 C   0  0  0  0  0  0  0  0  0  0  0  0
   26.1053  -11.1418  -15.6415 S   0  0  0  0  0  0  0  0  0  0  0  0
   22.3432   -9.6707  -15.7413 C   0  0  0  0  0  0  0  0  0  0  0  0
   21.8122   -9.4943  -16.8676 O   0  0  0  0  0  0  0  0  0  0  0  0
   18.9864   -9.7031  -13.8057 N   0  0  0  0  0  0  0  0  0  0  0  0
   19.3477   -8.6719  -12.8966 C   0  0  0  0  0  0  0  0  0  0  0  0
   18.8217   -8.5932  -11.7697 O   0  0  0  0  0  0  0  0  0  0  0  0
   20.3559   -7.6957  -13.3085 C   0  0  0  0  0  0  0  0  0  0  0  0
   20.7639   -7.9429  -14.7585 C   0  0  2  0  0  0  0  0  0  0  0  0
   21.8670   -8.8936  -14.6580 N   0  0  0  0  0  0  0  0  0  0  0  0
   21.3459   -6.6501  -15.2212 C   0  0  0  0  0  0  0  0  0  0  0  0
   22.4788   -6.3418  -14.7053 O   0  0  0  0  0  0  0  0  0  0  0  0
   20.7343   -5.7983  -16.1548 N   0  0  0  0  0  0  0  0  0  0  0  0
   19.4201   -6.0544  -16.7549 C   0  0  0  0  0  0  0  0  0  0  0  0
   19.2754   -5.0483  -17.8780 C   0  0  0  0  0  0  0  0  0  0  0  0
   20.7226   -4.6879  -18.1367 C   0  0  0  0  0  0  0  0  0  0  0  0
   21.2114   -4.5464  -16.6832 C   0  0  1  0  0  0  0  0  0  0  0  0
   20.4271   -3.3957  -16.1402 C   0  0  0  0  0  0  0  0  0  0  0  0
   19.3241   -3.6414  -15.3417 O   0  0  0  0  0  0  0  0  0  0  0  0
   20.7431   -2.2221  -16.3896 O   0  0  0  0  0  0  0  0  0  0  0  0
  2  1  1  6
  2  3  1  0
  2  5  1  0
  3  4  1  0
  5 12  1  0
  5  6  2  0
  8  7  1  0
  8 10  1  0
  9  8  2  0
 11 10  1  1
 11 13  1  0
 12 11  1  0
 13 14  2  0
 13 15  1  0
 15 16  1  0
 16 17  1  0
 18 17  1  0
 19 15  1  0
 19 18  1  0
 19 20  1  1
 21 20  1  0
 22 20  2  0
M  END
$$$$
