CNP.pdb
     RDKit          3D

 22 22  0  0  1  0  0  0  0  0999 V2000
   14.8569  -11.4546  -13.9036 N   0  0  0  0  0  0  0  0  0  0  0  0
   16.2481  -11.1325  -13.8205 C   0  0  1  0  0  0  0  0  0  0  0  0
   16.9370  -11.5302  -15.1008 C   0  0  0  0  0  0  0  0  0  0  0  0
   17.2824  -13.3040  -15.0415 S   0  0  0  0  0  0  0  0  0  0  0  0
   16.4445   -9.6583  -13.5765 C   0  0  0  0  0  0  0  0  0  0  0  0
   15.8367   -8.8031  -14.2700 O   0  0  0  0  0  0  0  0  0  0  0  0
   18.5043   -6.0446   -9.2432 N   0  0  0  0  0  0  0  0  0  0  0  0
   17.6053   -6.3068  -10.3126 C   0  0  0  0  0  0  0  0  0  0  0  0
   16.9806   -5.3838  -10.8699 O   0  0  0  0  0  0  0  0  0  0  0  0
   17.4235   -7.6897  -10.7526 C   0  0  0  0  0  0  0  0  0  0  0  0
   17.5416   -7.7767  -12.2721 C   0  0  2  0  0  0  0  0  0  0  0  0
   17.3153   -9.1890  -12.5637 N   0  0  0  0  0  0  0  0  0  0  0  0
   18.9772   -7.4978  -12.5640 C   0  0  0  0  0  0  0  0  0  0  0  0
   19.8083   -8.3620  -12.1089 O   0  0  0  0  0  0  0  0  0  0  0  0
   19.4340   -6.3820  -13.2834 N   0  0  0  0  0  0  0  0  0  0  0  0
   18.5593   -5.3061  -13.7631 C   0  0  0  0  0  0  0  0  0  0  0  0
   19.4080   -4.4694  -14.6980 C   0  0  0  0  0  0  0  0  0  0  0  0
   20.5001   -5.4524  -15.0613 C   0  0  0  0  0  0  0  0  0  0  0  0
   20.7804   -6.0447  -13.6675 C   0  0  1  0  0  0  0  0  0  0  0  0
   21.2967   -4.8893  -12.8723 C   0  0  0  0  0  0  0  0  0  0  0  0
   22.6349   -4.5482  -12.9594 O   0  0  0  0  0  0  0  0  0  0  0  0
   20.5513   -4.2271  -12.1340 O   0  0  0  0  0  0  0  0  0  0  0  0
  2  1  1  6
  2  3  1  0
  2  5  1  0
  3  4  1  0
  5 12  1  0
  5  6  2  0
  8  7  1  0
  8 10  1  0
  9  8  2  0
 11 10  1  1
 11 13  1  0
 12 11  1  0
 13 14  2  0
 13 15  1  0
 15 16  1  0
 16 17  1  0
 18 17  1  0
 19 15  1  0
 19 18  1  0
 19 20  1  1
 21 20  1  0
 22 20  2  0
M  END
$$$$
