LIY.pdb
     RDKit          3D

 29 29  0  0  1  0  0  0  0  0999 V2000
   13.8692  -22.9417   18.2174 C   0  0  0  0  0  0  0  0  0  0  0  0
   12.8459  -21.8605   18.2995 C   0  0  1  0  0  0  0  0  0  0  0  0
   11.6485  -22.3803   19.0633 C   0  0  0  0  0  0  0  0  0  0  0  0
   13.3693  -20.5746   18.8785 C   0  0  0  0  0  0  0  0  0  0  0  0
   12.3042  -19.5613   19.1301 C   0  0  2  0  0  0  0  0  0  0  0  0
   11.8652  -19.0245   17.8561 N   0  0  0  0  0  0  0  0  0  0  0  0
   12.8843  -18.4419   19.9237 C   0  0  0  0  0  0  0  0  0  0  0  0
   13.5741  -17.5285   19.3689 O   0  0  0  0  0  0  0  0  0  0  0  0
    9.9840  -16.3210   23.8907 C   0  0  0  0  0  0  0  0  0  0  0  0
   10.8637  -16.4970   22.6387 C   0  0  0  0  0  0  0  0  0  0  0  0
   12.2044  -16.9064   23.1302 C   0  0  2  0  0  0  0  0  0  0  0  0
   12.7346  -15.9761   24.2127 C   0  0  0  0  0  0  0  0  0  0  0  0
   13.2467  -17.1615   22.0754 C   0  0  2  0  0  0  0  0  0  0  0  0
   12.7048  -18.3282   21.3278 N   0  0  0  0  0  0  0  0  0  0  0  0
   14.5841  -17.4861   22.5887 C   0  0  0  0  0  0  0  0  0  0  0  0
   14.7295  -18.4168   23.4513 O   0  0  0  0  0  0  0  0  0  0  0  0
   23.1227  -18.9211   23.5006 O   0  0  0  0  0  0  0  0  0  0  0  0
   21.8990  -18.4663   23.0309 C   0  0  0  0  0  0  0  0  0  0  0  0
   21.7043  -17.1167   22.7880 C   0  0  0  0  0  0  0  0  0  0  0  0
   20.4801  -16.7189   22.3257 C   0  0  0  0  0  0  0  0  0  0  0  0
   19.4347  -17.5860   22.0901 C   0  0  0  0  0  0  0  0  0  0  0  0
   18.1146  -17.1519   21.5971 C   0  0  0  0  0  0  0  0  0  0  0  0
   17.0948  -17.2461   22.6854 C   0  0  2  0  0  0  0  0  0  0  0  0
   15.7749  -16.8402   22.1984 N   0  0  0  0  0  0  0  0  0  0  0  0
   17.4342  -16.4438   23.8707 C   0  0  0  0  0  0  0  0  0  0  0  0
   17.2247  -15.1925   23.9291 O   0  0  0  0  0  0  0  0  0  0  0  0
   19.6879  -18.9279   22.3515 C   0  0  0  0  0  0  0  0  0  0  0  0
   20.8929  -19.3796   22.8143 C   0  0  0  0  0  0  0  0  0  0  0  0
   18.0015  -17.0727   24.9693 O   0  0  0  0  0  0  0  0  0  0  0  0
  2  1  1  1
  3  2  1  0
  4  2  1  0
  5  4  1  0
  5  6  1  6
  7  8  2  0
  7  5  1  0
  9 10  1  0
 11 10  1  0
 11 13  1  0
 11 12  1  1
 13 15  1  0
 13 14  1  1
 14  7  1  0
 15 16  2  0
 17 18  1  0
 18 19  2  0
 18 28  1  0
 19 20  1  0
 20 21  2  0
 21 22  1  0
 23 22  1  6
 23 25  1  0
 24 23  1  0
 24 15  1  0
 25 26  2  0
 25 29  1  0
 27 21  1  0
 28 27  2  0
M  END
$$$$
