LIY.pdb
     RDKit          3D

 29 29  0  0  1  0  0  0  0  0999 V2000
    7.4196  -21.1116   21.4959 C   0  0  0  0  0  0  0  0  0  0  0  0
    7.4005  -20.4313   22.8224 C   0  0  1  0  0  0  0  0  0  0  0  0
    8.1729  -21.2736   23.8129 C   0  0  0  0  0  0  0  0  0  0  0  0
    7.8967  -19.0117   22.7817 C   0  0  0  0  0  0  0  0  0  0  0  0
    6.8001  -18.0021   22.7317 C   0  0  2  0  0  0  0  0  0  0  0  0
    6.0137  -18.2311   21.5346 N   0  0  0  0  0  0  0  0  0  0  0  0
    7.4026  -16.6433   22.6313 C   0  0  0  0  0  0  0  0  0  0  0  0
    7.7920  -16.1756   21.5144 O   0  0  0  0  0  0  0  0  0  0  0  0
    5.6678  -12.8607   26.1831 C   0  0  0  0  0  0  0  0  0  0  0  0
    6.0020  -13.5011   24.8227 C   0  0  0  0  0  0  0  0  0  0  0  0
    7.4740  -13.7005   24.8107 C   0  0  2  0  0  0  0  0  0  0  0  0
    8.2361  -12.4174   25.1131 C   0  0  0  0  0  0  0  0  0  0  0  0
    8.0381  -14.3946   23.6007 C   0  0  2  0  0  0  0  0  0  0  0  0
    7.5763  -15.7999   23.7605 N   0  0  0  0  0  0  0  0  0  0  0  0
    9.5030  -14.3687   23.4957 C   0  0  0  0  0  0  0  0  0  0  0  0
   10.1065  -13.2722   23.2408 O   0  0  0  0  0  0  0  0  0  0  0  0
   11.6211  -15.7910   31.2421 O   0  0  0  0  0  0  0  0  0  0  0  0
   11.1449  -15.8231   29.9394 C   0  0  0  0  0  0  0  0  0  0  0  0
   10.8495  -14.6432   29.2767 C   0  0  0  0  0  0  0  0  0  0  0  0
   10.3829  -14.7283   27.9939 C   0  0  0  0  0  0  0  0  0  0  0  0
   10.1918  -15.9205   27.3289 C   0  0  0  0  0  0  0  0  0  0  0  0
    9.6830  -16.0078   25.9476 C   0  0  0  0  0  0  0  0  0  0  0  0
   10.8123  -15.9433   24.9710 C   0  0  2  0  0  0  0  0  0  0  0  0
   10.3419  -15.4895   23.6607 N   0  0  0  0  0  0  0  0  0  0  0  0
   11.5140  -17.2259   24.8088 C   0  0  0  0  0  0  0  0  0  0  0  0
   11.1273  -18.1150   23.9884 O   0  0  0  0  0  0  0  0  0  0  0  0
   10.5050  -17.0715   28.0432 C   0  0  0  0  0  0  0  0  0  0  0  0
   10.9747  -17.0436   29.3273 C   0  0  0  0  0  0  0  0  0  0  0  0
   12.6423  -17.4776   25.5756 O   0  0  0  0  0  0  0  0  0  0  0  0
  2  1  1  6
  3  2  1  0
  4  2  1  0
  5  4  1  0
  5  6  1  6
  7  8  2  0
  7  5  1  0
  9 10  1  0
 11 10  1  0
 11 13  1  0
 11 12  1  6
 13 15  1  0
 13 14  1  1
 14  7  1  0
 15 16  2  0
 17 18  1  0
 18 19  2  0
 18 28  1  0
 19 20  1  0
 20 21  2  0
 21 22  1  0
 23 22  1  1
 23 25  1  0
 24 23  1  0
 24 15  1  0
 25 26  2  0
 25 29  1  0
 27 21  1  0
 28 27  2  0
M  END
$$$$
