LIY.pdb
     RDKit          3D

 29 29  0  0  1  0  0  0  0  0999 V2000
    9.2837  -22.0956   20.2647 C   0  0  0  0  0  0  0  0  0  0  0  0
    9.0109  -20.9881   19.3045 C   0  0  1  0  0  0  0  0  0  0  0  0
    7.5376  -20.9914   18.9632 C   0  0  0  0  0  0  0  0  0  0  0  0
    9.4751  -19.6410   19.7868 C   0  0  0  0  0  0  0  0  0  0  0  0
    8.9328  -18.5059   18.9857 C   0  0  2  0  0  0  0  0  0  0  0  0
    9.4963  -18.5699   17.6507 N   0  0  0  0  0  0  0  0  0  0  0  0
    9.3726  -17.2257   19.6079 C   0  0  0  0  0  0  0  0  0  0  0  0
   10.5467  -16.7723   19.4238 O   0  0  0  0  0  0  0  0  0  0  0  0
    6.2994  -12.9974   19.5163 C   0  0  0  0  0  0  0  0  0  0  0  0
    7.5410  -13.9073   19.4618 C   0  0  0  0  0  0  0  0  0  0  0  0
    7.8808  -14.2272   20.8721 C   0  0  2  0  0  0  0  0  0  0  0  0
    8.0684  -12.9776   21.7217 C   0  0  0  0  0  0  0  0  0  0  0  0
    9.0124  -15.1976   21.0767 C   0  0  2  0  0  0  0  0  0  0  0  0
    8.5199  -16.4451   20.4326 N   0  0  0  0  0  0  0  0  0  0  0  0
    9.3512  -15.4707   22.4796 C   0  0  0  0  0  0  0  0  0  0  0  0
    8.5246  -16.0946   23.2273 O   0  0  0  0  0  0  0  0  0  0  0  0
   10.5027  -15.5581   30.8496 O   0  0  0  0  0  0  0  0  0  0  0  0
   10.2702  -15.4117   29.4897 C   0  0  0  0  0  0  0  0  0  0  0  0
   10.3699  -14.1640   28.8966 C   0  0  0  0  0  0  0  0  0  0  0  0
   10.1311  -14.0723   27.5530 C   0  0  0  0  0  0  0  0  0  0  0  0
    9.7977  -15.1508   26.7618 C   0  0  0  0  0  0  0  0  0  0  0  0
    9.5355  -15.0463   25.3146 C   0  0  0  0  0  0  0  0  0  0  0  0
   10.7948  -15.2625   24.5395 C   0  0  2  0  0  0  0  0  0  0  0  0
   10.5578  -15.0949   23.1043 N   0  0  0  0  0  0  0  0  0  0  0  0
   11.4011  -16.5822   24.7727 C   0  0  0  0  0  0  0  0  0  0  0  0
   10.8686  -17.6591   24.3603 O   0  0  0  0  0  0  0  0  0  0  0  0
    9.7124  -16.3772   27.4112 C   0  0  0  0  0  0  0  0  0  0  0  0
    9.9411  -16.5252   28.7514 C   0  0  0  0  0  0  0  0  0  0  0  0
   12.6005  -16.6591   25.4654 O   0  0  0  0  0  0  0  0  0  0  0  0
  2  1  1  1
  3  2  1  0
  4  2  1  0
  5  4  1  0
  5  6  1  6
  7  8  2  0
  7  5  1  0
  9 10  1  0
 11 10  1  0
 11 13  1  0
 11 12  1  1
 13 15  1  0
 13 14  1  1
 14  7  1  0
 15 16  2  0
 17 18  1  0
 18 19  2  0
 18 28  1  0
 19 20  1  0
 20 21  2  0
 21 22  1  0
 23 22  1  1
 23 25  1  0
 24 23  1  0
 24 15  1  0
 25 26  2  0
 25 29  1  0
 27 21  1  0
 28 27  2  0
M  END
$$$$
