LIY.pdb
     RDKit          3D

 29 29  0  0  1  0  0  0  0  0999 V2000
    7.3332  -12.5509   17.4965 C   0  0  0  0  0  0  0  0  0  0  0  0
    7.3782  -13.8185   18.2801 C   0  0  1  0  0  0  0  0  0  0  0  0
    7.8745  -14.9291   17.3815 C   0  0  0  0  0  0  0  0  0  0  0  0
    8.1811  -13.7178   19.5482 C   0  0  0  0  0  0  0  0  0  0  0  0
    8.1708  -14.9710   20.3569 C   0  0  2  0  0  0  0  0  0  0  0  0
    6.7933  -15.3659   20.5820 N   0  0  0  0  0  0  0  0  0  0  0  0
    8.7901  -14.6920   21.6828 C   0  0  0  0  0  0  0  0  0  0  0  0
   10.0047  -14.3268   21.7794 O   0  0  0  0  0  0  0  0  0  0  0  0
    5.7892  -12.5424   25.6347 C   0  0  0  0  0  0  0  0  0  0  0  0
    7.0027  -12.7386   24.7067 C   0  0  0  0  0  0  0  0  0  0  0  0
    7.5939  -14.0516   25.0719 C   0  0  2  0  0  0  0  0  0  0  0  0
    7.9565  -14.1343   26.5484 C   0  0  0  0  0  0  0  0  0  0  0  0
    8.7280  -14.5306   24.2067 C   0  0  2  0  0  0  0  0  0  0  0  0
    8.0723  -14.8151   22.9018 N   0  0  0  0  0  0  0  0  0  0  0  0
    9.4088  -15.7401   24.6876 C   0  0  0  0  0  0  0  0  0  0  0  0
    8.9992  -16.8930   24.3208 O   0  0  0  0  0  0  0  0  0  0  0  0
   10.3631  -15.0371   31.7794 O   0  0  0  0  0  0  0  0  0  0  0  0
   10.8691  -15.4558   30.5573 C   0  0  0  0  0  0  0  0  0  0  0  0
   11.2410  -16.7773   30.3735 C   0  0  0  0  0  0  0  0  0  0  0  0
   11.7342  -17.1400   29.1505 C   0  0  0  0  0  0  0  0  0  0  0  0
   11.8803  -16.2641   28.0962 C   0  0  0  0  0  0  0  0  0  0  0  0
   12.4179  -16.6583   26.7810 C   0  0  0  0  0  0  0  0  0  0  0  0
   11.3040  -16.9541   25.8297 C   0  0  2  0  0  0  0  0  0  0  0  0
   10.5228  -15.7473   25.5514 N   0  0  0  0  0  0  0  0  0  0  0  0
   10.3980  -18.0103   26.3065 C   0  0  0  0  0  0  0  0  0  0  0  0
    9.2026  -17.7724   26.6638 O   0  0  0  0  0  0  0  0  0  0  0  0
   11.4908  -14.9515   28.3386 C   0  0  0  0  0  0  0  0  0  0  0  0
   10.9915  -14.5354   29.5418 C   0  0  0  0  0  0  0  0  0  0  0  0
   10.8602  -19.3168   26.3673 O   0  0  0  0  0  0  0  0  0  0  0  0
  2  1  1  6
  3  2  1  0
  4  2  1  0
  5  4  1  0
  5  6  1  1
  7  8  2  0
  7  5  1  0
  9 10  1  0
 11 10  1  0
 11 13  1  0
 11 12  1  1
 13 15  1  0
 13 14  1  6
 14  7  1  0
 15 16  2  0
 17 18  1  0
 18 19  2  0
 18 28  1  0
 19 20  1  0
 20 21  2  0
 21 22  1  0
 23 22  1  1
 23 25  1  0
 24 23  1  0
 24 15  1  0
 25 26  2  0
 25 29  1  0
 27 21  1  0
 28 27  2  0
M  END
$$$$
