LIY.pdb
     RDKit          3D

 29 29  0  0  1  0  0  0  0  0999 V2000
    5.7047  -21.1176   23.5008 C   0  0  0  0  0  0  0  0  0  0  0  0
    5.4684  -19.8043   22.8357 C   0  0  1  0  0  0  0  0  0  0  0  0
    4.0118  -19.7142   22.4394 C   0  0  0  0  0  0  0  0  0  0  0  0
    5.9032  -18.6224   23.6584 C   0  0  0  0  0  0  0  0  0  0  0  0
    5.6665  -17.3128   22.9853 C   0  0  2  0  0  0  0  0  0  0  0  0
    5.7827  -17.5009   21.5518 N   0  0  0  0  0  0  0  0  0  0  0  0
    6.7270  -16.3563   23.4094 C   0  0  0  0  0  0  0  0  0  0  0  0
    7.8187  -16.2538   22.7648 O   0  0  0  0  0  0  0  0  0  0  0  0
    5.3186  -12.1772   26.6574 C   0  0  0  0  0  0  0  0  0  0  0  0
    5.8959  -12.9478   25.4551 C   0  0  0  0  0  0  0  0  0  0  0  0
    7.0602  -13.7106   25.9740 C   0  0  2  0  0  0  0  0  0  0  0  0
    8.0916  -12.8120   26.6426 C   0  0  0  0  0  0  0  0  0  0  0  0
    7.7133  -14.6606   25.0070 C   0  0  2  0  0  0  0  0  0  0  0  0
    6.5854  -15.5129   24.5431 N   0  0  0  0  0  0  0  0  0  0  0  0
    8.7646  -15.5092   25.5834 C   0  0  0  0  0  0  0  0  0  0  0  0
    8.7112  -15.8459   26.8144 O   0  0  0  0  0  0  0  0  0  0  0  0
    9.3149  -20.7838   30.2250 O   0  0  0  0  0  0  0  0  0  0  0  0
    9.6159  -20.1902   29.0077 C   0  0  0  0  0  0  0  0  0  0  0  0
   10.9189  -20.1868   28.5379 C   0  0  0  0  0  0  0  0  0  0  0  0
   11.1638  -19.5887   27.3325 C   0  0  0  0  0  0  0  0  0  0  0  0
   10.1872  -18.9918   26.5643 C   0  0  0  0  0  0  0  0  0  0  0  0
   10.4569  -18.3431   25.2679 C   0  0  0  0  0  0  0  0  0  0  0  0
   10.8561  -16.9174   25.4712 C   0  0  2  0  0  0  0  0  0  0  0  0
    9.8737  -16.0114   24.8728 N   0  0  0  0  0  0  0  0  0  0  0  0
   12.1873  -16.6040   24.9295 C   0  0  0  0  0  0  0  0  0  0  0  0
   13.2519  -17.1083   25.4041 O   0  0  0  0  0  0  0  0  0  0  0  0
    8.8988  -19.0258   27.0859 C   0  0  0  0  0  0  0  0  0  0  0  0
    8.5986  -19.6103   28.2853 C   0  0  0  0  0  0  0  0  0  0  0  0
   12.2891  -15.7283   23.8585 O   0  0  0  0  0  0  0  0  0  0  0  0
  2  1  1  1
  3  2  1  0
  4  2  1  0
  5  4  1  0
  5  6  1  6
  7  8  2  0
  7  5  1  0
  9 10  1  0
 11 10  1  0
 11 13  1  0
 11 12  1  6
 13 15  1  0
 13 14  1  1
 14  7  1  0
 15 16  2  0
 17 18  1  0
 18 19  2  0
 18 28  1  0
 19 20  1  0
 20 21  2  0
 21 22  1  0
 23 22  1  6
 23 25  1  0
 24 23  1  0
 24 15  1  0
 25 26  2  0
 25 29  1  0
 27 21  1  0
 28 27  2  0
M  END
$$$$
