LIY.pdb
     RDKit          3D

 29 29  0  0  1  0  0  0  0  0999 V2000
    7.9539  -18.5539   18.0988 C   0  0  0  0  0  0  0  0  0  0  0  0
    7.6296  -18.7647   19.5387 C   0  0  1  0  0  0  0  0  0  0  0  0
    7.9255  -20.2034   19.8989 C   0  0  0  0  0  0  0  0  0  0  0  0
    8.3201  -17.7987   20.4622 C   0  0  0  0  0  0  0  0  0  0  0  0
    7.6440  -16.4718   20.5445 C   0  0  2  0  0  0  0  0  0  0  0  0
    7.7493  -15.8173   19.2544 N   0  0  0  0  0  0  0  0  0  0  0  0
    8.3581  -15.6302   21.5450 C   0  0  0  0  0  0  0  0  0  0  0  0
    9.4084  -14.9839   21.2335 O   0  0  0  0  0  0  0  0  0  0  0  0
    6.7876  -12.6920   26.5204 C   0  0  0  0  0  0  0  0  0  0  0  0
    8.0496  -13.0958   25.7350 C   0  0  0  0  0  0  0  0  0  0  0  0
    7.6320  -14.1832   24.8131 C   0  0  2  0  0  0  0  0  0  0  0  0
    6.9420  -15.3285   25.5414 C   0  0  0  0  0  0  0  0  0  0  0  0
    8.6889  -14.6962   23.8728 C   0  0  2  0  0  0  0  0  0  0  0  0
    7.9159  -15.5005   22.8883 N   0  0  0  0  0  0  0  0  0  0  0  0
    9.7181  -15.5395   24.4950 C   0  0  0  0  0  0  0  0  0  0  0  0
    9.4379  -16.7345   24.8483 O   0  0  0  0  0  0  0  0  0  0  0  0
    9.8651  -15.4222   31.1427 O   0  0  0  0  0  0  0  0  0  0  0  0
   10.5952  -15.3974   29.9633 C   0  0  0  0  0  0  0  0  0  0  0  0
   10.6274  -14.2498   29.1883 C   0  0  0  0  0  0  0  0  0  0  0  0
   11.3616  -14.2762   28.0346 C   0  0  0  0  0  0  0  0  0  0  0  0
   12.0675  -15.3792   27.6043 C   0  0  0  0  0  0  0  0  0  0  0  0
   12.8531  -15.4049   26.3567 C   0  0  0  0  0  0  0  0  0  0  0  0
   12.0687  -16.0492   25.2598 C   0  0  2  0  0  0  0  0  0  0  0  0
   11.0454  -15.1364   24.7464 N   0  0  0  0  0  0  0  0  0  0  0  0
   11.4254  -17.3075   25.6676 C   0  0  0  0  0  0  0  0  0  0  0  0
   10.1816  -17.3889   25.9116 O   0  0  0  0  0  0  0  0  0  0  0  0
   11.9985  -16.5015   28.4221 C   0  0  0  0  0  0  0  0  0  0  0  0
   11.2800  -16.5294   29.5854 C   0  0  0  0  0  0  0  0  0  0  0  0
   12.2005  -18.4515   25.7885 O   0  0  0  0  0  0  0  0  0  0  0  0
  2  1  1  6
  3  2  1  0
  4  2  1  0
  5  4  1  0
  5  6  1  6
  7  8  2  0
  7  5  1  0
  9 10  1  0
 11 10  1  0
 11 13  1  0
 11 12  1  1
 13 15  1  0
 13 14  1  6
 14  7  1  0
 15 16  2  0
 17 18  1  0
 18 19  2  0
 18 28  1  0
 19 20  1  0
 20 21  2  0
 21 22  1  0
 23 22  1  1
 23 25  1  0
 24 23  1  0
 24 15  1  0
 25 26  2  0
 25 29  1  0
 27 21  1  0
 28 27  2  0
M  END
$$$$
