HLK.pdb
     RDKit          3D

 28 28  0  0  1  0  0  0  0  0999 V2000
    8.6800  -17.9184   17.8759 N   0  0  0  0  0  0  0  0  0  0  0  0
   10.0789  -17.6215   18.0939 C   0  0  1  0  0  0  0  0  0  0  0  0
   10.6505  -17.1313   16.7917 C   0  0  0  0  0  0  0  0  0  0  0  0
   10.5455  -18.2462   15.8130 C   0  0  0  0  0  0  0  0  0  0  0  0
   10.6235  -19.6007   16.0601 C   0  0  0  0  0  0  0  0  0  0  0  0
   10.4796  -20.2775   14.9060 N   0  0  0  0  0  0  0  0  0  0  0  0
   10.3102  -19.3643   13.9229 C   0  0  0  0  0  0  0  0  0  0  0  0
   10.3508  -18.1391   14.4761 N   0  0  0  0  0  0  0  0  0  0  0  0
   10.2241  -16.6222   19.1863 C   0  0  0  0  0  0  0  0  0  0  0  0
   11.3835  -16.2192   19.5508 O   0  0  0  0  0  0  0  0  0  0  0  0
    8.7616  -12.8278   19.1370 C   0  0  0  0  0  0  0  0  0  0  0  0
    7.6727  -13.2365   20.0783 C   0  0  1  0  0  0  0  0  0  0  0  0
    6.3048  -13.1865   19.3872 C   0  0  0  0  0  0  0  0  0  0  0  0
    7.8572  -14.4530   20.8735 C   0  0  0  0  0  0  0  0  0  0  0  0
    9.1298  -15.1729   20.9614 C   0  0  2  0  0  0  0  0  0  0  0  0
    9.0764  -16.1244   19.8146 N   0  0  0  0  0  0  0  0  0  0  0  0
    9.4639  -15.9622   22.1339 C   0  0  0  0  0  0  0  0  0  0  0  0
    8.7377  -16.8874   22.5373 O   0  0  0  0  0  0  0  0  0  0  0  0
   10.6448  -15.7261   22.9008 N   0  0  0  0  0  0  0  0  0  0  0  0
   11.0265  -16.5944   23.9592 C   0  0  1  0  0  0  0  0  0  0  0  0
   11.0882  -18.0580   23.5855 C   0  0  0  0  0  0  0  0  0  0  0  0
   11.4510  -18.9198   24.7672 C   0  0  0  0  0  0  0  0  0  0  0  0
   11.4320  -20.3918   24.4443 C   0  0  0  0  0  0  0  0  0  0  0  0
   11.7944  -21.1835   25.6806 C   0  0  0  0  0  0  0  0  0  0  0  0
   11.9184  -22.5927   25.3814 N   0  0  0  0  0  0  0  0  0  0  0  0
   12.3113  -16.1798   24.5948 C   0  0  0  0  0  0  0  0  0  0  0  0
   13.2260  -15.7196   23.9029 O   0  0  0  0  0  0  0  0  0  0  0  0
   12.4899  -16.3102   25.9851 O   0  0  0  0  0  0  0  0  0  0  0  0
  2  9  1  0
  2  1  1  6
  3  2  1  0
  4  3  1  0
  4  5  2  0
  6  5  1  0
  7  6  1  0
  8  7  2  0
  8  4  1  0
  9 10  2  0
 12 13  1  6
 12 11  1  0
 14 12  1  0
 15 14  1  1
 16 15  1  0
 16  9  1  0
 17 15  1  0
 18 17  2  0
 19 17  1  0
 20 21  1  6
 20 19  1  0
 22 23  1  0
 22 21  1  0
 23 24  1  0
 24 25  1  0
 26 20  1  0
 26 28  1  0
 27 26  2  0
M  END
$$$$
