HLK.pdb
     RDKit          3D

 28 28  0  0  1  0  0  0  0  0999 V2000
   11.5911  -17.1384   16.6089 N   0  0  0  0  0  0  0  0  0  0  0  0
   10.6398  -17.4200   17.6616 C   0  0  1  0  0  0  0  0  0  0  0  0
   10.8674  -18.8354   18.1169 C   0  0  0  0  0  0  0  0  0  0  0  0
   10.3902  -19.7332   17.0315 C   0  0  0  0  0  0  0  0  0  0  0  0
    9.8561  -19.3771   15.8109 C   0  0  0  0  0  0  0  0  0  0  0  0
    9.5486  -20.4862   15.1137 N   0  0  0  0  0  0  0  0  0  0  0  0
    9.8827  -21.5488   15.8808 C   0  0  0  0  0  0  0  0  0  0  0  0
   10.3905  -21.0884   17.0379 N   0  0  0  0  0  0  0  0  0  0  0  0
   10.7982  -16.4383   18.7681 C   0  0  0  0  0  0  0  0  0  0  0  0
   11.9519  -15.9655   19.0594 O   0  0  0  0  0  0  0  0  0  0  0  0
    6.2476  -13.3733   19.7105 C   0  0  0  0  0  0  0  0  0  0  0  0
    7.6974  -13.7145   19.5681 C   0  0  1  0  0  0  0  0  0  0  0  0
    8.5156  -12.4761   19.1831 C   0  0  0  0  0  0  0  0  0  0  0  0
    8.3358  -14.5049   20.6235 C   0  0  0  0  0  0  0  0  0  0  0  0
    9.7180  -14.9836   20.5474 C   0  0  2  0  0  0  0  0  0  0  0  0
    9.6693  -16.0347   19.4910 N   0  0  0  0  0  0  0  0  0  0  0  0
   10.3651  -15.5886   21.6983 C   0  0  0  0  0  0  0  0  0  0  0  0
   10.5771  -14.9548   22.7469 O   0  0  0  0  0  0  0  0  0  0  0  0
   10.8023  -16.9477   21.7002 N   0  0  0  0  0  0  0  0  0  0  0  0
   11.3867  -17.5361   22.8544 C   0  0  1  0  0  0  0  0  0  0  0  0
   11.4884  -19.0440   22.8129 C   0  0  0  0  0  0  0  0  0  0  0  0
   10.1638  -19.6998   23.1064 C   0  0  0  0  0  0  0  0  0  0  0  0
   10.2128  -21.2003   22.9732 C   0  0  0  0  0  0  0  0  0  0  0  0
    8.8550  -21.7797   23.3006 C   0  0  0  0  0  0  0  0  0  0  0  0
    8.8606  -23.2212   23.1876 N   0  0  0  0  0  0  0  0  0  0  0  0
   12.7199  -16.9477   23.1753 C   0  0  0  0  0  0  0  0  0  0  0  0
   13.7542  -17.5558   22.8796 O   0  0  0  0  0  0  0  0  0  0  0  0
   12.8081  -15.6974   23.8164 O   0  0  0  0  0  0  0  0  0  0  0  0
  2  9  1  0
  2  1  1  6
  3  2  1  0
  4  3  1  0
  4  5  2  0
  6  5  1  0
  7  6  1  0
  8  7  2  0
  8  4  1  0
  9 10  2  0
 12 13  1  1
 12 11  1  0
 14 12  1  0
 15 14  1  1
 16 15  1  0
 16  9  1  0
 17 15  1  0
 18 17  2  0
 19 17  1  0
 20 21  1  6
 20 19  1  0
 22 23  1  0
 22 21  1  0
 23 24  1  0
 24 25  1  0
 26 20  1  0
 26 28  1  0
 27 26  2  0
M  END
$$$$
