HLK.pdb
     RDKit          3D

 28 28  0  0  1  0  0  0  0  0999 V2000
   10.2852  -13.7357   20.3753 N   0  0  0  0  0  0  0  0  0  0  0  0
    9.0624  -14.1058   21.0537 C   0  0  1  0  0  0  0  0  0  0  0  0
    8.4369  -15.2368   20.2843 C   0  0  0  0  0  0  0  0  0  0  0  0
    8.0447  -14.7042   18.9523 C   0  0  0  0  0  0  0  0  0  0  0  0
    8.2596  -13.4383   18.4491 C   0  0  0  0  0  0  0  0  0  0  0  0
    7.7519  -13.3562   17.2056 N   0  0  0  0  0  0  0  0  0  0  0  0
    7.2138  -14.5615   16.9108 C   0  0  0  0  0  0  0  0  0  0  0  0
    7.3934  -15.3718   17.9690 N   0  0  0  0  0  0  0  0  0  0  0  0
    9.3539  -14.4758   22.4648 C   0  0  0  0  0  0  0  0  0  0  0  0
   10.5224  -14.8730   22.8061 O   0  0  0  0  0  0  0  0  0  0  0  0
    5.6453  -12.2939   26.0307 C   0  0  0  0  0  0  0  0  0  0  0  0
    7.0293  -12.6878   25.6207 C   0  0  1  0  0  0  0  0  0  0  0  0
    8.0797  -11.9167   26.4290 C   0  0  0  0  0  0  0  0  0  0  0  0
    7.3440  -14.1139   25.5049 C   0  0  0  0  0  0  0  0  0  0  0  0
    8.5650  -14.6210   24.8743 C   0  0  2  0  0  0  0  0  0  0  0  0
    8.3346  -14.3853   23.4201 N   0  0  0  0  0  0  0  0  0  0  0  0
    8.9532  -16.0142   25.0074 C   0  0  0  0  0  0  0  0  0  0  0  0
    8.1153  -16.9294   25.0883 O   0  0  0  0  0  0  0  0  0  0  0  0
   10.3201  -16.4235   25.0571 N   0  0  0  0  0  0  0  0  0  0  0  0
   10.7409  -17.5015   25.8820 C   0  0  1  0  0  0  0  0  0  0  0  0
   10.3206  -17.3913   27.3301 C   0  0  0  0  0  0  0  0  0  0  0  0
   10.1566  -18.7471   27.9671 C   0  0  0  0  0  0  0  0  0  0  0  0
   10.6998  -18.8018   29.3720 C   0  0  0  0  0  0  0  0  0  0  0  0
   10.4864  -20.1864   29.9410 C   0  0  0  0  0  0  0  0  0  0  0  0
   10.8566  -20.2405   31.3377 N   0  0  0  0  0  0  0  0  0  0  0  0
   10.3278  -18.8268   25.3346 C   0  0  0  0  0  0  0  0  0  0  0  0
   11.1504  -19.7444   25.2434 O   0  0  0  0  0  0  0  0  0  0  0  0
    8.9998  -19.0402   24.9189 O   0  0  0  0  0  0  0  0  0  0  0  0
  2  9  1  0
  2  1  1  6
  3  2  1  0
  4  3  1  0
  4  5  2  0
  6  5  1  0
  7  6  1  0
  8  7  2  0
  8  4  1  0
  9 10  2  0
 12 13  1  1
 12 11  1  0
 14 12  1  0
 15 14  1  1
 16 15  1  0
 16  9  1  0
 17 15  1  0
 18 17  2  0
 19 17  1  0
 20 21  1  1
 20 19  1  0
 22 23  1  0
 22 21  1  0
 23 24  1  0
 24 25  1  0
 26 20  1  0
 26 28  1  0
 27 26  2  0
M  END
$$$$
