HLK.pdb
     RDKit          3D

 28 28  0  0  1  0  0  0  0  0999 V2000
   10.5438  -15.5041   21.8264 N   0  0  0  0  0  0  0  0  0  0  0  0
    9.2925  -14.9581   22.3048 C   0  0  1  0  0  0  0  0  0  0  0  0
    8.1848  -15.5796   21.4991 C   0  0  0  0  0  0  0  0  0  0  0  0
    7.9180  -14.6815   20.3441 C   0  0  0  0  0  0  0  0  0  0  0  0
    8.5930  -13.5319   19.9911 C   0  0  0  0  0  0  0  0  0  0  0  0
    8.0415  -13.0094   18.8804 N   0  0  0  0  0  0  0  0  0  0  0  0
    7.0184  -13.8178   18.5212 C   0  0  0  0  0  0  0  0  0  0  0  0
    6.9482  -14.8260   19.4085 N   0  0  0  0  0  0  0  0  0  0  0  0
    9.1461  -15.2190   23.7620 C   0  0  0  0  0  0  0  0  0  0  0  0
   10.1271  -15.6813   24.4429 O   0  0  0  0  0  0  0  0  0  0  0  0
    5.5529  -11.6906   26.0997 C   0  0  0  0  0  0  0  0  0  0  0  0
    6.7803  -12.5347   25.9590 C   0  0  1  0  0  0  0  0  0  0  0  0
    7.9250  -11.9830   26.8173 C   0  0  0  0  0  0  0  0  0  0  0  0
    6.6441  -13.9891   26.0703 C   0  0  0  0  0  0  0  0  0  0  0  0
    7.7560  -14.9205   25.8661 C   0  0  2  0  0  0  0  0  0  0  0  0
    7.9207  -14.9533   24.3846 N   0  0  0  0  0  0  0  0  0  0  0  0
    7.6630  -16.3037   26.2991 C   0  0  0  0  0  0  0  0  0  0  0  0
    7.4215  -16.6125   27.4792 O   0  0  0  0  0  0  0  0  0  0  0  0
    7.8454  -17.3979   25.4004 N   0  0  0  0  0  0  0  0  0  0  0  0
    7.8000  -18.7441   25.8536 C   0  0  1  0  0  0  0  0  0  0  0  0
    7.6642  -19.7763   24.7573 C   0  0  0  0  0  0  0  0  0  0  0  0
    6.5300  -19.4483   23.8209 C   0  0  0  0  0  0  0  0  0  0  0  0
    6.3993  -20.4387   22.6925 C   0  0  0  0  0  0  0  0  0  0  0  0
    5.3482  -19.9565   21.7182 C   0  0  0  0  0  0  0  0  0  0  0  0
    5.1972  -20.8773   20.6136 N   0  0  0  0  0  0  0  0  0  0  0  0
    8.9594  -19.0852   26.7289 C   0  0  0  0  0  0  0  0  0  0  0  0
    9.9020  -18.2948   26.8465 O   0  0  0  0  0  0  0  0  0  0  0  0
    8.9871  -20.3082   27.4257 O   0  0  0  0  0  0  0  0  0  0  0  0
  2  9  1  0
  2  1  1  6
  3  2  1  0
  4  3  1  0
  4  5  2  0
  6  5  1  0
  7  6  1  0
  8  7  2  0
  8  4  1  0
  9 10  2  0
 12 13  1  1
 12 11  1  0
 14 12  1  0
 15 14  1  6
 16 15  1  0
 16  9  1  0
 17 15  1  0
 18 17  2  0
 19 17  1  0
 20 21  1  6
 20 19  1  0
 22 23  1  0
 22 21  1  0
 23 24  1  0
 24 25  1  0
 26 20  1  0
 26 28  1  0
 27 26  2  0
M  END
$$$$
