HLK.pdb
     RDKit          3D

 28 28  0  0  1  0  0  0  0  0999 V2000
    7.2867  -16.1406   20.9170 N   0  0  0  0  0  0  0  0  0  0  0  0
    8.2819  -15.0925   20.8586 C   0  0  1  0  0  0  0  0  0  0  0  0
    7.6914  -13.9437   20.0879 C   0  0  0  0  0  0  0  0  0  0  0  0
    7.9935  -14.1718   18.6497 C   0  0  0  0  0  0  0  0  0  0  0  0
    8.6917  -15.2193   18.0864 C   0  0  0  0  0  0  0  0  0  0  0  0
    8.7461  -15.0575   16.7516 N   0  0  0  0  0  0  0  0  0  0  0  0
    8.0871  -13.9135   16.4582 C   0  0  0  0  0  0  0  0  0  0  0  0
    7.6346  -13.3826   17.6081 N   0  0  0  0  0  0  0  0  0  0  0  0
    8.6900  -14.6994   22.2342 C   0  0  0  0  0  0  0  0  0  0  0  0
    9.8448  -14.1905   22.4508 O   0  0  0  0  0  0  0  0  0  0  0  0
    8.2636  -12.2394   26.9002 C   0  0  0  0  0  0  0  0  0  0  0  0
    7.0881  -13.0666   26.4847 C   0  0  1  0  0  0  0  0  0  0  0  0
    5.7731  -12.3329   26.7744 C   0  0  0  0  0  0  0  0  0  0  0  0
    7.1053  -13.6879   25.1580 C   0  0  0  0  0  0  0  0  0  0  0  0
    8.1520  -14.6116   24.7145 C   0  0  2  0  0  0  0  0  0  0  0  0
    7.7958  -14.8920   23.2940 N   0  0  0  0  0  0  0  0  0  0  0  0
    8.3314  -15.9029   25.3547 C   0  0  0  0  0  0  0  0  0  0  0  0
    7.3727  -16.6503   25.6161 O   0  0  0  0  0  0  0  0  0  0  0  0
    9.6179  -16.3966   25.7281 N   0  0  0  0  0  0  0  0  0  0  0  0
    9.7682  -17.6430   26.3942 C   0  0  1  0  0  0  0  0  0  0  0  0
   10.6556  -18.6381   25.6815 C   0  0  0  0  0  0  0  0  0  0  0  0
   10.2855  -18.7725   24.2269 C   0  0  0  0  0  0  0  0  0  0  0  0
   11.2196  -19.6799   23.4681 C   0  0  0  0  0  0  0  0  0  0  0  0
   10.7425  -19.8128   22.0393 C   0  0  0  0  0  0  0  0  0  0  0  0
   11.6410  -20.6375   21.2626 N   0  0  0  0  0  0  0  0  0  0  0  0
   10.2242  -17.4783   27.8054 C   0  0  0  0  0  0  0  0  0  0  0  0
   10.3395  -18.4655   28.5397 O   0  0  0  0  0  0  0  0  0  0  0  0
   10.5259  -16.1987   28.3091 O   0  0  0  0  0  0  0  0  0  0  0  0
  2  9  1  0
  2  1  1  1
  3  2  1  0
  4  3  1  0
  4  5  2  0
  6  5  1  0
  7  6  1  0
  8  7  2  0
  8  4  1  0
  9 10  2  0
 12 13  1  6
 12 11  1  0
 14 12  1  0
 15 14  1  1
 16 15  1  0
 16  9  1  0
 17 15  1  0
 18 17  2  0
 19 17  1  0
 20 21  1  6
 20 19  1  0
 22 23  1  0
 22 21  1  0
 23 24  1  0
 24 25  1  0
 26 20  1  0
 26 28  1  0
 27 26  2  0
M  END
$$$$
