HLK.pdb
     RDKit          3D

 28 28  0  0  1  0  0  0  0  0999 V2000
   10.5907  -15.3112   21.3629 N   0  0  0  0  0  0  0  0  0  0  0  0
    9.3901  -14.7332   21.9261 C   0  0  1  0  0  0  0  0  0  0  0  0
    8.2114  -15.3860   21.2575 C   0  0  0  0  0  0  0  0  0  0  0  0
    7.9304  -14.6250   20.0110 C   0  0  0  0  0  0  0  0  0  0  0  0
    8.6185  -13.5416   19.5064 C   0  0  0  0  0  0  0  0  0  0  0  0
    8.0465  -13.1415   18.3559 N   0  0  0  0  0  0  0  0  0  0  0  0
    6.9972  -13.9621   18.1221 C   0  0  0  0  0  0  0  0  0  0  0  0
    6.9316  -14.8562   19.1246 N   0  0  0  0  0  0  0  0  0  0  0  0
    9.3776  -14.9207   23.4018 C   0  0  0  0  0  0  0  0  0  0  0  0
   10.4172  -15.3519   24.0126 O   0  0  0  0  0  0  0  0  0  0  0  0
    5.5388  -11.7435   26.2626 C   0  0  0  0  0  0  0  0  0  0  0  0
    6.8610  -12.3769   25.9636 C   0  0  1  0  0  0  0  0  0  0  0  0
    7.9677  -11.7701   26.8343 C   0  0  0  0  0  0  0  0  0  0  0  0
    6.9358  -13.8385   25.8963 C   0  0  0  0  0  0  0  0  0  0  0  0
    8.1721  -14.5696   25.6091 C   0  0  2  0  0  0  0  0  0  0  0  0
    8.2139  -14.6200   24.1195 N   0  0  0  0  0  0  0  0  0  0  0  0
    8.3594  -15.9339   26.0709 C   0  0  0  0  0  0  0  0  0  0  0  0
    8.4217  -16.2204   27.2793 O   0  0  0  0  0  0  0  0  0  0  0  0
    8.4871  -17.0333   25.1692 N   0  0  0  0  0  0  0  0  0  0  0  0
    8.8038  -18.3388   25.6331 C   0  0  1  0  0  0  0  0  0  0  0  0
    9.0129  -19.3644   24.5420 C   0  0  0  0  0  0  0  0  0  0  0  0
    9.3464  -20.7202   25.1087 C   0  0  0  0  0  0  0  0  0  0  0  0
    9.5903  -21.7555   24.0409 C   0  0  0  0  0  0  0  0  0  0  0  0
    9.9439  -23.0748   24.6897 C   0  0  0  0  0  0  0  0  0  0  0  0
   10.1452  -24.1078   23.6982 N   0  0  0  0  0  0  0  0  0  0  0  0
    9.9729  -18.3410   26.5603 C   0  0  0  0  0  0  0  0  0  0  0  0
    9.9465  -19.0223   27.5909 O   0  0  0  0  0  0  0  0  0  0  0  0
   11.1124  -17.5678   26.2676 O   0  0  0  0  0  0  0  0  0  0  0  0
  2  9  1  0
  2  1  1  6
  3  2  1  0
  4  3  1  0
  4  5  2  0
  6  5  1  0
  7  6  1  0
  8  7  2  0
  8  4  1  0
  9 10  2  0
 12 13  1  1
 12 11  1  0
 14 12  1  0
 15 14  1  6
 16 15  1  0
 16  9  1  0
 17 15  1  0
 18 17  2  0
 19 17  1  0
 20 21  1  6
 20 19  1  0
 22 23  1  0
 22 21  1  0
 23 24  1  0
 24 25  1  0
 26 20  1  0
 26 28  1  0
 27 26  2  0
M  END
$$$$
