HLK.pdb
     RDKit          3D

 28 28  0  0  1  0  0  0  0  0999 V2000
    8.1735  -16.5690   21.1993 N   0  0  0  0  0  0  0  0  0  0  0  0
    9.5752  -16.3080   21.4439 C   0  0  1  0  0  0  0  0  0  0  0  0
   10.0936  -15.4838   20.2975 C   0  0  0  0  0  0  0  0  0  0  0  0
    9.9931  -16.3175   19.0701 C   0  0  0  0  0  0  0  0  0  0  0  0
   10.0712  -17.6907   18.9698 C   0  0  0  0  0  0  0  0  0  0  0  0
    9.9321  -18.0564   17.6823 N   0  0  0  0  0  0  0  0  0  0  0  0
    9.7657  -16.9258   16.9590 C   0  0  0  0  0  0  0  0  0  0  0  0
    9.8033  -15.8785   17.8020 N   0  0  0  0  0  0  0  0  0  0  0  0
    9.7455  -15.6238   22.7539 C   0  0  0  0  0  0  0  0  0  0  0  0
   10.9114  -15.3021   23.1742 O   0  0  0  0  0  0  0  0  0  0  0  0
    8.0700  -11.9835   26.5890 C   0  0  0  0  0  0  0  0  0  0  0  0
    7.2056  -13.1477   26.2201 C   0  0  1  0  0  0  0  0  0  0  0  0
    5.7210  -12.7702   26.2887 C   0  0  0  0  0  0  0  0  0  0  0  0
    7.5375  -13.9092   25.0133 C   0  0  0  0  0  0  0  0  0  0  0  0
    8.6982  -14.7971   24.9146 C   0  0  2  0  0  0  0  0  0  0  0  0
    8.6143  -15.3338   23.5260 N   0  0  0  0  0  0  0  0  0  0  0  0
    8.8378  -15.9469   25.7910 C   0  0  0  0  0  0  0  0  0  0  0  0
    8.0977  -16.9418   25.6995 O   0  0  0  0  0  0  0  0  0  0  0  0
    9.8305  -16.0089   26.8152 N   0  0  0  0  0  0  0  0  0  0  0  0
   10.2409  -17.2491   27.3748 C   0  0  1  0  0  0  0  0  0  0  0  0
   11.2920  -17.9864   26.5764 C   0  0  0  0  0  0  0  0  0  0  0  0
   11.7211  -19.2582   27.2611 C   0  0  0  0  0  0  0  0  0  0  0  0
   12.7583  -20.0216   26.4782 C   0  0  0  0  0  0  0  0  0  0  0  0
   13.0911  -21.3067   27.2024 C   0  0  0  0  0  0  0  0  0  0  0  0
   14.1113  -22.0533   26.5006 N   0  0  0  0  0  0  0  0  0  0  0  0
   10.6872  -17.1097   28.7918 C   0  0  0  0  0  0  0  0  0  0  0  0
   10.9185  -15.9908   29.2625 O   0  0  0  0  0  0  0  0  0  0  0  0
   10.8475  -18.2506   29.6010 O   0  0  0  0  0  0  0  0  0  0  0  0
  2  9  1  0
  2  1  1  6
  3  2  1  0
  4  3  1  0
  4  5  2  0
  6  5  1  0
  7  6  1  0
  8  7  2  0
  8  4  1  0
  9 10  2  0
 12 13  1  6
 12 11  1  0
 14 12  1  0
 15 14  1  1
 16 15  1  0
 16  9  1  0
 17 15  1  0
 18 17  2  0
 19 17  1  0
 20 21  1  6
 20 19  1  0
 22 23  1  0
 22 21  1  0
 23 24  1  0
 24 25  1  0
 26 20  1  0
 26 28  1  0
 27 26  2  0
M  END
$$$$
