HLK.pdb
     RDKit          3D

 28 28  0  0  1  0  0  0  0  0999 V2000
   10.5337  -14.2227   20.3652 N   0  0  0  0  0  0  0  0  0  0  0  0
    9.1987  -14.2624   20.9210 C   0  0  1  0  0  0  0  0  0  0  0  0
    8.4371  -15.3436   20.2044 C   0  0  0  0  0  0  0  0  0  0  0  0
    8.1214  -14.8363   18.8425 C   0  0  0  0  0  0  0  0  0  0  0  0
    8.4912  -13.6328   18.2798 C   0  0  0  0  0  0  0  0  0  0  0  0
    8.0058  -13.5537   17.0273 N   0  0  0  0  0  0  0  0  0  0  0  0
    7.3280  -14.6990   16.7859 C   0  0  0  0  0  0  0  0  0  0  0  0
    7.4010  -15.4700   17.8854 N   0  0  0  0  0  0  0  0  0  0  0  0
    9.2641  -14.4954   22.3888 C   0  0  0  0  0  0  0  0  0  0  0  0
   10.3023  -15.0256   22.9187 O   0  0  0  0  0  0  0  0  0  0  0  0
    7.6483  -12.5470   27.4218 C   0  0  0  0  0  0  0  0  0  0  0  0
    6.6690  -13.1756   26.4814 C   0  0  1  0  0  0  0  0  0  0  0  0
    5.2867  -12.5255   26.6157 C   0  0  0  0  0  0  0  0  0  0  0  0
    7.0669  -13.3681   25.0846 C   0  0  0  0  0  0  0  0  0  0  0  0
    8.2075  -14.1922   24.6780 C   0  0  2  0  0  0  0  0  0  0  0  0
    8.1755  -14.1281   23.1887 N   0  0  0  0  0  0  0  0  0  0  0  0
    8.2755  -15.6006   25.0265 C   0  0  0  0  0  0  0  0  0  0  0  0
    7.3200  -16.3745   24.8416 O   0  0  0  0  0  0  0  0  0  0  0  0
    9.4410  -16.1873   25.6059 N   0  0  0  0  0  0  0  0  0  0  0  0
    9.4268  -17.5134   26.1166 C   0  0  1  0  0  0  0  0  0  0  0  0
   10.2328  -18.5091   25.3137 C   0  0  0  0  0  0  0  0  0  0  0  0
   10.0973  -18.2696   23.8321 C   0  0  0  0  0  0  0  0  0  0  0  0
   10.8384  -19.2891   23.0056 C   0  0  0  0  0  0  0  0  0  0  0  0
   10.6260  -18.9976   21.5371 C   0  0  0  0  0  0  0  0  0  0  0  0
   11.4140  -19.8831   20.7090 N   0  0  0  0  0  0  0  0  0  0  0  0
    9.8348  -17.5712   27.5508 C   0  0  0  0  0  0  0  0  0  0  0  0
    9.7951  -18.6430   28.1647 O   0  0  0  0  0  0  0  0  0  0  0  0
   10.2673  -16.4066   28.2132 O   0  0  0  0  0  0  0  0  0  0  0  0
  2  9  1  0
  2  1  1  6
  3  2  1  0
  4  3  1  0
  4  5  2  0
  6  5  1  0
  7  6  1  0
  8  7  2  0
  8  4  1  0
  9 10  2  0
 12 13  1  6
 12 11  1  0
 14 12  1  0
 15 14  1  1
 16 15  1  0
 16  9  1  0
 17 15  1  0
 18 17  2  0
 19 17  1  0
 20 21  1  6
 20 19  1  0
 22 23  1  0
 22 21  1  0
 23 24  1  0
 24 25  1  0
 26 20  1  0
 26 28  1  0
 27 26  2  0
M  END
$$$$
