HLK.pdb
     RDKit          3D

 28 28  0  0  1  0  0  0  0  0999 V2000
   10.7973  -15.2996   20.7661 N   0  0  0  0  0  0  0  0  0  0  0  0
    9.6006  -14.7443   21.3595 C   0  0  1  0  0  0  0  0  0  0  0  0
    8.4174  -15.3935   20.6953 C   0  0  0  0  0  0  0  0  0  0  0  0
    8.0025  -14.5145   19.5697 C   0  0  0  0  0  0  0  0  0  0  0  0
    8.5915  -13.3402   19.1502 C   0  0  0  0  0  0  0  0  0  0  0  0
    7.9135  -12.8480   18.0971 N   0  0  0  0  0  0  0  0  0  0  0  0
    6.8949  -13.7001   17.8410 C   0  0  0  0  0  0  0  0  0  0  0  0
    6.9533  -14.7048   18.7332 N   0  0  0  0  0  0  0  0  0  0  0  0
    9.6124  -14.9626   22.8310 C   0  0  0  0  0  0  0  0  0  0  0  0
   10.6957  -15.2841   23.4333 O   0  0  0  0  0  0  0  0  0  0  0  0
    7.8916  -12.2619   27.3352 C   0  0  0  0  0  0  0  0  0  0  0  0
    6.9199  -12.9423   26.4233 C   0  0  1  0  0  0  0  0  0  0  0  0
    5.6328  -12.1207   26.2840 C   0  0  0  0  0  0  0  0  0  0  0  0
    7.4061  -13.4488   25.1374 C   0  0  0  0  0  0  0  0  0  0  0  0
    8.3963  -14.5214   25.0162 C   0  0  2  0  0  0  0  0  0  0  0  0
    8.4231  -14.8127   23.5542 N   0  0  0  0  0  0  0  0  0  0  0  0
    8.2044  -15.7963   25.6849 C   0  0  0  0  0  0  0  0  0  0  0  0
    8.0531  -15.8812   26.9162 O   0  0  0  0  0  0  0  0  0  0  0  0
    8.1798  -17.0341   24.9739 N   0  0  0  0  0  0  0  0  0  0  0  0
    9.1275  -18.0595   25.2390 C   0  0  1  0  0  0  0  0  0  0  0  0
   10.2418  -18.1689   24.2231 C   0  0  0  0  0  0  0  0  0  0  0  0
   11.1652  -19.3193   24.5311 C   0  0  0  0  0  0  0  0  0  0  0  0
   12.2590  -19.4805   23.5067 C   0  0  0  0  0  0  0  0  0  0  0  0
   12.7854  -20.8974   23.5507 C   0  0  0  0  0  0  0  0  0  0  0  0
   13.9696  -21.0408   22.7334 N   0  0  0  0  0  0  0  0  0  0  0  0
    9.7027  -17.9562   26.6120 C   0  0  0  0  0  0  0  0  0  0  0  0
    9.5234  -18.8648   27.4301 O   0  0  0  0  0  0  0  0  0  0  0  0
   10.4527  -16.8243   26.9840 O   0  0  0  0  0  0  0  0  0  0  0  0
  2  9  1  0
  2  1  1  6
  3  2  1  0
  4  3  1  0
  4  5  2  0
  6  5  1  0
  7  6  1  0
  8  7  2  0
  8  4  1  0
  9 10  2  0
 12 13  1  6
 12 11  1  0
 14 12  1  0
 15 14  1  6
 16 15  1  0
 16  9  1  0
 17 15  1  0
 18 17  2  0
 19 17  1  0
 20 21  1  6
 20 19  1  0
 22 23  1  0
 22 21  1  0
 23 24  1  0
 24 25  1  0
 26 20  1  0
 26 28  1  0
 27 26  2  0
M  END
$$$$
