YWI.pdb
     RDKit          3D

 35 37  0  0  1  0  0  0  0  0999 V2000
   30.1291  -16.9472  -18.4018 O   0  0  0  0  0  0  0  0  0  0  0  0
   29.3209  -17.5697  -17.4287 C   0  0  0  0  0  0  0  0  0  0  0  0
   29.5590  -17.3709  -16.0876 C   0  0  0  0  0  0  0  0  0  0  0  0
   28.7399  -18.0023  -15.1672 C   0  0  0  0  0  0  0  0  0  0  0  0
   27.7098  -18.8110  -15.5709 C   0  0  0  0  0  0  0  0  0  0  0  0
   26.8559  -19.4668  -14.5686 C   0  0  0  0  0  0  0  0  0  0  0  0
   27.6218  -20.6604  -14.0127 C   0  0  2  0  0  0  0  0  0  0  0  0
   27.5720  -21.6851  -15.0410 N   0  0  0  0  0  0  0  0  0  0  0  0
   26.8850  -21.1012  -12.8051 C   0  0  0  0  0  0  0  0  0  0  0  0
   25.9346  -21.9088  -12.9391 O   0  0  0  0  0  0  0  0  0  0  0  0
   27.4750  -19.0070  -16.9046 C   0  0  0  0  0  0  0  0  0  0  0  0
   28.2905  -18.3786  -17.8311 C   0  0  0  0  0  0  0  0  0  0  0  0
   27.2528  -20.6187  -11.5498 N   0  0  0  0  0  0  0  0  0  0  0  0
   26.5389  -20.9915  -10.3089 C   0  0  1  0  0  0  0  0  0  0  0  0
   27.4555  -20.5536   -9.2012 C   0  0  0  0  0  0  0  0  0  0  0  0
   26.8617  -20.6000   -7.8549 C   0  0  0  0  0  0  0  0  0  0  0  0
   25.6124  -21.0548   -7.5177 C   0  0  0  0  0  0  0  0  0  0  0  0
   25.4259  -20.9180   -6.1968 N   0  0  0  0  0  0  0  0  0  0  0  0
   26.5353  -20.3773   -5.6475 C   0  0  0  0  0  0  0  0  0  0  0  0
   26.8418  -20.0403   -4.3309 C   0  0  0  0  0  0  0  0  0  0  0  0
   28.0700  -19.4913   -4.0298 C   0  0  0  0  0  0  0  0  0  0  0  0
   28.9700  -19.2897   -5.0549 C   0  0  0  0  0  0  0  0  0  0  0  0
   28.6594  -19.6258   -6.3552 C   0  0  0  0  0  0  0  0  0  0  0  0
   27.4244  -20.1796   -6.6686 C   0  0  0  0  0  0  0  0  0  0  0  0
   25.2487  -20.2868  -10.3745 C   0  0  0  0  0  0  0  0  0  0  0  0
   25.1988  -19.0273  -10.6351 O   0  0  0  0  0  0  0  0  0  0  0  0
   20.8212  -20.3576  -13.6621 C   0  0  0  0  0  0  0  0  0  0  0  0
   21.7459  -19.4714  -12.9082 C   0  0  0  0  0  0  0  0  0  0  0  0
   22.8595  -20.1139  -12.1792 C   0  0  2  0  0  0  0  0  0  0  0  0
   23.4066  -21.3036  -12.9382 C   0  0  0  0  0  0  0  0  0  0  0  0
   22.7349  -20.2952  -10.7123 C   0  0  2  0  0  0  0  0  0  0  0  0
   23.9795  -20.8794  -10.1738 N   0  0  0  0  0  0  0  0  0  0  0  0
   21.5574  -20.9843  -10.2051 C   0  0  0  0  0  0  0  0  0  0  0  0
   21.4478  -22.3132   -9.8559 O   0  0  0  0  0  0  0  0  0  0  0  0
   20.4667  -20.3201  -10.0500 O   0  0  0  0  0  0  0  0  0  0  0  0
  2 12  2  0
  2  1  1  0
  3  2  1  0
  4  5  1  0
  4  3  2  0
  5 11  2  0
  6  5  1  0
  7  6  1  0
  7  8  1  6
  9 13  1  0
  9  7  1  0
 10  9  2  0
 11 12  1  0
 14 25  1  0
 14 13  1  0
 14 15  1  1
 16 17  2  0
 16 15  1  0
 18 17  1  0
 19 24  2  0
 19 18  1  0
 20 19  1  0
 21 22  1  0
 21 20  2  0
 22 23  2  0
 23 24  1  0
 24 16  1  0
 25 32  1  0
 26 25  2  0
 28 27  1  0
 29 28  1  0
 29 30  1  6
 31 33  1  0
 31 29  1  0
 31 32  1  6
 33 34  1  0
 35 33  2  0
M  END
$$$$
