YWI.pdb
     RDKit          3D

 35 37  0  0  1  0  0  0  0  0999 V2000
   24.8643  -14.4989  -20.9423 O   0  0  0  0  0  0  0  0  0  0  0  0
   24.8183  -15.4869  -19.9376 C   0  0  0  0  0  0  0  0  0  0  0  0
   24.2763  -16.7254  -20.1963 C   0  0  0  0  0  0  0  0  0  0  0  0
   24.2521  -17.6650  -19.1797 C   0  0  0  0  0  0  0  0  0  0  0  0
   24.7546  -17.3794  -17.9371 C   0  0  0  0  0  0  0  0  0  0  0  0
   24.7159  -18.3994  -16.8779 C   0  0  0  0  0  0  0  0  0  0  0  0
   26.0358  -19.1591  -16.9137 C   0  0  2  0  0  0  0  0  0  0  0  0
   25.9601  -20.0439  -18.0632 N   0  0  0  0  0  0  0  0  0  0  0  0
   26.0979  -19.9438  -15.6584 C   0  0  0  0  0  0  0  0  0  0  0  0
   25.3838  -20.9694  -15.5516 O   0  0  0  0  0  0  0  0  0  0  0  0
   25.2929  -16.1474  -17.6824 C   0  0  0  0  0  0  0  0  0  0  0  0
   25.3204  -15.2025  -18.6946 C   0  0  0  0  0  0  0  0  0  0  0  0
   26.9393  -19.5373  -14.6237 N   0  0  0  0  0  0  0  0  0  0  0  0
   27.0528  -20.2769  -13.3475 C   0  0  1  0  0  0  0  0  0  0  0  0
   28.2226  -19.6435  -12.6480 C   0  0  0  0  0  0  0  0  0  0  0  0
   28.5677  -20.2496  -11.3516 C   0  0  0  0  0  0  0  0  0  0  0  0
   29.4756  -21.2521  -11.1232 C   0  0  0  0  0  0  0  0  0  0  0  0
   29.4974  -21.5493   -9.8158 N   0  0  0  0  0  0  0  0  0  0  0  0
   28.6151  -20.7575   -9.1679 C   0  0  0  0  0  0  0  0  0  0  0  0
   28.2671  -20.6741   -7.8214 C   0  0  0  0  0  0  0  0  0  0  0  0
   27.3180  -19.7620   -7.4119 C   0  0  0  0  0  0  0  0  0  0  0  0
   26.7340  -18.9490   -8.3603 C   0  0  0  0  0  0  0  0  0  0  0  0
   27.0837  -19.0375   -9.6907 C   0  0  0  0  0  0  0  0  0  0  0  0
   28.0391  -19.9535  -10.1132 C   0  0  0  0  0  0  0  0  0  0  0  0
   25.7522  -20.1060  -12.6806 C   0  0  0  0  0  0  0  0  0  0  0  0
   25.2037  -18.9447  -12.5951 O   0  0  0  0  0  0  0  0  0  0  0  0
   20.7702  -20.1047  -13.5829 C   0  0  0  0  0  0  0  0  0  0  0  0
   21.9023  -19.8778  -12.6470 C   0  0  0  0  0  0  0  0  0  0  0  0
   22.5707  -21.0710  -12.0870 C   0  0  2  0  0  0  0  0  0  0  0  0
   21.5676  -22.0626  -11.5378 C   0  0  0  0  0  0  0  0  0  0  0  0
   23.7928  -20.8799  -11.2683 C   0  0  2  0  0  0  0  0  0  0  0  0
   24.9908  -21.1424  -12.0905 N   0  0  0  0  0  0  0  0  0  0  0  0
   23.8680  -21.5568   -9.9820 C   0  0  0  0  0  0  0  0  0  0  0  0
   24.8158  -22.4673   -9.5667 O   0  0  0  0  0  0  0  0  0  0  0  0
   22.9666  -21.3129   -9.0972 O   0  0  0  0  0  0  0  0  0  0  0  0
  2 12  2  0
  2  1  1  0
  3  2  1  0
  4  5  1  0
  4  3  2  0
  5 11  2  0
  6  5  1  0
  7  6  1  0
  7  8  1  6
  9 13  1  0
  9  7  1  0
 10  9  2  0
 11 12  1  0
 14 25  1  0
 14 13  1  0
 14 15  1  1
 16 17  2  0
 16 15  1  0
 18 17  1  0
 19 24  2  0
 19 18  1  0
 20 19  1  0
 21 22  1  0
 21 20  2  0
 22 23  2  0
 23 24  1  0
 24 16  1  0
 25 32  1  0
 26 25  2  0
 28 27  1  0
 29 28  1  0
 29 30  1  1
 31 33  1  0
 31 29  1  0
 31 32  1  6
 33 34  1  0
 35 33  2  0
M  END
$$$$
