YWI.pdb
     RDKit          3D

 35 37  0  0  1  0  0  0  0  0999 V2000
   30.9760  -27.2427  -17.3805 O   0  0  0  0  0  0  0  0  0  0  0  0
   30.3630  -26.0360  -16.9856 C   0  0  0  0  0  0  0  0  0  0  0  0
   28.9942  -25.9499  -16.8696 C   0  0  0  0  0  0  0  0  0  0  0  0
   28.4356  -24.7449  -16.4787 C   0  0  0  0  0  0  0  0  0  0  0  0
   29.2192  -23.6532  -16.2101 C   0  0  0  0  0  0  0  0  0  0  0  0
   28.5959  -22.3869  -15.7954 C   0  0  0  0  0  0  0  0  0  0  0  0
   27.7959  -21.8522  -16.9763 C   0  0  2  0  0  0  0  0  0  0  0  0
   28.7525  -21.1827  -17.8404 N   0  0  0  0  0  0  0  0  0  0  0  0
   26.8309  -20.8769  -16.4171 C   0  0  0  0  0  0  0  0  0  0  0  0
   27.2327  -19.7217  -16.1387 O   0  0  0  0  0  0  0  0  0  0  0  0
   30.5797  -23.7413  -16.3262 C   0  0  0  0  0  0  0  0  0  0  0  0
   31.1456  -24.9436  -16.7167 C   0  0  0  0  0  0  0  0  0  0  0  0
   25.5038  -21.2506  -16.2096 N   0  0  0  0  0  0  0  0  0  0  0  0
   24.5045  -20.3472  -15.5982 C   0  0  1  0  0  0  0  0  0  0  0  0
   23.3680  -20.3224  -16.5814 C   0  0  0  0  0  0  0  0  0  0  0  0
   22.1607  -19.6238  -16.1107 C   0  0  0  0  0  0  0  0  0  0  0  0
   22.0829  -18.3433  -15.6253 C   0  0  0  0  0  0  0  0  0  0  0  0
   20.8167  -18.0705  -15.2783 N   0  0  0  0  0  0  0  0  0  0  0  0
   20.0476  -19.1532  -15.5260 C   0  0  0  0  0  0  0  0  0  0  0  0
   18.6848  -19.3774  -15.3428 C   0  0  0  0  0  0  0  0  0  0  0  0
   18.1365  -20.5955  -15.6834 C   0  0  0  0  0  0  0  0  0  0  0  0
   18.9650  -21.5683  -16.2021 C   0  0  0  0  0  0  0  0  0  0  0  0
   20.3124  -21.3388  -16.3805 C   0  0  0  0  0  0  0  0  0  0  0  0
   20.8742  -20.1145  -16.0403 C   0  0  0  0  0  0  0  0  0  0  0  0
   24.1916  -20.9409  -14.2886 C   0  0  0  0  0  0  0  0  0  0  0  0
   24.0567  -22.2143  -14.1583 O   0  0  0  0  0  0  0  0  0  0  0  0
   26.8649  -20.8430   -9.8504 C   0  0  0  0  0  0  0  0  0  0  0  0
   25.8693  -21.1868  -10.8989 C   0  0  0  0  0  0  0  0  0  0  0  0
   24.5062  -20.6359  -10.7485 C   0  0  2  0  0  0  0  0  0  0  0  0
   23.9741  -20.8461   -9.3472 C   0  0  0  0  0  0  0  0  0  0  0  0
   23.5284  -20.8559  -11.8420 C   0  0  2  0  0  0  0  0  0  0  0  0
   24.0158  -20.2214  -13.0830 N   0  0  0  0  0  0  0  0  0  0  0  0
   22.1324  -20.5312  -11.5878 C   0  0  0  0  0  0  0  0  0  0  0  0
   21.4776  -19.3543  -11.8806 O   0  0  0  0  0  0  0  0  0  0  0  0
   21.3822  -21.4106  -11.0234 O   0  0  0  0  0  0  0  0  0  0  0  0
  2 12  2  0
  2  1  1  0
  3  2  1  0
  4  5  1  0
  4  3  2  0
  5 11  2  0
  6  5  1  0
  7  6  1  0
  7  8  1  6
  9 13  1  0
  9  7  1  0
 10  9  2  0
 11 12  1  0
 14 25  1  0
 14 13  1  0
 14 15  1  6
 16 17  2  0
 16 15  1  0
 18 17  1  0
 19 24  2  0
 19 18  1  0
 20 19  1  0
 21 22  1  0
 21 20  2  0
 22 23  2  0
 23 24  1  0
 24 16  1  0
 25 32  1  0
 26 25  2  0
 28 27  1  0
 29 28  1  0
 29 30  1  1
 31 33  1  0
 31 29  1  0
 31 32  1  6
 33 34  1  0
 35 33  2  0
M  END
$$$$
