YWI.pdb
     RDKit          3D

 35 37  0  0  1  0  0  0  0  0999 V2000
   23.4840  -17.0845  -17.3204 O   0  0  0  0  0  0  0  0  0  0  0  0
   23.4471  -17.9619  -16.2175 C   0  0  0  0  0  0  0  0  0  0  0  0
   23.1122  -17.5000  -14.9648 C   0  0  0  0  0  0  0  0  0  0  0  0
   23.0887  -18.3973  -13.9108 C   0  0  0  0  0  0  0  0  0  0  0  0
   23.3907  -19.7209  -14.0984 C   0  0  0  0  0  0  0  0  0  0  0  0
   23.3554  -20.6501  -12.9586 C   0  0  0  0  0  0  0  0  0  0  0  0
   24.7163  -20.6023  -12.2757 C   0  0  2  0  0  0  0  0  0  0  0  0
   25.5955  -21.4416  -13.0710 N   0  0  0  0  0  0  0  0  0  0  0  0
   24.5248  -21.1838  -10.9264 C   0  0  0  0  0  0  0  0  0  0  0  0
   24.4630  -22.4311  -10.8098 O   0  0  0  0  0  0  0  0  0  0  0  0
   23.7233  -20.1776  -15.3446 C   0  0  0  0  0  0  0  0  0  0  0  0
   23.7490  -19.2856  -16.4038 C   0  0  0  0  0  0  0  0  0  0  0  0
   24.4170  -20.3472   -9.8163 N   0  0  0  0  0  0  0  0  0  0  0  0
   24.3486  -20.8615   -8.4308 C   0  0  1  0  0  0  0  0  0  0  0  0
   25.0754  -19.8326   -7.6110 C   0  0  0  0  0  0  0  0  0  0  0  0
   26.5391  -19.9871   -7.5845 C   0  0  0  0  0  0  0  0  0  0  0  0
   27.3650  -20.2224   -8.6540 C   0  0  0  0  0  0  0  0  0  0  0  0
   28.6329  -20.3227   -8.2290 N   0  0  0  0  0  0  0  0  0  0  0  0
   28.6641  -20.1572   -6.8887 C   0  0  0  0  0  0  0  0  0  0  0  0
   29.7222  -20.1712   -5.9823 C   0  0  0  0  0  0  0  0  0  0  0  0
   29.4802  -19.9722   -4.6399 C   0  0  0  0  0  0  0  0  0  0  0  0
   28.1805  -19.7625   -4.2293 C   0  0  0  0  0  0  0  0  0  0  0  0
   27.1390  -19.7501   -5.1321 C   0  0  0  0  0  0  0  0  0  0  0  0
   27.3727  -19.9496   -6.4870 C   0  0  0  0  0  0  0  0  0  0  0  0
   22.9134  -21.0017   -8.1372 C   0  0  0  0  0  0  0  0  0  0  0  0
   22.1010  -20.0246   -8.3421 O   0  0  0  0  0  0  0  0  0  0  0  0
   17.9973  -24.1597   -9.0483 C   0  0  0  0  0  0  0  0  0  0  0  0
   18.7363  -23.4710   -7.9583 C   0  0  0  0  0  0  0  0  0  0  0  0
   20.1743  -23.2064   -8.1738 C   0  0  2  0  0  0  0  0  0  0  0  0
   20.9421  -24.4859   -8.4278 C   0  0  0  0  0  0  0  0  0  0  0  0
   20.8519  -22.2186   -7.2991 C   0  0  2  0  0  0  0  0  0  0  0  0
   22.2907  -22.1653   -7.6269 N   0  0  0  0  0  0  0  0  0  0  0  0
   20.6336  -22.3123   -5.8631 C   0  0  0  0  0  0  0  0  0  0  0  0
   19.4631  -22.0760   -5.1747 O   0  0  0  0  0  0  0  0  0  0  0  0
   21.6172  -22.6483   -5.1051 O   0  0  0  0  0  0  0  0  0  0  0  0
  2 12  2  0
  2  1  1  0
  3  2  1  0
  4  5  1  0
  4  3  2  0
  5 11  2  0
  6  5  1  0
  7  6  1  0
  7  8  1  6
  9 13  1  0
  9  7  1  0
 10  9  2  0
 11 12  1  0
 14 25  1  0
 14 13  1  0
 14 15  1  1
 16 17  2  0
 16 15  1  0
 18 17  1  0
 19 24  2  0
 19 18  1  0
 20 19  1  0
 21 22  1  0
 21 20  2  0
 22 23  2  0
 23 24  1  0
 24 16  1  0
 25 32  1  0
 26 25  2  0
 28 27  1  0
 29 28  1  0
 29 30  1  1
 31 33  1  0
 31 29  1  0
 31 32  1  1
 33 34  1  0
 35 33  2  0
M  END
$$$$
