YWI.pdb
     RDKit          3D

 35 37  0  0  1  0  0  0  0  0999 V2000
   30.8558  -18.5443  -18.5957 O   0  0  0  0  0  0  0  0  0  0  0  0
   30.0477  -18.4822  -17.4422 C   0  0  0  0  0  0  0  0  0  0  0  0
   30.0575  -19.5067  -16.5230 C   0  0  0  0  0  0  0  0  0  0  0  0
   29.2478  -19.4032  -15.4048 C   0  0  0  0  0  0  0  0  0  0  0  0
   28.4486  -18.3078  -15.2061 C   0  0  0  0  0  0  0  0  0  0  0  0
   27.6004  -18.2263  -14.0070 C   0  0  0  0  0  0  0  0  0  0  0  0
   26.7775  -19.5059  -13.9301 C   0  0  2  0  0  0  0  0  0  0  0  0
   25.8542  -19.4587  -15.0505 N   0  0  0  0  0  0  0  0  0  0  0  0
   26.0390  -19.4487  -12.6468 C   0  0  0  0  0  0  0  0  0  0  0  0
   25.2468  -18.4967  -12.4481 O   0  0  0  0  0  0  0  0  0  0  0  0
   28.4406  -17.2905  -16.1212 C   0  0  0  0  0  0  0  0  0  0  0  0
   29.2480  -17.3873  -17.2424 C   0  0  0  0  0  0  0  0  0  0  0  0
   26.2316  -20.4418  -11.6875 N   0  0  0  0  0  0  0  0  0  0  0  0
   25.5164  -20.4525  -10.3924 C   0  0  1  0  0  0  0  0  0  0  0  0
   24.5163  -21.5667  -10.5238 C   0  0  0  0  0  0  0  0  0  0  0  0
   23.2987  -21.2170  -11.2736 C   0  0  0  0  0  0  0  0  0  0  0  0
   23.0634  -21.4206  -12.6095 C   0  0  0  0  0  0  0  0  0  0  0  0
   21.8488  -20.9506  -12.9285 N   0  0  0  0  0  0  0  0  0  0  0  0
   21.2696  -20.4355  -11.8221 C   0  0  0  0  0  0  0  0  0  0  0  0
   20.0281  -19.8343  -11.6261 C   0  0  0  0  0  0  0  0  0  0  0  0
   19.6721  -19.3850  -10.3724 C   0  0  0  0  0  0  0  0  0  0  0  0
   20.5678  -19.5464   -9.3364 C   0  0  0  0  0  0  0  0  0  0  0  0
   21.7943  -20.1422   -9.5383 C   0  0  0  0  0  0  0  0  0  0  0  0
   22.1622  -20.5982  -10.7980 C   0  0  0  0  0  0  0  0  0  0  0  0
   26.5580  -20.6579   -9.3734 C   0  0  0  0  0  0  0  0  0  0  0  0
   27.5281  -21.4782   -9.5795 O   0  0  0  0  0  0  0  0  0  0  0  0
   28.9945  -17.2004   -5.8491 C   0  0  0  0  0  0  0  0  0  0  0  0
   28.6421  -18.3558   -6.7150 C   0  0  0  0  0  0  0  0  0  0  0  0
   27.8417  -19.4403   -6.1087 C   0  0  2  0  0  0  0  0  0  0  0  0
   28.3960  -19.8529   -4.7620 C   0  0  0  0  0  0  0  0  0  0  0  0
   27.3812  -20.5514   -6.9767 C   0  0  2  0  0  0  0  0  0  0  0  0
   26.6149  -20.0099   -8.1167 N   0  0  0  0  0  0  0  0  0  0  0  0
   26.6900  -21.6686   -6.3499 C   0  0  0  0  0  0  0  0  0  0  0  0
   25.3627  -22.0157   -6.4829 O   0  0  0  0  0  0  0  0  0  0  0  0
   27.3504  -22.4500   -5.5702 O   0  0  0  0  0  0  0  0  0  0  0  0
  2 12  2  0
  2  1  1  0
  3  2  1  0
  4  5  1  0
  4  3  2  0
  5 11  2  0
  6  5  1  0
  7  6  1  0
  7  8  1  6
  9 13  1  0
  9  7  1  0
 10  9  2  0
 11 12  1  0
 14 25  1  0
 14 13  1  0
 14 15  1  6
 16 17  2  0
 16 15  1  0
 18 17  1  0
 19 24  2  0
 19 18  1  0
 20 19  1  0
 21 22  1  0
 21 20  2  0
 22 23  2  0
 23 24  1  0
 24 16  1  0
 25 32  1  0
 26 25  2  0
 28 27  1  0
 29 28  1  0
 29 30  1  1
 31 33  1  0
 31 29  1  0
 31 32  1  6
 33 34  1  0
 35 33  2  0
M  END
$$$$
