YWI.pdb
     RDKit          3D

 35 37  0  0  1  0  0  0  0  0999 V2000
   25.0024  -17.4885  -17.2480 O   0  0  0  0  0  0  0  0  0  0  0  0
   25.9510  -17.8708  -16.2776 C   0  0  0  0  0  0  0  0  0  0  0  0
   27.2756  -18.0300  -16.6164 C   0  0  0  0  0  0  0  0  0  0  0  0
   28.1723  -18.4063  -15.6309 C   0  0  0  0  0  0  0  0  0  0  0  0
   27.7614  -18.6189  -14.3409 C   0  0  0  0  0  0  0  0  0  0  0  0
   28.7385  -19.0166  -13.3158 C   0  0  0  0  0  0  0  0  0  0  0  0
   28.8842  -20.5318  -13.3734 C   0  0  2  0  0  0  0  0  0  0  0  0
   28.8909  -20.8823  -14.7830 N   0  0  0  0  0  0  0  0  0  0  0  0
   27.6850  -21.0903  -12.7059 C   0  0  0  0  0  0  0  0  0  0  0  0
   26.9065  -21.8151  -13.3706 O   0  0  0  0  0  0  0  0  0  0  0  0
   26.4441  -18.4600  -14.0066 C   0  0  0  0  0  0  0  0  0  0  0  0
   25.5414  -18.0837  -14.9873 C   0  0  0  0  0  0  0  0  0  0  0  0
   27.4397  -20.8066  -11.3630 N   0  0  0  0  0  0  0  0  0  0  0  0
   26.3894  -21.4931  -10.5793 C   0  0  1  0  0  0  0  0  0  0  0  0
   27.0283  -21.7586   -9.2450 C   0  0  0  0  0  0  0  0  0  0  0  0
   26.9710  -20.6323   -8.2989 C   0  0  0  0  0  0  0  0  0  0  0  0
   26.2108  -19.4961   -8.4114 C   0  0  0  0  0  0  0  0  0  0  0  0
   26.4446  -18.6935   -7.3629 N   0  0  0  0  0  0  0  0  0  0  0  0
   27.3517  -19.2796   -6.5513 C   0  0  0  0  0  0  0  0  0  0  0  0
   27.9207  -18.8612   -5.3504 C   0  0  0  0  0  0  0  0  0  0  0  0
   28.8408  -19.6629   -4.7094 C   0  0  0  0  0  0  0  0  0  0  0  0
   29.1746  -20.8711   -5.2842 C   0  0  0  0  0  0  0  0  0  0  0  0
   28.6073  -21.2782   -6.4727 C   0  0  0  0  0  0  0  0  0  0  0  0
   27.6791  -20.4773   -7.1262 C   0  0  0  0  0  0  0  0  0  0  0  0
   25.2487  -20.5638  -10.5576 C   0  0  0  0  0  0  0  0  0  0  0  0
   25.4320  -19.2939  -10.6595 O   0  0  0  0  0  0  0  0  0  0  0  0
   22.6824  -20.4269  -15.2057 C   0  0  0  0  0  0  0  0  0  0  0  0
   22.3209  -20.1186  -13.7975 C   0  0  0  0  0  0  0  0  0  0  0  0
   23.2078  -20.6427  -12.7378 C   0  0  2  0  0  0  0  0  0  0  0  0
   23.6925  -22.0399  -13.0604 C   0  0  0  0  0  0  0  0  0  0  0  0
   22.8351  -20.4078  -11.3214 C   0  0  2  0  0  0  0  0  0  0  0  0
   23.8894  -20.9367  -10.4332 N   0  0  0  0  0  0  0  0  0  0  0  0
   21.5099  -20.8220  -10.8844 C   0  0  0  0  0  0  0  0  0  0  0  0
   21.1392  -22.0477  -10.3744 O   0  0  0  0  0  0  0  0  0  0  0  0
   20.5377  -19.9836  -10.9666 O   0  0  0  0  0  0  0  0  0  0  0  0
  2 12  2  0
  2  1  1  0
  3  2  1  0
  4  5  1  0
  4  3  2  0
  5 11  2  0
  6  5  1  0
  7  6  1  0
  7  8  1  6
  9 13  1  0
  9  7  1  0
 10  9  2  0
 11 12  1  0
 14 25  1  0
 14 13  1  0
 14 15  1  1
 16 17  2  0
 16 15  1  0
 18 17  1  0
 19 24  2  0
 19 18  1  0
 20 19  1  0
 21 22  1  0
 21 20  2  0
 22 23  2  0
 23 24  1  0
 24 16  1  0
 25 32  1  0
 26 25  2  0
 28 27  1  0
 29 28  1  0
 29 30  1  1
 31 33  1  0
 31 29  1  0
 31 32  1  1
 33 34  1  0
 35 33  2  0
M  END
$$$$
