LKC.pdb
     RDKit          3D

 24 23  0  0  1  0  0  0  0  0999 V2000
   26.0486  -20.4043   -6.6936 C   0  0  0  0  0  0  0  0  0  0  0  0
   27.1782  -19.9934   -7.5923 C   0  0  2  0  0  0  0  0  0  0  0  0
   27.9707  -18.9178   -6.9243 C   0  0  0  0  0  0  0  0  0  0  0  0
   26.7195  -19.6319   -8.9806 C   0  0  0  0  0  0  0  0  0  0  0  0
   25.9739  -20.7351   -9.6644 C   0  0  2  0  0  0  0  0  0  0  0  0
   26.7359  -21.9180   -9.8820 N   0  0  0  0  0  0  0  0  0  0  0  0
   25.5115  -20.2263  -10.9823 C   0  0  0  0  0  0  0  0  0  0  0  0
   25.0955  -19.0507  -11.1111 O   0  0  0  0  0  0  0  0  0  0  0  0
   25.5236  -21.0502  -12.1404 N   0  0  0  0  0  0  0  0  0  0  0  0
   25.1056  -20.5256  -13.4641 C   0  0  1  0  0  0  0  0  0  0  0  0
   25.9613  -21.2444  -14.4810 C   0  0  0  0  0  0  0  0  0  0  0  0
   25.6863  -20.8686  -15.9052 C   0  0  0  0  0  0  0  0  0  0  0  0
   26.6728  -21.6945  -16.7514 C   0  0  0  0  0  0  0  0  0  0  0  0
   26.4632  -21.2585  -18.1855 C   0  0  0  0  0  0  0  0  0  0  0  0
   27.3056  -22.0660  -19.0373 N   0  0  0  0  0  0  0  0  0  0  0  0
   23.6610  -20.7680  -13.6060 C   0  0  0  0  0  0  0  0  0  0  0  0
   23.2224  -21.9406  -13.3490 O   0  0  0  0  0  0  0  0  0  0  0  0
   22.6843  -19.8365  -13.9974 N   0  0  0  0  0  0  0  0  0  0  0  0
   21.2633  -20.1215  -14.0660 C   0  0  1  0  0  0  0  0  0  0  0  0
   20.5536  -18.9387  -13.4227 C   0  0  0  0  0  0  0  0  0  0  0  0
   20.8321  -19.0401  -11.6238 S   0  0  0  0  0  0  0  0  0  0  0  0
   20.7909  -20.1916  -15.4730 C   0  0  0  0  0  0  0  0  0  0  0  0
   21.5158  -19.9041  -16.4513 O   0  0  0  0  0  0  0  0  0  0  0  0
   19.4874  -20.5950  -15.6940 O   0  0  0  0  0  0  0  0  0  0  0  0
  2  1  1  1
  3  2  1  0
  4  2  1  0
  5  6  1  6
  5  4  1  0
  7  5  1  0
  8  7  2  0
  9  7  1  0
 10 11  1  6
 10  9  1  0
 11 12  1  0
 12 13  1  0
 13 14  1  0
 14 15  1  0
 16 10  1  0
 17 16  2  0
 18 16  1  0
 19 22  1  0
 19 18  1  0
 20 21  1  0
 19 20  1  1
 22 24  1  0
 23 22  2  0
M  END
$$$$
