LKC.pdb
     RDKit          3D

 24 23  0  0  1  0  0  0  0  0999 V2000
   21.3838  -15.5747  -17.2479 C   0  0  0  0  0  0  0  0  0  0  0  0
   20.6056  -16.4923  -16.3507 C   0  0  2  0  0  0  0  0  0  0  0  0
   19.8928  -15.6816  -15.3183 C   0  0  0  0  0  0  0  0  0  0  0  0
   21.4483  -17.5992  -15.7734 C   0  0  0  0  0  0  0  0  0  0  0  0
   22.2893  -18.2983  -16.7954 C   0  0  2  0  0  0  0  0  0  0  0  0
   21.5611  -19.1317  -17.6911 N   0  0  0  0  0  0  0  0  0  0  0  0
   23.2809  -19.1389  -16.0743 C   0  0  0  0  0  0  0  0  0  0  0  0
   22.9457  -20.2274  -15.5506 O   0  0  0  0  0  0  0  0  0  0  0  0
   24.6400  -18.7412  -15.9524 N   0  0  0  0  0  0  0  0  0  0  0  0
   25.6434  -19.6163  -15.2970 C   0  0  1  0  0  0  0  0  0  0  0  0
   26.9921  -19.0393  -15.6586 C   0  0  0  0  0  0  0  0  0  0  0  0
   28.1632  -19.8365  -15.1703 C   0  0  0  0  0  0  0  0  0  0  0  0
   28.2813  -21.0339  -16.1313 C   0  0  0  0  0  0  0  0  0  0  0  0
   29.5096  -21.8031  -15.6948 C   0  0  0  0  0  0  0  0  0  0  0  0
   29.6386  -22.9731  -16.5324 N   0  0  0  0  0  0  0  0  0  0  0  0
   25.3542  -19.6264  -13.8539 C   0  0  0  0  0  0  0  0  0  0  0  0
   24.7140  -18.6344  -13.3645 O   0  0  0  0  0  0  0  0  0  0  0  0
   25.7062  -20.6255  -12.9306 N   0  0  0  0  0  0  0  0  0  0  0  0
   25.4481  -20.5490  -11.5048 C   0  0  1  0  0  0  0  0  0  0  0  0
   23.9527  -20.7671  -11.3238 C   0  0  0  0  0  0  0  0  0  0  0  0
   23.6235  -20.8744   -9.5339 S   0  0  0  0  0  0  0  0  0  0  0  0
   26.1333  -21.6434  -10.7696 C   0  0  0  0  0  0  0  0  0  0  0  0
   26.2451  -22.8042  -11.2225 O   0  0  0  0  0  0  0  0  0  0  0  0
   26.6666  -21.3486   -9.5289 O   0  0  0  0  0  0  0  0  0  0  0  0
  2  1  1  1
  3  2  1  0
  4  2  1  0
  5  6  1  6
  5  4  1  0
  7  5  1  0
  8  7  2  0
  9  7  1  0
 10 11  1  1
 10  9  1  0
 11 12  1  0
 12 13  1  0
 13 14  1  0
 14 15  1  0
 16 10  1  0
 17 16  2  0
 18 16  1  0
 19 22  1  0
 19 18  1  0
 20 21  1  0
 19 20  1  6
 22 24  1  0
 23 22  2  0
M  END
$$$$
