LKC.pdb
     RDKit          3D

 24 23  0  0  1  0  0  0  0  0999 V2000
   17.4109  -14.3797  -15.7267 C   0  0  0  0  0  0  0  0  0  0  0  0
   18.3925  -14.3976  -16.8619 C   0  0  2  0  0  0  0  0  0  0  0  0
   18.9777  -15.7665  -16.9833 C   0  0  0  0  0  0  0  0  0  0  0  0
   19.4254  -13.3062  -16.7594 C   0  0  0  0  0  0  0  0  0  0  0  0
   18.8317  -11.9420  -16.5952 C   0  0  2  0  0  0  0  0  0  0  0  0
   17.9887  -11.5308  -17.6663 N   0  0  0  0  0  0  0  0  0  0  0  0
   19.9487  -10.9682  -16.4774 C   0  0  0  0  0  0  0  0  0  0  0  0
   20.9446  -11.2118  -15.7561 O   0  0  0  0  0  0  0  0  0  0  0  0
   19.9290   -9.7301  -17.1752 N   0  0  0  0  0  0  0  0  0  0  0  0
   20.9990   -8.7200  -16.9833 C   0  0  1  0  0  0  0  0  0  0  0  0
   21.2133   -8.0846  -18.3372 C   0  0  0  0  0  0  0  0  0  0  0  0
   22.0409   -8.8986  -19.2847 C   0  0  0  0  0  0  0  0  0  0  0  0
   22.1269   -8.0697  -20.5797 C   0  0  0  0  0  0  0  0  0  0  0  0
   22.9591   -8.8853  -21.5457 C   0  0  0  0  0  0  0  0  0  0  0  0
   24.3425   -8.8076  -21.1368 N   0  0  0  0  0  0  0  0  0  0  0  0
   20.5508   -7.7859  -15.9380 C   0  0  0  0  0  0  0  0  0  0  0  0
   19.3403   -7.3780  -15.9785 O   0  0  0  0  0  0  0  0  0  0  0  0
   21.3169   -7.2811  -14.8737 N   0  0  0  0  0  0  0  0  0  0  0  0
   20.8334   -6.3171  -13.9030 C   0  0  1  0  0  0  0  0  0  0  0  0
   21.0423   -6.9427  -12.5313 C   0  0  0  0  0  0  0  0  0  0  0  0
   19.7465   -8.2035  -12.2967 S   0  0  0  0  0  0  0  0  0  0  0  0
   21.6372   -5.0679  -13.9317 C   0  0  0  0  0  0  0  0  0  0  0  0
   21.3802   -4.0744  -13.2159 O   0  0  0  0  0  0  0  0  0  0  0  0
   22.7158   -5.0172  -14.7947 O   0  0  0  0  0  0  0  0  0  0  0  0
  2  1  1  1
  3  2  1  0
  4  2  1  0
  5  6  1  6
  5  4  1  0
  7  5  1  0
  8  7  2  0
  9  7  1  0
 10 11  1  6
 10  9  1  0
 11 12  1  0
 12 13  1  0
 13 14  1  0
 14 15  1  0
 16 10  1  0
 17 16  2  0
 18 16  1  0
 19 22  1  0
 19 18  1  0
 20 21  1  0
 19 20  1  1
 22 24  1  0
 23 22  2  0
M  END
$$$$
