LKC.pdb
     RDKit          3D

 24 23  0  0  1  0  0  0  0  0999 V2000
   27.4625  -12.8504  -15.8707 C   0  0  0  0  0  0  0  0  0  0  0  0
   27.6191  -11.6794  -16.7962 C   0  0  2  0  0  0  0  0  0  0  0  0
   28.8096  -10.8795  -16.3789 C   0  0  0  0  0  0  0  0  0  0  0  0
   26.3593  -10.8641  -16.9265 C   0  0  0  0  0  0  0  0  0  0  0  0
   25.1965  -11.6495  -17.4475 C   0  0  2  0  0  0  0  0  0  0  0  0
   25.3857  -12.1934  -18.7496 N   0  0  0  0  0  0  0  0  0  0  0  0
   24.0150  -10.7480  -17.4832 C   0  0  0  0  0  0  0  0  0  0  0  0
   23.8614   -9.9209  -18.4126 O   0  0  0  0  0  0  0  0  0  0  0  0
   23.0198  -10.7904  -16.4693 N   0  0  0  0  0  0  0  0  0  0  0  0
   21.8594   -9.8657  -16.4890 C   0  0  1  0  0  0  0  0  0  0  0  0
   20.6690  -10.6891  -16.0560 C   0  0  0  0  0  0  0  0  0  0  0  0
   19.3777   -9.9319  -15.9882 C   0  0  0  0  0  0  0  0  0  0  0  0
   18.2993  -10.9777  -15.6497 C   0  0  0  0  0  0  0  0  0  0  0  0
   16.9868  -10.2257  -15.5977 C   0  0  0  0  0  0  0  0  0  0  0  0
   15.9122  -11.1865  -15.5016 N   0  0  0  0  0  0  0  0  0  0  0  0
   22.1722   -8.7357  -15.5994 C   0  0  0  0  0  0  0  0  0  0  0  0
   22.6132   -8.9991  -14.4292 O   0  0  0  0  0  0  0  0  0  0  0  0
   22.0419   -7.3683  -15.8959 N   0  0  0  0  0  0  0  0  0  0  0  0
   22.3628   -6.2969  -14.9715 C   0  0  1  0  0  0  0  0  0  0  0  0
   22.8769   -5.1383  -15.8142 C   0  0  0  0  0  0  0  0  0  0  0  0
   23.2261   -3.7486  -14.6871 S   0  0  0  0  0  0  0  0  0  0  0  0
   21.1507   -5.8084  -14.2646 C   0  0  0  0  0  0  0  0  0  0  0  0
   21.1860   -5.2958  -13.1239 O   0  0  0  0  0  0  0  0  0  0  0  0
   19.9353   -5.9336  -14.9112 O   0  0  0  0  0  0  0  0  0  0  0  0
  2  1  1  1
  3  2  1  0
  4  2  1  0
  5  6  1  6
  5  4  1  0
  7  5  1  0
  8  7  2  0
  9  7  1  0
 10 11  1  1
 10  9  1  0
 11 12  1  0
 12 13  1  0
 13 14  1  0
 14 15  1  0
 16 10  1  0
 17 16  2  0
 18 16  1  0
 19 22  1  0
 19 18  1  0
 20 21  1  0
 19 20  1  6
 22 24  1  0
 23 22  2  0
M  END
$$$$
