LKC.pdb
     RDKit          3D

 24 23  0  0  1  0  0  0  0  0999 V2000
   26.6571  -11.7472  -15.8684 C   0  0  0  0  0  0  0  0  0  0  0  0
   28.0922  -11.9009  -16.2799 C   0  0  2  0  0  0  0  0  0  0  0  0
   28.4884  -10.7345  -17.1247 C   0  0  0  0  0  0  0  0  0  0  0  0
   28.3778  -13.2344  -16.9195 C   0  0  0  0  0  0  0  0  0  0  0  0
   27.7713  -13.3810  -18.2801 C   0  0  2  0  0  0  0  0  0  0  0  0
   26.3849  -13.7050  -18.2781 N   0  0  0  0  0  0  0  0  0  0  0  0
   28.5039  -14.4599  -18.9935 C   0  0  0  0  0  0  0  0  0  0  0  0
   29.7553  -14.5249  -18.9562 O   0  0  0  0  0  0  0  0  0  0  0  0
   27.8157  -15.4536  -19.7413 N   0  0  0  0  0  0  0  0  0  0  0  0
   28.5454  -16.5630  -20.4038 C   0  0  1  0  0  0  0  0  0  0  0  0
   27.5740  -17.7188  -20.4610 C   0  0  0  0  0  0  0  0  0  0  0  0
   27.5759  -18.5962  -19.2463 C   0  0  0  0  0  0  0  0  0  0  0  0
   26.5191  -19.6832  -19.5165 C   0  0  0  0  0  0  0  0  0  0  0  0
   26.5124  -20.5755  -18.2940 C   0  0  0  0  0  0  0  0  0  0  0  0
   25.5544  -21.6358  -18.5065 N   0  0  0  0  0  0  0  0  0  0  0  0
   28.9939  -16.0809  -21.7200 C   0  0  0  0  0  0  0  0  0  0  0  0
   28.1802  -15.3760  -22.4087 O   0  0  0  0  0  0  0  0  0  0  0  0
   30.2440  -16.3087  -22.3200 N   0  0  0  0  0  0  0  0  0  0  0  0
   30.6219  -15.8209  -23.6333 C   0  0  1  0  0  0  0  0  0  0  0  0
   32.1139  -15.5260  -23.5721 C   0  0  0  0  0  0  0  0  0  0  0  0
   32.5907  -14.7617  -25.1571 S   0  0  0  0  0  0  0  0  0  0  0  0
   30.4331  -16.8635  -24.6748 C   0  0  0  0  0  0  0  0  0  0  0  0
   30.2133  -16.5954  -25.8769 O   0  0  0  0  0  0  0  0  0  0  0  0
   30.5067  -18.1864  -24.2808 O   0  0  0  0  0  0  0  0  0  0  0  0
  2  1  1  6
  3  2  1  0
  4  2  1  0
  5  6  1  1
  5  4  1  0
  7  5  1  0
  8  7  2  0
  9  7  1  0
 10 11  1  6
 10  9  1  0
 11 12  1  0
 12 13  1  0
 13 14  1  0
 14 15  1  0
 16 10  1  0
 17 16  2  0
 18 16  1  0
 19 22  1  0
 19 18  1  0
 20 21  1  0
 19 20  1  1
 22 24  1  0
 23 22  2  0
M  END
$$$$
