LKC.pdb
     RDKit          3D

 24 23  0  0  1  0  0  0  0  0999 V2000
   27.3867  -18.2002  -16.7041 C   0  0  0  0  0  0  0  0  0  0  0  0
   26.9914  -17.1665  -15.6903 C   0  0  2  0  0  0  0  0  0  0  0  0
   27.6632  -17.4708  -14.3913 C   0  0  0  0  0  0  0  0  0  0  0  0
   25.4988  -17.0017  -15.5742 C   0  0  0  0  0  0  0  0  0  0  0  0
   24.8265  -16.7506  -16.8878 C   0  0  2  0  0  0  0  0  0  0  0  0
   24.9323  -15.4117  -17.3602 N   0  0  0  0  0  0  0  0  0  0  0  0
   23.3853  -17.0811  -16.7345 C   0  0  0  0  0  0  0  0  0  0  0  0
   22.6032  -16.3011  -16.1416 O   0  0  0  0  0  0  0  0  0  0  0  0
   22.8429  -18.2886  -17.2521 N   0  0  0  0  0  0  0  0  0  0  0  0
   21.3848  -18.5602  -17.2075 C   0  0  1  0  0  0  0  0  0  0  0  0
   21.1053  -19.4998  -18.3571 C   0  0  0  0  0  0  0  0  0  0  0  0
   19.6774  -19.9399  -18.4704 C   0  0  0  0  0  0  0  0  0  0  0  0
   19.6317  -20.8981  -19.6751 C   0  0  0  0  0  0  0  0  0  0  0  0
   18.1840  -21.3130  -19.8269 C   0  0  0  0  0  0  0  0  0  0  0  0
   18.1037  -22.3271  -20.8527 N   0  0  0  0  0  0  0  0  0  0  0  0
   21.0730  -19.1146  -15.8803 C   0  0  0  0  0  0  0  0  0  0  0  0
   21.9092  -19.9291  -15.3601 O   0  0  0  0  0  0  0  0  0  0  0  0
   19.9370  -18.8433  -15.0990 N   0  0  0  0  0  0  0  0  0  0  0  0
   19.6992  -19.4000  -13.7803 C   0  0  1  0  0  0  0  0  0  0  0  0
   18.8226  -18.3998  -13.0403 C   0  0  0  0  0  0  0  0  0  0  0  0
   18.4401  -19.1062  -11.4038 S   0  0  0  0  0  0  0  0  0  0  0  0
   18.9308  -20.6693  -13.8573 C   0  0  0  0  0  0  0  0  0  0  0  0
   18.8633  -21.4847  -12.9109 O   0  0  0  0  0  0  0  0  0  0  0  0
   18.2650  -20.9471  -15.0364 O   0  0  0  0  0  0  0  0  0  0  0  0
  2  1  1  6
  3  2  1  0
  4  2  1  0
  5  6  1  1
  5  4  1  0
  7  5  1  0
  8  7  2  0
  9  7  1  0
 10 11  1  6
 10  9  1  0
 11 12  1  0
 12 13  1  0
 13 14  1  0
 14 15  1  0
 16 10  1  0
 17 16  2  0
 18 16  1  0
 19 22  1  0
 19 18  1  0
 20 21  1  0
 19 20  1  1
 22 24  1  0
 23 22  2  0
M  END
$$$$
