LKC.pdb
     RDKit          3D

 24 23  0  0  1  0  0  0  0  0999 V2000
   31.5104  -26.8505  -17.1304 C   0  0  0  0  0  0  0  0  0  0  0  0
   30.5254  -26.6065  -18.2361 C   0  0  2  0  0  0  0  0  0  0  0  0
   31.2560  -26.5304  -19.5367 C   0  0  0  0  0  0  0  0  0  0  0  0
   29.6336  -25.4212  -17.9742 C   0  0  0  0  0  0  0  0  0  0  0  0
   28.9481  -25.4778  -16.6447 C   0  0  2  0  0  0  0  0  0  0  0  0
   28.2954  -26.7124  -16.3676 N   0  0  0  0  0  0  0  0  0  0  0  0
   27.9334  -24.3921  -16.6069 C   0  0  0  0  0  0  0  0  0  0  0  0
   28.2527  -23.2012  -16.8333 O   0  0  0  0  0  0  0  0  0  0  0  0
   26.5692  -24.6630  -16.3138 N   0  0  0  0  0  0  0  0  0  0  0  0
   25.5674  -23.5714  -16.2299 C   0  0  1  0  0  0  0  0  0  0  0  0
   24.4487  -23.9661  -17.1656 C   0  0  0  0  0  0  0  0  0  0  0  0
   23.2513  -23.0663  -17.1213 C   0  0  0  0  0  0  0  0  0  0  0  0
   22.2659  -23.6337  -18.1597 C   0  0  0  0  0  0  0  0  0  0  0  0
   21.0695  -22.7066  -18.1536 C   0  0  0  0  0  0  0  0  0  0  0  0
   20.0773  -23.2336  -19.0618 N   0  0  0  0  0  0  0  0  0  0  0  0
   25.1633  -23.4419  -14.8206 C   0  0  0  0  0  0  0  0  0  0  0  0
   25.5635  -24.3347  -13.9984 O   0  0  0  0  0  0  0  0  0  0  0  0
   24.3722  -22.4244  -14.2606 N   0  0  0  0  0  0  0  0  0  0  0  0
   24.2668  -22.1599  -12.8378 C   0  0  1  0  0  0  0  0  0  0  0  0
   25.6512  -21.7292  -12.3745 C   0  0  0  0  0  0  0  0  0  0  0  0
   25.5710  -21.4597  -10.5732 S   0  0  0  0  0  0  0  0  0  0  0  0
   23.3498  -21.0236  -12.5633 C   0  0  0  0  0  0  0  0  0  0  0  0
   23.2353  -20.0392  -13.3269 O   0  0  0  0  0  0  0  0  0  0  0  0
   22.5951  -21.0718  -11.4062 O   0  0  0  0  0  0  0  0  0  0  0  0
  2  1  1  1
  3  2  1  0
  4  2  1  0
  5  6  1  6
  5  4  1  0
  7  5  1  0
  8  7  2  0
  9  7  1  0
 10 11  1  6
 10  9  1  0
 11 12  1  0
 12 13  1  0
 13 14  1  0
 14 15  1  0
 16 10  1  0
 17 16  2  0
 18 16  1  0
 19 22  1  0
 19 18  1  0
 20 21  1  0
 19 20  1  6
 22 24  1  0
 23 22  2  0
M  END
$$$$
