LKC.pdb
     RDKit          3D

 24 23  0  0  1  0  0  0  0  0999 V2000
   13.9342  -24.4707   -3.6062 C   0  0  0  0  0  0  0  0  0  0  0  0
   13.6438  -23.0112   -3.8013 C   0  0  2  0  0  0  0  0  0  0  0  0
   14.7066  -22.4097   -4.6614 C   0  0  0  0  0  0  0  0  0  0  0  0
   13.4312  -22.2784   -2.5027 C   0  0  0  0  0  0  0  0  0  0  0  0
   12.2874  -22.8147   -1.7000 C   0  0  2  0  0  0  0  0  0  0  0  0
   11.0073  -22.6244   -2.2935 N   0  0  0  0  0  0  0  0  0  0  0  0
   12.2972  -22.1341   -0.3784 C   0  0  0  0  0  0  0  0  0  0  0  0
   11.6519  -21.0756   -0.1922 O   0  0  0  0  0  0  0  0  0  0  0  0
   13.0353  -22.6561    0.7184 N   0  0  0  0  0  0  0  0  0  0  0  0
   12.9227  -22.0645    2.0746 C   0  0  1  0  0  0  0  0  0  0  0  0
   12.8273  -23.2333    3.0273 C   0  0  0  0  0  0  0  0  0  0  0  0
   11.7451  -23.1128    4.0566 C   0  0  0  0  0  0  0  0  0  0  0  0
   11.7768  -24.4321    4.8502 C   0  0  0  0  0  0  0  0  0  0  0  0
   10.6635  -24.3350    5.8710 C   0  0  0  0  0  0  0  0  0  0  0  0
   10.6019  -25.5802    6.6010 N   0  0  0  0  0  0  0  0  0  0  0  0
   14.0968  -21.2028    2.2862 C   0  0  0  0  0  0  0  0  0  0  0  0
   15.2297  -21.6207    1.8674 O   0  0  0  0  0  0  0  0  0  0  0  0
   14.1166  -19.9424    2.9073 N   0  0  0  0  0  0  0  0  0  0  0  0
   15.3197  -19.1678    3.1477 C   0  0  1  0  0  0  0  0  0  0  0  0
   14.9440  -17.7083    2.9352 C   0  0  0  0  0  0  0  0  0  0  0  0
   16.4165  -16.6997    3.3069 S   0  0  0  0  0  0  0  0  0  0  0  0
   15.7736  -19.2931    4.5569 C   0  0  0  0  0  0  0  0  0  0  0  0
   14.9837  -19.3920    5.5220 O   0  0  0  0  0  0  0  0  0  0  0  0
   17.1351  -19.2991    4.7956 O   0  0  0  0  0  0  0  0  0  0  0  0
  2  1  1  1
  3  2  1  0
  4  2  1  0
  5  6  1  6
  5  4  1  0
  7  5  1  0
  8  7  2  0
  9  7  1  0
 10 11  1  1
 10  9  1  0
 11 12  1  0
 12 13  1  0
 13 14  1  0
 14 15  1  0
 16 10  1  0
 17 16  2  0
 18 16  1  0
 19 22  1  0
 19 18  1  0
 20 21  1  0
 19 20  1  1
 22 24  1  0
 23 22  2  0
M  END
$$$$
