LKC.pdb
     RDKit          3D

 24 23  0  0  1  0  0  0  0  0999 V2000
   25.8590  -13.0036  -15.7403 C   0  0  0  0  0  0  0  0  0  0  0  0
   25.2306  -12.9197  -17.1007 C   0  0  2  0  0  0  0  0  0  0  0  0
   26.2685  -13.1959  -18.1388 C   0  0  0  0  0  0  0  0  0  0  0  0
   24.4837  -11.6305  -17.3215 C   0  0  0  0  0  0  0  0  0  0  0  0
   23.4160  -11.3822  -16.3023 C   0  0  2  0  0  0  0  0  0  0  0  0
   22.4131  -12.3907  -16.2383 N   0  0  0  0  0  0  0  0  0  0  0  0
   22.7605  -10.0894  -16.6323 C   0  0  0  0  0  0  0  0  0  0  0  0
   23.4317   -9.0380  -16.7568 O   0  0  0  0  0  0  0  0  0  0  0  0
   21.3543   -9.9980  -16.8182 N   0  0  0  0  0  0  0  0  0  0  0  0
   20.7072   -8.7139  -17.1849 C   0  0  1  0  0  0  0  0  0  0  0  0
   19.3091   -9.0705  -17.6333 C   0  0  0  0  0  0  0  0  0  0  0  0
   18.4542   -7.8969  -18.0038 C   0  0  0  0  0  0  0  0  0  0  0  0
   17.1007   -8.4889  -18.4384 C   0  0  0  0  0  0  0  0  0  0  0  0
   16.2076   -7.3081  -18.7530 C   0  0  0  0  0  0  0  0  0  0  0  0
   14.9597   -7.8065  -19.2835 N   0  0  0  0  0  0  0  0  0  0  0  0
   20.7611   -7.8330  -16.0071 C   0  0  0  0  0  0  0  0  0  0  0  0
   20.4377   -8.3276  -14.8740 O   0  0  0  0  0  0  0  0  0  0  0  0
   21.1391   -6.4798  -15.9832 N   0  0  0  0  0  0  0  0  0  0  0  0
   21.1353   -5.6504  -14.7926 C   0  0  1  0  0  0  0  0  0  0  0  0
   22.5768   -5.5822  -14.3087 C   0  0  0  0  0  0  0  0  0  0  0  0
   22.6272   -4.4463  -12.8836 S   0  0  0  0  0  0  0  0  0  0  0  0
   20.7204   -4.2578  -15.1022 C   0  0  0  0  0  0  0  0  0  0  0  0
   21.0093   -3.6821  -16.1748 O   0  0  0  0  0  0  0  0  0  0  0  0
   19.9813   -3.5807  -14.1505 O   0  0  0  0  0  0  0  0  0  0  0  0
  2  1  1  1
  3  2  1  0
  4  2  1  0
  5  6  1  6
  5  4  1  0
  7  5  1  0
  8  7  2  0
  9  7  1  0
 10 11  1  1
 10  9  1  0
 11 12  1  0
 12 13  1  0
 13 14  1  0
 14 15  1  0
 16 10  1  0
 17 16  2  0
 18 16  1  0
 19 22  1  0
 19 18  1  0
 20 21  1  0
 19 20  1  6
 22 24  1  0
 23 22  2  0
M  END
$$$$
