NTQ.pdb
     RDKit          3D

 25 24  0  0  1  0  0  0  0  0999 V2000
    9.2430  -20.0675   15.0790 N   0  0  0  0  0  0  0  0  0  0  0  0
    8.4657  -18.9881   15.5746 C   0  0  0  0  0  0  0  0  0  0  0  0
    7.3026  -18.7637   15.1594 O   0  0  0  0  0  0  0  0  0  0  0  0
    9.0370  -18.1113   16.6001 C   0  0  0  0  0  0  0  0  0  0  0  0
    8.7786  -16.6384   16.3079 C   0  0  2  0  0  0  0  0  0  0  0  0
    9.4939  -16.2201   15.1221 N   0  0  0  0  0  0  0  0  0  0  0  0
    9.3131  -15.8847   17.4729 C   0  0  0  0  0  0  0  0  0  0  0  0
   10.5127  -15.4637   17.4234 O   0  0  0  0  0  0  0  0  0  0  0  0
    7.4597  -13.0026   19.2523 C   0  0  0  0  0  0  0  0  0  0  0  0
    7.9439  -13.9917   20.2870 C   0  0  1  0  0  0  0  0  0  0  0  0
    6.8448  -14.7615   20.6647 O   0  0  0  0  0  0  0  0  0  0  0  0
    9.0723  -14.8463   19.7573 C   0  0  2  0  0  0  0  0  0  0  0  0
    8.5595  -15.6092   18.6367 N   0  0  0  0  0  0  0  0  0  0  0  0
    9.6606  -15.7067   20.7988 C   0  0  0  0  0  0  0  0  0  0  0  0
    9.3495  -16.9130   20.8505 O   0  0  0  0  0  0  0  0  0  0  0  0
   14.9981  -16.6407   23.3465 N   0  0  0  0  0  0  0  0  0  0  0  0
   13.9668  -17.1461   24.1556 C   0  0  0  0  0  0  0  0  0  0  0  0
   13.9871  -18.3196   24.5491 O   0  0  0  0  0  0  0  0  0  0  0  0
   12.8347  -16.2558   24.5437 C   0  0  0  0  0  0  0  0  0  0  0  0
   12.3557  -15.4463   23.3628 C   0  0  0  0  0  0  0  0  0  0  0  0
   11.0630  -15.9920   22.8409 C   0  0  2  0  0  0  0  0  0  0  0  0
   10.5665  -15.1748   21.7282 N   0  0  0  0  0  0  0  0  0  0  0  0
   10.0015  -16.1713   23.8230 C   0  0  0  0  0  0  0  0  0  0  0  0
    9.8980  -17.2092   24.7211 O   0  0  0  0  0  0  0  0  0  0  0  0
    9.0664  -15.3015   23.8783 O   0  0  0  0  0  0  0  0  0  0  0  0
  1  2  1  0
  2  3  2  0
  4  2  1  0
  4  5  1  0
  5  6  1  6
  7  5  1  0
  7  8  2  0
 10  9  1  6
 10 12  1  0
 10 11  1  0
 12 13  1  6
 13  7  1  0
 14 12  1  0
 15 14  2  0
 17 16  1  0
 18 17  2  0
 19 20  1  0
 19 17  1  0
 21 20  1  1
 21 23  1  0
 21 22  1  0
 22 14  1  0
 23 24  1  0
 25 23  2  0
M  END
$$$$
