NTQ.pdb
     RDKit          3D

 25 24  0  0  1  0  0  0  0  0999 V2000
   14.8520  -15.6262   16.1714 N   0  0  0  0  0  0  0  0  0  0  0  0
   14.7233  -14.2543   16.5119 C   0  0  0  0  0  0  0  0  0  0  0  0
   15.5398  -13.3914   16.1063 O   0  0  0  0  0  0  0  0  0  0  0  0
   13.6056  -13.8332   17.3605 C   0  0  0  0  0  0  0  0  0  0  0  0
   12.7462  -15.0095   17.8070 C   0  0  2  0  0  0  0  0  0  0  0  0
   11.7355  -15.3086   16.8161 N   0  0  0  0  0  0  0  0  0  0  0  0
   12.0685  -14.5766   19.0577 C   0  0  0  0  0  0  0  0  0  0  0  0
   12.7866  -14.2945   20.0695 O   0  0  0  0  0  0  0  0  0  0  0  0
    8.6070  -12.5361   19.0705 C   0  0  0  0  0  0  0  0  0  0  0  0
    8.6020  -13.6549   20.0862 C   0  0  1  0  0  0  0  0  0  0  0  0
    7.8388  -14.6915   19.5511 O   0  0  0  0  0  0  0  0  0  0  0  0
   10.0036  -14.1073   20.4254 C   0  0  2  0  0  0  0  0  0  0  0  0
   10.6655  -14.4608   19.1854 N   0  0  0  0  0  0  0  0  0  0  0  0
   10.0157  -15.2108   21.4016 C   0  0  0  0  0  0  0  0  0  0  0  0
   10.4129  -16.3396   21.0515 O   0  0  0  0  0  0  0  0  0  0  0  0
   11.3383  -20.0958   24.5101 N   0  0  0  0  0  0  0  0  0  0  0  0
   11.8950  -18.8193   24.3251 C   0  0  0  0  0  0  0  0  0  0  0  0
   12.9536  -18.6740   23.7000 O   0  0  0  0  0  0  0  0  0  0  0  0
   11.2002  -17.6262   24.8897 C   0  0  0  0  0  0  0  0  0  0  0  0
   11.1018  -16.5234   23.8633 C   0  0  0  0  0  0  0  0  0  0  0  0
    9.6848  -16.0612   23.7223 C   0  0  2  0  0  0  0  0  0  0  0  0
    9.5841  -14.9958   22.7188 N   0  0  0  0  0  0  0  0  0  0  0  0
    9.0258  -15.6356   24.9503 C   0  0  0  0  0  0  0  0  0  0  0  0
    8.5252  -14.3791   25.2054 O   0  0  0  0  0  0  0  0  0  0  0  0
    8.8865  -16.4850   25.8955 O   0  0  0  0  0  0  0  0  0  0  0  0
  1  2  1  0
  2  3  2  0
  4  2  1  0
  4  5  1  0
  5  6  1  6
  7  5  1  0
  7  8  2  0
 10  9  1  6
 10 12  1  0
 10 11  1  0
 12 13  1  6
 13  7  1  0
 14 12  1  0
 15 14  2  0
 17 16  1  0
 18 17  2  0
 19 20  1  0
 19 17  1  0
 21 20  1  1
 21 23  1  0
 21 22  1  0
 22 14  1  0
 23 24  1  0
 25 23  2  0
M  END
$$$$
