NTQ.pdb
     RDKit          3D

 25 24  0  0  1  0  0  0  0  0999 V2000
    9.4382  -14.7023   12.0274 N   0  0  0  0  0  0  0  0  0  0  0  0
    8.3843  -14.5344   12.9634 C   0  0  0  0  0  0  0  0  0  0  0  0
    7.1890  -14.7760   12.6657 O   0  0  0  0  0  0  0  0  0  0  0  0
    8.7005  -14.0661   14.3152 C   0  0  0  0  0  0  0  0  0  0  0  0
    8.9813  -15.2174   15.2728 C   0  0  2  0  0  0  0  0  0  0  0  0
    7.7877  -16.0065   15.4864 N   0  0  0  0  0  0  0  0  0  0  0  0
    9.3742  -14.5955   16.5650 C   0  0  0  0  0  0  0  0  0  0  0  0
   10.4524  -13.9214   16.6099 O   0  0  0  0  0  0  0  0  0  0  0  0
    6.9188  -13.1903   19.3308 C   0  0  0  0  0  0  0  0  0  0  0  0
    7.9278  -14.1201   19.9639 C   0  0  1  0  0  0  0  0  0  0  0  0
    7.2622  -15.3092   20.2577 O   0  0  0  0  0  0  0  0  0  0  0  0
    9.1174  -14.3513   19.0608 C   0  0  2  0  0  0  0  0  0  0  0  0
    8.6135  -14.7122   17.7507 N   0  0  0  0  0  0  0  0  0  0  0  0
   10.0446  -15.3604   19.6023 C   0  0  0  0  0  0  0  0  0  0  0  0
   10.2012  -16.4405   18.9994 O   0  0  0  0  0  0  0  0  0  0  0  0
   15.1776  -16.3314   19.0772 N   0  0  0  0  0  0  0  0  0  0  0  0
   14.6426  -15.0558   19.3226 C   0  0  0  0  0  0  0  0  0  0  0  0
   15.1676  -14.0445   18.8388 O   0  0  0  0  0  0  0  0  0  0  0  0
   13.4272  -14.9211   20.1768 C   0  0  0  0  0  0  0  0  0  0  0  0
   12.8776  -16.2767   20.5505 C   0  0  0  0  0  0  0  0  0  0  0  0
   11.6302  -16.1318   21.3655 C   0  0  2  0  0  0  0  0  0  0  0  0
   10.7495  -15.1100   20.7888 N   0  0  0  0  0  0  0  0  0  0  0  0
   11.8213  -15.8633   22.7850 C   0  0  0  0  0  0  0  0  0  0  0  0
   12.5442  -16.6373   23.6640 O   0  0  0  0  0  0  0  0  0  0  0  0
   11.2788  -14.8210   23.2884 O   0  0  0  0  0  0  0  0  0  0  0  0
  1  2  1  0
  2  3  2  0
  4  2  1  0
  4  5  1  0
  5  6  1  1
  7  5  1  0
  7  8  2  0
 10  9  1  6
 10 12  1  0
 10 11  1  0
 12 13  1  6
 13  7  1  0
 14 12  1  0
 15 14  2  0
 17 16  1  0
 18 17  2  0
 19 20  1  0
 19 17  1  0
 21 20  1  6
 21 23  1  0
 21 22  1  0
 22 14  1  0
 23 24  1  0
 25 23  2  0
M  END
$$$$
