NTQ.pdb
     RDKit          3D

 25 24  0  0  1  0  0  0  0  0999 V2000
    8.0969  -12.0220   17.7968 N   0  0  0  0  0  0  0  0  0  0  0  0
    7.8567  -13.4109   17.9642 C   0  0  0  0  0  0  0  0  0  0  0  0
    7.8880  -14.2101   16.9968 O   0  0  0  0  0  0  0  0  0  0  0  0
    7.5642  -13.9263   19.3042 C   0  0  0  0  0  0  0  0  0  0  0  0
    8.8313  -14.2282   20.0947 C   0  0  2  0  0  0  0  0  0  0  0  0
    9.7094  -15.0956   19.3400 N   0  0  0  0  0  0  0  0  0  0  0  0
    8.3939  -14.9484   21.3198 C   0  0  0  0  0  0  0  0  0  0  0  0
    7.5585  -14.3785   22.0919 O   0  0  0  0  0  0  0  0  0  0  0  0
    7.0489  -18.4716   21.4700 C   0  0  0  0  0  0  0  0  0  0  0  0
    8.1538  -18.3694   22.4959 C   0  0  1  0  0  0  0  0  0  0  0  0
    9.2774  -18.9898   21.9520 O   0  0  0  0  0  0  0  0  0  0  0  0
    8.4336  -16.9330   22.8736 C   0  0  2  0  0  0  0  0  0  0  0  0
    8.8566  -16.2359   21.6755 N   0  0  0  0  0  0  0  0  0  0  0  0
    9.4182  -16.8216   23.9641 C   0  0  0  0  0  0  0  0  0  0  0  0
   10.5982  -16.5169   23.7009 O   0  0  0  0  0  0  0  0  0  0  0  0
    9.1815  -13.3433   28.6517 N   0  0  0  0  0  0  0  0  0  0  0  0
   10.1115  -14.2572   29.1748 C   0  0  0  0  0  0  0  0  0  0  0  0
   10.5976  -14.0922   30.3012 O   0  0  0  0  0  0  0  0  0  0  0  0
   10.5164  -15.4399   28.3610 C   0  0  0  0  0  0  0  0  0  0  0  0
    9.6242  -15.5944   27.1529 C   0  0  0  0  0  0  0  0  0  0  0  0
    9.9764  -16.8361   26.3945 C   0  0  2  0  0  0  0  0  0  0  0  0
    9.0332  -17.0559   25.2924 N   0  0  0  0  0  0  0  0  0  0  0  0
   10.0940  -18.0556   27.1834 C   0  0  0  0  0  0  0  0  0  0  0  0
    9.2482  -19.1400   27.1267 O   0  0  0  0  0  0  0  0  0  0  0  0
   11.0610  -18.1558   28.0136 O   0  0  0  0  0  0  0  0  0  0  0  0
  1  2  1  0
  2  3  2  0
  4  2  1  0
  4  5  1  0
  5  6  1  6
  7  5  1  0
  7  8  2  0
 10  9  1  6
 10 12  1  0
 10 11  1  0
 12 13  1  6
 13  7  1  0
 14 12  1  0
 15 14  2  0
 17 16  1  0
 18 17  2  0
 19 20  1  0
 19 17  1  0
 21 20  1  1
 21 23  1  0
 21 22  1  0
 22 14  1  0
 23 24  1  0
 25 23  2  0
M  END
$$$$
