NTQ.pdb
     RDKit          3D

 25 24  0  0  1  0  0  0  0  0999 V2000
   14.0991  -15.3470   17.1136 N   0  0  0  0  0  0  0  0  0  0  0  0
   13.0798  -16.2539   17.5052 C   0  0  0  0  0  0  0  0  0  0  0  0
   13.1199  -17.4697   17.1959 O   0  0  0  0  0  0  0  0  0  0  0  0
   11.9488  -15.7568   18.2929 C   0  0  0  0  0  0  0  0  0  0  0  0
   11.9953  -14.2450   18.4774 C   0  0  2  0  0  0  0  0  0  0  0  0
   13.2433  -13.8434   19.0889 N   0  0  0  0  0  0  0  0  0  0  0  0
   10.8838  -13.9062   19.4051 C   0  0  0  0  0  0  0  0  0  0  0  0
   10.3393  -12.7606   19.3054 O   0  0  0  0  0  0  0  0  0  0  0  0
    8.1523  -13.3678   19.2764 C   0  0  0  0  0  0  0  0  0  0  0  0
    8.0301  -14.4569   20.3167 C   0  0  1  0  0  0  0  0  0  0  0  0
    7.8476  -15.6583   19.6336 O   0  0  0  0  0  0  0  0  0  0  0  0
    9.2403  -14.5037   21.2208 C   0  0  2  0  0  0  0  0  0  0  0  0
   10.3969  -14.7896   20.3955 N   0  0  0  0  0  0  0  0  0  0  0  0
    9.0823  -15.4727   22.3195 C   0  0  0  0  0  0  0  0  0  0  0  0
    9.4621  -16.6499   22.1629 O   0  0  0  0  0  0  0  0  0  0  0  0
   10.0497  -13.6512   29.3621 N   0  0  0  0  0  0  0  0  0  0  0  0
    9.3489  -13.6186   28.1450 C   0  0  0  0  0  0  0  0  0  0  0  0
    8.5266  -12.7234   27.9108 O   0  0  0  0  0  0  0  0  0  0  0  0
    9.6004  -14.6768   27.1242 C   0  0  0  0  0  0  0  0  0  0  0  0
    8.8279  -14.3985   25.8572 C   0  0  0  0  0  0  0  0  0  0  0  0
    9.1463  -15.4217   24.8118 C   0  0  2  0  0  0  0  0  0  0  0  0
    8.5087  -15.0760   23.5365 N   0  0  0  0  0  0  0  0  0  0  0  0
    8.8328  -16.8033   25.1527 C   0  0  0  0  0  0  0  0  0  0  0  0
    9.6221  -17.6518   25.8954 O   0  0  0  0  0  0  0  0  0  0  0  0
    7.7310  -17.3007   24.7369 O   0  0  0  0  0  0  0  0  0  0  0  0
  1  2  1  0
  2  3  2  0
  4  2  1  0
  4  5  1  0
  5  6  1  1
  7  5  1  0
  7  8  2  0
 10  9  1  6
 10 12  1  0
 10 11  1  0
 12 13  1  6
 13  7  1  0
 14 12  1  0
 15 14  2  0
 17 16  1  0
 18 17  2  0
 19 20  1  0
 19 17  1  0
 21 20  1  1
 21 23  1  0
 21 22  1  0
 22 14  1  0
 23 24  1  0
 25 23  2  0
M  END
$$$$
