NTQ.pdb
     RDKit          3D

 25 24  0  0  1  0  0  0  0  0999 V2000
    7.4428  -12.9878   15.6605 N   0  0  0  0  0  0  0  0  0  0  0  0
    8.1098  -14.0322   14.9683 C   0  0  0  0  0  0  0  0  0  0  0  0
    7.8303  -14.3236   13.7798 O   0  0  0  0  0  0  0  0  0  0  0  0
    9.1545  -14.7914   15.6605 C   0  0  0  0  0  0  0  0  0  0  0  0
    9.2157  -14.4636   17.1472 C   0  0  2  0  0  0  0  0  0  0  0  0
    9.3573  -13.0382   17.3504 N   0  0  0  0  0  0  0  0  0  0  0  0
   10.4325  -15.1388   17.6709 C   0  0  0  0  0  0  0  0  0  0  0  0
   10.4627  -16.4108   17.6810 O   0  0  0  0  0  0  0  0  0  0  0  0
   13.6086  -15.2888   16.3316 C   0  0  0  0  0  0  0  0  0  0  0  0
   13.8883  -14.7945   17.7320 C   0  0  1  0  0  0  0  0  0  0  0  0
   14.1286  -13.4243   17.6431 O   0  0  0  0  0  0  0  0  0  0  0  0
   12.7459  -15.1041   18.6718 C   0  0  2  0  0  0  0  0  0  0  0  0
   11.5618  -14.4434   18.1600 N   0  0  0  0  0  0  0  0  0  0  0  0
   13.0446  -14.7209   20.0628 C   0  0  0  0  0  0  0  0  0  0  0  0
   12.5848  -13.6566   20.5217 O   0  0  0  0  0  0  0  0  0  0  0  0
   10.3434  -17.1157   25.3496 N   0  0  0  0  0  0  0  0  0  0  0  0
   11.5694  -17.1933   24.6681 C   0  0  0  0  0  0  0  0  0  0  0  0
   12.0727  -18.2899   24.3915 O   0  0  0  0  0  0  0  0  0  0  0  0
   12.2713  -15.9374   24.2739 C   0  0  0  0  0  0  0  0  0  0  0  0
   12.3369  -15.8050   22.7714 C   0  0  0  0  0  0  0  0  0  0  0  0
   13.7336  -15.4932   22.3316 C   0  0  2  0  0  0  0  0  0  0  0  0
   13.8411  -15.5470   20.8694 N   0  0  0  0  0  0  0  0  0  0  0  0
   14.7875  -16.3050   22.9263 C   0  0  0  0  0  0  0  0  0  0  0  0
   15.5358  -17.2604   22.2768 O   0  0  0  0  0  0  0  0  0  0  0  0
   15.0641  -16.1373   24.1630 O   0  0  0  0  0  0  0  0  0  0  0  0
  1  2  1  0
  2  3  2  0
  4  2  1  0
  4  5  1  0
  5  6  1  6
  7  5  1  0
  7  8  2  0
 10  9  1  6
 10 12  1  0
 10 11  1  0
 12 13  1  6
 13  7  1  0
 14 12  1  0
 15 14  2  0
 17 16  1  0
 18 17  2  0
 19 20  1  0
 19 17  1  0
 21 20  1  6
 21 23  1  0
 21 22  1  0
 22 14  1  0
 23 24  1  0
 25 23  2  0
M  END
$$$$
