NTQ.pdb
     RDKit          3D

 25 24  0  0  1  0  0  0  0  0999 V2000
   10.4095  -20.3722   16.6780 N   0  0  0  0  0  0  0  0  0  0  0  0
    9.3698  -19.4156   16.5413 C   0  0  0  0  0  0  0  0  0  0  0  0
    8.6752  -19.3364   15.4987 O   0  0  0  0  0  0  0  0  0  0  0  0
    9.0995  -18.4948   17.6484 C   0  0  0  0  0  0  0  0  0  0  0  0
    9.0848  -17.0396   17.1971 C   0  0  2  0  0  0  0  0  0  0  0  0
   10.0850  -16.8113   16.1771 N   0  0  0  0  0  0  0  0  0  0  0  0
    9.4370  -16.2308   18.3939 C   0  0  0  0  0  0  0  0  0  0  0  0
   10.6659  -15.9981   18.6278 O   0  0  0  0  0  0  0  0  0  0  0  0
    7.6183  -13.0000   19.7019 C   0  0  0  0  0  0  0  0  0  0  0  0
    7.7451  -14.0144   20.8147 C   0  0  1  0  0  0  0  0  0  0  0  0
    6.4970  -14.6166   20.9652 O   0  0  0  0  0  0  0  0  0  0  0  0
    8.8266  -15.0294   20.5244 C   0  0  2  0  0  0  0  0  0  0  0  0
    8.4787  -15.7041   19.2898 N   0  0  0  0  0  0  0  0  0  0  0  0
    9.0265  -15.9704   21.6404 C   0  0  0  0  0  0  0  0  0  0  0  0
    8.9275  -17.1968   21.4383 O   0  0  0  0  0  0  0  0  0  0  0  0
   13.5067  -18.1945   23.2265 N   0  0  0  0  0  0  0  0  0  0  0  0
   12.8980  -18.4845   24.4589 C   0  0  0  0  0  0  0  0  0  0  0  0
   13.4711  -19.1913   25.2982 O   0  0  0  0  0  0  0  0  0  0  0  0
   11.5446  -17.9329   24.7574 C   0  0  0  0  0  0  0  0  0  0  0  0
   11.0499  -17.0725   23.6198 C   0  0  0  0  0  0  0  0  0  0  0  0
    9.7562  -16.4126   23.9836 C   0  0  2  0  0  0  0  0  0  0  0  0
    9.3274  -15.4925   22.9244 N   0  0  0  0  0  0  0  0  0  0  0  0
    9.7290  -15.7225   25.2667 C   0  0  0  0  0  0  0  0  0  0  0  0
    9.7336  -16.3204   26.5065 O   0  0  0  0  0  0  0  0  0  0  0  0
    9.6967  -14.4446   25.2730 O   0  0  0  0  0  0  0  0  0  0  0  0
  1  2  1  0
  2  3  2  0
  4  2  1  0
  4  5  1  0
  5  6  1  6
  7  5  1  0
  7  8  2  0
 10  9  1  6
 10 12  1  0
 10 11  1  0
 12 13  1  6
 13  7  1  0
 14 12  1  0
 15 14  2  0
 17 16  1  0
 18 17  2  0
 19 20  1  0
 19 17  1  0
 21 20  1  6
 21 23  1  0
 21 22  1  0
 22 14  1  0
 23 24  1  0
 25 23  2  0
M  END
$$$$
