GTT.pdb
     RDKit          3D

 19 18  0  0  1  0  0  0  0  0999 V2000
   19.9049  -14.4644  -18.0303 N   0  0  0  0  0  0  0  0  0  0  0  0
   19.8501  -13.1273  -18.5681 C   0  0  0  0  0  0  0  0  0  0  0  0
   19.9960  -12.1843  -17.4042 C   0  0  0  0  0  0  0  0  0  0  0  0
   19.0227  -11.8968  -16.6676 O   0  0  0  0  0  0  0  0  0  0  0  0
   22.6773   -9.8453  -14.0398 C   0  0  0  0  0  0  0  0  0  0  0  0
   22.6359  -10.7156  -15.2460 C   0  0  1  0  0  0  0  0  0  0  0  0
   22.7864  -12.0392  -14.8156 O   0  0  0  0  0  0  0  0  0  0  0  0
   21.3337  -10.6591  -16.0009 C   0  0  2  0  0  0  0  0  0  0  0  0
   21.2233  -11.5733  -17.0749 N   0  0  0  0  0  0  0  0  0  0  0  0
   21.0581   -9.2472  -16.4022 C   0  0  0  0  0  0  0  0  0  0  0  0
   21.6568   -8.7668  -17.3968 O   0  0  0  0  0  0  0  0  0  0  0  0
   18.2837   -5.2089  -16.1900 C   0  0  0  0  0  0  0  0  0  0  0  0
   18.5151   -6.6219  -15.6689 C   0  0  1  0  0  0  0  0  0  0  0  0
   17.4860   -7.4524  -16.0964 O   0  0  0  0  0  0  0  0  0  0  0  0
   19.8554   -7.0662  -16.2081 C   0  0  2  0  0  0  0  0  0  0  0  0
   20.1461   -8.4000  -15.7176 N   0  0  0  0  0  0  0  0  0  0  0  0
   20.8747   -6.1428  -15.6753 C   0  0  0  0  0  0  0  0  0  0  0  0
   21.3550   -5.0453  -16.3756 O   0  0  0  0  0  0  0  0  0  0  0  0
   21.3467   -6.3395  -14.5321 O   0  0  0  0  0  0  0  0  0  0  0  0
  1  2  1  0
  2  3  1  0
  3  4  2  0
  6  5  1  1
  6  7  1  0
  6  8  1  0
  8 10  1  0
  8  9  1  6
  9  3  1  0
 10 11  2  0
 10 16  1  0
 13 12  1  6
 13 14  1  0
 13 15  1  0
 15 17  1  0
 15 16  1  1
 17 19  2  0
 17 18  1  0
M  END
$$$$
