GTT.pdb
     RDKit          3D

 19 18  0  0  1  0  0  0  0  0999 V2000
   17.6051  -16.3198  -16.7086 N   0  0  0  0  0  0  0  0  0  0  0  0
   17.2571  -15.0363  -17.2666 C   0  0  0  0  0  0  0  0  0  0  0  0
   18.0664  -14.0062  -16.5255 C   0  0  0  0  0  0  0  0  0  0  0  0
   18.1869  -14.0411  -15.2778 O   0  0  0  0  0  0  0  0  0  0  0  0
   21.6684  -13.2119  -16.4611 C   0  0  0  0  0  0  0  0  0  0  0  0
   20.9487  -11.9504  -16.7854 C   0  0  1  0  0  0  0  0  0  0  0  0
   21.0515  -11.7503  -18.1671 O   0  0  0  0  0  0  0  0  0  0  0  0
   19.4766  -11.9832  -16.4683 C   0  0  2  0  0  0  0  0  0  0  0  0
   18.7311  -12.9505  -17.1824 N   0  0  0  0  0  0  0  0  0  0  0  0
   18.9161  -10.6043  -16.5898 C   0  0  0  0  0  0  0  0  0  0  0  0
   18.5155  -10.2041  -17.7113 O   0  0  0  0  0  0  0  0  0  0  0  0
   16.0225   -9.0300  -14.7742 C   0  0  0  0  0  0  0  0  0  0  0  0
   17.2387   -8.1467  -14.5243 C   0  0  1  0  0  0  0  0  0  0  0  0
   17.8054   -8.4676  -13.2966 O   0  0  0  0  0  0  0  0  0  0  0  0
   18.1958   -8.3973  -15.6668 C   0  0  2  0  0  0  0  0  0  0  0  0
   18.8060   -9.7023  -15.4977 N   0  0  0  0  0  0  0  0  0  0  0  0
   19.2560   -7.3750  -15.5882 C   0  0  0  0  0  0  0  0  0  0  0  0
   19.0389   -6.0258  -15.8298 O   0  0  0  0  0  0  0  0  0  0  0  0
   20.4225   -7.7189  -15.2892 O   0  0  0  0  0  0  0  0  0  0  0  0
  1  2  1  0
  2  3  1  0
  3  4  2  0
  6  5  1  6
  6  7  1  0
  6  8  1  0
  8 10  1  0
  8  9  1  6
  9  3  1  0
 10 11  2  0
 10 16  1  0
 13 12  1  6
 13 14  1  0
 13 15  1  0
 15 17  1  0
 15 16  1  1
 17 19  2  0
 17 18  1  0
M  END
$$$$
