GTT.pdb
     RDKit          3D

 19 18  0  0  1  0  0  0  0  0999 V2000
   21.5456  -14.0201  -17.6176 N   0  0  0  0  0  0  0  0  0  0  0  0
   20.9808  -12.8438  -18.2318 C   0  0  0  0  0  0  0  0  0  0  0  0
   20.7547  -11.8440  -17.1298 C   0  0  0  0  0  0  0  0  0  0  0  0
   19.8794  -12.0249  -16.2502 O   0  0  0  0  0  0  0  0  0  0  0  0
   23.0982  -10.8480  -14.4672 C   0  0  0  0  0  0  0  0  0  0  0  0
   22.5840   -9.5916  -15.0765 C   0  0  1  0  0  0  0  0  0  0  0  0
   23.5788   -9.0996  -15.9298 O   0  0  0  0  0  0  0  0  0  0  0  0
   21.3517   -9.7775  -15.9222 C   0  0  2  0  0  0  0  0  0  0  0  0
   21.5055  -10.6555  -17.0208 N   0  0  0  0  0  0  0  0  0  0  0  0
   20.8156   -8.4392  -16.3120 C   0  0  0  0  0  0  0  0  0  0  0  0
   21.1821   -7.9273  -17.3992 O   0  0  0  0  0  0  0  0  0  0  0  0
   17.1254   -7.2819  -16.4173 C   0  0  0  0  0  0  0  0  0  0  0  0
   17.9213   -6.3185  -15.5454 C   0  0  1  0  0  0  0  0  0  0  0  0
   17.7589   -6.6560  -14.2071 O   0  0  0  0  0  0  0  0  0  0  0  0
   19.3638   -6.4331  -15.9819 C   0  0  2  0  0  0  0  0  0  0  0  0
   19.9018   -7.6972  -15.5166 N   0  0  0  0  0  0  0  0  0  0  0  0
   20.1114   -5.3416  -15.3297 C   0  0  0  0  0  0  0  0  0  0  0  0
   19.9407   -4.0011  -15.6449 O   0  0  0  0  0  0  0  0  0  0  0  0
   20.9504   -5.6149  -14.4411 O   0  0  0  0  0  0  0  0  0  0  0  0
  1  2  1  0
  2  3  1  0
  3  4  2  0
  6  5  1  6
  6  7  1  0
  6  8  1  0
  8 10  1  0
  8  9  1  6
  9  3  1  0
 10 11  2  0
 10 16  1  0
 13 12  1  6
 13 14  1  0
 13 15  1  0
 15 17  1  0
 15 16  1  1
 17 19  2  0
 17 18  1  0
M  END
$$$$
