GTT.pdb
     RDKit          3D

 19 18  0  0  1  0  0  0  0  0999 V2000
   23.8740  -12.8321  -16.6351 N   0  0  0  0  0  0  0  0  0  0  0  0
   23.5881  -12.2468  -15.3484 C   0  0  0  0  0  0  0  0  0  0  0  0
   22.8298  -10.9731  -15.6090 C   0  0  0  0  0  0  0  0  0  0  0  0
   22.8877  -10.3912  -16.7183 O   0  0  0  0  0  0  0  0  0  0  0  0
   18.9890   -8.1048  -14.7903 C   0  0  0  0  0  0  0  0  0  0  0  0
   19.8583   -9.2157  -14.3163 C   0  0  1  0  0  0  0  0  0  0  0  0
   19.2536  -10.4177  -14.7028 O   0  0  0  0  0  0  0  0  0  0  0  0
   21.2373   -9.2190  -14.9221 C   0  0  2  0  0  0  0  0  0  0  0  0
   22.0168  -10.3633  -14.6317 N   0  0  0  0  0  0  0  0  0  0  0  0
   21.9269   -7.9385  -14.5832 C   0  0  0  0  0  0  0  0  0  0  0  0
   22.4084   -7.7898  -13.4322 O   0  0  0  0  0  0  0  0  0  0  0  0
   23.7172   -3.5438  -15.8837 C   0  0  0  0  0  0  0  0  0  0  0  0
   22.8404   -4.7179  -16.3013 C   0  0  1  0  0  0  0  0  0  0  0  0
   23.3976   -5.3472  -17.4081 O   0  0  0  0  0  0  0  0  0  0  0  0
   22.7632   -5.6439  -15.1092 C   0  0  2  0  0  0  0  0  0  0  0  0
   22.0747   -6.8604  -15.4965 N   0  0  0  0  0  0  0  0  0  0  0  0
   21.9614   -4.9658  -14.0735 C   0  0  0  0  0  0  0  0  0  0  0  0
   22.5083   -4.3930  -12.9339 O   0  0  0  0  0  0  0  0  0  0  0  0
   20.7185   -4.8903  -14.2078 O   0  0  0  0  0  0  0  0  0  0  0  0
  1  2  1  0
  2  3  1  0
  3  4  2  0
  6  5  1  6
  6  7  1  0
  6  8  1  0
  8 10  1  0
  8  9  1  1
  9  3  1  0
 10 11  2  0
 10 16  1  0
 13 12  1  1
 13 14  1  0
 13 15  1  0
 15 17  1  0
 15 16  1  6
 17 19  2  0
 17 18  1  0
M  END
$$$$
