RQQ.pdb
     RDKit          3D

 30 29  0  0  1  0  0  0  0  0999 V2000
    8.1612  -13.8814   18.3148 N   0  0  0  0  0  0  0  0  0  0  0  0
    8.6621  -12.9547   19.2394 C   0  0  0  0  0  0  0  0  0  0  0  0
    9.7707  -12.3510   19.0417 N   0  0  0  0  0  0  0  0  0  0  0  0
    7.9340  -12.6674   20.4267 N   0  0  0  0  0  0  0  0  0  0  0  0
    6.7662  -13.4118   20.7901 C   0  0  0  0  0  0  0  0  0  0  0  0
    7.0354  -14.8845   20.6574 C   0  0  0  0  0  0  0  0  0  0  0  0
    6.8282  -15.5554   21.9776 C   0  0  0  0  0  0  0  0  0  0  0  0
    7.8979  -16.6007   22.2598 C   0  0  2  0  0  0  0  0  0  0  0  0
    7.9490  -17.5220   21.1353 N   0  0  0  0  0  0  0  0  0  0  0  0
    7.6133  -17.3431   23.5067 C   0  0  0  0  0  0  0  0  0  0  0  0
    7.5697  -16.7073   24.5880 O   0  0  0  0  0  0  0  0  0  0  0  0
   10.1754  -11.6454   19.6904 N   0  0  0  0  0  0  0  0  0  0  0  0
    4.5818  -22.5902   24.1168 C   0  0  0  0  0  0  0  0  0  0  0  0
    4.4182  -21.4599   23.2841 O   0  0  0  0  0  0  0  0  0  0  0  0
    3.5132  -21.4690   22.3885 C   0  0  0  0  0  0  0  0  0  0  0  0
    5.3052  -20.2648   23.4588 C   0  0  0  0  0  0  0  0  0  0  0  0
    6.2341  -20.5347   24.6082 C   0  0  2  0  0  0  0  0  0  0  0  0
    7.2029  -19.4134   24.8800 N   0  0  0  0  0  0  0  0  0  0  0  0
    7.3825  -18.7415   23.5724 C   0  0  0  0  0  0  0  0  0  0  0  0
    8.4920  -19.9366   25.3585 O   0  0  0  0  0  0  0  0  0  0  0  0
    9.3671  -20.2423   24.5174 N   0  0  0  0  0  0  0  0  0  0  0  0
   11.1471  -15.6559   25.8377 C   0  0  0  0  0  0  0  0  0  0  0  0
   12.0737  -16.4528   26.5312 O   0  0  0  0  0  0  0  0  0  0  0  0
   13.2516  -15.9875   26.6707 C   0  0  0  0  0  0  0  0  0  0  0  0
   11.7379  -17.7840   27.0930 C   0  0  0  0  0  0  0  0  0  0  0  0
   10.3228  -18.1964   26.7344 C   0  0  2  0  0  0  0  0  0  0  0  0
   10.0235  -19.5928   27.2607 N   0  0  0  0  0  0  0  0  0  0  0  0
    8.8056  -20.1169   26.7324 C   0  0  0  0  0  0  0  0  0  0  0  0
   10.0456  -19.6040   28.7544 O   0  0  0  0  0  0  0  0  0  0  0  0
    9.1877  -19.0248   29.4622 O   0  0  0  0  0  0  0  0  0  0  0  0
  2  1  1  0
  3  2  2  0
  4  2  1  0
  5  6  1  0
  5  4  1  0
  7  6  1  0
  8  7  1  0
  8  9  1  6
 10 11  2  0
 10  8  1  0
 13 12  1  0
 13 15  1  0
 14 13  2  0
 16 15  1  0
 17 16  1  1
 17 18  1  0
 18 10  1  0
 19 17  1  0
 19 27  1  0
 20 19  2  0
 22 21  1  0
 22 23  2  0
 24 22  1  0
 25 24  1  0
 26 27  1  0
 26 25  1  6
 28 26  1  0
 29 28  2  0
 30 28  1  0
M  END
$$$$
