RQQ.pdb
     RDKit          3D

 30 29  0  0  1  0  0  0  0  0999 V2000
    7.4709  -12.4414   19.3783 N   0  0  0  0  0  0  0  0  0  0  0  0
    8.6389  -12.7365   18.6619 C   0  0  0  0  0  0  0  0  0  0  0  0
    9.5359  -11.8496   18.4583 N   0  0  0  0  0  0  0  0  0  0  0  0
    8.8469  -14.0448   18.1450 N   0  0  0  0  0  0  0  0  0  0  0  0
    7.7641  -14.9663   17.9758 C   0  0  0  0  0  0  0  0  0  0  0  0
    7.7307  -15.9343   19.1250 C   0  0  0  0  0  0  0  0  0  0  0  0
    9.0949  -16.5078   19.3403 C   0  0  0  0  0  0  0  0  0  0  0  0
    9.0388  -17.9699   19.7594 C   0  0  2  0  0  0  0  0  0  0  0  0
    8.3072  -18.0615   21.0132 N   0  0  0  0  0  0  0  0  0  0  0  0
   10.3942  -18.5377   19.9244 C   0  0  0  0  0  0  0  0  0  0  0  0
   10.9909  -18.9735   18.9098 O   0  0  0  0  0  0  0  0  0  0  0  0
   10.3590  -11.9834   17.8361 N   0  0  0  0  0  0  0  0  0  0  0  0
   13.2419  -13.7941   19.8076 C   0  0  0  0  0  0  0  0  0  0  0  0
   13.5459  -15.1710   19.7092 O   0  0  0  0  0  0  0  0  0  0  0  0
   14.7571  -15.5519   19.8038 C   0  0  0  0  0  0  0  0  0  0  0  0
   12.4480  -16.1682   19.4954 C   0  0  0  0  0  0  0  0  0  0  0  0
   11.7493  -16.3844   20.8076 C   0  0  2  0  0  0  0  0  0  0  0  0
   12.1483  -17.6598   21.5033 N   0  0  0  0  0  0  0  0  0  0  0  0
   11.0804  -18.6279   21.1631 C   0  0  0  0  0  0  0  0  0  0  0  0
   12.2079  -17.4673   22.9606 O   0  0  0  0  0  0  0  0  0  0  0  0
   12.7894  -18.3286   23.6582 N   0  0  0  0  0  0  0  0  0  0  0  0
    7.5438  -16.0451   22.3368 C   0  0  0  0  0  0  0  0  0  0  0  0
    7.5717  -15.2898   23.5215 O   0  0  0  0  0  0  0  0  0  0  0  0
    6.7513  -14.3191   23.6119 C   0  0  0  0  0  0  0  0  0  0  0  0
    8.4995  -15.5751   24.6432 C   0  0  0  0  0  0  0  0  0  0  0  0
    9.3483  -16.8008   24.3629 C   0  0  2  0  0  0  0  0  0  0  0  0
   10.7955  -16.5514   24.7629 N   0  0  0  0  0  0  0  0  0  0  0  0
   11.6394  -16.3503   23.6296 C   0  0  0  0  0  0  0  0  0  0  0  0
   11.2885  -17.6473   25.6504 O   0  0  0  0  0  0  0  0  0  0  0  0
   10.6794  -18.0312   26.6772 O   0  0  0  0  0  0  0  0  0  0  0  0
  2  1  1  0
  3  2  2  0
  4  2  1  0
  5  6  1  0
  5  4  1  0
  7  6  1  0
  8  7  1  0
  8  9  1  1
 10 11  2  0
 10  8  1  0
 13 12  1  0
 13 15  1  0
 14 13  2  0
 16 15  1  0
 17 16  1  6
 17 18  1  0
 18 10  1  0
 19 17  1  0
 19 27  1  0
 20 19  2  0
 22 21  1  0
 22 23  2  0
 24 22  1  0
 25 24  1  0
 26 27  1  0
 26 25  1  1
 28 26  1  0
 29 28  2  0
 30 28  1  0
M  END
$$$$
