RQQ.pdb
     RDKit          3D

 30 29  0  0  1  0  0  0  0  0999 V2000
    6.0082  -13.8441   20.2228 N   0  0  0  0  0  0  0  0  0  0  0  0
    6.5270  -13.0074   19.2252 C   0  0  0  0  0  0  0  0  0  0  0  0
    6.0955  -11.8153   19.0666 N   0  0  0  0  0  0  0  0  0  0  0  0
    7.5559  -13.4782   18.3638 N   0  0  0  0  0  0  0  0  0  0  0  0
    8.2896  -14.6731   18.6536 C   0  0  0  0  0  0  0  0  0  0  0  0
    9.2959  -14.9325   17.5678 C   0  0  0  0  0  0  0  0  0  0  0  0
   10.6417  -15.1706   18.1747 C   0  0  0  0  0  0  0  0  0  0  0  0
   11.7039  -15.4390   17.1182 C   0  0  2  0  0  0  0  0  0  0  0  0
   11.3513  -16.6600   16.4108 N   0  0  0  0  0  0  0  0  0  0  0  0
   13.0461  -15.5771   17.7235 C   0  0  0  0  0  0  0  0  0  0  0  0
   13.3892  -16.6967   18.1754 O   0  0  0  0  0  0  0  0  0  0  0  0
    6.4278  -11.1679   18.3229 N   0  0  0  0  0  0  0  0  0  0  0  0
   18.5799  -13.1585   16.3168 C   0  0  0  0  0  0  0  0  0  0  0  0
   18.4683  -12.8873   17.6994 O   0  0  0  0  0  0  0  0  0  0  0  0
   19.1246  -11.9185   18.2013 C   0  0  0  0  0  0  0  0  0  0  0  0
   17.5838  -13.7359   18.5613 C   0  0  0  0  0  0  0  0  0  0  0  0
   16.1853  -13.6577   18.0180 C   0  0  2  0  0  0  0  0  0  0  0  0
   15.2686  -14.7290   18.5489 N   0  0  0  0  0  0  0  0  0  0  0  0
   13.9887  -14.5223   17.8331 C   0  0  0  0  0  0  0  0  0  0  0  0
   15.0655  -14.5766   19.9980 O   0  0  0  0  0  0  0  0  0  0  0  0
   14.0935  -13.8992   20.4016 N   0  0  0  0  0  0  0  0  0  0  0  0
   11.6157  -17.4538   22.5435 C   0  0  0  0  0  0  0  0  0  0  0  0
   12.3466  -17.1703   23.7097 O   0  0  0  0  0  0  0  0  0  0  0  0
   11.8291  -17.5205   24.8201 C   0  0  0  0  0  0  0  0  0  0  0  0
   13.6670  -16.4943   23.6947 C   0  0  0  0  0  0  0  0  0  0  0  0
   14.1032  -16.1605   22.2806 C   0  0  1  0  0  0  0  0  0  0  0  0
   15.4239  -15.4043   22.2933 N   0  0  0  0  0  0  0  0  0  0  0  0
   15.9156  -15.1589   20.9761 C   0  0  0  0  0  0  0  0  0  0  0  0
   16.4230  -16.1118   23.1495 O   0  0  0  0  0  0  0  0  0  0  0  0
   17.3348  -16.8394   22.6893 O   0  0  0  0  0  0  0  0  0  0  0  0
  2  1  1  0
  3  2  2  0
  4  2  1  0
  5  6  1  0
  5  4  1  0
  7  6  1  0
  8  7  1  0
  8  9  1  1
 10 11  2  0
 10  8  1  0
 13 12  1  0
 13 15  1  0
 14 13  2  0
 16 15  1  0
 17 16  1  6
 17 18  1  0
 18 10  1  0
 19 17  1  0
 19 27  1  0
 20 19  2  0
 22 21  1  0
 22 23  2  0
 24 22  1  0
 25 24  1  0
 26 27  1  0
 26 25  1  6
 28 26  1  0
 29 28  2  0
 30 28  1  0
M  END
$$$$
