RQQ.pdb
     RDKit          3D

 30 29  0  0  1  0  0  0  0  0999 V2000
    7.1433  -12.3462   18.1978 N   0  0  0  0  0  0  0  0  0  0  0  0
    7.4352  -12.3622   19.5686 C   0  0  0  0  0  0  0  0  0  0  0  0
    7.6876  -11.2847   20.2072 N   0  0  0  0  0  0  0  0  0  0  0  0
    7.4540  -13.5938   20.2792 N   0  0  0  0  0  0  0  0  0  0  0  0
    7.3749  -14.8528   19.6020 C   0  0  0  0  0  0  0  0  0  0  0  0
    8.6554  -15.1173   18.8609 C   0  0  0  0  0  0  0  0  0  0  0  0
    8.6257  -16.4949   18.2798 C   0  0  0  0  0  0  0  0  0  0  0  0
    9.8929  -16.8112   17.4983 C   0  0  2  0  0  0  0  0  0  0  0  0
    9.8054  -18.1800   17.0141 N   0  0  0  0  0  0  0  0  0  0  0  0
   11.1001  -16.6497   18.3370 C   0  0  0  0  0  0  0  0  0  0  0  0
   11.3714  -17.5412   19.1779 O   0  0  0  0  0  0  0  0  0  0  0  0
    7.9292  -11.2480   21.2186 N   0  0  0  0  0  0  0  0  0  0  0  0
   15.4871  -12.4907   17.1681 C   0  0  0  0  0  0  0  0  0  0  0  0
   16.1891  -13.2498   18.1318 O   0  0  0  0  0  0  0  0  0  0  0  0
   17.3928  -12.9440   18.4127 C   0  0  0  0  0  0  0  0  0  0  0  0
   15.5172  -14.4029   18.8131 C   0  0  0  0  0  0  0  0  0  0  0  0
   14.0983  -14.4737   18.3246 C   0  0  2  0  0  0  0  0  0  0  0  0
   13.2956  -15.5824   18.9542 N   0  0  0  0  0  0  0  0  0  0  0  0
   11.9877  -15.5453   18.2605 C   0  0  0  0  0  0  0  0  0  0  0  0
   13.1089  -15.3441   20.3940 O   0  0  0  0  0  0  0  0  0  0  0  0
   12.6385  -14.2456   20.7663 N   0  0  0  0  0  0  0  0  0  0  0  0
    9.8829  -16.7036   25.2523 C   0  0  0  0  0  0  0  0  0  0  0  0
    9.7953  -16.8053   23.8535 O   0  0  0  0  0  0  0  0  0  0  0  0
    8.7226  -17.2963   23.3721 C   0  0  0  0  0  0  0  0  0  0  0  0
   10.8804  -16.3721   22.9395 C   0  0  0  0  0  0  0  0  0  0  0  0
   12.2471  -16.7279   23.4933 C   0  0  2  0  0  0  0  0  0  0  0  0
   13.3355  -15.9424   22.7757 N   0  0  0  0  0  0  0  0  0  0  0  0
   13.4338  -16.2968   21.3967 C   0  0  0  0  0  0  0  0  0  0  0  0
   14.6391  -16.0819   23.4920 O   0  0  0  0  0  0  0  0  0  0  0  0
   15.6295  -16.6837   23.0127 O   0  0  0  0  0  0  0  0  0  0  0  0
  2  1  1  0
  3  2  2  0
  4  2  1  0
  5  6  1  0
  5  4  1  0
  7  6  1  0
  8  7  1  0
  8  9  1  1
 10 11  2  0
 10  8  1  0
 13 12  1  0
 13 15  1  0
 14 13  2  0
 16 15  1  0
 17 16  1  6
 17 18  1  0
 18 10  1  0
 19 17  1  0
 19 27  1  0
 20 19  2  0
 22 21  1  0
 22 23  2  0
 24 22  1  0
 25 24  1  0
 26 27  1  0
 26 25  1  6
 28 26  1  0
 29 28  2  0
 30 28  1  0
M  END
$$$$
