RQQ.pdb
     RDKit          3D

 30 29  0  0  1  0  0  0  0  0999 V2000
    9.3295  -13.3525   18.8064 N   0  0  0  0  0  0  0  0  0  0  0  0
    8.8105  -12.4030   19.6973 C   0  0  0  0  0  0  0  0  0  0  0  0
    9.0015  -11.1520   19.5211 N   0  0  0  0  0  0  0  0  0  0  0  0
    8.0524  -12.8228   20.8248 N   0  0  0  0  0  0  0  0  0  0  0  0
    8.0933  -14.1741   21.2962 C   0  0  0  0  0  0  0  0  0  0  0  0
    6.8302  -14.8906   20.9085 C   0  0  0  0  0  0  0  0  0  0  0  0
    6.8976  -16.3130   21.3650 C   0  0  0  0  0  0  0  0  0  0  0  0
    8.0646  -17.0592   20.7342 C   0  0  2  0  0  0  0  0  0  0  0  0
    7.5368  -17.9925   19.7513 N   0  0  0  0  0  0  0  0  0  0  0  0
    8.8522  -17.7898   21.7505 C   0  0  0  0  0  0  0  0  0  0  0  0
    8.2849  -18.6880   22.4190 O   0  0  0  0  0  0  0  0  0  0  0  0
    8.6413  -10.4110   20.1565 N   0  0  0  0  0  0  0  0  0  0  0  0
   15.6493  -18.9483   22.9023 C   0  0  0  0  0  0  0  0  0  0  0  0
   14.4746  -19.6754   22.6040 O   0  0  0  0  0  0  0  0  0  0  0  0
   14.5053  -20.5680   21.6965 C   0  0  0  0  0  0  0  0  0  0  0  0
   13.2075  -19.3934   23.3526 C   0  0  0  0  0  0  0  0  0  0  0  0
   12.2765  -18.6520   22.4359 C   0  0  1  0  0  0  0  0  0  0  0  0
   10.9347  -18.3497   23.0506 N   0  0  0  0  0  0  0  0  0  0  0  0
   10.2219  -17.5470   22.0303 C   0  0  0  0  0  0  0  0  0  0  0  0
   11.0871  -17.5698   24.2886 O   0  0  0  0  0  0  0  0  0  0  0  0
   11.6386  -16.4478   24.2291 N   0  0  0  0  0  0  0  0  0  0  0  0
    9.2609  -14.2266   27.4118 C   0  0  0  0  0  0  0  0  0  0  0  0
    9.8193  -14.7376   28.5957 O   0  0  0  0  0  0  0  0  0  0  0  0
   10.1011  -13.9008   29.5143 C   0  0  0  0  0  0  0  0  0  0  0  0
   10.0858  -16.1811   28.8092 C   0  0  0  0  0  0  0  0  0  0  0  0
    9.7193  -16.9997   27.5858 C   0  0  2  0  0  0  0  0  0  0  0  0
   10.9510  -17.2658   26.7322 N   0  0  0  0  0  0  0  0  0  0  0  0
   10.6405  -18.0190   25.5603 C   0  0  0  0  0  0  0  0  0  0  0  0
   12.0252  -17.9054   27.5500 O   0  0  0  0  0  0  0  0  0  0  0  0
   11.9758  -19.0940   27.9470 O   0  0  0  0  0  0  0  0  0  0  0  0
  2  1  1  0
  3  2  2  0
  4  2  1  0
  5  6  1  0
  5  4  1  0
  7  6  1  0
  8  7  1  0
  8  9  1  6
 10 11  2  0
 10  8  1  0
 13 12  1  0
 13 15  1  0
 14 13  2  0
 16 15  1  0
 17 16  1  6
 17 18  1  0
 18 10  1  0
 19 17  1  0
 19 27  1  0
 20 19  2  0
 22 21  1  0
 22 23  2  0
 24 22  1  0
 25 24  1  0
 26 27  1  0
 26 25  1  6
 28 26  1  0
 29 28  2  0
 30 28  1  0
M  END
$$$$
