RQQ.pdb
     RDKit          3D

 30 29  0  0  1  0  0  0  0  0999 V2000
    8.4813  -12.4068   17.6415 N   0  0  0  0  0  0  0  0  0  0  0  0
    8.1833  -13.4707   16.7790 C   0  0  0  0  0  0  0  0  0  0  0  0
    8.5485  -13.4562   15.5546 N   0  0  0  0  0  0  0  0  0  0  0  0
    7.4617  -14.5977   17.2598 N   0  0  0  0  0  0  0  0  0  0  0  0
    7.7921  -15.2263   18.5031 C   0  0  0  0  0  0  0  0  0  0  0  0
    8.3597  -14.2115   19.4554 C   0  0  0  0  0  0  0  0  0  0  0  0
    7.7827  -14.4224   20.8188 C   0  0  0  0  0  0  0  0  0  0  0  0
    8.6159  -15.3904   21.6466 C   0  0  2  0  0  0  0  0  0  0  0  0
    7.8221  -16.5834   21.8968 N   0  0  0  0  0  0  0  0  0  0  0  0
    9.0330  -14.7848   22.9296 C   0  0  0  0  0  0  0  0  0  0  0  0
    9.3975  -13.5838   22.9369 O   0  0  0  0  0  0  0  0  0  0  0  0
    8.3680  -14.2293   14.8821 N   0  0  0  0  0  0  0  0  0  0  0  0
    5.8402  -12.6415   26.7970 C   0  0  0  0  0  0  0  0  0  0  0  0
    6.5916  -11.9116   25.8481 O   0  0  0  0  0  0  0  0  0  0  0  0
    6.4915  -10.6428   25.8136 C   0  0  0  0  0  0  0  0  0  0  0  0
    7.4962  -12.6307   24.8940 C   0  0  0  0  0  0  0  0  0  0  0  0
    7.4028  -14.1028   25.1789 C   0  0  2  0  0  0  0  0  0  0  0  0
    8.7366  -14.7568   25.4300 N   0  0  0  0  0  0  0  0  0  0  0  0
    9.0521  -15.4709   24.1715 C   0  0  0  0  0  0  0  0  0  0  0  0
    8.6515  -15.7137   26.5442 O   0  0  0  0  0  0  0  0  0  0  0  0
    8.5343  -15.2720   27.7094 N   0  0  0  0  0  0  0  0  0  0  0  0
   10.2201  -21.9872   25.9331 C   0  0  0  0  0  0  0  0  0  0  0  0
   10.7198  -21.5400   27.1681 O   0  0  0  0  0  0  0  0  0  0  0  0
   11.4043  -22.3681   27.8529 C   0  0  0  0  0  0  0  0  0  0  0  0
   10.4848  -20.1715   27.6902 C   0  0  0  0  0  0  0  0  0  0  0  0
    9.7429  -19.3133   26.6829 C   0  0  2  0  0  0  0  0  0  0  0  0
    9.4888  -17.9237   27.2492 N   0  0  0  0  0  0  0  0  0  0  0  0
    8.6944  -17.1236   26.3742 C   0  0  0  0  0  0  0  0  0  0  0  0
   10.7790  -17.2620   27.6087 O   0  0  0  0  0  0  0  0  0  0  0  0
   11.4095  -16.5086   26.8293 O   0  0  0  0  0  0  0  0  0  0  0  0
  2  1  1  0
  3  2  2  0
  4  2  1  0
  5  6  1  0
  5  4  1  0
  7  6  1  0
  8  7  1  0
  8  9  1  1
 10 11  2  0
 10  8  1  0
 13 12  1  0
 13 15  1  0
 14 13  2  0
 16 15  1  0
 17 16  1  6
 17 18  1  0
 18 10  1  0
 19 17  1  0
 19 27  1  0
 20 19  2  0
 22 21  1  0
 22 23  2  0
 24 22  1  0
 25 24  1  0
 26 27  1  0
 26 25  1  1
 28 26  1  0
 29 28  2  0
 30 28  1  0
M  END
$$$$
