KGV.pdb
     RDKit          3D

 21 20  0  0  1  0  0  0  0  0999 V2000
    5.4663  -15.2798   22.3120 N   0  0  0  0  0  0  0  0  0  0  0  0
    6.5898  -16.1031   21.9590 C   0  0  1  0  0  0  0  0  0  0  0  0
    7.7489  -15.2354   21.4512 C   0  0  0  0  0  0  0  0  0  0  0  0
    7.2748  -14.5689   20.2048 C   0  0  0  0  0  0  0  0  0  0  0  0
    8.3474  -13.7971   19.4844 C   0  0  0  0  0  0  0  0  0  0  0  0
    7.8313  -13.0175   18.3117 C   0  0  0  0  0  0  0  0  0  0  0  0
    8.8486  -12.2230   17.6722 N   0  0  0  0  0  0  0  0  0  0  0  0
    7.1043  -16.9036   23.0727 C   0  0  0  0  0  0  0  0  0  0  0  0
    7.9920  -17.7509   22.8582 O   0  0  0  0  0  0  0  0  0  0  0  0
    6.6058  -16.7256   24.3849 N   0  0  0  0  0  0  0  0  0  0  0  0
    7.1851  -17.4944   25.4510 C   0  0  0  0  0  0  0  0  0  0  0  0
    8.4718  -16.9277   25.8959 C   0  0  0  0  0  0  0  0  0  0  0  0
    9.4768  -17.0975   25.1603 O   0  0  0  0  0  0  0  0  0  0  0  0
    9.0962  -14.2653   29.2711 C   0  0  0  0  0  0  0  0  0  0  0  0
    9.9132  -14.2773   27.9908 C   0  0  2  0  0  0  0  0  0  0  0  0
    9.1890  -13.3400   27.0231 C   0  0  0  0  0  0  0  0  0  0  0  0
    9.9226  -15.6738   27.4609 C   0  0  2  0  0  0  0  0  0  0  0  0
    8.6689  -16.2087   27.0821 N   0  0  0  0  0  0  0  0  0  0  0  0
   10.5437  -16.5808   28.4610 C   0  0  0  0  0  0  0  0  0  0  0  0
    9.8858  -17.4623   29.0500 O   0  0  0  0  0  0  0  0  0  0  0  0
   11.9049  -16.4955   28.7977 O   0  0  0  0  0  0  0  0  0  0  0  0
  2  8  1  0
  2  1  1  1
  3  2  1  0
  4  3  1  0
  5  4  1  0
  6  7  1  0
  6  5  1  0
  8  9  2  0
 10  8  1  0
 10 11  1  0
 11 12  1  0
 12 13  2  0
 15 14  1  1
 15 17  1  0
 16 15  1  0
 17 19  1  0
 18 12  1  0
 17 18  1  1
 19 20  2  0
 19 21  1  0
M  END
$$$$
