KGV.pdb
     RDKit          3D

 21 20  0  0  1  0  0  0  0  0999 V2000
    9.6005  -15.9556   18.4263 N   0  0  0  0  0  0  0  0  0  0  0  0
    9.0038  -14.8480   19.1205 C   0  0  1  0  0  0  0  0  0  0  0  0
    8.0852  -14.0594   18.1777 C   0  0  0  0  0  0  0  0  0  0  0  0
    8.4652  -14.4399   16.7873 C   0  0  0  0  0  0  0  0  0  0  0  0
    7.6118  -13.7960   15.7280 C   0  0  0  0  0  0  0  0  0  0  0  0
    8.0073  -14.1799   14.3331 C   0  0  0  0  0  0  0  0  0  0  0  0
    7.0547  -13.7532   13.3404 N   0  0  0  0  0  0  0  0  0  0  0  0
    8.1979  -15.2453   20.2775 C   0  0  0  0  0  0  0  0  0  0  0  0
    7.9556  -16.4522   20.4687 O   0  0  0  0  0  0  0  0  0  0  0  0
    7.6934  -14.2766   21.1770 N   0  0  0  0  0  0  0  0  0  0  0  0
    7.0181  -14.7247   22.3628 C   0  0  0  0  0  0  0  0  0  0  0  0
    7.7560  -14.3533   23.5845 C   0  0  0  0  0  0  0  0  0  0  0  0
    8.9929  -14.1523   23.4880 O   0  0  0  0  0  0  0  0  0  0  0  0
    5.8927  -12.8528   27.0687 C   0  0  0  0  0  0  0  0  0  0  0  0
    7.3038  -12.4948   26.6358 C   0  0  2  0  0  0  0  0  0  0  0  0
    7.1573  -11.3387   25.6451 C   0  0  0  0  0  0  0  0  0  0  0  0
    7.8990  -13.6890   25.9644 C   0  0  2  0  0  0  0  0  0  0  0  0
    7.1870  -14.2046   24.8560 N   0  0  0  0  0  0  0  0  0  0  0  0
    8.0834  -14.7779   26.9589 C   0  0  0  0  0  0  0  0  0  0  0  0
    7.4226  -15.8351   26.9095 O   0  0  0  0  0  0  0  0  0  0  0  0
    9.0115  -14.6766   28.0087 O   0  0  0  0  0  0  0  0  0  0  0  0
  2  8  1  0
  2  1  1  6
  3  2  1  0
  4  3  1  0
  5  4  1  0
  6  7  1  0
  6  5  1  0
  8  9  2  0
 10  8  1  0
 10 11  1  0
 11 12  1  0
 12 13  2  0
 15 14  1  6
 15 17  1  0
 16 15  1  0
 17 19  1  0
 18 12  1  0
 17 18  1  6
 19 20  2  0
 19 21  1  0
M  END
$$$$
