KGV.pdb
     RDKit          3D

 21 20  0  0  1  0  0  0  0  0999 V2000
    6.8139  -20.6121   21.7377 N   0  0  0  0  0  0  0  0  0  0  0  0
    7.0223  -19.1953   21.6191 C   0  0  1  0  0  0  0  0  0  0  0  0
    6.3700  -18.6654   20.3352 C   0  0  0  0  0  0  0  0  0  0  0  0
    7.2974  -18.9908   19.2143 C   0  0  0  0  0  0  0  0  0  0  0  0
    6.8936  -18.3835   17.8978 C   0  0  0  0  0  0  0  0  0  0  0  0
    7.9182  -18.5710   16.8187 C   0  0  0  0  0  0  0  0  0  0  0  0
    7.5696  -17.9056   15.5897 N   0  0  0  0  0  0  0  0  0  0  0  0
    6.4691  -18.4248   22.7353 C   0  0  0  0  0  0  0  0  0  0  0  0
    5.3297  -18.6952   23.1600 O   0  0  0  0  0  0  0  0  0  0  0  0
    7.2123  -17.3803   23.3343 N   0  0  0  0  0  0  0  0  0  0  0  0
    6.5921  -16.6006   24.3691 C   0  0  0  0  0  0  0  0  0  0  0  0
    7.4814  -15.5274   24.8510 C   0  0  0  0  0  0  0  0  0  0  0  0
    8.6770  -15.5338   24.4634 O   0  0  0  0  0  0  0  0  0  0  0  0
    6.1899  -12.1442   27.1224 C   0  0  0  0  0  0  0  0  0  0  0  0
    7.3918  -12.0856   26.1956 C   0  0  2  0  0  0  0  0  0  0  0  0
    6.8494  -11.6490   24.8337 C   0  0  0  0  0  0  0  0  0  0  0  0
    7.9789  -13.4564   26.1118 C   0  0  2  0  0  0  0  0  0  0  0  0
    7.1003  -14.4912   25.7134 N   0  0  0  0  0  0  0  0  0  0  0  0
    8.5794  -13.8209   27.4215 C   0  0  0  0  0  0  0  0  0  0  0  0
    8.0992  -14.7213   28.1394 O   0  0  0  0  0  0  0  0  0  0  0  0
    9.7201  -13.1719   27.9227 O   0  0  0  0  0  0  0  0  0  0  0  0
  2  8  1  0
  2  1  1  1
  3  2  1  0
  4  3  1  0
  5  4  1  0
  6  7  1  0
  6  5  1  0
  8  9  2  0
 10  8  1  0
 10 11  1  0
 11 12  1  0
 12 13  2  0
 15 14  1  1
 15 17  1  0
 16 15  1  0
 17 19  1  0
 18 12  1  0
 17 18  1  1
 19 20  2  0
 19 21  1  0
M  END
$$$$
