KGV.pdb
     RDKit          3D

 21 20  0  0  1  0  0  0  0  0999 V2000
    9.2045  -17.9029   20.5208 N   0  0  0  0  0  0  0  0  0  0  0  0
    8.7473  -16.6703   19.9409 C   0  0  1  0  0  0  0  0  0  0  0  0
    7.9537  -16.9464   18.6569 C   0  0  0  0  0  0  0  0  0  0  0  0
    7.2724  -18.2590   18.8449 C   0  0  0  0  0  0  0  0  0  0  0  0
    6.7389  -18.8532   17.5692 C   0  0  0  0  0  0  0  0  0  0  0  0
    5.9286  -20.0963   17.7871 C   0  0  0  0  0  0  0  0  0  0  0  0
    4.7001  -20.1065   17.0351 N   0  0  0  0  0  0  0  0  0  0  0  0
    7.8794  -15.8908   20.8267 C   0  0  0  0  0  0  0  0  0  0  0  0
    7.4986  -14.7596   20.4697 O   0  0  0  0  0  0  0  0  0  0  0  0
    7.4702  -16.4067   22.0791 N   0  0  0  0  0  0  0  0  0  0  0  0
    6.6610  -15.5813   22.9319 C   0  0  0  0  0  0  0  0  0  0  0  0
    7.4748  -14.8713   23.9361 C   0  0  0  0  0  0  0  0  0  0  0  0
    8.7238  -15.0014   23.8818 O   0  0  0  0  0  0  0  0  0  0  0  0
    5.8836  -12.5595   27.1668 C   0  0  0  0  0  0  0  0  0  0  0  0
    7.2082  -12.1704   26.5337 C   0  0  2  0  0  0  0  0  0  0  0  0
    6.8740  -11.1141   25.4791 C   0  0  0  0  0  0  0  0  0  0  0  0
    7.7896  -13.3873   25.8918 C   0  0  2  0  0  0  0  0  0  0  0  0
    6.9663  -14.0559   24.9555 N   0  0  0  0  0  0  0  0  0  0  0  0
    8.1983  -14.3561   26.9421 C   0  0  0  0  0  0  0  0  0  0  0  0
    7.6143  -15.4480   27.0954 O   0  0  0  0  0  0  0  0  0  0  0  0
    9.2642  -14.0957   27.8194 O   0  0  0  0  0  0  0  0  0  0  0  0
  2  8  1  0
  2  1  1  1
  3  2  1  0
  4  3  1  0
  5  4  1  0
  6  7  1  0
  6  5  1  0
  8  9  2  0
 10  8  1  0
 10 11  1  0
 11 12  1  0
 12 13  2  0
 15 14  1  6
 15 17  1  0
 16 15  1  0
 17 19  1  0
 18 12  1  0
 17 18  1  6
 19 20  2  0
 19 21  1  0
M  END
$$$$
