KGV.pdb
     RDKit          3D

 21 20  0  0  1  0  0  0  0  0999 V2000
    6.0429  -17.6851   20.3746 N   0  0  0  0  0  0  0  0  0  0  0  0
    6.8565  -16.7296   21.0744 C   0  0  1  0  0  0  0  0  0  0  0  0
    6.5502  -15.3077   20.5854 C   0  0  0  0  0  0  0  0  0  0  0  0
    7.4263  -15.0597   19.4050 C   0  0  0  0  0  0  0  0  0  0  0  0
    7.2051  -13.7194   18.7570 C   0  0  0  0  0  0  0  0  0  0  0  0
    8.0673  -13.4941   17.5506 C   0  0  0  0  0  0  0  0  0  0  0  0
    7.8733  -12.1974   16.9542 N   0  0  0  0  0  0  0  0  0  0  0  0
    6.6577  -16.7401   22.5257 C   0  0  0  0  0  0  0  0  0  0  0  0
    5.5168  -16.9367   22.9854 O   0  0  0  0  0  0  0  0  0  0  0  0
    7.7438  -16.5301   23.4080 N   0  0  0  0  0  0  0  0  0  0  0  0
    7.5008  -16.5823   24.8227 C   0  0  0  0  0  0  0  0  0  0  0  0
    8.7097  -16.2445   25.5969 C   0  0  0  0  0  0  0  0  0  0  0  0
    9.7790  -16.0498   24.9655 O   0  0  0  0  0  0  0  0  0  0  0  0
    8.6792  -13.4008   27.9726 C   0  0  0  0  0  0  0  0  0  0  0  0
    9.5011  -14.4683   28.6738 C   0  0  2  0  0  0  0  0  0  0  0  0
   10.7625  -13.7633   29.1754 C   0  0  0  0  0  0  0  0  0  0  0  0
    9.8503  -15.5175   27.6697 C   0  0  2  0  0  0  0  0  0  0  0  0
    8.7656  -16.1214   26.9913 N   0  0  0  0  0  0  0  0  0  0  0  0
   10.6545  -16.5828   28.3231 C   0  0  0  0  0  0  0  0  0  0  0  0
   10.1235  -17.5862   28.8408 O   0  0  0  0  0  0  0  0  0  0  0  0
   12.0561  -16.5185   28.3937 O   0  0  0  0  0  0  0  0  0  0  0  0
  2  8  1  0
  2  1  1  6
  3  2  1  0
  4  3  1  0
  5  4  1  0
  6  7  1  0
  6  5  1  0
  8  9  2  0
 10  8  1  0
 10 11  1  0
 11 12  1  0
 12 13  2  0
 15 14  1  6
 15 17  1  0
 16 15  1  0
 17 19  1  0
 18 12  1  0
 17 18  1  1
 19 20  2  0
 19 21  1  0
M  END
$$$$
