KGV.pdb
     RDKit          3D

 21 20  0  0  1  0  0  0  0  0999 V2000
    8.0096  -17.6812   19.1620 N   0  0  0  0  0  0  0  0  0  0  0  0
    8.4110  -17.7906   20.5373 C   0  0  1  0  0  0  0  0  0  0  0  0
    9.8587  -17.3125   20.7106 C   0  0  0  0  0  0  0  0  0  0  0  0
   10.7312  -18.5097   20.5433 C   0  0  0  0  0  0  0  0  0  0  0  0
   12.2027  -18.2019   20.6140 C   0  0  0  0  0  0  0  0  0  0  0  0
   13.0718  -19.3986   20.3646 C   0  0  0  0  0  0  0  0  0  0  0  0
   14.4709  -19.0688   20.2725 N   0  0  0  0  0  0  0  0  0  0  0  0
    7.5830  -17.0045   21.4551 C   0  0  0  0  0  0  0  0  0  0  0  0
    7.1323  -15.9045   21.0826 O   0  0  0  0  0  0  0  0  0  0  0  0
    7.2906  -17.4793   22.7556 N   0  0  0  0  0  0  0  0  0  0  0  0
    6.4934  -16.6590   23.6243 C   0  0  0  0  0  0  0  0  0  0  0  0
    7.3203  -15.6985   24.3784 C   0  0  0  0  0  0  0  0  0  0  0  0
    8.5643  -15.7245   24.2007 O   0  0  0  0  0  0  0  0  0  0  0  0
    6.2028  -11.9131   25.5881 C   0  0  0  0  0  0  0  0  0  0  0  0
    6.9727  -12.6901   26.6419 C   0  0  2  0  0  0  0  0  0  0  0  0
    7.9957  -11.7110   27.2200 C   0  0  0  0  0  0  0  0  0  0  0  0
    7.6613  -13.8300   25.9654 C   0  0  2  0  0  0  0  0  0  0  0  0
    6.8293  -14.7501   25.2852 N   0  0  0  0  0  0  0  0  0  0  0  0
    8.4816  -14.5739   26.9565 C   0  0  0  0  0  0  0  0  0  0  0  0
    8.0098  -15.5097   27.6336 O   0  0  0  0  0  0  0  0  0  0  0  0
    9.8327  -14.2644   27.1852 O   0  0  0  0  0  0  0  0  0  0  0  0
  2  8  1  0
  2  1  1  6
  3  2  1  0
  4  3  1  0
  5  4  1  0
  6  7  1  0
  6  5  1  0
  8  9  2  0
 10  8  1  0
 10 11  1  0
 11 12  1  0
 12 13  2  0
 15 14  1  6
 15 17  1  0
 16 15  1  0
 17 19  1  0
 18 12  1  0
 17 18  1  1
 19 20  2  0
 19 21  1  0
M  END
$$$$
