KGV.pdb
     RDKit          3D

 21 20  0  0  1  0  0  0  0  0999 V2000
    9.7998  -13.4365   19.1733 N   0  0  0  0  0  0  0  0  0  0  0  0
    8.4024  -13.6834   19.3990 C   0  0  1  0  0  0  0  0  0  0  0  0
    7.8040  -14.4740   18.2279 C   0  0  0  0  0  0  0  0  0  0  0  0
    8.1753  -13.7455   16.9813 C   0  0  0  0  0  0  0  0  0  0  0  0
    7.5458  -14.3127   15.7375 C   0  0  0  0  0  0  0  0  0  0  0  0
    7.8973  -13.5508   14.4943 C   0  0  0  0  0  0  0  0  0  0  0  0
    7.3503  -14.1403   13.2992 N   0  0  0  0  0  0  0  0  0  0  0  0
    8.1303  -14.4460   20.6197 C   0  0  0  0  0  0  0  0  0  0  0  0
    8.9000  -15.3684   20.9490 O   0  0  0  0  0  0  0  0  0  0  0  0
    7.0066  -14.1474   21.4260 N   0  0  0  0  0  0  0  0  0  0  0  0
    6.8183  -14.8852   22.6439 C   0  0  0  0  0  0  0  0  0  0  0  0
    7.5938  -14.3076   23.7574 C   0  0  0  0  0  0  0  0  0  0  0  0
    8.4824  -13.4626   23.4812 O   0  0  0  0  0  0  0  0  0  0  0  0
    6.0345  -13.3652   27.2969 C   0  0  0  0  0  0  0  0  0  0  0  0
    7.3728  -12.8351   26.8125 C   0  0  2  0  0  0  0  0  0  0  0  0
    7.0464  -11.7381   25.7978 C   0  0  0  0  0  0  0  0  0  0  0  0
    8.1046  -13.9584   26.1539 C   0  0  2  0  0  0  0  0  0  0  0  0
    7.4205  -14.6257   25.1107 N   0  0  0  0  0  0  0  0  0  0  0  0
    8.5033  -14.9596   27.1772 C   0  0  0  0  0  0  0  0  0  0  0  0
    8.0800  -16.1331   27.1519 O   0  0  0  0  0  0  0  0  0  0  0  0
    9.3784  -14.6399   28.2287 O   0  0  0  0  0  0  0  0  0  0  0  0
  2  8  1  0
  2  1  1  6
  3  2  1  0
  4  3  1  0
  5  4  1  0
  6  7  1  0
  6  5  1  0
  8  9  2  0
 10  8  1  0
 10 11  1  0
 11 12  1  0
 12 13  2  0
 15 14  1  6
 15 17  1  0
 16 15  1  0
 17 19  1  0
 18 12  1  0
 17 18  1  6
 19 20  2  0
 19 21  1  0
M  END
$$$$
