KGV.pdb
     RDKit          3D

 21 20  0  0  1  0  0  0  0  0999 V2000
    6.1495  -16.2062   19.9628 N   0  0  0  0  0  0  0  0  0  0  0  0
    7.0715  -15.4403   20.7552 C   0  0  1  0  0  0  0  0  0  0  0  0
    6.8370  -13.9385   20.5445 C   0  0  0  0  0  0  0  0  0  0  0  0
    7.7860  -13.4987   19.4822 C   0  0  0  0  0  0  0  0  0  0  0  0
    9.2317  -13.5663   19.8951 C   0  0  0  0  0  0  0  0  0  0  0  0
   10.1782  -13.1370   18.8138 C   0  0  0  0  0  0  0  0  0  0  0  0
   11.5458  -13.0623   19.2598 N   0  0  0  0  0  0  0  0  0  0  0  0
    6.9644  -15.6973   22.1933 C   0  0  0  0  0  0  0  0  0  0  0  0
    5.8837  -15.4820   22.7743 O   0  0  0  0  0  0  0  0  0  0  0  0
    8.0712  -16.1857   22.9272 N   0  0  0  0  0  0  0  0  0  0  0  0
    7.8788  -16.5448   24.3046 C   0  0  0  0  0  0  0  0  0  0  0  0
    8.9029  -15.9379   25.1750 C   0  0  0  0  0  0  0  0  0  0  0  0
   10.0577  -15.7792   24.7048 O   0  0  0  0  0  0  0  0  0  0  0  0
    8.2574  -14.2948   29.1473 C   0  0  0  0  0  0  0  0  0  0  0  0
    9.2679  -13.7694   28.1424 C   0  0  2  0  0  0  0  0  0  0  0  0
    8.5263  -12.7203   27.3123 C   0  0  0  0  0  0  0  0  0  0  0  0
    9.7002  -14.9106   27.2810 C   0  0  2  0  0  0  0  0  0  0  0  0
    8.6933  -15.5194   26.4955 N   0  0  0  0  0  0  0  0  0  0  0  0
   10.3417  -15.9537   28.1229 C   0  0  0  0  0  0  0  0  0  0  0  0
    9.8041  -17.0616   28.3239 O   0  0  0  0  0  0  0  0  0  0  0  0
   11.5879  -15.7497   28.7384 O   0  0  0  0  0  0  0  0  0  0  0  0
  2  8  1  0
  2  1  1  6
  3  2  1  0
  4  3  1  0
  5  4  1  0
  6  7  1  0
  6  5  1  0
  8  9  2  0
 10  8  1  0
 10 11  1  0
 11 12  1  0
 12 13  2  0
 15 14  1  1
 15 17  1  0
 16 15  1  0
 17 19  1  0
 18 12  1  0
 17 18  1  1
 19 20  2  0
 19 21  1  0
M  END
$$$$
