HKM.pdb
     RDKit          3D

 28 28  0  0  1  0  0  0  0  0999 V2000
    7.8047  -16.8109   19.7379 N   0  0  0  0  0  0  0  0  0  0  0  0
    8.3139  -15.8185   20.6663 C   0  0  1  0  0  0  0  0  0  0  0  0
    7.5021  -14.5669   20.5297 C   0  0  0  0  0  0  0  0  0  0  0  0
    7.8497  -13.8998   19.2584 C   0  0  0  0  0  0  0  0  0  0  0  0
    8.4677  -12.6597   19.0761 C   0  0  0  0  0  0  0  0  0  0  0  0
    8.5838  -12.4571   17.7523 N   0  0  0  0  0  0  0  0  0  0  0  0
    8.0617  -13.5229   17.1227 C   0  0  0  0  0  0  0  0  0  0  0  0
    7.6184  -14.3943   18.0180 N   0  0  0  0  0  0  0  0  0  0  0  0
    8.2756  -16.3497   22.0597 C   0  0  0  0  0  0  0  0  0  0  0  0
    7.1335  -16.5375   22.5739 O   0  0  0  0  0  0  0  0  0  0  0  0
    9.4720  -16.6236   22.7554 N   0  0  0  0  0  0  0  0  0  0  0  0
    9.4700  -17.2036   24.0885 C   0  0  1  0  0  0  0  0  0  0  0  0
   10.4596  -18.3295   24.1868 C   0  0  0  0  0  0  0  0  0  0  0  0
   10.4995  -18.8552   25.5633 C   0  0  0  0  0  0  0  0  0  0  0  0
   11.5835  -19.8770   25.8138 C   0  0  0  0  0  0  0  0  0  0  0  0
   11.6426  -20.3483   27.2307 C   0  0  0  0  0  0  0  0  0  0  0  0
   12.7528  -21.2590   27.4421 N   0  0  0  0  0  0  0  0  0  0  0  0
    9.8497  -16.1216   25.0246 C   0  0  0  0  0  0  0  0  0  0  0  0
   10.8669  -15.3940   24.9097 O   0  0  0  0  0  0  0  0  0  0  0  0
    7.1858  -10.3272   26.8025 C   0  0  0  0  0  0  0  0  0  0  0  0
    6.7211  -11.9006   26.0473 S   0  0  0  0  0  0  0  0  0  0  0  0
    8.0811  -13.0594   25.9947 C   0  0  0  0  0  0  0  0  0  0  0  0
    8.3442  -13.8419   27.2140 C   0  0  0  0  0  0  0  0  0  0  0  0
    9.4422  -14.8415   27.1387 C   0  0  2  0  0  0  0  0  0  0  0  0
    9.0248  -15.8642   26.1428 N   0  0  0  0  0  0  0  0  0  0  0  0
    9.7983  -15.5290   28.3811 C   0  0  0  0  0  0  0  0  0  0  0  0
    9.4624  -16.7527   28.4914 O   0  0  0  0  0  0  0  0  0  0  0  0
   10.4682  -14.9947   29.4498 O   0  0  0  0  0  0  0  0  0  0  0  0
  2  1  1  6
  3  2  1  0
  4  3  1  0
  4  5  2  0
  6  5  1  0
  7  6  1  0
  8  7  2  0
  8  4  1  0
  9  2  1  0
 10  9  2  0
 11  9  1  0
 12 11  1  0
 12 13  1  6
 13 14  1  0
 14 15  1  0
 16 15  1  0
 17 16  1  0
 18 12  1  0
 19 18  2  0
 21 20  1  0
 22 21  1  0
 23 22  1  0
 24 23  1  1
 24 25  1  0
 25 18  1  0
 26 24  1  0
 26 28  1  0
 27 26  2  0
M  END
$$$$
