HKM.pdb
     RDKit          3D

 28 28  0  0  1  0  0  0  0  0999 V2000
    6.8991  -16.5584   18.6443 N   0  0  0  0  0  0  0  0  0  0  0  0
    8.1073  -16.0570   19.2728 C   0  0  1  0  0  0  0  0  0  0  0  0
    8.1660  -14.5711   19.0916 C   0  0  0  0  0  0  0  0  0  0  0  0
    8.2718  -14.2621   17.6509 C   0  0  0  0  0  0  0  0  0  0  0  0
    7.4449  -13.4380   16.8828 C   0  0  0  0  0  0  0  0  0  0  0  0
    7.9167  -13.4529   15.6242 N   0  0  0  0  0  0  0  0  0  0  0  0
    8.9962  -14.2522   15.5959 C   0  0  0  0  0  0  0  0  0  0  0  0
    9.2175  -14.7426   16.8075 N   0  0  0  0  0  0  0  0  0  0  0  0
    8.1330  -16.4368   20.7151 C   0  0  0  0  0  0  0  0  0  0  0  0
    7.1022  -16.1686   21.4002 O   0  0  0  0  0  0  0  0  0  0  0  0
    9.2669  -17.0663   21.2703 N   0  0  0  0  0  0  0  0  0  0  0  0
    9.2763  -17.5674   22.6350 C   0  0  1  0  0  0  0  0  0  0  0  0
   10.4044  -18.5370   22.8444 C   0  0  0  0  0  0  0  0  0  0  0  0
   10.3951  -19.0395   24.2300 C   0  0  0  0  0  0  0  0  0  0  0  0
   11.4380  -20.0923   24.5230 C   0  0  0  0  0  0  0  0  0  0  0  0
   11.3912  -20.6035   25.9265 C   0  0  0  0  0  0  0  0  0  0  0  0
   12.3832  -21.6396   26.1481 N   0  0  0  0  0  0  0  0  0  0  0  0
    9.4561  -16.3936   23.5188 C   0  0  0  0  0  0  0  0  0  0  0  0
   10.2650  -15.4550   23.3138 O   0  0  0  0  0  0  0  0  0  0  0  0
    6.0329  -10.7260   27.2628 C   0  0  0  0  0  0  0  0  0  0  0  0
    5.8713  -12.3820   26.5606 S   0  0  0  0  0  0  0  0  0  0  0  0
    7.4233  -13.2688   26.5416 C   0  0  0  0  0  0  0  0  0  0  0  0
    7.5217  -14.4310   25.6429 C   0  0  0  0  0  0  0  0  0  0  0  0
    8.8399  -15.1160   25.5833 C   0  0  2  0  0  0  0  0  0  0  0  0
    8.6724  -16.2936   24.6905 N   0  0  0  0  0  0  0  0  0  0  0  0
    9.4040  -15.5785   26.8526 C   0  0  0  0  0  0  0  0  0  0  0  0
    9.9203  -14.7019   27.6191 O   0  0  0  0  0  0  0  0  0  0  0  0
    9.4317  -16.8675   27.3152 O   0  0  0  0  0  0  0  0  0  0  0  0
  2  1  1  1
  3  2  1  0
  4  3  1  0
  4  5  2  0
  6  5  1  0
  7  6  1  0
  8  7  2  0
  8  4  1  0
  9  2  1  0
 10  9  2  0
 11  9  1  0
 12 11  1  0
 12 13  1  6
 13 14  1  0
 14 15  1  0
 16 15  1  0
 17 16  1  0
 18 12  1  0
 19 18  2  0
 21 20  1  0
 22 21  1  0
 23 22  1  0
 24 23  1  1
 24 25  1  0
 25 18  1  0
 26 24  1  0
 26 28  1  0
 27 26  2  0
M  END
$$$$
