HKM.pdb
     RDKit          3D

 28 28  0  0  1  0  0  0  0  0999 V2000
   10.8344  -15.8931   18.5665 N   0  0  0  0  0  0  0  0  0  0  0  0
   11.2984  -15.9807   19.9387 C   0  0  1  0  0  0  0  0  0  0  0  0
   11.9951  -14.7036   20.2962 C   0  0  0  0  0  0  0  0  0  0  0  0
   13.3214  -14.6764   19.6463 C   0  0  0  0  0  0  0  0  0  0  0  0
   13.7865  -13.7884   18.6726 C   0  0  0  0  0  0  0  0  0  0  0  0
   15.0487  -14.1415   18.3739 N   0  0  0  0  0  0  0  0  0  0  0  0
   15.3697  -15.2074   19.1260 C   0  0  0  0  0  0  0  0  0  0  0  0
   14.3396  -15.5361   19.8930 N   0  0  0  0  0  0  0  0  0  0  0  0
   10.1525  -16.2568   20.8530 C   0  0  0  0  0  0  0  0  0  0  0  0
    9.1631  -15.4687   20.7914 O   0  0  0  0  0  0  0  0  0  0  0  0
   10.1911  -17.3536   21.7395 N   0  0  0  0  0  0  0  0  0  0  0  0
    9.1243  -17.6080   22.6938 C   0  0  1  0  0  0  0  0  0  0  0  0
    9.0441  -19.0690   23.0342 C   0  0  0  0  0  0  0  0  0  0  0  0
    8.0028  -19.2996   24.0516 C   0  0  0  0  0  0  0  0  0  0  0  0
    7.8858  -20.7321   24.5165 C   0  0  0  0  0  0  0  0  0  0  0  0
    6.8315  -20.9374   25.5556 C   0  0  0  0  0  0  0  0  0  0  0  0
    6.8506  -22.2939   26.0714 N   0  0  0  0  0  0  0  0  0  0  0  0
    9.4459  -16.8286   23.9104 C   0  0  0  0  0  0  0  0  0  0  0  0
   10.5712  -16.7940   24.4670 O   0  0  0  0  0  0  0  0  0  0  0  0
    5.9059  -11.1856   26.4274 C   0  0  0  0  0  0  0  0  0  0  0  0
    7.5185  -11.7234   27.0376 S   0  0  0  0  0  0  0  0  0  0  0  0
    7.6442  -13.5026   27.1547 C   0  0  0  0  0  0  0  0  0  0  0  0
    7.6679  -14.2587   25.8915 C   0  0  0  0  0  0  0  0  0  0  0  0
    8.7351  -15.2842   25.7500 C   0  0  2  0  0  0  0  0  0  0  0  0
    8.4297  -16.0549   24.5152 N   0  0  0  0  0  0  0  0  0  0  0  0
    8.8943  -16.2313   26.8548 C   0  0  0  0  0  0  0  0  0  0  0  0
    9.5663  -15.8457   27.8658 O   0  0  0  0  0  0  0  0  0  0  0  0
    8.3871  -17.5018   26.9240 O   0  0  0  0  0  0  0  0  0  0  0  0
  2  1  1  6
  3  2  1  0
  4  3  1  0
  4  5  2  0
  6  5  1  0
  7  6  1  0
  8  7  2  0
  8  4  1  0
  9  2  1  0
 10  9  2  0
 11  9  1  0
 12 11  1  0
 12 13  1  1
 13 14  1  0
 14 15  1  0
 16 15  1  0
 17 16  1  0
 18 12  1  0
 19 18  2  0
 21 20  1  0
 22 21  1  0
 23 22  1  0
 24 23  1  1
 24 25  1  0
 25 18  1  0
 26 24  1  0
 26 28  1  0
 27 26  2  0
M  END
$$$$
