HKM.pdb
     RDKit          3D

 28 28  0  0  1  0  0  0  0  0999 V2000
    8.0007  -17.0660   18.5285 N   0  0  0  0  0  0  0  0  0  0  0  0
    8.3416  -16.0801   19.5374 C   0  0  1  0  0  0  0  0  0  0  0  0
    7.4046  -14.9178   19.4142 C   0  0  0  0  0  0  0  0  0  0  0  0
    7.7114  -14.1771   18.1735 C   0  0  0  0  0  0  0  0  0  0  0  0
    8.4556  -13.0027   18.0320 C   0  0  0  0  0  0  0  0  0  0  0  0
    8.4725  -12.6903   16.7247 N   0  0  0  0  0  0  0  0  0  0  0  0
    7.7693  -13.6265   16.0659 C   0  0  0  0  0  0  0  0  0  0  0  0
    7.3084  -14.5232   16.9268 N   0  0  0  0  0  0  0  0  0  0  0  0
    8.2825  -16.6927   20.8963 C   0  0  0  0  0  0  0  0  0  0  0  0
    7.1338  -16.9502   21.3631 O   0  0  0  0  0  0  0  0  0  0  0  0
    9.4675  -16.9645   21.6120 N   0  0  0  0  0  0  0  0  0  0  0  0
    9.4443  -17.5503   22.9424 C   0  0  1  0  0  0  0  0  0  0  0  0
   10.5254  -18.5821   23.0948 C   0  0  0  0  0  0  0  0  0  0  0  0
   10.4671  -19.1881   24.4372 C   0  0  0  0  0  0  0  0  0  0  0  0
   11.5586  -20.1932   24.7201 C   0  0  0  0  0  0  0  0  0  0  0  0
   11.4670  -20.8059   26.0801 C   0  0  0  0  0  0  0  0  0  0  0  0
   12.5741  -21.7102   26.3314 N   0  0  0  0  0  0  0  0  0  0  0  0
    9.6712  -16.4440   23.8993 C   0  0  0  0  0  0  0  0  0  0  0  0
   10.5912  -15.5937   23.8120 O   0  0  0  0  0  0  0  0  0  0  0  0
    6.4942  -10.8967   28.2245 C   0  0  0  0  0  0  0  0  0  0  0  0
    6.3926  -12.1914   26.9694 S   0  0  0  0  0  0  0  0  0  0  0  0
    7.8237  -13.2624   26.9776 C   0  0  0  0  0  0  0  0  0  0  0  0
    7.8630  -14.3385   25.9732 C   0  0  0  0  0  0  0  0  0  0  0  0
    9.0509  -15.2321   26.0019 C   0  0  2  0  0  0  0  0  0  0  0  0
    8.8030  -16.3087   25.0061 N   0  0  0  0  0  0  0  0  0  0  0  0
    9.3777  -15.8586   27.2839 C   0  0  0  0  0  0  0  0  0  0  0  0
    8.9813  -17.0547   27.4701 O   0  0  0  0  0  0  0  0  0  0  0  0
   10.0783  -15.2939   28.3165 O   0  0  0  0  0  0  0  0  0  0  0  0
  2  1  1  6
  3  2  1  0
  4  3  1  0
  4  5  2  0
  6  5  1  0
  7  6  1  0
  8  7  2  0
  8  4  1  0
  9  2  1  0
 10  9  2  0
 11  9  1  0
 12 11  1  0
 12 13  1  6
 13 14  1  0
 14 15  1  0
 16 15  1  0
 17 16  1  0
 18 12  1  0
 19 18  2  0
 21 20  1  0
 22 21  1  0
 23 22  1  0
 24 23  1  1
 24 25  1  0
 25 18  1  0
 26 24  1  0
 26 28  1  0
 27 26  2  0
M  END
$$$$
