HKM.pdb
     RDKit          3D

 28 28  0  0  1  0  0  0  0  0999 V2000
    9.7080  -17.8827   19.0228 N   0  0  0  0  0  0  0  0  0  0  0  0
   10.5520  -17.4116   20.1053 C   0  0  1  0  0  0  0  0  0  0  0  0
   11.2725  -16.1777   19.6551 C   0  0  0  0  0  0  0  0  0  0  0  0
   12.3702  -16.5623   18.7444 C   0  0  0  0  0  0  0  0  0  0  0  0
   13.6011  -17.1371   19.0721 C   0  0  0  0  0  0  0  0  0  0  0  0
   14.2826  -17.3125   17.9268 N   0  0  0  0  0  0  0  0  0  0  0  0
   13.5165  -16.8679   16.9166 C   0  0  0  0  0  0  0  0  0  0  0  0
   12.3667  -16.4157   17.3972 N   0  0  0  0  0  0  0  0  0  0  0  0
    9.7309  -17.1553   21.3241 C   0  0  0  0  0  0  0  0  0  0  0  0
    9.2651  -15.9868   21.4701 O   0  0  0  0  0  0  0  0  0  0  0  0
    9.4967  -18.1848   22.2598 N   0  0  0  0  0  0  0  0  0  0  0  0
    8.7610  -17.9505   23.4917 C   0  0  1  0  0  0  0  0  0  0  0  0
    8.3361  -19.2474   24.1195 C   0  0  0  0  0  0  0  0  0  0  0  0
    7.3420  -19.9252   23.2680 C   0  0  0  0  0  0  0  0  0  0  0  0
    7.0083  -21.3356   23.6937 C   0  0  0  0  0  0  0  0  0  0  0  0
    6.1101  -22.0504   22.7368 C   0  0  0  0  0  0  0  0  0  0  0  0
    5.9712  -23.4527   23.0846 N   0  0  0  0  0  0  0  0  0  0  0  0
    9.6767  -17.2300   24.4046 C   0  0  0  0  0  0  0  0  0  0  0  0
   10.7051  -16.6042   24.0467 O   0  0  0  0  0  0  0  0  0  0  0  0
    7.3390  -10.9255   26.7937 C   0  0  0  0  0  0  0  0  0  0  0  0
    7.3703  -12.4854   25.8840 S   0  0  0  0  0  0  0  0  0  0  0  0
    8.5256  -13.6579   26.5810 C   0  0  0  0  0  0  0  0  0  0  0  0
    8.6103  -14.9802   25.9387 C   0  0  0  0  0  0  0  0  0  0  0  0
    9.5347  -15.9641   26.5614 C   0  0  2  0  0  0  0  0  0  0  0  0
    9.3994  -17.2287   25.7903 N   0  0  0  0  0  0  0  0  0  0  0  0
    9.3247  -16.2656   27.9784 C   0  0  0  0  0  0  0  0  0  0  0  0
    8.4046  -17.0963   28.2713 O   0  0  0  0  0  0  0  0  0  0  0  0
   10.0233  -15.7500   29.0378 O   0  0  0  0  0  0  0  0  0  0  0  0
  2  1  1  6
  3  2  1  0
  4  3  1  0
  4  5  2  0
  6  5  1  0
  7  6  1  0
  8  7  2  0
  8  4  1  0
  9  2  1  0
 10  9  2  0
 11  9  1  0
 12 11  1  0
 12 13  1  1
 13 14  1  0
 14 15  1  0
 16 15  1  0
 17 16  1  0
 18 12  1  0
 19 18  2  0
 21 20  1  0
 22 21  1  0
 23 22  1  0
 24 23  1  6
 24 25  1  0
 25 18  1  0
 26 24  1  0
 26 28  1  0
 27 26  2  0
M  END
$$$$
