HKM.pdb
     RDKit          3D

 28 28  0  0  1  0  0  0  0  0999 V2000
    6.6109  -16.4166   19.0698 N   0  0  0  0  0  0  0  0  0  0  0  0
    7.4132  -15.8030   20.1119 C   0  0  1  0  0  0  0  0  0  0  0  0
    7.4240  -14.3195   19.9037 C   0  0  0  0  0  0  0  0  0  0  0  0
    8.0335  -14.0183   18.5922 C   0  0  0  0  0  0  0  0  0  0  0  0
    7.4863  -13.2866   17.5348 C   0  0  0  0  0  0  0  0  0  0  0  0
    8.3934  -13.2706   16.5429 N   0  0  0  0  0  0  0  0  0  0  0  0
    9.4692  -13.9624   16.9540 C   0  0  0  0  0  0  0  0  0  0  0  0
    9.2628  -14.4152   18.1828 N   0  0  0  0  0  0  0  0  0  0  0  0
    6.8767  -16.1661   21.4556 C   0  0  0  0  0  0  0  0  0  0  0  0
    5.8713  -15.5167   21.8696 O   0  0  0  0  0  0  0  0  0  0  0  0
    7.4791  -17.1913   22.2147 N   0  0  0  0  0  0  0  0  0  0  0  0
    7.0525  -17.4951   23.5709 C   0  0  1  0  0  0  0  0  0  0  0  0
    7.0414  -18.9778   23.8121 C   0  0  0  0  0  0  0  0  0  0  0  0
    5.8297  -19.5809   23.2284 C   0  0  0  0  0  0  0  0  0  0  0  0
    5.7755  -21.0881   23.3131 C   0  0  0  0  0  0  0  0  0  0  0  0
    4.5961  -21.6825   22.6137 C   0  0  0  0  0  0  0  0  0  0  0  0
    4.6095  -23.1320   22.6872 N   0  0  0  0  0  0  0  0  0  0  0  0
    8.0263  -16.8485   24.4790 C   0  0  0  0  0  0  0  0  0  0  0  0
    9.2697  -16.8264   24.3035 O   0  0  0  0  0  0  0  0  0  0  0  0
    6.4545  -10.4587   25.5301 C   0  0  0  0  0  0  0  0  0  0  0  0
    6.7533  -11.7152   26.7926 S   0  0  0  0  0  0  0  0  0  0  0  0
    7.4943  -13.1958   26.1187 C   0  0  0  0  0  0  0  0  0  0  0  0
    7.7790  -14.2923   27.0594 C   0  0  0  0  0  0  0  0  0  0  0  0
    8.5086  -15.4662   26.5115 C   0  0  2  0  0  0  0  0  0  0  0  0
    7.5512  -16.1990   25.6407 N   0  0  0  0  0  0  0  0  0  0  0  0
    9.0644  -16.4120   27.4807 C   0  0  0  0  0  0  0  0  0  0  0  0
    8.3794  -17.4533   27.7434 O   0  0  0  0  0  0  0  0  0  0  0  0
   10.2600  -16.3014   28.1400 O   0  0  0  0  0  0  0  0  0  0  0  0
  2  1  1  6
  3  2  1  0
  4  3  1  0
  4  5  2  0
  6  5  1  0
  7  6  1  0
  8  7  2  0
  8  4  1  0
  9  2  1  0
 10  9  2  0
 11  9  1  0
 12 11  1  0
 12 13  1  6
 13 14  1  0
 14 15  1  0
 16 15  1  0
 17 16  1  0
 18 12  1  0
 19 18  2  0
 21 20  1  0
 22 21  1  0
 23 22  1  0
 24 23  1  1
 24 25  1  0
 25 18  1  0
 26 24  1  0
 26 28  1  0
 27 26  2  0
M  END
$$$$
