HKM.pdb
     RDKit          3D

 28 28  0  0  1  0  0  0  0  0999 V2000
   12.6197  -19.7197   21.3535 N   0  0  0  0  0  0  0  0  0  0  0  0
   11.3191  -19.6074   21.9875 C   0  0  1  0  0  0  0  0  0  0  0  0
   11.3317  -20.3971   23.2605 C   0  0  0  0  0  0  0  0  0  0  0  0
   11.2835  -21.8378   22.9380 C   0  0  0  0  0  0  0  0  0  0  0  0
   11.1689  -22.4366   21.6804 C   0  0  0  0  0  0  0  0  0  0  0  0
   11.1637  -23.7679   21.8660 N   0  0  0  0  0  0  0  0  0  0  0  0
   11.2703  -24.0029   23.1845 C   0  0  0  0  0  0  0  0  0  0  0  0
   11.3428  -22.8507   23.8363 N   0  0  0  0  0  0  0  0  0  0  0  0
   10.9880  -18.1738   22.2327 C   0  0  0  0  0  0  0  0  0  0  0  0
   11.9281  -17.4251   22.6320 O   0  0  0  0  0  0  0  0  0  0  0  0
    9.6778  -17.6948   22.0224 N   0  0  0  0  0  0  0  0  0  0  0  0
    9.3429  -16.2869   22.1612 C   0  0  1  0  0  0  0  0  0  0  0  0
    8.3508  -15.8641   21.1155 C   0  0  0  0  0  0  0  0  0  0  0  0
    8.1674  -14.4020   21.1473 C   0  0  0  0  0  0  0  0  0  0  0  0
    7.2033  -13.8677   20.1144 C   0  0  0  0  0  0  0  0  0  0  0  0
    7.4268  -12.4288   19.7782 C   0  0  0  0  0  0  0  0  0  0  0  0
    6.4632  -11.9552   18.8015 N   0  0  0  0  0  0  0  0  0  0  0  0
    8.7510  -16.1202   23.5077 C   0  0  0  0  0  0  0  0  0  0  0  0
    7.8076  -16.8085   23.9697 O   0  0  0  0  0  0  0  0  0  0  0  0
    6.5057  -10.5359   26.1661 C   0  0  0  0  0  0  0  0  0  0  0  0
    7.1960  -12.1579   26.5594 S   0  0  0  0  0  0  0  0  0  0  0  0
    6.7915  -13.3878   25.3269 C   0  0  0  0  0  0  0  0  0  0  0  0
    7.2426  -14.7663   25.5805 C   0  0  0  0  0  0  0  0  0  0  0  0
    8.7076  -14.9694   25.7321 C   0  0  2  0  0  0  0  0  0  0  0  0
    9.2650  -15.1181   24.3613 N   0  0  0  0  0  0  0  0  0  0  0  0
    9.1379  -16.1189   26.5300 C   0  0  0  0  0  0  0  0  0  0  0  0
    8.8131  -16.1326   27.7616 O   0  0  0  0  0  0  0  0  0  0  0  0
    9.8558  -17.1991   26.0894 O   0  0  0  0  0  0  0  0  0  0  0  0
  2  1  1  1
  3  2  1  0
  4  3  1  0
  4  5  2  0
  6  5  1  0
  7  6  1  0
  8  7  2  0
  8  4  1  0
  9  2  1  0
 10  9  2  0
 11  9  1  0
 12 11  1  0
 12 13  1  6
 13 14  1  0
 14 15  1  0
 16 15  1  0
 17 16  1  0
 18 12  1  0
 19 18  2  0
 21 20  1  0
 22 21  1  0
 23 22  1  0
 24 23  1  6
 24 25  1  0
 25 18  1  0
 26 24  1  0
 26 28  1  0
 27 26  2  0
M  END
$$$$
