HKM.pdb
     RDKit          3D

 28 28  0  0  1  0  0  0  0  0999 V2000
    8.9566  -16.5651   19.2978 N   0  0  0  0  0  0  0  0  0  0  0  0
    8.7171  -15.4661   20.2148 C   0  0  1  0  0  0  0  0  0  0  0  0
    7.5294  -14.6879   19.7373 C   0  0  0  0  0  0  0  0  0  0  0  0
    7.8017  -14.1713   18.3804 C   0  0  0  0  0  0  0  0  0  0  0  0
    8.2441  -12.8969   18.0157 C   0  0  0  0  0  0  0  0  0  0  0  0
    8.3527  -12.8752   16.6760 N   0  0  0  0  0  0  0  0  0  0  0  0
    7.9945  -14.0839   16.2117 C   0  0  0  0  0  0  0  0  0  0  0  0
    7.6620  -14.8689   17.2270 N   0  0  0  0  0  0  0  0  0  0  0  0
    8.5146  -15.9851   21.5986 C   0  0  0  0  0  0  0  0  0  0  0  0
    7.4672  -15.6139   22.2060 O   0  0  0  0  0  0  0  0  0  0  0  0
    9.4619  -16.8504   22.1852 N   0  0  0  0  0  0  0  0  0  0  0  0
    9.2865  -17.3869   23.5249 C   0  0  1  0  0  0  0  0  0  0  0  0
   10.1644  -18.5861   23.7435 C   0  0  0  0  0  0  0  0  0  0  0  0
    9.7025  -19.7146   22.9153 C   0  0  0  0  0  0  0  0  0  0  0  0
   10.5708  -20.9481   22.9946 C   0  0  0  0  0  0  0  0  0  0  0  0
   10.1352  -22.0439   22.0766 C   0  0  0  0  0  0  0  0  0  0  0  0
   11.0356  -23.1805   22.1407 N   0  0  0  0  0  0  0  0  0  0  0  0
    9.6664  -16.3112   24.4680 C   0  0  0  0  0  0  0  0  0  0  0  0
   10.7066  -15.6126   24.3824 O   0  0  0  0  0  0  0  0  0  0  0  0
    6.1711  -11.4407   26.1565 C   0  0  0  0  0  0  0  0  0  0  0  0
    6.8874  -11.7856   27.7782 S   0  0  0  0  0  0  0  0  0  0  0  0
    8.1911  -13.0062   27.7018 C   0  0  0  0  0  0  0  0  0  0  0  0
    8.1077  -14.0116   26.6293 C   0  0  0  0  0  0  0  0  0  0  0  0
    9.2195  -14.9959   26.5524 C   0  0  2  0  0  0  0  0  0  0  0  0
    8.8141  -16.0253   25.5584 N   0  0  0  0  0  0  0  0  0  0  0  0
    9.5882  -15.6770   27.7946 C   0  0  0  0  0  0  0  0  0  0  0  0
    9.2282  -16.8917   27.9266 O   0  0  0  0  0  0  0  0  0  0  0  0
   10.2932  -15.1457   28.8419 O   0  0  0  0  0  0  0  0  0  0  0  0
  2  1  1  6
  3  2  1  0
  4  3  1  0
  4  5  2  0
  6  5  1  0
  7  6  1  0
  8  7  2  0
  8  4  1  0
  9  2  1  0
 10  9  2  0
 11  9  1  0
 12 11  1  0
 12 13  1  6
 13 14  1  0
 14 15  1  0
 16 15  1  0
 17 16  1  0
 18 12  1  0
 19 18  2  0
 21 20  1  0
 22 21  1  0
 23 22  1  0
 24 23  1  1
 24 25  1  0
 25 18  1  0
 26 24  1  0
 26 28  1  0
 27 26  2  0
M  END
$$$$
