QCD.pdb
     RDKit          3D

 24 23  0  0  1  0  0  0  0  0999 V2000
   16.7195  -12.0761  -17.1060 N   0  0  0  0  0  0  0  0  0  0  0  0
   17.1191  -13.3589  -17.5842 C   0  0  0  0  0  0  0  0  0  0  0  0
   16.3242  -14.0226  -18.2908 O   0  0  0  0  0  0  0  0  0  0  0  0
   18.4435  -13.9351  -17.2792 C   0  0  0  0  0  0  0  0  0  0  0  0
   19.3013  -13.0786  -16.4041 C   0  0  0  0  0  0  0  0  0  0  0  0
   20.1608  -12.0795  -17.0628 C   0  0  2  0  0  0  0  0  0  0  0  0
   21.0508  -12.5775  -18.0760 N   0  0  0  0  0  0  0  0  0  0  0  0
   20.9148  -11.2065  -16.1317 C   0  0  0  0  0  0  0  0  0  0  0  0
   20.3437  -10.8257  -15.0813 O   0  0  0  0  0  0  0  0  0  0  0  0
   22.2375  -10.7785  -16.3579 N   0  0  0  0  0  0  0  0  0  0  0  0
   22.9609   -9.8784  -15.4503 C   0  0  1  0  0  0  0  0  0  0  0  0
   24.4379  -10.2057  -15.6563 C   0  0  0  0  0  0  0  0  0  0  0  0
   24.8887  -11.7124  -14.8199 S   0  0  0  0  0  0  0  0  0  0  0  0
   22.6308   -8.4751  -15.7353 C   0  0  0  0  0  0  0  0  0  0  0  0
   22.3769   -8.1642  -16.9518 O   0  0  0  0  0  0  0  0  0  0  0  0
   22.5689   -7.4407  -14.7734 N   0  0  0  0  0  0  0  0  0  0  0  0
   22.0241   -6.1486  -15.1448 C   0  0  1  0  0  0  0  0  0  0  0  0
   20.6059   -6.2504  -15.6340 C   0  0  0  0  0  0  0  0  0  0  0  0
   20.1719   -4.8903  -16.0456 C   0  0  0  0  0  0  0  0  0  0  0  0
   21.0214   -4.1423  -16.5891 O   0  0  0  0  0  0  0  0  0  0  0  0
   22.1076   -5.1989  -14.0093 C   0  0  0  0  0  0  0  0  0  0  0  0
   22.1560   -3.9640  -14.2115 O   0  0  0  0  0  0  0  0  0  0  0  0
   18.8827   -4.4203  -15.8555 O   0  0  0  0  0  0  0  0  0  0  0  0
   22.1334   -5.6615  -12.7101 O   0  0  0  0  0  0  0  0  0  0  0  0
  2  1  1  0
  3  2  2  0
  4  2  1  0
  5  4  1  0
  6  7  1  6
  6  8  1  0
  6  5  1  0
  8 10  1  0
  8  9  2  0
 10 11  1  0
 11 14  1  0
 12 13  1  0
 11 12  1  6
 14 16  1  0
 14 15  2  0
 16 17  1  0
 17 21  1  0
 17 18  1  1
 19 18  1  0
 20 19  2  0
 21 22  2  0
 21 24  1  0
 23 19  1  0
M  END
$$$$
