QCD.pdb
     RDKit          3D

 24 23  0  0  1  0  0  0  0  0999 V2000
   21.2462  -16.3095  -18.2382 N   0  0  0  0  0  0  0  0  0  0  0  0
   20.2529  -15.6598  -19.0289 C   0  0  0  0  0  0  0  0  0  0  0  0
   19.0442  -15.9308  -18.8353 O   0  0  0  0  0  0  0  0  0  0  0  0
   20.5977  -14.6716  -20.0698 C   0  0  0  0  0  0  0  0  0  0  0  0
   22.0643  -14.5293  -20.3226 C   0  0  0  0  0  0  0  0  0  0  0  0
   22.6401  -13.1754  -20.2416 C   0  0  2  0  0  0  0  0  0  0  0  0
   24.0149  -13.0457  -20.6413 N   0  0  0  0  0  0  0  0  0  0  0  0
   22.4410  -12.4990  -18.9377 C   0  0  0  0  0  0  0  0  0  0  0  0
   21.2678  -12.3550  -18.5166 O   0  0  0  0  0  0  0  0  0  0  0  0
   23.4942  -12.0071  -18.1422 N   0  0  0  0  0  0  0  0  0  0  0  0
   23.2831  -11.2658  -16.8919 C   0  0  1  0  0  0  0  0  0  0  0  0
   24.5058  -11.5764  -16.0319 C   0  0  0  0  0  0  0  0  0  0  0  0
   24.5220  -10.5874  -14.5504 S   0  0  0  0  0  0  0  0  0  0  0  0
   23.1093   -9.8313  -17.1594 C   0  0  0  0  0  0  0  0  0  0  0  0
   23.5831   -9.3746  -18.2584 O   0  0  0  0  0  0  0  0  0  0  0  0
   22.4587   -8.9151  -16.3013 N   0  0  0  0  0  0  0  0  0  0  0  0
   22.1530   -7.5798  -16.7783 C   0  0  1  0  0  0  0  0  0  0  0  0
   21.2949   -7.6012  -18.0129 C   0  0  0  0  0  0  0  0  0  0  0  0
   21.1368   -6.1985  -18.4768 C   0  0  0  0  0  0  0  0  0  0  0  0
   20.0188   -5.6498  -18.3170 O   0  0  0  0  0  0  0  0  0  0  0  0
   21.5000   -6.7801  -15.7142 C   0  0  0  0  0  0  0  0  0  0  0  0
   21.1997   -7.3019  -14.6162 O   0  0  0  0  0  0  0  0  0  0  0  0
   22.1615   -5.4808  -19.0717 O   0  0  0  0  0  0  0  0  0  0  0  0
   21.2126   -5.4463  -15.9173 O   0  0  0  0  0  0  0  0  0  0  0  0
  2  1  1  0
  3  2  2  0
  4  2  1  0
  5  4  1  0
  6  7  1  1
  6  8  1  0
  6  5  1  0
  8 10  1  0
  8  9  2  0
 10 11  1  0
 11 14  1  0
 12 13  1  0
 11 12  1  1
 14 16  1  0
 14 15  2  0
 16 17  1  0
 17 21  1  0
 17 18  1  6
 19 18  1  0
 20 19  2  0
 21 22  2  0
 21 24  1  0
 23 19  1  0
M  END
$$$$
