QCD.pdb
     RDKit          3D

 24 23  0  0  1  0  0  0  0  0999 V2000
   26.0552  -34.5779  -15.1668 N   0  0  0  0  0  0  0  0  0  0  0  0
   26.9897  -33.9561  -14.2871 C   0  0  0  0  0  0  0  0  0  0  0  0
   27.2137  -32.7280  -14.4024 O   0  0  0  0  0  0  0  0  0  0  0  0
   27.7036  -34.7091  -13.2371 C   0  0  0  0  0  0  0  0  0  0  0  0
   27.5654  -34.1336  -11.8641 C   0  0  0  0  0  0  0  0  0  0  0  0
   26.2947  -34.3643  -11.1550 C   0  0  2  0  0  0  0  0  0  0  0  0
   25.2379  -33.4280  -11.4257 N   0  0  0  0  0  0  0  0  0  0  0  0
   26.4311  -34.5419   -9.6896 C   0  0  0  0  0  0  0  0  0  0  0  0
   27.1952  -35.4443   -9.2696 O   0  0  0  0  0  0  0  0  0  0  0  0
   25.7514  -33.7553   -8.7392 N   0  0  0  0  0  0  0  0  0  0  0  0
   25.8280  -33.9927   -7.2918 C   0  0  1  0  0  0  0  0  0  0  0  0
   25.6669  -32.6158   -6.6520 C   0  0  0  0  0  0  0  0  0  0  0  0
   26.4966  -32.5336   -5.0778 S   0  0  0  0  0  0  0  0  0  0  0  0
   24.8025  -34.9554   -6.8664 C   0  0  0  0  0  0  0  0  0  0  0  0
   23.9969  -35.3930   -7.7611 O   0  0  0  0  0  0  0  0  0  0  0  0
   24.6353  -35.4392   -5.5485 N   0  0  0  0  0  0  0  0  0  0  0  0
   23.5938  -36.4092   -5.2680 C   0  0  1  0  0  0  0  0  0  0  0  0
   23.7391  -37.6537   -6.0995 C   0  0  0  0  0  0  0  0  0  0  0  0
   22.6060  -38.5547   -5.7647 C   0  0  0  0  0  0  0  0  0  0  0  0
   22.8366  -39.5337   -5.0130 O   0  0  0  0  0  0  0  0  0  0  0  0
   23.5747  -36.7554   -3.8264 C   0  0  0  0  0  0  0  0  0  0  0  0
   24.6425  -36.8643   -3.1814 O   0  0  0  0  0  0  0  0  0  0  0  0
   21.3208  -38.3600   -6.2435 O   0  0  0  0  0  0  0  0  0  0  0  0
   22.3784  -36.9632   -3.1720 O   0  0  0  0  0  0  0  0  0  0  0  0
  2  1  1  0
  3  2  2  0
  4  2  1  0
  5  4  1  0
  6  7  1  1
  6  8  1  0
  6  5  1  0
  8 10  1  0
  8  9  2  0
 10 11  1  0
 11 14  1  0
 12 13  1  0
 11 12  1  1
 14 16  1  0
 14 15  2  0
 16 17  1  0
 17 21  1  0
 17 18  1  6
 19 18  1  0
 20 19  2  0
 21 22  2  0
 21 24  1  0
 23 19  1  0
M  END
$$$$
