QCD.pdb
     RDKit          3D

 24 23  0  0  1  0  0  0  0  0999 V2000
   15.2996  -11.4639  -14.7741 N   0  0  0  0  0  0  0  0  0  0  0  0
   16.0023  -11.8450  -15.9551 C   0  0  0  0  0  0  0  0  0  0  0  0
   15.4979  -12.7043  -16.7159 O   0  0  0  0  0  0  0  0  0  0  0  0
   17.3073  -11.2583  -16.3184 C   0  0  0  0  0  0  0  0  0  0  0  0
   17.7825  -10.1889  -15.3880 C   0  0  0  0  0  0  0  0  0  0  0  0
   19.0799   -9.5567  -15.6847 C   0  0  2  0  0  0  0  0  0  0  0  0
   20.2000  -10.4458  -15.8320 N   0  0  0  0  0  0  0  0  0  0  0  0
   19.4481   -8.4489  -14.7710 C   0  0  0  0  0  0  0  0  0  0  0  0
   18.8296   -8.3455  -13.6842 O   0  0  0  0  0  0  0  0  0  0  0  0
   20.4536   -7.5037  -15.0524 N   0  0  0  0  0  0  0  0  0  0  0  0
   20.7272   -6.3386  -14.2009 C   0  0  1  0  0  0  0  0  0  0  0  0
   22.2491   -6.2626  -14.1045 C   0  0  0  0  0  0  0  0  0  0  0  0
   22.7725   -4.7485  -13.3258 S   0  0  0  0  0  0  0  0  0  0  0  0
   20.1188   -5.1259  -14.7655 C   0  0  0  0  0  0  0  0  0  0  0  0
   20.2111   -4.9543  -16.0316 O   0  0  0  0  0  0  0  0  0  0  0  0
   19.4377   -4.1342  -14.0229 N   0  0  0  0  0  0  0  0  0  0  0  0
   18.9105   -2.9660  -14.7024 C   0  0  1  0  0  0  0  0  0  0  0  0
   17.4571   -2.7373  -14.3921 C   0  0  0  0  0  0  0  0  0  0  0  0
   17.0284   -1.5129  -15.1168 C   0  0  0  0  0  0  0  0  0  0  0  0
   17.2722   -1.4428  -16.3465 O   0  0  0  0  0  0  0  0  0  0  0  0
   19.7031   -1.7600  -14.3623 C   0  0  0  0  0  0  0  0  0  0  0  0
   20.6333   -1.8217  -13.5262 O   0  0  0  0  0  0  0  0  0  0  0  0
   16.3783   -0.4583  -14.4968 O   0  0  0  0  0  0  0  0  0  0  0  0
   19.4279   -0.5490  -14.9627 O   0  0  0  0  0  0  0  0  0  0  0  0
  2  1  1  0
  3  2  2  0
  4  2  1  0
  5  4  1  0
  6  7  1  1
  6  8  1  0
  6  5  1  0
  8 10  1  0
  8  9  2  0
 10 11  1  0
 11 14  1  0
 12 13  1  0
 11 12  1  6
 14 16  1  0
 14 15  2  0
 16 17  1  0
 17 21  1  0
 17 18  1  1
 19 18  1  0
 20 19  2  0
 21 22  2  0
 21 24  1  0
 23 19  1  0
M  END
$$$$
