QCD.pdb
     RDKit          3D

 24 23  0  0  1  0  0  0  0  0999 V2000
   23.7330  -16.9220  -16.1462 N   0  0  0  0  0  0  0  0  0  0  0  0
   22.7590  -17.0573  -17.1791 C   0  0  0  0  0  0  0  0  0  0  0  0
   22.7706  -18.0834  -17.8994 O   0  0  0  0  0  0  0  0  0  0  0  0
   21.7294  -16.0296  -17.4298 C   0  0  0  0  0  0  0  0  0  0  0  0
   21.7817  -14.8642  -16.4947 C   0  0  0  0  0  0  0  0  0  0  0  0
   22.1326  -13.5511  -17.0636 C   0  0  2  0  0  0  0  0  0  0  0  0
   23.2015  -13.5413  -18.0249 N   0  0  0  0  0  0  0  0  0  0  0  0
   22.3654  -12.4870  -16.0582 C   0  0  0  0  0  0  0  0  0  0  0  0
   21.7246  -12.5382  -14.9805 O   0  0  0  0  0  0  0  0  0  0  0  0
   23.2656  -11.4196  -16.2423 N   0  0  0  0  0  0  0  0  0  0  0  0
   23.5154  -10.3897  -15.2254 C   0  0  1  0  0  0  0  0  0  0  0  0
   24.9829  -10.5574  -14.8388 C   0  0  0  0  0  0  0  0  0  0  0  0
   25.5816   -9.1384  -13.9439 S   0  0  0  0  0  0  0  0  0  0  0  0
   23.2007   -9.0531  -15.7487 C   0  0  0  0  0  0  0  0  0  0  0  0
   23.6934   -8.7345  -16.8874 O   0  0  0  0  0  0  0  0  0  0  0  0
   22.3956   -8.0911  -15.0966 N   0  0  0  0  0  0  0  0  0  0  0  0
   22.2651   -6.7625  -15.6641 C   0  0  1  0  0  0  0  0  0  0  0  0
   20.8700   -6.4898  -16.1544 C   0  0  0  0  0  0  0  0  0  0  0  0
   20.8679   -5.1433  -16.7828 C   0  0  0  0  0  0  0  0  0  0  0  0
   20.4211   -4.1820  -16.1098 O   0  0  0  0  0  0  0  0  0  0  0  0
   22.6737   -5.7305  -14.6810 C   0  0  0  0  0  0  0  0  0  0  0  0
   22.7272   -5.9980  -13.4589 O   0  0  0  0  0  0  0  0  0  0  0  0
   21.3334   -4.9094  -18.0664 O   0  0  0  0  0  0  0  0  0  0  0  0
   23.0019   -4.4573  -15.0980 O   0  0  0  0  0  0  0  0  0  0  0  0
  2  1  1  0
  3  2  2  0
  4  2  1  0
  5  4  1  0
  6  7  1  1
  6  8  1  0
  6  5  1  0
  8 10  1  0
  8  9  2  0
 10 11  1  0
 11 14  1  0
 12 13  1  0
 11 12  1  6
 14 16  1  0
 14 15  2  0
 16 17  1  0
 17 21  1  0
 17 18  1  1
 19 18  1  0
 20 19  2  0
 21 22  2  0
 21 24  1  0
 23 19  1  0
M  END
$$$$
