QCD.pdb
     RDKit          3D

 24 23  0  0  1  0  0  0  0  0999 V2000
   14.1750   -8.1477  -16.2654 N   0  0  0  0  0  0  0  0  0  0  0  0
   14.8414   -9.2480  -16.8811 C   0  0  0  0  0  0  0  0  0  0  0  0
   14.2389   -9.9166  -17.7538 O   0  0  0  0  0  0  0  0  0  0  0  0
   16.2238   -9.6279  -16.5293 C   0  0  0  0  0  0  0  0  0  0  0  0
   16.8481   -8.7726  -15.4737 C   0  0  0  0  0  0  0  0  0  0  0  0
   18.2184   -9.1084  -15.0490 C   0  0  2  0  0  0  0  0  0  0  0  0
   18.3991  -10.4060  -14.4571 N   0  0  0  0  0  0  0  0  0  0  0  0
   18.8669   -8.0840  -14.1962 C   0  0  0  0  0  0  0  0  0  0  0  0
   18.5998   -8.0767  -12.9702 O   0  0  0  0  0  0  0  0  0  0  0  0
   19.7672   -7.1162  -14.6827 N   0  0  0  0  0  0  0  0  0  0  0  0
   20.3043   -6.0263  -13.8575 C   0  0  1  0  0  0  0  0  0  0  0  0
   21.8123   -6.2615  -13.8172 C   0  0  0  0  0  0  0  0  0  0  0  0
   22.6624   -4.8804  -13.0802 S   0  0  0  0  0  0  0  0  0  0  0  0
   19.9343   -4.7184  -14.4162 C   0  0  0  0  0  0  0  0  0  0  0  0
   20.1732   -4.5189  -15.6588 O   0  0  0  0  0  0  0  0  0  0  0  0
   19.3336   -3.6632  -13.6920 N   0  0  0  0  0  0  0  0  0  0  0  0
   18.9720   -2.4377  -14.3788 C   0  0  1  0  0  0  0  0  0  0  0  0
   17.7564   -1.7882  -13.7775 C   0  0  0  0  0  0  0  0  0  0  0  0
   17.4440   -0.5808  -14.5853 C   0  0  0  0  0  0  0  0  0  0  0  0
   17.3521    0.5188  -13.9862 O   0  0  0  0  0  0  0  0  0  0  0  0
   20.1096   -1.4869  -14.3877 C   0  0  0  0  0  0  0  0  0  0  0  0
   20.0034   -0.3688  -14.9414 O   0  0  0  0  0  0  0  0  0  0  0  0
   17.2521   -0.6199  -15.9567 O   0  0  0  0  0  0  0  0  0  0  0  0
   21.3049   -1.8197  -13.7850 O   0  0  0  0  0  0  0  0  0  0  0  0
  2  1  1  0
  3  2  2  0
  4  2  1  0
  5  4  1  0
  6  7  1  1
  6  8  1  0
  6  5  1  0
  8 10  1  0
  8  9  2  0
 10 11  1  0
 11 14  1  0
 12 13  1  0
 11 12  1  6
 14 16  1  0
 14 15  2  0
 16 17  1  0
 17 21  1  0
 17 18  1  1
 19 18  1  0
 20 19  2  0
 21 22  2  0
 21 24  1  0
 23 19  1  0
M  END
$$$$
