QFW.pdb
     RDKit          3D

 35 37  0  0  1  0  0  0  0  0999 V2000
    9.9566  -16.7521   15.9622 N   0  0  0  0  0  0  0  0  0  0  0  0
    9.4692  -18.0696   16.2243 C   0  0  0  0  0  0  0  0  0  0  0  0
    9.0564  -18.7902   15.2697 O   0  0  0  0  0  0  0  0  0  0  0  0
    9.4527  -18.5628   17.5988 C   0  0  0  0  0  0  0  0  0  0  0  0
    9.7943  -17.5523   18.6291 C   0  0  0  0  0  0  0  0  0  0  0  0
    9.8089  -18.0437   20.0503 C   0  0  2  0  0  0  0  0  0  0  0  0
    8.6541  -18.7557   20.4637 N   0  0  0  0  0  0  0  0  0  0  0  0
   10.1043  -16.8452   20.9155 C   0  0  0  0  0  0  0  0  0  0  0  0
   11.1927  -16.2096   20.7536 O   0  0  0  0  0  0  0  0  0  0  0  0
    9.2388  -16.3615   21.9187 N   0  0  0  0  0  0  0  0  0  0  0  0
    9.5850  -15.1403   22.7034 C   0  0  1  0  0  0  0  0  0  0  0  0
    8.4045  -14.2122   22.6307 C   0  0  0  0  0  0  0  0  0  0  0  0
    7.8713  -13.8858   21.3256 C   0  0  0  0  0  0  0  0  0  0  0  0
    6.8428  -14.5495   20.6881 C   0  0  0  0  0  0  0  0  0  0  0  0
    6.3829  -14.2151   19.4273 C   0  0  0  0  0  0  0  0  0  0  0  0
    6.9915  -13.1558   18.7757 C   0  0  0  0  0  0  0  0  0  0  0  0
    8.0239  -12.4580   19.3683 C   0  0  0  0  0  0  0  0  0  0  0  0
    8.4427  -12.8311   20.6221 C   0  0  0  0  0  0  0  0  0  0  0  0
    9.9089  -15.5523   24.0810 C   0  0  0  0  0  0  0  0  0  0  0  0
   10.5107  -14.7032   24.8510 O   0  0  0  0  0  0  0  0  0  0  0  0
    9.6067  -16.8080   24.6385 N   0  0  0  0  0  0  0  0  0  0  0  0
    9.9594  -17.0796   26.0407 C   0  0  1  0  0  0  0  0  0  0  0  0
    8.6880  -17.1397   26.8600 C   0  0  0  0  0  0  0  0  0  0  0  0
    7.7302  -16.0656   26.6493 C   0  0  0  0  0  0  0  0  0  0  0  0
    6.4129  -16.2163   26.1881 C   0  0  0  0  0  0  0  0  0  0  0  0
    5.9175  -14.9833   26.0992 N   0  0  0  0  0  0  0  0  0  0  0  0
    6.8327  -14.0584   26.4746 C   0  0  0  0  0  0  0  0  0  0  0  0
    6.7532  -12.6836   26.5551 C   0  0  0  0  0  0  0  0  0  0  0  0
    7.8482  -11.9706   26.9968 C   0  0  0  0  0  0  0  0  0  0  0  0
    9.0242  -12.5890   27.3618 C   0  0  0  0  0  0  0  0  0  0  0  0
    9.0729  -13.9594   27.2703 C   0  0  0  0  0  0  0  0  0  0  0  0
    7.9897  -14.7158   26.8286 C   0  0  0  0  0  0  0  0  0  0  0  0
   10.7657  -18.2816   26.1891 C   0  0  0  0  0  0  0  0  0  0  0  0
   11.2447  -18.6033   27.3382 O   0  0  0  0  0  0  0  0  0  0  0  0
   11.0743  -19.1424   25.1682 O   0  0  0  0  0  0  0  0  0  0  0  0
  2  4  1  0
  2  1  1  0
  3  2  2  0
  5  4  1  0
  6  5  1  0
  6  7  1  1
  8  6  1  0
  9  8  2  0
 10  8  1  0
 11 12  1  1
 11 10  1  0
 12 13  1  0
 13 18  1  0
 13 14  2  0
 14 15  1  0
 15 16  2  0
 17 16  1  0
 18 17  2  0
 19 11  1  0
 20 19  2  0
 21 19  1  0
 22 21  1  0
 22 23  1  1
 23 24  1  0
 24 32  1  0
 25 24  2  0
 25 26  1  0
 26 27  1  0
 27 28  1  0
 28 29  2  0
 30 29  1  0
 31 30  2  0
 32 27  2  0
 32 31  1  0
 33 35  1  0
 33 22  1  0
 34 33  2  0
M  END
$$$$
