QFW.pdb
     RDKit          3D

 35 37  0  0  1  0  0  0  0  0999 V2000
   13.3942  -19.0396   15.6299 N   0  0  0  0  0  0  0  0  0  0  0  0
   12.7887  -20.1752   16.2509 C   0  0  0  0  0  0  0  0  0  0  0  0
   12.1290  -20.9984   15.5521 O   0  0  0  0  0  0  0  0  0  0  0  0
   12.9398  -20.3649   17.6911 C   0  0  0  0  0  0  0  0  0  0  0  0
   12.4889  -19.2224   18.5222 C   0  0  0  0  0  0  0  0  0  0  0  0
   11.1236  -19.3579   19.1380 C   0  0  2  0  0  0  0  0  0  0  0  0
   10.0977  -19.7955   18.2621 N   0  0  0  0  0  0  0  0  0  0  0  0
   10.8157  -18.0359   19.7935 C   0  0  0  0  0  0  0  0  0  0  0  0
   11.5401  -17.0247   19.5334 O   0  0  0  0  0  0  0  0  0  0  0  0
    9.7535  -17.8302   20.6984 N   0  0  0  0  0  0  0  0  0  0  0  0
    9.5013  -16.4826   21.2877 C   0  0  1  0  0  0  0  0  0  0  0  0
    8.1526  -16.0279   20.8036 C   0  0  0  0  0  0  0  0  0  0  0  0
    7.6856  -14.7202   21.2111 C   0  0  0  0  0  0  0  0  0  0  0  0
    8.0976  -13.5165   20.6763 C   0  0  0  0  0  0  0  0  0  0  0  0
    7.6397  -12.2879   21.1164 C   0  0  0  0  0  0  0  0  0  0  0  0
    6.7177  -12.2724   22.1494 C   0  0  0  0  0  0  0  0  0  0  0  0
    6.2720  -13.4473   22.7193 C   0  0  0  0  0  0  0  0  0  0  0  0
    6.7589  -14.6409   22.2449 C   0  0  0  0  0  0  0  0  0  0  0  0
    9.5768  -16.5982   22.7551 C   0  0  0  0  0  0  0  0  0  0  0  0
    8.9877  -17.6011   23.3237 O   0  0  0  0  0  0  0  0  0  0  0  0
   10.2524  -15.6995   23.6005 N   0  0  0  0  0  0  0  0  0  0  0  0
   10.3263  -15.9807   25.0427 C   0  0  1  0  0  0  0  0  0  0  0  0
    8.9939  -16.5352   25.4996 C   0  0  0  0  0  0  0  0  0  0  0  0
    7.9112  -15.5761   25.6522 C   0  0  0  0  0  0  0  0  0  0  0  0
    6.5504  -15.8264   25.4144 C   0  0  0  0  0  0  0  0  0  0  0  0
    5.9269  -14.6695   25.6299 N   0  0  0  0  0  0  0  0  0  0  0  0
    6.8013  -13.7002   25.9902 C   0  0  0  0  0  0  0  0  0  0  0  0
    6.6026  -12.3756   26.3202 C   0  0  0  0  0  0  0  0  0  0  0  0
    7.6866  -11.6005   26.6759 C   0  0  0  0  0  0  0  0  0  0  0  0
    8.9671  -12.1079   26.7127 C   0  0  0  0  0  0  0  0  0  0  0  0
    9.1332  -13.4304   26.3784 C   0  0  0  0  0  0  0  0  0  0  0  0
    8.0650  -14.2466   26.0130 C   0  0  0  0  0  0  0  0  0  0  0  0
   11.4333  -16.8619   25.3820 C   0  0  0  0  0  0  0  0  0  0  0  0
   11.7902  -17.0117   26.6081 O   0  0  0  0  0  0  0  0  0  0  0  0
   12.1630  -17.5806   24.4713 O   0  0  0  0  0  0  0  0  0  0  0  0
  2  4  1  0
  2  1  1  0
  3  2  2  0
  5  4  1  0
  6  5  1  0
  6  7  1  6
  8  6  1  0
  9  8  2  0
 10  8  1  0
 11 12  1  1
 11 10  1  0
 12 13  1  0
 13 18  1  0
 13 14  2  0
 14 15  1  0
 15 16  2  0
 17 16  1  0
 18 17  2  0
 19 11  1  0
 20 19  2  0
 21 19  1  0
 22 21  1  0
 22 23  1  6
 23 24  1  0
 24 32  1  0
 25 24  2  0
 25 26  1  0
 26 27  1  0
 27 28  1  0
 28 29  2  0
 30 29  1  0
 31 30  2  0
 32 27  2  0
 32 31  1  0
 33 35  1  0
 33 22  1  0
 34 33  2  0
M  END
$$$$
