QFW.pdb
     RDKit          3D

 35 37  0  0  1  0  0  0  0  0999 V2000
   11.7830  -17.4651   16.4925 N   0  0  0  0  0  0  0  0  0  0  0  0
   10.9403  -18.6138   16.6029 C   0  0  0  0  0  0  0  0  0  0  0  0
   10.9793  -19.5116   15.7122 O   0  0  0  0  0  0  0  0  0  0  0  0
   10.0405  -18.7301   17.7473 C   0  0  0  0  0  0  0  0  0  0  0  0
   10.2107  -17.6839   18.7845 C   0  0  0  0  0  0  0  0  0  0  0  0
   10.1242  -18.1538   20.2104 C   0  0  2  0  0  0  0  0  0  0  0  0
    8.9269  -18.8282   20.5611 N   0  0  0  0  0  0  0  0  0  0  0  0
   10.3990  -16.9506   21.0758 C   0  0  0  0  0  0  0  0  0  0  0  0
   11.4923  -16.3177   20.9386 O   0  0  0  0  0  0  0  0  0  0  0  0
    9.5084  -16.4595   22.0532 N   0  0  0  0  0  0  0  0  0  0  0  0
    9.7701  -15.1624   22.7431 C   0  0  1  0  0  0  0  0  0  0  0  0
    8.5224  -14.3322   22.6232 C   0  0  0  0  0  0  0  0  0  0  0  0
    8.2135  -13.7449   21.3372 C   0  0  0  0  0  0  0  0  0  0  0  0
    8.9422  -12.7554   20.7091 C   0  0  0  0  0  0  0  0  0  0  0  0
    8.5929  -12.2071   19.4884 C   0  0  0  0  0  0  0  0  0  0  0  0
    7.4496  -12.6819   18.8683 C   0  0  0  0  0  0  0  0  0  0  0  0
    6.6851  -13.6709   19.4527 C   0  0  0  0  0  0  0  0  0  0  0  0
    7.0763  -14.1814   20.6663 C   0  0  0  0  0  0  0  0  0  0  0  0
   10.1385  -15.4485   24.1413 C   0  0  0  0  0  0  0  0  0  0  0  0
   10.6340  -14.4888   24.8550 O   0  0  0  0  0  0  0  0  0  0  0  0
    9.9867  -16.6949   24.7756 N   0  0  0  0  0  0  0  0  0  0  0  0
   10.2879  -16.8167   26.2105 C   0  0  1  0  0  0  0  0  0  0  0  0
    8.9848  -16.9000   26.9764 C   0  0  0  0  0  0  0  0  0  0  0  0
    7.9039  -16.0457   26.5104 C   0  0  0  0  0  0  0  0  0  0  0  0
    6.7317  -16.4771   25.8696 C   0  0  0  0  0  0  0  0  0  0  0  0
    6.0505  -15.3704   25.5783 N   0  0  0  0  0  0  0  0  0  0  0  0
    6.7117  -14.2636   25.9926 C   0  0  0  0  0  0  0  0  0  0  0  0
    6.3799  -12.9268   25.9172 C   0  0  0  0  0  0  0  0  0  0  0  0
    7.2413  -11.9885   26.4463 C   0  0  0  0  0  0  0  0  0  0  0  0
    8.4276  -12.3439   27.0503 C   0  0  0  0  0  0  0  0  0  0  0  0
    8.7306  -13.6830   27.1098 C   0  0  0  0  0  0  0  0  0  0  0  0
    7.8883  -14.6617   26.5869 C   0  0  0  0  0  0  0  0  0  0  0  0
   11.1684  -17.9379   26.5012 C   0  0  0  0  0  0  0  0  0  0  0  0
   11.5524  -18.1649   27.7072 O   0  0  0  0  0  0  0  0  0  0  0  0
   11.6468  -18.8151   25.5631 O   0  0  0  0  0  0  0  0  0  0  0  0
  2  4  1  0
  2  1  1  0
  3  2  2  0
  5  4  1  0
  6  5  1  0
  6  7  1  1
  8  6  1  0
  9  8  2  0
 10  8  1  0
 11 12  1  1
 11 10  1  0
 12 13  1  0
 13 18  1  0
 13 14  2  0
 14 15  1  0
 15 16  2  0
 17 16  1  0
 18 17  2  0
 19 11  1  0
 20 19  2  0
 21 19  1  0
 22 21  1  0
 22 23  1  1
 23 24  1  0
 24 32  1  0
 25 24  2  0
 25 26  1  0
 26 27  1  0
 27 28  1  0
 28 29  2  0
 30 29  1  0
 31 30  2  0
 32 27  2  0
 32 31  1  0
 33 35  1  0
 33 22  1  0
 34 33  2  0
M  END
$$$$
