QFW.pdb
     RDKit          3D

 35 37  0  0  1  0  0  0  0  0999 V2000
   11.0547  -15.4074   16.2369 N   0  0  0  0  0  0  0  0  0  0  0  0
   11.3130  -16.7850   15.9592 C   0  0  0  0  0  0  0  0  0  0  0  0
   12.0686  -17.1025   14.9952 O   0  0  0  0  0  0  0  0  0  0  0  0
   10.6934  -17.8090   16.7962 C   0  0  0  0  0  0  0  0  0  0  0  0
    9.9588  -17.2910   17.9757 C   0  0  0  0  0  0  0  0  0  0  0  0
   10.3166  -17.9142   19.2968 C   0  0  2  0  0  0  0  0  0  0  0  0
    9.4156  -18.9009   19.7722 N   0  0  0  0  0  0  0  0  0  0  0  0
   10.5133  -16.7779   20.2676 C   0  0  0  0  0  0  0  0  0  0  0  0
   11.5338  -16.0289   20.1558 O   0  0  0  0  0  0  0  0  0  0  0  0
    9.6245  -16.4739   21.3198 N   0  0  0  0  0  0  0  0  0  0  0  0
    9.9427  -15.3964   22.3020 C   0  0  1  0  0  0  0  0  0  0  0  0
    8.6773  -14.6204   22.5403 C   0  0  0  0  0  0  0  0  0  0  0  0
    8.0568  -13.9618   21.4110 C   0  0  0  0  0  0  0  0  0  0  0  0
    7.0727  -14.5004   20.6071 C   0  0  0  0  0  0  0  0  0  0  0  0
    6.5262  -13.8401   19.5216 C   0  0  0  0  0  0  0  0  0  0  0  0
    6.9961  -12.5703   19.2321 C   0  0  0  0  0  0  0  0  0  0  0  0
    7.9787  -11.9850   20.0042 C   0  0  0  0  0  0  0  0  0  0  0  0
    8.4879  -12.6841   21.0712 C   0  0  0  0  0  0  0  0  0  0  0  0
   10.4697  -16.0271   23.5255 C   0  0  0  0  0  0  0  0  0  0  0  0
   11.6671  -15.7186   23.9091 O   0  0  0  0  0  0  0  0  0  0  0  0
    9.7656  -16.9444   24.3266 N   0  0  0  0  0  0  0  0  0  0  0  0
   10.0950  -17.0568   25.7560 C   0  0  1  0  0  0  0  0  0  0  0  0
    9.7409  -15.7543   26.4413 C   0  0  0  0  0  0  0  0  0  0  0  0
    8.3906  -15.2570   26.2293 C   0  0  0  0  0  0  0  0  0  0  0  0
    7.3107  -15.9978   25.7233 C   0  0  0  0  0  0  0  0  0  0  0  0
    6.2897  -15.1457   25.6516 N   0  0  0  0  0  0  0  0  0  0  0  0
    6.6488  -13.9121   26.0796 C   0  0  0  0  0  0  0  0  0  0  0  0
    5.9234  -12.7444   26.1938 C   0  0  0  0  0  0  0  0  0  0  0  0
    6.5405  -11.6142   26.6881 C   0  0  0  0  0  0  0  0  0  0  0  0
    7.8635  -11.6131   27.0732 C   0  0  0  0  0  0  0  0  0  0  0  0
    8.5598  -12.7911   26.9472 C   0  0  0  0  0  0  0  0  0  0  0  0
    7.9738  -13.9539   26.4521 C   0  0  0  0  0  0  0  0  0  0  0  0
    9.4545  -18.2010   26.3866 C   0  0  0  0  0  0  0  0  0  0  0  0
    8.5693  -18.8814   25.7487 O   0  0  0  0  0  0  0  0  0  0  0  0
    9.7222  -18.6402   27.6569 O   0  0  0  0  0  0  0  0  0  0  0  0
  2  4  1  0
  2  1  1  0
  3  2  2  0
  5  4  1  0
  6  5  1  0
  6  7  1  1
  8  6  1  0
  9  8  2  0
 10  8  1  0
 11 12  1  1
 11 10  1  0
 12 13  1  0
 13 18  1  0
 13 14  2  0
 14 15  1  0
 15 16  2  0
 17 16  1  0
 18 17  2  0
 19 11  1  0
 20 19  2  0
 21 19  1  0
 22 21  1  0
 22 23  1  1
 23 24  1  0
 24 32  1  0
 25 24  2  0
 25 26  1  0
 26 27  1  0
 27 28  1  0
 28 29  2  0
 30 29  1  0
 31 30  2  0
 32 27  2  0
 32 31  1  0
 33 35  1  0
 33 22  1  0
 34 33  2  0
M  END
$$$$
