QFW.pdb
     RDKit          3D

 35 37  0  0  1  0  0  0  0  0999 V2000
   10.8535  -19.8391   16.1115 N   0  0  0  0  0  0  0  0  0  0  0  0
   11.0237  -21.0468   16.8560 C   0  0  0  0  0  0  0  0  0  0  0  0
   11.2178  -22.1396   16.2483 O   0  0  0  0  0  0  0  0  0  0  0  0
   10.9667  -20.9987   18.3145 C   0  0  0  0  0  0  0  0  0  0  0  0
   10.7114  -19.6541   18.8856 C   0  0  0  0  0  0  0  0  0  0  0  0
   10.6764  -19.5749   20.3869 C   0  0  2  0  0  0  0  0  0  0  0  0
    9.6539  -20.3300   21.0160 N   0  0  0  0  0  0  0  0  0  0  0  0
   10.6290  -18.1098   20.7382 C   0  0  0  0  0  0  0  0  0  0  0  0
   11.6157  -17.3642   20.4462 O   0  0  0  0  0  0  0  0  0  0  0  0
    9.5408  -17.4861   21.3835 N   0  0  0  0  0  0  0  0  0  0  0  0
    9.5412  -16.0148   21.6329 C   0  0  1  0  0  0  0  0  0  0  0  0
    8.1502  -15.5143   21.3596 C   0  0  0  0  0  0  0  0  0  0  0  0
    7.8848  -14.1028   21.5366 C   0  0  0  0  0  0  0  0  0  0  0  0
    7.3924  -13.5148   22.6840 C   0  0  0  0  0  0  0  0  0  0  0  0
    7.1314  -12.1613   22.7976 C   0  0  0  0  0  0  0  0  0  0  0  0
    7.3806  -11.3589   21.6971 C   0  0  0  0  0  0  0  0  0  0  0  0
    7.8738  -11.8958   20.5255 C   0  0  0  0  0  0  0  0  0  0  0  0
    8.1157  -13.2466   20.4654 C   0  0  0  0  0  0  0  0  0  0  0  0
    9.9737  -15.7816   23.0226 C   0  0  0  0  0  0  0  0  0  0  0  0
   10.4880  -14.6317   23.3214 O   0  0  0  0  0  0  0  0  0  0  0  0
    9.8652  -16.7168   24.0679 N   0  0  0  0  0  0  0  0  0  0  0  0
   10.3475  -16.3584   25.4108 C   0  0  1  0  0  0  0  0  0  0  0  0
    9.2305  -16.5868   26.4065 C   0  0  0  0  0  0  0  0  0  0  0  0
    7.9254  -16.0532   26.0496 C   0  0  0  0  0  0  0  0  0  0  0  0
    6.8479  -16.7903   25.5335 C   0  0  0  0  0  0  0  0  0  0  0  0
    5.8788  -15.9050   25.3085 N   0  0  0  0  0  0  0  0  0  0  0  0
    6.2686  -14.6534   25.6485 C   0  0  0  0  0  0  0  0  0  0  0  0
    5.5968  -13.4495   25.6016 C   0  0  0  0  0  0  0  0  0  0  0  0
    6.2338  -12.3058   26.0361 C   0  0  0  0  0  0  0  0  0  0  0  0
    7.5247  -12.3263   26.5175 C   0  0  0  0  0  0  0  0  0  0  0  0
    8.1678  -13.5403   26.5514 C   0  0  0  0  0  0  0  0  0  0  0  0
    7.5602  -14.7178   26.1214 C   0  0  0  0  0  0  0  0  0  0  0  0
   11.5622  -17.0718   25.7748 C   0  0  0  0  0  0  0  0  0  0  0  0
   12.0321  -17.9873   25.0038 O   0  0  0  0  0  0  0  0  0  0  0  0
   12.2848  -16.8454   26.9171 O   0  0  0  0  0  0  0  0  0  0  0  0
  2  4  1  0
  2  1  1  0
  3  2  2  0
  5  4  1  0
  6  5  1  0
  6  7  1  6
  8  6  1  0
  9  8  2  0
 10  8  1  0
 11 12  1  1
 11 10  1  0
 12 13  1  0
 13 18  1  0
 13 14  2  0
 14 15  1  0
 15 16  2  0
 17 16  1  0
 18 17  2  0
 19 11  1  0
 20 19  2  0
 21 19  1  0
 22 21  1  0
 22 23  1  1
 23 24  1  0
 24 32  1  0
 25 24  2  0
 25 26  1  0
 26 27  1  0
 27 28  1  0
 28 29  2  0
 30 29  1  0
 31 30  2  0
 32 27  2  0
 32 31  1  0
 33 35  1  0
 33 22  1  0
 34 33  2  0
M  END
$$$$
