QFW.pdb
     RDKit          3D

 35 37  0  0  1  0  0  0  0  0999 V2000
    9.8237  -21.5432   20.1497 N   0  0  0  0  0  0  0  0  0  0  0  0
   10.4807  -21.1182   18.9540 C   0  0  0  0  0  0  0  0  0  0  0  0
   10.9282  -21.9785   18.1412 O   0  0  0  0  0  0  0  0  0  0  0  0
   10.6282  -19.6891   18.6915 C   0  0  0  0  0  0  0  0  0  0  0  0
    9.4536  -18.8620   19.0595 C   0  0  0  0  0  0  0  0  0  0  0  0
    9.5613  -17.3947   18.7482 C   0  0  2  0  0  0  0  0  0  0  0  0
   10.6091  -17.0318   17.8641 N   0  0  0  0  0  0  0  0  0  0  0  0
    9.6328  -16.6794   20.0732 C   0  0  0  0  0  0  0  0  0  0  0  0
   10.7673  -16.4090   20.5778 O   0  0  0  0  0  0  0  0  0  0  0  0
    8.5037  -16.2750   20.8156 N   0  0  0  0  0  0  0  0  0  0  0  0
    8.6599  -15.5788   22.1262 C   0  0  1  0  0  0  0  0  0  0  0  0
    7.3555  -14.8946   22.4275 C   0  0  0  0  0  0  0  0  0  0  0  0
    7.2197  -14.2108   23.6957 C   0  0  0  0  0  0  0  0  0  0  0  0
    7.6881  -12.9442   23.9805 C   0  0  0  0  0  0  0  0  0  0  0  0
    7.5554  -12.3407   25.2179 C   0  0  0  0  0  0  0  0  0  0  0  0
    6.9167  -13.0512   26.2201 C   0  0  0  0  0  0  0  0  0  0  0  0
    6.4290  -14.3210   25.9882 C   0  0  0  0  0  0  0  0  0  0  0  0
    6.5871  -14.8746   24.7411 C   0  0  0  0  0  0  0  0  0  0  0  0
    9.0314  -16.5813   23.1409 C   0  0  0  0  0  0  0  0  0  0  0  0
    8.5303  -17.7708   23.0419 O   0  0  0  0  0  0  0  0  0  0  0  0
    9.9045  -16.3506   24.2195 N   0  0  0  0  0  0  0  0  0  0  0  0
   10.3161  -17.4784   25.0697 C   0  0  1  0  0  0  0  0  0  0  0  0
   11.5098  -17.0538   25.8981 C   0  0  0  0  0  0  0  0  0  0  0  0
   11.2270  -16.5613   27.2370 C   0  0  0  0  0  0  0  0  0  0  0  0
   11.2819  -17.3153   28.4200 C   0  0  0  0  0  0  0  0  0  0  0  0
   10.9058  -16.4882   29.3937 N   0  0  0  0  0  0  0  0  0  0  0  0
   10.6162  -15.2576   28.9081 C   0  0  0  0  0  0  0  0  0  0  0  0
   10.2092  -14.1035   29.5447 C   0  0  0  0  0  0  0  0  0  0  0  0
   10.0000  -12.9618   28.7997 C   0  0  0  0  0  0  0  0  0  0  0  0
   10.1849  -12.9359   27.4345 C   0  0  0  0  0  0  0  0  0  0  0  0
   10.5902  -14.1011   26.8290 C   0  0  0  0  0  0  0  0  0  0  0  0
   10.8116  -15.2752   27.5452 C   0  0  0  0  0  0  0  0  0  0  0  0
    9.2270  -17.9810   25.8934 C   0  0  0  0  0  0  0  0  0  0  0  0
    8.1228  -17.3276   25.9772 O   0  0  0  0  0  0  0  0  0  0  0  0
    9.2731  -19.1419   26.6205 O   0  0  0  0  0  0  0  0  0  0  0  0
  2  4  1  0
  2  1  1  0
  3  2  2  0
  5  4  1  0
  6  5  1  0
  6  7  1  6
  8  6  1  0
  9  8  2  0
 10  8  1  0
 11 12  1  1
 11 10  1  0
 12 13  1  0
 13 18  1  0
 13 14  2  0
 14 15  1  0
 15 16  2  0
 17 16  1  0
 18 17  2  0
 19 11  1  0
 20 19  2  0
 21 19  1  0
 22 21  1  0
 22 23  1  1
 23 24  1  0
 24 32  1  0
 25 24  2  0
 25 26  1  0
 26 27  1  0
 27 28  1  0
 28 29  2  0
 30 29  1  0
 31 30  2  0
 32 27  2  0
 32 31  1  0
 33 35  1  0
 33 22  1  0
 34 33  2  0
M  END
$$$$
