LFM.pdb
     RDKit          3D

 28 28  0  0  1  0  0  0  0  0999 V2000
   28.3596  -21.6065  -19.3850 C   0  0  0  0  0  0  0  0  0  0  0  0
   27.1604  -22.5042  -19.4952 C   0  0  2  0  0  0  0  0  0  0  0  0
   26.1999  -21.8627  -20.4971 C   0  0  0  0  0  0  0  0  0  0  0  0
   26.4038  -22.6515  -18.2122 C   0  0  0  0  0  0  0  0  0  0  0  0
   27.2138  -23.1594  -17.0618 C   0  0  2  0  0  0  0  0  0  0  0  0
   27.6082  -24.5333  -17.1834 N   0  0  0  0  0  0  0  0  0  0  0  0
   26.4828  -22.9407  -15.7727 C   0  0  0  0  0  0  0  0  0  0  0  0
   25.6399  -23.8133  -15.4170 O   0  0  0  0  0  0  0  0  0  0  0  0
   26.6738  -21.8304  -14.9379 N   0  0  0  0  0  0  0  0  0  0  0  0
   25.9544  -21.7181  -13.6973 C   0  0  1  0  0  0  0  0  0  0  0  0
   26.5884  -20.6735  -12.8039 C   0  0  0  0  0  0  0  0  0  0  0  0
   25.9732  -20.5940  -11.4616 C   0  0  0  0  0  0  0  0  0  0  0  0
   24.8905  -19.7673  -11.1828 C   0  0  0  0  0  0  0  0  0  0  0  0
   24.3401  -19.7111   -9.9012 C   0  0  0  0  0  0  0  0  0  0  0  0
   24.8742  -20.4850   -8.8925 C   0  0  0  0  0  0  0  0  0  0  0  0
   25.9451  -21.3126   -9.1381 C   0  0  0  0  0  0  0  0  0  0  0  0
   26.4589  -21.3438  -10.4011 C   0  0  0  0  0  0  0  0  0  0  0  0
   24.5473  -21.2663  -13.9273 C   0  0  0  0  0  0  0  0  0  0  0  0
   24.3608  -20.3085  -14.7178 O   0  0  0  0  0  0  0  0  0  0  0  0
   20.4525  -23.7692  -17.0300 C   0  0  0  0  0  0  0  0  0  0  0  0
   19.2001  -23.1508  -15.8756 S   0  0  0  0  0  0  0  0  0  0  0  0
   20.0026  -21.8829  -14.8342 C   0  0  0  0  0  0  0  0  0  0  0  0
   21.2270  -22.4899  -14.1822 C   0  0  0  0  0  0  0  0  0  0  0  0
   22.0612  -21.4143  -13.5347 C   0  0  2  0  0  0  0  0  0  0  0  0
   23.4256  -21.8503  -13.3115 N   0  0  0  0  0  0  0  0  0  0  0  0
   21.5091  -21.0309  -12.2067 C   0  0  0  0  0  0  0  0  0  0  0  0
   21.6714  -21.7767  -11.2067 O   0  0  0  0  0  0  0  0  0  0  0  0
   20.7985  -19.8554  -11.9958 O   0  0  0  0  0  0  0  0  0  0  0  0
  2  1  1  1
  2  3  1  0
  2  4  1  0
  4  5  1  0
  5  6  1  6
  7  8  2  0
  7  5  1  0
  9  7  1  0
 10  9  1  0
 10 11  1  1
 12 11  1  0
 12 13  2  0
 14 13  1  0
 15 14  2  0
 16 17  2  0
 16 15  1  0
 17 12  1  0
 18 10  1  0
 19 18  2  0
 20 21  1  0
 21 22  1  0
 23 22  1  0
 24 23  1  1
 24 25  1  0
 25 18  1  0
 26 28  1  0
 26 24  1  0
 27 26  2  0
M  END
$$$$
