LFM.pdb
     RDKit          3D

 28 28  0  0  1  0  0  0  0  0999 V2000
   20.9015  -19.5702  -20.9024 C   0  0  0  0  0  0  0  0  0  0  0  0
   21.8399  -20.0047  -19.8132 C   0  0  2  0  0  0  0  0  0  0  0  0
   21.1601  -21.1427  -19.0511 C   0  0  0  0  0  0  0  0  0  0  0  0
   22.1294  -18.9321  -18.8101 C   0  0  0  0  0  0  0  0  0  0  0  0
   23.4540  -19.0549  -18.1261 C   0  0  2  0  0  0  0  0  0  0  0  0
   23.4274  -19.8540  -16.9351 N   0  0  0  0  0  0  0  0  0  0  0  0
   24.0151  -17.6980  -17.8290 C   0  0  0  0  0  0  0  0  0  0  0  0
   23.4611  -17.0166  -16.9196 O   0  0  0  0  0  0  0  0  0  0  0  0
   25.1136  -17.1371  -18.4960 N   0  0  0  0  0  0  0  0  0  0  0  0
   25.5984  -15.8322  -18.1336 C   0  0  1  0  0  0  0  0  0  0  0  0
   26.9885  -15.9233  -17.5413 C   0  0  0  0  0  0  0  0  0  0  0  0
   27.0380  -16.6703  -16.2660 C   0  0  0  0  0  0  0  0  0  0  0  0
   26.6511  -16.1081  -15.0545 C   0  0  0  0  0  0  0  0  0  0  0  0
   26.7191  -16.8403  -13.8680 C   0  0  0  0  0  0  0  0  0  0  0  0
   27.1761  -18.1412  -13.8917 C   0  0  0  0  0  0  0  0  0  0  0  0
   27.5656  -18.7243  -15.0751 C   0  0  0  0  0  0  0  0  0  0  0  0
   27.4867  -17.9814  -16.2161 C   0  0  0  0  0  0  0  0  0  0  0  0
   25.7177  -14.9474  -19.3336 C   0  0  0  0  0  0  0  0  0  0  0  0
   25.9934  -15.4859  -20.4341 O   0  0  0  0  0  0  0  0  0  0  0  0
   21.7942  -11.9965  -24.5902 C   0  0  0  0  0  0  0  0  0  0  0  0
   22.0950  -13.0075  -23.1167 S   0  0  0  0  0  0  0  0  0  0  0  0
   23.6034  -12.3608  -22.3151 C   0  0  0  0  0  0  0  0  0  0  0  0
   23.9628  -13.2615  -21.1522 C   0  0  0  0  0  0  0  0  0  0  0  0
   25.2012  -12.7519  -20.4603 C   0  0  2  0  0  0  0  0  0  0  0  0
   25.5397  -13.5526  -19.3002 N   0  0  0  0  0  0  0  0  0  0  0  0
   25.0136  -11.3557  -19.9798 C   0  0  0  0  0  0  0  0  0  0  0  0
   24.8171  -10.4189  -20.7962 O   0  0  0  0  0  0  0  0  0  0  0  0
   25.0433  -11.0104  -18.6340 O   0  0  0  0  0  0  0  0  0  0  0  0
  2  1  1  6
  2  3  1  0
  2  4  1  0
  4  5  1  0
  5  6  1  1
  7  8  2  0
  7  5  1  0
  9  7  1  0
 10  9  1  0
 10 11  1  6
 12 11  1  0
 12 13  2  0
 14 13  1  0
 15 14  2  0
 16 17  2  0
 16 15  1  0
 17 12  1  0
 18 10  1  0
 19 18  2  0
 20 21  1  0
 21 22  1  0
 23 22  1  0
 24 23  1  1
 24 25  1  0
 25 18  1  0
 26 28  1  0
 26 24  1  0
 27 26  2  0
M  END
$$$$
