LFM.pdb
     RDKit          3D

 28 28  0  0  1  0  0  0  0  0999 V2000
   25.2077  -19.1281  -14.8414 C   0  0  0  0  0  0  0  0  0  0  0  0
   24.2949  -20.2060  -14.3305 C   0  0  2  0  0  0  0  0  0  0  0  0
   22.8641  -19.6747  -14.4222 C   0  0  0  0  0  0  0  0  0  0  0  0
   24.5290  -20.5568  -12.8944 C   0  0  0  0  0  0  0  0  0  0  0  0
   25.9232  -20.9952  -12.5756 C   0  0  2  0  0  0  0  0  0  0  0  0
   26.3204  -22.2088  -13.2291 N   0  0  0  0  0  0  0  0  0  0  0  0
   26.1047  -21.1195  -11.0938 C   0  0  0  0  0  0  0  0  0  0  0  0
   25.6243  -22.1408  -10.5241 O   0  0  0  0  0  0  0  0  0  0  0  0
   26.7719  -20.1752  -10.3005 N   0  0  0  0  0  0  0  0  0  0  0  0
   26.8842  -20.3655   -8.8791 C   0  0  1  0  0  0  0  0  0  0  0  0
   27.7814  -19.3109   -8.2673 C   0  0  0  0  0  0  0  0  0  0  0  0
   27.9598  -19.4635   -6.8074 C   0  0  0  0  0  0  0  0  0  0  0  0
   28.7532  -20.4607   -6.2511 C   0  0  0  0  0  0  0  0  0  0  0  0
   28.8923  -20.5805   -4.8672 C   0  0  0  0  0  0  0  0  0  0  0  0
   28.2352  -19.6993   -4.0345 C   0  0  0  0  0  0  0  0  0  0  0  0
   27.4434  -18.7025   -4.5557 C   0  0  0  0  0  0  0  0  0  0  0  0
   27.3290  -18.6133   -5.9118 C   0  0  0  0  0  0  0  0  0  0  0  0
   25.5559  -20.2183   -8.2074 C   0  0  0  0  0  0  0  0  0  0  0  0
   24.8430  -19.2351   -8.5271 O   0  0  0  0  0  0  0  0  0  0  0  0
   20.1834  -21.4972   -9.3523 C   0  0  0  0  0  0  0  0  0  0  0  0
   20.0438  -22.2639   -7.7164 S   0  0  0  0  0  0  0  0  0  0  0  0
   21.3539  -21.5434   -6.6672 C   0  0  0  0  0  0  0  0  0  0  0  0
   22.6809  -21.6735   -7.3848 C   0  0  0  0  0  0  0  0  0  0  0  0
   23.7677  -20.9815   -6.6024 C   0  0  2  0  0  0  0  0  0  0  0  0
   25.0616  -21.1141   -7.2423 N   0  0  0  0  0  0  0  0  0  0  0  0
   23.9009  -21.5607   -5.2378 C   0  0  0  0  0  0  0  0  0  0  0  0
   23.1846  -21.1421   -4.2921 O   0  0  0  0  0  0  0  0  0  0  0  0
   24.8020  -22.5738   -4.9327 O   0  0  0  0  0  0  0  0  0  0  0  0
  2  1  1  1
  2  3  1  0
  2  4  1  0
  4  5  1  0
  5  6  1  6
  7  8  2  0
  7  5  1  0
  9  7  1  0
 10  9  1  0
 10 11  1  1
 12 11  1  0
 12 13  2  0
 14 13  1  0
 15 14  2  0
 16 17  2  0
 16 15  1  0
 17 12  1  0
 18 10  1  0
 19 18  2  0
 20 21  1  0
 21 22  1  0
 23 22  1  0
 24 23  1  6
 24 25  1  0
 25 18  1  0
 26 28  1  0
 26 24  1  0
 27 26  2  0
M  END
$$$$
