LFM.pdb
     RDKit          3D

 28 28  0  0  1  0  0  0  0  0999 V2000
   14.0394  -21.2357    4.5884 C   0  0  0  0  0  0  0  0  0  0  0  0
   15.3556  -21.7312    4.0612 C   0  0  2  0  0  0  0  0  0  0  0  0
   15.7916  -22.8997    4.9458 C   0  0  0  0  0  0  0  0  0  0  0  0
   16.4494  -20.7118    4.1303 C   0  0  0  0  0  0  0  0  0  0  0  0
   16.2141  -19.4836    3.3096 C   0  0  2  0  0  0  0  0  0  0  0  0
   16.3492  -19.6878    1.8962 N   0  0  0  0  0  0  0  0  0  0  0  0
   17.1126  -18.3737    3.7626 C   0  0  0  0  0  0  0  0  0  0  0  0
   18.3028  -18.3670    3.3364 O   0  0  0  0  0  0  0  0  0  0  0  0
   16.7171  -17.3446    4.6289 N   0  0  0  0  0  0  0  0  0  0  0  0
   17.6586  -16.3404    5.0464 C   0  0  1  0  0  0  0  0  0  0  0  0
   16.9703  -15.0047    5.2297 C   0  0  0  0  0  0  0  0  0  0  0  0
   17.8886  -13.9190    5.6352 C   0  0  0  0  0  0  0  0  0  0  0  0
   17.9736  -13.4618    6.9456 C   0  0  0  0  0  0  0  0  0  0  0  0
   18.8463  -12.4285    7.2913 C   0  0  0  0  0  0  0  0  0  0  0  0
   19.6384  -11.8488    6.3227 C   0  0  0  0  0  0  0  0  0  0  0  0
   19.5764  -12.2801    5.0180 C   0  0  0  0  0  0  0  0  0  0  0  0
   18.7134  -13.2915    4.7140 C   0  0  0  0  0  0  0  0  0  0  0  0
   18.2595  -16.6811    6.3731 C   0  0  0  0  0  0  0  0  0  0  0  0
   17.5148  -17.2081    7.2361 O   0  0  0  0  0  0  0  0  0  0  0  0
   24.6566  -17.3803   10.9517 C   0  0  0  0  0  0  0  0  0  0  0  0
   24.0523  -16.9954    9.2874 S   0  0  0  0  0  0  0  0  0  0  0  0
   22.2310  -16.8940    9.3826 C   0  0  0  0  0  0  0  0  0  0  0  0
   21.6763  -16.7460    7.9815 C   0  0  0  0  0  0  0  0  0  0  0  0
   20.1700  -16.7033    8.0181 C   0  0  2  0  0  0  0  0  0  0  0  0
   19.6052  -16.4460    6.7081 N   0  0  0  0  0  0  0  0  0  0  0  0
   19.6837  -15.6210    8.9167 C   0  0  0  0  0  0  0  0  0  0  0  0
   19.3238  -15.8799   10.0940 O   0  0  0  0  0  0  0  0  0  0  0  0
   19.5996  -14.2917    8.5200 O   0  0  0  0  0  0  0  0  0  0  0  0
  2  1  1  1
  2  3  1  0
  2  4  1  0
  4  5  1  0
  5  6  1  6
  7  8  2  0
  7  5  1  0
  9  7  1  0
 10  9  1  0
 10 11  1  1
 12 11  1  0
 12 13  2  0
 14 13  1  0
 15 14  2  0
 16 17  2  0
 16 15  1  0
 17 12  1  0
 18 10  1  0
 19 18  2  0
 20 21  1  0
 21 22  1  0
 23 22  1  0
 24 23  1  6
 24 25  1  0
 25 18  1  0
 26 28  1  0
 26 24  1  0
 27 26  2  0
M  END
$$$$
