LFM.pdb
     RDKit          3D

 28 28  0  0  1  0  0  0  0  0999 V2000
   22.7413  -23.1812  -16.0063 C   0  0  0  0  0  0  0  0  0  0  0  0
   22.3123  -22.9678  -14.5828 C   0  0  2  0  0  0  0  0  0  0  0  0
   20.7836  -22.9431  -14.5650 C   0  0  0  0  0  0  0  0  0  0  0  0
   22.7673  -21.6618  -14.0105 C   0  0  0  0  0  0  0  0  0  0  0  0
   22.7133  -21.5788  -12.5180 C   0  0  2  0  0  0  0  0  0  0  0  0
   21.5227  -20.9628  -12.0074 N   0  0  0  0  0  0  0  0  0  0  0  0
   23.9280  -20.8786  -11.9904 C   0  0  0  0  0  0  0  0  0  0  0  0
   23.8570  -19.6294  -11.8098 O   0  0  0  0  0  0  0  0  0  0  0  0
   25.1368  -21.5207  -11.6860 N   0  0  0  0  0  0  0  0  0  0  0  0
   26.2994  -20.7541  -11.3255 C   0  0  1  0  0  0  0  0  0  0  0  0
   27.1499  -21.5096  -10.3269 C   0  0  0  0  0  0  0  0  0  0  0  0
   27.3885  -20.7639   -9.0725 C   0  0  0  0  0  0  0  0  0  0  0  0
   26.4259  -19.9428   -8.4958 C   0  0  0  0  0  0  0  0  0  0  0  0
   26.6888  -19.2466   -7.3148 C   0  0  0  0  0  0  0  0  0  0  0  0
   27.9200  -19.3715   -6.7063 C   0  0  0  0  0  0  0  0  0  0  0  0
   28.8921  -20.1765   -7.2531 C   0  0  0  0  0  0  0  0  0  0  0  0
   28.6028  -20.8427   -8.4075 C   0  0  0  0  0  0  0  0  0  0  0  0
   27.1752  -20.5097  -12.5130 C   0  0  0  0  0  0  0  0  0  0  0  0
   28.3466  -20.9615  -12.4806 O   0  0  0  0  0  0  0  0  0  0  0  0
   28.6326  -24.4255  -16.0599 C   0  0  0  0  0  0  0  0  0  0  0  0
   27.5450  -23.5083  -17.1821 S   0  0  0  0  0  0  0  0  0  0  0  0
   27.7056  -21.7374  -16.7647 C   0  0  0  0  0  0  0  0  0  0  0  0
   27.1316  -21.5075  -15.3825 C   0  0  0  0  0  0  0  0  0  0  0  0
   27.2759  -20.0589  -14.9916 C   0  0  2  0  0  0  0  0  0  0  0  0
   26.7640  -19.8058  -13.6592 N   0  0  0  0  0  0  0  0  0  0  0  0
   26.5201  -19.1731  -15.9186 C   0  0  0  0  0  0  0  0  0  0  0  0
   25.3312  -18.8482  -15.6664 O   0  0  0  0  0  0  0  0  0  0  0  0
   27.0677  -18.6637  -17.0899 O   0  0  0  0  0  0  0  0  0  0  0  0
  2  1  1  6
  2  3  1  0
  2  4  1  0
  4  5  1  0
  5  6  1  6
  7  8  2  0
  7  5  1  0
  9  7  1  0
 10  9  1  0
 10 11  1  1
 12 11  1  0
 12 13  2  0
 14 13  1  0
 15 14  2  0
 16 17  2  0
 16 15  1  0
 17 12  1  0
 18 10  1  0
 19 18  2  0
 20 21  1  0
 21 22  1  0
 23 22  1  0
 24 23  1  6
 24 25  1  0
 25 18  1  0
 26 28  1  0
 26 24  1  0
 27 26  2  0
M  END
$$$$
