LFM.pdb
     RDKit          3D

 28 28  0  0  1  0  0  0  0  0999 V2000
   28.5104  -17.1848  -15.2877 C   0  0  0  0  0  0  0  0  0  0  0  0
   27.7758  -18.2061  -16.1082 C   0  0  2  0  0  0  0  0  0  0  0  0
   26.8285  -17.4488  -17.0394 C   0  0  0  0  0  0  0  0  0  0  0  0
   26.9255  -19.1292  -15.2926 C   0  0  0  0  0  0  0  0  0  0  0  0
   27.6642  -19.8998  -14.2448 C   0  0  2  0  0  0  0  0  0  0  0  0
   28.6387  -20.8140  -14.7667 N   0  0  0  0  0  0  0  0  0  0  0  0
   26.7013  -20.6206  -13.3517 C   0  0  0  0  0  0  0  0  0  0  0  0
   26.4176  -21.8195  -13.6356 O   0  0  0  0  0  0  0  0  0  0  0  0
   26.0954  -20.0495  -12.2235 N   0  0  0  0  0  0  0  0  0  0  0  0
   25.1203  -20.7882  -11.4667 C   0  0  1  0  0  0  0  0  0  0  0  0
   24.9897  -20.2245  -10.0679 C   0  0  0  0  0  0  0  0  0  0  0  0
   26.2237  -20.3525   -9.2632 C   0  0  0  0  0  0  0  0  0  0  0  0
   27.2058  -21.2956   -9.5449 C   0  0  0  0  0  0  0  0  0  0  0  0
   28.3549  -21.3938   -8.7583 C   0  0  0  0  0  0  0  0  0  0  0  0
   28.5237  -20.5453   -7.6845 C   0  0  0  0  0  0  0  0  0  0  0  0
   27.5695  -19.6022   -7.3813 C   0  0  0  0  0  0  0  0  0  0  0  0
   26.4589  -19.5327   -8.1699 C   0  0  0  0  0  0  0  0  0  0  0  0
   23.7622  -20.6807  -12.0841 C   0  0  0  0  0  0  0  0  0  0  0  0
   23.4483  -19.5914  -12.6245 O   0  0  0  0  0  0  0  0  0  0  0  0
   20.9762  -25.4705  -14.8781 C   0  0  0  0  0  0  0  0  0  0  0  0
   19.4507  -24.4926  -14.8724 S   0  0  0  0  0  0  0  0  0  0  0  0
   19.8450  -22.8785  -14.1140 C   0  0  0  0  0  0  0  0  0  0  0  0
   21.1739  -22.9877  -13.3964 C   0  0  0  0  0  0  0  0  0  0  0  0
   21.5481  -21.6614  -12.7857 C   0  0  2  0  0  0  0  0  0  0  0  0
   22.8205  -21.7253  -12.0940 N   0  0  0  0  0  0  0  0  0  0  0  0
   20.5360  -21.2243  -11.7857 C   0  0  0  0  0  0  0  0  0  0  0  0
   20.7182  -21.4313  -10.5583 O   0  0  0  0  0  0  0  0  0  0  0  0
   19.3577  -20.5772  -12.1380 O   0  0  0  0  0  0  0  0  0  0  0  0
  2  1  1  1
  2  3  1  0
  2  4  1  0
  4  5  1  0
  5  6  1  6
  7  8  2  0
  7  5  1  0
  9  7  1  0
 10  9  1  0
 10 11  1  1
 12 11  1  0
 12 13  2  0
 14 13  1  0
 15 14  2  0
 16 17  2  0
 16 15  1  0
 17 12  1  0
 18 10  1  0
 19 18  2  0
 20 21  1  0
 21 22  1  0
 23 22  1  0
 24 23  1  1
 24 25  1  0
 25 18  1  0
 26 28  1  0
 26 24  1  0
 27 26  2  0
M  END
$$$$
