LFM.pdb
     RDKit          3D

 28 28  0  0  1  0  0  0  0  0999 V2000
   28.6940  -23.3439  -19.5292 C   0  0  0  0  0  0  0  0  0  0  0  0
   29.5243  -23.0432  -18.3142 C   0  0  2  0  0  0  0  0  0  0  0  0
   30.5680  -24.1533  -18.1876 C   0  0  0  0  0  0  0  0  0  0  0  0
   28.7408  -23.0460  -17.0389 C   0  0  0  0  0  0  0  0  0  0  0  0
   27.6695  -22.0051  -16.9592 C   0  0  2  0  0  0  0  0  0  0  0  0
   28.1263  -20.6717  -17.2255 N   0  0  0  0  0  0  0  0  0  0  0  0
   26.9837  -22.0636  -15.6286 C   0  0  0  0  0  0  0  0  0  0  0  0
   26.5615  -23.1871  -15.2314 O   0  0  0  0  0  0  0  0  0  0  0  0
   26.7803  -20.9522  -14.7983 N   0  0  0  0  0  0  0  0  0  0  0  0
   26.0568  -21.0876  -13.5625 C   0  0  1  0  0  0  0  0  0  0  0  0
   26.4959  -20.0349  -12.5672 C   0  0  0  0  0  0  0  0  0  0  0  0
   25.9148  -20.2186  -11.2200 C   0  0  0  0  0  0  0  0  0  0  0  0
   26.5250  -20.9960  -10.2419 C   0  0  0  0  0  0  0  0  0  0  0  0
   25.9434  -21.1543   -8.9828 C   0  0  0  0  0  0  0  0  0  0  0  0
   24.7456  -20.5325   -8.6992 C   0  0  0  0  0  0  0  0  0  0  0  0
   24.1185  -19.7570   -9.6465 C   0  0  0  0  0  0  0  0  0  0  0  0
   24.7135  -19.6230  -10.8663 C   0  0  0  0  0  0  0  0  0  0  0  0
   24.5906  -20.8755  -13.7684 C   0  0  0  0  0  0  0  0  0  0  0  0
   24.2274  -19.8334  -14.3678 O   0  0  0  0  0  0  0  0  0  0  0  0
   20.1803  -25.3819  -14.5229 C   0  0  0  0  0  0  0  0  0  0  0  0
   19.0561  -24.2083  -13.7213 S   0  0  0  0  0  0  0  0  0  0  0  0
   19.9280  -22.6065  -13.6197 C   0  0  0  0  0  0  0  0  0  0  0  0
   21.4126  -22.8669  -13.4748 C   0  0  0  0  0  0  0  0  0  0  0  0
   22.1783  -21.5699  -13.5333 C   0  0  2  0  0  0  0  0  0  0  0  0
   23.5994  -21.7724  -13.3309 N   0  0  0  0  0  0  0  0  0  0  0  0
   21.7229  -20.6275  -12.4751 C   0  0  0  0  0  0  0  0  0  0  0  0
   22.1298  -20.7496  -11.2910 O   0  0  0  0  0  0  0  0  0  0  0  0
   20.8425  -19.5814  -12.7243 O   0  0  0  0  0  0  0  0  0  0  0  0
  2  1  1  6
  2  3  1  0
  2  4  1  0
  4  5  1  0
  5  6  1  1
  7  8  2  0
  7  5  1  0
  9  7  1  0
 10  9  1  0
 10 11  1  1
 12 11  1  0
 12 13  2  0
 14 13  1  0
 15 14  2  0
 16 17  2  0
 16 15  1  0
 17 12  1  0
 18 10  1  0
 19 18  2  0
 20 21  1  0
 21 22  1  0
 23 22  1  0
 24 23  1  1
 24 25  1  0
 25 18  1  0
 26 28  1  0
 26 24  1  0
 27 26  2  0
M  END
$$$$
