LFM.pdb
     RDKit          3D

 28 28  0  0  1  0  0  0  0  0999 V2000
   15.7421  -21.3623    1.3146 C   0  0  0  0  0  0  0  0  0  0  0  0
   15.9548  -19.9165    0.9675 C   0  0  2  0  0  0  0  0  0  0  0  0
   16.7922  -19.8718   -0.3110 C   0  0  0  0  0  0  0  0  0  0  0  0
   16.7205  -19.1584    2.0064 C   0  0  0  0  0  0  0  0  0  0  0  0
   16.1612  -19.2529    3.3905 C   0  0  2  0  0  0  0  0  0  0  0  0
   14.8651  -18.6569    3.5414 N   0  0  0  0  0  0  0  0  0  0  0  0
   17.1205  -18.6685    4.3816 C   0  0  0  0  0  0  0  0  0  0  0  0
   18.3474  -18.9423    4.2471 O   0  0  0  0  0  0  0  0  0  0  0  0
   16.7435  -17.8393    5.4476 N   0  0  0  0  0  0  0  0  0  0  0  0
   17.7395  -17.2595    6.3083 C   0  0  1  0  0  0  0  0  0  0  0  0
   17.3480  -15.8529    6.7079 C   0  0  0  0  0  0  0  0  0  0  0  0
   17.3747  -14.8919    5.5843 C   0  0  0  0  0  0  0  0  0  0  0  0
   16.2223  -14.4824    4.9228 C   0  0  0  0  0  0  0  0  0  0  0  0
   16.2857  -13.5796    3.8600 C   0  0  0  0  0  0  0  0  0  0  0  0
   17.5071  -13.0832    3.4557 C   0  0  0  0  0  0  0  0  0  0  0  0
   18.6643  -13.4698    4.0909 C   0  0  0  0  0  0  0  0  0  0  0  0
   18.5672  -14.3530    5.1256 C   0  0  0  0  0  0  0  0  0  0  0  0
   17.8674  -18.0309    7.5834 C   0  0  0  0  0  0  0  0  0  0  0  0
   16.8111  -18.3960    8.1562 O   0  0  0  0  0  0  0  0  0  0  0  0
   20.3407  -21.7076    5.9337 C   0  0  0  0  0  0  0  0  0  0  0  0
   21.2590  -21.6966    7.4958 S   0  0  0  0  0  0  0  0  0  0  0  0
   20.0618  -21.3277    8.8250 C   0  0  0  0  0  0  0  0  0  0  0  0
   20.4182  -19.9939    9.4469 C   0  0  0  0  0  0  0  0  0  0  0  0
   19.2227  -19.0759    9.4346 C   0  0  2  0  0  0  0  0  0  0  0  0
   19.0977  -18.3692    8.1751 N   0  0  0  0  0  0  0  0  0  0  0  0
   19.3271  -18.0417   10.5000 C   0  0  0  0  0  0  0  0  0  0  0  0
   19.3728  -16.8199   10.2036 O   0  0  0  0  0  0  0  0  0  0  0  0
   19.3789  -18.3547   11.8530 O   0  0  0  0  0  0  0  0  0  0  0  0
  2  1  1  1
  2  3  1  0
  2  4  1  0
  4  5  1  0
  5  6  1  6
  7  8  2  0
  7  5  1  0
  9  7  1  0
 10  9  1  0
 10 11  1  1
 12 11  1  0
 12 13  2  0
 14 13  1  0
 15 14  2  0
 16 17  2  0
 16 15  1  0
 17 12  1  0
 18 10  1  0
 19 18  2  0
 20 21  1  0
 21 22  1  0
 23 22  1  0
 24 23  1  6
 24 25  1  0
 25 18  1  0
 26 28  1  0
 26 24  1  0
 27 26  2  0
M  END
$$$$
