LFM.pdb
     RDKit          3D

 28 28  0  0  1  0  0  0  0  0999 V2000
   26.8981  -19.6566  -15.7296 C   0  0  0  0  0  0  0  0  0  0  0  0
   27.9483  -19.9506  -14.6969 C   0  0  2  0  0  0  0  0  0  0  0  0
   29.1257  -20.6087  -15.4170 C   0  0  0  0  0  0  0  0  0  0  0  0
   27.4985  -20.9148  -13.6441 C   0  0  0  0  0  0  0  0  0  0  0  0
   26.4012  -20.4114  -12.7610 C   0  0  2  0  0  0  0  0  0  0  0  0
   26.1142  -19.0150  -12.9199 N   0  0  0  0  0  0  0  0  0  0  0  0
   26.7034  -20.7200  -11.3266 C   0  0  0  0  0  0  0  0  0  0  0  0
   26.9698  -21.9183  -11.0243 O   0  0  0  0  0  0  0  0  0  0  0  0
   26.7082  -19.7649  -10.3000 N   0  0  0  0  0  0  0  0  0  0  0  0
   26.8730  -20.1683   -8.9291 C   0  0  1  0  0  0  0  0  0  0  0  0
   27.9530  -19.3484   -8.2563 C   0  0  0  0  0  0  0  0  0  0  0  0
   28.0895  -19.6264   -6.8104 C   0  0  0  0  0  0  0  0  0  0  0  0
   27.5403  -18.8016   -5.8350 C   0  0  0  0  0  0  0  0  0  0  0  0
   27.6961  -19.0903   -4.4782 C   0  0  0  0  0  0  0  0  0  0  0  0
   28.4045  -20.2092   -4.0935 C   0  0  0  0  0  0  0  0  0  0  0  0
   28.9592  -21.0440   -5.0356 C   0  0  0  0  0  0  0  0  0  0  0  0
   28.7883  -20.7332   -6.3525 C   0  0  0  0  0  0  0  0  0  0  0  0
   25.6234  -19.9313   -8.1420 C   0  0  0  0  0  0  0  0  0  0  0  0
   25.2423  -18.7443   -7.9902 O   0  0  0  0  0  0  0  0  0  0  0  0
   21.6368  -22.1964  -11.4932 C   0  0  0  0  0  0  0  0  0  0  0  0
   20.6161  -21.0550  -10.5243 S   0  0  0  0  0  0  0  0  0  0  0  0
   21.2966  -21.0256   -8.8295 C   0  0  0  0  0  0  0  0  0  0  0  0
   22.8078  -20.9760   -8.9108 C   0  0  0  0  0  0  0  0  0  0  0  0
   23.4050  -20.9591   -7.5269 C   0  0  2  0  0  0  0  0  0  0  0  0
   24.8541  -20.9572   -7.5642 N   0  0  0  0  0  0  0  0  0  0  0  0
   22.9959  -22.1605   -6.7493 C   0  0  0  0  0  0  0  0  0  0  0  0
   23.6439  -23.2347   -6.8430 O   0  0  0  0  0  0  0  0  0  0  0  0
   21.9008  -22.1687   -5.8937 O   0  0  0  0  0  0  0  0  0  0  0  0
  2  1  1  6
  2  3  1  0
  2  4  1  0
  4  5  1  0
  5  6  1  1
  7  8  2  0
  7  5  1  0
  9  7  1  0
 10  9  1  0
 10 11  1  1
 12 11  1  0
 12 13  2  0
 14 13  1  0
 15 14  2  0
 16 17  2  0
 16 15  1  0
 17 12  1  0
 18 10  1  0
 19 18  2  0
 20 21  1  0
 21 22  1  0
 23 22  1  0
 24 23  1  6
 24 25  1  0
 25 18  1  0
 26 28  1  0
 26 24  1  0
 27 26  2  0
M  END
$$$$
