RQH.pdb
     RDKit          3D

 31 31  0  0  1  0  0  0  0  0999 V2000
   24.7540  -28.5887  -19.2163 N   0  0  0  0  0  0  0  0  0  0  0  0
   24.3874  -27.8296  -20.3633 C   0  0  0  0  0  0  0  0  0  0  0  0
   24.1042  -28.4158  -21.4842 N   0  0  0  0  0  0  0  0  0  0  0  0
   24.3466  -26.4085  -20.2228 N   0  0  0  0  0  0  0  0  0  0  0  0
   24.4718  -25.8330  -18.9172 C   0  0  0  0  0  0  0  0  0  0  0  0
   23.0943  -25.6263  -18.3099 C   0  0  0  0  0  0  0  0  0  0  0  0
   23.0801  -24.2243  -17.7341 C   0  0  0  0  0  0  0  0  0  0  0  0
   24.1854  -24.0522  -16.7023 C   0  0  2  0  0  0  0  0  0  0  0  0
   24.6054  -25.3392  -16.2570 N   0  0  0  0  0  0  0  0  0  0  0  0
   23.6575  -23.1947  -15.6259 C   0  0  0  0  0  0  0  0  0  0  0  0
   23.2798  -23.6242  -14.5098 O   0  0  0  0  0  0  0  0  0  0  0  0
   23.7895  -27.8636  -22.2959 N   0  0  0  0  0  0  0  0  0  0  0  0
   27.5488  -19.1354  -16.1115 C   0  0  0  0  0  0  0  0  0  0  0  0
   27.0581  -18.5833  -14.9091 O   0  0  0  0  0  0  0  0  0  0  0  0
   27.6539  -17.6719  -14.3227 C   0  0  0  0  0  0  0  0  0  0  0  0
   25.7857  -19.1130  -14.3286 C   0  0  0  0  0  0  0  0  0  0  0  0
   25.2917  -20.2181  -15.2113 C   0  0  1  0  0  0  0  0  0  0  0  0
   23.9831  -20.8293  -14.8417 N   0  0  0  0  0  0  0  0  0  0  0  0
   23.5691  -21.7986  -15.8608 C   0  0  0  0  0  0  0  0  0  0  0  0
   22.8538  -19.8884  -14.6959 O   0  0  0  0  0  0  0  0  0  0  0  0
   22.4039  -19.2432  -15.7183 N   0  0  0  0  0  0  0  0  0  0  0  0
   22.1654  -19.6022  -13.4890 C   0  0  2  0  0  0  0  0  0  0  0  0
   21.0421  -18.6277  -13.4648 C   0  0  0  0  0  0  0  0  0  0  0  0
   21.3496  -17.5106  -14.4324 C   0  0  0  0  0  0  0  0  0  0  0  0
   20.3100  -16.4698  -14.4019 C   0  0  0  0  0  0  0  0  0  0  0  0
   19.3220  -16.4651  -13.4016 N   0  0  0  0  0  0  0  0  0  0  0  0
   18.5375  -15.4052  -13.6496 C   0  0  0  0  0  0  0  0  0  0  0  0
   18.9676  -14.7513  -14.7322 N   0  0  0  0  0  0  0  0  0  0  0  0
   20.0412  -15.4187  -15.1656 C   0  0  0  0  0  0  0  0  0  0  0  0
   19.8362  -19.3977  -13.7973 O   0  0  0  0  0  0  0  0  0  0  0  0
   19.7235  -20.0223  -14.9095 O   0  0  0  0  0  0  0  0  0  0  0  0
  2  1  1  0
  3  2  2  0
  4  2  1  0
  5  4  1  0
  6  5  1  0
  6  7  1  0
  8  7  1  0
  8  9  1  1
 10  8  1  0
 10 11  2  0
 13 12  1  0
 13 14  2  0
 15 16  1  0
 15 13  1  0
 17 16  1  1
 17 18  1  0
 18 10  1  0
 19 17  1  0
 19 21  1  0
 20 19  2  0
 22 21  1  0
 22 23  1  1
 23 24  1  0
 24 28  1  0
 25 24  2  0
 25 26  1  0
 26 27  1  0
 28 27  2  0
 29 22  1  0
 30 29  2  0
 31 29  1  0
M  END
$$$$
