RQH.pdb
     RDKit          3D

 31 31  0  0  1  0  0  0  0  0999 V2000
   27.7606  -22.6323  -15.6306 N   0  0  0  0  0  0  0  0  0  0  0  0
   28.6654  -22.2020  -16.6417 C   0  0  0  0  0  0  0  0  0  0  0  0
   28.8566  -22.9141  -17.7079 N   0  0  0  0  0  0  0  0  0  0  0  0
   29.3447  -20.9633  -16.4290 N   0  0  0  0  0  0  0  0  0  0  0  0
   28.5805  -19.7549  -16.3425 C   0  0  0  0  0  0  0  0  0  0  0  0
   27.3632  -19.8480  -17.2472 C   0  0  0  0  0  0  0  0  0  0  0  0
   26.6560  -18.5101  -17.1616 C   0  0  0  0  0  0  0  0  0  0  0  0
   25.4305  -18.6027  -16.2642 C   0  0  2  0  0  0  0  0  0  0  0  0
   24.9359  -19.9390  -16.2950 N   0  0  0  0  0  0  0  0  0  0  0  0
   24.4590  -17.5992  -16.7353 C   0  0  0  0  0  0  0  0  0  0  0  0
   24.7284  -16.3850  -16.8957 O   0  0  0  0  0  0  0  0  0  0  0  0
   29.5499  -22.6213  -18.4124 N   0  0  0  0  0  0  0  0  0  0  0  0
   20.4250  -16.9932  -21.1672 C   0  0  0  0  0  0  0  0  0  0  0  0
   21.8211  -17.1855  -21.2413 O   0  0  0  0  0  0  0  0  0  0  0  0
   22.4264  -17.1384  -22.3187 C   0  0  0  0  0  0  0  0  0  0  0  0
   22.5886  -17.4531  -19.9860 C   0  0  0  0  0  0  0  0  0  0  0  0
   21.6173  -17.5189  -18.8473 C   0  0  2  0  0  0  0  0  0  0  0  0
   22.1255  -17.0859  -17.5143 N   0  0  0  0  0  0  0  0  0  0  0  0
   23.1383  -18.0269  -17.0264 C   0  0  0  0  0  0  0  0  0  0  0  0
   21.1137  -16.9888  -16.4425 O   0  0  0  0  0  0  0  0  0  0  0  0
   20.9598  -17.9527  -15.5992 N   0  0  0  0  0  0  0  0  0  0  0  0
   20.2459  -15.8888  -16.2205 C   0  0  2  0  0  0  0  0  0  0  0  0
   19.1928  -15.9481  -15.1720 C   0  0  0  0  0  0  0  0  0  0  0  0
   18.5464  -14.5887  -15.0577 C   0  0  0  0  0  0  0  0  0  0  0  0
   17.4761  -14.5841  -14.0481 C   0  0  0  0  0  0  0  0  0  0  0  0
   17.6987  -15.0951  -12.7573 N   0  0  0  0  0  0  0  0  0  0  0  0
   16.5452  -14.9478  -12.0880 C   0  0  0  0  0  0  0  0  0  0  0  0
   15.6222  -14.3820  -12.8706 N   0  0  0  0  0  0  0  0  0  0  0  0
   16.2145  -14.1735  -14.0503 C   0  0  0  0  0  0  0  0  0  0  0  0
   18.2756  -17.0184  -15.5851 O   0  0  0  0  0  0  0  0  0  0  0  0
   17.9626  -17.1978  -16.8138 O   0  0  0  0  0  0  0  0  0  0  0  0
  2  1  1  0
  3  2  2  0
  4  2  1  0
  5  4  1  0
  6  5  1  0
  6  7  1  0
  8  7  1  0
  8  9  1  6
 10  8  1  0
 10 11  2  0
 13 12  1  0
 13 14  2  0
 15 16  1  0
 15 13  1  0
 17 16  1  6
 17 18  1  0
 18 10  1  0
 19 17  1  0
 19 21  1  0
 20 19  2  0
 22 21  1  0
 22 23  1  6
 23 24  1  0
 24 28  1  0
 25 24  2  0
 25 26  1  0
 26 27  1  0
 28 27  2  0
 29 22  1  0
 30 29  2  0
 31 29  1  0
M  END
$$$$
