RQH.pdb
     RDKit          3D

 31 31  0  0  1  0  0  0  0  0999 V2000
   24.8814  -21.2934   -9.4217 N   0  0  0  0  0  0  0  0  0  0  0  0
   26.1274  -21.0353   -8.7836 C   0  0  0  0  0  0  0  0  0  0  0  0
   26.2050  -20.9406   -7.4931 N   0  0  0  0  0  0  0  0  0  0  0  0
   27.2746  -20.8872   -9.6221 N   0  0  0  0  0  0  0  0  0  0  0  0
   27.1019  -20.4133  -10.9627 C   0  0  0  0  0  0  0  0  0  0  0  0
   28.2495  -20.8974  -11.8331 C   0  0  0  0  0  0  0  0  0  0  0  0
   28.0897  -20.2181  -13.1787 C   0  0  0  0  0  0  0  0  0  0  0  0
   26.7052  -20.4780  -13.7545 C   0  0  2  0  0  0  0  0  0  0  0  0
   26.7494  -21.6621  -14.5463 N   0  0  0  0  0  0  0  0  0  0  0  0
   26.3051  -19.2754  -14.5070 C   0  0  0  0  0  0  0  0  0  0  0  0
   26.2240  -18.1293  -14.0043 O   0  0  0  0  0  0  0  0  0  0  0  0
   27.0931  -20.6735   -7.0429 N   0  0  0  0  0  0  0  0  0  0  0  0
   28.1346  -18.0641  -20.0165 C   0  0  0  0  0  0  0  0  0  0  0  0
   28.8067  -17.8686  -18.7911 O   0  0  0  0  0  0  0  0  0  0  0  0
   30.0235  -17.6527  -18.7456 C   0  0  0  0  0  0  0  0  0  0  0  0
   28.0287  -17.9238  -17.5151 C   0  0  0  0  0  0  0  0  0  0  0  0
   26.5846  -18.1328  -17.8548 C   0  0  2  0  0  0  0  0  0  0  0  0
   25.6425  -18.2545  -16.7059 N   0  0  0  0  0  0  0  0  0  0  0  0
   25.9916  -19.4167  -15.8832 C   0  0  0  0  0  0  0  0  0  0  0  0
   24.2181  -18.4222  -17.0592 O   0  0  0  0  0  0  0  0  0  0  0  0
   23.7435  -19.5918  -17.3249 N   0  0  0  0  0  0  0  0  0  0  0  0
   23.2568  -17.3819  -17.1383 C   0  0  1  0  0  0  0  0  0  0  0  0
   21.8444  -17.6750  -17.5000 C   0  0  0  0  0  0  0  0  0  0  0  0
   20.9383  -17.0014  -16.4979 C   0  0  0  0  0  0  0  0  0  0  0  0
   20.7646  -17.8239  -15.2903 C   0  0  0  0  0  0  0  0  0  0  0  0
   21.4132  -19.0647  -15.1622 N   0  0  0  0  0  0  0  0  0  0  0  0
   21.0551  -19.5572  -13.9666 C   0  0  0  0  0  0  0  0  0  0  0  0
   20.2306  -18.7111  -13.3430 N   0  0  0  0  0  0  0  0  0  0  0  0
   20.0733  -17.6717  -14.1681 C   0  0  0  0  0  0  0  0  0  0  0  0
   21.6766  -17.1987  -18.8793 O   0  0  0  0  0  0  0  0  0  0  0  0
   20.5799  -17.3660  -19.5190 O   0  0  0  0  0  0  0  0  0  0  0  0
  2  1  1  0
  3  2  2  0
  4  2  1  0
  5  4  1  0
  6  5  1  0
  6  7  1  0
  8  7  1  0
  8  9  1  6
 10  8  1  0
 10 11  2  0
 13 12  1  0
 13 14  2  0
 15 16  1  0
 15 13  1  0
 17 16  1  1
 17 18  1  0
 18 10  1  0
 19 17  1  0
 19 21  1  0
 20 19  2  0
 22 21  1  0
 22 23  1  6
 23 24  1  0
 24 28  1  0
 25 24  2  0
 25 26  1  0
 26 27  1  0
 28 27  2  0
 29 22  1  0
 30 29  2  0
 31 29  1  0
M  END
$$$$
