RQH.pdb
     RDKit          3D

 31 31  0  0  1  0  0  0  0  0999 V2000
   30.0483  -25.2917  -17.1644 N   0  0  0  0  0  0  0  0  0  0  0  0
   28.8984  -26.1262  -17.2514 C   0  0  0  0  0  0  0  0  0  0  0  0
   28.9983  -27.4106  -17.1079 N   0  0  0  0  0  0  0  0  0  0  0  0
   27.6442  -25.4895  -17.5013 N   0  0  0  0  0  0  0  0  0  0  0  0
   27.5905  -24.0600  -17.5756 C   0  0  0  0  0  0  0  0  0  0  0  0
   26.1545  -23.6074  -17.7806 C   0  0  0  0  0  0  0  0  0  0  0  0
   25.8106  -22.7110  -16.6077 C   0  0  0  0  0  0  0  0  0  0  0  0
   25.6418  -23.5273  -15.3346 C   0  0  2  0  0  0  0  0  0  0  0  0
   25.4394  -24.8936  -15.6858 N   0  0  0  0  0  0  0  0  0  0  0  0
   24.5247  -22.9380  -14.5748 C   0  0  0  0  0  0  0  0  0  0  0  0
   23.3397  -23.3428  -14.6443 O   0  0  0  0  0  0  0  0  0  0  0  0
   28.1558  -28.0043  -17.1302 N   0  0  0  0  0  0  0  0  0  0  0  0
   25.7969  -20.9692   -9.0952 C   0  0  0  0  0  0  0  0  0  0  0  0
   24.4274  -20.6333   -9.0374 O   0  0  0  0  0  0  0  0  0  0  0  0
   23.8836  -20.3065   -7.9759 C   0  0  0  0  0  0  0  0  0  0  0  0
   23.6127  -20.6733  -10.2909 C   0  0  0  0  0  0  0  0  0  0  0  0
   24.4820  -21.1831  -11.3994 C   0  0  1  0  0  0  0  0  0  0  0  0
   23.8201  -21.3982  -12.7178 N   0  0  0  0  0  0  0  0  0  0  0  0
   24.8004  -21.8469  -13.7113 C   0  0  0  0  0  0  0  0  0  0  0  0
   23.1613  -20.2140  -13.3056 O   0  0  0  0  0  0  0  0  0  0  0  0
   23.7981  -19.4529  -14.1296 N   0  0  0  0  0  0  0  0  0  0  0  0
   21.8280  -19.7990  -13.0553 C   0  0  1  0  0  0  0  0  0  0  0  0
   20.9098  -19.4666  -14.1770 C   0  0  0  0  0  0  0  0  0  0  0  0
   21.1651  -20.4280  -15.3125 C   0  0  0  0  0  0  0  0  0  0  0  0
   20.2838  -20.1544  -16.4587 C   0  0  0  0  0  0  0  0  0  0  0  0
   18.9401  -20.5680  -16.4514 N   0  0  0  0  0  0  0  0  0  0  0  0
   18.4165  -20.1737  -17.6221 C   0  0  0  0  0  0  0  0  0  0  0  0
   19.3388  -19.5448  -18.3559 N   0  0  0  0  0  0  0  0  0  0  0  0
   20.4582  -19.5486  -17.6261 C   0  0  0  0  0  0  0  0  0  0  0  0
   19.5528  -19.5397  -13.6195 O   0  0  0  0  0  0  0  0  0  0  0  0
   18.5928  -18.8378  -14.0944 O   0  0  0  0  0  0  0  0  0  0  0  0
  2  1  1  0
  3  2  2  0
  4  2  1  0
  5  4  1  0
  6  5  1  0
  6  7  1  0
  8  7  1  0
  8  9  1  6
 10  8  1  0
 10 11  2  0
 13 12  1  0
 13 14  2  0
 15 16  1  0
 15 13  1  0
 17 16  1  1
 17 18  1  0
 18 10  1  0
 19 17  1  0
 19 21  1  0
 20 19  2  0
 22 21  1  0
 22 23  1  1
 23 24  1  0
 24 28  1  0
 25 24  2  0
 25 26  1  0
 26 27  1  0
 28 27  2  0
 29 22  1  0
 30 29  2  0
 31 29  1  0
M  END
$$$$
