RQH.pdb
     RDKit          3D

 31 31  0  0  1  0  0  0  0  0999 V2000
   26.5567  -19.9914  -11.1903 N   0  0  0  0  0  0  0  0  0  0  0  0
   25.6695  -21.0551  -10.8620 C   0  0  0  0  0  0  0  0  0  0  0  0
   24.7644  -20.9055   -9.9462 N   0  0  0  0  0  0  0  0  0  0  0  0
   25.8214  -22.2804  -11.5807 N   0  0  0  0  0  0  0  0  0  0  0  0
   26.3615  -22.2485  -12.9070 C   0  0  0  0  0  0  0  0  0  0  0  0
   25.2434  -22.4071  -13.9236 C   0  0  0  0  0  0  0  0  0  0  0  0
   25.8988  -22.4215  -15.2903 C   0  0  0  0  0  0  0  0  0  0  0  0
   25.7886  -21.0580  -15.9571 C   0  0  2  0  0  0  0  0  0  0  0  0
   26.4915  -20.1008  -15.1693 N   0  0  0  0  0  0  0  0  0  0  0  0
   24.3545  -20.7571  -16.1169 C   0  0  0  0  0  0  0  0  0  0  0  0
   23.5619  -21.4599  -16.7882 O   0  0  0  0  0  0  0  0  0  0  0  0
   24.2092  -21.7129   -9.6258 N   0  0  0  0  0  0  0  0  0  0  0  0
   20.6748  -19.8703  -11.7806 C   0  0  0  0  0  0  0  0  0  0  0  0
   20.2636  -20.8143  -12.7456 O   0  0  0  0  0  0  0  0  0  0  0  0
   19.4851  -21.7331  -12.4643 C   0  0  0  0  0  0  0  0  0  0  0  0
   20.7820  -20.7016  -14.1439 C   0  0  0  0  0  0  0  0  0  0  0  0
   21.7781  -19.5833  -14.1862 C   0  0  2  0  0  0  0  0  0  0  0  0
   22.4006  -19.2976  -15.5103 N   0  0  0  0  0  0  0  0  0  0  0  0
   23.8338  -19.6044  -15.4749 C   0  0  0  0  0  0  0  0  0  0  0  0
   22.2974  -17.9008  -15.9798 O   0  0  0  0  0  0  0  0  0  0  0  0
   23.0800  -16.9919  -15.5053 N   0  0  0  0  0  0  0  0  0  0  0  0
   21.3849  -17.4203  -16.9540 C   0  0  1  0  0  0  0  0  0  0  0  0
   21.3847  -15.9889  -17.3576 C   0  0  0  0  0  0  0  0  0  0  0  0
   21.0621  -15.9012  -18.8297 C   0  0  0  0  0  0  0  0  0  0  0  0
   20.9776  -14.5031  -19.2805 C   0  0  0  0  0  0  0  0  0  0  0  0
   19.9462  -13.6603  -18.8304 N   0  0  0  0  0  0  0  0  0  0  0  0
   20.1477  -12.4699  -19.4156 C   0  0  0  0  0  0  0  0  0  0  0  0
   21.2304  -12.5130  -20.1971 N   0  0  0  0  0  0  0  0  0  0  0  0
   21.7112  -13.7557  -20.0951 C   0  0  0  0  0  0  0  0  0  0  0  0
   20.4053  -15.3266  -16.4859 O   0  0  0  0  0  0  0  0  0  0  0  0
   19.4654  -15.9809  -15.9130 O   0  0  0  0  0  0  0  0  0  0  0  0
  2  1  1  0
  3  2  2  0
  4  2  1  0
  5  4  1  0
  6  5  1  0
  6  7  1  0
  8  7  1  0
  8  9  1  1
 10  8  1  0
 10 11  2  0
 13 12  1  0
 13 14  2  0
 15 16  1  0
 15 13  1  0
 17 16  1  6
 17 18  1  0
 18 10  1  0
 19 17  1  0
 19 21  1  0
 20 19  2  0
 22 21  1  0
 22 23  1  1
 23 24  1  0
 24 28  1  0
 25 24  2  0
 25 26  1  0
 26 27  1  0
 28 27  2  0
 29 22  1  0
 30 29  2  0
 31 29  1  0
M  END
$$$$
