RQH.pdb
     RDKit          3D

 31 31  0  0  1  0  0  0  0  0999 V2000
   17.9568  -19.0512  -15.9801 N   0  0  0  0  0  0  0  0  0  0  0  0
   18.4806  -20.3321  -16.3132 C   0  0  0  0  0  0  0  0  0  0  0  0
   19.0572  -20.5366  -17.4561 N   0  0  0  0  0  0  0  0  0  0  0  0
   18.3429  -21.3694  -15.3405 N   0  0  0  0  0  0  0  0  0  0  0  0
   17.4177  -21.1947  -14.2611 C   0  0  0  0  0  0  0  0  0  0  0  0
   18.0956  -21.5243  -12.9417 C   0  0  0  0  0  0  0  0  0  0  0  0
   17.4055  -22.7585  -12.3960 C   0  0  0  0  0  0  0  0  0  0  0  0
   18.3513  -23.9507  -12.3943 C   0  0  2  0  0  0  0  0  0  0  0  0
   18.6405  -24.3123  -13.7421 N   0  0  0  0  0  0  0  0  0  0  0  0
   17.7088  -25.0252  -11.6162 C   0  0  0  0  0  0  0  0  0  0  0  0
   16.5458  -25.4440  -11.8279 O   0  0  0  0  0  0  0  0  0  0  0  0
   19.4818  -21.4515  -17.6690 N   0  0  0  0  0  0  0  0  0  0  0  0
   20.7559  -29.6513   -9.6858 C   0  0  0  0  0  0  0  0  0  0  0  0
   19.7514  -29.8665  -10.6533 O   0  0  0  0  0  0  0  0  0  0  0  0
   19.7860  -30.8360  -11.4202 C   0  0  0  0  0  0  0  0  0  0  0  0
   18.6162  -28.8982  -10.7545 C   0  0  0  0  0  0  0  0  0  0  0  0
   18.7868  -27.8619   -9.6860 C   0  0  2  0  0  0  0  0  0  0  0  0
   17.8647  -26.6919   -9.7416 N   0  0  0  0  0  0  0  0  0  0  0  0
   18.4457  -25.6256  -10.5633 C   0  0  0  0  0  0  0  0  0  0  0  0
   17.5390  -26.0693   -8.4423 O   0  0  0  0  0  0  0  0  0  0  0  0
   18.1190  -24.9767   -8.0769 N   0  0  0  0  0  0  0  0  0  0  0  0
   16.6018  -26.5640   -7.4992 C   0  0  1  0  0  0  0  0  0  0  0  0
   16.3785  -25.8629   -6.2067 C   0  0  0  0  0  0  0  0  0  0  0  0
   15.4075  -24.7294   -6.4324 C   0  0  0  0  0  0  0  0  0  0  0  0
   14.9636  -24.1386   -5.1600 C   0  0  0  0  0  0  0  0  0  0  0  0
   15.4711  -24.6013   -3.9331 N   0  0  0  0  0  0  0  0  0  0  0  0
   14.8769  -23.8699   -2.9780 C   0  0  0  0  0  0  0  0  0  0  0  0
   14.0368  -22.9861   -3.5238 N   0  0  0  0  0  0  0  0  0  0  0  0
   14.1107  -23.1724   -4.8451 C   0  0  0  0  0  0  0  0  0  0  0  0
   15.8995  -26.8892   -5.2714 O   0  0  0  0  0  0  0  0  0  0  0  0
   15.2529  -27.9177   -5.6763 O   0  0  0  0  0  0  0  0  0  0  0  0
  2  1  1  0
  3  2  2  0
  4  2  1  0
  5  4  1  0
  6  5  1  0
  6  7  1  0
  8  7  1  0
  8  9  1  6
 10  8  1  0
 10 11  2  0
 13 12  1  0
 13 14  2  0
 15 16  1  0
 15 13  1  0
 17 16  1  6
 17 18  1  0
 18 10  1  0
 19 17  1  0
 19 21  1  0
 20 19  2  0
 22 21  1  0
 22 23  1  1
 23 24  1  0
 24 28  1  0
 25 24  2  0
 25 26  1  0
 26 27  1  0
 28 27  2  0
 29 22  1  0
 30 29  2  0
 31 29  1  0
M  END
$$$$
