RQH.pdb
     RDKit          3D

 31 31  0  0  1  0  0  0  0  0999 V2000
   15.3113  -10.7238  -20.5032 N   0  0  0  0  0  0  0  0  0  0  0  0
   15.0525  -11.8818  -19.7170 C   0  0  0  0  0  0  0  0  0  0  0  0
   13.8595  -12.3842  -19.6483 N   0  0  0  0  0  0  0  0  0  0  0  0
   16.1559  -12.4576  -19.0156 N   0  0  0  0  0  0  0  0  0  0  0  0
   17.1297  -11.5936  -18.4180 C   0  0  0  0  0  0  0  0  0  0  0  0
   18.2971  -12.4145  -17.8964 C   0  0  0  0  0  0  0  0  0  0  0  0
   19.3329  -11.4269  -17.3972 C   0  0  0  0  0  0  0  0  0  0  0  0
   20.6215  -12.1411  -17.0159 C   0  0  2  0  0  0  0  0  0  0  0  0
   20.2974  -13.4150  -16.4651 N   0  0  0  0  0  0  0  0  0  0  0  0
   21.3574  -11.2632  -16.0884 C   0  0  0  0  0  0  0  0  0  0  0  0
   21.0700  -11.1281  -14.8752 O   0  0  0  0  0  0  0  0  0  0  0  0
   13.6877  -13.2468  -19.1106 N   0  0  0  0  0  0  0  0  0  0  0  0
   27.3247  -10.5101  -16.4409 C   0  0  0  0  0  0  0  0  0  0  0  0
   26.6434  -11.5819  -15.8258 O   0  0  0  0  0  0  0  0  0  0  0  0
   27.2280  -12.6228  -15.5030 C   0  0  0  0  0  0  0  0  0  0  0  0
   25.1775  -11.4568  -15.5572 C   0  0  0  0  0  0  0  0  0  0  0  0
   24.7484  -10.0713  -15.9325 C   0  0  2  0  0  0  0  0  0  0  0  0
   23.3145   -9.7345  -15.7026 N   0  0  0  0  0  0  0  0  0  0  0  0
   22.4580  -10.5240  -16.5928 C   0  0  0  0  0  0  0  0  0  0  0  0
   22.9425   -8.3232  -15.9301 O   0  0  0  0  0  0  0  0  0  0  0  0
   22.8396   -7.8592  -17.1293 N   0  0  0  0  0  0  0  0  0  0  0  0
   22.6645   -7.3672  -14.9196 C   0  0  1  0  0  0  0  0  0  0  0  0
   22.3349   -5.9602  -15.2712 C   0  0  0  0  0  0  0  0  0  0  0  0
   20.8749   -5.8845  -15.6473 C   0  0  0  0  0  0  0  0  0  0  0  0
   20.4492   -4.4951  -15.8780 C   0  0  0  0  0  0  0  0  0  0  0  0
   21.2443   -3.6114  -16.6288 N   0  0  0  0  0  0  0  0  0  0  0  0
   20.5884   -2.4412  -16.6546 C   0  0  0  0  0  0  0  0  0  0  0  0
   19.4429   -2.5349  -15.9736 N   0  0  0  0  0  0  0  0  0  0  0  0
   19.3861   -3.7889  -15.5155 C   0  0  0  0  0  0  0  0  0  0  0  0
   22.6964   -5.1579  -14.0952 O   0  0  0  0  0  0  0  0  0  0  0  0
   22.7813   -5.6774  -12.9278 O   0  0  0  0  0  0  0  0  0  0  0  0
  2  1  1  0
  3  2  2  0
  4  2  1  0
  5  4  1  0
  6  5  1  0
  6  7  1  0
  8  7  1  0
  8  9  1  1
 10  8  1  0
 10 11  2  0
 13 12  1  0
 13 14  2  0
 15 16  1  0
 15 13  1  0
 17 16  1  1
 17 18  1  0
 18 10  1  0
 19 17  1  0
 19 21  1  0
 20 19  2  0
 22 21  1  0
 22 23  1  6
 23 24  1  0
 24 28  1  0
 25 24  2  0
 25 26  1  0
 26 27  1  0
 28 27  2  0
 29 22  1  0
 30 29  2  0
 31 29  1  0
M  END
$$$$
