RQH.pdb
     RDKit          3D

 31 31  0  0  1  0  0  0  0  0999 V2000
   46.4308  -15.1042   -5.7956 N   0  0  0  0  0  0  0  0  0  0  0  0
   47.5520  -14.9002   -6.6486 C   0  0  0  0  0  0  0  0  0  0  0  0
   48.5058  -15.7758   -6.7116 N   0  0  0  0  0  0  0  0  0  0  0  0
   47.5764  -13.6997   -7.4227 N   0  0  0  0  0  0  0  0  0  0  0  0
   46.4673  -12.7967   -7.3442 C   0  0  0  0  0  0  0  0  0  0  0  0
   45.3307  -13.2979   -8.2194 C   0  0  0  0  0  0  0  0  0  0  0  0
   44.3222  -12.1700   -8.3086 C   0  0  0  0  0  0  0  0  0  0  0  0
   43.0645  -12.6253   -9.0343 C   0  0  2  0  0  0  0  0  0  0  0  0
   43.4389  -13.2473  -10.2607 N   0  0  0  0  0  0  0  0  0  0  0  0
   42.2002  -11.4440   -9.2075 C   0  0  0  0  0  0  0  0  0  0  0  0
   42.1135  -10.7899  -10.2740 O   0  0  0  0  0  0  0  0  0  0  0  0
   49.3668  -15.5709   -7.2402 N   0  0  0  0  0  0  0  0  0  0  0  0
   37.0487  -11.0703   -6.1650 C   0  0  0  0  0  0  0  0  0  0  0  0
   36.9737   -9.7623   -6.6893 O   0  0  0  0  0  0  0  0  0  0  0  0
   35.9888   -9.0402   -6.4939 C   0  0  0  0  0  0  0  0  0  0  0  0
   38.1133   -9.2352   -7.5017 C   0  0  0  0  0  0  0  0  0  0  0  0
   39.1467  -10.3139   -7.6155 C   0  0  1  0  0  0  0  0  0  0  0  0
   40.4438   -9.9284   -8.2410 N   0  0  0  0  0  0  0  0  0  0  0  0
   41.4169  -11.0164   -8.1049 C   0  0  0  0  0  0  0  0  0  0  0  0
   41.0964   -8.7290   -7.6775 O   0  0  0  0  0  0  0  0  0  0  0  0
   41.6461   -8.7706   -6.5113 N   0  0  0  0  0  0  0  0  0  0  0  0
   41.1970   -7.4652   -8.3141 C   0  0  1  0  0  0  0  0  0  0  0  0
   41.8553   -6.3188   -7.6327 C   0  0  0  0  0  0  0  0  0  0  0  0
   42.2807   -5.3147   -8.6765 C   0  0  0  0  0  0  0  0  0  0  0  0
   42.9940   -4.1784   -8.0722 C   0  0  0  0  0  0  0  0  0  0  0  0
   43.3781   -4.2036   -6.7200 N   0  0  0  0  0  0  0  0  0  0  0  0
   43.9982   -3.0380   -6.4811 C   0  0  0  0  0  0  0  0  0  0  0  0
   44.0267   -2.2908   -7.5881 N   0  0  0  0  0  0  0  0  0  0  0  0
   43.4117   -3.0069   -8.5340 C   0  0  0  0  0  0  0  0  0  0  0  0
   40.8718   -5.8064   -6.6695 O   0  0  0  0  0  0  0  0  0  0  0  0
   41.2197   -5.0682   -5.6827 O   0  0  0  0  0  0  0  0  0  0  0  0
  2  1  1  0
  3  2  2  0
  4  2  1  0
  5  4  1  0
  6  5  1  0
  6  7  1  0
  8  7  1  0
  8  9  1  6
 10  8  1  0
 10 11  2  0
 13 12  1  0
 13 14  2  0
 15 16  1  0
 15 13  1  0
 17 16  1  6
 17 18  1  0
 18 10  1  0
 19 17  1  0
 19 21  1  0
 20 19  2  0
 22 21  1  0
 22 23  1  1
 23 24  1  0
 24 28  1  0
 25 24  2  0
 25 26  1  0
 26 27  1  0
 28 27  2  0
 29 22  1  0
 30 29  2  0
 31 29  1  0
M  END
$$$$
