RQH.pdb
     RDKit          3D

 31 31  0  0  1  0  0  0  0  0999 V2000
   24.5196  -24.1570  -14.2829 N   0  0  0  0  0  0  0  0  0  0  0  0
   24.7347  -25.4481  -14.8423 C   0  0  0  0  0  0  0  0  0  0  0  0
   25.7949  -25.6987  -15.5449 N   0  0  0  0  0  0  0  0  0  0  0  0
   23.7394  -26.4429  -14.5961 N   0  0  0  0  0  0  0  0  0  0  0  0
   22.7091  -26.1762  -13.6375 C   0  0  0  0  0  0  0  0  0  0  0  0
   21.5708  -25.4188  -14.3003 C   0  0  0  0  0  0  0  0  0  0  0  0
   20.6000  -25.0434  -13.1984 C   0  0  0  0  0  0  0  0  0  0  0  0
   20.3037  -26.2412  -12.3077 C   0  0  2  0  0  0  0  0  0  0  0  0
   20.4552  -27.4340  -13.0728 N   0  0  0  0  0  0  0  0  0  0  0  0
   18.9495  -26.0585  -11.7550 C   0  0  0  0  0  0  0  0  0  0  0  0
   17.8977  -26.3785  -12.3583 O   0  0  0  0  0  0  0  0  0  0  0  0
   25.9396  -26.6337  -15.9542 N   0  0  0  0  0  0  0  0  0  0  0  0
   17.3732  -26.1922   -5.8262 C   0  0  0  0  0  0  0  0  0  0  0  0
   18.4475  -25.3460   -6.1742 O   0  0  0  0  0  0  0  0  0  0  0  0
   19.2538  -24.9397   -5.3290 C   0  0  0  0  0  0  0  0  0  0  0  0
   18.6161  -24.9295   -7.6006 C   0  0  0  0  0  0  0  0  0  0  0  0
   17.5334  -25.5765   -8.4092 C   0  0  1  0  0  0  0  0  0  0  0  0
   17.5052  -25.2504   -9.8637 N   0  0  0  0  0  0  0  0  0  0  0  0
   18.8221  -25.4867  -10.4631 C   0  0  0  0  0  0  0  0  0  0  0  0
   17.1509  -23.8569  -10.2020 O   0  0  0  0  0  0  0  0  0  0  0  0
   18.0029  -23.0910  -10.7947 N   0  0  0  0  0  0  0  0  0  0  0  0
   15.9050  -23.2321   -9.9378 C   0  0  1  0  0  0  0  0  0  0  0  0
   15.2463  -22.3809  -10.9642 C   0  0  0  0  0  0  0  0  0  0  0  0
   15.2183  -23.1340  -12.2722 C   0  0  0  0  0  0  0  0  0  0  0  0
   15.7120  -22.3042  -13.3825 C   0  0  0  0  0  0  0  0  0  0  0  0
   16.1069  -20.9720  -13.1682 N   0  0  0  0  0  0  0  0  0  0  0  0
   16.5001  -20.4976  -14.3601 C   0  0  0  0  0  0  0  0  0  0  0  0
   16.3777  -21.4398  -15.2992 N   0  0  0  0  0  0  0  0  0  0  0  0
   15.8987  -22.5217  -14.6779 C   0  0  0  0  0  0  0  0  0  0  0  0
   13.9181  -22.0591  -10.4258 O   0  0  0  0  0  0  0  0  0  0  0  0
   13.1973  -22.9428   -9.8433 O   0  0  0  0  0  0  0  0  0  0  0  0
  2  1  1  0
  3  2  2  0
  4  2  1  0
  5  4  1  0
  6  5  1  0
  6  7  1  0
  8  7  1  0
  8  9  1  6
 10  8  1  0
 10 11  2  0
 13 12  1  0
 13 14  2  0
 15 16  1  0
 15 13  1  0
 17 16  1  6
 17 18  1  0
 18 10  1  0
 19 17  1  0
 19 21  1  0
 20 19  2  0
 22 21  1  0
 22 23  1  1
 23 24  1  0
 24 28  1  0
 25 24  2  0
 25 26  1  0
 26 27  1  0
 28 27  2  0
 29 22  1  0
 30 29  2  0
 31 29  1  0
M  END
$$$$
