RQH.pdb
     RDKit          3D

 31 31  0  0  1  0  0  0  0  0999 V2000
   31.3989  -24.5235  -15.3296 N   0  0  0  0  0  0  0  0  0  0  0  0
   30.5742  -25.1452  -16.3092 C   0  0  0  0  0  0  0  0  0  0  0  0
   30.1206  -26.3461  -16.1294 N   0  0  0  0  0  0  0  0  0  0  0  0
   30.2735  -24.3926  -17.4857 N   0  0  0  0  0  0  0  0  0  0  0  0
   30.6721  -23.0186  -17.5553 C   0  0  0  0  0  0  0  0  0  0  0  0
   29.7855  -22.1775  -16.6522 C   0  0  0  0  0  0  0  0  0  0  0  0
   28.9648  -21.2838  -17.5605 C   0  0  0  0  0  0  0  0  0  0  0  0
   28.0587  -20.3716  -16.7464 C   0  0  2  0  0  0  0  0  0  0  0  0
   28.0677  -20.8044  -15.3886 N   0  0  0  0  0  0  0  0  0  0  0  0
   26.7235  -20.4015  -17.3702 C   0  0  0  0  0  0  0  0  0  0  0  0
   26.4910  -20.0307  -18.5454 O   0  0  0  0  0  0  0  0  0  0  0  0
   29.5275  -26.7916  -16.8454 N   0  0  0  0  0  0  0  0  0  0  0  0
   25.1666  -24.8261  -17.0259 C   0  0  0  0  0  0  0  0  0  0  0  0
   24.6525  -24.4952  -18.2978 O   0  0  0  0  0  0  0  0  0  0  0  0
   24.8029  -25.2411  -19.2727 C   0  0  0  0  0  0  0  0  0  0  0  0
   23.9071  -23.2105  -18.4720 C   0  0  0  0  0  0  0  0  0  0  0  0
   23.9054  -22.4875  -17.1598 C   0  0  2  0  0  0  0  0  0  0  0  0
   24.3022  -21.0508  -17.1921 N   0  0  0  0  0  0  0  0  0  0  0  0
   25.6319  -20.8775  -16.5995 C   0  0  0  0  0  0  0  0  0  0  0  0
   23.4116  -20.1227  -16.4661 O   0  0  0  0  0  0  0  0  0  0  0  0
   23.8008  -19.5663  -15.3694 N   0  0  0  0  0  0  0  0  0  0  0  0
   22.1026  -19.7489  -16.8655 C   0  0  1  0  0  0  0  0  0  0  0  0
   21.3801  -18.6479  -16.1745 C   0  0  0  0  0  0  0  0  0  0  0  0
   22.1286  -17.3576  -16.4060 C   0  0  0  0  0  0  0  0  0  0  0  0
   21.4151  -16.2091  -15.8255 C   0  0  0  0  0  0  0  0  0  0  0  0
   20.2431  -16.3933  -15.0710 N   0  0  0  0  0  0  0  0  0  0  0  0
   19.8426  -15.1709  -14.6896 C   0  0  0  0  0  0  0  0  0  0  0  0
   20.6819  -14.2407  -15.1532 N   0  0  0  0  0  0  0  0  0  0  0  0
   21.6230  -14.8988  -15.8366 C   0  0  0  0  0  0  0  0  0  0  0  0
   20.0162  -18.6593  -16.7196 O   0  0  0  0  0  0  0  0  0  0  0  0
   19.0742  -17.9745  -16.1870 O   0  0  0  0  0  0  0  0  0  0  0  0
  2  1  1  0
  3  2  2  0
  4  2  1  0
  5  4  1  0
  6  5  1  0
  6  7  1  0
  8  7  1  0
  8  9  1  1
 10  8  1  0
 10 11  2  0
 13 12  1  0
 13 14  2  0
 15 16  1  0
 15 13  1  0
 17 16  1  6
 17 18  1  0
 18 10  1  0
 19 17  1  0
 19 21  1  0
 20 19  2  0
 22 21  1  0
 22 23  1  1
 23 24  1  0
 24 28  1  0
 25 24  2  0
 25 26  1  0
 26 27  1  0
 28 27  2  0
 29 22  1  0
 30 29  2  0
 31 29  1  0
M  END
$$$$
