ELC.pdb
     RDKit          3D

 24 23  0  0  1  0  0  0  0  0999 V2000
   17.9309  -11.9215  -16.4782 N   0  0  0  0  0  0  0  0  0  0  0  0
   17.3062  -10.6908  -16.0150 C   0  0  1  0  0  0  0  0  0  0  0  0
   16.8899  -10.7915  -14.5823 C   0  0  0  0  0  0  0  0  0  0  0  0
   15.6896  -11.6860  -14.4700 C   0  0  0  0  0  0  0  0  0  0  0  0
   14.4244  -11.0502  -14.8890 C   0  0  0  0  0  0  0  0  0  0  0  0
   13.9656  -10.0932  -14.1710 O   0  0  0  0  0  0  0  0  0  0  0  0
   18.2706   -9.5867  -16.2524 C   0  0  0  0  0  0  0  0  0  0  0  0
   19.4891   -9.8201  -16.0987 O   0  0  0  0  0  0  0  0  0  0  0  0
   13.6777  -11.3807  -15.9849 O   0  0  0  0  0  0  0  0  0  0  0  0
   19.4523   -6.5764  -19.9099 C   0  0  0  0  0  0  0  0  0  0  0  0
   18.0720   -6.3738  -19.2590 C   0  0  2  0  0  0  0  0  0  0  0  0
   17.2658   -5.4448  -20.0489 C   0  0  0  0  0  0  0  0  0  0  0  0
   18.1735   -6.2847  -17.8094 C   0  0  0  0  0  0  0  0  0  0  0  0
   18.9165   -7.2380  -16.9840 C   0  0  2  0  0  0  0  0  0  0  0  0
   17.8881   -8.2885  -16.6424 N   0  0  0  0  0  0  0  0  0  0  0  0
   19.3267   -6.6959  -15.6897 C   0  0  0  0  0  0  0  0  0  0  0  0
   18.4648   -6.3032  -14.8233 O   0  0  0  0  0  0  0  0  0  0  0  0
   20.6761   -6.5530  -15.2469 N   0  0  0  0  0  0  0  0  0  0  0  0
   20.9928   -5.9872  -13.9696 C   0  0  1  0  0  0  0  0  0  0  0  0
   21.6852   -7.1161  -13.1798 C   0  0  0  0  0  0  0  0  0  0  0  0
   22.4032   -6.4898  -11.6436 S   0  0  0  0  0  0  0  0  0  0  0  0
   21.9234   -4.8606  -14.0608 C   0  0  0  0  0  0  0  0  0  0  0  0
   22.9074   -4.7362  -15.0251 O   0  0  0  0  0  0  0  0  0  0  0  0
   21.8832   -3.8899  -13.2266 O   0  0  0  0  0  0  0  0  0  0  0  0
  2  1  1  1
  3  2  1  0
  4  3  1  0
  5  4  1  0
  5  6  2  0
  7  8  2  0
  7  2  1  0
  9  5  1  0
 11 10  1  6
 11 12  1  0
 11 13  1  0
 14 13  1  6
 14 15  1  0
 15  7  1  0
 16 14  1  0
 17 16  2  0
 18 16  1  0
 19 20  1  1
 19 18  1  0
 20 21  1  0
 22 19  1  0
 23 22  1  0
 24 22  2  0
M  END
$$$$
