ELC.pdb
     RDKit          3D

 24 23  0  0  1  0  0  0  0  0999 V2000
   20.1498  -13.1787  -17.2977 N   0  0  0  0  0  0  0  0  0  0  0  0
   20.2825  -11.8327  -17.8363 C   0  0  1  0  0  0  0  0  0  0  0  0
   19.3735  -11.6161  -19.0038 C   0  0  0  0  0  0  0  0  0  0  0  0
   19.8798  -12.3919  -20.1849 C   0  0  0  0  0  0  0  0  0  0  0  0
   19.6710  -13.8500  -20.0810 C   0  0  0  0  0  0  0  0  0  0  0  0
   20.7054  -14.6059  -20.0632 O   0  0  0  0  0  0  0  0  0  0  0  0
   20.0208  -10.8822  -16.7257 C   0  0  0  0  0  0  0  0  0  0  0  0
   18.9399  -10.9783  -16.1049 O   0  0  0  0  0  0  0  0  0  0  0  0
   18.4664  -14.4903  -19.9985 O   0  0  0  0  0  0  0  0  0  0  0  0
   21.3085   -8.8706  -11.9857 C   0  0  0  0  0  0  0  0  0  0  0  0
   22.2212   -8.4053  -13.1347 C   0  0  2  0  0  0  0  0  0  0  0  0
   22.3862   -6.9533  -13.1005 C   0  0  0  0  0  0  0  0  0  0  0  0
   21.9433   -9.1328  -14.3649 C   0  0  0  0  0  0  0  0  0  0  0  0
   20.6797   -9.0425  -15.0978 C   0  0  2  0  0  0  0  0  0  0  0  0
   20.9248   -9.8765  -16.3315 N   0  0  0  0  0  0  0  0  0  0  0  0
   20.3969   -7.7040  -15.6136 C   0  0  0  0  0  0  0  0  0  0  0  0
   21.1748   -7.1333  -16.4603 O   0  0  0  0  0  0  0  0  0  0  0  0
   19.2656   -6.9079  -15.2620 N   0  0  0  0  0  0  0  0  0  0  0  0
   19.1079   -5.5693  -15.7468 C   0  0  1  0  0  0  0  0  0  0  0  0
   17.5881   -5.3082  -15.7468 C   0  0  0  0  0  0  0  0  0  0  0  0
   17.2229   -3.5911  -16.1780 S   0  0  0  0  0  0  0  0  0  0  0  0
   19.7395   -4.5718  -14.8808 C   0  0  0  0  0  0  0  0  0  0  0  0
   20.4292   -3.4638  -15.3392 O   0  0  0  0  0  0  0  0  0  0  0  0
   19.6914   -4.6668  -13.6047 O   0  0  0  0  0  0  0  0  0  0  0  0
  2  1  1  1
  3  2  1  0
  4  3  1  0
  5  4  1  0
  5  6  2  0
  7  8  2  0
  7  2  1  0
  9  5  1  0
 11 10  1  1
 11 12  1  0
 11 13  1  0
 14 13  1  1
 14 15  1  0
 15  7  1  0
 16 14  1  0
 17 16  2  0
 18 16  1  0
 19 20  1  1
 19 18  1  0
 20 21  1  0
 22 19  1  0
 23 22  1  0
 24 22  2  0
M  END
$$$$
