ELC.pdb
     RDKit          3D

 24 23  0  0  1  0  0  0  0  0999 V2000
   27.8227  -20.3487  -15.8624 N   0  0  0  0  0  0  0  0  0  0  0  0
   26.4815  -19.8386  -16.1082 C   0  0  1  0  0  0  0  0  0  0  0  0
   26.1185  -19.9232  -17.5564 C   0  0  0  0  0  0  0  0  0  0  0  0
   27.3148  -19.5778  -18.3948 C   0  0  0  0  0  0  0  0  0  0  0  0
   27.6912  -18.1508  -18.3466 C   0  0  0  0  0  0  0  0  0  0  0  0
   27.0016  -17.3231  -19.0403 O   0  0  0  0  0  0  0  0  0  0  0  0
   25.5497  -20.6035  -15.2410 C   0  0  0  0  0  0  0  0  0  0  0  0
   25.1966  -21.7443  -15.6109 O   0  0  0  0  0  0  0  0  0  0  0  0
   28.7171  -17.6093  -17.6240 O   0  0  0  0  0  0  0  0  0  0  0  0
   26.0336  -22.3350  -11.1264 C   0  0  0  0  0  0  0  0  0  0  0  0
   25.7313  -20.8276  -11.0466 C   0  0  2  0  0  0  0  0  0  0  0  0
   26.0095  -20.3208   -9.7040 C   0  0  0  0  0  0  0  0  0  0  0  0
   24.5179  -20.4875  -11.7758 C   0  0  0  0  0  0  0  0  0  0  0  0
   24.2054  -20.9856  -13.1160 C   0  0  2  0  0  0  0  0  0  0  0  0
   25.0410  -20.1145  -14.0220 N   0  0  0  0  0  0  0  0  0  0  0  0
   22.8276  -20.7255  -13.5304 C   0  0  0  0  0  0  0  0  0  0  0  0
   22.3807  -19.5292  -13.6600 O   0  0  0  0  0  0  0  0  0  0  0  0
   21.8572  -21.7260  -13.8377 N   0  0  0  0  0  0  0  0  0  0  0  0
   20.5160  -21.3848  -14.2073 C   0  0  1  0  0  0  0  0  0  0  0  0
   20.1071  -22.4205  -15.2740 C   0  0  0  0  0  0  0  0  0  0  0  0
   18.3754  -22.2150  -15.7503 S   0  0  0  0  0  0  0  0  0  0  0  0
   19.5741  -21.4872  -13.0910 C   0  0  0  0  0  0  0  0  0  0  0  0
   18.4302  -20.7203  -12.9611 O   0  0  0  0  0  0  0  0  0  0  0  0
   19.7571  -22.3193  -12.1351 O   0  0  0  0  0  0  0  0  0  0  0  0
  2  1  1  6
  3  2  1  0
  4  3  1  0
  5  4  1  0
  5  6  2  0
  7  8  2  0
  7  2  1  0
  9  5  1  0
 11 10  1  1
 11 12  1  0
 11 13  1  0
 14 13  1  1
 14 15  1  0
 15  7  1  0
 16 14  1  0
 17 16  2  0
 18 16  1  0
 19 20  1  6
 19 18  1  0
 20 21  1  0
 22 19  1  0
 23 22  1  0
 24 22  2  0
M  END
$$$$
