ELC.pdb
     RDKit          3D

 24 23  0  0  1  0  0  0  0  0999 V2000
   19.8490  -20.7220  -12.7466 N   0  0  0  0  0  0  0  0  0  0  0  0
   21.0449  -21.2942  -13.3481 C   0  0  1  0  0  0  0  0  0  0  0  0
   20.9478  -21.3266  -14.8400 C   0  0  0  0  0  0  0  0  0  0  0  0
   19.8252  -22.2348  -15.2503 C   0  0  0  0  0  0  0  0  0  0  0  0
   19.7210  -22.4411  -16.7087 C   0  0  0  0  0  0  0  0  0  0  0  0
   18.7675  -23.1772  -17.1454 O   0  0  0  0  0  0  0  0  0  0  0  0
   22.2056  -20.5012  -12.8692 C   0  0  0  0  0  0  0  0  0  0  0  0
   22.0943  -19.2570  -12.8202 O   0  0  0  0  0  0  0  0  0  0  0  0
   20.5502  -21.9174  -17.6605 O   0  0  0  0  0  0  0  0  0  0  0  0
   23.8962  -19.2991   -9.2419 C   0  0  0  0  0  0  0  0  0  0  0  0
   24.3361  -20.7456   -9.5321 C   0  0  2  0  0  0  0  0  0  0  0  0
   24.8149  -21.3892   -8.3100 C   0  0  0  0  0  0  0  0  0  0  0  0
   25.0476  -20.8430  -10.7985 C   0  0  0  0  0  0  0  0  0  0  0  0
   24.5928  -20.2149  -12.0397 C   0  0  2  0  0  0  0  0  0  0  0  0
   23.4274  -21.0741  -12.4658 N   0  0  0  0  0  0  0  0  0  0  0  0
   25.5505  -20.3296  -13.1385 C   0  0  0  0  0  0  0  0  0  0  0  0
   26.7412  -19.8600  -13.0423 O   0  0  0  0  0  0  0  0  0  0  0  0
   25.2927  -20.9593  -14.3933 N   0  0  0  0  0  0  0  0  0  0  0  0
   26.3033  -21.0666  -15.4027 C   0  0  1  0  0  0  0  0  0  0  0  0
   27.3349  -22.0691  -14.8471 C   0  0  0  0  0  0  0  0  0  0  0  0
   28.5700  -22.4920  -16.0975 S   0  0  0  0  0  0  0  0  0  0  0  0
   25.7909  -21.5971  -16.6675 C   0  0  0  0  0  0  0  0  0  0  0  0
   26.5576  -21.7862  -17.8033 O   0  0  0  0  0  0  0  0  0  0  0  0
   24.5618  -21.9289  -16.8051 O   0  0  0  0  0  0  0  0  0  0  0  0
  2  1  1  1
  3  2  1  0
  4  3  1  0
  5  4  1  0
  5  6  2  0
  7  8  2  0
  7  2  1  0
  9  5  1  0
 11 10  1  1
 11 12  1  0
 11 13  1  0
 14 13  1  1
 14 15  1  0
 15  7  1  0
 16 14  1  0
 17 16  2  0
 18 16  1  0
 19 20  1  1
 19 18  1  0
 20 21  1  0
 22 19  1  0
 23 22  1  0
 24 22  2  0
M  END
$$$$
