ELC.pdb
     RDKit          3D

 24 23  0  0  1  0  0  0  0  0999 V2000
   27.3154  -22.5976  -16.0046 N   0  0  0  0  0  0  0  0  0  0  0  0
   26.8035  -21.3097  -15.5588 C   0  0  1  0  0  0  0  0  0  0  0  0
   26.2442  -20.5171  -16.6969 C   0  0  0  0  0  0  0  0  0  0  0  0
   27.3649  -20.0359  -17.5721 C   0  0  0  0  0  0  0  0  0  0  0  0
   27.7627  -18.6356  -17.3243 C   0  0  0  0  0  0  0  0  0  0  0  0
   28.7438  -18.1609  -17.9979 O   0  0  0  0  0  0  0  0  0  0  0  0
   25.7971  -21.5744  -14.4994 C   0  0  0  0  0  0  0  0  0  0  0  0
   25.0687  -22.5841  -14.6121 O   0  0  0  0  0  0  0  0  0  0  0  0
   27.1816  -17.7754  -16.4354 O   0  0  0  0  0  0  0  0  0  0  0  0
   25.6545  -22.3087   -9.9155 C   0  0  0  0  0  0  0  0  0  0  0  0
   25.9241  -20.8267  -10.2330 C   0  0  2  0  0  0  0  0  0  0  0  0
   26.3140  -20.1072   -9.0217 C   0  0  0  0  0  0  0  0  0  0  0  0
   24.9513  -20.2981  -11.1785 C   0  0  0  0  0  0  0  0  0  0  0  0
   24.5110  -21.0100  -12.3790 C   0  0  2  0  0  0  0  0  0  0  0  0
   25.6176  -20.7498  -13.3717 N   0  0  0  0  0  0  0  0  0  0  0  0
   23.3212  -20.4299  -12.9999 C   0  0  0  0  0  0  0  0  0  0  0  0
   23.4091  -19.4888  -13.8684 O   0  0  0  0  0  0  0  0  0  0  0  0
   21.9765  -20.8288  -12.7353 N   0  0  0  0  0  0  0  0  0  0  0  0
   20.9043  -20.4963  -13.6250 C   0  0  1  0  0  0  0  0  0  0  0  0
   21.2314  -21.2145  -14.9498 C   0  0  0  0  0  0  0  0  0  0  0  0
   19.8854  -21.0260  -16.1417 S   0  0  0  0  0  0  0  0  0  0  0  0
   19.6044  -20.9797  -13.1559 C   0  0  0  0  0  0  0  0  0  0  0  0
   18.4210  -20.2720  -13.2674 O   0  0  0  0  0  0  0  0  0  0  0  0
   19.4784  -22.1239  -12.5949 O   0  0  0  0  0  0  0  0  0  0  0  0
  2  1  1  6
  3  2  1  0
  4  3  1  0
  5  4  1  0
  5  6  2  0
  7  8  2  0
  7  2  1  0
  9  5  1  0
 11 10  1  1
 11 12  1  0
 11 13  1  0
 14 13  1  1
 14 15  1  0
 15  7  1  0
 16 14  1  0
 17 16  2  0
 18 16  1  0
 19 20  1  6
 19 18  1  0
 20 21  1  0
 22 19  1  0
 23 22  1  0
 24 22  2  0
M  END
$$$$
