ELC.pdb
     RDKit          3D

 24 23  0  0  1  0  0  0  0  0999 V2000
   25.5469  -38.5854   -8.9723 N   0  0  0  0  0  0  0  0  0  0  0  0
   24.7302  -37.9093   -7.9747 C   0  0  1  0  0  0  0  0  0  0  0  0
   24.1668  -38.8738   -6.9805 C   0  0  0  0  0  0  0  0  0  0  0  0
   22.8068  -39.3220   -7.4311 C   0  0  0  0  0  0  0  0  0  0  0  0
   21.6954  -38.5286   -6.8693 C   0  0  0  0  0  0  0  0  0  0  0  0
   21.9252  -37.8304   -5.8197 O   0  0  0  0  0  0  0  0  0  0  0  0
   25.5764  -36.8662   -7.3410 C   0  0  0  0  0  0  0  0  0  0  0  0
   26.8135  -37.0437   -7.3106 O   0  0  0  0  0  0  0  0  0  0  0  0
   20.4226  -38.4581   -7.3620 O   0  0  0  0  0  0  0  0  0  0  0  0
   27.0268  -32.8138   -8.5310 C   0  0  0  0  0  0  0  0  0  0  0  0
   25.5370  -32.8703   -8.1474 C   0  0  2  0  0  0  0  0  0  0  0  0
   24.8334  -31.6938   -8.6550 C   0  0  0  0  0  0  0  0  0  0  0  0
   25.3537  -33.3674   -6.7913 C   0  0  0  0  0  0  0  0  0  0  0  0
   25.9756  -34.5895   -6.2799 C   0  0  2  0  0  0  0  0  0  0  0  0
   25.0616  -35.6853   -6.7715 N   0  0  0  0  0  0  0  0  0  0  0  0
   25.9299  -34.7037   -4.8230 C   0  0  0  0  0  0  0  0  0  0  0  0
   24.8201  -34.6478   -4.1803 O   0  0  0  0  0  0  0  0  0  0  0  0
   27.0628  -34.8933   -3.9758 N   0  0  0  0  0  0  0  0  0  0  0  0
   26.9261  -35.0312   -2.5565 C   0  0  1  0  0  0  0  0  0  0  0  0
   28.1785  -35.8039   -2.0958 C   0  0  0  0  0  0  0  0  0  0  0  0
   28.3583  -37.3545   -3.0075 S   0  0  0  0  0  0  0  0  0  0  0  0
   26.9050  -33.7443   -1.8588 C   0  0  0  0  0  0  0  0  0  0  0  0
   26.9199  -32.5132   -2.4895 O   0  0  0  0  0  0  0  0  0  0  0  0
   26.8707  -33.6764   -0.5805 O   0  0  0  0  0  0  0  0  0  0  0  0
  2  1  1  6
  3  2  1  0
  4  3  1  0
  5  4  1  0
  5  6  2  0
  7  8  2  0
  7  2  1  0
  9  5  1  0
 11 10  1  1
 11 12  1  0
 11 13  1  0
 14 13  1  1
 14 15  1  0
 15  7  1  0
 16 14  1  0
 17 16  2  0
 18 16  1  0
 19 20  1  1
 19 18  1  0
 20 21  1  0
 22 19  1  0
 23 22  1  0
 24 22  2  0
M  END
$$$$
