ELC.pdb
     RDKit          3D

 24 23  0  0  1  0  0  0  0  0999 V2000
   21.0791  -11.9883  -18.9227 N   0  0  0  0  0  0  0  0  0  0  0  0
   20.2605  -11.7540  -17.7419 C   0  0  1  0  0  0  0  0  0  0  0  0
   19.7474  -13.0351  -17.1661 C   0  0  0  0  0  0  0  0  0  0  0  0
   20.7522  -14.1265  -17.3954 C   0  0  0  0  0  0  0  0  0  0  0  0
   20.4992  -14.9321  -18.6067 C   0  0  0  0  0  0  0  0  0  0  0  0
   19.4747  -15.7016  -18.6142 O   0  0  0  0  0  0  0  0  0  0  0  0
   21.0849  -10.9844  -16.7758 C   0  0  0  0  0  0  0  0  0  0  0  0
   20.5989  -10.7291  -15.6526 O   0  0  0  0  0  0  0  0  0  0  0  0
   21.2573  -14.9421  -19.7439 O   0  0  0  0  0  0  0  0  0  0  0  0
   26.9790  -10.3250  -16.1196 C   0  0  0  0  0  0  0  0  0  0  0  0
   25.6057  -10.1757  -15.4402 C   0  0  2  0  0  0  0  0  0  0  0  0
   25.4620  -11.1486  -14.3586 C   0  0  0  0  0  0  0  0  0  0  0  0
   24.5527   -9.9271  -16.4144 C   0  0  0  0  0  0  0  0  0  0  0  0
   23.1530   -9.6889  -16.0592 C   0  0  2  0  0  0  0  0  0  0  0  0
   22.3870  -10.5255  -17.0548 N   0  0  0  0  0  0  0  0  0  0  0  0
   22.7091   -8.3198  -16.3163 C   0  0  0  0  0  0  0  0  0  0  0  0
   22.5833   -7.8687  -17.5114 O   0  0  0  0  0  0  0  0  0  0  0  0
   22.3664   -7.3632  -15.3140 N   0  0  0  0  0  0  0  0  0  0  0  0
   21.9742   -6.0275  -15.6516 C   0  0  1  0  0  0  0  0  0  0  0  0
   20.4465   -6.0857  -15.8526 C   0  0  0  0  0  0  0  0  0  0  0  0
   19.7346   -4.4253  -15.9147 S   0  0  0  0  0  0  0  0  0  0  0  0
   22.2550   -5.0647  -14.5849 C   0  0  0  0  0  0  0  0  0  0  0  0
   22.5829   -3.7376  -14.7967 O   0  0  0  0  0  0  0  0  0  0  0  0
   22.2136   -5.4025  -13.3504 O   0  0  0  0  0  0  0  0  0  0  0  0
  2  1  1  6
  3  2  1  0
  4  3  1  0
  5  4  1  0
  5  6  2  0
  7  8  2  0
  7  2  1  0
  9  5  1  0
 11 10  1  6
 11 12  1  0
 11 13  1  0
 14 13  1  6
 14 15  1  0
 15  7  1  0
 16 14  1  0
 17 16  2  0
 18 16  1  0
 19 20  1  1
 19 18  1  0
 20 21  1  0
 22 19  1  0
 23 22  1  0
 24 22  2  0
M  END
$$$$
