ELC.pdb
     RDKit          3D

 24 23  0  0  1  0  0  0  0  0999 V2000
   28.5620  -20.8135  -17.4890 N   0  0  0  0  0  0  0  0  0  0  0  0
   27.6488  -19.9161  -16.7960 C   0  0  1  0  0  0  0  0  0  0  0  0
   26.7472  -19.2035  -17.7529 C   0  0  0  0  0  0  0  0  0  0  0  0
   27.4519  -19.0217  -19.0658 C   0  0  0  0  0  0  0  0  0  0  0  0
   28.4312  -17.9166  -19.0747 C   0  0  0  0  0  0  0  0  0  0  0  0
   29.2220  -17.8219  -20.0784 O   0  0  0  0  0  0  0  0  0  0  0  0
   26.8995  -20.7260  -15.8019 C   0  0  0  0  0  0  0  0  0  0  0  0
   26.6890  -21.9317  -16.0567 O   0  0  0  0  0  0  0  0  0  0  0  0
   28.5846  -16.9645  -18.1064 O   0  0  0  0  0  0  0  0  0  0  0  0
   25.7395  -19.9346   -9.8973 C   0  0  0  0  0  0  0  0  0  0  0  0
   25.4465  -20.9313  -11.0333 C   0  0  2  0  0  0  0  0  0  0  0  0
   25.6054  -22.3056  -10.5612 C   0  0  0  0  0  0  0  0  0  0  0  0
   25.9942  -20.4710  -12.3014 C   0  0  0  0  0  0  0  0  0  0  0  0
   25.6940  -21.0915  -13.5924 C   0  0  2  0  0  0  0  0  0  0  0  0
   26.4123  -20.2104  -14.5851 N   0  0  0  0  0  0  0  0  0  0  0  0
   24.2858  -20.9967  -13.9738 C   0  0  0  0  0  0  0  0  0  0  0  0
   23.7531  -19.8751  -14.2994 O   0  0  0  0  0  0  0  0  0  0  0  0
   23.3742  -22.0931  -14.0378 N   0  0  0  0  0  0  0  0  0  0  0  0
   21.9877  -21.9018  -14.3425 C   0  0  1  0  0  0  0  0  0  0  0  0
   21.4543  -23.2971  -14.7251 C   0  0  0  0  0  0  0  0  0  0  0  0
   19.6703  -23.2550  -15.0141 S   0  0  0  0  0  0  0  0  0  0  0  0
   21.2142  -21.4190  -13.1970 C   0  0  0  0  0  0  0  0  0  0  0  0
   20.1821  -20.5018  -13.2818 O   0  0  0  0  0  0  0  0  0  0  0  0
   21.4533  -21.8285  -12.0074 O   0  0  0  0  0  0  0  0  0  0  0  0
  2  1  1  6
  3  2  1  0
  4  3  1  0
  5  4  1  0
  5  6  2  0
  7  8  2  0
  7  2  1  0
  9  5  1  0
 11 10  1  1
 11 12  1  0
 11 13  1  0
 14 13  1  1
 14 15  1  0
 15  7  1  0
 16 14  1  0
 17 16  2  0
 18 16  1  0
 19 20  1  1
 19 18  1  0
 20 21  1  0
 22 19  1  0
 23 22  1  0
 24 22  2  0
M  END
$$$$
