ELC.pdb
     RDKit          3D

 24 23  0  0  1  0  0  0  0  0999 V2000
   19.8976  -21.1203  -12.6723 N   0  0  0  0  0  0  0  0  0  0  0  0
   20.8924  -21.6780  -13.5771 C   0  0  1  0  0  0  0  0  0  0  0  0
   20.3562  -21.8147  -14.9663 C   0  0  0  0  0  0  0  0  0  0  0  0
   19.2405  -20.8319  -15.1727 C   0  0  0  0  0  0  0  0  0  0  0  0
   17.8913  -21.4214  -15.0609 C   0  0  0  0  0  0  0  0  0  0  0  0
   17.2562  -21.6797  -16.1433 O   0  0  0  0  0  0  0  0  0  0  0  0
   22.0913  -20.8040  -13.5119 C   0  0  0  0  0  0  0  0  0  0  0  0
   21.9249  -19.5838  -13.2967 O   0  0  0  0  0  0  0  0  0  0  0  0
   17.2368  -21.7283  -13.9010 O   0  0  0  0  0  0  0  0  0  0  0  0
   24.9487  -19.9740  -10.6139 C   0  0  0  0  0  0  0  0  0  0  0  0
   25.4083  -21.2746  -11.2973 C   0  0  2  0  0  0  0  0  0  0  0  0
   26.4260  -21.9445  -10.4896 C   0  0  0  0  0  0  0  0  0  0  0  0
   25.5396  -21.1031  -12.7372 C   0  0  0  0  0  0  0  0  0  0  0  0
   24.5928  -20.3468  -13.5579 C   0  0  2  0  0  0  0  0  0  0  0  0
   23.4084  -21.2743  -13.6789 N   0  0  0  0  0  0  0  0  0  0  0  0
   25.0414  -20.1477  -14.9351 C   0  0  0  0  0  0  0  0  0  0  0  0
   24.9991  -21.0969  -15.7982 O   0  0  0  0  0  0  0  0  0  0  0  0
   25.5490  -18.9244  -15.4673 N   0  0  0  0  0  0  0  0  0  0  0  0
   25.9829  -18.8188  -16.8283 C   0  0  1  0  0  0  0  0  0  0  0  0
   26.1453  -17.3083  -17.0923 C   0  0  0  0  0  0  0  0  0  0  0  0
   25.5332  -16.8652  -18.7345 S   0  0  0  0  0  0  0  0  0  0  0  0
   27.2764  -19.4624  -17.0653 C   0  0  0  0  0  0  0  0  0  0  0  0
   27.6982  -19.9401  -18.2931 O   0  0  0  0  0  0  0  0  0  0  0  0
   28.1243  -19.6288  -16.1202 O   0  0  0  0  0  0  0  0  0  0  0  0
  2  1  1  1
  3  2  1  0
  4  3  1  0
  5  4  1  0
  5  6  2  0
  7  8  2  0
  7  2  1  0
  9  5  1  0
 11 10  1  1
 11 12  1  0
 11 13  1  0
 14 13  1  1
 14 15  1  0
 15  7  1  0
 16 14  1  0
 17 16  2  0
 18 16  1  0
 19 20  1  1
 19 18  1  0
 20 21  1  0
 22 19  1  0
 23 22  1  0
 24 22  2  0
M  END
$$$$
