AAF.pdb
     RDKit          3D

 22 22  0  0  1  0  0  0  0  0999 V2000
   23.6533  -11.6262  -20.0118 C   0  0  0  0  0  0  0  0  0  0  0  0
   22.6401  -11.2153  -18.9674 C   0  0  2  0  0  0  0  0  0  0  0  0
   21.3738  -11.8076  -19.2947 N   0  0  0  0  0  0  0  0  0  0  0  0
   22.5629   -9.7439  -18.8115 C   0  0  0  0  0  0  0  0  0  0  0  0
   23.5824   -9.1415  -18.3867 O   0  0  0  0  0  0  0  0  0  0  0  0
   20.2331   -7.0363  -19.8390 C   0  0  0  0  0  0  0  0  0  0  0  0
   21.4068   -7.5276  -18.9817 C   0  0  2  0  0  0  0  0  0  0  0  0
   21.4162   -8.9733  -19.1098 N   0  0  0  0  0  0  0  0  0  0  0  0
   21.1332   -7.0907  -17.5991 C   0  0  0  0  0  0  0  0  0  0  0  0
   20.2654   -7.6338  -16.8528 O   0  0  0  0  0  0  0  0  0  0  0  0
   21.8729   -6.0128  -17.0749 N   0  0  0  0  0  0  0  0  0  0  0  0
   21.6981   -5.5027  -15.7218 C   0  0  1  0  0  0  0  0  0  0  0  0
   23.0484   -5.5888  -15.0506 C   0  0  0  0  0  0  0  0  0  0  0  0
   23.4689   -6.9851  -14.8305 C   0  0  0  0  0  0  0  0  0  0  0  0
   22.7955   -7.7648  -13.9052 C   0  0  0  0  0  0  0  0  0  0  0  0
   23.1323   -9.0805  -13.6682 C   0  0  0  0  0  0  0  0  0  0  0  0
   24.1771   -9.6492  -14.3743 C   0  0  0  0  0  0  0  0  0  0  0  0
   24.8647   -8.9014  -15.2994 C   0  0  0  0  0  0  0  0  0  0  0  0
   24.5022   -7.5844  -15.5141 C   0  0  0  0  0  0  0  0  0  0  0  0
   21.2897   -4.0957  -15.8093 C   0  0  0  0  0  0  0  0  0  0  0  0
   20.9599   -3.3780  -14.6777 O   0  0  0  0  0  0  0  0  0  0  0  0
   21.2336   -3.5265  -16.9205 O   0  0  0  0  0  0  0  0  0  0  0  0
  2  1  1  6
  2  4  1  0
  3  2  1  0
  4  8  1  0
  4  5  2  0
  7  6  1  6
  8  7  1  0
  9  7  1  0
  9 10  2  0
 11  9  1  0
 12 11  1  0
 12 13  1  1
 13 14  1  0
 14 19  2  0
 14 15  1  0
 15 16  2  0
 16 17  1  0
 18 17  2  0
 19 18  1  0
 20 12  1  0
 21 20  1  0
 22 20  2  0
M  END
$$$$
