AAF.pdb
     RDKit          3D

 22 22  0  0  1  0  0  0  0  0999 V2000
   28.8470  -18.5098  -14.5680 C   0  0  0  0  0  0  0  0  0  0  0  0
   27.3821  -18.8165  -14.7826 C   0  0  2  0  0  0  0  0  0  0  0  0
   26.8237  -17.8175  -15.6497 N   0  0  0  0  0  0  0  0  0  0  0  0
   26.6444  -18.9446  -13.5040 C   0  0  0  0  0  0  0  0  0  0  0  0
   26.2530  -17.8900  -12.9408 O   0  0  0  0  0  0  0  0  0  0  0  0
   24.5383  -21.3254  -11.8401 C   0  0  0  0  0  0  0  0  0  0  0  0
   25.6106  -20.2483  -11.6308 C   0  0  2  0  0  0  0  0  0  0  0  0
   26.3522  -20.1768  -12.8764 N   0  0  0  0  0  0  0  0  0  0  0  0
   26.4508  -20.7005  -10.5053 C   0  0  0  0  0  0  0  0  0  0  0  0
   27.3375  -21.5992  -10.6113 O   0  0  0  0  0  0  0  0  0  0  0  0
   26.2622  -20.1053   -9.2427 N   0  0  0  0  0  0  0  0  0  0  0  0
   27.0165  -20.4854   -8.0559 C   0  0  1  0  0  0  0  0  0  0  0  0
   27.5189  -19.2033   -7.4354 C   0  0  0  0  0  0  0  0  0  0  0  0
   28.2094  -19.4421   -6.1543 C   0  0  0  0  0  0  0  0  0  0  0  0
   27.7498  -18.8239   -5.0036 C   0  0  0  0  0  0  0  0  0  0  0  0
   28.3438  -19.0213   -3.7753 C   0  0  0  0  0  0  0  0  0  0  0  0
   29.4367  -19.8640   -3.6799 C   0  0  0  0  0  0  0  0  0  0  0  0
   29.9163  -20.4922   -4.8038 C   0  0  0  0  0  0  0  0  0  0  0  0
   29.2981  -20.2734   -6.0212 C   0  0  0  0  0  0  0  0  0  0  0  0
   26.1003  -21.1493   -7.1211 C   0  0  0  0  0  0  0  0  0  0  0  0
   26.5696  -22.0314   -6.1693 O   0  0  0  0  0  0  0  0  0  0  0  0
   24.8726  -20.9226   -7.1781 O   0  0  0  0  0  0  0  0  0  0  0  0
  2  1  1  1
  2  4  1  0
  3  2  1  0
  4  8  1  0
  4  5  2  0
  7  6  1  6
  8  7  1  0
  9  7  1  0
  9 10  2  0
 11  9  1  0
 12 11  1  0
 12 13  1  1
 13 14  1  0
 14 19  2  0
 14 15  1  0
 15 16  2  0
 16 17  1  0
 18 17  2  0
 19 18  1  0
 20 12  1  0
 21 20  1  0
 22 20  2  0
M  END
$$$$
