AAF.pdb
     RDKit          3D

 22 22  0  0  1  0  0  0  0  0999 V2000
   28.5125  -18.9264  -14.7301 C   0  0  0  0  0  0  0  0  0  0  0  0
   27.0182  -19.1438  -14.8079 C   0  0  2  0  0  0  0  0  0  0  0  0
   26.4598  -18.1878  -15.7222 N   0  0  0  0  0  0  0  0  0  0  0  0
   26.3770  -19.1041  -13.4727 C   0  0  0  0  0  0  0  0  0  0  0  0
   26.4091  -18.0201  -12.8351 O   0  0  0  0  0  0  0  0  0  0  0  0
   23.8686  -20.9989  -11.6096 C   0  0  0  0  0  0  0  0  0  0  0  0
   25.1226  -20.1167  -11.5548 C   0  0  2  0  0  0  0  0  0  0  0  0
   25.7311  -20.2070  -12.8694 N   0  0  0  0  0  0  0  0  0  0  0  0
   25.9880  -20.6762  -10.4987 C   0  0  0  0  0  0  0  0  0  0  0  0
   26.6598  -21.7414  -10.6362 O   0  0  0  0  0  0  0  0  0  0  0  0
   26.0764  -19.9944   -9.2693 N   0  0  0  0  0  0  0  0  0  0  0  0
   26.8884  -20.4570   -8.1521 C   0  0  1  0  0  0  0  0  0  0  0  0
   27.4873  -19.2254   -7.5151 C   0  0  0  0  0  0  0  0  0  0  0  0
   28.1913  -19.5393   -6.2578 C   0  0  0  0  0  0  0  0  0  0  0  0
   27.7467  -18.9870   -5.0683 C   0  0  0  0  0  0  0  0  0  0  0  0
   28.3538  -19.2564   -3.8602 C   0  0  0  0  0  0  0  0  0  0  0  0
   29.4447  -20.1062   -3.8259 C   0  0  0  0  0  0  0  0  0  0  0  0
   29.9095  -20.6702   -4.9893 C   0  0  0  0  0  0  0  0  0  0  0  0
   29.2785  -20.3801   -6.1850 C   0  0  0  0  0  0  0  0  0  0  0  0
   26.0060  -21.1215   -7.1857 C   0  0  0  0  0  0  0  0  0  0  0  0
   24.6465  -20.8845   -7.1822 O   0  0  0  0  0  0  0  0  0  0  0  0
   26.4805  -21.9159   -6.3456 O   0  0  0  0  0  0  0  0  0  0  0  0
  2  1  1  1
  2  4  1  0
  3  2  1  0
  4  8  1  0
  4  5  2  0
  7  6  1  6
  8  7  1  0
  9  7  1  0
  9 10  2  0
 11  9  1  0
 12 11  1  0
 12 13  1  1
 13 14  1  0
 14 19  2  0
 14 15  1  0
 15 16  2  0
 16 17  1  0
 18 17  2  0
 19 18  1  0
 20 12  1  0
 21 20  1  0
 22 20  2  0
M  END
$$$$
