AAF.pdb
     RDKit          3D

 22 22  0  0  1  0  0  0  0  0999 V2000
   11.6109   -9.7358  -11.0987 C   0  0  0  0  0  0  0  0  0  0  0  0
   11.4629  -10.3520  -12.4714 C   0  0  2  0  0  0  0  0  0  0  0  0
   11.1976  -11.7551  -12.3213 N   0  0  0  0  0  0  0  0  0  0  0  0
   12.6343  -10.0782  -13.3366 C   0  0  0  0  0  0  0  0  0  0  0  0
   13.6452  -10.8164  -13.2113 O   0  0  0  0  0  0  0  0  0  0  0  0
   13.4207   -7.8649  -16.2347 C   0  0  0  0  0  0  0  0  0  0  0  0
   13.8672   -8.8050  -15.1074 C   0  0  2  0  0  0  0  0  0  0  0  0
   12.6883   -9.0401  -14.2941 N   0  0  0  0  0  0  0  0  0  0  0  0
   14.9281   -8.0995  -14.3631 C   0  0  0  0  0  0  0  0  0  0  0  0
   14.7151   -7.4252  -13.3120 O   0  0  0  0  0  0  0  0  0  0  0  0
   16.2508   -8.1757  -14.8415 N   0  0  0  0  0  0  0  0  0  0  0  0
   17.3647   -7.4567  -14.2382 C   0  0  1  0  0  0  0  0  0  0  0  0
   18.6268   -8.1169  -14.7405 C   0  0  0  0  0  0  0  0  0  0  0  0
   19.8385   -7.3972  -14.3059 C   0  0  0  0  0  0  0  0  0  0  0  0
   20.3328   -6.3603  -15.0793 C   0  0  0  0  0  0  0  0  0  0  0  0
   21.4513   -5.6407  -14.7163 C   0  0  0  0  0  0  0  0  0  0  0  0
   22.1084   -5.9585  -13.5412 C   0  0  0  0  0  0  0  0  0  0  0  0
   21.6422   -6.9820  -12.7520 C   0  0  0  0  0  0  0  0  0  0  0  0
   20.5175   -7.6847  -13.1438 C   0  0  0  0  0  0  0  0  0  0  0  0
   17.3247   -6.0671  -14.7091 C   0  0  0  0  0  0  0  0  0  0  0  0
   17.6980   -5.0249  -13.8853 O   0  0  0  0  0  0  0  0  0  0  0  0
   16.9467   -5.8092  -15.8720 O   0  0  0  0  0  0  0  0  0  0  0  0
  2  1  1  1
  2  4  1  0
  3  2  1  0
  4  8  1  0
  4  5  2  0
  7  6  1  6
  8  7  1  0
  9  7  1  0
  9 10  2  0
 11  9  1  0
 12 11  1  0
 12 13  1  6
 13 14  1  0
 14 19  2  0
 14 15  1  0
 15 16  2  0
 16 17  1  0
 18 17  2  0
 19 18  1  0
 20 12  1  0
 21 20  1  0
 22 20  2  0
M  END
$$$$
