AAF.pdb
     RDKit          3D

 22 22  0  0  1  0  0  0  0  0999 V2000
   14.8239  -12.6873  -16.7780 C   0  0  0  0  0  0  0  0  0  0  0  0
   15.3688  -12.4662  -18.1709 C   0  0  2  0  0  0  0  0  0  0  0  0
   16.0377  -13.6621  -18.6000 N   0  0  0  0  0  0  0  0  0  0  0  0
   16.2330  -11.2651  -18.2493 C   0  0  0  0  0  0  0  0  0  0  0  0
   17.4525  -11.3968  -17.9698 O   0  0  0  0  0  0  0  0  0  0  0  0
   15.8333   -7.7148  -19.3583 C   0  0  0  0  0  0  0  0  0  0  0  0
   16.6815   -8.8605  -18.7912 C   0  0  2  0  0  0  0  0  0  0  0  0
   15.7744   -9.9802  -18.6182 N   0  0  0  0  0  0  0  0  0  0  0  0
   17.2325   -8.3841  -17.5079 C   0  0  0  0  0  0  0  0  0  0  0  0
   16.6376   -8.5203  -16.3977 O   0  0  0  0  0  0  0  0  0  0  0  0
   18.4866   -7.7428  -17.5103 N   0  0  0  0  0  0  0  0  0  0  0  0
   19.1177   -7.2107  -16.3102 C   0  0  1  0  0  0  0  0  0  0  0  0
   20.5614   -6.9433  -16.6645 C   0  0  0  0  0  0  0  0  0  0  0  0
   21.2774   -6.2460  -15.5800 C   0  0  0  0  0  0  0  0  0  0  0  0
   21.8233   -6.9783  -14.5391 C   0  0  0  0  0  0  0  0  0  0  0  0
   22.5171   -6.3841  -13.5066 C   0  0  0  0  0  0  0  0  0  0  0  0
   22.6781   -5.0102  -13.5021 C   0  0  0  0  0  0  0  0  0  0  0  0
   22.1481   -4.2559  -14.5209 C   0  0  0  0  0  0  0  0  0  0  0  0
   21.4577   -4.8821  -15.5423 C   0  0  0  0  0  0  0  0  0  0  0  0
   18.4606   -5.9438  -15.9676 C   0  0  0  0  0  0  0  0  0  0  0  0
   18.0081   -5.0874  -16.9506 O   0  0  0  0  0  0  0  0  0  0  0  0
   18.3033   -5.6222  -14.7702 O   0  0  0  0  0  0  0  0  0  0  0  0
  2  1  1  1
  2  4  1  0
  3  2  1  0
  4  8  1  0
  4  5  2  0
  7  6  1  1
  8  7  1  0
  9  7  1  0
  9 10  2  0
 11  9  1  0
 12 11  1  0
 12 13  1  6
 13 14  1  0
 14 19  2  0
 14 15  1  0
 15 16  2  0
 16 17  1  0
 18 17  2  0
 19 18  1  0
 20 12  1  0
 21 20  1  0
 22 20  2  0
M  END
$$$$
