AAF.pdb
     RDKit          3D

 22 22  0  0  1  0  0  0  0  0999 V2000
   28.7531  -18.7452  -14.6552 C   0  0  0  0  0  0  0  0  0  0  0  0
   27.2877  -19.1064  -14.7453 C   0  0  2  0  0  0  0  0  0  0  0  0
   26.6564  -18.2384  -15.6992 N   0  0  0  0  0  0  0  0  0  0  0  0
   26.6237  -19.0841  -13.4210 C   0  0  0  0  0  0  0  0  0  0  0  0
   26.5418  -17.9815  -12.8208 O   0  0  0  0  0  0  0  0  0  0  0  0
   24.1915  -21.0707  -11.5995 C   0  0  0  0  0  0  0  0  0  0  0  0
   25.4089  -20.1422  -11.5021 C   0  0  2  0  0  0  0  0  0  0  0  0
   26.0760  -20.2233  -12.7885 N   0  0  0  0  0  0  0  0  0  0  0  0
   26.2482  -20.6583  -10.4037 C   0  0  0  0  0  0  0  0  0  0  0  0
   26.9551  -21.7055  -10.4964 O   0  0  0  0  0  0  0  0  0  0  0  0
   26.2690  -19.9538   -9.1842 N   0  0  0  0  0  0  0  0  0  0  0  0
   27.0088  -20.4013   -8.0119 C   0  0  1  0  0  0  0  0  0  0  0  0
   27.5795  -19.1624   -7.3633 C   0  0  0  0  0  0  0  0  0  0  0  0
   28.2618  -19.4676   -6.0920 C   0  0  0  0  0  0  0  0  0  0  0  0
   27.7946  -18.9100   -4.9137 C   0  0  0  0  0  0  0  0  0  0  0  0
   28.3807  -19.1712   -3.6935 C   0  0  0  0  0  0  0  0  0  0  0  0
   29.4731  -20.0179   -3.6350 C   0  0  0  0  0  0  0  0  0  0  0  0
   29.9600  -20.5869   -4.7868 C   0  0  0  0  0  0  0  0  0  0  0  0
   29.3497  -20.3050   -5.9952 C   0  0  0  0  0  0  0  0  0  0  0  0
   26.0644  -21.0403   -7.0878 C   0  0  0  0  0  0  0  0  0  0  0  0
   26.5009  -21.9221   -6.1202 O   0  0  0  0  0  0  0  0  0  0  0  0
   24.8422  -20.7922   -7.1685 O   0  0  0  0  0  0  0  0  0  0  0  0
  2  1  1  1
  2  4  1  0
  3  2  1  0
  4  8  1  0
  4  5  2  0
  7  6  1  6
  8  7  1  0
  9  7  1  0
  9 10  2  0
 11  9  1  0
 12 11  1  0
 12 13  1  1
 13 14  1  0
 14 19  2  0
 14 15  1  0
 15 16  2  0
 16 17  1  0
 18 17  2  0
 19 18  1  0
 20 12  1  0
 21 20  1  0
 22 20  2  0
M  END
$$$$
