MYV.pdb
     RDKit          3D

 28 28  0  0  1  0  0  0  0  0999 V2000
   27.9902  -19.9335   -7.3744 C   0  0  0  0  0  0  0  0  0  0  0  0
   29.1227  -20.2497   -8.7263 S   0  0  0  0  0  0  0  0  0  0  0  0
   28.3420  -21.0513  -10.1380 C   0  0  0  0  0  0  0  0  0  0  0  0
   26.9350  -20.5458  -10.3847 C   0  0  0  0  0  0  0  0  0  0  0  0
   26.3873  -21.3100  -11.5691 C   0  0  2  0  0  0  0  0  0  0  0  0
   27.3927  -21.2419  -12.6114 N   0  0  0  0  0  0  0  0  0  0  0  0
   25.1440  -20.7034  -12.1027 C   0  0  0  0  0  0  0  0  0  0  0  0
   24.1318  -20.5782  -11.3859 O   0  0  0  0  0  0  0  0  0  0  0  0
   19.9028  -16.1797  -17.6860 O   0  0  0  0  0  0  0  0  0  0  0  0
   20.9809  -16.8560  -17.0945 C   0  0  0  0  0  0  0  0  0  0  0  0
   21.7623  -16.2719  -16.1235 C   0  0  0  0  0  0  0  0  0  0  0  0
   22.8149  -16.9684  -15.5643 C   0  0  0  0  0  0  0  0  0  0  0  0
   23.1297  -18.2618  -15.9447 C   0  0  0  0  0  0  0  0  0  0  0  0
   24.2588  -19.0007  -15.3405 C   0  0  0  0  0  0  0  0  0  0  0  0
   23.8710  -19.5947  -13.9820 C   0  0  2  0  0  0  0  0  0  0  0  0
   25.0430  -20.2366  -13.4500 N   0  0  0  0  0  0  0  0  0  0  0  0
   22.7595  -20.5550  -14.2172 C   0  0  0  0  0  0  0  0  0  0  0  0
   22.9799  -21.5965  -14.8870 O   0  0  0  0  0  0  0  0  0  0  0  0
   22.3325  -18.8411  -16.9269 C   0  0  0  0  0  0  0  0  0  0  0  0
   21.2849  -18.1415  -17.4803 C   0  0  0  0  0  0  0  0  0  0  0  0
   18.8613  -22.8680  -12.8833 C   0  0  0  0  0  0  0  0  0  0  0  0
   20.0538  -21.9762  -12.6137 C   0  0  2  0  0  0  0  0  0  0  0  0
   19.7098  -21.0329  -11.5064 C   0  0  0  0  0  0  0  0  0  0  0  0
   20.4044  -21.2767  -13.9096 C   0  0  2  0  0  0  0  0  0  0  0  0
   21.4653  -20.3147  -13.7009 N   0  0  0  0  0  0  0  0  0  0  0  0
   19.2197  -20.6587  -14.5499 C   0  0  0  0  0  0  0  0  0  0  0  0
   18.2080  -21.3162  -14.8914 O   0  0  0  0  0  0  0  0  0  0  0  0
   19.2313  -19.2929  -14.7812 O   0  0  0  0  0  0  0  0  0  0  0  0
  1  2  1  0
  2  3  1  0
  4  3  1  0
  4  5  1  0
  5  6  1  6
  7  8  2  0
  7  5  1  0
  9 10  1  0
 10 11  2  0
 11 12  1  0
 13 14  1  0
 13 12  2  0
 15 14  1  6
 15 16  1  0
 16  7  1  0
 17 15  1  0
 18 17  2  0
 19 13  1  0
 20 19  2  0
 20 10  1  0
 22 24  1  0
 22 21  1  6
 23 22  1  0
 24 25  1  1
 25 17  1  0
 26 28  1  0
 26 24  1  0
 27 26  2  0
M  END
$$$$
