MYV.pdb
     RDKit          3D

 28 28  0  0  1  0  0  0  0  0999 V2000
   26.3624  -12.5104  -19.2276 C   0  0  0  0  0  0  0  0  0  0  0  0
   25.9147  -14.2446  -19.1774 S   0  0  0  0  0  0  0  0  0  0  0  0
   24.4804  -14.5812  -18.1411 C   0  0  0  0  0  0  0  0  0  0  0  0
   24.0318  -16.0262  -18.2263 C   0  0  0  0  0  0  0  0  0  0  0  0
   25.0872  -16.8626  -17.5383 C   0  0  2  0  0  0  0  0  0  0  0  0
   26.1123  -17.1370  -18.5262 N   0  0  0  0  0  0  0  0  0  0  0  0
   24.5544  -18.1642  -17.0690 C   0  0  0  0  0  0  0  0  0  0  0  0
   24.1463  -19.0202  -17.8781 O   0  0  0  0  0  0  0  0  0  0  0  0
   29.3973  -22.5243  -16.9499 O   0  0  0  0  0  0  0  0  0  0  0  0
   28.2794  -22.0050  -16.2789 C   0  0  0  0  0  0  0  0  0  0  0  0
   27.1144  -22.7248  -16.1401 C   0  0  0  0  0  0  0  0  0  0  0  0
   26.0349  -22.1808  -15.4732 C   0  0  0  0  0  0  0  0  0  0  0  0
   26.0704  -20.9110  -14.9228 C   0  0  0  0  0  0  0  0  0  0  0  0
   24.9096  -20.3359  -14.2100 C   0  0  0  0  0  0  0  0  0  0  0  0
   23.9037  -19.7225  -15.1901 C   0  0  2  0  0  0  0  0  0  0  0  0
   24.4820  -18.5007  -15.6815 N   0  0  0  0  0  0  0  0  0  0  0  0
   22.6399  -19.4873  -14.4415 C   0  0  0  0  0  0  0  0  0  0  0  0
   22.6734  -18.8219  -13.3747 O   0  0  0  0  0  0  0  0  0  0  0  0
   27.2534  -20.1936  -15.0698 C   0  0  0  0  0  0  0  0  0  0  0  0
   28.3257  -20.7416  -15.7356 C   0  0  0  0  0  0  0  0  0  0  0  0
   18.8565  -19.6311  -16.1841 C   0  0  0  0  0  0  0  0  0  0  0  0
   19.2268  -18.9127  -14.9048 C   0  0  2  0  0  0  0  0  0  0  0  0
   19.7947  -17.5739  -15.2507 C   0  0  0  0  0  0  0  0  0  0  0  0
   20.1945  -19.7965  -14.1472 C   0  0  2  0  0  0  0  0  0  0  0  0
   21.4077  -19.9984  -14.9101 N   0  0  0  0  0  0  0  0  0  0  0  0
   19.5788  -21.0820  -13.7428 C   0  0  0  0  0  0  0  0  0  0  0  0
   19.8707  -22.1770  -14.2796 O   0  0  0  0  0  0  0  0  0  0  0  0
   18.6383  -21.0727  -12.7257 O   0  0  0  0  0  0  0  0  0  0  0  0
  1  2  1  0
  2  3  1  0
  4  3  1  0
  4  5  1  0
  5  6  1  6
  7  8  2  0
  7  5  1  0
  9 10  1  0
 10 11  2  0
 11 12  1  0
 13 14  1  0
 13 12  2  0
 15 14  1  1
 15 16  1  0
 16  7  1  0
 17 15  1  0
 18 17  2  0
 19 13  1  0
 20 19  2  0
 20 10  1  0
 22 24  1  0
 22 21  1  6
 23 22  1  0
 24 25  1  6
 25 17  1  0
 26 28  1  0
 26 24  1  0
 27 26  2  0
M  END
$$$$
