MYV.pdb
     RDKit          3D

 28 28  0  0  1  0  0  0  0  0999 V2000
   32.7409  -22.2052   -9.2360 C   0  0  0  0  0  0  0  0  0  0  0  0
   32.7624  -22.6737  -10.9653 S   0  0  0  0  0  0  0  0  0  0  0  0
   31.1534  -22.5322  -11.7626 C   0  0  0  0  0  0  0  0  0  0  0  0
   30.4376  -21.2477  -11.3964 C   0  0  0  0  0  0  0  0  0  0  0  0
   29.0348  -21.3441  -11.9529 C   0  0  2  0  0  0  0  0  0  0  0  0
   29.0464  -20.6666  -13.2346 N   0  0  0  0  0  0  0  0  0  0  0  0
   28.0406  -20.6602  -11.0912 C   0  0  0  0  0  0  0  0  0  0  0  0
   27.8186  -19.4395  -11.2114 O   0  0  0  0  0  0  0  0  0  0  0  0
   22.2503  -19.6246  -13.7503 O   0  0  0  0  0  0  0  0  0  0  0  0
   22.9444  -20.0233  -12.5976 C   0  0  0  0  0  0  0  0  0  0  0  0
   22.7925  -19.3720  -11.3945 C   0  0  0  0  0  0  0  0  0  0  0  0
   23.4923  -19.7931  -10.2814 C   0  0  0  0  0  0  0  0  0  0  0  0
   24.3631  -20.8686  -10.3198 C   0  0  0  0  0  0  0  0  0  0  0  0
   25.1086  -21.3130   -9.1228 C   0  0  0  0  0  0  0  0  0  0  0  0
   26.5111  -20.6966   -9.0810 C   0  0  2  0  0  0  0  0  0  0  0  0
   27.2945  -21.3569  -10.0905 N   0  0  0  0  0  0  0  0  0  0  0  0
   27.0531  -20.9163   -7.7131 C   0  0  0  0  0  0  0  0  0  0  0  0
   27.0728  -22.0818   -7.2408 O   0  0  0  0  0  0  0  0  0  0  0  0
   24.5079  -21.5185  -11.5414 C   0  0  0  0  0  0  0  0  0  0  0  0
   23.8076  -21.0939  -12.6471 C   0  0  0  0  0  0  0  0  0  0  0  0
   28.6402  -17.7132   -5.3445 C   0  0  0  0  0  0  0  0  0  0  0  0
   29.1650  -19.1303   -5.2655 C   0  0  2  0  0  0  0  0  0  0  0  0
   30.3230  -19.2685   -6.2005 C   0  0  0  0  0  0  0  0  0  0  0  0
   28.0173  -20.0622   -5.5911 C   0  0  2  0  0  0  0  0  0  0  0  0
   27.5439  -19.8387   -6.9404 N   0  0  0  0  0  0  0  0  0  0  0  0
   26.9200  -19.9656   -4.6002 C   0  0  0  0  0  0  0  0  0  0  0  0
   25.7819  -19.5220   -4.8837 O   0  0  0  0  0  0  0  0  0  0  0  0
   27.1634  -20.3845   -3.3024 O   0  0  0  0  0  0  0  0  0  0  0  0
  1  2  1  0
  2  3  1  0
  4  3  1  0
  4  5  1  0
  5  6  1  6
  7  8  2  0
  7  5  1  0
  9 10  1  0
 10 11  2  0
 11 12  1  0
 13 14  1  0
 13 12  2  0
 15 14  1  1
 15 16  1  0
 16  7  1  0
 17 15  1  0
 18 17  2  0
 19 13  1  0
 20 19  2  0
 20 10  1  0
 22 24  1  0
 22 21  1  6
 23 22  1  0
 24 25  1  6
 25 17  1  0
 26 28  1  0
 26 24  1  0
 27 26  2  0
M  END
$$$$
