MYV.pdb
     RDKit          3D

 28 28  0  0  1  0  0  0  0  0999 V2000
   26.1371  -19.9769  -20.9337 C   0  0  0  0  0  0  0  0  0  0  0  0
   27.7980  -20.6340  -21.0748 S   0  0  0  0  0  0  0  0  0  0  0  0
   28.4577  -21.2462  -19.5144 C   0  0  0  0  0  0  0  0  0  0  0  0
   27.3668  -21.5846  -18.5186 C   0  0  0  0  0  0  0  0  0  0  0  0
   28.0476  -21.9695  -17.2243 C   0  0  2  0  0  0  0  0  0  0  0  0
   28.7060  -23.2395  -17.4601 N   0  0  0  0  0  0  0  0  0  0  0  0
   27.0807  -22.1625  -16.1169 C   0  0  0  0  0  0  0  0  0  0  0  0
   26.5682  -23.2778  -15.8992 O   0  0  0  0  0  0  0  0  0  0  0  0
   23.1013  -20.9620   -8.3346 O   0  0  0  0  0  0  0  0  0  0  0  0
   23.8934  -20.8129   -9.4835 C   0  0  0  0  0  0  0  0  0  0  0  0
   25.1660  -21.3316   -9.5626 C   0  0  0  0  0  0  0  0  0  0  0  0
   25.9159  -21.1649  -10.7097 C   0  0  0  0  0  0  0  0  0  0  0  0
   25.4349  -20.4820  -11.8137 C   0  0  0  0  0  0  0  0  0  0  0  0
   26.2447  -20.3081  -13.0384 C   0  0  0  0  0  0  0  0  0  0  0  0
   25.7799  -21.2539  -14.1511 C   0  0  2  0  0  0  0  0  0  0  0  0
   26.6911  -21.0929  -15.2523 N   0  0  0  0  0  0  0  0  0  0  0  0
   24.3883  -20.8694  -14.5096 C   0  0  0  0  0  0  0  0  0  0  0  0
   24.1696  -19.7218  -14.9757 O   0  0  0  0  0  0  0  0  0  0  0  0
   24.1475  -19.9626  -11.7213 C   0  0  0  0  0  0  0  0  0  0  0  0
   23.4053  -20.1322  -10.5752 C   0  0  0  0  0  0  0  0  0  0  0  0
   21.4556  -23.5709  -15.6447 C   0  0  0  0  0  0  0  0  0  0  0  0
   21.5188  -22.0903  -15.9509 C   0  0  2  0  0  0  0  0  0  0  0  0
   22.4397  -21.8763  -17.1088 C   0  0  0  0  0  0  0  0  0  0  0  0
   21.9660  -21.3810  -14.6906 C   0  0  2  0  0  0  0  0  0  0  0  0
   23.3135  -21.7712  -14.3346 N   0  0  0  0  0  0  0  0  0  0  0  0
   21.0199  -21.5845  -13.5686 C   0  0  0  0  0  0  0  0  0  0  0  0
   19.8686  -21.0880  -13.5484 O   0  0  0  0  0  0  0  0  0  0  0  0
   21.4266  -22.3583  -12.4940 O   0  0  0  0  0  0  0  0  0  0  0  0
  1  2  1  0
  2  3  1  0
  4  3  1  0
  4  5  1  0
  5  6  1  6
  7  8  2  0
  7  5  1  0
  9 10  1  0
 10 11  2  0
 11 12  1  0
 13 14  1  0
 13 12  2  0
 15 14  1  1
 15 16  1  0
 16  7  1  0
 17 15  1  0
 18 17  2  0
 19 13  1  0
 20 19  2  0
 20 10  1  0
 22 24  1  0
 22 21  1  1
 23 22  1  0
 24 25  1  1
 25 17  1  0
 26 28  1  0
 26 24  1  0
 27 26  2  0
M  END
$$$$
