MYV.pdb
     RDKit          3D

 28 28  0  0  1  0  0  0  0  0999 V2000
   31.9555  -21.1800  -10.1211 C   0  0  0  0  0  0  0  0  0  0  0  0
   32.5561  -22.1342  -11.5135 S   0  0  0  0  0  0  0  0  0  0  0  0
   31.4146  -22.1587  -12.9068 C   0  0  0  0  0  0  0  0  0  0  0  0
   30.2734  -21.1765  -12.7366 C   0  0  0  0  0  0  0  0  0  0  0  0
   29.4677  -21.2021  -14.0160 C   0  0  2  0  0  0  0  0  0  0  0  0
   30.2004  -20.4131  -14.9869 N   0  0  0  0  0  0  0  0  0  0  0  0
   28.1305  -20.5835  -13.8502 C   0  0  0  0  0  0  0  0  0  0  0  0
   28.0002  -19.3458  -13.7777 O   0  0  0  0  0  0  0  0  0  0  0  0
   19.4266  -19.3669  -13.1744 O   0  0  0  0  0  0  0  0  0  0  0  0
   20.7032  -19.8479  -13.5040 C   0  0  0  0  0  0  0  0  0  0  0  0
   20.9169  -20.6546  -14.5986 C   0  0  0  0  0  0  0  0  0  0  0  0
   22.1873  -21.1088  -14.8915 C   0  0  0  0  0  0  0  0  0  0  0  0
   23.2858  -20.7820  -14.1149 C   0  0  0  0  0  0  0  0  0  0  0  0
   24.6430  -21.2727  -14.4359 C   0  0  0  0  0  0  0  0  0  0  0  0
   25.6601  -20.8247  -13.3805 C   0  0  2  0  0  0  0  0  0  0  0  0
   26.9363  -21.3647  -13.7659 N   0  0  0  0  0  0  0  0  0  0  0  0
   25.1989  -21.3495  -12.0671 C   0  0  0  0  0  0  0  0  0  0  0  0
   24.9366  -22.5743  -11.9537 O   0  0  0  0  0  0  0  0  0  0  0  0
   23.0567  -19.9661  -13.0115 C   0  0  0  0  0  0  0  0  0  0  0  0
   21.7881  -19.5168  -12.7250 C   0  0  0  0  0  0  0  0  0  0  0  0
   25.5250  -19.1210   -8.4490 C   0  0  0  0  0  0  0  0  0  0  0  0
   25.5676  -20.6286   -8.5730 C   0  0  2  0  0  0  0  0  0  0  0  0
   26.9778  -21.0514   -8.8319 C   0  0  0  0  0  0  0  0  0  0  0  0
   24.6110  -21.0242   -9.6775 C   0  0  2  0  0  0  0  0  0  0  0  0
   25.0521  -20.4950  -10.9502 N   0  0  0  0  0  0  0  0  0  0  0  0
   23.2142  -20.6342   -9.3740 C   0  0  0  0  0  0  0  0  0  0  0  0
   22.6099  -19.7258   -9.9922 O   0  0  0  0  0  0  0  0  0  0  0  0
   22.5467  -21.3037   -8.3615 O   0  0  0  0  0  0  0  0  0  0  0  0
  1  2  1  0
  2  3  1  0
  4  3  1  0
  4  5  1  0
  5  6  1  6
  7  8  2  0
  7  5  1  0
  9 10  1  0
 10 11  2  0
 11 12  1  0
 13 14  1  0
 13 12  2  0
 15 14  1  6
 15 16  1  0
 16  7  1  0
 17 15  1  0
 18 17  2  0
 19 13  1  0
 20 19  2  0
 20 10  1  0
 22 24  1  0
 22 21  1  6
 23 22  1  0
 24 25  1  6
 25 17  1  0
 26 28  1  0
 26 24  1  0
 27 26  2  0
M  END
$$$$
