MYV.pdb
     RDKit          3D

 28 28  0  0  1  0  0  0  0  0999 V2000
   27.0621  -18.0682   -7.7240 C   0  0  0  0  0  0  0  0  0  0  0  0
   26.4762  -19.5879   -6.9775 S   0  0  0  0  0  0  0  0  0  0  0  0
   26.1517  -20.8925   -8.1764 C   0  0  0  0  0  0  0  0  0  0  0  0
   25.9046  -20.3494   -9.5693 C   0  0  0  0  0  0  0  0  0  0  0  0
   25.7762  -21.5377  -10.4956 C   0  0  2  0  0  0  0  0  0  0  0  0
   27.1026  -22.1072  -10.6309 N   0  0  0  0  0  0  0  0  0  0  0  0
   25.3138  -21.1473  -11.8492 C   0  0  0  0  0  0  0  0  0  0  0  0
   26.1132  -21.0663  -12.8022 O   0  0  0  0  0  0  0  0  0  0  0  0
   19.5168  -19.5932  -18.4218 O   0  0  0  0  0  0  0  0  0  0  0  0
   20.1156  -19.7971  -17.1690 C   0  0  0  0  0  0  0  0  0  0  0  0
   20.5329  -21.0419  -16.7555 C   0  0  0  0  0  0  0  0  0  0  0  0
   21.1181  -21.2040  -15.5157 C   0  0  0  0  0  0  0  0  0  0  0  0
   21.3099  -20.1446  -14.6454 C   0  0  0  0  0  0  0  0  0  0  0  0
   21.9376  -20.3270  -13.3193 C   0  0  0  0  0  0  0  0  0  0  0  0
   23.4479  -20.5545  -13.4457 C   0  0  2  0  0  0  0  0  0  0  0  0
   23.9441  -20.8474  -12.1279 N   0  0  0  0  0  0  0  0  0  0  0  0
   24.0397  -19.3107  -14.0078 C   0  0  0  0  0  0  0  0  0  0  0  0
   23.8534  -18.2189  -13.4118 O   0  0  0  0  0  0  0  0  0  0  0  0
   20.8839  -18.8916  -15.0748 C   0  0  0  0  0  0  0  0  0  0  0  0
   20.3014  -18.7368  -16.3117 C   0  0  0  0  0  0  0  0  0  0  0  0
   27.2324  -19.3808  -16.7219 C   0  0  0  0  0  0  0  0  0  0  0  0
   26.9041  -18.2465  -15.7755 C   0  0  2  0  0  0  0  0  0  0  0  0
   27.5294  -18.5302  -14.4477 C   0  0  0  0  0  0  0  0  0  0  0  0
   25.3966  -18.1234  -15.7140 C   0  0  2  0  0  0  0  0  0  0  0  0
   24.8048  -19.3386  -15.1964 N   0  0  0  0  0  0  0  0  0  0  0  0
   24.8129  -17.7408  -17.0210 C   0  0  0  0  0  0  0  0  0  0  0  0
   24.9873  -16.6137  -17.5423 O   0  0  0  0  0  0  0  0  0  0  0  0
   24.0397  -18.6707  -17.6966 O   0  0  0  0  0  0  0  0  0  0  0  0
  1  2  1  0
  2  3  1  0
  4  3  1  0
  4  5  1  0
  5  6  1  6
  7  8  2  0
  7  5  1  0
  9 10  1  0
 10 11  2  0
 11 12  1  0
 13 14  1  0
 13 12  2  0
 15 14  1  1
 15 16  1  0
 16  7  1  0
 17 15  1  0
 18 17  2  0
 19 13  1  0
 20 19  2  0
 20 10  1  0
 22 24  1  0
 22 21  1  6
 23 22  1  0
 24 25  1  6
 25 17  1  0
 26 28  1  0
 26 24  1  0
 27 26  2  0
M  END
$$$$
