MYV.pdb
     RDKit          3D

 28 28  0  0  1  0  0  0  0  0999 V2000
   23.2191  -18.3854  -18.9183 C   0  0  0  0  0  0  0  0  0  0  0  0
   23.0908  -19.6487  -20.1823 S   0  0  0  0  0  0  0  0  0  0  0  0
   21.7370  -20.8034  -19.9020 C   0  0  0  0  0  0  0  0  0  0  0  0
   20.9120  -20.4421  -18.6833 C   0  0  0  0  0  0  0  0  0  0  0  0
   19.9151  -21.5593  -18.4719 C   0  0  2  0  0  0  0  0  0  0  0  0
   18.8332  -21.3372  -19.4113 N   0  0  0  0  0  0  0  0  0  0  0  0
   19.3361  -21.5447  -17.1070 C   0  0  0  0  0  0  0  0  0  0  0  0
   18.3924  -20.7831  -16.8180 O   0  0  0  0  0  0  0  0  0  0  0  0
   17.3838  -23.9557   -8.8270 O   0  0  0  0  0  0  0  0  0  0  0  0
   17.7459  -23.8998  -10.1817 C   0  0  0  0  0  0  0  0  0  0  0  0
   16.8189  -23.6768  -11.1744 C   0  0  0  0  0  0  0  0  0  0  0  0
   17.2125  -23.6284  -12.4968 C   0  0  0  0  0  0  0  0  0  0  0  0
   18.5316  -23.7983  -12.8814 C   0  0  0  0  0  0  0  0  0  0  0  0
   18.9446  -23.7448  -14.3000 C   0  0  0  0  0  0  0  0  0  0  0  0
   19.3603  -22.3263  -14.7048 C   0  0  2  0  0  0  0  0  0  0  0  0
   19.8242  -22.3926  -16.0647 N   0  0  0  0  0  0  0  0  0  0  0  0
   20.4279  -21.8903  -13.7652 C   0  0  0  0  0  0  0  0  0  0  0  0
   21.5370  -22.4833  -13.7788 O   0  0  0  0  0  0  0  0  0  0  0  0
   19.4589  -24.0229  -11.8688 C   0  0  0  0  0  0  0  0  0  0  0  0
   19.0601  -24.0700  -10.5528 C   0  0  0  0  0  0  0  0  0  0  0  0
   20.0184  -18.4817  -11.1470 C   0  0  0  0  0  0  0  0  0  0  0  0
   21.3171  -18.9455  -11.7702 C   0  0  2  0  0  0  0  0  0  0  0  0
   21.5084  -18.2347  -13.0712 C   0  0  0  0  0  0  0  0  0  0  0  0
   21.2435  -20.4505  -11.9148 C   0  0  2  0  0  0  0  0  0  0  0  0
   20.2146  -20.8238  -12.8617 N   0  0  0  0  0  0  0  0  0  0  0  0
   21.0631  -21.1296  -10.6104 C   0  0  0  0  0  0  0  0  0  0  0  0
   19.9655  -21.6064  -10.2355 O   0  0  0  0  0  0  0  0  0  0  0  0
   22.1567  -21.2423   -9.7677 O   0  0  0  0  0  0  0  0  0  0  0  0
  1  2  1  0
  2  3  1  0
  4  3  1  0
  4  5  1  0
  5  6  1  6
  7  8  2  0
  7  5  1  0
  9 10  1  0
 10 11  2  0
 11 12  1  0
 13 14  1  0
 13 12  2  0
 15 14  1  1
 15 16  1  0
 16  7  1  0
 17 15  1  0
 18 17  2  0
 19 13  1  0
 20 19  2  0
 20 10  1  0
 22 24  1  0
 22 21  1  6
 23 22  1  0
 24 25  1  6
 25 17  1  0
 26 28  1  0
 26 24  1  0
 27 26  2  0
M  END
$$$$
