MYV.pdb
     RDKit          3D

 28 28  0  0  1  0  0  0  0  0999 V2000
   23.0828  -28.5319  -24.5801 C   0  0  0  0  0  0  0  0  0  0  0  0
   24.6324  -29.3794  -24.8811 S   0  0  0  0  0  0  0  0  0  0  0  0
   25.6033  -29.6427  -23.3868 C   0  0  0  0  0  0  0  0  0  0  0  0
   24.7365  -29.7894  -22.1525 C   0  0  0  0  0  0  0  0  0  0  0  0
   25.6626  -29.8174  -20.9574 C   0  0  2  0  0  0  0  0  0  0  0  0
   26.4026  -31.0620  -21.0315 N   0  0  0  0  0  0  0  0  0  0  0  0
   24.9223  -29.8098  -19.6728 C   0  0  0  0  0  0  0  0  0  0  0  0
   24.4148  -30.8537  -19.2180 O   0  0  0  0  0  0  0  0  0  0  0  0
   28.4047  -32.6595  -15.4330 O   0  0  0  0  0  0  0  0  0  0  0  0
   27.5466  -31.5804  -15.6956 C   0  0  0  0  0  0  0  0  0  0  0  0
   26.2655  -31.5306  -15.1947 C   0  0  0  0  0  0  0  0  0  0  0  0
   25.4499  -30.4523  -15.4744 C   0  0  0  0  0  0  0  0  0  0  0  0
   25.8718  -29.3904  -16.2560 C   0  0  0  0  0  0  0  0  0  0  0  0
   24.9918  -28.2394  -16.5505 C   0  0  0  0  0  0  0  0  0  0  0  0
   24.0025  -28.5691  -17.6737 C   0  0  2  0  0  0  0  0  0  0  0  0
   24.7541  -28.6197  -18.8990 N   0  0  0  0  0  0  0  0  0  0  0  0
   22.9719  -27.4965  -17.6880 C   0  0  0  0  0  0  0  0  0  0  0  0
   23.2621  -26.3732  -18.1739 O   0  0  0  0  0  0  0  0  0  0  0  0
   27.1685  -29.4526  -16.7562 C   0  0  0  0  0  0  0  0  0  0  0  0
   27.9764  -30.5301  -16.4738 C   0  0  0  0  0  0  0  0  0  0  0  0
   18.8632  -28.2183  -17.3441 C   0  0  0  0  0  0  0  0  0  0  0  0
   19.4897  -26.9741  -17.9352 C   0  0  2  0  0  0  0  0  0  0  0  0
   19.7981  -27.2273  -19.3757 C   0  0  0  0  0  0  0  0  0  0  0  0
   20.7142  -26.6418  -17.1096 C   0  0  2  0  0  0  0  0  0  0  0  0
   21.6773  -27.7207  -17.1658 N   0  0  0  0  0  0  0  0  0  0  0  0
   20.3679  -26.2859  -15.7137 C   0  0  0  0  0  0  0  0  0  0  0  0
   20.5397  -27.0669  -14.7478 O   0  0  0  0  0  0  0  0  0  0  0  0
   19.8302  -25.0336  -15.4654 O   0  0  0  0  0  0  0  0  0  0  0  0
  1  2  1  0
  2  3  1  0
  4  3  1  0
  4  5  1  0
  5  6  1  6
  7  8  2  0
  7  5  1  0
  9 10  1  0
 10 11  2  0
 11 12  1  0
 13 14  1  0
 13 12  2  0
 15 14  1  1
 15 16  1  0
 16  7  1  0
 17 15  1  0
 18 17  2  0
 19 13  1  0
 20 19  2  0
 20 10  1  0
 22 24  1  0
 22 21  1  1
 23 22  1  0
 24 25  1  1
 25 17  1  0
 26 28  1  0
 26 24  1  0
 27 26  2  0
M  END
$$$$
