MYV.pdb
     RDKit          3D

 28 28  0  0  1  0  0  0  0  0999 V2000
   24.3621   -8.9752  -25.0778 C   0  0  0  0  0  0  0  0  0  0  0  0
   23.6644  -10.6097  -24.8497 S   0  0  0  0  0  0  0  0  0  0  0  0
   23.8854  -11.2532  -23.1819 C   0  0  0  0  0  0  0  0  0  0  0  0
   22.8949  -10.6632  -22.1985 C   0  0  0  0  0  0  0  0  0  0  0  0
   23.2799  -11.1615  -20.8237 C   0  0  2  0  0  0  0  0  0  0  0  0
   23.0723  -12.5964  -20.8261 N   0  0  0  0  0  0  0  0  0  0  0  0
   22.4257  -10.5848  -19.7577 C   0  0  0  0  0  0  0  0  0  0  0  0
   21.2382  -10.9399  -19.6242 O   0  0  0  0  0  0  0  0  0  0  0  0
   19.8649   -8.0438  -11.8383 O   0  0  0  0  0  0  0  0  0  0  0  0
   20.6214   -8.3655  -12.9758 C   0  0  0  0  0  0  0  0  0  0  0  0
   21.4848   -7.4634  -13.5549 C   0  0  0  0  0  0  0  0  0  0  0  0
   22.2128   -7.8158  -14.6737 C   0  0  0  0  0  0  0  0  0  0  0  0
   22.1123   -9.0677  -15.2561 C   0  0  0  0  0  0  0  0  0  0  0  0
   22.8957   -9.4369  -16.4543 C   0  0  0  0  0  0  0  0  0  0  0  0
   22.1397   -9.0899  -17.7415 C   0  0  2  0  0  0  0  0  0  0  0  0
   22.9137   -9.6041  -18.8393 N   0  0  0  0  0  0  0  0  0  0  0  0
   22.0032   -7.6094  -17.7920 C   0  0  0  0  0  0  0  0  0  0  0  0
   23.0341   -6.9027  -17.9325 O   0  0  0  0  0  0  0  0  0  0  0  0
   21.2363   -9.9704  -14.6615 C   0  0  0  0  0  0  0  0  0  0  0  0
   20.5136   -9.6130  -13.5465 C   0  0  0  0  0  0  0  0  0  0  0  0
   18.2778   -5.7103  -18.4491 C   0  0  0  0  0  0  0  0  0  0  0  0
   19.6288   -5.1571  -18.8475 C   0  0  2  0  0  0  0  0  0  0  0  0
   19.9855   -5.6836  -20.2003 C   0  0  0  0  0  0  0  0  0  0  0  0
   20.6191   -5.5489  -17.7717 C   0  0  2  0  0  0  0  0  0  0  0  0
   20.7374   -6.9887  -17.6851 N   0  0  0  0  0  0  0  0  0  0  0  0
   20.2884   -4.9443  -16.4601 C   0  0  0  0  0  0  0  0  0  0  0  0
   19.7630   -5.5918  -15.5234 O   0  0  0  0  0  0  0  0  0  0  0  0
   20.5728   -3.6033  -16.2605 O   0  0  0  0  0  0  0  0  0  0  0  0
  1  2  1  0
  2  3  1  0
  4  3  1  0
  4  5  1  0
  5  6  1  6
  7  8  2  0
  7  5  1  0
  9 10  1  0
 10 11  2  0
 11 12  1  0
 13 14  1  0
 13 12  2  0
 15 14  1  1
 15 16  1  0
 16  7  1  0
 17 15  1  0
 18 17  2  0
 19 13  1  0
 20 19  2  0
 20 10  1  0
 22 24  1  0
 22 21  1  1
 23 22  1  0
 24 25  1  1
 25 17  1  0
 26 28  1  0
 26 24  1  0
 27 26  2  0
M  END
$$$$
