GSV.pdb
     RDKit          3D

 18 17  0  0  1  0  0  0  0  0999 V2000
   10.2600  -16.8882   19.5579 N   0  0  0  0  0  0  0  0  0  0  0  0
   10.6731  -17.4290   20.7981 C   0  0  0  0  0  0  0  0  0  0  0  0
   10.0201  -16.8567   21.9845 C   0  0  0  0  0  0  0  0  0  0  0  0
   10.0832  -15.6170   22.1544 O   0  0  0  0  0  0  0  0  0  0  0  0
    7.9818  -19.1128   25.0069 O   0  0  0  0  0  0  0  0  0  0  0  0
    7.5166  -17.8574   24.6181 C   0  0  0  0  0  0  0  0  0  0  0  0
    8.5958  -17.0020   24.0242 C   0  0  2  0  0  0  0  0  0  0  0  0
    9.3177  -17.6043   22.9610 N   0  0  0  0  0  0  0  0  0  0  0  0
    9.5434  -16.6518   25.1142 C   0  0  0  0  0  0  0  0  0  0  0  0
   10.6720  -17.1760   25.1824 O   0  0  0  0  0  0  0  0  0  0  0  0
    8.3587  -13.8639   28.2846 C   0  0  0  0  0  0  0  0  0  0  0  0
    9.7649  -13.9794   27.7799 C   0  0  1  0  0  0  0  0  0  0  0  0
   10.7134  -13.7050   28.9113 C   0  0  0  0  0  0  0  0  0  0  0  0
   10.0673  -15.3483   27.2152 C   0  0  2  0  0  0  0  0  0  0  0  0
    9.1825  -15.6926   26.1266 N   0  0  0  0  0  0  0  0  0  0  0  0
   10.0238  -16.4039   28.2349 C   0  0  0  0  0  0  0  0  0  0  0  0
    9.0422  -17.1719   28.3287 O   0  0  0  0  0  0  0  0  0  0  0  0
   11.0712  -16.5943   29.1386 O   0  0  0  0  0  0  0  0  0  0  0  0
  2  3  1  0
  2  1  1  0
  3  4  2  0
  6  5  1  0
  7  6  1  1
  7  9  1  0
  8  7  1  0
  8  3  1  0
  9 15  1  0
 10  9  2  0
 12 11  1  1
 12 14  1  0
 13 12  1  0
 14 16  1  0
 14 15  1  6
 16 17  2  0
 16 18  1  0
M  END
$$$$
