GSV.pdb
     RDKit          3D

 18 17  0  0  1  0  0  0  0  0999 V2000
   12.6474  -17.1858   21.1342 N   0  0  0  0  0  0  0  0  0  0  0  0
   11.2464  -17.3553   21.2333 C   0  0  0  0  0  0  0  0  0  0  0  0
   10.5158  -16.2292   21.8329 C   0  0  0  0  0  0  0  0  0  0  0  0
   11.1610  -15.4047   22.5212 O   0  0  0  0  0  0  0  0  0  0  0  0
    6.3624  -15.6239   21.3527 O   0  0  0  0  0  0  0  0  0  0  0  0
    7.1585  -14.5223   21.6628 C   0  0  0  0  0  0  0  0  0  0  0  0
    8.4545  -14.9121   22.3088 C   0  0  2  0  0  0  0  0  0  0  0  0
    9.1253  -16.0004   21.6923 N   0  0  0  0  0  0  0  0  0  0  0  0
    8.1647  -15.2622   23.7237 C   0  0  0  0  0  0  0  0  0  0  0  0
    8.2161  -16.4423   24.1209 O   0  0  0  0  0  0  0  0  0  0  0  0
    8.0760  -12.2482   26.7525 C   0  0  0  0  0  0  0  0  0  0  0  0
    7.0307  -13.3204   26.8110 C   0  0  1  0  0  0  0  0  0  0  0  0
    5.7485  -12.7831   26.2435 C   0  0  0  0  0  0  0  0  0  0  0  0
    7.4240  -14.5561   26.0347 C   0  0  2  0  0  0  0  0  0  0  0  0
    7.8149  -14.2430   24.6798 N   0  0  0  0  0  0  0  0  0  0  0  0
    6.3661  -15.5742   26.0168 C   0  0  0  0  0  0  0  0  0  0  0  0
    5.5997  -15.6928   25.0366 O   0  0  0  0  0  0  0  0  0  0  0  0
    6.1717  -16.4489   27.0878 O   0  0  0  0  0  0  0  0  0  0  0  0
  2  3  1  0
  2  1  1  0
  3  4  2  0
  6  5  1  0
  7  6  1  6
  7  9  1  0
  8  7  1  0
  8  3  1  0
  9 15  1  0
 10  9  2  0
 12 11  1  6
 12 14  1  0
 13 12  1  0
 14 16  1  0
 14 15  1  6
 16 17  2  0
 16 18  1  0
M  END
$$$$
