GSV.pdb
     RDKit          3D

 18 17  0  0  1  0  0  0  0  0999 V2000
    8.9202  -16.6685   18.8718 N   0  0  0  0  0  0  0  0  0  0  0  0
    9.1569  -17.1142   20.1934 C   0  0  0  0  0  0  0  0  0  0  0  0
    8.3211  -16.4895   21.2289 C   0  0  0  0  0  0  0  0  0  0  0  0
    7.8197  -15.3671   20.9870 O   0  0  0  0  0  0  0  0  0  0  0  0
    7.2197  -18.3222   24.9586 O   0  0  0  0  0  0  0  0  0  0  0  0
    6.3941  -17.4190   24.2907 C   0  0  0  0  0  0  0  0  0  0  0  0
    7.1651  -16.4574   23.4364 C   0  0  2  0  0  0  0  0  0  0  0  0
    8.0347  -17.0625   22.4920 N   0  0  0  0  0  0  0  0  0  0  0  0
    7.9633  -15.5907   24.3422 C   0  0  0  0  0  0  0  0  0  0  0  0
    9.1946  -15.7415   24.4615 O   0  0  0  0  0  0  0  0  0  0  0  0
    7.1649  -11.6259   25.0513 C   0  0  0  0  0  0  0  0  0  0  0  0
    7.3833  -12.4102   26.3094 C   0  0  1  0  0  0  0  0  0  0  0  0
    6.0548  -12.6688   26.9599 C   0  0  0  0  0  0  0  0  0  0  0  0
    8.0644  -13.7353   26.0553 C   0  0  2  0  0  0  0  0  0  0  0  0
    7.3335  -14.5478   25.1109 N   0  0  0  0  0  0  0  0  0  0  0  0
    8.2918  -14.5007   27.2876 C   0  0  0  0  0  0  0  0  0  0  0  0
    9.0751  -14.0878   28.1697 O   0  0  0  0  0  0  0  0  0  0  0  0
    7.6463  -15.7159   27.5259 O   0  0  0  0  0  0  0  0  0  0  0  0
  2  3  1  0
  2  1  1  0
  3  4  2  0
  6  5  1  0
  7  6  1  1
  7  9  1  0
  8  7  1  0
  8  3  1  0
  9 15  1  0
 10  9  2  0
 12 11  1  6
 12 14  1  0
 13 12  1  0
 14 16  1  0
 14 15  1  6
 16 17  2  0
 16 18  1  0
M  END
$$$$
