GSV.pdb
     RDKit          3D

 18 17  0  0  1  0  0  0  0  0999 V2000
    7.8788  -18.0339   17.0064 N   0  0  0  0  0  0  0  0  0  0  0  0
    7.2332  -18.2116   18.2525 C   0  0  0  0  0  0  0  0  0  0  0  0
    7.7627  -17.4005   19.3584 C   0  0  0  0  0  0  0  0  0  0  0  0
    8.9195  -16.9322   19.2475 O   0  0  0  0  0  0  0  0  0  0  0  0
    5.6722  -16.5797   23.0003 O   0  0  0  0  0  0  0  0  0  0  0  0
    6.5969  -15.6669   22.4950 C   0  0  0  0  0  0  0  0  0  0  0  0
    7.6084  -16.3108   21.5943 C   0  0  2  0  0  0  0  0  0  0  0  0
    7.0608  -17.1036   20.5522 N   0  0  0  0  0  0  0  0  0  0  0  0
    8.4860  -17.1623   22.4390 C   0  0  0  0  0  0  0  0  0  0  0  0
    8.2410  -18.3721   22.6107 O   0  0  0  0  0  0  0  0  0  0  0  0
   12.3696  -17.1556   22.1501 C   0  0  0  0  0  0  0  0  0  0  0  0
   12.0038  -17.0569   23.5999 C   0  0  1  0  0  0  0  0  0  0  0  0
   12.2361  -15.6488   24.0670 C   0  0  0  0  0  0  0  0  0  0  0  0
   10.5603  -17.4216   23.8595 C   0  0  2  0  0  0  0  0  0  0  0  0
    9.6492  -16.6108   23.0856 N   0  0  0  0  0  0  0  0  0  0  0  0
   10.2023  -17.3401   25.2812 C   0  0  0  0  0  0  0  0  0  0  0  0
    9.4080  -16.4701   25.6988 O   0  0  0  0  0  0  0  0  0  0  0  0
   10.7308  -18.2258   26.2226 O   0  0  0  0  0  0  0  0  0  0  0  0
  2  3  1  0
  2  1  1  0
  3  4  2  0
  6  5  1  0
  7  6  1  1
  7  9  1  0
  8  7  1  0
  8  3  1  0
  9 15  1  0
 10  9  2  0
 12 11  1  6
 12 14  1  0
 13 12  1  0
 14 16  1  0
 14 15  1  6
 16 17  2  0
 16 18  1  0
M  END
$$$$
