GSV.pdb
     RDKit          3D

 18 17  0  0  1  0  0  0  0  0999 V2000
   -1.5648  -27.5329   31.2813 N   0  0  0  0  0  0  0  0  0  0  0  0
   -1.6529  -26.9684   29.9872 C   0  0  0  0  0  0  0  0  0  0  0  0
   -2.9330  -26.3197   29.6679 C   0  0  0  0  0  0  0  0  0  0  0  0
   -2.9930  -25.6020   28.6426 O   0  0  0  0  0  0  0  0  0  0  0  0
   -6.5044  -26.8134   31.9440 O   0  0  0  0  0  0  0  0  0  0  0  0
   -6.5652  -26.6463   30.5613 C   0  0  0  0  0  0  0  0  0  0  0  0
   -5.3690  -25.9253   30.0153 C   0  0  2  0  0  0  0  0  0  0  0  0
   -4.1164  -26.4433   30.4361 N   0  0  0  0  0  0  0  0  0  0  0  0
   -5.4696  -24.5035   30.4358 C   0  0  0  0  0  0  0  0  0  0  0  0
   -5.0658  -24.1303   31.5542 O   0  0  0  0  0  0  0  0  0  0  0  0
   -4.2188  -21.4003   28.4786 C   0  0  0  0  0  0  0  0  0  0  0  0
   -5.6672  -21.2082   28.8113 C   0  0  1  0  0  0  0  0  0  0  0  0
   -6.4903  -21.4869   27.5867 C   0  0  0  0  0  0  0  0  0  0  0  0
   -6.1317  -22.1184   29.9249 C   0  0  2  0  0  0  0  0  0  0  0  0
   -6.0393  -23.5127   29.5588 N   0  0  0  0  0  0  0  0  0  0  0  0
   -7.4985  -21.8178   30.3692 C   0  0  0  0  0  0  0  0  0  0  0  0
   -8.4437  -22.5987   30.1258 O   0  0  0  0  0  0  0  0  0  0  0  0
   -7.7998  -20.6534   31.0787 O   0  0  0  0  0  0  0  0  0  0  0  0
  2  3  1  0
  2  1  1  0
  3  4  2  0
  6  5  1  0
  7  6  1  1
  7  9  1  0
  8  7  1  0
  8  3  1  0
  9 15  1  0
 10  9  2  0
 12 11  1  6
 12 14  1  0
 13 12  1  0
 14 16  1  0
 14 15  1  6
 16 17  2  0
 16 18  1  0
M  END
$$$$
