GSV.pdb
     RDKit          3D

 18 17  0  0  1  0  0  0  0  0999 V2000
    7.7964  -16.4014   19.0207 N   0  0  0  0  0  0  0  0  0  0  0  0
    8.1993  -17.0194   20.2278 C   0  0  0  0  0  0  0  0  0  0  0  0
    7.5946  -16.4699   21.4500 C   0  0  0  0  0  0  0  0  0  0  0  0
    6.9822  -15.3800   21.3686 O   0  0  0  0  0  0  0  0  0  0  0  0
    7.5551  -18.4464   25.2591 O   0  0  0  0  0  0  0  0  0  0  0  0
    6.4930  -17.6579   24.8193 C   0  0  0  0  0  0  0  0  0  0  0  0
    6.9245  -16.6012   23.8466 C   0  0  2  0  0  0  0  0  0  0  0  0
    7.6504  -17.0821   22.7259 N   0  0  0  0  0  0  0  0  0  0  0  0
    7.7676  -15.6260   24.5861 C   0  0  0  0  0  0  0  0  0  0  0  0
    9.0098  -15.6397   24.4864 O   0  0  0  0  0  0  0  0  0  0  0  0
    6.5807  -11.7743   25.1436 C   0  0  0  0  0  0  0  0  0  0  0  0
    7.1510  -12.3742   26.3928 C   0  0  1  0  0  0  0  0  0  0  0  0
    6.0265  -12.7159   27.3274 C   0  0  0  0  0  0  0  0  0  0  0  0
    7.9525  -13.6264   26.1207 C   0  0  2  0  0  0  0  0  0  0  0  0
    7.1702  -14.6335   25.4424 N   0  0  0  0  0  0  0  0  0  0  0  0
    8.5389  -14.1993   27.3389 C   0  0  0  0  0  0  0  0  0  0  0  0
    8.1701  -15.3123   27.7720 O   0  0  0  0  0  0  0  0  0  0  0  0
    9.5281  -13.5295   28.0619 O   0  0  0  0  0  0  0  0  0  0  0  0
  2  3  1  0
  2  1  1  0
  3  4  2  0
  6  5  1  0
  7  6  1  1
  7  9  1  0
  8  7  1  0
  8  3  1  0
  9 15  1  0
 10  9  2  0
 12 11  1  6
 12 14  1  0
 13 12  1  0
 14 16  1  0
 14 15  1  1
 16 17  2  0
 16 18  1  0
M  END
$$$$
