GSV.pdb
     RDKit          3D

 18 17  0  0  1  0  0  0  0  0999 V2000
    8.2634  -17.1206   18.9627 N   0  0  0  0  0  0  0  0  0  0  0  0
    8.3756  -17.7501   20.2247 C   0  0  0  0  0  0  0  0  0  0  0  0
    7.6186  -17.1174   21.3145 C   0  0  0  0  0  0  0  0  0  0  0  0
    6.7878  -16.2273   21.0188 O   0  0  0  0  0  0  0  0  0  0  0  0
    7.5808  -18.5656   25.2961 O   0  0  0  0  0  0  0  0  0  0  0  0
    6.5028  -17.8611   24.7621 C   0  0  0  0  0  0  0  0  0  0  0  0
    6.9196  -16.8923   23.6960 C   0  0  2  0  0  0  0  0  0  0  0  0
    7.7557  -17.4380   22.6872 N   0  0  0  0  0  0  0  0  0  0  0  0
    7.6334  -15.7711   24.3608 C   0  0  0  0  0  0  0  0  0  0  0  0
    8.8783  -15.7319   24.4025 O   0  0  0  0  0  0  0  0  0  0  0  0
    5.6091  -12.7561   26.9733 C   0  0  0  0  0  0  0  0  0  0  0  0
    6.6248  -12.4462   25.9161 C   0  0  1  0  0  0  0  0  0  0  0  0
    7.4337  -11.2578   26.3500 C   0  0  0  0  0  0  0  0  0  0  0  0
    7.5629  -13.6025   25.6571 C   0  0  2  0  0  0  0  0  0  0  0  0
    6.9032  -14.6936   24.9782 N   0  0  0  0  0  0  0  0  0  0  0  0
    8.1993  -14.1011   26.8828 C   0  0  0  0  0  0  0  0  0  0  0  0
    7.7501  -15.1008   27.4836 O   0  0  0  0  0  0  0  0  0  0  0  0
    9.3272  -13.4835   27.4271 O   0  0  0  0  0  0  0  0  0  0  0  0
  2  3  1  0
  2  1  1  0
  3  4  2  0
  6  5  1  0
  7  6  1  1
  7  9  1  0
  8  7  1  0
  8  3  1  0
  9 15  1  0
 10  9  2  0
 12 11  1  1
 12 14  1  0
 13 12  1  0
 14 16  1  0
 14 15  1  1
 16 17  2  0
 16 18  1  0
M  END
$$$$
