GSV.pdb
     RDKit          3D

 18 17  0  0  1  0  0  0  0  0999 V2000
    8.0965  -16.6633   18.7967 N   0  0  0  0  0  0  0  0  0  0  0  0
    8.6209  -16.9943   20.0682 C   0  0  0  0  0  0  0  0  0  0  0  0
    7.9093  -16.4117   21.2151 C   0  0  0  0  0  0  0  0  0  0  0  0
    7.2920  -15.3350   21.0434 O   0  0  0  0  0  0  0  0  0  0  0  0
    7.4236  -18.3636   24.9711 O   0  0  0  0  0  0  0  0  0  0  0  0
    6.4809  -17.4567   24.4890 C   0  0  0  0  0  0  0  0  0  0  0  0
    7.0808  -16.4390   23.5652 C   0  0  2  0  0  0  0  0  0  0  0  0
    7.8659  -16.9776   22.5126 N   0  0  0  0  0  0  0  0  0  0  0  0
    7.9269  -15.5317   24.3835 C   0  0  0  0  0  0  0  0  0  0  0  0
    9.1704  -15.6117   24.3601 O   0  0  0  0  0  0  0  0  0  0  0  0
    7.1519  -11.5998   25.3325 C   0  0  0  0  0  0  0  0  0  0  0  0
    7.4237  -12.4555   26.5322 C   0  0  1  0  0  0  0  0  0  0  0  0
    6.1229  -12.7647   27.2158 C   0  0  0  0  0  0  0  0  0  0  0  0
    8.1041  -13.7566   26.1739 C   0  0  2  0  0  0  0  0  0  0  0  0
    7.3310  -14.5302   25.2303 N   0  0  0  0  0  0  0  0  0  0  0  0
    8.4073  -14.5802   27.3511 C   0  0  0  0  0  0  0  0  0  0  0  0
    7.8169  -15.6635   27.5514 O   0  0  0  0  0  0  0  0  0  0  0  0
    9.3627  -14.1910   28.2922 O   0  0  0  0  0  0  0  0  0  0  0  0
  2  3  1  0
  2  1  1  0
  3  4  2  0
  6  5  1  0
  7  6  1  1
  7  9  1  0
  8  7  1  0
  8  3  1  0
  9 15  1  0
 10  9  2  0
 12 11  1  6
 12 14  1  0
 13 12  1  0
 14 16  1  0
 14 15  1  6
 16 17  2  0
 16 18  1  0
M  END
$$$$
