GSV.pdb
     RDKit          3D

 18 17  0  0  1  0  0  0  0  0999 V2000
   11.6816  -15.9172   19.3262 N   0  0  0  0  0  0  0  0  0  0  0  0
   10.7571  -16.6007   20.1505 C   0  0  0  0  0  0  0  0  0  0  0  0
    9.7408  -15.7556   20.7940 C   0  0  0  0  0  0  0  0  0  0  0  0
    9.9281  -14.5169   20.8144 O   0  0  0  0  0  0  0  0  0  0  0  0
    6.1924  -17.2290   22.6592 O   0  0  0  0  0  0  0  0  0  0  0  0
    6.2197  -15.9437   22.1198 C   0  0  0  0  0  0  0  0  0  0  0  0
    7.6090  -15.3862   22.0306 C   0  0  2  0  0  0  0  0  0  0  0  0
    8.5540  -16.2362   21.3992 N   0  0  0  0  0  0  0  0  0  0  0  0
    8.0678  -15.0972   23.4143 C   0  0  0  0  0  0  0  0  0  0  0  0
    8.9561  -15.7825   23.9568 O   0  0  0  0  0  0  0  0  0  0  0  0
    5.7531  -12.7200   26.3426 C   0  0  0  0  0  0  0  0  0  0  0  0
    7.2083  -12.4893   26.0691 C   0  0  1  0  0  0  0  0  0  0  0  0
    7.8858  -12.0809   27.3454 C   0  0  0  0  0  0  0  0  0  0  0  0
    7.8981  -13.7198   25.5265 C   0  0  2  0  0  0  0  0  0  0  0  0
    7.4961  -14.0124   24.1704 N   0  0  0  0  0  0  0  0  0  0  0  0
    7.6861  -14.9049   26.3671 C   0  0  0  0  0  0  0  0  0  0  0  0
    6.7154  -15.6685   26.1748 O   0  0  0  0  0  0  0  0  0  0  0  0
    8.5548  -15.2283   27.4116 O   0  0  0  0  0  0  0  0  0  0  0  0
  2  3  1  0
  2  1  1  0
  3  4  2  0
  6  5  1  0
  7  6  1  1
  7  9  1  0
  8  7  1  0
  8  3  1  0
  9 15  1  0
 10  9  2  0
 12 11  1  1
 12 14  1  0
 13 12  1  0
 14 16  1  0
 14 15  1  6
 16 17  2  0
 16 18  1  0
M  END
$$$$
