GSV.pdb
     RDKit          3D

 18 17  0  0  1  0  0  0  0  0999 V2000
    5.9573  -18.6620   19.4782 N   0  0  0  0  0  0  0  0  0  0  0  0
    5.9593  -18.7591   20.8895 C   0  0  0  0  0  0  0  0  0  0  0  0
    6.8592  -17.8272   21.5845 C   0  0  0  0  0  0  0  0  0  0  0  0
    7.8412  -17.3716   20.9536 O   0  0  0  0  0  0  0  0  0  0  0  0
    6.3997  -16.7839   25.6306 O   0  0  0  0  0  0  0  0  0  0  0  0
    7.0894  -15.8812   24.8226 C   0  0  0  0  0  0  0  0  0  0  0  0
    7.6077  -16.5133   23.5654 C   0  0  2  0  0  0  0  0  0  0  0  0
    6.7022  -17.3992   22.9254 N   0  0  0  0  0  0  0  0  0  0  0  0
    8.8466  -17.2569   23.9131 C   0  0  0  0  0  0  0  0  0  0  0  0
    8.8019  -18.4381   24.3080 O   0  0  0  0  0  0  0  0  0  0  0  0
   12.2481  -16.5526   21.8594 C   0  0  0  0  0  0  0  0  0  0  0  0
   12.5385  -16.7493   23.3162 C   0  0  1  0  0  0  0  0  0  0  0  0
   12.8792  -15.4217   23.9295 C   0  0  0  0  0  0  0  0  0  0  0  0
   11.3679  -17.3432   24.0655 C   0  0  2  0  0  0  0  0  0  0  0  0
   10.1392  -16.6305   23.8031 N   0  0  0  0  0  0  0  0  0  0  0  0
   11.5970  -17.4082   25.5144 C   0  0  0  0  0  0  0  0  0  0  0  0
   12.3781  -18.2499   26.0080 O   0  0  0  0  0  0  0  0  0  0  0  0
   10.9560  -16.5377   26.3982 O   0  0  0  0  0  0  0  0  0  0  0  0
  2  3  1  0
  2  1  1  0
  3  4  2  0
  6  5  1  0
  7  6  1  1
  7  9  1  0
  8  7  1  0
  8  3  1  0
  9 15  1  0
 10  9  2  0
 12 11  1  6
 12 14  1  0
 13 12  1  0
 14 16  1  0
 14 15  1  1
 16 17  2  0
 16 18  1  0
M  END
$$$$
