GSV.pdb
     RDKit          3D

 18 17  0  0  1  0  0  0  0  0999 V2000
    9.3181  -16.8269   19.2272 N   0  0  0  0  0  0  0  0  0  0  0  0
    9.5370  -17.2073   20.5720 C   0  0  0  0  0  0  0  0  0  0  0  0
    8.6603  -16.5626   21.5605 C   0  0  0  0  0  0  0  0  0  0  0  0
    8.2157  -15.4203   21.3011 O   0  0  0  0  0  0  0  0  0  0  0  0
    7.3947  -18.3556   25.2390 O   0  0  0  0  0  0  0  0  0  0  0  0
    6.5755  -17.4663   24.5452 C   0  0  0  0  0  0  0  0  0  0  0  0
    7.3547  -16.5187   23.6827 C   0  0  2  0  0  0  0  0  0  0  0  0
    8.2744  -17.1372   22.7961 N   0  0  0  0  0  0  0  0  0  0  0  0
    8.0963  -15.5972   24.5825 C   0  0  0  0  0  0  0  0  0  0  0  0
    9.3278  -15.7019   24.7421 O   0  0  0  0  0  0  0  0  0  0  0  0
    6.8527  -11.6856   25.0783 C   0  0  0  0  0  0  0  0  0  0  0  0
    7.2823  -12.3442   26.3540 C   0  0  1  0  0  0  0  0  0  0  0  0
    6.0619  -12.7213   27.1434 C   0  0  0  0  0  0  0  0  0  0  0  0
    8.1080  -13.5873   26.1149 C   0  0  2  0  0  0  0  0  0  0  0  0
    7.4094  -14.5528   25.2986 N   0  0  0  0  0  0  0  0  0  0  0  0
    8.5452  -14.2255   27.3629 C   0  0  0  0  0  0  0  0  0  0  0  0
    9.2950  -13.6291   28.1656 O   0  0  0  0  0  0  0  0  0  0  0  0
    8.1447  -15.5188   27.7049 O   0  0  0  0  0  0  0  0  0  0  0  0
  2  3  1  0
  2  1  1  0
  3  4  2  0
  6  5  1  0
  7  6  1  1
  7  9  1  0
  8  7  1  0
  8  3  1  0
  9 15  1  0
 10  9  2  0
 12 11  1  6
 12 14  1  0
 13 12  1  0
 14 16  1  0
 14 15  1  1
 16 17  2  0
 16 18  1  0
M  END
$$$$
