GSV.pdb
     RDKit          3D

 18 17  0  0  1  0  0  0  0  0999 V2000
    8.3145  -12.5391   18.6210 N   0  0  0  0  0  0  0  0  0  0  0  0
    8.6265  -13.7214   19.3323 C   0  0  0  0  0  0  0  0  0  0  0  0
    7.9104  -13.9000   20.6037 C   0  0  0  0  0  0  0  0  0  0  0  0
    7.3137  -12.9118   21.0906 O   0  0  0  0  0  0  0  0  0  0  0  0
    7.8472  -17.4705   23.1082 O   0  0  0  0  0  0  0  0  0  0  0  0
    6.7315  -16.6651   22.8844 C   0  0  0  0  0  0  0  0  0  0  0  0
    7.1007  -15.2549   22.5322 C   0  0  2  0  0  0  0  0  0  0  0  0
    7.8410  -15.1142   21.3296 N   0  0  0  0  0  0  0  0  0  0  0  0
    7.8990  -14.7041   23.6583 C   0  0  0  0  0  0  0  0  0  0  0  0
    9.1393  -14.6082   23.5848 O   0  0  0  0  0  0  0  0  0  0  0  0
    7.0797  -11.4208   25.7033 C   0  0  0  0  0  0  0  0  0  0  0  0
    7.2895  -12.5695   26.6424 C   0  0  1  0  0  0  0  0  0  0  0  0
    5.9541  -13.0439   27.1391 C   0  0  0  0  0  0  0  0  0  0  0  0
    8.0033  -13.7300   25.9881 C   0  0  2  0  0  0  0  0  0  0  0  0
    7.2587  -14.2637   24.8713 N   0  0  0  0  0  0  0  0  0  0  0  0
    8.3116  -14.8107   26.9330 C   0  0  0  0  0  0  0  0  0  0  0  0
    9.0686  -14.6195   27.9091 O   0  0  0  0  0  0  0  0  0  0  0  0
    7.7757  -16.0915   26.7829 O   0  0  0  0  0  0  0  0  0  0  0  0
  2  3  1  0
  2  1  1  0
  3  4  2  0
  6  5  1  0
  7  6  1  1
  7  9  1  0
  8  7  1  0
  8  3  1  0
  9 15  1  0
 10  9  2  0
 12 11  1  6
 12 14  1  0
 13 12  1  0
 14 16  1  0
 14 15  1  6
 16 17  2  0
 16 18  1  0
M  END
$$$$
