DHM.pdb
     RDKit          3D

 27 27  0  0  1  0  0  0  0  0999 V2000
   10.7795  -18.4822   19.4139 N   0  0  0  0  0  0  0  0  0  0  0  0
   11.8452  -17.6113   19.9231 C   0  0  1  0  0  0  0  0  0  0  0  0
   12.3710  -16.8659   18.6881 C   0  0  0  0  0  0  0  0  0  0  0  0
   13.2008  -17.7981   17.8938 C   0  0  0  0  0  0  0  0  0  0  0  0
   13.3672  -18.9860   18.2146 O   0  0  0  0  0  0  0  0  0  0  0  0
   11.2867  -16.5670   20.8070 C   0  0  0  0  0  0  0  0  0  0  0  0
   12.0113  -15.6368   21.2001 O   0  0  0  0  0  0  0  0  0  0  0  0
   13.8132  -17.3170   16.7431 O   0  0  0  0  0  0  0  0  0  0  0  0
    9.9361  -16.6335   21.2004 N   0  0  0  0  0  0  0  0  0  0  0  0
    9.3728  -15.7378   22.1991 C   0  0  1  0  0  0  0  0  0  0  0  0
    7.9206  -15.5220   21.8644 C   0  0  0  0  0  0  0  0  0  0  0  0
    7.7224  -14.7370   20.6194 C   0  0  0  0  0  0  0  0  0  0  0  0
    7.7952  -13.3759   20.4113 C   0  0  0  0  0  0  0  0  0  0  0  0
    7.5263  -13.1407   19.1315 N   0  0  0  0  0  0  0  0  0  0  0  0
    7.2754  -14.3187   18.4889 C   0  0  0  0  0  0  0  0  0  0  0  0
    7.3988  -15.2875   19.4095 N   0  0  0  0  0  0  0  0  0  0  0  0
    9.5293  -16.2841   23.5614 C   0  0  0  0  0  0  0  0  0  0  0  0
    9.6996  -17.5161   23.7081 O   0  0  0  0  0  0  0  0  0  0  0  0
   10.2118  -13.1366   29.9091 C   0  0  0  0  0  0  0  0  0  0  0  0
   11.6935  -13.7438   29.0676 S   0  0  0  0  0  0  0  0  0  0  0  0
   11.1779  -15.2151   28.0799 C   0  0  0  0  0  0  0  0  0  0  0  0
   10.5979  -14.7683   26.7800 C   0  0  0  0  0  0  0  0  0  0  0  0
   10.1918  -15.9209   25.9311 C   0  0  2  0  0  0  0  0  0  0  0  0
    9.4924  -15.4717   24.7235 N   0  0  0  0  0  0  0  0  0  0  0  0
    9.1800  -16.7569   26.6547 C   0  0  0  0  0  0  0  0  0  0  0  0
    7.9732  -16.6457   26.4555 O   0  0  0  0  0  0  0  0  0  0  0  0
    9.6065  -17.6988   27.5930 O   0  0  0  0  0  0  0  0  0  0  0  0
  2  1  1  6
  2  3  1  0
  3  4  1  0
  4  8  1  0
  5  4  2  0
  6  2  1  0
  7  6  2  0
  9  6  1  0
 10  9  1  0
 11 12  1  0
 10 11  1  6
 12 13  2  0
 14 13  1  0
 15 14  1  0
 16 15  2  0
 16 12  1  0
 17 18  2  0
 17 10  1  0
 20 19  1  0
 21 20  1  0
 23 22  1  1
 22 21  1  0
 23 24  1  0
 24 17  1  0
 25 23  1  0
 26 25  2  0
 27 25  1  0
M  END
$$$$
