DHM.pdb
     RDKit          3D

 27 27  0  0  1  0  0  0  0  0999 V2000
   11.4827  -17.1714   20.0603 N   0  0  0  0  0  0  0  0  0  0  0  0
   12.2076  -17.0285   21.3282 C   0  0  1  0  0  0  0  0  0  0  0  0
   13.0032  -15.7233   21.1840 C   0  0  0  0  0  0  0  0  0  0  0  0
   14.1934  -15.9879   20.3463 C   0  0  0  0  0  0  0  0  0  0  0  0
   14.9074  -16.9928   20.4956 O   0  0  0  0  0  0  0  0  0  0  0  0
   11.2659  -16.7962   22.4432 C   0  0  0  0  0  0  0  0  0  0  0  0
   10.7700  -15.6685   22.6093 O   0  0  0  0  0  0  0  0  0  0  0  0
   14.5170  -15.0709   19.3539 O   0  0  0  0  0  0  0  0  0  0  0  0
   10.9374  -17.8544   23.3124 N   0  0  0  0  0  0  0  0  0  0  0  0
    9.9753  -17.7018   24.3932 C   0  0  1  0  0  0  0  0  0  0  0  0
    9.2333  -19.0035   24.5428 C   0  0  0  0  0  0  0  0  0  0  0  0
    8.2514  -18.9872   25.6568 C   0  0  0  0  0  0  0  0  0  0  0  0
    7.0386  -18.3388   25.7572 C   0  0  0  0  0  0  0  0  0  0  0  0
    6.5240  -18.6115   26.9514 N   0  0  0  0  0  0  0  0  0  0  0  0
    7.3726  -19.4262   27.6440 C   0  0  0  0  0  0  0  0  0  0  0  0
    8.4251  -19.6491   26.8415 N   0  0  0  0  0  0  0  0  0  0  0  0
   10.6391  -17.3198   25.6549 C   0  0  0  0  0  0  0  0  0  0  0  0
   11.7323  -17.8528   25.9540 O   0  0  0  0  0  0  0  0  0  0  0  0
    7.9346  -12.3423   26.6050 C   0  0  0  0  0  0  0  0  0  0  0  0
    9.0166  -12.4442   28.0509 S   0  0  0  0  0  0  0  0  0  0  0  0
   10.3651  -13.6293   27.6227 C   0  0  0  0  0  0  0  0  0  0  0  0
   10.2387  -14.8570   28.4608 C   0  0  0  0  0  0  0  0  0  0  0  0
   10.8191  -16.0491   27.7855 C   0  0  2  0  0  0  0  0  0  0  0  0
   10.0903  -16.3706   26.5547 N   0  0  0  0  0  0  0  0  0  0  0  0
   10.6411  -17.2620   28.6478 C   0  0  0  0  0  0  0  0  0  0  0  0
    9.8486  -18.1570   28.3664 O   0  0  0  0  0  0  0  0  0  0  0  0
   11.3933  -17.3946   29.8167 O   0  0  0  0  0  0  0  0  0  0  0  0
  2  1  1  6
  2  3  1  0
  3  4  1  0
  4  8  1  0
  5  4  2  0
  6  2  1  0
  7  6  2  0
  9  6  1  0
 10  9  1  0
 11 12  1  0
 10 11  1  1
 12 13  2  0
 14 13  1  0
 15 14  1  0
 16 15  2  0
 16 12  1  0
 17 18  2  0
 17 10  1  0
 20 19  1  0
 21 20  1  0
 23 22  1  1
 22 21  1  0
 23 24  1  0
 24 17  1  0
 25 23  1  0
 26 25  2  0
 27 25  1  0
M  END
$$$$
