DHM.pdb
     RDKit          3D

 27 27  0  0  1  0  0  0  0  0999 V2000
    9.9028  -18.3339   18.2937 N   0  0  0  0  0  0  0  0  0  0  0  0
   10.6257  -18.2625   19.5687 C   0  0  1  0  0  0  0  0  0  0  0  0
   11.5246  -17.0239   19.4449 C   0  0  0  0  0  0  0  0  0  0  0  0
   12.7173  -17.3859   18.6481 C   0  0  0  0  0  0  0  0  0  0  0  0
   13.3564  -18.4335   18.8375 O   0  0  0  0  0  0  0  0  0  0  0  0
    9.6960  -17.9667   20.6787 C   0  0  0  0  0  0  0  0  0  0  0  0
    8.6971  -17.2552   20.4760 O   0  0  0  0  0  0  0  0  0  0  0  0
   13.1308  -16.5137   17.6487 O   0  0  0  0  0  0  0  0  0  0  0  0
    9.9488  -18.4918   21.9607 N   0  0  0  0  0  0  0  0  0  0  0  0
    8.9938  -18.3712   23.0518 C   0  0  1  0  0  0  0  0  0  0  0  0
    9.1455  -19.5787   23.9385 C   0  0  0  0  0  0  0  0  0  0  0  0
    8.2163  -19.5685   25.0969 C   0  0  0  0  0  0  0  0  0  0  0  0
    7.1940  -18.6952   25.4028 C   0  0  0  0  0  0  0  0  0  0  0  0
    6.6516  -19.0834   26.5520 N   0  0  0  0  0  0  0  0  0  0  0  0
    7.2955  -20.1951   27.0135 C   0  0  0  0  0  0  0  0  0  0  0  0
    8.2500  -20.4822   26.1147 N   0  0  0  0  0  0  0  0  0  0  0  0
    9.2005  -17.1233   23.8125 C   0  0  0  0  0  0  0  0  0  0  0  0
   10.3604  -16.6654   23.9287 O   0  0  0  0  0  0  0  0  0  0  0  0
    6.3035  -10.7585   27.4242 C   0  0  0  0  0  0  0  0  0  0  0  0
    5.8700  -12.3252   26.6308 S   0  0  0  0  0  0  0  0  0  0  0  0
    7.4588  -13.1665   26.2132 C   0  0  0  0  0  0  0  0  0  0  0  0
    7.1772  -14.4317   25.4746 C   0  0  0  0  0  0  0  0  0  0  0  0
    8.4280  -15.1603   25.1302 C   0  0  2  0  0  0  0  0  0  0  0  0
    8.1373  -16.4131   24.4265 N   0  0  0  0  0  0  0  0  0  0  0  0
    9.1280  -15.5937   26.3826 C   0  0  0  0  0  0  0  0  0  0  0  0
    9.0030  -16.7238   26.8470 O   0  0  0  0  0  0  0  0  0  0  0  0
    9.9538  -14.6936   27.0589 O   0  0  0  0  0  0  0  0  0  0  0  0
  2  1  1  6
  2  3  1  0
  3  4  1  0
  4  8  1  0
  5  4  2  0
  6  2  1  0
  7  6  2  0
  9  6  1  0
 10  9  1  0
 11 12  1  0
 10 11  1  1
 12 13  2  0
 14 13  1  0
 15 14  1  0
 16 15  2  0
 16 12  1  0
 17 18  2  0
 17 10  1  0
 20 19  1  0
 21 20  1  0
 23 22  1  1
 22 21  1  0
 23 24  1  0
 24 17  1  0
 25 23  1  0
 26 25  2  0
 27 25  1  0
M  END
$$$$
