DHM.pdb
     RDKit          3D

 27 27  0  0  1  0  0  0  0  0999 V2000
   13.4022  -16.4342   19.3913 N   0  0  0  0  0  0  0  0  0  0  0  0
   13.5133  -15.0170   19.7557 C   0  0  1  0  0  0  0  0  0  0  0  0
   13.8672  -14.2983   18.4459 C   0  0  0  0  0  0  0  0  0  0  0  0
   15.2414  -14.6821   18.0550 C   0  0  0  0  0  0  0  0  0  0  0  0
   16.1212  -14.9596   18.8861 O   0  0  0  0  0  0  0  0  0  0  0  0
   12.1977  -14.4783   20.1592 C   0  0  0  0  0  0  0  0  0  0  0  0
   12.0953  -13.2878   20.5014 O   0  0  0  0  0  0  0  0  0  0  0  0
   15.5507  -14.7333   16.7014 O   0  0  0  0  0  0  0  0  0  0  0  0
   11.0675  -15.3186   20.1552 N   0  0  0  0  0  0  0  0  0  0  0  0
    9.7515  -14.8524   20.5647 C   0  0  1  0  0  0  0  0  0  0  0  0
    8.7230  -15.5763   19.7367 C   0  0  0  0  0  0  0  0  0  0  0  0
    8.4142  -14.8840   18.4596 C   0  0  0  0  0  0  0  0  0  0  0  0
    8.8792  -13.6814   17.9708 C   0  0  0  0  0  0  0  0  0  0  0  0
    8.3076  -13.4688   16.7903 N   0  0  0  0  0  0  0  0  0  0  0  0
    7.4726  -14.5058   16.4888 C   0  0  0  0  0  0  0  0  0  0  0  0
    7.5468  -15.3649   17.5172 N   0  0  0  0  0  0  0  0  0  0  0  0
    9.5262  -15.0750   22.0064 C   0  0  0  0  0  0  0  0  0  0  0  0
   10.3697  -15.7295   22.6611 O   0  0  0  0  0  0  0  0  0  0  0  0
    6.3392  -11.8192   28.3867 C   0  0  0  0  0  0  0  0  0  0  0  0
    6.1653  -12.0307   26.5987 S   0  0  0  0  0  0  0  0  0  0  0  0
    7.3772  -13.3291   26.0971 C   0  0  0  0  0  0  0  0  0  0  0  0
    7.3709  -13.4743   24.6123 C   0  0  0  0  0  0  0  0  0  0  0  0
    8.4591  -14.3728   24.1405 C   0  0  2  0  0  0  0  0  0  0  0  0
    8.3869  -14.5800   22.6910 N   0  0  0  0  0  0  0  0  0  0  0  0
    8.2769  -15.7433   24.7193 C   0  0  0  0  0  0  0  0  0  0  0  0
    8.4979  -15.9913   25.9016 O   0  0  0  0  0  0  0  0  0  0  0  0
    7.8432  -16.7870   23.8994 O   0  0  0  0  0  0  0  0  0  0  0  0
  2  1  1  6
  2  3  1  0
  3  4  1  0
  4  8  1  0
  5  4  2  0
  6  2  1  0
  7  6  2  0
  9  6  1  0
 10  9  1  0
 11 12  1  0
 10 11  1  6
 12 13  2  0
 14 13  1  0
 15 14  1  0
 16 15  2  0
 16 12  1  0
 17 18  2  0
 17 10  1  0
 20 19  1  0
 21 20  1  0
 23 22  1  1
 22 21  1  0
 23 24  1  0
 24 17  1  0
 25 23  1  0
 26 25  2  0
 27 25  1  0
M  END
$$$$
