DHM.pdb
     RDKit          3D

 27 27  0  0  1  0  0  0  0  0999 V2000
    6.5778  -21.0791   21.4365 N   0  0  0  0  0  0  0  0  0  0  0  0
    6.5368  -19.8450   22.2294 C   0  0  1  0  0  0  0  0  0  0  0  0
    6.7054  -20.3041   23.6848 C   0  0  0  0  0  0  0  0  0  0  0  0
    5.6015  -21.2314   24.0165 C   0  0  0  0  0  0  0  0  0  0  0  0
    5.7744  -22.4518   24.1667 O   0  0  0  0  0  0  0  0  0  0  0  0
    7.7159  -19.0018   21.9419 C   0  0  0  0  0  0  0  0  0  0  0  0
    8.8589  -19.4483   22.1403 O   0  0  0  0  0  0  0  0  0  0  0  0
    4.3236  -20.7068   24.1658 O   0  0  0  0  0  0  0  0  0  0  0  0
    7.5370  -17.6958   21.4462 N   0  0  0  0  0  0  0  0  0  0  0  0
    8.6579  -16.8152   21.1547 C   0  0  1  0  0  0  0  0  0  0  0  0
    8.3755  -16.1190   19.8497 C   0  0  0  0  0  0  0  0  0  0  0  0
    8.3073  -17.0526   18.6968 C   0  0  0  0  0  0  0  0  0  0  0  0
    9.3195  -17.5671   17.9144 C   0  0  0  0  0  0  0  0  0  0  0  0
    8.7692  -18.3496   16.9923 N   0  0  0  0  0  0  0  0  0  0  0  0
    7.4131  -18.3621   17.1477 C   0  0  0  0  0  0  0  0  0  0  0  0
    7.1430  -17.5654   18.1935 N   0  0  0  0  0  0  0  0  0  0  0  0
    8.8734  -15.8403   22.2419 C   0  0  0  0  0  0  0  0  0  0  0  0
    8.7238  -14.6198   22.0044 O   0  0  0  0  0  0  0  0  0  0  0  0
    6.4897  -11.5868   27.4380 C   0  0  0  0  0  0  0  0  0  0  0  0
    6.3287  -12.8721   26.1755 S   0  0  0  0  0  0  0  0  0  0  0  0
    7.9972  -13.6366   25.9802 C   0  0  0  0  0  0  0  0  0  0  0  0
    8.0073  -14.5177   24.7763 C   0  0  0  0  0  0  0  0  0  0  0  0
    9.3163  -15.2042   24.6052 C   0  0  2  0  0  0  0  0  0  0  0  0
    9.2485  -16.2245   23.5547 N   0  0  0  0  0  0  0  0  0  0  0  0
    9.6558  -15.9733   25.8460 C   0  0  0  0  0  0  0  0  0  0  0  0
    9.3595  -17.1568   25.9864 O   0  0  0  0  0  0  0  0  0  0  0  0
   10.3308  -15.3372   26.8897 O   0  0  0  0  0  0  0  0  0  0  0  0
  2  1  1  6
  2  3  1  0
  3  4  1  0
  4  8  1  0
  5  4  2  0
  6  2  1  0
  7  6  2  0
  9  6  1  0
 10  9  1  0
 11 12  1  0
 10 11  1  6
 12 13  2  0
 14 13  1  0
 15 14  1  0
 16 15  2  0
 16 12  1  0
 17 18  2  0
 17 10  1  0
 20 19  1  0
 21 20  1  0
 23 22  1  1
 22 21  1  0
 23 24  1  0
 24 17  1  0
 25 23  1  0
 26 25  2  0
 27 25  1  0
M  END
$$$$
