DHM.pdb
     RDKit          3D

 27 27  0  0  1  0  0  0  0  0999 V2000
   12.1216  -16.0321   18.1055 N   0  0  0  0  0  0  0  0  0  0  0  0
   12.5240  -15.7661   19.4914 C   0  0  1  0  0  0  0  0  0  0  0  0
   13.0956  -14.3412   19.4708 C   0  0  0  0  0  0  0  0  0  0  0  0
   14.5081  -14.4071   19.0363 C   0  0  0  0  0  0  0  0  0  0  0  0
   15.1407  -15.4738   18.9749 O   0  0  0  0  0  0  0  0  0  0  0  0
   11.3407  -15.7045   20.3746 C   0  0  0  0  0  0  0  0  0  0  0  0
   10.4755  -14.8316   20.1896 O   0  0  0  0  0  0  0  0  0  0  0  0
   15.1440  -13.2233   18.6829 O   0  0  0  0  0  0  0  0  0  0  0  0
   11.2018  -16.6350   21.4225 N   0  0  0  0  0  0  0  0  0  0  0  0
   10.0442  -16.6453   22.3039 C   0  0  1  0  0  0  0  0  0  0  0  0
    9.4466  -18.0271   22.2710 C   0  0  0  0  0  0  0  0  0  0  0  0
    8.6139  -18.2707   21.0657 C   0  0  0  0  0  0  0  0  0  0  0  0
    8.3041  -17.4274   20.0197 C   0  0  0  0  0  0  0  0  0  0  0  0
    7.5132  -18.0870   19.1801 N   0  0  0  0  0  0  0  0  0  0  0  0
    7.2921  -19.3493   19.6503 C   0  0  0  0  0  0  0  0  0  0  0  0
    7.9709  -19.4496   20.8038 N   0  0  0  0  0  0  0  0  0  0  0  0
   10.4118  -16.2573   23.6798 C   0  0  0  0  0  0  0  0  0  0  0  0
   11.5502  -16.5502   24.1120 O   0  0  0  0  0  0  0  0  0  0  0  0
    5.8034  -11.8619   26.4872 C   0  0  0  0  0  0  0  0  0  0  0  0
    7.5810  -12.0337   26.7739 S   0  0  0  0  0  0  0  0  0  0  0  0
    8.0539  -13.7172   26.1834 C   0  0  0  0  0  0  0  0  0  0  0  0
    9.5264  -13.9055   26.3319 C   0  0  0  0  0  0  0  0  0  0  0  0
    9.9537  -15.2686   25.9156 C   0  0  2  0  0  0  0  0  0  0  0  0
    9.5266  -15.5644   24.5447 N   0  0  0  0  0  0  0  0  0  0  0  0
    9.2566  -16.2998   26.7505 C   0  0  0  0  0  0  0  0  0  0  0  0
    8.3758  -17.0256   26.2971 O   0  0  0  0  0  0  0  0  0  0  0  0
    9.6070  -16.4530   28.0934 O   0  0  0  0  0  0  0  0  0  0  0  0
  2  1  1  6
  2  3  1  0
  3  4  1  0
  4  8  1  0
  5  4  2  0
  6  2  1  0
  7  6  2  0
  9  6  1  0
 10  9  1  0
 11 12  1  0
 10 11  1  1
 12 13  2  0
 14 13  1  0
 15 14  1  0
 16 15  2  0
 16 12  1  0
 17 18  2  0
 17 10  1  0
 20 19  1  0
 21 20  1  0
 23 22  1  1
 22 21  1  0
 23 24  1  0
 24 17  1  0
 25 23  1  0
 26 25  2  0
 27 25  1  0
M  END
$$$$
