DHM.pdb
     RDKit          3D

 27 27  0  0  1  0  0  0  0  0999 V2000
    8.7230  -18.4882   20.0716 N   0  0  0  0  0  0  0  0  0  0  0  0
   10.1082  -18.0225   19.9383 C   0  0  1  0  0  0  0  0  0  0  0  0
   10.3946  -18.0595   18.4303 C   0  0  0  0  0  0  0  0  0  0  0  0
   10.5646  -19.4700   18.0181 C   0  0  0  0  0  0  0  0  0  0  0  0
   10.3416  -20.4226   18.7827 O   0  0  0  0  0  0  0  0  0  0  0  0
   10.2195  -16.6011   20.3270 C   0  0  0  0  0  0  0  0  0  0  0  0
   11.3114  -16.0158   20.2257 O   0  0  0  0  0  0  0  0  0  0  0  0
   10.9896  -19.7301   16.7211 O   0  0  0  0  0  0  0  0  0  0  0  0
    9.0872  -15.9185   20.8120 N   0  0  0  0  0  0  0  0  0  0  0  0
    9.1151  -14.5007   21.1372 C   0  0  1  0  0  0  0  0  0  0  0  0
    7.9263  -13.8494   20.4813 C   0  0  0  0  0  0  0  0  0  0  0  0
    7.9904  -13.8845   18.9979 C   0  0  0  0  0  0  0  0  0  0  0  0
    8.4239  -12.9240   18.1087 C   0  0  0  0  0  0  0  0  0  0  0  0
    8.2780  -13.4061   16.8792 N   0  0  0  0  0  0  0  0  0  0  0  0
    7.7551  -14.6657   16.9369 C   0  0  0  0  0  0  0  0  0  0  0  0
    7.5840  -14.9470   18.2380 N   0  0  0  0  0  0  0  0  0  0  0  0
    9.1026  -14.2829   22.5970 C   0  0  0  0  0  0  0  0  0  0  0  0
    9.1282  -13.1111   23.0386 O   0  0  0  0  0  0  0  0  0  0  0  0
    6.1478  -11.8511   28.0579 C   0  0  0  0  0  0  0  0  0  0  0  0
    5.7881  -13.1879   26.8937 S   0  0  0  0  0  0  0  0  0  0  0  0
    7.3600  -14.1267   26.6608 C   0  0  0  0  0  0  0  0  0  0  0  0
    7.5774  -14.3883   25.2082 C   0  0  0  0  0  0  0  0  0  0  0  0
    8.8890  -15.0439   24.9553 C   0  0  2  0  0  0  0  0  0  0  0  0
    9.0657  -15.3486   23.5322 N   0  0  0  0  0  0  0  0  0  0  0  0
    8.9289  -16.3828   25.6277 C   0  0  0  0  0  0  0  0  0  0  0  0
    8.9292  -17.4354   24.9949 O   0  0  0  0  0  0  0  0  0  0  0  0
    8.9655  -16.4547   27.0216 O   0  0  0  0  0  0  0  0  0  0  0  0
  2  1  1  6
  2  3  1  0
  3  4  1  0
  4  8  1  0
  5  4  2  0
  6  2  1  0
  7  6  2  0
  9  6  1  0
 10  9  1  0
 11 12  1  0
 10 11  1  6
 12 13  2  0
 14 13  1  0
 15 14  1  0
 16 15  2  0
 16 12  1  0
 17 18  2  0
 17 10  1  0
 20 19  1  0
 21 20  1  0
 23 22  1  6
 22 21  1  0
 23 24  1  0
 24 17  1  0
 25 23  1  0
 26 25  2  0
 27 25  1  0
M  END
$$$$
