DHM.pdb
     RDKit          3D

 27 27  0  0  1  0  0  0  0  0999 V2000
   11.4623  -19.2712   18.9820 N   0  0  0  0  0  0  0  0  0  0  0  0
   12.2099  -18.3312   19.8251 C   0  0  1  0  0  0  0  0  0  0  0  0
   12.9127  -17.3877   18.8385 C   0  0  0  0  0  0  0  0  0  0  0  0
   14.0455  -18.1114   18.2211 C   0  0  0  0  0  0  0  0  0  0  0  0
   14.2741  -19.3115   18.4429 O   0  0  0  0  0  0  0  0  0  0  0  0
   11.2853  -17.4766   20.5988 C   0  0  0  0  0  0  0  0  0  0  0  0
   11.2296  -16.2568   20.3665 O   0  0  0  0  0  0  0  0  0  0  0  0
   14.8812  -17.4129   17.3583 O   0  0  0  0  0  0  0  0  0  0  0  0
   10.4736  -18.0499   21.5967 N   0  0  0  0  0  0  0  0  0  0  0  0
    9.4088  -17.3072   22.2536 C   0  0  1  0  0  0  0  0  0  0  0  0
    8.2146  -18.2162   22.3761 C   0  0  0  0  0  0  0  0  0  0  0  0
    7.4480  -18.3411   21.1103 C   0  0  0  0  0  0  0  0  0  0  0  0
    7.6331  -17.7099   19.8985 C   0  0  0  0  0  0  0  0  0  0  0  0
    6.6873  -18.1320   19.0662 N   0  0  0  0  0  0  0  0  0  0  0  0
    5.8790  -19.0286   19.7035 C   0  0  0  0  0  0  0  0  0  0  0  0
    6.3547  -19.1483   20.9527 N   0  0  0  0  0  0  0  0  0  0  0  0
    9.8363  -16.8094   23.5758 C   0  0  0  0  0  0  0  0  0  0  0  0
   10.7430  -17.4157   24.1912 O   0  0  0  0  0  0  0  0  0  0  0  0
    5.4726  -12.1216   26.5932 C   0  0  0  0  0  0  0  0  0  0  0  0
    7.2796  -12.1232   26.5123 S   0  0  0  0  0  0  0  0  0  0  0  0
    7.7866  -13.8211   25.9961 C   0  0  0  0  0  0  0  0  0  0  0  0
    9.2698  -13.8775   25.8452 C   0  0  0  0  0  0  0  0  0  0  0  0
    9.7392  -15.2492   25.5104 C   0  0  2  0  0  0  0  0  0  0  0  0
    9.2607  -15.6674   24.1892 N   0  0  0  0  0  0  0  0  0  0  0  0
    9.1315  -16.2418   26.4547 C   0  0  0  0  0  0  0  0  0  0  0  0
    8.1752  -16.9458   26.1413 O   0  0  0  0  0  0  0  0  0  0  0  0
    9.6573  -16.3831   27.7405 O   0  0  0  0  0  0  0  0  0  0  0  0
  2  1  1  6
  2  3  1  0
  3  4  1  0
  4  8  1  0
  5  4  2  0
  6  2  1  0
  7  6  2  0
  9  6  1  0
 10  9  1  0
 11 12  1  0
 10 11  1  1
 12 13  2  0
 14 13  1  0
 15 14  1  0
 16 15  2  0
 16 12  1  0
 17 18  2  0
 17 10  1  0
 20 19  1  0
 21 20  1  0
 23 22  1  1
 22 21  1  0
 23 24  1  0
 24 17  1  0
 25 23  1  0
 26 25  2  0
 27 25  1  0
M  END
$$$$
