DHM.pdb
     RDKit          3D

 27 27  0  0  1  0  0  0  0  0999 V2000
   11.5100  -15.1520   17.7746 N   0  0  0  0  0  0  0  0  0  0  0  0
   11.9165  -15.6808   19.0817 C   0  0  1  0  0  0  0  0  0  0  0  0
   12.7882  -14.5787   19.7006 C   0  0  0  0  0  0  0  0  0  0  0  0
   14.1720  -14.7380   19.2023 C   0  0  0  0  0  0  0  0  0  0  0  0
   14.5715  -15.7794   18.6566 O   0  0  0  0  0  0  0  0  0  0  0  0
   10.7481  -15.8101   19.9774 C   0  0  0  0  0  0  0  0  0  0  0  0
    9.8297  -14.9745   19.9207 O   0  0  0  0  0  0  0  0  0  0  0  0
   15.0527  -13.6740   19.3535 O   0  0  0  0  0  0  0  0  0  0  0  0
   10.6836  -16.8793   20.8918 N   0  0  0  0  0  0  0  0  0  0  0  0
    9.5208  -17.1112   21.7349 C   0  0  1  0  0  0  0  0  0  0  0  0
    9.4544  -18.5841   22.0411 C   0  0  0  0  0  0  0  0  0  0  0  0
    8.3621  -18.9320   22.9852 C   0  0  0  0  0  0  0  0  0  0  0  0
    8.4278  -19.3649   24.2927 C   0  0  0  0  0  0  0  0  0  0  0  0
    7.1864  -19.5629   24.7232 N   0  0  0  0  0  0  0  0  0  0  0  0
    6.3006  -19.2712   23.7263 C   0  0  0  0  0  0  0  0  0  0  0  0
    7.0318  -18.8862   22.6688 N   0  0  0  0  0  0  0  0  0  0  0  0
    9.5868  -16.3127   22.9746 C   0  0  0  0  0  0  0  0  0  0  0  0
   10.7066  -15.9780   23.4249 O   0  0  0  0  0  0  0  0  0  0  0  0
    6.0425  -11.4671   28.0304 C   0  0  0  0  0  0  0  0  0  0  0  0
    5.8664  -12.4164   26.5009 S   0  0  0  0  0  0  0  0  0  0  0  0
    7.4254  -13.3819   26.2926 C   0  0  0  0  0  0  0  0  0  0  0  0
    7.3616  -14.1708   25.0279 C   0  0  0  0  0  0  0  0  0  0  0  0
    8.5800  -15.0025   24.8336 C   0  0  2  0  0  0  0  0  0  0  0  0
    8.4307  -15.9052   23.6881 N   0  0  0  0  0  0  0  0  0  0  0  0
    8.7649  -15.9192   26.0049 C   0  0  0  0  0  0  0  0  0  0  0  0
    8.1565  -16.9809   26.1100 O   0  0  0  0  0  0  0  0  0  0  0  0
    9.6547  -15.5688   27.0223 O   0  0  0  0  0  0  0  0  0  0  0  0
  2  1  1  6
  2  3  1  0
  3  4  1  0
  4  8  1  0
  5  4  2  0
  6  2  1  0
  7  6  2  0
  9  6  1  0
 10  9  1  0
 11 12  1  0
 10 11  1  1
 12 13  2  0
 14 13  1  0
 15 14  1  0
 16 15  2  0
 16 12  1  0
 17 18  2  0
 17 10  1  0
 20 19  1  0
 21 20  1  0
 23 22  1  1
 22 21  1  0
 23 24  1  0
 24 17  1  0
 25 23  1  0
 26 25  2  0
 27 25  1  0
M  END
$$$$
