YLS.pdb
     RDKit          3D

 27 27  0  0  1  0  0  0  0  0999 V2000
   11.9786  -16.1753   31.9019 O   0  0  0  0  0  0  0  0  0  0  0  0
   11.4268  -16.3408   30.6563 C   0  0  0  0  0  0  0  0  0  0  0  0
   10.9391  -15.2413   29.9391 C   0  0  0  0  0  0  0  0  0  0  0  0
   10.3869  -15.4167   28.6900 C   0  0  0  0  0  0  0  0  0  0  0  0
   10.3082  -16.6708   28.1337 C   0  0  0  0  0  0  0  0  0  0  0  0
    9.7295  -16.8511   26.8199 C   0  0  0  0  0  0  0  0  0  0  0  0
    8.2311  -16.9482   26.7643 C   0  0  2  0  0  0  0  0  0  0  0  0
    7.8197  -18.3660   26.8433 N   0  0  0  0  0  0  0  0  0  0  0  0
    7.6107  -16.2898   25.6036 C   0  0  0  0  0  0  0  0  0  0  0  0
    6.7986  -16.9689   24.9086 O   0  0  0  0  0  0  0  0  0  0  0  0
   10.7833  -17.7641   28.8256 C   0  0  0  0  0  0  0  0  0  0  0  0
   11.3468  -17.5910   30.0984 C   0  0  0  0  0  0  0  0  0  0  0  0
    5.5192  -12.5066   26.0950 C   0  0  0  0  0  0  0  0  0  0  0  0
    6.9252  -12.4222   25.6327 C   0  0  2  0  0  0  0  0  0  0  0  0
    7.3581  -10.9378   25.7369 C   0  0  0  0  0  0  0  0  0  0  0  0
    7.2429  -12.8674   24.2617 C   0  0  0  0  0  0  0  0  0  0  0  0
    7.2558  -14.3206   24.0191 C   0  0  2  0  0  0  0  0  0  0  0  0
    7.8514  -14.9789   25.2205 N   0  0  0  0  0  0  0  0  0  0  0  0
    8.0036  -14.8640   22.9037 C   0  0  0  0  0  0  0  0  0  0  0  0
    7.5360  -14.7132   21.7150 O   0  0  0  0  0  0  0  0  0  0  0  0
   11.5303  -14.6644   21.5738 O   0  0  0  0  0  0  0  0  0  0  0  0
   11.2621  -16.0162   21.7240 C   0  0  0  0  0  0  0  0  0  0  0  0
    9.7543  -16.2889   21.7953 C   0  0  2  0  0  0  0  0  0  0  0  0
    9.2481  -15.5660   22.9337 N   0  0  0  0  0  0  0  0  0  0  0  0
    9.6013  -17.7441   21.8450 C   0  0  0  0  0  0  0  0  0  0  0  0
    9.1240  -18.4180   22.7665 O   0  0  0  0  0  0  0  0  0  0  0  0
   10.0548  -18.4412   20.7046 O   0  0  0  0  0  0  0  0  0  0  0  0
  2  1  1  0
  3  2  2  0
  4  3  1  0
  5 11  1  0
  5  4  2  0
  6  5  1  0
  7  9  1  0
  7  6  1  0
  7  8  1  6
  9 10  2  0
 11 12  2  0
 12  2  1  0
 14 13  1  6
 15 14  1  0
 16 14  1  0
 17 16  1  1
 18  9  1  0
 18 17  1  0
 19 24  1  0
 19 17  1  0
 20 19  2  0
 22 21  1  0
 23 22  1  1
 23 24  1  0
 25 23  1  0
 25 27  1  0
 26 25  2  0
M  END
$$$$
