YLS.pdb
     RDKit          3D

 27 27  0  0  1  0  0  0  0  0999 V2000
   12.7771  -17.6190   31.8084 O   0  0  0  0  0  0  0  0  0  0  0  0
   12.1389  -17.2618   30.6472 C   0  0  0  0  0  0  0  0  0  0  0  0
   11.9892  -18.1819   29.6020 C   0  0  0  0  0  0  0  0  0  0  0  0
   11.3476  -17.8147   28.4405 C   0  0  0  0  0  0  0  0  0  0  0  0
   10.8475  -16.5432   28.2936 C   0  0  0  0  0  0  0  0  0  0  0  0
   10.1716  -16.1616   27.0725 C   0  0  0  0  0  0  0  0  0  0  0  0
    8.7777  -16.6934   26.8935 C   0  0  2  0  0  0  0  0  0  0  0  0
    8.8182  -18.1655   26.7631 N   0  0  0  0  0  0  0  0  0  0  0  0
    8.0239  -16.0925   25.7816 C   0  0  0  0  0  0  0  0  0  0  0  0
    7.2110  -16.8346   25.1553 O   0  0  0  0  0  0  0  0  0  0  0  0
   10.9858  -15.6249   29.3121 C   0  0  0  0  0  0  0  0  0  0  0  0
   11.6386  -15.9937   30.4975 C   0  0  0  0  0  0  0  0  0  0  0  0
    6.5906  -10.8371   25.8235 C   0  0  0  0  0  0  0  0  0  0  0  0
    6.3700  -12.1599   25.1917 C   0  0  2  0  0  0  0  0  0  0  0  0
    6.1119  -13.1791   26.3302 C   0  0  0  0  0  0  0  0  0  0  0  0
    7.4405  -12.7226   24.3454 C   0  0  0  0  0  0  0  0  0  0  0  0
    7.4596  -14.1867   24.1806 C   0  0  2  0  0  0  0  0  0  0  0  0
    8.1398  -14.7719   25.3748 N   0  0  0  0  0  0  0  0  0  0  0  0
    8.1430  -14.7814   23.0502 C   0  0  0  0  0  0  0  0  0  0  0  0
    7.4911  -14.9517   21.9546 O   0  0  0  0  0  0  0  0  0  0  0  0
   12.1159  -16.0296   23.0167 O   0  0  0  0  0  0  0  0  0  0  0  0
   11.5886  -15.5206   21.8399 C   0  0  0  0  0  0  0  0  0  0  0  0
   10.0731  -15.7432   21.7567 C   0  0  2  0  0  0  0  0  0  0  0  0
    9.5020  -15.2159   22.9694 N   0  0  0  0  0  0  0  0  0  0  0  0
    9.8797  -17.1769   21.5320 C   0  0  0  0  0  0  0  0  0  0  0  0
    9.3160  -17.9850   22.2806 O   0  0  0  0  0  0  0  0  0  0  0  0
   10.4013  -17.6769   20.3195 O   0  0  0  0  0  0  0  0  0  0  0  0
  2  1  1  0
  3  2  2  0
  4  3  1  0
  5 11  1  0
  5  4  2  0
  6  5  1  0
  7  9  1  0
  7  6  1  0
  7  8  1  6
  9 10  2  0
 11 12  2  0
 12  2  1  0
 14 13  1  1
 15 14  1  0
 16 14  1  0
 17 16  1  6
 18  9  1  0
 18 17  1  0
 19 24  1  0
 19 17  1  0
 20 19  2  0
 22 21  1  0
 23 22  1  1
 23 24  1  0
 25 23  1  0
 25 27  1  0
 26 25  2  0
M  END
$$$$
