YLS.pdb
     RDKit          3D

 27 27  0  0  1  0  0  0  0  0999 V2000
    8.3386  -23.5370   14.7668 O   0  0  0  0  0  0  0  0  0  0  0  0
    8.7194  -22.5482   15.6389 C   0  0  0  0  0  0  0  0  0  0  0  0
   10.0246  -22.5055   16.1450 C   0  0  0  0  0  0  0  0  0  0  0  0
   10.3979  -21.5097   17.0195 C   0  0  0  0  0  0  0  0  0  0  0  0
    9.4955  -20.5478   17.4052 C   0  0  0  0  0  0  0  0  0  0  0  0
    9.8920  -19.5014   18.3225 C   0  0  0  0  0  0  0  0  0  0  0  0
    9.6097  -18.0929   17.8818 C   0  0  2  0  0  0  0  0  0  0  0  0
   10.2949  -17.8244   16.5996 N   0  0  0  0  0  0  0  0  0  0  0  0
    9.9366  -17.0565   18.8741 C   0  0  0  0  0  0  0  0  0  0  0  0
   11.1600  -16.7878   19.0603 O   0  0  0  0  0  0  0  0  0  0  0  0
    8.2069  -20.5745   16.9168 C   0  0  0  0  0  0  0  0  0  0  0  0
    7.8213  -21.5866   16.0257 C   0  0  0  0  0  0  0  0  0  0  0  0
    8.8042  -12.5171   19.5899 C   0  0  0  0  0  0  0  0  0  0  0  0
    7.8279  -13.5900   19.8953 C   0  0  2  0  0  0  0  0  0  0  0  0
    6.4988  -12.9042   20.3012 C   0  0  0  0  0  0  0  0  0  0  0  0
    8.1558  -14.5570   20.9612 C   0  0  0  0  0  0  0  0  0  0  0  0
    9.3266  -15.4232   20.7381 C   0  0  2  0  0  0  0  0  0  0  0  0
    8.9994  -16.3534   19.6160 N   0  0  0  0  0  0  0  0  0  0  0  0
    9.8007  -16.2905   21.7972 C   0  0  0  0  0  0  0  0  0  0  0  0
    9.0048  -17.1868   22.2637 O   0  0  0  0  0  0  0  0  0  0  0  0
   13.3533  -17.8098   22.4352 O   0  0  0  0  0  0  0  0  0  0  0  0
   12.2614  -18.2461   23.1697 C   0  0  0  0  0  0  0  0  0  0  0  0
   11.3665  -17.0772   23.6007 C   0  0  2  0  0  0  0  0  0  0  0  0
   11.0871  -16.3018   22.4194 N   0  0  0  0  0  0  0  0  0  0  0  0
   12.0876  -16.3782   24.6661 C   0  0  0  0  0  0  0  0  0  0  0  0
   12.4989  -15.2113   24.6541 O   0  0  0  0  0  0  0  0  0  0  0  0
   12.3327  -17.1361   25.8313 O   0  0  0  0  0  0  0  0  0  0  0  0
  2  1  1  0
  3  2  2  0
  4  3  1  0
  5 11  1  0
  5  4  2  0
  6  5  1  0
  7  9  1  0
  7  6  1  0
  7  8  1  6
  9 10  2  0
 11 12  2  0
 12  2  1  0
 14 13  1  1
 15 14  1  0
 16 14  1  0
 17 16  1  1
 18  9  1  0
 18 17  1  0
 19 24  1  0
 19 17  1  0
 20 19  2  0
 22 21  1  0
 23 22  1  6
 23 24  1  0
 25 23  1  0
 25 27  1  0
 26 25  2  0
M  END
$$$$
