YLS.pdb
     RDKit          3D

 27 27  0  0  1  0  0  0  0  0999 V2000
    6.0963  -10.5183   27.9346 O   0  0  0  0  0  0  0  0  0  0  0  0
    6.4906  -11.7489   27.4727 C   0  0  0  0  0  0  0  0  0  0  0  0
    7.3972  -12.5288   28.2016 C   0  0  0  0  0  0  0  0  0  0  0  0
    7.7873  -13.7623   27.7306 C   0  0  0  0  0  0  0  0  0  0  0  0
    7.2923  -14.2418   26.5417 C   0  0  0  0  0  0  0  0  0  0  0  0
    7.7025  -15.5396   26.0509 C   0  0  0  0  0  0  0  0  0  0  0  0
    6.7921  -16.1848   25.0446 C   0  0  2  0  0  0  0  0  0  0  0  0
    6.3965  -17.5281   25.5188 N   0  0  0  0  0  0  0  0  0  0  0  0
    7.3305  -16.2528   23.6767 C   0  0  0  0  0  0  0  0  0  0  0  0
    7.6247  -17.3961   23.2183 O   0  0  0  0  0  0  0  0  0  0  0  0
    6.3991  -13.4876   25.8114 C   0  0  0  0  0  0  0  0  0  0  0  0
    5.9984  -12.2303   26.2866 C   0  0  0  0  0  0  0  0  0  0  0  0
    8.3162  -12.3365   18.8905 C   0  0  0  0  0  0  0  0  0  0  0  0
    8.3197  -13.7040   19.4628 C   0  0  2  0  0  0  0  0  0  0  0  0
    7.4595  -14.5968   18.5330 C   0  0  0  0  0  0  0  0  0  0  0  0
    7.8086  -13.8939   20.8345 C   0  0  0  0  0  0  0  0  0  0  0  0
    7.9912  -15.2269   21.4351 C   0  0  2  0  0  0  0  0  0  0  0  0
    7.5350  -15.1542   22.8557 N   0  0  0  0  0  0  0  0  0  0  0  0
    9.3134  -15.8138   21.5119 C   0  0  0  0  0  0  0  0  0  0  0  0
   10.1822  -15.2779   22.2945 O   0  0  0  0  0  0  0  0  0  0  0  0
   10.3870  -19.5160   20.1066 O   0  0  0  0  0  0  0  0  0  0  0  0
   11.1789  -18.9080   21.0685 C   0  0  0  0  0  0  0  0  0  0  0  0
   11.1858  -17.3820   20.9128 C   0  0  2  0  0  0  0  0  0  0  0  0
    9.8114  -16.9610   20.8204 N   0  0  0  0  0  0  0  0  0  0  0  0
   12.0213  -17.0912   19.7463 C   0  0  0  0  0  0  0  0  0  0  0  0
   11.6617  -16.6010   18.6686 O   0  0  0  0  0  0  0  0  0  0  0  0
   13.3887  -17.4126   19.8840 O   0  0  0  0  0  0  0  0  0  0  0  0
  2  1  1  0
  3  2  2  0
  4  3  1  0
  5 11  1  0
  5  4  2  0
  6  5  1  0
  7  9  1  0
  7  6  1  0
  7  8  1  1
  9 10  2  0
 11 12  2  0
 12  2  1  0
 14 13  1  6
 15 14  1  0
 16 14  1  0
 17 16  1  1
 18  9  1  0
 18 17  1  0
 19 24  1  0
 19 17  1  0
 20 19  2  0
 22 21  1  0
 23 22  1  6
 23 24  1  0
 25 23  1  0
 25 27  1  0
 26 25  2  0
M  END
$$$$
