YLS.pdb
     RDKit          3D

 27 27  0  0  1  0  0  0  0  0999 V2000
   11.2175  -14.2904   31.3687 O   0  0  0  0  0  0  0  0  0  0  0  0
   10.8772  -15.0813   30.3001 C   0  0  0  0  0  0  0  0  0  0  0  0
   10.6047  -14.5137   29.0492 C   0  0  0  0  0  0  0  0  0  0  0  0
   10.2640  -15.3150   27.9826 C   0  0  0  0  0  0  0  0  0  0  0  0
   10.1875  -16.6788   28.1330 C   0  0  0  0  0  0  0  0  0  0  0  0
    9.8315  -17.5179   27.0094 C   0  0  0  0  0  0  0  0  0  0  0  0
    8.3683  -17.5918   26.6758 C   0  0  2  0  0  0  0  0  0  0  0  0
    7.9327  -19.0044   26.6521 N   0  0  0  0  0  0  0  0  0  0  0  0
    7.9814  -16.9064   25.4324 C   0  0  0  0  0  0  0  0  0  0  0  0
    7.5778  -17.6225   24.4690 O   0  0  0  0  0  0  0  0  0  0  0  0
   10.4525  -17.2543   29.3571 C   0  0  0  0  0  0  0  0  0  0  0  0
   10.8001  -16.4427   30.4469 C   0  0  0  0  0  0  0  0  0  0  0  0
    5.6206  -13.1527   25.9020 C   0  0  0  0  0  0  0  0  0  0  0  0
    7.0698  -13.0741   25.5997 C   0  0  2  0  0  0  0  0  0  0  0  0
    7.5212  -11.6172   25.8736 C   0  0  0  0  0  0  0  0  0  0  0  0
    7.5237  -13.4159   24.2373 C   0  0  0  0  0  0  0  0  0  0  0  0
    7.7491  -14.8430   23.9483 C   0  0  2  0  0  0  0  0  0  0  0  0
    8.0254  -15.5333   25.2439 N   0  0  0  0  0  0  0  0  0  0  0  0
    8.8415  -15.2457   23.0864 C   0  0  0  0  0  0  0  0  0  0  0  0
    9.9842  -14.6727   23.2295 O   0  0  0  0  0  0  0  0  0  0  0  0
    9.4552  -18.7484   21.3482 O   0  0  0  0  0  0  0  0  0  0  0  0
   10.4715  -17.8072   21.2905 C   0  0  0  0  0  0  0  0  0  0  0  0
    9.9176  -16.3868   21.1208 C   0  0  2  0  0  0  0  0  0  0  0  0
    8.8358  -16.2406   22.0606 N   0  0  0  0  0  0  0  0  0  0  0  0
    9.5573  -16.2519   19.7082 C   0  0  0  0  0  0  0  0  0  0  0  0
    8.4258  -16.0914   19.2339 O   0  0  0  0  0  0  0  0  0  0  0  0
   10.6347  -16.3143   18.7986 O   0  0  0  0  0  0  0  0  0  0  0  0
  2  1  1  0
  3  2  2  0
  4  3  1  0
  5 11  1  0
  5  4  2  0
  6  5  1  0
  7  9  1  0
  7  6  1  0
  7  8  1  6
  9 10  2  0
 11 12  2  0
 12  2  1  0
 14 13  1  6
 15 14  1  0
 16 14  1  0
 17 16  1  1
 18  9  1  0
 18 17  1  0
 19 24  1  0
 19 17  1  0
 20 19  2  0
 22 21  1  0
 23 22  1  6
 23 24  1  0
 25 23  1  0
 25 27  1  0
 26 25  2  0
M  END
$$$$
