YLS.pdb
     RDKit          3D

 27 27  0  0  1  0  0  0  0  0999 V2000
   12.2213  -16.7274   32.0267 O   0  0  0  0  0  0  0  0  0  0  0  0
   11.6742  -16.7120   30.7682 C   0  0  0  0  0  0  0  0  0  0  0  0
   11.0525  -15.5588   30.2734 C   0  0  0  0  0  0  0  0  0  0  0  0
   10.5062  -15.5524   29.0095 C   0  0  0  0  0  0  0  0  0  0  0  0
   10.5648  -16.6759   28.2203 C   0  0  0  0  0  0  0  0  0  0  0  0
    9.9918  -16.6649   26.8918 C   0  0  0  0  0  0  0  0  0  0  0  0
    8.5202  -16.9552   26.8032 C   0  0  2  0  0  0  0  0  0  0  0  0
    8.2960  -18.4157   26.8505 N   0  0  0  0  0  0  0  0  0  0  0  0
    7.8409  -16.3613   25.6406 C   0  0  0  0  0  0  0  0  0  0  0  0
    7.1541  -17.1311   24.9061 O   0  0  0  0  0  0  0  0  0  0  0  0
   11.1730  -17.8196   28.6913 C   0  0  0  0  0  0  0  0  0  0  0  0
   11.7310  -17.8315   29.9781 C   0  0  0  0  0  0  0  0  0  0  0  0
    5.6356  -12.4897   26.3332 C   0  0  0  0  0  0  0  0  0  0  0  0
    6.9917  -12.4641   25.7350 C   0  0  2  0  0  0  0  0  0  0  0  0
    7.4830  -10.9946   25.7653 C   0  0  0  0  0  0  0  0  0  0  0  0
    7.1586  -12.9446   24.3493 C   0  0  0  0  0  0  0  0  0  0  0  0
    7.1691  -14.4040   24.1467 C   0  0  2  0  0  0  0  0  0  0  0  0
    7.8986  -15.0194   25.2959 N   0  0  0  0  0  0  0  0  0  0  0  0
    7.8035  -14.9698   22.9738 C   0  0  0  0  0  0  0  0  0  0  0  0
    7.4895  -14.5037   21.8168 O   0  0  0  0  0  0  0  0  0  0  0  0
   11.2746  -15.0757   21.6507 O   0  0  0  0  0  0  0  0  0  0  0  0
   10.0667  -15.3251   21.0177 C   0  0  0  0  0  0  0  0  0  0  0  0
    9.3183  -16.4950   21.6689 C   0  0  2  0  0  0  0  0  0  0  0  0
    8.7805  -16.0110   22.9144 N   0  0  0  0  0  0  0  0  0  0  0  0
   10.2820  -17.5922   21.7742 C   0  0  0  0  0  0  0  0  0  0  0  0
   10.8821  -18.1558   20.8505 O   0  0  0  0  0  0  0  0  0  0  0  0
   10.5442  -18.0458   23.0848 O   0  0  0  0  0  0  0  0  0  0  0  0
  2  1  1  0
  3  2  2  0
  4  3  1  0
  5 11  1  0
  5  4  2  0
  6  5  1  0
  7  9  1  0
  7  6  1  0
  7  8  1  6
  9 10  2  0
 11 12  2  0
 12  2  1  0
 14 13  1  6
 15 14  1  0
 16 14  1  0
 17 16  1  6
 18  9  1  0
 18 17  1  0
 19 24  1  0
 19 17  1  0
 20 19  2  0
 22 21  1  0
 23 22  1  1
 23 24  1  0
 25 23  1  0
 25 27  1  0
 26 25  2  0
M  END
$$$$
