YLS.pdb
     RDKit          3D

 27 27  0  0  1  0  0  0  0  0999 V2000
    5.0650  -23.2398   28.2011 O   0  0  0  0  0  0  0  0  0  0  0  0
    5.5883  -22.1939   27.4830 C   0  0  0  0  0  0  0  0  0  0  0  0
    6.9284  -21.8189   27.6402 C   0  0  0  0  0  0  0  0  0  0  0  0
    7.4449  -20.7682   26.9156 C   0  0  0  0  0  0  0  0  0  0  0  0
    6.6525  -20.0764   26.0313 C   0  0  0  0  0  0  0  0  0  0  0  0
    7.1993  -18.9744   25.2698 C   0  0  0  0  0  0  0  0  0  0  0  0
    6.9897  -19.0289   23.7828 C   0  0  2  0  0  0  0  0  0  0  0  0
    7.2340  -20.4028   23.2945 N   0  0  0  0  0  0  0  0  0  0  0  0
    7.7763  -18.0540   23.0106 C   0  0  0  0  0  0  0  0  0  0  0  0
    8.6254  -18.5061   22.1869 O   0  0  0  0  0  0  0  0  0  0  0  0
    5.3314  -20.4320   25.8641 C   0  0  0  0  0  0  0  0  0  0  0  0
    4.8002  -21.5015   26.5997 C   0  0  0  0  0  0  0  0  0  0  0  0
    7.6885  -14.3152   19.7084 C   0  0  0  0  0  0  0  0  0  0  0  0
    6.9602  -14.3139   20.9996 C   0  0  2  0  0  0  0  0  0  0  0  0
    6.1844  -12.9755   21.0918 C   0  0  0  0  0  0  0  0  0  0  0  0
    7.7388  -14.4463   22.2467 C   0  0  0  0  0  0  0  0  0  0  0  0
    8.5181  -15.6851   22.4174 C   0  0  2  0  0  0  0  0  0  0  0  0
    7.6504  -16.6773   23.1202 N   0  0  0  0  0  0  0  0  0  0  0  0
    9.7448  -15.6709   23.1878 C   0  0  0  0  0  0  0  0  0  0  0  0
   10.3954  -14.5662   23.2921 O   0  0  0  0  0  0  0  0  0  0  0  0
   10.1423  -16.2524   26.7415 O   0  0  0  0  0  0  0  0  0  0  0  0
   11.0401  -15.6296   25.8883 C   0  0  0  0  0  0  0  0  0  0  0  0
   11.4909  -16.5663   24.7603 C   0  0  2  0  0  0  0  0  0  0  0  0
   10.3588  -16.7537   23.8897 N   0  0  0  0  0  0  0  0  0  0  0  0
   12.0030  -17.7747   25.4091 C   0  0  0  0  0  0  0  0  0  0  0  0
   12.9824  -17.8664   26.1596 O   0  0  0  0  0  0  0  0  0  0  0  0
   11.2864  -18.9598   25.1366 O   0  0  0  0  0  0  0  0  0  0  0  0
  2  1  1  0
  3  2  2  0
  4  3  1  0
  5 11  1  0
  5  4  2  0
  6  5  1  0
  7  9  1  0
  7  6  1  0
  7  8  1  6
  9 10  2  0
 11 12  2  0
 12  2  1  0
 14 13  1  6
 15 14  1  0
 16 14  1  0
 17 16  1  1
 18  9  1  0
 18 17  1  0
 19 24  1  0
 19 17  1  0
 20 19  2  0
 22 21  1  0
 23 22  1  1
 23 24  1  0
 25 23  1  0
 25 27  1  0
 26 25  2  0
M  END
$$$$
