YLS.pdb
     RDKit          3D

 27 27  0  0  1  0  0  0  0  0999 V2000
    7.2735  -14.8425   15.3679 O   0  0  0  0  0  0  0  0  0  0  0  0
    7.7520  -14.6497   16.6396 C   0  0  0  0  0  0  0  0  0  0  0  0
    7.3803  -13.5200   17.3792 C   0  0  0  0  0  0  0  0  0  0  0  0
    7.8653  -13.3346   18.6544 C   0  0  0  0  0  0  0  0  0  0  0  0
    8.7182  -14.2546   19.2153 C   0  0  0  0  0  0  0  0  0  0  0  0
    9.2240  -14.0578   20.5565 C   0  0  0  0  0  0  0  0  0  0  0  0
    9.0191  -15.1967   21.5149 C   0  0  2  0  0  0  0  0  0  0  0  0
    7.7349  -15.8689   21.2238 N   0  0  0  0  0  0  0  0  0  0  0  0
    9.1050  -14.8315   22.9379 C   0  0  0  0  0  0  0  0  0  0  0  0
   10.2512  -14.5681   23.4077 O   0  0  0  0  0  0  0  0  0  0  0  0
    9.0944  -15.3722   18.5017 C   0  0  0  0  0  0  0  0  0  0  0  0
    8.6033  -15.5659   17.2022 C   0  0  0  0  0  0  0  0  0  0  0  0
    5.4087  -12.3916   27.2538 C   0  0  0  0  0  0  0  0  0  0  0  0
    6.6967  -13.0235   26.8806 C   0  0  2  0  0  0  0  0  0  0  0  0
    7.8089  -11.9643   27.0878 C   0  0  0  0  0  0  0  0  0  0  0  0
    6.8521  -13.5473   25.5093 C   0  0  0  0  0  0  0  0  0  0  0  0
    8.0897  -14.2912   25.2163 C   0  0  2  0  0  0  0  0  0  0  0  0
    8.0198  -14.7534   23.7975 N   0  0  0  0  0  0  0  0  0  0  0  0
    8.4139  -15.4862   25.9681 C   0  0  0  0  0  0  0  0  0  0  0  0
    8.5169  -15.4016   27.2475 O   0  0  0  0  0  0  0  0  0  0  0  0
    9.4110  -19.2102   24.3488 O   0  0  0  0  0  0  0  0  0  0  0  0
    8.7019  -19.1983   25.5400 C   0  0  0  0  0  0  0  0  0  0  0  0
    8.9580  -17.9134   26.3376 C   0  0  2  0  0  0  0  0  0  0  0  0
    8.6352  -16.8081   25.4722 N   0  0  0  0  0  0  0  0  0  0  0  0
   10.3479  -17.9818   26.7926 C   0  0  0  0  0  0  0  0  0  0  0  0
   11.2827  -17.2404   26.4647 O   0  0  0  0  0  0  0  0  0  0  0  0
   10.6364  -19.0164   27.7083 O   0  0  0  0  0  0  0  0  0  0  0  0
  2  1  1  0
  3  2  2  0
  4  3  1  0
  5 11  1  0
  5  4  2  0
  6  5  1  0
  7  9  1  0
  7  6  1  0
  7  8  1  1
  9 10  2  0
 11 12  2  0
 12  2  1  0
 14 13  1  6
 15 14  1  0
 16 14  1  0
 17 16  1  1
 18  9  1  0
 18 17  1  0
 19 24  1  0
 19 17  1  0
 20 19  2  0
 22 21  1  0
 23 22  1  6
 23 24  1  0
 25 23  1  0
 25 27  1  0
 26 25  2  0
M  END
$$$$
