INI.pdb
     RDKit          3D

 25 24  0  0  1  0  0  0  0  0999 V2000
    7.2561  -12.3689   18.2171 C   0  0  0  0  0  0  0  0  0  0  0  0
    8.0253  -13.4729   18.8477 C   0  0  0  0  0  0  0  0  0  0  0  0
    7.6613  -13.8376   20.2411 C   0  0  2  0  0  0  0  0  0  0  0  0
    8.0247  -12.6572   21.1514 C   0  0  0  0  0  0  0  0  0  0  0  0
    8.3512  -15.0377   20.7874 C   0  0  2  0  0  0  0  0  0  0  0  0
    8.3659  -16.0972   19.8466 N   0  0  0  0  0  0  0  0  0  0  0  0
    7.9160  -15.4105   22.1693 C   0  0  0  0  0  0  0  0  0  0  0  0
    7.2534  -14.5460   22.8009 O   0  0  0  0  0  0  0  0  0  0  0  0
    9.9602  -18.9665   23.8390 N   0  0  0  0  0  0  0  0  0  0  0  0
    8.6551  -19.4725   24.0395 C   0  0  0  0  0  0  0  0  0  0  0  0
    8.4704  -20.7113   24.0518 O   0  0  0  0  0  0  0  0  0  0  0  0
    7.5145  -18.5537   24.2339 C   0  0  0  0  0  0  0  0  0  0  0  0
    7.9101  -17.1067   24.1019 C   0  0  2  0  0  0  0  0  0  0  0  0
    8.2032  -16.6418   22.7789 N   0  0  0  0  0  0  0  0  0  0  0  0
    8.8348  -16.5845   25.0813 C   0  0  0  0  0  0  0  0  0  0  0  0
   10.0587  -16.4693   24.7026 O   0  0  0  0  0  0  0  0  0  0  0  0
    7.1811  -12.4017   27.6376 C   0  0  0  0  0  0  0  0  0  0  0  0
    8.0703  -13.3814   26.8862 C   0  0  0  0  0  0  0  0  0  0  0  0
    8.8422  -14.2564   27.8352 C   0  0  2  0  0  0  0  0  0  0  0  0
    9.7988  -13.3744   28.6054 C   0  0  0  0  0  0  0  0  0  0  0  0
    9.5053  -15.4234   27.1744 C   0  0  2  0  0  0  0  0  0  0  0  0
    8.5437  -16.1932   26.3892 N   0  0  0  0  0  0  0  0  0  0  0  0
   10.2661  -16.3116   28.0813 C   0  0  0  0  0  0  0  0  0  0  0  0
   11.5736  -16.0423   28.4904 O   0  0  0  0  0  0  0  0  0  0  0  0
    9.7485  -17.3561   28.5201 O   0  0  0  0  0  0  0  0  0  0  0  0
  2  1  1  0
  2  3  1  0
  3  5  1  0
  3  4  1  1
  5  6  1  6
  7  5  1  0
  7  8  2  0
 10 12  1  0
 10  9  1  0
 11 10  2  0
 13 12  1  6
 13 14  1  0
 14  7  1  0
 15 13  1  0
 16 15  2  0
 18 17  1  0
 18 19  1  0
 19 21  1  0
 19 20  1  6
 21 22  1  1
 21 23  1  0
 22 15  1  0
 23 25  2  0
 23 24  1  0
M  END
$$$$
