INI.pdb
     RDKit          3D

 25 24  0  0  1  0  0  0  0  0999 V2000
    7.4720  -11.9835   19.0901 C   0  0  0  0  0  0  0  0  0  0  0  0
    7.8164  -13.4127   19.3071 C   0  0  0  0  0  0  0  0  0  0  0  0
    7.5888  -13.9614   20.6687 C   0  0  2  0  0  0  0  0  0  0  0  0
    8.4910  -13.1965   21.6460 C   0  0  0  0  0  0  0  0  0  0  0  0
    7.8962  -15.4082   20.8331 C   0  0  2  0  0  0  0  0  0  0  0  0
    7.4424  -16.1615   19.7220 N   0  0  0  0  0  0  0  0  0  0  0  0
    7.5293  -15.9571   22.1755 C   0  0  0  0  0  0  0  0  0  0  0  0
    6.5137  -15.4575   22.7271 O   0  0  0  0  0  0  0  0  0  0  0  0
   12.4361  -18.2726   23.3245 N   0  0  0  0  0  0  0  0  0  0  0  0
   12.0286  -17.0379   22.7685 C   0  0  0  0  0  0  0  0  0  0  0  0
   12.8351  -16.0800   22.7394 O   0  0  0  0  0  0  0  0  0  0  0  0
   10.6650  -16.8721   22.2246 C   0  0  0  0  0  0  0  0  0  0  0  0
    9.6018  -17.0010   23.2833 C   0  0  2  0  0  0  0  0  0  0  0  0
    8.2425  -16.9726   22.8315 N   0  0  0  0  0  0  0  0  0  0  0  0
    9.7886  -16.2450   24.5001 C   0  0  0  0  0  0  0  0  0  0  0  0
   10.9773  -16.2442   24.9918 O   0  0  0  0  0  0  0  0  0  0  0  0
    6.2720  -12.2154   25.8619 C   0  0  0  0  0  0  0  0  0  0  0  0
    7.4924  -13.0388   25.4774 C   0  0  0  0  0  0  0  0  0  0  0  0
    8.0848  -13.7290   26.6752 C   0  0  2  0  0  0  0  0  0  0  0  0
    8.4899  -12.6650   27.6702 C   0  0  0  0  0  0  0  0  0  0  0  0
    9.1871  -14.6823   26.3371 C   0  0  2  0  0  0  0  0  0  0  0  0
    8.8214  -15.5185   25.1966 N   0  0  0  0  0  0  0  0  0  0  0  0
    9.6649  -15.5167   27.4621 C   0  0  0  0  0  0  0  0  0  0  0  0
   10.6947  -15.1225   28.3186 O   0  0  0  0  0  0  0  0  0  0  0  0
    9.1480  -16.6277   27.6858 O   0  0  0  0  0  0  0  0  0  0  0  0
  2  1  1  0
  2  3  1  0
  3  5  1  0
  3  4  1  1
  5  6  1  6
  7  5  1  0
  7  8  2  0
 10 12  1  0
 10  9  1  0
 11 10  2  0
 13 12  1  6
 13 14  1  0
 14  7  1  0
 15 13  1  0
 16 15  2  0
 18 17  1  0
 18 19  1  0
 19 21  1  0
 19 20  1  1
 21 22  1  6
 21 23  1  0
 22 15  1  0
 23 25  2  0
 23 24  1  0
M  END
$$$$
