INI.pdb
     RDKit          3D

 25 24  0  0  1  0  0  0  0  0999 V2000
    7.6881  -11.9229   18.8555 C   0  0  0  0  0  0  0  0  0  0  0  0
    8.0383  -13.3616   18.9812 C   0  0  0  0  0  0  0  0  0  0  0  0
    7.9300  -13.9656   20.3341 C   0  0  2  0  0  0  0  0  0  0  0  0
    8.9140  -13.2378   21.2594 C   0  0  0  0  0  0  0  0  0  0  0  0
    8.2504  -15.4169   20.4123 C   0  0  2  0  0  0  0  0  0  0  0  0
    7.5591  -16.1521   19.4176 N   0  0  0  0  0  0  0  0  0  0  0  0
    8.1768  -15.9802   21.7963 C   0  0  0  0  0  0  0  0  0  0  0  0
    7.0413  -15.9846   22.3402 O   0  0  0  0  0  0  0  0  0  0  0  0
   12.5959  -18.2731   24.1122 N   0  0  0  0  0  0  0  0  0  0  0  0
   11.4240  -18.3249   23.3225 C   0  0  0  0  0  0  0  0  0  0  0  0
   11.5237  -18.3506   22.0742 O   0  0  0  0  0  0  0  0  0  0  0  0
   10.0902  -18.3491   23.9576 C   0  0  0  0  0  0  0  0  0  0  0  0
    9.3610  -17.0390   23.8183 C   0  0  2  0  0  0  0  0  0  0  0  0
    9.2810  -16.4886   22.4980 N   0  0  0  0  0  0  0  0  0  0  0  0
    9.6258  -16.0282   24.8159 C   0  0  0  0  0  0  0  0  0  0  0  0
   10.5914  -15.2174   24.5610 O   0  0  0  0  0  0  0  0  0  0  0  0
    6.2131  -12.6017   26.3741 C   0  0  0  0  0  0  0  0  0  0  0  0
    7.5123  -13.3101   26.0200 C   0  0  0  0  0  0  0  0  0  0  0  0
    8.1752  -13.8789   27.2443 C   0  0  2  0  0  0  0  0  0  0  0  0
    8.5204  -12.7278   28.1618 C   0  0  0  0  0  0  0  0  0  0  0  0
    9.3374  -14.7708   26.9406 C   0  0  2  0  0  0  0  0  0  0  0  0
    8.9491  -15.8380   26.0219 N   0  0  0  0  0  0  0  0  0  0  0  0
   10.0286  -15.3290   28.1241 C   0  0  0  0  0  0  0  0  0  0  0  0
   10.9812  -14.6168   28.8555 O   0  0  0  0  0  0  0  0  0  0  0  0
    9.7743  -16.4839   28.5154 O   0  0  0  0  0  0  0  0  0  0  0  0
  2  1  1  0
  2  3  1  0
  3  5  1  0
  3  4  1  1
  5  6  1  6
  7  5  1  0
  7  8  2  0
 10 12  1  0
 10  9  1  0
 11 10  2  0
 13 12  1  6
 13 14  1  0
 14  7  1  0
 15 13  1  0
 16 15  2  0
 18 17  1  0
 18 19  1  0
 19 21  1  0
 19 20  1  1
 21 22  1  6
 21 23  1  0
 22 15  1  0
 23 25  2  0
 23 24  1  0
M  END
$$$$
