INI.pdb
     RDKit          3D

 25 24  0  0  1  0  0  0  0  0999 V2000
    6.9815  -11.8291   19.7641 C   0  0  0  0  0  0  0  0  0  0  0  0
    7.0951  -13.3097   19.7077 C   0  0  0  0  0  0  0  0  0  0  0  0
    7.5610  -13.9971   20.9395 C   0  0  2  0  0  0  0  0  0  0  0  0
    8.9720  -13.4883   21.2626 C   0  0  0  0  0  0  0  0  0  0  0  0
    7.6424  -15.4805   20.8503 C   0  0  2  0  0  0  0  0  0  0  0  0
    6.4129  -16.0398   20.4222 N   0  0  0  0  0  0  0  0  0  0  0  0
    8.2602  -16.1268   22.0497 C   0  0  0  0  0  0  0  0  0  0  0  0
    7.4651  -16.5759   22.9167 O   0  0  0  0  0  0  0  0  0  0  0  0
   11.7818  -19.2778   24.7353 N   0  0  0  0  0  0  0  0  0  0  0  0
   12.3470  -18.1363   24.1214 C   0  0  0  0  0  0  0  0  0  0  0  0
   13.4162  -17.6621   24.5696 O   0  0  0  0  0  0  0  0  0  0  0  0
   11.6877  -17.5033   22.9605 C   0  0  0  0  0  0  0  0  0  0  0  0
   10.3683  -16.8724   23.3194 C   0  0  2  0  0  0  0  0  0  0  0  0
    9.6437  -16.2526   22.2501 N   0  0  0  0  0  0  0  0  0  0  0  0
   10.3194  -16.0937   24.5352 C   0  0  0  0  0  0  0  0  0  0  0  0
   11.4446  -15.8875   25.1237 O   0  0  0  0  0  0  0  0  0  0  0  0
    6.5733  -12.2253   25.3752 C   0  0  0  0  0  0  0  0  0  0  0  0
    7.8915  -12.9784   25.2727 C   0  0  0  0  0  0  0  0  0  0  0  0
    8.1382  -13.8162   26.4972 C   0  0  2  0  0  0  0  0  0  0  0  0
    8.2512  -12.8837   27.6820 C   0  0  0  0  0  0  0  0  0  0  0  0
    9.2958  -14.7543   26.3619 C   0  0  2  0  0  0  0  0  0  0  0  0
    9.1868  -15.5433   25.1375 N   0  0  0  0  0  0  0  0  0  0  0  0
    9.5328  -15.6338   27.5283 C   0  0  0  0  0  0  0  0  0  0  0  0
    9.1435  -16.9743   27.5625 O   0  0  0  0  0  0  0  0  0  0  0  0
   10.1034  -15.1928   28.5439 O   0  0  0  0  0  0  0  0  0  0  0  0
  2  1  1  0
  2  3  1  0
  3  5  1  0
  3  4  1  6
  5  6  1  1
  7  5  1  0
  7  8  2  0
 10 12  1  0
 10  9  1  0
 11 10  2  0
 13 12  1  6
 13 14  1  0
 14  7  1  0
 15 13  1  0
 16 15  2  0
 18 17  1  0
 18 19  1  0
 19 21  1  0
 19 20  1  1
 21 22  1  6
 21 23  1  0
 22 15  1  0
 23 25  2  0
 23 24  1  0
M  END
$$$$
