INI.pdb
     RDKit          3D

 25 24  0  0  1  0  0  0  0  0999 V2000
    7.8608  -11.9871   18.5385 C   0  0  0  0  0  0  0  0  0  0  0  0
    8.0420  -13.4540   18.6916 C   0  0  0  0  0  0  0  0  0  0  0  0
    7.6013  -14.0569   19.9759 C   0  0  2  0  0  0  0  0  0  0  0  0
    8.4617  -13.4635   21.0992 C   0  0  0  0  0  0  0  0  0  0  0  0
    7.7306  -15.5369   20.0635 C   0  0  2  0  0  0  0  0  0  0  0  0
    7.1742  -16.1716   18.9253 N   0  0  0  0  0  0  0  0  0  0  0  0
    7.3154  -16.1046   21.3839 C   0  0  0  0  0  0  0  0  0  0  0  0
    6.1033  -15.9686   21.6965 O   0  0  0  0  0  0  0  0  0  0  0  0
    5.8702  -18.4123   24.9682 N   0  0  0  0  0  0  0  0  0  0  0  0
    6.9448  -19.2454   24.5799 C   0  0  0  0  0  0  0  0  0  0  0  0
    6.9055  -20.4674   24.8519 O   0  0  0  0  0  0  0  0  0  0  0  0
    8.1070  -18.6861   23.8592 C   0  0  0  0  0  0  0  0  0  0  0  0
    7.9750  -17.2066   23.6116 C   0  0  2  0  0  0  0  0  0  0  0  0
    8.1869  -16.7618   22.2663 N   0  0  0  0  0  0  0  0  0  0  0  0
    8.5765  -16.3201   24.5807 C   0  0  0  0  0  0  0  0  0  0  0  0
    9.7808  -15.9412   24.3339 O   0  0  0  0  0  0  0  0  0  0  0  0
    6.3287  -12.0363   26.6503 C   0  0  0  0  0  0  0  0  0  0  0  0
    7.2897  -13.0721   26.0855 C   0  0  0  0  0  0  0  0  0  0  0  0
    7.9468  -13.8629   27.1831 C   0  0  2  0  0  0  0  0  0  0  0  0
    8.7278  -12.8979   28.0462 C   0  0  0  0  0  0  0  0  0  0  0  0
    8.7608  -15.0171   26.6895 C   0  0  2  0  0  0  0  0  0  0  0  0
    7.9934  -15.8327   25.7516 N   0  0  0  0  0  0  0  0  0  0  0  0
    9.3588  -15.8632   27.7462 C   0  0  0  0  0  0  0  0  0  0  0  0
   10.5844  -15.5747   28.3497 O   0  0  0  0  0  0  0  0  0  0  0  0
    8.7702  -16.8875   28.1410 O   0  0  0  0  0  0  0  0  0  0  0  0
  2  1  1  0
  2  3  1  0
  3  5  1  0
  3  4  1  1
  5  6  1  6
  7  5  1  0
  7  8  2  0
 10 12  1  0
 10  9  1  0
 11 10  2  0
 13 12  1  6
 13 14  1  0
 14  7  1  0
 15 13  1  0
 16 15  2  0
 18 17  1  0
 18 19  1  0
 19 21  1  0
 19 20  1  6
 21 22  1  1
 21 23  1  0
 22 15  1  0
 23 25  2  0
 23 24  1  0
M  END
$$$$
