INI.pdb
     RDKit          3D

 25 24  0  0  1  0  0  0  0  0999 V2000
    7.5145  -11.7316   18.4487 C   0  0  0  0  0  0  0  0  0  0  0  0
    7.7999  -13.1899   18.4507 C   0  0  0  0  0  0  0  0  0  0  0  0
    7.8399  -13.8669   19.7725 C   0  0  2  0  0  0  0  0  0  0  0  0
    8.9927  -13.2595   20.5825 C   0  0  0  0  0  0  0  0  0  0  0  0
    8.0648  -15.3374   19.7296 C   0  0  2  0  0  0  0  0  0  0  0  0
    7.1403  -15.9757   18.8660 N   0  0  0  0  0  0  0  0  0  0  0  0
    8.2252  -15.9657   21.0778 C   0  0  0  0  0  0  0  0  0  0  0  0
    7.1686  -16.1640   21.7332 O   0  0  0  0  0  0  0  0  0  0  0  0
   10.6810  -19.6994   24.6843 N   0  0  0  0  0  0  0  0  0  0  0  0
   11.1809  -18.4446   24.2658 C   0  0  0  0  0  0  0  0  0  0  0  0
   11.8735  -17.7633   25.0563 O   0  0  0  0  0  0  0  0  0  0  0  0
   10.8928  -17.9353   22.9091 C   0  0  0  0  0  0  0  0  0  0  0  0
    9.7622  -16.9407   22.8941 C   0  0  2  0  0  0  0  0  0  0  0  0
    9.4612  -16.3334   21.6319 N   0  0  0  0  0  0  0  0  0  0  0  0
    9.7032  -15.9937   23.9834 C   0  0  0  0  0  0  0  0  0  0  0  0
   10.1458  -14.8119   23.7336 O   0  0  0  0  0  0  0  0  0  0  0  0
    6.6956  -12.1910   26.5761 C   0  0  0  0  0  0  0  0  0  0  0  0
    7.9167  -13.0455   26.8829 C   0  0  0  0  0  0  0  0  0  0  0  0
    7.9936  -14.2364   25.9675 C   0  0  2  0  0  0  0  0  0  0  0  0
    6.6547  -14.9378   26.0056 C   0  0  0  0  0  0  0  0  0  0  0  0
    9.1508  -15.1409   26.2519 C   0  0  2  0  0  0  0  0  0  0  0  0
    9.2197  -16.2226   25.2727 N   0  0  0  0  0  0  0  0  0  0  0  0
    9.2038  -15.6813   27.6286 C   0  0  0  0  0  0  0  0  0  0  0  0
    9.1206  -17.0455   27.9147 O   0  0  0  0  0  0  0  0  0  0  0  0
    9.3281  -14.9140   28.6019 O   0  0  0  0  0  0  0  0  0  0  0  0
  2  1  1  0
  2  3  1  0
  3  5  1  0
  3  4  1  1
  5  6  1  1
  7  5  1  0
  7  8  2  0
 10 12  1  0
 10  9  1  0
 11 10  2  0
 13 12  1  6
 13 14  1  0
 14  7  1  0
 15 13  1  0
 16 15  2  0
 18 17  1  0
 18 19  1  0
 19 21  1  0
 19 20  1  1
 21 22  1  6
 21 23  1  0
 22 15  1  0
 23 25  2  0
 23 24  1  0
M  END
$$$$
