INI.pdb
     RDKit          3D

 25 24  0  0  1  0  0  0  0  0999 V2000
    8.3081  -12.2923   20.5548 C   0  0  0  0  0  0  0  0  0  0  0  0
    8.2123  -13.5118   21.3985 C   0  0  0  0  0  0  0  0  0  0  0  0
    7.7223  -14.7500   20.7399 C   0  0  2  0  0  0  0  0  0  0  0  0
    6.2806  -14.5029   20.2766 C   0  0  0  0  0  0  0  0  0  0  0  0
    7.7017  -15.9646   21.5996 C   0  0  2  0  0  0  0  0  0  0  0  0
    6.7479  -15.8437   22.6405 N   0  0  0  0  0  0  0  0  0  0  0  0
    9.0588  -16.4317   22.0216 C   0  0  0  0  0  0  0  0  0  0  0  0
    9.4633  -17.5108   21.5143 O   0  0  0  0  0  0  0  0  0  0  0  0
   13.8978  -17.3672   22.9658 N   0  0  0  0  0  0  0  0  0  0  0  0
   13.6474  -15.9850   23.1284 C   0  0  0  0  0  0  0  0  0  0  0  0
   14.5392  -15.2507   23.6125 O   0  0  0  0  0  0  0  0  0  0  0  0
   12.3474  -15.4051   22.7328 C   0  0  0  0  0  0  0  0  0  0  0  0
   11.1852  -16.0704   23.4216 C   0  0  2  0  0  0  0  0  0  0  0  0
    9.8792  -15.7453   22.9304 N   0  0  0  0  0  0  0  0  0  0  0  0
   11.2248  -16.1374   24.8641 C   0  0  0  0  0  0  0  0  0  0  0  0
   12.3405  -16.5094   25.3853 O   0  0  0  0  0  0  0  0  0  0  0  0
    7.9959  -12.5656   27.1405 C   0  0  0  0  0  0  0  0  0  0  0  0
    9.1510  -13.4296   26.6561 C   0  0  0  0  0  0  0  0  0  0  0  0
    9.4899  -14.4994   27.6574 C   0  0  2  0  0  0  0  0  0  0  0  0
    9.9421  -13.8178   28.9290 C   0  0  0  0  0  0  0  0  0  0  0  0
   10.4606  -15.5168   27.1466 C   0  0  2  0  0  0  0  0  0  0  0  0
   10.1864  -15.8431   25.7494 N   0  0  0  0  0  0  0  0  0  0  0  0
   10.5653  -16.7500   27.9580 C   0  0  0  0  0  0  0  0  0  0  0  0
   11.4454  -16.8809   29.0339 O   0  0  0  0  0  0  0  0  0  0  0  0
    9.8508  -17.7368   27.6987 O   0  0  0  0  0  0  0  0  0  0  0  0
  2  1  1  0
  2  3  1  0
  3  5  1  0
  3  4  1  1
  5  6  1  1
  7  5  1  0
  7  8  2  0
 10 12  1  0
 10  9  1  0
 11 10  2  0
 13 12  1  1
 13 14  1  0
 14  7  1  0
 15 13  1  0
 16 15  2  0
 18 17  1  0
 18 19  1  0
 19 21  1  0
 19 20  1  1
 21 22  1  6
 21 23  1  0
 22 15  1  0
 23 25  2  0
 23 24  1  0
M  END
$$$$
