INI.pdb
     RDKit          3D

 25 24  0  0  1  0  0  0  0  0999 V2000
    7.6764  -12.0726   18.8337 C   0  0  0  0  0  0  0  0  0  0  0  0
    7.9481  -13.5309   18.9219 C   0  0  0  0  0  0  0  0  0  0  0  0
    7.8936  -14.1459   20.2731 C   0  0  2  0  0  0  0  0  0  0  0  0
    8.9243  -13.4355   21.1603 C   0  0  0  0  0  0  0  0  0  0  0  0
    8.2029  -15.6007   20.3249 C   0  0  2  0  0  0  0  0  0  0  0  0
    7.4296  -16.3263   19.3849 N   0  0  0  0  0  0  0  0  0  0  0  0
    8.2288  -16.1660   21.7097 C   0  0  0  0  0  0  0  0  0  0  0  0
    7.1124  -16.4311   22.2281 O   0  0  0  0  0  0  0  0  0  0  0  0
    9.9174  -19.7208   25.8022 N   0  0  0  0  0  0  0  0  0  0  0  0
   10.6454  -18.6587   25.2177 C   0  0  0  0  0  0  0  0  0  0  0  0
   11.5210  -18.0686   25.8914 O   0  0  0  0  0  0  0  0  0  0  0  0
   10.3809  -18.2435   23.8246 C   0  0  0  0  0  0  0  0  0  0  0  0
    9.5801  -16.9707   23.7440 C   0  0  2  0  0  0  0  0  0  0  0  0
    9.4038  -16.4076   22.4385 N   0  0  0  0  0  0  0  0  0  0  0  0
    9.8450  -15.9612   24.7428 C   0  0  0  0  0  0  0  0  0  0  0  0
   10.7882  -15.1289   24.4734 O   0  0  0  0  0  0  0  0  0  0  0  0
    6.3232  -12.6965   26.6356 C   0  0  0  0  0  0  0  0  0  0  0  0
    7.6004  -13.3688   26.1538 C   0  0  0  0  0  0  0  0  0  0  0  0
    8.3936  -13.9227   27.3054 C   0  0  2  0  0  0  0  0  0  0  0  0
    8.7379  -12.7740   28.2263 C   0  0  0  0  0  0  0  0  0  0  0  0
    9.5816  -14.7294   26.8857 C   0  0  2  0  0  0  0  0  0  0  0  0
    9.1901  -15.7928   25.9639 N   0  0  0  0  0  0  0  0  0  0  0  0
   10.3952  -15.2755   27.9947 C   0  0  0  0  0  0  0  0  0  0  0  0
   11.3454  -14.5206   28.6852 O   0  0  0  0  0  0  0  0  0  0  0  0
   10.2530  -16.4589   28.3565 O   0  0  0  0  0  0  0  0  0  0  0  0
  2  1  1  0
  2  3  1  0
  3  5  1  0
  3  4  1  1
  5  6  1  6
  7  5  1  0
  7  8  2  0
 10 12  1  0
 10  9  1  0
 11 10  2  0
 13 12  1  6
 13 14  1  0
 14  7  1  0
 15 13  1  0
 16 15  2  0
 18 17  1  0
 18 19  1  0
 19 21  1  0
 19 20  1  1
 21 22  1  1
 21 23  1  0
 22 15  1  0
 23 25  2  0
 23 24  1  0
M  END
$$$$
