WII.pdb
     RDKit          3D

 31 32  0  0  1  0  0  0  0  0999 V2000
   27.3608  -17.9732   -8.3538 N   0  0  0  0  0  0  0  0  0  0  0  0
   27.0158  -19.3507   -8.3882 C   0  0  1  0  0  0  0  0  0  0  0  0
   26.4297  -19.9234   -7.1445 C   0  0  0  0  0  0  0  0  0  0  0  0
   27.3332  -19.5927   -5.9980 C   0  0  0  0  0  0  0  0  0  0  0  0
   27.1652  -18.5382   -5.0980 C   0  0  0  0  0  0  0  0  0  0  0  0
   28.1574  -18.5756   -4.1979 N   0  0  0  0  0  0  0  0  0  0  0  0
   28.9802  -19.6052   -4.4548 C   0  0  0  0  0  0  0  0  0  0  0  0
   30.1400  -20.0602   -3.8258 C   0  0  0  0  0  0  0  0  0  0  0  0
   30.7833  -21.1609   -4.3352 C   0  0  0  0  0  0  0  0  0  0  0  0
   30.2704  -21.7830   -5.4469 C   0  0  0  0  0  0  0  0  0  0  0  0
   29.1272  -21.3570   -6.0894 C   0  0  0  0  0  0  0  0  0  0  0  0
   28.4717  -20.2461   -5.5795 C   0  0  0  0  0  0  0  0  0  0  0  0
   26.1336  -19.6122   -9.5828 C   0  0  0  0  0  0  0  0  0  0  0  0
   25.3101  -18.7331   -9.9311 O   0  0  0  0  0  0  0  0  0  0  0  0
   28.4318  -20.2090  -13.2600 C   0  0  0  0  0  0  0  0  0  0  0  0
   28.2532  -21.4474  -12.3632 C   0  0  0  0  0  0  0  0  0  0  0  0
   26.8075  -21.8016  -12.3742 C   0  0  2  0  0  0  0  0  0  0  0  0
   26.3172  -22.2856  -13.7071 C   0  0  0  0  0  0  0  0  0  0  0  0
   25.8663  -20.8150  -11.7761 C   0  0  2  0  0  0  0  0  0  0  0  0
   26.1910  -20.7999  -10.3265 N   0  0  0  0  0  0  0  0  0  0  0  0
   24.4488  -21.1908  -11.8905 C   0  0  0  0  0  0  0  0  0  0  0  0
   24.0046  -22.2758  -11.3791 O   0  0  0  0  0  0  0  0  0  0  0  0
   18.8317  -18.7426  -13.0234 C   0  0  0  0  0  0  0  0  0  0  0  0
   19.7881  -19.8355  -12.6517 C   0  0  0  0  0  0  0  0  0  0  0  0
   21.2352  -19.4787  -12.9024 C   0  0  2  0  0  0  0  0  0  0  0  0
   21.5073  -19.1482  -14.3424 C   0  0  0  0  0  0  0  0  0  0  0  0
   22.0545  -20.6920  -12.4542 C   0  0  2  0  0  0  0  0  0  0  0  0
   23.4752  -20.4080  -12.5531 N   0  0  0  0  0  0  0  0  0  0  0  0
   21.6839  -21.8086  -13.3500 C   0  0  0  0  0  0  0  0  0  0  0  0
   20.5674  -22.5654  -13.0346 O   0  0  0  0  0  0  0  0  0  0  0  0
   22.3574  -22.0809  -14.3829 O   0  0  0  0  0  0  0  0  0  0  0  0
  2  1  1  1
  2  3  1  0
  3  4  1  0
  4  5  2  0
  6  5  1  0
  7  6  1  0
  8  7  2  0
  9  8  1  0
 10 11  1  0
 10  9  2  0
 11 12  2  0
 12  7  1  0
 12  4  1  0
 13  2  1  0
 14 13  2  0
 16 15  1  0
 17 16  1  0
 17 18  1  6
 19 20  1  1
 19 17  1  0
 20 13  1  0
 21 19  1  0
 22 21  2  0
 23 24  1  0
 24 25  1  0
 25 27  1  0
 25 26  1  6
 27 29  1  0
 27 28  1  6
 28 21  1  0
 29 30  1  0
 31 29  2  0
M  END
$$$$
