WII.pdb
     RDKit          3D

 31 32  0  0  1  0  0  0  0  0999 V2000
   23.7545  -22.0937  -13.4531 N   0  0  0  0  0  0  0  0  0  0  0  0
   24.1049  -20.9083  -12.7533 C   0  0  1  0  0  0  0  0  0  0  0  0
   22.9917  -20.1641  -12.1012 C   0  0  0  0  0  0  0  0  0  0  0  0
   22.1159  -19.5881  -13.1695 C   0  0  0  0  0  0  0  0  0  0  0  0
   20.7451  -19.8106  -13.3158 C   0  0  0  0  0  0  0  0  0  0  0  0
   20.3032  -19.1101  -14.3695 N   0  0  0  0  0  0  0  0  0  0  0  0
   21.3147  -18.4307  -14.9338 C   0  0  0  0  0  0  0  0  0  0  0  0
   21.3732  -17.5778  -16.0369 C   0  0  0  0  0  0  0  0  0  0  0  0
   22.5806  -17.0249  -16.3853 C   0  0  0  0  0  0  0  0  0  0  0  0
   23.6955  -17.3250  -15.6417 C   0  0  0  0  0  0  0  0  0  0  0  0
   23.6688  -18.1634  -14.5474 C   0  0  0  0  0  0  0  0  0  0  0  0
   22.4520  -18.7247  -14.1892 C   0  0  0  0  0  0  0  0  0  0  0  0
   25.2080  -21.2180  -11.7729 C   0  0  0  0  0  0  0  0  0  0  0  0
   25.1186  -22.2509  -11.0677 O   0  0  0  0  0  0  0  0  0  0  0  0
   29.4089  -22.5133  -12.4040 C   0  0  0  0  0  0  0  0  0  0  0  0
   28.9485  -21.0763  -12.7086 C   0  0  0  0  0  0  0  0  0  0  0  0
   28.6878  -20.4055  -11.4056 C   0  0  2  0  0  0  0  0  0  0  0  0
   29.8685  -20.4111  -10.4797 C   0  0  0  0  0  0  0  0  0  0  0  0
   27.4369  -20.7819  -10.6911 C   0  0  2  0  0  0  0  0  0  0  0  0
   26.3353  -20.3994  -11.6115 N   0  0  0  0  0  0  0  0  0  0  0  0
   27.2171  -20.0468   -9.4361 C   0  0  0  0  0  0  0  0  0  0  0  0
   26.8242  -18.8295   -9.4380 O   0  0  0  0  0  0  0  0  0  0  0  0
   25.1632  -22.1780   -4.9120 C   0  0  0  0  0  0  0  0  0  0  0  0
   25.6342  -21.2450   -5.9868 C   0  0  0  0  0  0  0  0  0  0  0  0
   27.0149  -20.6849   -5.7339 C   0  0  2  0  0  0  0  0  0  0  0  0
   27.0940  -19.8990   -4.4559 C   0  0  0  0  0  0  0  0  0  0  0  0
   27.3419  -19.8022   -6.9414 C   0  0  2  0  0  0  0  0  0  0  0  0
   27.4102  -20.6034   -8.1505 N   0  0  0  0  0  0  0  0  0  0  0  0
   28.6488  -19.1691   -6.6626 C   0  0  0  0  0  0  0  0  0  0  0  0
   28.6631  -17.8836   -6.1467 O   0  0  0  0  0  0  0  0  0  0  0  0
   29.7370  -19.7706   -6.8834 O   0  0  0  0  0  0  0  0  0  0  0  0
  2  1  1  1
  2  3  1  0
  3  4  1  0
  4  5  2  0
  6  5  1  0
  7  6  1  0
  8  7  2  0
  9  8  1  0
 10 11  1  0
 10  9  2  0
 11 12  2  0
 12  7  1  0
 12  4  1  0
 13  2  1  0
 14 13  2  0
 16 15  1  0
 17 16  1  0
 17 18  1  1
 19 20  1  6
 19 17  1  0
 20 13  1  0
 21 19  1  0
 22 21  2  0
 23 24  1  0
 24 25  1  0
 25 27  1  0
 25 26  1  1
 27 29  1  0
 27 28  1  6
 28 21  1  0
 29 30  1  0
 31 29  2  0
M  END
$$$$
