WII.pdb
     RDKit          3D

 31 32  0  0  1  0  0  0  0  0999 V2000
   25.3026  -22.3846  -12.7965 N   0  0  0  0  0  0  0  0  0  0  0  0
   25.4334  -21.2401  -11.9653 C   0  0  1  0  0  0  0  0  0  0  0  0
   24.1692  -20.6023  -11.5035 C   0  0  0  0  0  0  0  0  0  0  0  0
   23.4857  -19.9918  -12.6869 C   0  0  0  0  0  0  0  0  0  0  0  0
   24.1154  -19.3904  -13.7786 C   0  0  0  0  0  0  0  0  0  0  0  0
   23.1796  -18.9829  -14.6472 N   0  0  0  0  0  0  0  0  0  0  0  0
   21.9547  -19.2836  -14.1864 C   0  0  0  0  0  0  0  0  0  0  0  0
   20.6771  -19.0687  -14.7055 C   0  0  0  0  0  0  0  0  0  0  0  0
   19.5879  -19.4910  -13.9844 C   0  0  0  0  0  0  0  0  0  0  0  0
   19.7835  -20.1116  -12.7749 C   0  0  0  0  0  0  0  0  0  0  0  0
   21.0327  -20.3378  -12.2368 C   0  0  0  0  0  0  0  0  0  0  0  0
   22.1376  -19.9145  -12.9605 C   0  0  0  0  0  0  0  0  0  0  0  0
   26.3388  -21.5696  -10.8054 C   0  0  0  0  0  0  0  0  0  0  0  0
   25.8739  -22.2227   -9.8411 O   0  0  0  0  0  0  0  0  0  0  0  0
   31.1455  -23.2460   -9.0245 C   0  0  0  0  0  0  0  0  0  0  0  0
   31.0379  -21.7149   -9.1439 C   0  0  0  0  0  0  0  0  0  0  0  0
   29.9424  -21.4183  -10.1070 C   0  0  2  0  0  0  0  0  0  0  0  0
   30.1378  -20.1378  -10.8641 C   0  0  0  0  0  0  0  0  0  0  0  0
   28.5474  -21.5415   -9.6012 C   0  0  2  0  0  0  0  0  0  0  0  0
   27.6842  -21.1767  -10.7539 N   0  0  0  0  0  0  0  0  0  0  0  0
   28.2185  -20.6094   -8.5119 C   0  0  0  0  0  0  0  0  0  0  0  0
   27.7878  -19.4293   -8.7530 O   0  0  0  0  0  0  0  0  0  0  0  0
   27.3173  -22.3494   -3.2875 C   0  0  0  0  0  0  0  0  0  0  0  0
   27.2162  -21.5294   -4.5384 C   0  0  0  0  0  0  0  0  0  0  0  0
   28.3623  -20.5603   -4.7159 C   0  0  2  0  0  0  0  0  0  0  0  0
   28.4010  -19.5092   -3.6432 C   0  0  0  0  0  0  0  0  0  0  0  0
   28.1718  -19.9272   -6.0970 C   0  0  2  0  0  0  0  0  0  0  0  0
   28.3407  -20.9247   -7.1387 N   0  0  0  0  0  0  0  0  0  0  0  0
   29.1944  -18.8664   -6.2221 C   0  0  0  0  0  0  0  0  0  0  0  0
   30.5115  -19.2406   -6.4320 O   0  0  0  0  0  0  0  0  0  0  0  0
   28.8929  -17.6427   -6.1422 O   0  0  0  0  0  0  0  0  0  0  0  0
  2  1  1  1
  2  3  1  0
  3  4  1  0
  4  5  2  0
  6  5  1  0
  7  6  1  0
  8  7  2  0
  9  8  1  0
 10 11  1  0
 10  9  2  0
 11 12  2  0
 12  7  1  0
 12  4  1  0
 13  2  1  0
 14 13  2  0
 16 15  1  0
 17 16  1  0
 17 18  1  1
 19 20  1  6
 19 17  1  0
 20 13  1  0
 21 19  1  0
 22 21  2  0
 23 24  1  0
 24 25  1  0
 25 27  1  0
 25 26  1  1
 27 29  1  0
 27 28  1  6
 28 21  1  0
 29 30  1  0
 31 29  2  0
M  END
$$$$
