WII.pdb
     RDKit          3D

 31 32  0  0  1  0  0  0  0  0999 V2000
   26.1524  -21.6134  -13.4448 N   0  0  0  0  0  0  0  0  0  0  0  0
   25.9215  -20.5843  -12.4934 C   0  0  1  0  0  0  0  0  0  0  0  0
   24.8945  -19.5655  -12.8479 C   0  0  0  0  0  0  0  0  0  0  0  0
   25.2010  -19.0382  -14.2148 C   0  0  0  0  0  0  0  0  0  0  0  0
   24.2892  -18.8939  -15.2625 C   0  0  0  0  0  0  0  0  0  0  0  0
   24.9246  -18.3697  -16.3197 N   0  0  0  0  0  0  0  0  0  0  0  0
   26.2178  -18.1576  -16.0271 C   0  0  0  0  0  0  0  0  0  0  0  0
   27.2781  -17.6444  -16.7756 C   0  0  0  0  0  0  0  0  0  0  0  0
   28.5185  -17.5535  -16.1940 C   0  0  0  0  0  0  0  0  0  0  0  0
   28.6827  -17.9690  -14.8953 C   0  0  0  0  0  0  0  0  0  0  0  0
   27.6548  -18.4798  -14.1314 C   0  0  0  0  0  0  0  0  0  0  0  0
   26.3988  -18.5735  -14.7124 C   0  0  0  0  0  0  0  0  0  0  0  0
   25.6387  -21.2053  -11.1487 C   0  0  0  0  0  0  0  0  0  0  0  0
   25.0252  -22.2979  -11.1035 O   0  0  0  0  0  0  0  0  0  0  0  0
   27.7174  -18.9834   -6.2533 C   0  0  0  0  0  0  0  0  0  0  0  0
   26.5951  -19.3309   -7.2482 C   0  0  0  0  0  0  0  0  0  0  0  0
   26.8323  -20.7225   -7.7201 C   0  0  2  0  0  0  0  0  0  0  0  0
   28.2260  -20.9573   -8.2238 C   0  0  0  0  0  0  0  0  0  0  0  0
   25.8178  -21.3048   -8.6413 C   0  0  2  0  0  0  0  0  0  0  0  0
   26.0316  -20.6141   -9.9391 N   0  0  0  0  0  0  0  0  0  0  0  0
   24.4256  -21.0435   -8.2449 C   0  0  0  0  0  0  0  0  0  0  0  0
   23.8647  -19.9196   -8.4863 O   0  0  0  0  0  0  0  0  0  0  0  0
   20.5687  -24.0155   -9.6354 C   0  0  0  0  0  0  0  0  0  0  0  0
   21.4023  -22.9083   -9.0638 C   0  0  0  0  0  0  0  0  0  0  0  0
   21.2861  -22.7821   -7.5623 C   0  0  2  0  0  0  0  0  0  0  0  0
   19.8859  -22.4706   -7.1158 C   0  0  0  0  0  0  0  0  0  0  0  0
   22.2524  -21.6665   -7.1548 C   0  0  2  0  0  0  0  0  0  0  0  0
   23.6027  -21.9846   -7.5837 N   0  0  0  0  0  0  0  0  0  0  0  0
   22.1854  -21.5646   -5.6811 C   0  0  0  0  0  0  0  0  0  0  0  0
   21.2819  -20.6763   -5.1211 O   0  0  0  0  0  0  0  0  0  0  0  0
   22.9266  -22.2628   -4.9343 O   0  0  0  0  0  0  0  0  0  0  0  0
  2  1  1  6
  2  3  1  0
  3  4  1  0
  4  5  2  0
  6  5  1  0
  7  6  1  0
  8  7  2  0
  9  8  1  0
 10 11  1  0
 10  9  2  0
 11 12  2  0
 12  7  1  0
 12  4  1  0
 13  2  1  0
 14 13  2  0
 16 15  1  0
 17 16  1  0
 17 18  1  6
 19 20  1  6
 19 17  1  0
 20 13  1  0
 21 19  1  0
 22 21  2  0
 23 24  1  0
 24 25  1  0
 25 27  1  0
 25 26  1  6
 27 29  1  0
 27 28  1  1
 28 21  1  0
 29 30  1  0
 31 29  2  0
M  END
$$$$
