ARL.pdb
     RDKit          3D

 25 24  0  0  1  0  0  0  0  0999 V2000
   24.9077  -22.7094  -17.6450 C   0  0  0  0  0  0  0  0  0  0  0  0
   25.7558  -23.5268  -16.6944 C   0  0  2  0  0  0  0  0  0  0  0  0
   25.8283  -24.9095  -17.0746 N   0  0  0  0  0  0  0  0  0  0  0  0
   25.2439  -23.4399  -15.2938 C   0  0  0  0  0  0  0  0  0  0  0  0
   24.3839  -24.2823  -14.8671 O   0  0  0  0  0  0  0  0  0  0  0  0
   30.0175  -21.2756   -8.9794 N   0  0  0  0  0  0  0  0  0  0  0  0
   30.1568  -21.3903  -10.3865 C   0  0  0  0  0  0  0  0  0  0  0  0
   31.2343  -21.9099  -10.8966 N   0  0  0  0  0  0  0  0  0  0  0  0
   29.1577  -20.9576  -11.2980 N   0  0  0  0  0  0  0  0  0  0  0  0
   27.7661  -20.7607  -10.8656 C   0  0  0  0  0  0  0  0  0  0  0  0
   26.9005  -21.8976  -11.3798 C   0  0  0  0  0  0  0  0  0  0  0  0
   25.9283  -21.3227  -12.3385 C   0  0  0  0  0  0  0  0  0  0  0  0
   25.0368  -22.2805  -13.0602 C   0  0  2  0  0  0  0  0  0  0  0  0
   25.6619  -22.4556  -14.3810 N   0  0  0  0  0  0  0  0  0  0  0  0
   23.6361  -21.8770  -13.1906 C   0  0  0  0  0  0  0  0  0  0  0  0
   22.7864  -22.3902  -12.3995 O   0  0  0  0  0  0  0  0  0  0  0  0
   31.3654  -22.0139  -11.9238 C   0  0  0  0  0  0  0  0  0  0  0  0
   21.3705  -18.9716  -10.2954 C   0  0  1  0  0  0  0  0  0  0  0  0
   21.3991  -19.8982  -11.4777 C   0  0  0  0  0  0  0  0  0  0  0  0
   19.9345  -20.2341  -11.7935 C   0  0  0  0  0  0  0  0  0  0  0  0
   21.9753  -19.3228  -12.7229 C   0  0  2  0  0  0  0  0  0  0  0  0
   21.9004  -20.2125  -13.9364 N   0  0  0  0  0  0  0  0  0  0  0  0
   23.1348  -20.9523  -14.1292 C   0  0  0  0  0  0  0  0  0  0  0  0
   21.4799  -19.5158  -15.1698 O   0  0  0  0  0  0  0  0  0  0  0  0
   20.1536  -19.2900  -15.5010 O   0  0  0  0  0  0  0  0  0  0  0  0
  2  1  1  6
  3  2  1  0
  4  5  2  0
  4  2  1  0
  6  7  1  0
  7  8  2  0
  9  7  1  0
  9 10  1  0
 10 11  1  0
 11 12  1  0
 13 12  1  1
 13 14  1  0
 14  4  1  0
 15 22  1  0
 15 13  1  0
 16 15  2  0
 18 17  1  1
 19 18  1  0
 20 18  1  0
 21 20  1  1
 21 22  1  0
 21 23  1  0
 23 24  1  0
 25 23  2  0
M  END
$$$$
