ARL.pdb
     RDKit          3D

 25 24  0  0  1  0  0  0  0  0999 V2000
   28.2666  -32.5535  -17.3120 C   0  0  0  0  0  0  0  0  0  0  0  0
   27.8682  -32.0779  -15.9314 C   0  0  2  0  0  0  0  0  0  0  0  0
   29.0006  -31.7001  -15.1335 N   0  0  0  0  0  0  0  0  0  0  0  0
   27.0906  -33.1213  -15.1980 C   0  0  0  0  0  0  0  0  0  0  0  0
   26.0252  -33.6092  -15.7061 O   0  0  0  0  0  0  0  0  0  0  0  0
   28.9265  -39.6220  -11.7182 N   0  0  0  0  0  0  0  0  0  0  0  0
   28.0791  -40.2919  -12.6380 C   0  0  0  0  0  0  0  0  0  0  0  0
   27.6871  -41.5086  -12.3991 N   0  0  0  0  0  0  0  0  0  0  0  0
   27.6203  -39.6928  -13.8408 N   0  0  0  0  0  0  0  0  0  0  0  0
   28.0234  -38.3290  -14.2144 C   0  0  0  0  0  0  0  0  0  0  0  0
   27.2112  -37.3169  -13.4257 C   0  0  0  0  0  0  0  0  0  0  0  0
   27.6021  -35.9663  -13.8929 C   0  0  0  0  0  0  0  0  0  0  0  0
   26.8428  -34.8069  -13.3342 C   0  0  2  0  0  0  0  0  0  0  0  0
   27.4683  -33.6198  -13.9387 N   0  0  0  0  0  0  0  0  0  0  0  0
   26.8171  -34.7022  -11.8748 C   0  0  0  0  0  0  0  0  0  0  0  0
   27.5490  -33.8248  -11.3219 O   0  0  0  0  0  0  0  0  0  0  0  0
   27.1052  -42.0450  -13.0749 C   0  0  0  0  0  0  0  0  0  0  0  0
   25.4790  -31.5304   -8.3492 C   0  0  2  0  0  0  0  0  0  0  0  0
   26.1295  -32.7164   -9.0030 C   0  0  0  0  0  0  0  0  0  0  0  0
   26.9556  -33.4081   -7.9091 C   0  0  0  0  0  0  0  0  0  0  0  0
   25.1928  -33.7433   -9.5336 C   0  0  2  0  0  0  0  0  0  0  0  0
   25.7564  -35.1369   -9.6330 N   0  0  0  0  0  0  0  0  0  0  0  0
   26.0383  -35.4986  -11.0106 C   0  0  0  0  0  0  0  0  0  0  0  0
   24.9443  -36.1658   -8.9508 O   0  0  0  0  0  0  0  0  0  0  0  0
   23.9546  -36.8980   -9.5864 O   0  0  0  0  0  0  0  0  0  0  0  0
  2  1  1  6
  3  2  1  0
  4  5  2  0
  4  2  1  0
  6  7  1  0
  7  8  2  0
  9  7  1  0
  9 10  1  0
 10 11  1  0
 11 12  1  0
 13 12  1  1
 13 14  1  0
 14  4  1  0
 15 22  1  0
 15 13  1  0
 16 15  2  0
 18 17  1  6
 19 18  1  0
 20 18  1  0
 21 20  1  1
 21 22  1  0
 21 23  1  0
 23 24  1  0
 25 23  2  0
M  END
$$$$
