ARL.pdb
     RDKit          3D

 25 24  0  0  1  0  0  0  0  0999 V2000
   20.3138  -12.0228    4.9294 C   0  0  0  0  0  0  0  0  0  0  0  0
   18.9171  -12.0285    5.5129 C   0  0  2  0  0  0  0  0  0  0  0  0
   18.7394  -11.0207    6.5201 N   0  0  0  0  0  0  0  0  0  0  0  0
   18.5761  -13.3592    6.0994 C   0  0  0  0  0  0  0  0  0  0  0  0
   18.6761  -13.5554    7.3575 O   0  0  0  0  0  0  0  0  0  0  0  0
   15.8463  -20.5247    2.0454 N   0  0  0  0  0  0  0  0  0  0  0  0
   15.4495  -20.7484    3.3889 C   0  0  0  0  0  0  0  0  0  0  0  0
   15.2643  -21.9603    3.8228 N   0  0  0  0  0  0  0  0  0  0  0  0
   15.2362  -19.6939    4.3157 N   0  0  0  0  0  0  0  0  0  0  0  0
   15.7188  -18.3317    4.0437 C   0  0  0  0  0  0  0  0  0  0  0  0
   16.5843  -17.8517    5.1955 C   0  0  0  0  0  0  0  0  0  0  0  0
   16.9980  -16.4609    4.8960 C   0  0  0  0  0  0  0  0  0  0  0  0
   17.8465  -15.7696    5.9134 C   0  0  2  0  0  0  0  0  0  0  0  0
   18.1360  -14.4501    5.3292 N   0  0  0  0  0  0  0  0  0  0  0  0
   19.0804  -16.4589    6.2928 C   0  0  0  0  0  0  0  0  0  0  0  0
   19.9696  -16.6330    5.4040 O   0  0  0  0  0  0  0  0  0  0  0  0
   14.9253  -22.1569    4.7869 C   0  0  0  0  0  0  0  0  0  0  0  0
   22.1603  -14.8126    9.0929 C   0  0  2  0  0  0  0  0  0  0  0  0
   22.3942  -16.2945    9.1719 C   0  0  0  0  0  0  0  0  0  0  0  0
   23.1551  -16.5380   10.4833 C   0  0  0  0  0  0  0  0  0  0  0  0
   21.1648  -17.1297    9.2391 C   0  0  2  0  0  0  0  0  0  0  0  0
   20.6355  -17.6018    7.9099 N   0  0  0  0  0  0  0  0  0  0  0  0
   19.3790  -16.9541    7.5786 C   0  0  0  0  0  0  0  0  0  0  0  0
   20.5450  -19.0714    7.7845 O   0  0  0  0  0  0  0  0  0  0  0  0
   21.6342  -19.8785    7.4982 O   0  0  0  0  0  0  0  0  0  0  0  0
  2  1  1  1
  3  2  1  0
  4  5  2  0
  4  2  1  0
  6  7  1  0
  7  8  2  0
  9  7  1  0
  9 10  1  0
 10 11  1  0
 11 12  1  0
 13 12  1  6
 13 14  1  0
 14  4  1  0
 15 22  1  0
 15 13  1  0
 16 15  2  0
 18 17  1  6
 19 18  1  0
 20 18  1  0
 21 20  1  6
 21 22  1  0
 21 23  1  0
 23 24  1  0
 25 23  2  0
M  END
$$$$
