ARL.pdb
     RDKit          3D

 25 24  0  0  1  0  0  0  0  0999 V2000
   21.7640  -29.7403  -11.8166 C   0  0  0  0  0  0  0  0  0  0  0  0
   20.8894  -29.8778  -10.5889 C   0  0  2  0  0  0  0  0  0  0  0  0
   20.2527  -31.1623  -10.5102 N   0  0  0  0  0  0  0  0  0  0  0  0
   19.8384  -28.8173  -10.5460 C   0  0  0  0  0  0  0  0  0  0  0  0
   18.7138  -28.9986  -11.1238 O   0  0  0  0  0  0  0  0  0  0  0  0
   17.6338  -25.7213   -3.4929 N   0  0  0  0  0  0  0  0  0  0  0  0
   17.2248  -26.7042   -4.4305 C   0  0  0  0  0  0  0  0  0  0  0  0
   16.6876  -27.8153   -4.0206 N   0  0  0  0  0  0  0  0  0  0  0  0
   17.3725  -26.5404   -5.8333 N   0  0  0  0  0  0  0  0  0  0  0  0
   17.7736  -25.2491   -6.4112 C   0  0  0  0  0  0  0  0  0  0  0  0
   17.7571  -25.3352   -7.9272 C   0  0  0  0  0  0  0  0  0  0  0  0
   18.7940  -26.3129   -8.3321 C   0  0  0  0  0  0  0  0  0  0  0  0
   18.9450  -26.5780   -9.7949 C   0  0  2  0  0  0  0  0  0  0  0  0
   20.0121  -27.5874   -9.8871 N   0  0  0  0  0  0  0  0  0  0  0  0
   19.2487  -25.4141  -10.6283 C   0  0  0  0  0  0  0  0  0  0  0  0
   20.3642  -24.8313  -10.4637 O   0  0  0  0  0  0  0  0  0  0  0  0
   16.4028  -28.5683   -4.6802 C   0  0  0  0  0  0  0  0  0  0  0  0
   18.9007  -25.3584  -15.9644 C   0  0  1  0  0  0  0  0  0  0  0  0
   19.2277  -25.0890  -14.5230 C   0  0  0  0  0  0  0  0  0  0  0  0
   20.7033  -24.6655  -14.4912 C   0  0  0  0  0  0  0  0  0  0  0  0
   18.4599  -23.9813  -13.8930 C   0  0  2  0  0  0  0  0  0  0  0  0
   18.7670  -23.7323  -12.4392 N   0  0  0  0  0  0  0  0  0  0  0  0
   18.4023  -24.8720  -11.6169 C   0  0  0  0  0  0  0  0  0  0  0  0
   18.2041  -22.4722  -11.9113 O   0  0  0  0  0  0  0  0  0  0  0  0
   18.6455  -21.2189  -12.3038 O   0  0  0  0  0  0  0  0  0  0  0  0
  2  1  1  6
  3  2  1  0
  4  5  2  0
  4  2  1  0
  6  7  1  0
  7  8  2  0
  9  7  1  0
  9 10  1  0
 10 11  1  0
 11 12  1  0
 13 12  1  1
 13 14  1  0
 14  4  1  0
 15 22  1  0
 15 13  1  0
 16 15  2  0
 18 17  1  1
 19 18  1  0
 20 18  1  0
 21 20  1  6
 21 22  1  0
 21 23  1  0
 23 24  1  0
 25 23  2  0
M  END
$$$$
