ARL.pdb
     RDKit          3D

 25 24  0  0  1  0  0  0  0  0999 V2000
   29.4087  -22.0715  -15.7707 C   0  0  0  0  0  0  0  0  0  0  0  0
   27.9310  -21.7446  -15.7440 C   0  0  2  0  0  0  0  0  0  0  0  0
   27.4591  -21.2358  -17.0010 N   0  0  0  0  0  0  0  0  0  0  0  0
   27.6106  -20.7530  -14.6737 C   0  0  0  0  0  0  0  0  0  0  0  0
   27.8695  -19.5138  -14.8429 O   0  0  0  0  0  0  0  0  0  0  0  0
   22.2723  -23.0255  -14.4799 N   0  0  0  0  0  0  0  0  0  0  0  0
   21.3246  -22.0916  -13.9877 C   0  0  0  0  0  0  0  0  0  0  0  0
   20.1486  -22.4936  -13.6049 N   0  0  0  0  0  0  0  0  0  0  0  0
   21.5937  -20.7011  -13.8857 N   0  0  0  0  0  0  0  0  0  0  0  0
   22.9218  -20.1570  -14.2056 C   0  0  0  0  0  0  0  0  0  0  0  0
   23.8465  -20.3182  -13.0118 C   0  0  0  0  0  0  0  0  0  0  0  0
   25.1440  -19.6948  -13.3623 C   0  0  0  0  0  0  0  0  0  0  0  0
   26.3411  -20.1307  -12.5814 C   0  0  2  0  0  0  0  0  0  0  0  0
   27.0211  -21.1073  -13.4474 N   0  0  0  0  0  0  0  0  0  0  0  0
   26.0714  -20.6980  -11.2597 C   0  0  0  0  0  0  0  0  0  0  0  0
   25.6204  -21.8827  -11.1945 O   0  0  0  0  0  0  0  0  0  0  0  0
   19.3997  -21.8267  -13.3264 C   0  0  0  0  0  0  0  0  0  0  0  0
   28.6835  -18.7356   -6.7153 C   0  0  2  0  0  0  0  0  0  0  0  0
   28.0794  -19.6358   -7.7555 C   0  0  0  0  0  0  0  0  0  0  0  0
   28.7636  -21.0004   -7.5896 C   0  0  0  0  0  0  0  0  0  0  0  0
   26.6184  -19.8793   -7.6147 C   0  0  2  0  0  0  0  0  0  0  0  0
   25.9836  -20.6486   -8.7439 N   0  0  0  0  0  0  0  0  0  0  0  0
   26.2722  -20.0391  -10.0297 C   0  0  0  0  0  0  0  0  0  0  0  0
   24.5378  -20.8967   -8.5665 O   0  0  0  0  0  0  0  0  0  0  0  0
   24.0285  -21.8015   -7.6491 O   0  0  0  0  0  0  0  0  0  0  0  0
  2  1  1  6
  3  2  1  0
  4  5  2  0
  4  2  1  0
  6  7  1  0
  7  8  2  0
  9  7  1  0
  9 10  1  0
 10 11  1  0
 11 12  1  0
 13 12  1  6
 13 14  1  0
 14  4  1  0
 15 22  1  0
 15 13  1  0
 16 15  2  0
 18 17  1  6
 19 18  1  0
 20 18  1  0
 21 20  1  6
 21 22  1  0
 21 23  1  0
 23 24  1  0
 25 23  2  0
M  END
$$$$
