ARL.pdb
     RDKit          3D

 25 24  0  0  1  0  0  0  0  0999 V2000
   27.8376  -23.5610  -16.7178 C   0  0  0  0  0  0  0  0  0  0  0  0
   26.7854  -24.4564  -16.0996 C   0  0  2  0  0  0  0  0  0  0  0  0
   26.8008  -25.7821  -16.6509 N   0  0  0  0  0  0  0  0  0  0  0  0
   25.4158  -23.8835  -16.2643 C   0  0  0  0  0  0  0  0  0  0  0  0
   24.6921  -24.2168  -17.2625 O   0  0  0  0  0  0  0  0  0  0  0  0
   18.2195  -22.0950  -13.4830 N   0  0  0  0  0  0  0  0  0  0  0  0
   18.9153  -23.2714  -13.1030 C   0  0  0  0  0  0  0  0  0  0  0  0
   18.3085  -24.4216  -13.1122 N   0  0  0  0  0  0  0  0  0  0  0  0
   20.2771  -23.2659  -12.7009 N   0  0  0  0  0  0  0  0  0  0  0  0
   21.0550  -22.0186  -12.6634 C   0  0  0  0  0  0  0  0  0  0  0  0
   21.5901  -21.7027  -14.0491 C   0  0  0  0  0  0  0  0  0  0  0  0
   22.8705  -22.4301  -14.2118 C   0  0  0  0  0  0  0  0  0  0  0  0
   23.5177  -22.3755  -15.5575 C   0  0  2  0  0  0  0  0  0  0  0  0
   24.8503  -22.9679  -15.3595 N   0  0  0  0  0  0  0  0  0  0  0  0
   23.6174  -21.0485  -16.1664 C   0  0  0  0  0  0  0  0  0  0  0  0
   24.3390  -20.1762  -15.5925 O   0  0  0  0  0  0  0  0  0  0  0  0
   18.7888  -25.3026  -12.8358 C   0  0  0  0  0  0  0  0  0  0  0  0
   24.9520  -17.6272  -20.2063 C   0  0  2  0  0  0  0  0  0  0  0  0
   23.5258  -18.0897  -20.1101 C   0  0  0  0  0  0  0  0  0  0  0  0
   23.0378  -18.2745  -21.5541 C   0  0  0  0  0  0  0  0  0  0  0  0
   23.3260  -19.3975  -19.4293 C   0  0  1  0  0  0  0  0  0  0  0  0
   23.1391  -19.3226  -17.9362 N   0  0  0  0  0  0  0  0  0  0  0  0
   22.9762  -20.6430  -17.3547 C   0  0  0  0  0  0  0  0  0  0  0  0
   22.0682  -18.3987  -17.5082 O   0  0  0  0  0  0  0  0  0  0  0  0
   22.2758  -17.0481  -17.2792 O   0  0  0  0  0  0  0  0  0  0  0  0
  2  1  1  6
  3  2  1  0
  4  5  2  0
  4  2  1  0
  6  7  1  0
  7  8  2  0
  9  7  1  0
  9 10  1  0
 10 11  1  0
 11 12  1  0
 13 12  1  1
 13 14  1  0
 14  4  1  0
 15 22  1  0
 15 13  1  0
 16 15  2  0
 18 17  1  6
 19 18  1  0
 20 18  1  0
 21 20  1  1
 21 22  1  0
 21 23  1  0
 23 24  1  0
 25 23  2  0
M  END
$$$$
