TVH.pdb
     RDKit          3D

 25 25  0  0  1  0  0  0  0  0999 V2000
   44.1710  -10.5865   -3.4614 C   0  0  0  0  0  0  0  0  0  0  0  0
   43.2797   -9.8678   -4.4471 C   0  0  1  0  0  0  0  0  0  0  0  0
   43.7229   -8.5770   -4.6907 O   0  0  0  0  0  0  0  0  0  0  0  0
   43.0131  -10.6519   -5.6832 C   0  0  2  0  0  0  0  0  0  0  0  0
   44.2865  -10.9577   -6.3204 N   0  0  0  0  0  0  0  0  0  0  0  0
   42.0626  -10.0410   -6.6230 C   0  0  0  0  0  0  0  0  0  0  0  0
   42.4434   -9.6183   -7.7646 O   0  0  0  0  0  0  0  0  0  0  0  0
   37.4731   -8.9539   -8.0882 C   0  0  0  0  0  0  0  0  0  0  0  0
   38.3509   -9.7050   -7.1097 C   0  0  1  0  0  0  0  0  0  0  0  0
   38.1718  -11.1795   -7.3962 C   0  0  0  0  0  0  0  0  0  0  0  0
   39.7653   -9.2456   -7.2593 C   0  0  2  0  0  0  0  0  0  0  0  0
   40.6863   -9.8738   -6.3534 N   0  0  0  0  0  0  0  0  0  0  0  0
   39.7783   -7.7598   -7.1385 C   0  0  0  0  0  0  0  0  0  0  0  0
   39.4684   -7.1696   -6.0715 O   0  0  0  0  0  0  0  0  0  0  0  0
   40.1479   -6.9240   -8.2424 N   0  0  0  0  0  0  0  0  0  0  0  0
   39.9913   -5.4747   -8.1805 C   0  0  1  0  0  0  0  0  0  0  0  0
   41.3662   -4.8498   -8.3583 C   0  0  0  0  0  0  0  0  0  0  0  0
   41.2993   -3.3703   -8.2441 C   0  0  0  0  0  0  0  0  0  0  0  0
   41.3600   -2.5866   -7.1188 C   0  0  0  0  0  0  0  0  0  0  0  0
   41.2577   -1.3032   -7.5108 N   0  0  0  0  0  0  0  0  0  0  0  0
   41.1345   -1.2444   -8.8422 C   0  0  0  0  0  0  0  0  0  0  0  0
   41.1602   -2.5043   -9.2857 N   0  0  0  0  0  0  0  0  0  0  0  0
   39.0491   -5.0025   -9.2240 C   0  0  0  0  0  0  0  0  0  0  0  0
   38.4501   -3.7532   -9.1635 O   0  0  0  0  0  0  0  0  0  0  0  0
   38.7428   -5.7176  -10.2256 O   0  0  0  0  0  0  0  0  0  0  0  0
  2  1  1  1
  2  3  1  0
  4  6  1  0
  4  2  1  0
  4  5  1  6
  6  7  2  0
  9  8  1  6
  9 10  1  0
 11  9  1  0
 12  6  1  0
 11 12  1  1
 13 11  1  0
 14 13  2  0
 15 13  1  0
 16 15  1  0
 16 17  1  6
 17 18  1  0
 18 22  1  0
 19 18  2  0
 19 20  1  0
 20 21  1  0
 22 21  2  0
 23 16  1  0
 23 24  1  0
 25 23  2  0
M  END
$$$$
