TVH.pdb
     RDKit          3D

 25 25  0  0  1  0  0  0  0  0999 V2000
   24.7254  -12.5759  -19.5766 C   0  0  0  0  0  0  0  0  0  0  0  0
   24.6217  -12.9576  -18.1185 C   0  0  1  0  0  0  0  0  0  0  0  0
   25.6330  -13.8291  -17.7447 O   0  0  0  0  0  0  0  0  0  0  0  0
   24.4740  -11.7880  -17.2107 C   0  0  2  0  0  0  0  0  0  0  0  0
   24.8659  -12.1928  -15.8677 N   0  0  0  0  0  0  0  0  0  0  0  0
   23.1536  -11.1431  -17.2255 C   0  0  0  0  0  0  0  0  0  0  0  0
   22.6879  -10.6180  -18.2906 O   0  0  0  0  0  0  0  0  0  0  0  0
   18.6623  -10.2911  -15.5545 C   0  0  0  0  0  0  0  0  0  0  0  0
   19.9040  -11.1566  -15.5910 C   0  0  1  0  0  0  0  0  0  0  0  0
   19.5880  -12.3467  -16.4697 C   0  0  0  0  0  0  0  0  0  0  0  0
   21.0572  -10.3477  -16.0906 C   0  0  2  0  0  0  0  0  0  0  0  0
   22.3097  -11.0512  -16.0966 N   0  0  0  0  0  0  0  0  0  0  0  0
   21.1174   -9.0933  -15.2874 C   0  0  0  0  0  0  0  0  0  0  0  0
   21.9421   -8.9339  -14.3509 O   0  0  0  0  0  0  0  0  0  0  0  0
   20.2303   -7.9978  -15.5459 N   0  0  0  0  0  0  0  0  0  0  0  0
   20.5083   -6.6608  -15.0322 C   0  0  1  0  0  0  0  0  0  0  0  0
   21.8836   -6.2467  -15.5318 C   0  0  0  0  0  0  0  0  0  0  0  0
   22.2196   -4.8688  -15.0904 C   0  0  0  0  0  0  0  0  0  0  0  0
   21.8986   -4.2350  -13.9160 C   0  0  0  0  0  0  0  0  0  0  0  0
   22.4203   -2.9953  -13.9668 N   0  0  0  0  0  0  0  0  0  0  0  0
   23.0598   -2.8201  -15.1294 C   0  0  0  0  0  0  0  0  0  0  0  0
   22.9359   -3.9623  -15.8112 N   0  0  0  0  0  0  0  0  0  0  0  0
   19.4668   -5.7012  -15.4726 C   0  0  0  0  0  0  0  0  0  0  0  0
   19.0624   -4.6387  -14.6784 O   0  0  0  0  0  0  0  0  0  0  0  0
   18.8925   -5.8032  -16.5987 O   0  0  0  0  0  0  0  0  0  0  0  0
  2  1  1  6
  2  3  1  0
  4  6  1  0
  4  2  1  0
  4  5  1  1
  6  7  2  0
  9  8  1  6
  9 10  1  0
 11  9  1  0
 12  6  1  0
 11 12  1  1
 13 11  1  0
 14 13  2  0
 15 13  1  0
 16 15  1  0
 16 17  1  6
 17 18  1  0
 18 22  1  0
 19 18  2  0
 19 20  1  0
 20 21  1  0
 22 21  2  0
 23 16  1  0
 23 24  1  0
 25 23  2  0
M  END
$$$$
