TVH.pdb
     RDKit          3D

 25 25  0  0  1  0  0  0  0  0999 V2000
   28.0174  -25.9734  -16.9958 C   0  0  0  0  0  0  0  0  0  0  0  0
   29.1776  -26.3199  -17.8994 C   0  0  1  0  0  0  0  0  0  0  0  0
   30.1801  -25.3646  -17.8338 O   0  0  0  0  0  0  0  0  0  0  0  0
   29.6673  -27.7139  -17.7237 C   0  0  2  0  0  0  0  0  0  0  0  0
   30.7208  -27.9601  -18.6986 N   0  0  0  0  0  0  0  0  0  0  0  0
   28.6302  -28.7545  -17.7627 C   0  0  0  0  0  0  0  0  0  0  0  0
   28.0866  -29.1029  -18.8627 O   0  0  0  0  0  0  0  0  0  0  0  0
   26.1058  -32.4966  -15.8337 C   0  0  0  0  0  0  0  0  0  0  0  0
   27.2804  -31.5494  -15.7094 C   0  0  1  0  0  0  0  0  0  0  0  0
   28.5295  -32.3539  -15.9932 C   0  0  0  0  0  0  0  0  0  0  0  0
   27.0940  -30.4030  -16.6501 C   0  0  2  0  0  0  0  0  0  0  0  0
   28.1593  -29.4397  -16.6209 N   0  0  0  0  0  0  0  0  0  0  0  0
   25.7671  -29.7873  -16.3629 C   0  0  0  0  0  0  0  0  0  0  0  0
   25.5622  -29.0768  -15.3451 O   0  0  0  0  0  0  0  0  0  0  0  0
   24.6502  -29.9768  -17.2406 N   0  0  0  0  0  0  0  0  0  0  0  0
   23.3433  -29.4032  -16.9379 C   0  0  1  0  0  0  0  0  0  0  0  0
   23.1186  -28.2326  -17.8822 C   0  0  0  0  0  0  0  0  0  0  0  0
   21.7958  -27.6002  -17.6435 C   0  0  0  0  0  0  0  0  0  0  0  0
   21.4264  -26.7122  -16.6642 C   0  0  0  0  0  0  0  0  0  0  0  0
   20.1263  -26.4186  -16.8506 N   0  0  0  0  0  0  0  0  0  0  0  0
   19.6581  -27.0874  -17.9112 C   0  0  0  0  0  0  0  0  0  0  0  0
   20.6768  -27.8058  -18.3917 N   0  0  0  0  0  0  0  0  0  0  0  0
   22.2753  -30.4219  -17.0835 C   0  0  0  0  0  0  0  0  0  0  0  0
   21.1372  -30.4130  -16.2912 O   0  0  0  0  0  0  0  0  0  0  0  0
   22.3484  -31.3538  -17.9406 O   0  0  0  0  0  0  0  0  0  0  0  0
  2  1  1  1
  2  3  1  0
  4  6  1  0
  4  2  1  0
  4  5  1  6
  6  7  2  0
  9  8  1  6
  9 10  1  0
 11  9  1  0
 12  6  1  0
 11 12  1  1
 13 11  1  0
 14 13  2  0
 15 13  1  0
 16 15  1  0
 16 17  1  6
 17 18  1  0
 18 22  1  0
 19 18  2  0
 19 20  1  0
 20 21  1  0
 22 21  2  0
 23 16  1  0
 23 24  1  0
 25 23  2  0
M  END
$$$$
