TVH.pdb
     RDKit          3D

 25 25  0  0  1  0  0  0  0  0999 V2000
   19.3406  -15.1251  -15.4284 C   0  0  0  0  0  0  0  0  0  0  0  0
   18.1307  -15.3360  -16.3084 C   0  0  1  0  0  0  0  0  0  0  0  0
   17.5843  -16.5979  -16.1328 O   0  0  0  0  0  0  0  0  0  0  0  0
   17.1345  -14.2347  -16.2166 C   0  0  2  0  0  0  0  0  0  0  0  0
   15.9713  -14.5958  -17.0152 N   0  0  0  0  0  0  0  0  0  0  0  0
   17.6409  -12.8982  -16.5589 C   0  0  0  0  0  0  0  0  0  0  0  0
   18.0038  -12.6152  -17.7486 O   0  0  0  0  0  0  0  0  0  0  0  0
   18.0839   -8.0964  -15.7552 C   0  0  0  0  0  0  0  0  0  0  0  0
   17.3768   -9.4147  -15.5222 C   0  0  1  0  0  0  0  0  0  0  0  0
   16.0678   -9.3544  -16.2778 C   0  0  0  0  0  0  0  0  0  0  0  0
   18.2599  -10.5358  -15.9665 C   0  0  2  0  0  0  0  0  0  0  0  0
   17.7660  -11.8419  -15.6296 N   0  0  0  0  0  0  0  0  0  0  0  0
   19.6236  -10.2882  -15.4175 C   0  0  0  0  0  0  0  0  0  0  0  0
   19.9028  -10.4698  -14.2043 O   0  0  0  0  0  0  0  0  0  0  0  0
   20.6927   -9.8272  -16.2532 N   0  0  0  0  0  0  0  0  0  0  0  0
   22.0308   -9.6034  -15.7165 C   0  0  1  0  0  0  0  0  0  0  0  0
   22.9309  -10.7159  -16.2310 C   0  0  0  0  0  0  0  0  0  0  0  0
   24.3328  -10.5201  -15.7805 C   0  0  0  0  0  0  0  0  0  0  0  0
   24.8441  -10.5535  -14.5071 C   0  0  0  0  0  0  0  0  0  0  0  0
   26.1668  -10.3205  -14.5936 N   0  0  0  0  0  0  0  0  0  0  0  0
   26.5126  -10.1409  -15.8740 C   0  0  0  0  0  0  0  0  0  0  0  0
   25.3940  -10.2630  -16.5941 N   0  0  0  0  0  0  0  0  0  0  0  0
   22.5427   -8.2708  -16.1185 C   0  0  0  0  0  0  0  0  0  0  0  0
   21.9710   -7.5444  -17.1523 O   0  0  0  0  0  0  0  0  0  0  0  0
   23.5299   -7.7271  -15.5371 O   0  0  0  0  0  0  0  0  0  0  0  0
  2  1  1  1
  2  3  1  0
  4  6  1  0
  4  2  1  0
  4  5  1  6
  6  7  2  0
  9  8  1  6
  9 10  1  0
 11  9  1  0
 12  6  1  0
 11 12  1  1
 13 11  1  0
 14 13  2  0
 15 13  1  0
 16 15  1  0
 16 17  1  6
 17 18  1  0
 18 22  1  0
 19 18  2  0
 19 20  1  0
 20 21  1  0
 22 21  2  0
 23 16  1  0
 23 24  1  0
 25 23  2  0
M  END
$$$$
