TVH.pdb
     RDKit          3D

 25 25  0  0  1  0  0  0  0  0999 V2000
   12.6156  -22.2160    2.3627 C   0  0  0  0  0  0  0  0  0  0  0  0
   13.1809  -22.6126    1.0190 C   0  0  1  0  0  0  0  0  0  0  0  0
   12.1791  -22.9509    0.1223 O   0  0  0  0  0  0  0  0  0  0  0  0
   14.1619  -21.6332    0.4784 C   0  0  2  0  0  0  0  0  0  0  0  0
   14.5611  -22.0658   -0.8537 N   0  0  0  0  0  0  0  0  0  0  0  0
   15.3229  -21.3657    1.3387 C   0  0  0  0  0  0  0  0  0  0  0  0
   16.2710  -22.2119    1.4489 O   0  0  0  0  0  0  0  0  0  0  0  0
   17.9668  -18.6384    1.3853 C   0  0  0  0  0  0  0  0  0  0  0  0
   17.2782  -18.6234    2.7336 C   0  0  1  0  0  0  0  0  0  0  0  0
   16.3146  -17.4574    2.7252 C   0  0  0  0  0  0  0  0  0  0  0  0
   16.6062  -19.9388    2.9613 C   0  0  2  0  0  0  0  0  0  0  0  0
   15.4865  -20.1844    2.0955 N   0  0  0  0  0  0  0  0  0  0  0  0
   16.2343  -20.0184    4.4027 C   0  0  0  0  0  0  0  0  0  0  0  0
   15.1069  -19.6552    4.8268 O   0  0  0  0  0  0  0  0  0  0  0  0
   17.1516  -20.5174    5.3841 N   0  0  0  0  0  0  0  0  0  0  0  0
   16.8540  -20.4346    6.8101 C   0  0  1  0  0  0  0  0  0  0  0  0
   17.7628  -21.4163    7.5332 C   0  0  0  0  0  0  0  0  0  0  0  0
   17.4634  -21.4495    8.9877 C   0  0  0  0  0  0  0  0  0  0  0  0
   16.4812  -20.7893    9.6833 C   0  0  0  0  0  0  0  0  0  0  0  0
   16.6012  -21.1308   10.9796 N   0  0  0  0  0  0  0  0  0  0  0  0
   17.6224  -21.9824   11.1313 C   0  0  0  0  0  0  0  0  0  0  0  0
   18.1452  -22.1745    9.9171 N   0  0  0  0  0  0  0  0  0  0  0  0
   17.0531  -19.0524    7.3095 C   0  0  0  0  0  0  0  0  0  0  0  0
   16.2137  -18.4840    8.2558 O   0  0  0  0  0  0  0  0  0  0  0  0
   18.0017  -18.3190    6.8963 O   0  0  0  0  0  0  0  0  0  0  0  0
  2  1  1  1
  2  3  1  0
  4  6  1  0
  4  2  1  0
  4  5  1  6
  6  7  2  0
  9  8  1  6
  9 10  1  0
 11  9  1  0
 12  6  1  0
 11 12  1  6
 13 11  1  0
 14 13  2  0
 15 13  1  0
 16 15  1  0
 16 17  1  1
 17 18  1  0
 18 22  1  0
 19 18  2  0
 19 20  1  0
 20 21  1  0
 22 21  2  0
 23 16  1  0
 23 24  1  0
 25 23  2  0
M  END
$$$$
