TVH.pdb
     RDKit          3D

 25 25  0  0  1  0  0  0  0  0999 V2000
   26.9511  -25.7294  -16.4688 C   0  0  0  0  0  0  0  0  0  0  0  0
   28.4369  -25.9689  -16.3362 C   0  0  1  0  0  0  0  0  0  0  0  0
   28.8008  -27.2120  -16.8305 O   0  0  0  0  0  0  0  0  0  0  0  0
   29.2648  -24.8502  -16.8624 C   0  0  2  0  0  0  0  0  0  0  0  0
   30.6629  -25.1303  -16.5654 N   0  0  0  0  0  0  0  0  0  0  0  0
   28.8673  -23.5084  -16.4138 C   0  0  0  0  0  0  0  0  0  0  0  0
   29.3441  -23.0023  -15.3444 O   0  0  0  0  0  0  0  0  0  0  0  0
   27.3087  -18.9802  -17.2429 C   0  0  0  0  0  0  0  0  0  0  0  0
   27.8281  -20.3121  -17.7413 C   0  0  1  0  0  0  0  0  0  0  0  0
   29.2891  -20.1178  -18.0819 C   0  0  0  0  0  0  0  0  0  0  0  0
   27.6031  -21.3547  -16.6943 C   0  0  2  0  0  0  0  0  0  0  0  0
   27.9512  -22.6861  -17.1063 N   0  0  0  0  0  0  0  0  0  0  0  0
   26.1846  -21.2542  -16.2468 C   0  0  0  0  0  0  0  0  0  0  0  0
   25.2226  -21.6007  -16.9797 O   0  0  0  0  0  0  0  0  0  0  0  0
   25.8451  -20.7532  -14.9477 N   0  0  0  0  0  0  0  0  0  0  0  0
   24.4552  -20.6452  -14.5173 C   0  0  1  0  0  0  0  0  0  0  0  0
   24.4507  -20.1675  -13.0736 C   0  0  0  0  0  0  0  0  0  0  0  0
   23.0647  -20.0666  -12.5487 C   0  0  0  0  0  0  0  0  0  0  0  0
   21.8872  -20.4561  -13.1369 C   0  0  0  0  0  0  0  0  0  0  0  0
   20.8894  -20.1644  -12.2822 N   0  0  0  0  0  0  0  0  0  0  0  0
   21.3906  -19.6047  -11.1745 C   0  0  0  0  0  0  0  0  0  0  0  0
   22.7150  -19.5465  -11.3398 N   0  0  0  0  0  0  0  0  0  0  0  0
   23.7046  -19.7126  -15.3927 C   0  0  0  0  0  0  0  0  0  0  0  0
   22.4194  -19.9906  -15.8333 O   0  0  0  0  0  0  0  0  0  0  0  0
   24.1999  -18.6124  -15.7833 O   0  0  0  0  0  0  0  0  0  0  0  0
  2  1  1  6
  2  3  1  0
  4  6  1  0
  4  2  1  0
  4  5  1  1
  6  7  2  0
  9  8  1  1
  9 10  1  0
 11  9  1  0
 12  6  1  0
 11 12  1  6
 13 11  1  0
 14 13  2  0
 15 13  1  0
 16 15  1  0
 16 17  1  1
 17 18  1  0
 18 22  1  0
 19 18  2  0
 19 20  1  0
 20 21  1  0
 22 21  2  0
 23 16  1  0
 23 24  1  0
 25 23  2  0
M  END
$$$$
