TVH.pdb
     RDKit          3D

 25 25  0  0  1  0  0  0  0  0999 V2000
   42.9015   -8.6678   -4.2300 C   0  0  0  0  0  0  0  0  0  0  0  0
   43.9276   -9.3821   -5.0782 C   0  0  1  0  0  0  0  0  0  0  0  0
   45.0234   -9.7805   -4.3283 O   0  0  0  0  0  0  0  0  0  0  0  0
   43.3494  -10.4675   -5.9157 C   0  0  2  0  0  0  0  0  0  0  0  0
   44.4350  -11.1373   -6.6186 N   0  0  0  0  0  0  0  0  0  0  0  0
   42.2775  -10.0523   -6.8313 C   0  0  0  0  0  0  0  0  0  0  0  0
   42.5401   -9.6296   -8.0058 O   0  0  0  0  0  0  0  0  0  0  0  0
   37.5151   -9.4139   -7.9987 C   0  0  0  0  0  0  0  0  0  0  0  0
   38.5031  -10.0391   -7.0369 C   0  0  1  0  0  0  0  0  0  0  0  0
   38.3964  -11.5386   -7.2056 C   0  0  0  0  0  0  0  0  0  0  0  0
   39.8726   -9.5123   -7.3215 C   0  0  2  0  0  0  0  0  0  0  0  0
   40.9044  -10.0844   -6.5019 N   0  0  0  0  0  0  0  0  0  0  0  0
   39.8224   -8.0264   -7.2119 C   0  0  0  0  0  0  0  0  0  0  0  0
   39.6119   -7.4399   -6.1190 O   0  0  0  0  0  0  0  0  0  0  0  0
   40.0134   -7.1863   -8.3571 N   0  0  0  0  0  0  0  0  0  0  0  0
   39.9085   -5.7345   -8.2572 C   0  0  1  0  0  0  0  0  0  0  0  0
   41.2250   -5.1389   -8.7311 C   0  0  0  0  0  0  0  0  0  0  0  0
   41.2378   -3.6639   -8.5556 C   0  0  0  0  0  0  0  0  0  0  0  0
   41.5502   -2.9290   -7.4391 C   0  0  0  0  0  0  0  0  0  0  0  0
   41.4204   -1.6281   -7.7589 N   0  0  0  0  0  0  0  0  0  0  0  0
   41.0376   -1.5113   -9.0360 C   0  0  0  0  0  0  0  0  0  0  0  0
   40.9273   -2.7523   -9.5183 N   0  0  0  0  0  0  0  0  0  0  0  0
   38.7713   -5.2325   -9.0660 C   0  0  0  0  0  0  0  0  0  0  0  0
   38.1028   -6.0384   -9.9754 O   0  0  0  0  0  0  0  0  0  0  0  0
   38.3516   -4.0398   -8.9673 O   0  0  0  0  0  0  0  0  0  0  0  0
  2  1  1  1
  2  3  1  0
  4  6  1  0
  4  2  1  0
  4  5  1  6
  6  7  2  0
  9  8  1  6
  9 10  1  0
 11  9  1  0
 12  6  1  0
 11 12  1  1
 13 11  1  0
 14 13  2  0
 15 13  1  0
 16 15  1  0
 16 17  1  6
 17 18  1  0
 18 22  1  0
 19 18  2  0
 19 20  1  0
 20 21  1  0
 22 21  2  0
 23 16  1  0
 23 24  1  0
 25 23  2  0
M  END
$$$$
