TVH.pdb
     RDKit          3D

 25 25  0  0  1  0  0  0  0  0999 V2000
   17.4333  -12.7436  -17.3162 C   0  0  0  0  0  0  0  0  0  0  0  0
   18.0549  -12.1080  -16.0946 C   0  0  1  0  0  0  0  0  0  0  0  0
   19.4306  -11.9929  -16.2218 O   0  0  0  0  0  0  0  0  0  0  0  0
   17.3848  -10.8460  -15.6797 C   0  0  2  0  0  0  0  0  0  0  0  0
   17.4520   -9.9015  -16.7863 N   0  0  0  0  0  0  0  0  0  0  0  0
   17.8743  -10.2567  -14.4256 C   0  0  0  0  0  0  0  0  0  0  0  0
   17.8750  -10.9248  -13.3390 O   0  0  0  0  0  0  0  0  0  0  0  0
   20.3764   -6.8373  -11.9201 C   0  0  0  0  0  0  0  0  0  0  0  0
   19.9952   -7.4175  -13.2656 C   0  0  1  0  0  0  0  0  0  0  0  0
   21.2343   -8.0764  -13.8303 C   0  0  0  0  0  0  0  0  0  0  0  0
   18.8538   -8.3664  -13.0904 C   0  0  2  0  0  0  0  0  0  0  0  0
   18.3725   -8.9395  -14.3165 N   0  0  0  0  0  0  0  0  0  0  0  0
   17.7802   -7.6559  -12.3388 C   0  0  0  0  0  0  0  0  0  0  0  0
   17.1495   -6.6829  -12.8268 O   0  0  0  0  0  0  0  0  0  0  0  0
   17.4111   -8.0507  -11.0115 N   0  0  0  0  0  0  0  0  0  0  0  0
   16.2644   -7.4537  -10.3352 C   0  0  1  0  0  0  0  0  0  0  0  0
   15.4631   -8.5777   -9.6972 C   0  0  0  0  0  0  0  0  0  0  0  0
   14.2189   -8.0591   -9.0732 C   0  0  0  0  0  0  0  0  0  0  0  0
   13.7942   -6.7604   -8.9419 C   0  0  0  0  0  0  0  0  0  0  0  0
   12.6067   -6.7827   -8.3088 N   0  0  0  0  0  0  0  0  0  0  0  0
   12.2632   -8.0468   -8.0341 C   0  0  0  0  0  0  0  0  0  0  0  0
   13.2466   -8.8214   -8.5007 N   0  0  0  0  0  0  0  0  0  0  0  0
   16.7076   -6.4680   -9.3195 C   0  0  0  0  0  0  0  0  0  0  0  0
   16.0729   -5.2461   -9.1543 O   0  0  0  0  0  0  0  0  0  0  0  0
   17.6901   -6.6924   -8.5497 O   0  0  0  0  0  0  0  0  0  0  0  0
  2  1  1  6
  2  3  1  0
  4  6  1  0
  4  2  1  0
  4  5  1  6
  6  7  2  0
  9  8  1  1
  9 10  1  0
 11  9  1  0
 12  6  1  0
 11 12  1  6
 13 11  1  0
 14 13  2  0
 15 13  1  0
 16 15  1  0
 16 17  1  1
 17 18  1  0
 18 22  1  0
 19 18  2  0
 19 20  1  0
 20 21  1  0
 22 21  2  0
 23 16  1  0
 23 24  1  0
 25 23  2  0
M  END
$$$$
