TMW.pdb
     RDKit          3D

 30 31  0  0  1  0  0  0  0  0999 V2000
    8.9500  -20.7530   22.9149 C   0  0  0  0  0  0  0  0  0  0  0  0
    8.7299  -21.0527   21.4444 C   0  0  1  0  0  0  0  0  0  0  0  0
    8.1344  -22.2444   21.1933 O   0  0  0  0  0  0  0  0  0  0  0  0
    8.0423  -19.8751   20.7624 C   0  0  2  0  0  0  0  0  0  0  0  0
    7.8177  -20.3407   19.3887 N   0  0  0  0  0  0  0  0  0  0  0  0
    8.8540  -18.6463   20.7631 C   0  0  0  0  0  0  0  0  0  0  0  0
   10.0831  -18.6438   20.4528 O   0  0  0  0  0  0  0  0  0  0  0  0
    6.9734  -13.1065   18.7516 C   0  0  0  0  0  0  0  0  0  0  0  0
    7.5393  -12.4705   20.3568 S   0  0  0  0  0  0  0  0  0  0  0  0
    8.7300  -13.6955   21.0346 C   0  0  0  0  0  0  0  0  0  0  0  0
    8.0807  -15.0450   20.9463 C   0  0  0  0  0  0  0  0  0  0  0  0
    9.0594  -16.1741   21.2823 C   0  0  2  0  0  0  0  0  0  0  0  0
    8.2854  -17.3873   21.1180 N   0  0  0  0  0  0  0  0  0  0  0  0
    9.6195  -15.9806   22.6154 C   0  0  0  0  0  0  0  0  0  0  0  0
   10.3967  -15.0024   22.8511 O   0  0  0  0  0  0  0  0  0  0  0  0
    9.3657  -16.8143   23.7207 N   0  0  0  0  0  0  0  0  0  0  0  0
   10.0677  -16.6386   25.0119 C   0  0  1  0  0  0  0  0  0  0  0  0
    9.7871  -15.2395   25.4955 C   0  0  0  0  0  0  0  0  0  0  0  0
    8.3807  -14.9725   25.8024 C   0  0  0  0  0  0  0  0  0  0  0  0
    7.3079  -15.8683   25.7406 C   0  0  0  0  0  0  0  0  0  0  0  0
    6.1750  -15.2142   26.0460 N   0  0  0  0  0  0  0  0  0  0  0  0
    6.4173  -13.9218   26.3149 C   0  0  0  0  0  0  0  0  0  0  0  0
    5.6161  -12.8445   26.6993 C   0  0  0  0  0  0  0  0  0  0  0  0
    6.2069  -11.6315   26.9255 C   0  0  0  0  0  0  0  0  0  0  0  0
    7.5628  -11.4351   26.7883 C   0  0  0  0  0  0  0  0  0  0  0  0
    8.3319  -12.4943   26.4120 C   0  0  0  0  0  0  0  0  0  0  0  0
    7.7923  -13.7615   26.1653 C   0  0  0  0  0  0  0  0  0  0  0  0
    9.6664  -17.7012   25.9029 C   0  0  0  0  0  0  0  0  0  0  0  0
   10.3248  -17.9137   27.1026 O   0  0  0  0  0  0  0  0  0  0  0  0
    8.7124  -18.4641   25.6166 O   0  0  0  0  0  0  0  0  0  0  0  0
  2  1  1  1
  2  3  1  0
  4  2  1  0
  4  5  1  6
  6  4  1  0
  7  6  2  0
  9  8  1  0
  9 10  1  0
 10 11  1  0
 12 11  1  1
 12 13  1  0
 13  6  1  0
 14 12  1  0
 14 15  2  0
 16 14  1  0
 17 16  1  0
 18 19  1  0
 17 18  1  1
 19 20  2  0
 21 20  1  0
 22 21  1  0
 23 22  2  0
 24 23  1  0
 25 24  2  0
 25 26  1  0
 26 27  2  0
 27 22  1  0
 27 19  1  0
 28 17  1  0
 29 28  1  0
 30 28  2  0
M  END
$$$$
