TMW.pdb
     RDKit          3D

 30 31  0  0  1  0  0  0  0  0999 V2000
    5.5054  -21.7729   24.7032 C   0  0  0  0  0  0  0  0  0  0  0  0
    6.2253  -20.4637   24.4419 C   0  0  1  0  0  0  0  0  0  0  0  0
    7.2041  -20.5336   23.5064 O   0  0  0  0  0  0  0  0  0  0  0  0
    5.2176  -19.3491   24.1835 C   0  0  2  0  0  0  0  0  0  0  0  0
    4.4756  -19.8066   23.0026 N   0  0  0  0  0  0  0  0  0  0  0  0
    5.8470  -18.0436   23.9220 C   0  0  0  0  0  0  0  0  0  0  0  0
    6.1542  -17.6593   22.7537 O   0  0  0  0  0  0  0  0  0  0  0  0
    7.3886  -11.0283   26.4272 C   0  0  0  0  0  0  0  0  0  0  0  0
    6.4323  -12.5729   26.3984 S   0  0  0  0  0  0  0  0  0  0  0  0
    7.6317  -13.9476   26.1761 C   0  0  0  0  0  0  0  0  0  0  0  0
    6.8478  -15.2266   26.1672 C   0  0  0  0  0  0  0  0  0  0  0  0
    6.9906  -15.9762   24.8393 C   0  0  2  0  0  0  0  0  0  0  0  0
    6.1430  -17.1415   24.9864 N   0  0  0  0  0  0  0  0  0  0  0  0
    8.3941  -16.2695   24.5702 C   0  0  0  0  0  0  0  0  0  0  0  0
    9.0852  -16.9310   25.4076 O   0  0  0  0  0  0  0  0  0  0  0  0
    9.0888  -15.8723   23.4123 N   0  0  0  0  0  0  0  0  0  0  0  0
   10.3170  -16.5632   22.9600 C   0  0  1  0  0  0  0  0  0  0  0  0
   10.3395  -16.5121   21.4542 C   0  0  0  0  0  0  0  0  0  0  0  0
   10.1323  -15.1781   20.8878 C   0  0  0  0  0  0  0  0  0  0  0  0
   11.1062  -14.2808   20.4366 C   0  0  0  0  0  0  0  0  0  0  0  0
   10.5052  -13.1456   20.0436 N   0  0  0  0  0  0  0  0  0  0  0  0
    9.1743  -13.2208   20.2001 C   0  0  0  0  0  0  0  0  0  0  0  0
    8.1155  -12.3512   19.9301 C   0  0  0  0  0  0  0  0  0  0  0  0
    6.8385  -12.7663   20.1925 C   0  0  0  0  0  0  0  0  0  0  0  0
    6.5601  -14.0105   20.7126 C   0  0  0  0  0  0  0  0  0  0  0  0
    7.6026  -14.8478   20.9718 C   0  0  0  0  0  0  0  0  0  0  0  0
    8.9321  -14.4868   20.7268 C   0  0  0  0  0  0  0  0  0  0  0  0
   11.4520  -15.9671   23.6236 C   0  0  0  0  0  0  0  0  0  0  0  0
   12.7325  -16.4563   23.4260 O   0  0  0  0  0  0  0  0  0  0  0  0
   11.3125  -14.9911   24.3996 O   0  0  0  0  0  0  0  0  0  0  0  0
  2  1  1  6
  2  3  1  0
  4  2  1  0
  4  5  1  6
  6  4  1  0
  7  6  2  0
  9  8  1  0
  9 10  1  0
 10 11  1  0
 12 11  1  1
 12 13  1  0
 13  6  1  0
 14 12  1  0
 14 15  2  0
 16 14  1  0
 17 16  1  0
 18 19  1  0
 17 18  1  6
 19 20  2  0
 21 20  1  0
 22 21  1  0
 23 22  2  0
 24 23  1  0
 25 24  2  0
 25 26  1  0
 26 27  2  0
 27 22  1  0
 27 19  1  0
 28 17  1  0
 29 28  1  0
 30 28  2  0
M  END
$$$$
