TMW.pdb
     RDKit          3D

 30 31  0  0  1  0  0  0  0  0999 V2000
    7.8871  -19.9856   23.2054 C   0  0  0  0  0  0  0  0  0  0  0  0
    7.8199  -20.8118   21.9351 C   0  0  1  0  0  0  0  0  0  0  0  0
    7.1473  -21.9825   22.0569 O   0  0  0  0  0  0  0  0  0  0  0  0
    7.3371  -19.9530   20.7714 C   0  0  2  0  0  0  0  0  0  0  0  0
    7.1357  -20.9131   19.6797 N   0  0  0  0  0  0  0  0  0  0  0  0
    8.3035  -18.9157   20.3726 C   0  0  0  0  0  0  0  0  0  0  0  0
    9.3670  -19.1858   19.7378 O   0  0  0  0  0  0  0  0  0  0  0  0
    7.6803  -11.9086   21.3431 C   0  0  0  0  0  0  0  0  0  0  0  0
    7.8255  -12.6140   19.6750 S   0  0  0  0  0  0  0  0  0  0  0  0
    8.9725  -14.0453   19.7910 C   0  0  0  0  0  0  0  0  0  0  0  0
    8.1618  -15.2335   20.2169 C   0  0  0  0  0  0  0  0  0  0  0  0
    9.0266  -16.4865   20.3833 C   0  0  2  0  0  0  0  0  0  0  0  0
    8.0827  -17.5421   20.6876 N   0  0  0  0  0  0  0  0  0  0  0  0
   10.0487  -16.2666   21.4008 C   0  0  0  0  0  0  0  0  0  0  0  0
   10.9793  -15.4225   21.2061 O   0  0  0  0  0  0  0  0  0  0  0  0
   10.1027  -16.9315   22.6402 N   0  0  0  0  0  0  0  0  0  0  0  0
    9.9833  -16.2055   23.9244 C   0  0  1  0  0  0  0  0  0  0  0  0
    9.0323  -15.0565   23.7107 C   0  0  0  0  0  0  0  0  0  0  0  0
    7.9795  -14.9420   24.7216 C   0  0  0  0  0  0  0  0  0  0  0  0
    7.0776  -15.9299   25.1314 C   0  0  0  0  0  0  0  0  0  0  0  0
    6.2379  -15.4048   26.0390 N   0  0  0  0  0  0  0  0  0  0  0  0
    6.5196  -14.1134   26.2720 C   0  0  0  0  0  0  0  0  0  0  0  0
    5.9825  -13.1411   27.1184 C   0  0  0  0  0  0  0  0  0  0  0  0
    6.5431  -11.8932   27.1280 C   0  0  0  0  0  0  0  0  0  0  0  0
    7.6179  -11.5619   26.3336 C   0  0  0  0  0  0  0  0  0  0  0  0
    8.1309  -12.5197   25.5124 C   0  0  0  0  0  0  0  0  0  0  0  0
    7.6061  -13.8155   25.4536 C   0  0  0  0  0  0  0  0  0  0  0  0
    9.6071  -17.1465   24.9525 C   0  0  0  0  0  0  0  0  0  0  0  0
   10.0858  -17.0200   26.2459 O   0  0  0  0  0  0  0  0  0  0  0  0
    8.8383  -18.1067   24.7051 O   0  0  0  0  0  0  0  0  0  0  0  0
  2  1  1  1
  2  3  1  0
  4  2  1  0
  4  5  1  6
  6  4  1  0
  7  6  2  0
  9  8  1  0
  9 10  1  0
 10 11  1  0
 12 11  1  1
 12 13  1  0
 13  6  1  0
 14 12  1  0
 14 15  2  0
 16 14  1  0
 17 16  1  0
 18 19  1  0
 17 18  1  6
 19 20  2  0
 21 20  1  0
 22 21  1  0
 23 22  2  0
 24 23  1  0
 25 24  2  0
 25 26  1  0
 26 27  2  0
 27 22  1  0
 27 19  1  0
 28 17  1  0
 29 28  1  0
 30 28  2  0
M  END
$$$$
