TMW.pdb
     RDKit          3D

 30 31  0  0  1  0  0  0  0  0999 V2000
   10.3256  -20.7111   18.7285 C   0  0  0  0  0  0  0  0  0  0  0  0
   10.5873  -19.6756   19.8056 C   0  0  1  0  0  0  0  0  0  0  0  0
   11.8333  -19.7162   20.3382 O   0  0  0  0  0  0  0  0  0  0  0  0
   10.1817  -18.2899   19.3157 C   0  0  2  0  0  0  0  0  0  0  0  0
   11.0768  -18.0374   18.1803 N   0  0  0  0  0  0  0  0  0  0  0  0
   10.3387  -17.2415   20.3379 C   0  0  0  0  0  0  0  0  0  0  0  0
   11.4282  -16.6160   20.5080 O   0  0  0  0  0  0  0  0  0  0  0  0
    7.4363  -12.2619   20.1089 C   0  0  0  0  0  0  0  0  0  0  0  0
    8.2309  -13.2127   21.4377 S   0  0  0  0  0  0  0  0  0  0  0  0
    7.3299  -14.8088   21.5741 C   0  0  0  0  0  0  0  0  0  0  0  0
    7.9675  -15.5875   22.6866 C   0  0  0  0  0  0  0  0  0  0  0  0
    9.3994  -16.0084   22.3432 C   0  0  2  0  0  0  0  0  0  0  0  0
    9.2571  -16.8784   21.1939 N   0  0  0  0  0  0  0  0  0  0  0  0
   10.0396  -16.6229   23.5011 C   0  0  0  0  0  0  0  0  0  0  0  0
   10.3215  -17.8626   23.4979 O   0  0  0  0  0  0  0  0  0  0  0  0
   10.3949  -15.9383   24.6785 N   0  0  0  0  0  0  0  0  0  0  0  0
   10.2542  -16.5557   26.0163 C   0  0  1  0  0  0  0  0  0  0  0  0
    8.9367  -16.1027   26.5901 C   0  0  0  0  0  0  0  0  0  0  0  0
    8.8968  -14.6929   26.9829 C   0  0  0  0  0  0  0  0  0  0  0  0
    9.8100  -14.0044   27.7888 C   0  0  0  0  0  0  0  0  0  0  0  0
    9.3819  -12.7417   27.9527 N   0  0  0  0  0  0  0  0  0  0  0  0
    8.2278  -12.5311   27.3006 C   0  0  0  0  0  0  0  0  0  0  0  0
    7.3985  -11.4205   27.1312 C   0  0  0  0  0  0  0  0  0  0  0  0
    6.2774  -11.5470   26.3572 C   0  0  0  0  0  0  0  0  0  0  0  0
    5.9381  -12.7298   25.7393 C   0  0  0  0  0  0  0  0  0  0  0  0
    6.7556  -13.8050   25.9140 C   0  0  0  0  0  0  0  0  0  0  0  0
    7.9171  -13.7443   26.6919 C   0  0  0  0  0  0  0  0  0  0  0  0
   10.4220  -17.9834   25.8848 C   0  0  0  0  0  0  0  0  0  0  0  0
   11.1102  -18.7124   26.8403 O   0  0  0  0  0  0  0  0  0  0  0  0
    9.9521  -18.6054   24.9016 O   0  0  0  0  0  0  0  0  0  0  0  0
  2  1  1  6
  2  3  1  0
  4  2  1  0
  4  5  1  6
  6  4  1  0
  7  6  2  0
  9  8  1  0
  9 10  1  0
 10 11  1  0
 12 11  1  1
 12 13  1  0
 13  6  1  0
 14 12  1  0
 14 15  2  0
 16 14  1  0
 17 16  1  0
 18 19  1  0
 17 18  1  6
 19 20  2  0
 21 20  1  0
 22 21  1  0
 23 22  2  0
 24 23  1  0
 25 24  2  0
 25 26  1  0
 26 27  2  0
 27 22  1  0
 27 19  1  0
 28 17  1  0
 29 28  1  0
 30 28  2  0
M  END
$$$$
