TMW.pdb
     RDKit          3D

 30 31  0  0  1  0  0  0  0  0999 V2000
    7.7536  -21.2368   20.4406 C   0  0  0  0  0  0  0  0  0  0  0  0
    8.3948  -19.9508   20.9261 C   0  0  1  0  0  0  0  0  0  0  0  0
    9.6792  -20.0806   21.3400 O   0  0  0  0  0  0  0  0  0  0  0  0
    8.1976  -18.8416   19.8988 C   0  0  2  0  0  0  0  0  0  0  0  0
    8.8678  -19.3477   18.6951 N   0  0  0  0  0  0  0  0  0  0  0  0
    8.7830  -17.5547   20.3112 C   0  0  0  0  0  0  0  0  0  0  0  0
    9.9637  -17.2143   19.9995 O   0  0  0  0  0  0  0  0  0  0  0  0
    7.5140  -11.7799   18.6486 C   0  0  0  0  0  0  0  0  0  0  0  0
    8.1820  -12.6309   20.1083 S   0  0  0  0  0  0  0  0  0  0  0  0
    6.9448  -13.8933   20.6118 C   0  0  0  0  0  0  0  0  0  0  0  0
    7.4207  -14.4952   21.9009 C   0  0  0  0  0  0  0  0  0  0  0  0
    8.6120  -15.4341   21.6887 C   0  0  2  0  0  0  0  0  0  0  0  0
    8.0372  -16.6214   21.0905 N   0  0  0  0  0  0  0  0  0  0  0  0
    9.3111  -15.6602   22.9490 C   0  0  0  0  0  0  0  0  0  0  0  0
    8.7954  -15.2818   24.0478 O   0  0  0  0  0  0  0  0  0  0  0  0
   10.5632  -16.2918   23.0695 N   0  0  0  0  0  0  0  0  0  0  0  0
   11.2777  -16.3739   24.3631 C   0  0  1  0  0  0  0  0  0  0  0  0
   10.3812  -17.0995   25.3327 C   0  0  0  0  0  0  0  0  0  0  0  0
   10.3945  -16.5602   26.6937 C   0  0  0  0  0  0  0  0  0  0  0  0
   10.9704  -17.1315   27.8335 C   0  0  0  0  0  0  0  0  0  0  0  0
   10.7126  -16.3467   28.8929 N   0  0  0  0  0  0  0  0  0  0  0  0
    9.9943  -15.2702   28.5370 C   0  0  0  0  0  0  0  0  0  0  0  0
    9.4977  -14.1637   29.2292 C   0  0  0  0  0  0  0  0  0  0  0  0
    8.8091  -13.2067   28.5351 C   0  0  0  0  0  0  0  0  0  0  0  0
    8.5887  -13.2954   27.1788 C   0  0  0  0  0  0  0  0  0  0  0  0
    9.0779  -14.3805   26.5167 C   0  0  0  0  0  0  0  0  0  0  0  0
    9.7908  -15.3949   27.1652 C   0  0  0  0  0  0  0  0  0  0  0  0
   12.5714  -16.9737   24.1376 C   0  0  0  0  0  0  0  0  0  0  0  0
   13.6327  -16.7236   24.9914 O   0  0  0  0  0  0  0  0  0  0  0  0
   12.7732  -17.7363   23.1620 O   0  0  0  0  0  0  0  0  0  0  0  0
  2  1  1  6
  2  3  1  0
  4  2  1  0
  4  5  1  6
  6  4  1  0
  7  6  2  0
  9  8  1  0
  9 10  1  0
 10 11  1  0
 12 11  1  1
 12 13  1  0
 13  6  1  0
 14 12  1  0
 14 15  2  0
 16 14  1  0
 17 16  1  0
 18 19  1  0
 17 18  1  1
 19 20  2  0
 21 20  1  0
 22 21  1  0
 23 22  2  0
 24 23  1  0
 25 24  2  0
 25 26  1  0
 26 27  2  0
 27 22  1  0
 27 19  1  0
 28 17  1  0
 29 28  1  0
 30 28  2  0
M  END
$$$$
