TMW.pdb
     RDKit          3D

 30 31  0  0  1  0  0  0  0  0999 V2000
   11.0643  -18.9672   17.2316 C   0  0  0  0  0  0  0  0  0  0  0  0
   10.9375  -17.7335   18.1049 C   0  0  1  0  0  0  0  0  0  0  0  0
    9.9394  -16.8883   17.7481 O   0  0  0  0  0  0  0  0  0  0  0  0
   10.8998  -18.1298   19.5767 C   0  0  2  0  0  0  0  0  0  0  0  0
    9.6716  -18.9238   19.7004 N   0  0  0  0  0  0  0  0  0  0  0  0
   10.8605  -16.9753   20.4902 C   0  0  0  0  0  0  0  0  0  0  0  0
   11.8222  -16.1554   20.5908 O   0  0  0  0  0  0  0  0  0  0  0  0
    7.3182  -12.2723   18.7326 C   0  0  0  0  0  0  0  0  0  0  0  0
    7.0526  -13.2129   20.2642 S   0  0  0  0  0  0  0  0  0  0  0  0
    8.6527  -14.0075   20.6954 C   0  0  0  0  0  0  0  0  0  0  0  0
    8.4168  -14.8554   21.9102 C   0  0  0  0  0  0  0  0  0  0  0  0
    9.6605  -15.6620   22.2955 C   0  0  2  0  0  0  0  0  0  0  0  0
    9.7230  -16.7250   21.3136 N   0  0  0  0  0  0  0  0  0  0  0  0
    9.5653  -16.1117   23.6800 C   0  0  0  0  0  0  0  0  0  0  0  0
    9.0379  -17.2350   23.9568 O   0  0  0  0  0  0  0  0  0  0  0  0
   10.0277  -15.3848   24.7930 N   0  0  0  0  0  0  0  0  0  0  0  0
   10.1919  -16.0107   26.1241 C   0  0  1  0  0  0  0  0  0  0  0  0
    8.8286  -16.4508   26.5912 C   0  0  0  0  0  0  0  0  0  0  0  0
    7.7445  -15.5232   26.2630 C   0  0  0  0  0  0  0  0  0  0  0  0
    6.5566  -15.8050   25.5798 C   0  0  0  0  0  0  0  0  0  0  0  0
    5.8558  -14.6681   25.4358 N   0  0  0  0  0  0  0  0  0  0  0  0
    6.5001  -13.6269   25.9856 C   0  0  0  0  0  0  0  0  0  0  0  0
    6.2048  -12.2695   26.1282 C   0  0  0  0  0  0  0  0  0  0  0  0
    7.0960  -11.4668   26.7865 C   0  0  0  0  0  0  0  0  0  0  0  0
    8.2729  -11.9495   27.3136 C   0  0  0  0  0  0  0  0  0  0  0  0
    8.5483  -13.2752   27.1662 C   0  0  0  0  0  0  0  0  0  0  0  0
    7.6808  -14.1514   26.5048 C   0  0  0  0  0  0  0  0  0  0  0  0
   11.1858  -17.0529   26.0238 C   0  0  0  0  0  0  0  0  0  0  0  0
   11.5458  -17.8048   27.1296 O   0  0  0  0  0  0  0  0  0  0  0  0
   11.7539  -17.3067   24.9343 O   0  0  0  0  0  0  0  0  0  0  0  0
  2  1  1  6
  2  3  1  0
  4  2  1  0
  4  5  1  6
  6  4  1  0
  7  6  2  0
  9  8  1  0
  9 10  1  0
 10 11  1  0
 12 11  1  6
 12 13  1  0
 13  6  1  0
 14 12  1  0
 14 15  2  0
 16 14  1  0
 17 16  1  0
 18 19  1  0
 17 18  1  6
 19 20  2  0
 21 20  1  0
 22 21  1  0
 23 22  2  0
 24 23  1  0
 25 24  2  0
 25 26  1  0
 26 27  2  0
 27 22  1  0
 27 19  1  0
 28 17  1  0
 29 28  1  0
 30 28  2  0
M  END
$$$$
