TMW.pdb
     RDKit          3D

 30 31  0  0  1  0  0  0  0  0999 V2000
    8.3452  -13.7859   15.4218 C   0  0  0  0  0  0  0  0  0  0  0  0
    7.6964  -13.9766   16.7795 C   0  0  1  0  0  0  0  0  0  0  0  0
    6.5877  -14.7567   16.7718 O   0  0  0  0  0  0  0  0  0  0  0  0
    8.7370  -14.4111   17.8058 C   0  0  2  0  0  0  0  0  0  0  0  0
    9.1904  -15.7202   17.3208 N   0  0  0  0  0  0  0  0  0  0  0  0
    8.1962  -14.5270   19.1707 C   0  0  0  0  0  0  0  0  0  0  0  0
    7.8042  -13.5203   19.8340 O   0  0  0  0  0  0  0  0  0  0  0  0
    4.4170  -19.0282   21.8537 C   0  0  0  0  0  0  0  0  0  0  0  0
    4.3516  -18.3227   20.1807 S   0  0  0  0  0  0  0  0  0  0  0  0
    5.4458  -16.8461   20.1732 C   0  0  0  0  0  0  0  0  0  0  0  0
    6.6169  -17.1540   21.0588 C   0  0  0  0  0  0  0  0  0  0  0  0
    7.5832  -15.9703   21.1619 C   0  0  2  0  0  0  0  0  0  0  0  0
    8.0882  -15.7946   19.8158 N   0  0  0  0  0  0  0  0  0  0  0  0
    8.6045  -16.2348   22.1696 C   0  0  0  0  0  0  0  0  0  0  0  0
    9.6337  -16.9217   21.8777 O   0  0  0  0  0  0  0  0  0  0  0  0
    8.5569  -15.7759   23.4994 N   0  0  0  0  0  0  0  0  0  0  0  0
    9.6363  -16.0698   24.4685 C   0  0  1  0  0  0  0  0  0  0  0  0
    9.5768  -15.0202   25.5479 C   0  0  0  0  0  0  0  0  0  0  0  0
    8.2222  -14.6389   25.9515 C   0  0  0  0  0  0  0  0  0  0  0  0
    7.1249  -15.4807   26.1628 C   0  0  0  0  0  0  0  0  0  0  0  0
    6.0524  -14.7315   26.4679 N   0  0  0  0  0  0  0  0  0  0  0  0
    6.3593  -13.4248   26.4785 C   0  0  0  0  0  0  0  0  0  0  0  0
    5.6369  -12.2613   26.7512 C   0  0  0  0  0  0  0  0  0  0  0  0
    6.2829  -11.0565   26.6966 C   0  0  0  0  0  0  0  0  0  0  0  0
    7.6194  -10.9504   26.3831 C   0  0  0  0  0  0  0  0  0  0  0  0
    8.3113  -12.0933   26.1186 C   0  0  0  0  0  0  0  0  0  0  0  0
    7.7125  -13.3573   26.1571 C   0  0  0  0  0  0  0  0  0  0  0  0
    9.4957  -17.4354   24.9148 C   0  0  0  0  0  0  0  0  0  0  0  0
   10.5203  -18.0738   25.5934 O   0  0  0  0  0  0  0  0  0  0  0  0
    8.4437  -18.0845   24.6998 O   0  0  0  0  0  0  0  0  0  0  0  0
  2  1  1  6
  2  3  1  0
  4  2  1  0
  4  5  1  6
  6  4  1  0
  7  6  2  0
  9  8  1  0
  9 10  1  0
 10 11  1  0
 12 11  1  6
 12 13  1  0
 13  6  1  0
 14 12  1  0
 14 15  2  0
 16 14  1  0
 17 16  1  0
 18 19  1  0
 17 18  1  1
 19 20  2  0
 21 20  1  0
 22 21  1  0
 23 22  2  0
 24 23  1  0
 25 24  2  0
 25 26  1  0
 26 27  2  0
 27 22  1  0
 27 19  1  0
 28 17  1  0
 29 28  1  0
 30 28  2  0
M  END
$$$$
