YNK.pdb
     RDKit          3D

 30 30  0  0  1  0  0  0  0  0999 V2000
    7.9325  -12.2707   26.7155 O   0  0  0  0  0  0  0  0  0  0  0  0
    7.6016  -13.4264   26.0085 C   0  0  0  0  0  0  0  0  0  0  0  0
    7.2345  -13.3949   24.6812 C   0  0  0  0  0  0  0  0  0  0  0  0
    6.9061  -14.5521   23.9834 C   0  0  0  0  0  0  0  0  0  0  0  0
    6.9374  -15.7837   24.6050 C   0  0  0  0  0  0  0  0  0  0  0  0
    6.5881  -16.9773   23.8604 C   0  0  0  0  0  0  0  0  0  0  0  0
    7.2338  -17.1699   22.5295 C   0  0  2  0  0  0  0  0  0  0  0  0
    6.5709  -18.2292   21.7935 N   0  0  0  0  0  0  0  0  0  0  0  0
    8.6944  -17.3162   22.5519 C   0  0  0  0  0  0  0  0  0  0  0  0
    9.1428  -18.4990   22.6617 O   0  0  0  0  0  0  0  0  0  0  0  0
    7.3072  -15.7959   25.9345 C   0  0  0  0  0  0  0  0  0  0  0  0
    7.6336  -14.6575   26.6326 C   0  0  0  0  0  0  0  0  0  0  0  0
   14.2090  -14.6892   22.2564 N   0  0  0  0  0  0  0  0  0  0  0  0
   13.2704  -15.6040   21.7398 C   0  0  0  0  0  0  0  0  0  0  0  0
   13.6598  -16.6546   21.1981 O   0  0  0  0  0  0  0  0  0  0  0  0
   11.8309  -15.3151   21.8426 C   0  0  0  0  0  0  0  0  0  0  0  0
   11.0696  -16.4726   22.4356 C   0  0  2  0  0  0  0  0  0  0  0  0
    9.6456  -16.2772   22.4645 N   0  0  0  0  0  0  0  0  0  0  0  0
   11.6340  -16.7407   23.7808 C   0  0  0  0  0  0  0  0  0  0  0  0
   12.8669  -16.9418   23.8738 O   0  0  0  0  0  0  0  0  0  0  0  0
   10.8527  -16.7790   24.9561 N   0  0  0  0  0  0  0  0  0  0  0  0
   11.3743  -17.1505   26.2613 C   0  0  1  0  0  0  0  0  0  0  0  0
   10.4703  -16.4591   27.2717 C   0  0  0  0  0  0  0  0  0  0  0  0
   10.7142  -14.9982   27.4121 C   0  0  0  0  0  0  0  0  0  0  0  0
    9.7813  -14.4181   28.4398 C   0  0  0  0  0  0  0  0  0  0  0  0
    9.8681  -12.9166   28.5535 C   0  0  0  0  0  0  0  0  0  0  0  0
    8.8937  -12.4861   29.5436 N   0  0  0  0  0  0  0  0  0  0  0  0
   11.3567  -18.6119   26.4568 C   0  0  0  0  0  0  0  0  0  0  0  0
   11.9297  -19.1946   27.4032 O   0  0  0  0  0  0  0  0  0  0  0  0
   10.6585  -19.3847   25.5309 O   0  0  0  0  0  0  0  0  0  0  0  0
  2  1  1  0
  3  2  2  0
  4  3  1  0
  5  4  2  0
  5 11  1  0
  6  5  1  0
  7  6  1  0
  7  9  1  0
  7  8  1  1
  9 10  2  0
 11 12  2  0
 12  2  1  0
 13 14  1  0
 14 16  1  0
 14 15  2  0
 17 16  1  1
 18 17  1  0
 18  9  1  0
 19 17  1  0
 19 20  2  0
 21 19  1  0
 22 21  1  0
 22 28  1  0
 22 23  1  1
 24 23  1  0
 25 24  1  0
 26 25  1  0
 26 27  1  0
 28 29  2  0
 28 30  1  0
M  END
$$$$
