YNK.pdb
     RDKit          3D

 30 30  0  0  1  0  0  0  0  0999 V2000
    4.2494  -29.3750   25.0987 O   0  0  0  0  0  0  0  0  0  0  0  0
    5.3290  -28.8475   24.3907 C   0  0  0  0  0  0  0  0  0  0  0  0
    5.3750  -27.5280   23.9983 C   0  0  0  0  0  0  0  0  0  0  0  0
    6.4555  -27.0099   23.2925 C   0  0  0  0  0  0  0  0  0  0  0  0
    7.5289  -27.8099   22.9583 C   0  0  0  0  0  0  0  0  0  0  0  0
    8.6436  -27.2510   22.2193 C   0  0  0  0  0  0  0  0  0  0  0  0
    8.6704  -27.4739   20.7444 C   0  0  2  0  0  0  0  0  0  0  0  0
    8.7048  -28.8929   20.4472 N   0  0  0  0  0  0  0  0  0  0  0  0
    9.6864  -26.7106   20.0092 C   0  0  0  0  0  0  0  0  0  0  0  0
   10.6305  -27.3810   19.4883 O   0  0  0  0  0  0  0  0  0  0  0  0
    7.4654  -29.1289   23.3594 C   0  0  0  0  0  0  0  0  0  0  0  0
    6.4019  -29.6501   24.0574 C   0  0  0  0  0  0  0  0  0  0  0  0
    9.9319  -24.6039   15.6002 N   0  0  0  0  0  0  0  0  0  0  0  0
    9.5217  -24.6359   16.9476 C   0  0  0  0  0  0  0  0  0  0  0  0
    8.5842  -25.3774   17.2944 O   0  0  0  0  0  0  0  0  0  0  0  0
   10.2037  -23.7926   17.9425 C   0  0  0  0  0  0  0  0  0  0  0  0
   10.7353  -24.6059   19.0944 C   0  0  2  0  0  0  0  0  0  0  0  0
    9.7181  -25.3117   19.8252 N   0  0  0  0  0  0  0  0  0  0  0  0
   11.5293  -23.6982   19.9578 C   0  0  0  0  0  0  0  0  0  0  0  0
   12.4900  -23.0828   19.4407 O   0  0  0  0  0  0  0  0  0  0  0  0
   11.2554  -23.4944   21.3277 N   0  0  0  0  0  0  0  0  0  0  0  0
   12.0329  -22.6146   22.1850 C   0  0  1  0  0  0  0  0  0  0  0  0
   11.4723  -21.2193   21.9502 C   0  0  0  0  0  0  0  0  0  0  0  0
    9.9866  -21.1565   21.9034 C   0  0  0  0  0  0  0  0  0  0  0  0
    9.5379  -19.7311   21.7304 C   0  0  0  0  0  0  0  0  0  0  0  0
    8.0434  -19.5822   21.5915 C   0  0  0  0  0  0  0  0  0  0  0  0
    7.7514  -18.1717   21.3904 N   0  0  0  0  0  0  0  0  0  0  0  0
   11.9129  -22.9951   23.6045 C   0  0  0  0  0  0  0  0  0  0  0  0
   11.1490  -23.8925   24.0227 O   0  0  0  0  0  0  0  0  0  0  0  0
   12.6996  -22.3127   24.5305 O   0  0  0  0  0  0  0  0  0  0  0  0
  2  1  1  0
  3  2  2  0
  4  3  1  0
  5  4  2  0
  5 11  1  0
  6  5  1  0
  7  6  1  0
  7  9  1  0
  7  8  1  1
  9 10  2  0
 11 12  2  0
 12  2  1  0
 13 14  1  0
 14 16  1  0
 14 15  2  0
 17 16  1  6
 18 17  1  0
 18  9  1  0
 19 17  1  0
 19 20  2  0
 21 19  1  0
 22 21  1  0
 22 28  1  0
 22 23  1  1
 24 23  1  0
 25 24  1  0
 26 25  1  0
 26 27  1  0
 28 29  2  0
 28 30  1  0
M  END
$$$$
