YNK.pdb
     RDKit          3D

 30 30  0  0  1  0  0  0  0  0999 V2000
    7.5437  -12.2530   27.8638 O   0  0  0  0  0  0  0  0  0  0  0  0
    7.4183  -12.8932   26.6311 C   0  0  0  0  0  0  0  0  0  0  0  0
    8.4149  -12.8578   25.6810 C   0  0  0  0  0  0  0  0  0  0  0  0
    8.2819  -13.4990   24.4542 C   0  0  0  0  0  0  0  0  0  0  0  0
    7.1339  -14.1994   24.1450 C   0  0  0  0  0  0  0  0  0  0  0  0
    7.0140  -14.8577   22.8592 C   0  0  0  0  0  0  0  0  0  0  0  0
    7.1805  -16.3399   22.8285 C   0  0  2  0  0  0  0  0  0  0  0  0
    7.7180  -16.8154   24.0886 N   0  0  0  0  0  0  0  0  0  0  0  0
    7.8993  -16.8701   21.6633 C   0  0  0  0  0  0  0  0  0  0  0  0
    7.4835  -16.4956   20.5236 O   0  0  0  0  0  0  0  0  0  0  0  0
    6.1463  -14.2238   25.1087 C   0  0  0  0  0  0  0  0  0  0  0  0
    6.2686  -13.5933   26.3241 C   0  0  0  0  0  0  0  0  0  0  0  0
   11.4287  -17.6448   18.2173 N   0  0  0  0  0  0  0  0  0  0  0  0
   10.2680  -17.0614   18.7623 C   0  0  0  0  0  0  0  0  0  0  0  0
    9.1990  -17.0931   18.1258 O   0  0  0  0  0  0  0  0  0  0  0  0
   10.3222  -16.4161   20.0839 C   0  0  0  0  0  0  0  0  0  0  0  0
   10.3162  -17.4280   21.2006 C   0  0  2  0  0  0  0  0  0  0  0  0
    9.0015  -17.7513   21.6842 N   0  0  0  0  0  0  0  0  0  0  0  0
   11.2073  -16.9209   22.2724 C   0  0  0  0  0  0  0  0  0  0  0  0
   12.3930  -16.6486   21.9740 O   0  0  0  0  0  0  0  0  0  0  0  0
   10.7854  -16.7302   23.6061 N   0  0  0  0  0  0  0  0  0  0  0  0
   11.6657  -16.2928   24.6773 C   0  0  1  0  0  0  0  0  0  0  0  0
   10.8860  -16.5242   25.9637 C   0  0  0  0  0  0  0  0  0  0  0  0
   11.6681  -16.2800   27.2056 C   0  0  0  0  0  0  0  0  0  0  0  0
   10.7983  -16.5033   28.4125 C   0  0  0  0  0  0  0  0  0  0  0  0
   11.4714  -16.1480   29.7147 C   0  0  0  0  0  0  0  0  0  0  0  0
   10.5033  -16.3346   30.7839 N   0  0  0  0  0  0  0  0  0  0  0  0
   12.9288  -17.0535   24.6865 C   0  0  0  0  0  0  0  0  0  0  0  0
   12.9933  -18.2975   24.5766 O   0  0  0  0  0  0  0  0  0  0  0  0
   14.1179  -16.3401   24.8250 O   0  0  0  0  0  0  0  0  0  0  0  0
  2  1  1  0
  3  2  2  0
  4  3  1  0
  5  4  2  0
  5 11  1  0
  6  5  1  0
  7  6  1  0
  7  9  1  0
  7  8  1  1
  9 10  2  0
 11 12  2  0
 12  2  1  0
 13 14  1  0
 14 16  1  0
 14 15  2  0
 17 16  1  6
 18 17  1  0
 18  9  1  0
 19 17  1  0
 19 20  2  0
 21 19  1  0
 22 21  1  0
 22 28  1  0
 22 23  1  1
 24 23  1  0
 25 24  1  0
 26 25  1  0
 26 27  1  0
 28 29  2  0
 28 30  1  0
M  END
$$$$
