YNK.pdb
     RDKit          3D

 30 30  0  0  1  0  0  0  0  0999 V2000
    8.5091  -11.0658   18.8308 O   0  0  0  0  0  0  0  0  0  0  0  0
    8.2474  -12.4248   19.0032 C   0  0  0  0  0  0  0  0  0  0  0  0
    8.5867  -13.3636   18.0541 C   0  0  0  0  0  0  0  0  0  0  0  0
    8.3222  -14.7170   18.2337 C   0  0  0  0  0  0  0  0  0  0  0  0
    7.7040  -15.1687   19.3817 C   0  0  0  0  0  0  0  0  0  0  0  0
    7.4343  -16.5832   19.5477 C   0  0  0  0  0  0  0  0  0  0  0  0
    8.3595  -17.3606   20.4225 C   0  0  2  0  0  0  0  0  0  0  0  0
    7.9784  -17.2195   21.8146 N   0  0  0  0  0  0  0  0  0  0  0  0
    9.7905  -17.1252   20.1943 C   0  0  0  0  0  0  0  0  0  0  0  0
   10.5025  -18.1507   19.9625 O   0  0  0  0  0  0  0  0  0  0  0  0
    7.3713  -14.2141   20.3212 C   0  0  0  0  0  0  0  0  0  0  0  0
    7.6287  -12.8743   20.1527 C   0  0  0  0  0  0  0  0  0  0  0  0
   14.0812  -14.8891   17.8521 N   0  0  0  0  0  0  0  0  0  0  0  0
   13.5884  -14.2107   18.9842 C   0  0  0  0  0  0  0  0  0  0  0  0
   14.3550  -13.5136   19.6735 O   0  0  0  0  0  0  0  0  0  0  0  0
   12.1672  -14.3275   19.3486 C   0  0  0  0  0  0  0  0  0  0  0  0
   11.8447  -15.6874   19.9121 C   0  0  2  0  0  0  0  0  0  0  0  0
   10.4507  -15.8779   20.2076 N   0  0  0  0  0  0  0  0  0  0  0  0
   12.7112  -15.9008   21.0968 C   0  0  0  0  0  0  0  0  0  0  0  0
   13.9527  -15.8685   20.9332 O   0  0  0  0  0  0  0  0  0  0  0  0
   12.2068  -16.1366   22.3942 N   0  0  0  0  0  0  0  0  0  0  0  0
   13.0466  -16.3194   23.5667 C   0  0  1  0  0  0  0  0  0  0  0  0
   12.2237  -17.1653   24.5279 C   0  0  0  0  0  0  0  0  0  0  0  0
   12.9624  -17.6056   25.7419 C   0  0  0  0  0  0  0  0  0  0  0  0
   12.1000  -18.5253   26.5625 C   0  0  0  0  0  0  0  0  0  0  0  0
   12.8133  -19.1196   27.7512 C   0  0  0  0  0  0  0  0  0  0  0  0
   11.8671  -19.9625   28.4649 N   0  0  0  0  0  0  0  0  0  0  0  0
   14.3128  -16.9946   23.2275 C   0  0  0  0  0  0  0  0  0  0  0  0
   15.4404  -16.5656   23.5565 O   0  0  0  0  0  0  0  0  0  0  0  0
   14.2439  -18.1802   22.4985 O   0  0  0  0  0  0  0  0  0  0  0  0
  2  1  1  0
  3  2  2  0
  4  3  1  0
  5  4  2  0
  5 11  1  0
  6  5  1  0
  7  6  1  0
  7  9  1  0
  7  8  1  1
  9 10  2  0
 11 12  2  0
 12  2  1  0
 13 14  1  0
 14 16  1  0
 14 15  2  0
 17 16  1  1
 18 17  1  0
 18  9  1  0
 19 17  1  0
 19 20  2  0
 21 19  1  0
 22 21  1  0
 22 28  1  0
 22 23  1  1
 24 23  1  0
 25 24  1  0
 26 25  1  0
 26 27  1  0
 28 29  2  0
 28 30  1  0
M  END
$$$$
