YNK.pdb
     RDKit          3D

 30 30  0  0  1  0  0  0  0  0999 V2000
    7.8563  -10.9867   18.2696 O   0  0  0  0  0  0  0  0  0  0  0  0
    8.0056  -12.1636   19.0029 C   0  0  0  0  0  0  0  0  0  0  0  0
    9.1730  -12.4724   19.6654 C   0  0  0  0  0  0  0  0  0  0  0  0
    9.3136  -13.6483   20.3945 C   0  0  0  0  0  0  0  0  0  0  0  0
    8.2765  -14.5545   20.4787 C   0  0  0  0  0  0  0  0  0  0  0  0
    8.4449  -15.7758   21.2409 C   0  0  0  0  0  0  0  0  0  0  0  0
    9.3638  -16.8111   20.6847 C   0  0  2  0  0  0  0  0  0  0  0  0
    9.0544  -17.0669   19.2912 N   0  0  0  0  0  0  0  0  0  0  0  0
    9.4845  -18.0400   21.4789 C   0  0  0  0  0  0  0  0  0  0  0  0
    8.4365  -18.7487   21.5871 O   0  0  0  0  0  0  0  0  0  0  0  0
    7.1149  -14.2286   19.8085 C   0  0  0  0  0  0  0  0  0  0  0  0
    6.9664  -13.0689   19.0855 C   0  0  0  0  0  0  0  0  0  0  0  0
   12.0619  -20.7736   19.6381 N   0  0  0  0  0  0  0  0  0  0  0  0
   12.0276  -19.4623   19.1240 C   0  0  0  0  0  0  0  0  0  0  0  0
   12.0674  -19.2758   17.8942 O   0  0  0  0  0  0  0  0  0  0  0  0
   11.9440  -18.3158   20.0430 C   0  0  0  0  0  0  0  0  0  0  0  0
   11.9040  -18.7561   21.4837 C   0  0  2  0  0  0  0  0  0  0  0  0
   10.6444  -18.5096   22.1315 N   0  0  0  0  0  0  0  0  0  0  0  0
   13.0397  -18.1084   22.1840 C   0  0  0  0  0  0  0  0  0  0  0  0
   14.1703  -18.1596   21.6473 O   0  0  0  0  0  0  0  0  0  0  0  0
   12.9085  -17.4391   23.4202 N   0  0  0  0  0  0  0  0  0  0  0  0
   13.6370  -17.8116   24.6219 C   0  0  1  0  0  0  0  0  0  0  0  0
   12.8042  -18.9022   25.2802 C   0  0  0  0  0  0  0  0  0  0  0  0
   13.4661  -19.5634   26.4369 C   0  0  0  0  0  0  0  0  0  0  0  0
   12.5654  -20.6256   27.0058 C   0  0  0  0  0  0  0  0  0  0  0  0
   13.1669  -21.3627   28.1762 C   0  0  0  0  0  0  0  0  0  0  0  0
   12.8200  -20.6368   29.3878 N   0  0  0  0  0  0  0  0  0  0  0  0
   14.9900  -18.3050   24.3054 C   0  0  0  0  0  0  0  0  0  0  0  0
   15.2164  -19.3682   23.6873 O   0  0  0  0  0  0  0  0  0  0  0  0
   16.0768  -17.5379   24.7206 O   0  0  0  0  0  0  0  0  0  0  0  0
  2  1  1  0
  3  2  2  0
  4  3  1  0
  5  4  2  0
  5 11  1  0
  6  5  1  0
  7  6  1  0
  7  9  1  0
  7  8  1  6
  9 10  2  0
 11 12  2  0
 12  2  1  0
 13 14  1  0
 14 16  1  0
 14 15  2  0
 17 16  1  6
 18 17  1  0
 18  9  1  0
 19 17  1  0
 19 20  2  0
 21 19  1  0
 22 21  1  0
 22 28  1  0
 22 23  1  6
 24 23  1  0
 25 24  1  0
 26 25  1  0
 26 27  1  0
 28 29  2  0
 28 30  1  0
M  END
$$$$
