YNK.pdb
     RDKit          3D

 30 30  0  0  1  0  0  0  0  0999 V2000
    5.9877  -10.5977   27.7408 O   0  0  0  0  0  0  0  0  0  0  0  0
    6.5143  -11.7435   27.1452 C   0  0  0  0  0  0  0  0  0  0  0  0
    6.5596  -11.9053   25.7781 C   0  0  0  0  0  0  0  0  0  0  0  0
    7.0864  -13.0512   25.1922 C   0  0  0  0  0  0  0  0  0  0  0  0
    7.5865  -14.0753   25.9701 C   0  0  0  0  0  0  0  0  0  0  0  0
    8.1280  -15.2628   25.3395 C   0  0  0  0  0  0  0  0  0  0  0  0
    7.2498  -15.9907   24.3779 C   0  0  2  0  0  0  0  0  0  0  0  0
    6.2044  -16.7034   25.0864 N   0  0  0  0  0  0  0  0  0  0  0  0
    7.9483  -16.8282   23.3951 C   0  0  0  0  0  0  0  0  0  0  0  0
    7.9197  -18.0813   23.5977 O   0  0  0  0  0  0  0  0  0  0  0  0
    7.5327  -13.8959   27.3374 C   0  0  0  0  0  0  0  0  0  0  0  0
    7.0140  -12.7669   27.9258 C   0  0  0  0  0  0  0  0  0  0  0  0
    9.5235  -18.3661   18.2279 N   0  0  0  0  0  0  0  0  0  0  0  0
   10.2862  -17.5386   19.0754 C   0  0  0  0  0  0  0  0  0  0  0  0
   11.5290  -17.5963   19.0464 O   0  0  0  0  0  0  0  0  0  0  0  0
    9.6109  -16.6069   19.9931 C   0  0  0  0  0  0  0  0  0  0  0  0
    9.3495  -17.2370   21.3368 C   0  0  2  0  0  0  0  0  0  0  0  0
    8.6458  -16.3808   22.2527 N   0  0  0  0  0  0  0  0  0  0  0  0
   10.6506  -17.7005   21.8774 C   0  0  0  0  0  0  0  0  0  0  0  0
   11.2480  -18.6189   21.2704 O   0  0  0  0  0  0  0  0  0  0  0  0
   11.2458  -17.1584   23.0372 N   0  0  0  0  0  0  0  0  0  0  0  0
   12.4577  -17.6839   23.6443 C   0  0  1  0  0  0  0  0  0  0  0  0
   13.5435  -16.6642   23.3324 C   0  0  0  0  0  0  0  0  0  0  0  0
   14.8762  -16.9945   23.9053 C   0  0  0  0  0  0  0  0  0  0  0  0
   15.8919  -15.9766   23.4636 C   0  0  0  0  0  0  0  0  0  0  0  0
   17.2752  -16.2292   24.0091 C   0  0  0  0  0  0  0  0  0  0  0  0
   18.1818  -15.2768   23.3875 N   0  0  0  0  0  0  0  0  0  0  0  0
   12.3043  -17.8565   25.1007 C   0  0  0  0  0  0  0  0  0  0  0  0
   13.1032  -18.5029   25.8132 O   0  0  0  0  0  0  0  0  0  0  0  0
   11.2036  -17.2620   25.7147 O   0  0  0  0  0  0  0  0  0  0  0  0
  2  1  1  0
  3  2  2  0
  4  3  1  0
  5  4  2  0
  5 11  1  0
  6  5  1  0
  7  6  1  0
  7  9  1  0
  7  8  1  1
  9 10  2  0
 11 12  2  0
 12  2  1  0
 13 14  1  0
 14 16  1  0
 14 15  2  0
 17 16  1  6
 18 17  1  0
 18  9  1  0
 19 17  1  0
 19 20  2  0
 21 19  1  0
 22 21  1  0
 22 28  1  0
 22 23  1  1
 24 23  1  0
 25 24  1  0
 26 25  1  0
 26 27  1  0
 28 29  2  0
 28 30  1  0
M  END
$$$$
