YNK.pdb
     RDKit          3D

 30 30  0  0  1  0  0  0  0  0999 V2000
    5.5082  -10.5722   27.1635 O   0  0  0  0  0  0  0  0  0  0  0  0
    6.2050  -11.6493   26.6163 C   0  0  0  0  0  0  0  0  0  0  0  0
    6.8848  -11.5531   25.4222 C   0  0  0  0  0  0  0  0  0  0  0  0
    7.5771  -12.6321   24.8834 C   0  0  0  0  0  0  0  0  0  0  0  0
    7.6058  -13.8483   25.5347 C   0  0  0  0  0  0  0  0  0  0  0  0
    8.3305  -14.9613   24.9541 C   0  0  0  0  0  0  0  0  0  0  0  0
    7.5865  -15.8498   24.0147 C   0  0  2  0  0  0  0  0  0  0  0  0
    6.5626  -16.5926   24.7238 N   0  0  0  0  0  0  0  0  0  0  0  0
    8.4206  -16.7011   23.1573 C   0  0  0  0  0  0  0  0  0  0  0  0
    8.6186  -17.8887   23.5605 O   0  0  0  0  0  0  0  0  0  0  0  0
    6.9192  -13.9260   26.7293 C   0  0  0  0  0  0  0  0  0  0  0  0
    6.2321  -12.8652   27.2699 C   0  0  0  0  0  0  0  0  0  0  0  0
    8.4130  -18.0234   18.7365 N   0  0  0  0  0  0  0  0  0  0  0  0
    8.9799  -16.7689   19.0357 C   0  0  0  0  0  0  0  0  0  0  0  0
    8.4248  -15.7265   18.6431 O   0  0  0  0  0  0  0  0  0  0  0  0
   10.2276  -16.6941   19.8129 C   0  0  0  0  0  0  0  0  0  0  0  0
   10.0183  -17.1070   21.2470 C   0  0  2  0  0  0  0  0  0  0  0  0
    9.0218  -16.3320   21.9350 N   0  0  0  0  0  0  0  0  0  0  0  0
   11.3373  -17.0667   21.9241 C   0  0  0  0  0  0  0  0  0  0  0  0
   12.1810  -16.2323   21.5229 O   0  0  0  0  0  0  0  0  0  0  0  0
   11.6860  -17.9187   22.9944 N   0  0  0  0  0  0  0  0  0  0  0  0
   12.9378  -17.8242   23.7276 C   0  0  1  0  0  0  0  0  0  0  0  0
   12.5958  -18.1915   25.1644 C   0  0  0  0  0  0  0  0  0  0  0  0
   11.9623  -19.5286   25.3201 C   0  0  0  0  0  0  0  0  0  0  0  0
   11.6693  -19.7924   26.7718 C   0  0  0  0  0  0  0  0  0  0  0  0
   10.9124  -21.0749   27.0108 C   0  0  0  0  0  0  0  0  0  0  0  0
   10.6278  -21.1676   28.4341 N   0  0  0  0  0  0  0  0  0  0  0  0
   13.9569  -18.7394   23.1816 C   0  0  0  0  0  0  0  0  0  0  0  0
   15.1553  -18.7399   23.5389 O   0  0  0  0  0  0  0  0  0  0  0  0
   13.5564  -19.6564   22.2117 O   0  0  0  0  0  0  0  0  0  0  0  0
  2  1  1  0
  3  2  2  0
  4  3  1  0
  5  4  2  0
  5 11  1  0
  6  5  1  0
  7  6  1  0
  7  9  1  0
  7  8  1  1
  9 10  2  0
 11 12  2  0
 12  2  1  0
 13 14  1  0
 14 16  1  0
 14 15  2  0
 17 16  1  6
 18 17  1  0
 18  9  1  0
 19 17  1  0
 19 20  2  0
 21 19  1  0
 22 21  1  0
 22 28  1  0
 22 23  1  1
 24 23  1  0
 25 24  1  0
 26 25  1  0
 26 27  1  0
 28 29  2  0
 28 30  1  0
M  END
$$$$
