PDV.pdb
     RDKit          3D

 23 23  0  0  1  0  0  0  0  0999 V2000
   27.7950  -20.9354  -15.1886 N   0  0  0  0  0  0  0  0  0  0  0  0
   27.4316  -20.6982  -16.5637 C   0  0  0  0  0  0  0  0  0  0  0  0
   27.8650  -19.2897  -16.8904 C   0  0  0  0  0  0  0  0  0  0  0  0
   27.9056  -18.6157  -15.5625 C   0  0  0  0  0  0  0  0  0  0  0  0
   27.9101  -19.6710  -14.5370 C   0  0  1  0  0  0  0  0  0  0  0  0
   26.9130  -19.4887  -13.4529 C   0  0  0  0  0  0  0  0  0  0  0  0
   26.8785  -18.3646  -12.8961 O   0  0  0  0  0  0  0  0  0  0  0  0
   26.0162  -20.4874  -13.0181 N   0  0  0  0  0  0  0  0  0  0  0  0
   24.9915  -20.3115  -12.0214 C   0  0  1  0  0  0  0  0  0  0  0  0
   23.7551  -21.0577  -12.4372 C   0  0  0  0  0  0  0  0  0  0  0  0
   23.1442  -20.3766  -13.6008 C   0  0  0  0  0  0  0  0  0  0  0  0
   22.8638  -20.9796  -14.6649 O   0  0  0  0  0  0  0  0  0  0  0  0
   25.4267  -20.8103  -10.6872 C   0  0  0  0  0  0  0  0  0  0  0  0
   25.8378  -21.9938  -10.6210 O   0  0  0  0  0  0  0  0  0  0  0  0
   22.8584  -19.0095  -13.5378 O   0  0  0  0  0  0  0  0  0  0  0  0
   26.7743  -20.2676   -5.9764 C   0  0  0  0  0  0  0  0  0  0  0  0
   26.3766  -19.6348   -7.2905 C   0  0  1  0  0  0  0  0  0  0  0  0
   27.5717  -18.9574   -7.8774 C   0  0  0  0  0  0  0  0  0  0  0  0
   25.7850  -20.6680   -8.2515 C   0  0  2  0  0  0  0  0  0  0  0  0
   25.4059  -20.0414   -9.5022 N   0  0  0  0  0  0  0  0  0  0  0  0
   24.6253  -21.3500   -7.6197 C   0  0  0  0  0  0  0  0  0  0  0  0
   24.7694  -22.2526   -6.5814 O   0  0  0  0  0  0  0  0  0  0  0  0
   23.4421  -21.1084   -8.0356 O   0  0  0  0  0  0  0  0  0  0  0  0
  1  5  1  0
  1  2  1  0
  2  3  1  0
  3  4  1  0
  5  6  1  1
  5  4  1  0
  6  7  2  0
  6  8  1  0
  8  9  1  0
  9 13  1  0
 10 11  1  0
  9 10  1  6
 11 15  1  0
 12 11  2  0
 13 14  2  0
 13 20  1  0
 17 18  1  6
 17 16  1  0
 19 21  1  0
 19 17  1  0
 19 20  1  6
 21 22  1  0
 23 21  2  0
M  END
$$$$
