PDV.pdb
     RDKit          3D

 23 23  0  0  1  0  0  0  0  0999 V2000
   19.7228  -12.4126  -16.0277 N   0  0  0  0  0  0  0  0  0  0  0  0
   18.6450  -13.3579  -15.8738 C   0  0  0  0  0  0  0  0  0  0  0  0
   18.1298  -13.6583  -17.2604 C   0  0  0  0  0  0  0  0  0  0  0  0
   18.5246  -12.4593  -18.0514 C   0  0  0  0  0  0  0  0  0  0  0  0
   19.5480  -11.7414  -17.2749 C   0  0  1  0  0  0  0  0  0  0  0  0
   19.3013  -10.2865  -17.1167 C   0  0  0  0  0  0  0  0  0  0  0  0
   19.2537   -9.6010  -18.1668 O   0  0  0  0  0  0  0  0  0  0  0  0
   19.1201   -9.6387  -15.8764 N   0  0  0  0  0  0  0  0  0  0  0  0
   18.8768   -8.2303  -15.6989 C   0  0  1  0  0  0  0  0  0  0  0  0
   17.5975   -8.0355  -14.9348 C   0  0  0  0  0  0  0  0  0  0  0  0
   17.3247   -6.5865  -14.8042 C   0  0  0  0  0  0  0  0  0  0  0  0
   17.4836   -5.9644  -13.7261 O   0  0  0  0  0  0  0  0  0  0  0  0
   19.9846   -7.5673  -14.9563 C   0  0  0  0  0  0  0  0  0  0  0  0
   20.3779   -8.1157  -13.8986 O   0  0  0  0  0  0  0  0  0  0  0  0
   16.8717   -5.8596  -15.9092 O   0  0  0  0  0  0  0  0  0  0  0  0
   23.4336   -7.0332  -16.1235 C   0  0  0  0  0  0  0  0  0  0  0  0
   22.9658   -5.7114  -15.5582 C   0  0  1  0  0  0  0  0  0  0  0  0
   22.6450   -4.7921  -16.6911 C   0  0  0  0  0  0  0  0  0  0  0  0
   21.7674   -5.8961  -14.6249 C   0  0  2  0  0  0  0  0  0  0  0  0
   20.6147   -6.3706  -15.3644 N   0  0  0  0  0  0  0  0  0  0  0  0
   21.4660   -4.6225  -13.9204 C   0  0  0  0  0  0  0  0  0  0  0  0
   22.3056   -4.0881  -12.9596 O   0  0  0  0  0  0  0  0  0  0  0  0
   20.3969   -3.9808  -14.1970 O   0  0  0  0  0  0  0  0  0  0  0  0
  1  5  1  0
  1  2  1  0
  2  3  1  0
  3  4  1  0
  5  6  1  1
  5  4  1  0
  6  7  2  0
  6  8  1  0
  8  9  1  0
  9 13  1  0
 10 11  1  0
  9 10  1  1
 11 15  1  0
 12 11  2  0
 13 14  2  0
 13 20  1  0
 17 18  1  6
 17 16  1  0
 19 21  1  0
 19 17  1  0
 19 20  1  6
 21 22  1  0
 23 21  2  0
M  END
$$$$
