PDV.pdb
     RDKit          3D

 23 23  0  0  1  0  0  0  0  0999 V2000
   28.1940  -20.7444  -17.9036 N   0  0  0  0  0  0  0  0  0  0  0  0
   29.5546  -20.7980  -17.4293 C   0  0  0  0  0  0  0  0  0  0  0  0
   29.6974  -22.0922  -16.6657 C   0  0  0  0  0  0  0  0  0  0  0  0
   28.3037  -22.4110  -16.2473 C   0  0  0  0  0  0  0  0  0  0  0  0
   27.4017  -21.5910  -17.0717 C   0  0  1  0  0  0  0  0  0  0  0  0
   26.3681  -20.8466  -16.3101 C   0  0  0  0  0  0  0  0  0  0  0  0
   26.5502  -19.6140  -16.1606 O   0  0  0  0  0  0  0  0  0  0  0  0
   25.2116  -21.4325  -15.7531 N   0  0  0  0  0  0  0  0  0  0  0  0
   24.1918  -20.7294  -15.0183 C   0  0  1  0  0  0  0  0  0  0  0  0
   22.8676  -20.9047  -15.7069 C   0  0  0  0  0  0  0  0  0  0  0  0
   21.8422  -20.1044  -15.0004 C   0  0  0  0  0  0  0  0  0  0  0  0
   20.6175  -20.1994  -15.2565 O   0  0  0  0  0  0  0  0  0  0  0  0
   24.0749  -21.2283  -13.6198 C   0  0  0  0  0  0  0  0  0  0  0  0
   23.8007  -22.4424  -13.4627 O   0  0  0  0  0  0  0  0  0  0  0  0
   22.2263  -19.2006  -14.0053 O   0  0  0  0  0  0  0  0  0  0  0  0
   25.3933  -19.1513  -10.1065 C   0  0  0  0  0  0  0  0  0  0  0  0
   25.2816  -20.6512  -10.2585 C   0  0  1  0  0  0  0  0  0  0  0  0
   25.1552  -21.2625   -8.9014 C   0  0  0  0  0  0  0  0  0  0  0  0
   24.1076  -21.0350  -11.1617 C   0  0  2  0  0  0  0  0  0  0  0  0
   24.2517  -20.4274  -12.4696 N   0  0  0  0  0  0  0  0  0  0  0  0
   22.8228  -20.6422  -10.5260 C   0  0  0  0  0  0  0  0  0  0  0  0
   22.3214  -21.2818   -9.4067 O   0  0  0  0  0  0  0  0  0  0  0  0
   22.1395  -19.6803  -11.0154 O   0  0  0  0  0  0  0  0  0  0  0  0
  1  5  1  0
  1  2  1  0
  2  3  1  0
  3  4  1  0
  5  6  1  1
  5  4  1  0
  6  7  2  0
  6  8  1  0
  8  9  1  0
  9 13  1  0
 10 11  1  0
  9 10  1  6
 11 15  1  0
 12 11  2  0
 13 14  2  0
 13 20  1  0
 17 18  1  1
 17 16  1  0
 19 21  1  0
 19 17  1  0
 19 20  1  6
 21 22  1  0
 23 21  2  0
M  END
$$$$
