PDV.pdb
     RDKit          3D

 23 23  0  0  1  0  0  0  0  0999 V2000
   28.2397  -22.9835  -17.1869 N   0  0  0  0  0  0  0  0  0  0  0  0
   28.4203  -22.9912  -18.6173 C   0  0  0  0  0  0  0  0  0  0  0  0
   29.4624  -21.9447  -18.9290 C   0  0  0  0  0  0  0  0  0  0  0  0
   29.3857  -21.0135  -17.7687 C   0  0  0  0  0  0  0  0  0  0  0  0
   28.6635  -21.7130  -16.6942 C   0  0  1  0  0  0  0  0  0  0  0  0
   27.5588  -20.9358  -16.0792 C   0  0  0  0  0  0  0  0  0  0  0  0
   27.8603  -19.8344  -15.5588 O   0  0  0  0  0  0  0  0  0  0  0  0
   26.2118  -21.3545  -16.0454 N   0  0  0  0  0  0  0  0  0  0  0  0
   25.1102  -20.5795  -15.5353 C   0  0  1  0  0  0  0  0  0  0  0  0
   24.0279  -20.5029  -16.5750 C   0  0  0  0  0  0  0  0  0  0  0  0
   22.9377  -19.6331  -16.0792 C   0  0  0  0  0  0  0  0  0  0  0  0
   21.8289  -20.0871  -15.7065 O   0  0  0  0  0  0  0  0  0  0  0  0
   24.5421  -21.1765  -14.2947 C   0  0  0  0  0  0  0  0  0  0  0  0
   24.1399  -22.3632  -14.3588 O   0  0  0  0  0  0  0  0  0  0  0  0
   23.1247  -18.2491  -16.0135 O   0  0  0  0  0  0  0  0  0  0  0  0
   26.1147  -21.1955  -10.7817 C   0  0  0  0  0  0  0  0  0  0  0  0
   24.6490  -20.8502  -10.6479 C   0  0  1  0  0  0  0  0  0  0  0  0
   24.5270  -19.4006  -10.3084 C   0  0  0  0  0  0  0  0  0  0  0  0
   23.8748  -21.1986  -11.9208 C   0  0  2  0  0  0  0  0  0  0  0  0
   24.4286  -20.4967  -13.0616 N   0  0  0  0  0  0  0  0  0  0  0  0
   22.4328  -20.8839  -11.7454 C   0  0  0  0  0  0  0  0  0  0  0  0
   21.6273  -21.5643  -10.8499 O   0  0  0  0  0  0  0  0  0  0  0  0
   21.8964  -19.9539  -12.4374 O   0  0  0  0  0  0  0  0  0  0  0  0
  1  5  1  0
  1  2  1  0
  2  3  1  0
  3  4  1  0
  5  6  1  6
  5  4  1  0
  6  7  2  0
  6  8  1  0
  8  9  1  0
  9 13  1  0
 10 11  1  0
  9 10  1  6
 11 15  1  0
 12 11  2  0
 13 14  2  0
 13 20  1  0
 17 18  1  6
 17 16  1  0
 19 21  1  0
 19 17  1  0
 19 20  1  6
 21 22  1  0
 23 21  2  0
M  END
$$$$
