PDV.pdb
     RDKit          3D

 23 23  0  0  1  0  0  0  0  0999 V2000
   30.0076  -22.0209  -13.2508 N   0  0  0  0  0  0  0  0  0  0  0  0
   31.2389  -21.5626  -13.8448 C   0  0  0  0  0  0  0  0  0  0  0  0
   31.7792  -20.4797  -12.9426 C   0  0  0  0  0  0  0  0  0  0  0  0
   30.5709  -19.9778  -12.2304 C   0  0  0  0  0  0  0  0  0  0  0  0
   29.5115  -20.9842  -12.4048 C   0  0  1  0  0  0  0  0  0  0  0  0
   28.2079  -20.4418  -12.8619 C   0  0  0  0  0  0  0  0  0  0  0  0
   27.7397  -19.4710  -12.2190 O   0  0  0  0  0  0  0  0  0  0  0  0
   27.4754  -20.9442  -13.9582 N   0  0  0  0  0  0  0  0  0  0  0  0
   26.1919  -20.4594  -14.3962 C   0  0  1  0  0  0  0  0  0  0  0  0
   26.0140  -20.7627  -15.8572 C   0  0  0  0  0  0  0  0  0  0  0  0
   26.8234  -19.8127  -16.6533 C   0  0  0  0  0  0  0  0  0  0  0  0
   27.5140  -20.1739  -17.6367 O   0  0  0  0  0  0  0  0  0  0  0  0
   25.0753  -21.0874  -13.6365 C   0  0  0  0  0  0  0  0  0  0  0  0
   24.9169  -22.3254  -13.7642 O   0  0  0  0  0  0  0  0  0  0  0  0
   26.8363  -18.4556  -16.3177 O   0  0  0  0  0  0  0  0  0  0  0  0
   24.6801  -21.3647  -10.0808 C   0  0  0  0  0  0  0  0  0  0  0  0
   23.3188  -20.9184  -10.5639 C   0  0  1  0  0  0  0  0  0  0  0  0
   23.1168  -19.4902  -10.1754 C   0  0  0  0  0  0  0  0  0  0  0  0
   23.1684  -21.1192  -12.0732 C   0  0  2  0  0  0  0  0  0  0  0  0
   24.1914  -20.3831  -12.7890 N   0  0  0  0  0  0  0  0  0  0  0  0
   21.8080  -20.7111  -12.5111 C   0  0  0  0  0  0  0  0  0  0  0  0
   21.5962  -19.7123  -13.4444 O   0  0  0  0  0  0  0  0  0  0  0  0
   20.7815  -21.2911  -12.0199 O   0  0  0  0  0  0  0  0  0  0  0  0
  1  5  1  0
  1  2  1  0
  2  3  1  0
  3  4  1  0
  5  6  1  6
  5  4  1  0
  6  7  2  0
  6  8  1  0
  8  9  1  0
  9 13  1  0
 10 11  1  0
  9 10  1  6
 11 15  1  0
 12 11  2  0
 13 14  2  0
 13 20  1  0
 17 18  1  6
 17 16  1  0
 19 21  1  0
 19 17  1  0
 19 20  1  6
 21 22  1  0
 23 21  2  0
M  END
$$$$
