PDV.pdb
     RDKit          3D

 23 23  0  0  1  0  0  0  0  0999 V2000
   18.9702  -12.2829  -15.7128 N   0  0  0  0  0  0  0  0  0  0  0  0
   18.3054  -12.9851  -16.7823 C   0  0  0  0  0  0  0  0  0  0  0  0
   18.7397  -12.3270  -18.0694 C   0  0  0  0  0  0  0  0  0  0  0  0
   19.1404  -10.9557  -17.6473 C   0  0  0  0  0  0  0  0  0  0  0  0
   19.3204  -10.9833  -16.1871 C   0  0  1  0  0  0  0  0  0  0  0  0
   18.6253   -9.8959  -15.4544 C   0  0  0  0  0  0  0  0  0  0  0  0
   18.9849   -8.7204  -15.7071 O   0  0  0  0  0  0  0  0  0  0  0  0
   17.6010  -10.1014  -14.5060 N   0  0  0  0  0  0  0  0  0  0  0  0
   16.9062   -9.0623  -13.7904 C   0  0  1  0  0  0  0  0  0  0  0  0
   15.5102   -9.5197  -13.4738 C   0  0  0  0  0  0  0  0  0  0  0  0
   14.7303   -9.6064  -14.7290 C   0  0  0  0  0  0  0  0  0  0  0  0
   14.5117   -8.6086  -15.4579 O   0  0  0  0  0  0  0  0  0  0  0  0
   17.5961   -8.7112  -12.5180 C   0  0  0  0  0  0  0  0  0  0  0  0
   17.8261   -9.6442  -11.7114 O   0  0  0  0  0  0  0  0  0  0  0  0
   14.2060  -10.8352  -15.1409 O   0  0  0  0  0  0  0  0  0  0  0  0
   20.9809   -7.7307  -11.7501 C   0  0  0  0  0  0  0  0  0  0  0  0
   20.0975   -6.6751  -11.1248 C   0  0  1  0  0  0  0  0  0  0  0  0
   20.1061   -5.4637  -11.9987 C   0  0  0  0  0  0  0  0  0  0  0  0
   18.6773   -7.1978  -10.8989 C   0  0  2  0  0  0  0  0  0  0  0  0
   18.0039   -7.4055  -12.1655 N   0  0  0  0  0  0  0  0  0  0  0  0
   17.9170   -6.2574  -10.0347 C   0  0  0  0  0  0  0  0  0  0  0  0
   16.8475   -5.5162  -10.5042 O   0  0  0  0  0  0  0  0  0  0  0  0
   18.2465   -6.1126   -8.8092 O   0  0  0  0  0  0  0  0  0  0  0  0
  1  5  1  0
  1  2  1  0
  2  3  1  0
  3  4  1  0
  5  6  1  1
  5  4  1  0
  6  7  2  0
  6  8  1  0
  8  9  1  0
  9 13  1  0
 10 11  1  0
  9 10  1  1
 11 15  1  0
 12 11  2  0
 13 14  2  0
 13 20  1  0
 17 18  1  6
 17 16  1  0
 19 21  1  0
 19 17  1  0
 19 20  1  6
 21 22  1  0
 23 21  2  0
M  END
$$$$
