PDV.pdb
     RDKit          3D

 23 23  0  0  1  0  0  0  0  0999 V2000
   15.8916  -11.0666  -13.7121 N   0  0  0  0  0  0  0  0  0  0  0  0
   14.4860  -11.3834  -13.7642 C   0  0  0  0  0  0  0  0  0  0  0  0
   13.9926  -10.9468  -15.1222 C   0  0  0  0  0  0  0  0  0  0  0  0
   14.9667   -9.8965  -15.5310 C   0  0  0  0  0  0  0  0  0  0  0  0
   16.1486  -10.0363  -14.6655 C   0  0  1  0  0  0  0  0  0  0  0  0
   16.6128   -8.7738  -14.0384 C   0  0  0  0  0  0  0  0  0  0  0  0
   16.9360   -7.8404  -14.8125 O   0  0  0  0  0  0  0  0  0  0  0  0
   16.7108   -8.5637  -12.6466 N   0  0  0  0  0  0  0  0  0  0  0  0
   17.1572   -7.3482  -12.0160 C   0  0  1  0  0  0  0  0  0  0  0  0
   16.7814   -7.3716  -10.5612 C   0  0  0  0  0  0  0  0  0  0  0  0
   17.1679   -6.0857   -9.9383 C   0  0  0  0  0  0  0  0  0  0  0  0
   17.4002   -5.0526  -10.6116 O   0  0  0  0  0  0  0  0  0  0  0  0
   18.6325   -7.1773  -12.1276 C   0  0  0  0  0  0  0  0  0  0  0  0
   19.3553   -7.9951  -11.5088 O   0  0  0  0  0  0  0  0  0  0  0  0
   17.2858   -5.9915   -8.5484 O   0  0  0  0  0  0  0  0  0  0  0  0
   20.6710   -6.0797  -15.4543 C   0  0  0  0  0  0  0  0  0  0  0  0
   21.2076   -6.7879  -14.2312 C   0  0  1  0  0  0  0  0  0  0  0  0
   22.6997   -6.8035  -14.3023 C   0  0  0  0  0  0  0  0  0  0  0  0
   20.7111   -6.1300  -12.9421 C   0  0  2  0  0  0  0  0  0  0  0  0
   19.2634   -6.1613  -12.8796 N   0  0  0  0  0  0  0  0  0  0  0  0
   21.2223   -4.7375  -12.8482 C   0  0  0  0  0  0  0  0  0  0  0  0
   22.5582   -4.4491  -12.6344 O   0  0  0  0  0  0  0  0  0  0  0  0
   20.4150   -3.7547  -12.9666 O   0  0  0  0  0  0  0  0  0  0  0  0
  1  5  1  0
  1  2  1  0
  2  3  1  0
  3  4  1  0
  5  6  1  1
  5  4  1  0
  6  7  2  0
  6  8  1  0
  8  9  1  0
  9 13  1  0
 10 11  1  0
  9 10  1  1
 11 15  1  0
 12 11  2  0
 13 14  2  0
 13 20  1  0
 17 18  1  6
 17 16  1  0
 19 21  1  0
 19 17  1  0
 19 20  1  6
 21 22  1  0
 23 21  2  0
M  END
$$$$
