PDV.pdb
     RDKit          3D

 23 23  0  0  1  0  0  0  0  0999 V2000
   17.5516  -23.9574    4.4766 N   0  0  0  0  0  0  0  0  0  0  0  0
   18.3020  -24.1912    3.2678 C   0  0  0  0  0  0  0  0  0  0  0  0
   19.6723  -24.6612    3.6915 C   0  0  0  0  0  0  0  0  0  0  0  0
   19.8224  -24.1156    5.0695 C   0  0  0  0  0  0  0  0  0  0  0  0
   18.4798  -23.7365    5.5378 C   0  0  1  0  0  0  0  0  0  0  0  0
   18.3841  -22.3714    6.1122 C   0  0  0  0  0  0  0  0  0  0  0  0
   18.0781  -21.4438    5.3243 O   0  0  0  0  0  0  0  0  0  0  0  0
   18.6129  -22.0594    7.4691 N   0  0  0  0  0  0  0  0  0  0  0  0
   18.3910  -20.7731    8.0779 C   0  0  1  0  0  0  0  0  0  0  0  0
   17.5738  -20.9447    9.3273 C   0  0  0  0  0  0  0  0  0  0  0  0
   17.1095  -19.6178    9.7909 C   0  0  0  0  0  0  0  0  0  0  0  0
   17.4967  -18.5461    9.2656 O   0  0  0  0  0  0  0  0  0  0  0  0
   19.6720  -20.1005    8.4313 C   0  0  0  0  0  0  0  0  0  0  0  0
   20.6605  -20.8347    8.6718 O   0  0  0  0  0  0  0  0  0  0  0  0
   16.2050  -19.5273   10.8531 O   0  0  0  0  0  0  0  0  0  0  0  0
   22.7456  -16.2709    8.4153 C   0  0  0  0  0  0  0  0  0  0  0  0
   21.4356  -16.9085    8.0119 C   0  0  1  0  0  0  0  0  0  0  0  0
   21.4756  -17.2006    6.5474 C   0  0  0  0  0  0  0  0  0  0  0  0
   21.1527  -18.1695    8.8311 C   0  0  2  0  0  0  0  0  0  0  0  0
   19.8423  -18.7005    8.5119 N   0  0  0  0  0  0  0  0  0  0  0  0
   21.2732  -17.8747   10.2829 C   0  0  0  0  0  0  0  0  0  0  0  0
   22.4110  -18.1749   11.0101 O   0  0  0  0  0  0  0  0  0  0  0  0
   20.3016  -17.3237   10.9024 O   0  0  0  0  0  0  0  0  0  0  0  0
  1  5  1  0
  1  2  1  0
  2  3  1  0
  3  4  1  0
  5  6  1  6
  5  4  1  0
  6  7  2  0
  6  8  1  0
  8  9  1  0
  9 13  1  0
 10 11  1  0
  9 10  1  1
 11 15  1  0
 12 11  2  0
 13 14  2  0
 13 20  1  0
 17 18  1  6
 17 16  1  0
 19 21  1  0
 19 17  1  0
 19 20  1  1
 21 22  1  0
 23 21  2  0
M  END
$$$$
