PDV.pdb
     RDKit          3D

 23 23  0  0  1  0  0  0  0  0999 V2000
   37.8496  -12.1989   -6.2963 N   0  0  0  0  0  0  0  0  0  0  0  0
   36.5872  -12.4702   -6.9379 C   0  0  0  0  0  0  0  0  0  0  0  0
   36.9032  -12.9368   -8.3381 C   0  0  0  0  0  0  0  0  0  0  0  0
   38.2473  -12.3546   -8.6095 C   0  0  0  0  0  0  0  0  0  0  0  0
   38.8197  -11.9546   -7.3141 C   0  0  1  0  0  0  0  0  0  0  0  0
   39.3619  -10.5737   -7.2738 C   0  0  0  0  0  0  0  0  0  0  0  0
   38.6239   -9.6879   -6.7784 O   0  0  0  0  0  0  0  0  0  0  0  0
   40.6370  -10.2035   -7.7514 N   0  0  0  0  0  0  0  0  0  0  0  0
   41.2367   -8.9022   -7.6053 C   0  0  1  0  0  0  0  0  0  0  0  0
   42.7330   -9.0321   -7.6542 C   0  0  0  0  0  0  0  0  0  0  0  0
   43.2057   -9.6825   -6.4113 C   0  0  0  0  0  0  0  0  0  0  0  0
   42.6899   -9.4520   -5.2909 O   0  0  0  0  0  0  0  0  0  0  0  0
   40.8009   -7.9688   -8.6810 C   0  0  0  0  0  0  0  0  0  0  0  0
   40.8477   -8.3895   -9.8620 O   0  0  0  0  0  0  0  0  0  0  0  0
   44.2659  -10.5925   -6.4600 O   0  0  0  0  0  0  0  0  0  0  0  0
   37.8712   -4.4047  -10.2447 C   0  0  0  0  0  0  0  0  0  0  0  0
   38.5310   -5.1311   -9.0947 C   0  0  1  0  0  0  0  0  0  0  0  0
   37.5222   -6.0245   -8.4500 C   0  0  0  0  0  0  0  0  0  0  0  0
   39.7612   -5.9129   -9.5603 C   0  0  2  0  0  0  0  0  0  0  0  0
   40.3424   -6.6515   -8.4569 N   0  0  0  0  0  0  0  0  0  0  0  0
   40.7537   -4.9900  -10.1703 C   0  0  0  0  0  0  0  0  0  0  0  0
   40.7604   -4.6935  -11.5214 O   0  0  0  0  0  0  0  0  0  0  0  0
   41.6431   -4.4387   -9.4378 O   0  0  0  0  0  0  0  0  0  0  0  0
  1  5  1  0
  1  2  1  0
  2  3  1  0
  3  4  1  0
  5  6  1  6
  5  4  1  0
  6  7  2  0
  6  8  1  0
  8  9  1  0
  9 13  1  0
 10 11  1  0
  9 10  1  6
 11 15  1  0
 12 11  2  0
 13 14  2  0
 13 20  1  0
 17 18  1  6
 17 16  1  0
 19 21  1  0
 19 17  1  0
 19 20  1  1
 21 22  1  0
 23 21  2  0
M  END
$$$$
