EGH.pdb
     RDKit          3D

 24 24  0  0  1  0  0  0  0  0999 V2000
   25.2147  -18.0362  -16.4648 N   0  0  0  0  0  0  0  0  0  0  0  0
   24.5970  -19.1470  -17.2044 C   0  0  1  0  0  0  0  0  0  0  0  0
   24.8507  -18.9554  -18.6725 C   0  0  0  0  0  0  0  0  0  0  0  0
   26.3054  -18.9375  -19.0036 C   0  0  0  0  0  0  0  0  0  0  0  0
   26.5138  -18.7652  -20.4860 C   0  0  0  0  0  0  0  0  0  0  0  0
   25.5476  -18.6094  -21.2417 O   0  0  0  0  0  0  0  0  0  0  0  0
   25.1487  -20.3865  -16.6436 C   0  0  0  0  0  0  0  0  0  0  0  0
   24.7234  -21.5382  -17.0031 O   0  0  0  0  0  0  0  0  0  0  0  0
   27.8250  -18.7917  -20.9385 O   0  0  0  0  0  0  0  0  0  0  0  0
   26.1884  -20.3870  -15.6675 N   0  0  0  0  0  0  0  0  0  0  0  0
   26.6737  -21.6218  -15.0930 C   0  0  0  0  0  0  0  0  0  0  0  0
   26.0471  -21.8803  -13.7618 C   0  0  0  0  0  0  0  0  0  0  0  0
   25.9424  -23.0725  -13.3869 O   0  0  0  0  0  0  0  0  0  0  0  0
   25.5781  -20.8514  -12.9281 N   0  0  0  0  0  0  0  0  0  0  0  0
   24.9382  -21.0910  -11.6093 C   0  0  1  0  0  0  0  0  0  0  0  0
   25.6211  -20.3172  -10.5513 C   0  0  0  0  0  0  0  0  0  0  0  0
   27.0627  -20.6487  -10.4831 C   0  0  0  0  0  0  0  0  0  0  0  0
   27.6592  -21.6004  -11.3353 C   0  0  0  0  0  0  0  0  0  0  0  0
   28.9604  -21.6768  -11.0329 N   0  0  0  0  0  0  0  0  0  0  0  0
   29.1944  -20.8138  -10.0310 C   0  0  0  0  0  0  0  0  0  0  0  0
   28.0553  -20.2052   -9.7102 N   0  0  0  0  0  0  0  0  0  0  0  0
   23.5166  -20.6540  -11.8081 C   0  0  0  0  0  0  0  0  0  0  0  0
   23.1489  -20.1426  -12.9049 O   0  0  0  0  0  0  0  0  0  0  0  0
   22.6043  -20.8060  -10.8035 O   0  0  0  0  0  0  0  0  0  0  0  0
  2  1  1  1
  2  3  1  0
  3  4  1  0
  5  4  1  0
  5  9  1  0
  6  5  2  0
  7  2  1  0
  7  8  2  0
 10  7  1  0
 11 10  1  0
 11 12  1  0
 12 14  1  0
 13 12  2  0
 14 15  1  0
 15 16  1  1
 15 22  1  0
 16 17  1  0
 17 18  2  0
 18 19  1  0
 20 19  1  0
 21 17  1  0
 21 20  2  0
 22 24  1  0
 23 22  2  0
M  END
$$$$
