EGH.pdb
     RDKit          3D

 24 24  0  0  1  0  0  0  0  0999 V2000
   19.5015  -12.1223  -16.6920 N   0  0  0  0  0  0  0  0  0  0  0  0
   18.1161  -12.1959  -16.2043 C   0  0  1  0  0  0  0  0  0  0  0  0
   17.9483  -13.4552  -15.4027 C   0  0  0  0  0  0  0  0  0  0  0  0
   18.2990  -14.6790  -16.1809 C   0  0  0  0  0  0  0  0  0  0  0  0
   17.9655  -15.9231  -15.3988 C   0  0  0  0  0  0  0  0  0  0  0  0
   18.1291  -17.0418  -15.8994 O   0  0  0  0  0  0  0  0  0  0  0  0
   17.8643  -10.9565  -15.4588 C   0  0  0  0  0  0  0  0  0  0  0  0
   16.8807  -10.8440  -14.6486 O   0  0  0  0  0  0  0  0  0  0  0  0
   17.4755  -15.7393  -14.1140 O   0  0  0  0  0  0  0  0  0  0  0  0
   18.6949   -9.8046  -15.5886 N   0  0  0  0  0  0  0  0  0  0  0  0
   18.4418   -8.6095  -14.8153 C   0  0  0  0  0  0  0  0  0  0  0  0
   19.4438   -7.5454  -15.1235 C   0  0  0  0  0  0  0  0  0  0  0  0
   20.3904   -7.8390  -15.8920 O   0  0  0  0  0  0  0  0  0  0  0  0
   19.3647   -6.2476  -14.5912 N   0  0  0  0  0  0  0  0  0  0  0  0
   20.3140   -5.1590  -14.9377 C   0  0  1  0  0  0  0  0  0  0  0  0
   19.7863   -3.8496  -14.5003 C   0  0  0  0  0  0  0  0  0  0  0  0
   20.7383   -2.7552  -14.7983 C   0  0  0  0  0  0  0  0  0  0  0  0
   20.9323   -2.2584  -16.1035 C   0  0  0  0  0  0  0  0  0  0  0  0
   21.8463   -1.2827  -16.0492 N   0  0  0  0  0  0  0  0  0  0  0  0
   22.2258   -1.1546  -14.7675 C   0  0  0  0  0  0  0  0  0  0  0  0
   21.5587   -2.0380  -14.0290 N   0  0  0  0  0  0  0  0  0  0  0  0
   21.5773   -5.5336  -14.2199 C   0  0  0  0  0  0  0  0  0  0  0  0
   21.5308   -6.0869  -13.0835 O   0  0  0  0  0  0  0  0  0  0  0  0
   22.7920   -5.2800  -14.7896 O   0  0  0  0  0  0  0  0  0  0  0  0
  2  1  1  1
  2  3  1  0
  3  4  1  0
  5  4  1  0
  5  9  1  0
  6  5  2  0
  7  2  1  0
  7  8  2  0
 10  7  1  0
 11 10  1  0
 11 12  1  0
 12 14  1  0
 13 12  2  0
 14 15  1  0
 15 16  1  1
 15 22  1  0
 16 17  1  0
 17 18  2  0
 18 19  1  0
 20 19  1  0
 21 17  1  0
 21 20  2  0
 22 24  1  0
 23 22  2  0
M  END
$$$$
