EGH.pdb
     RDKit          3D

 24 24  0  0  1  0  0  0  0  0999 V2000
   45.4689  -10.9496  -11.9421 N   0  0  0  0  0  0  0  0  0  0  0  0
   44.1427  -10.4254  -12.3013 C   0  0  1  0  0  0  0  0  0  0  0  0
   43.3961  -11.4763  -13.0724 C   0  0  0  0  0  0  0  0  0  0  0  0
   43.5854  -12.8435  -12.5058 C   0  0  0  0  0  0  0  0  0  0  0  0
   42.8304  -13.8663  -13.3148 C   0  0  0  0  0  0  0  0  0  0  0  0
   42.4131  -14.9024  -12.7844 O   0  0  0  0  0  0  0  0  0  0  0  0
   43.4989  -10.0108  -11.0488 C   0  0  0  0  0  0  0  0  0  0  0  0
   43.7813  -10.5625   -9.9297 O   0  0  0  0  0  0  0  0  0  0  0  0
   42.6375  -13.5798  -14.6584 O   0  0  0  0  0  0  0  0  0  0  0  0
   42.5227   -8.9724  -10.9988 N   0  0  0  0  0  0  0  0  0  0  0  0
   41.9087   -8.5832   -9.7490 C   0  0  0  0  0  0  0  0  0  0  0  0
   40.4566   -8.2841   -9.9316 C   0  0  0  0  0  0  0  0  0  0  0  0
   39.9850   -8.3632  -11.0910 O   0  0  0  0  0  0  0  0  0  0  0  0
   39.6137   -7.9230   -8.8672 N   0  0  0  0  0  0  0  0  0  0  0  0
   38.1571   -7.6760   -9.0212 C   0  0  1  0  0  0  0  0  0  0  0  0
   37.4752   -7.7526   -7.7122 C   0  0  0  0  0  0  0  0  0  0  0  0
   37.6964   -9.0647   -7.0625 C   0  0  0  0  0  0  0  0  0  0  0  0
   38.4946  -10.0702   -7.6452 C   0  0  0  0  0  0  0  0  0  0  0  0
   38.5009  -11.1281   -6.8258 N   0  0  0  0  0  0  0  0  0  0  0  0
   37.7414  -10.8204   -5.7620 C   0  0  0  0  0  0  0  0  0  0  0  0
   37.2659   -9.5867   -5.9129 N   0  0  0  0  0  0  0  0  0  0  0  0
   38.0810   -6.3044   -9.6248 C   0  0  0  0  0  0  0  0  0  0  0  0
   39.0621   -5.5106   -9.5423 O   0  0  0  0  0  0  0  0  0  0  0  0
   36.9480   -5.9003  -10.2710 O   0  0  0  0  0  0  0  0  0  0  0  0
  2  1  1  1
  2  3  1  0
  3  4  1  0
  5  4  1  0
  5  9  1  0
  6  5  2  0
  7  2  1  0
  7  8  2  0
 10  7  1  0
 11 10  1  0
 11 12  1  0
 12 14  1  0
 13 12  2  0
 14 15  1  0
 15 16  1  1
 15 22  1  0
 16 17  1  0
 17 18  2  0
 18 19  1  0
 20 19  1  0
 21 17  1  0
 21 20  2  0
 22 24  1  0
 23 22  2  0
M  END
$$$$
