EGH.pdb
     RDKit          3D

 24 24  0  0  1  0  0  0  0  0999 V2000
   26.6177  -19.6611  -18.1824 N   0  0  0  0  0  0  0  0  0  0  0  0
   27.0065  -18.4510  -17.4429 C   0  0  1  0  0  0  0  0  0  0  0  0
   27.3517  -17.3690  -18.4261 C   0  0  0  0  0  0  0  0  0  0  0  0
   26.2382  -17.0851  -19.3778 C   0  0  0  0  0  0  0  0  0  0  0  0
   26.6494  -16.0429  -20.3855 C   0  0  0  0  0  0  0  0  0  0  0  0
   27.7643  -15.5122  -20.3202 O   0  0  0  0  0  0  0  0  0  0  0  0
   25.8917  -18.1291  -16.5436 C   0  0  0  0  0  0  0  0  0  0  0  0
   26.0005  -17.2491  -15.6215 O   0  0  0  0  0  0  0  0  0  0  0  0
   25.7218  -15.7242  -21.3667 O   0  0  0  0  0  0  0  0  0  0  0  0
   24.6226  -18.7727  -16.6391 N   0  0  0  0  0  0  0  0  0  0  0  0
   23.5579  -18.4676  -15.7098 C   0  0  0  0  0  0  0  0  0  0  0  0
   23.0539  -19.7050  -15.0418 C   0  0  0  0  0  0  0  0  0  0  0  0
   23.2516  -20.8016  -15.6173 O   0  0  0  0  0  0  0  0  0  0  0  0
   22.3768  -19.6842  -13.8110 N   0  0  0  0  0  0  0  0  0  0  0  0
   21.9601  -20.9098  -13.0826 C   0  0  1  0  0  0  0  0  0  0  0  0
   22.2061  -20.7624  -11.6328 C   0  0  0  0  0  0  0  0  0  0  0  0
   23.6299  -20.9949  -11.2988 C   0  0  0  0  0  0  0  0  0  0  0  0
   24.5717  -21.4146  -12.2605 C   0  0  0  0  0  0  0  0  0  0  0  0
   25.7603  -21.5360  -11.6582 N   0  0  0  0  0  0  0  0  0  0  0  0
   25.5945  -21.2098  -10.3662 C   0  0  0  0  0  0  0  0  0  0  0  0
   24.3194  -20.8884  -10.1620 N   0  0  0  0  0  0  0  0  0  0  0  0
   20.5005  -21.0466  -13.4027 C   0  0  0  0  0  0  0  0  0  0  0  0
   19.8095  -20.0296  -13.6989 O   0  0  0  0  0  0  0  0  0  0  0  0
   19.9039  -22.2746  -13.3774 O   0  0  0  0  0  0  0  0  0  0  0  0
  2  1  1  6
  2  3  1  0
  3  4  1  0
  5  4  1  0
  5  9  1  0
  6  5  2  0
  7  2  1  0
  7  8  2  0
 10  7  1  0
 11 10  1  0
 11 12  1  0
 12 14  1  0
 13 12  2  0
 14 15  1  0
 15 16  1  1
 15 22  1  0
 16 17  1  0
 17 18  2  0
 18 19  1  0
 20 19  1  0
 21 17  1  0
 21 20  2  0
 22 24  1  0
 23 22  2  0
M  END
$$$$
