EGH.pdb
     RDKit          3D

 24 24  0  0  1  0  0  0  0  0999 V2000
   22.8450   -9.9952  -19.8313 N   0  0  0  0  0  0  0  0  0  0  0  0
   21.4165  -10.3283  -19.7259 C   0  0  1  0  0  0  0  0  0  0  0  0
   21.2342  -11.7900  -20.0202 C   0  0  0  0  0  0  0  0  0  0  0  0
   21.9296  -12.2122  -21.2710 C   0  0  0  0  0  0  0  0  0  0  0  0
   21.0636  -11.9540  -22.4769 C   0  0  0  0  0  0  0  0  0  0  0  0
   21.1684  -10.8973  -23.1102 O   0  0  0  0  0  0  0  0  0  0  0  0
   20.9840   -9.9142  -18.3855 C   0  0  0  0  0  0  0  0  0  0  0  0
   19.7944  -10.1249  -17.9648 O   0  0  0  0  0  0  0  0  0  0  0  0
   20.1637  -12.9515  -22.8232 O   0  0  0  0  0  0  0  0  0  0  0  0
   21.8568   -9.2544  -17.4709 N   0  0  0  0  0  0  0  0  0  0  0  0
   21.4055   -8.8694  -16.1524 C   0  0  0  0  0  0  0  0  0  0  0  0
   22.2707   -7.7956  -15.5783 C   0  0  0  0  0  0  0  0  0  0  0  0
   23.5131   -7.9218  -15.6941 O   0  0  0  0  0  0  0  0  0  0  0  0
   21.7502   -6.6668  -14.9235 N   0  0  0  0  0  0  0  0  0  0  0  0
   22.5917   -5.5583  -14.4045 C   0  0  1  0  0  0  0  0  0  0  0  0
   23.2880   -4.8710  -15.5122 C   0  0  0  0  0  0  0  0  0  0  0  0
   22.3279   -4.3121  -16.4913 C   0  0  0  0  0  0  0  0  0  0  0  0
   20.9319   -4.4151  -16.3224 C   0  0  0  0  0  0  0  0  0  0  0  0
   20.3386   -3.8192  -17.3632 N   0  0  0  0  0  0  0  0  0  0  0  0
   21.3067   -3.3524  -18.1682 C   0  0  0  0  0  0  0  0  0  0  0  0
   22.4904   -3.6517  -17.6388 N   0  0  0  0  0  0  0  0  0  0  0  0
   21.6186   -4.6607  -13.6981 C   0  0  0  0  0  0  0  0  0  0  0  0
   20.3808   -4.9202  -13.7086 O   0  0  0  0  0  0  0  0  0  0  0  0
   22.0627   -3.5526  -13.0352 O   0  0  0  0  0  0  0  0  0  0  0  0
  2  1  1  1
  2  3  1  0
  3  4  1  0
  5  4  1  0
  5  9  1  0
  6  5  2  0
  7  2  1  0
  7  8  2  0
 10  7  1  0
 11 10  1  0
 11 12  1  0
 12 14  1  0
 13 12  2  0
 14 15  1  0
 15 16  1  6
 15 22  1  0
 16 17  1  0
 17 18  2  0
 18 19  1  0
 20 19  1  0
 21 17  1  0
 21 20  2  0
 22 24  1  0
 23 22  2  0
M  END
$$$$
