EGH.pdb
     RDKit          3D

 24 24  0  0  1  0  0  0  0  0999 V2000
   18.2697   -7.7983  -17.3701 N   0  0  0  0  0  0  0  0  0  0  0  0
   16.8815   -8.2827  -17.3975 C   0  0  1  0  0  0  0  0  0  0  0  0
   16.8904   -9.7842  -17.4416 C   0  0  0  0  0  0  0  0  0  0  0  0
   17.6246  -10.3855  -16.2903 C   0  0  0  0  0  0  0  0  0  0  0  0
   17.5932  -11.8902  -16.3640 C   0  0  0  0  0  0  0  0  0  0  0  0
   18.1706  -12.4859  -17.2809 O   0  0  0  0  0  0  0  0  0  0  0  0
   16.2103   -7.7079  -16.2252 C   0  0  0  0  0  0  0  0  0  0  0  0
   14.9825   -7.9528  -15.9626 O   0  0  0  0  0  0  0  0  0  0  0  0
   16.8935  -12.5490  -15.3635 O   0  0  0  0  0  0  0  0  0  0  0  0
   16.8795   -6.8442  -15.3087 N   0  0  0  0  0  0  0  0  0  0  0  0
   16.2057   -6.3313  -14.1369 C   0  0  0  0  0  0  0  0  0  0  0  0
   16.8357   -6.8457  -12.8839 C   0  0  0  0  0  0  0  0  0  0  0  0
   16.6089   -8.0364  -12.5621 O   0  0  0  0  0  0  0  0  0  0  0  0
   17.6604   -6.0552  -12.0661 N   0  0  0  0  0  0  0  0  0  0  0  0
   18.3198   -6.5590  -10.8341 C   0  0  1  0  0  0  0  0  0  0  0  0
   19.7895   -6.4568  -10.9516 C   0  0  0  0  0  0  0  0  0  0  0  0
   20.3057   -7.3096  -12.0467 C   0  0  0  0  0  0  0  0  0  0  0  0
   19.4578   -8.0911  -12.8581 C   0  0  0  0  0  0  0  0  0  0  0  0
   20.2141   -8.7435  -13.7485 N   0  0  0  0  0  0  0  0  0  0  0  0
   21.4924   -8.3995  -13.5230 C   0  0  0  0  0  0  0  0  0  0  0  0
   21.5363   -7.5433  -12.5053 N   0  0  0  0  0  0  0  0  0  0  0  0
   17.7726   -5.6857   -9.7436 C   0  0  0  0  0  0  0  0  0  0  0  0
   17.1094   -4.6460  -10.0247 O   0  0  0  0  0  0  0  0  0  0  0  0
   17.9861   -6.0073   -8.4338 O   0  0  0  0  0  0  0  0  0  0  0  0
  2  1  1  1
  2  3  1  0
  3  4  1  0
  5  4  1  0
  5  9  1  0
  6  5  2  0
  7  2  1  0
  7  8  2  0
 10  7  1  0
 11 10  1  0
 11 12  1  0
 12 14  1  0
 13 12  2  0
 14 15  1  0
 15 16  1  6
 15 22  1  0
 16 17  1  0
 17 18  2  0
 18 19  1  0
 20 19  1  0
 21 17  1  0
 21 20  2  0
 22 24  1  0
 23 22  2  0
M  END
$$$$
