EGH.pdb
     RDKit          3D

 24 24  0  0  1  0  0  0  0  0999 V2000
   44.5136  -10.3793   -4.9442 N   0  0  0  0  0  0  0  0  0  0  0  0
   45.3411   -9.6941   -5.9482 C   0  0  1  0  0  0  0  0  0  0  0  0
   46.7358  -10.2493   -5.8909 C   0  0  0  0  0  0  0  0  0  0  0  0
   46.7743  -11.7228   -6.1225 C   0  0  0  0  0  0  0  0  0  0  0  0
   48.1955  -12.2231   -6.1445 C   0  0  0  0  0  0  0  0  0  0  0  0
   48.8491  -12.3029   -5.0980 O   0  0  0  0  0  0  0  0  0  0  0  0
   44.6658   -9.8652   -7.2404 C   0  0  0  0  0  0  0  0  0  0  0  0
   45.0919   -9.2986   -8.3052 O   0  0  0  0  0  0  0  0  0  0  0  0
   48.7119  -12.5796   -7.3819 O   0  0  0  0  0  0  0  0  0  0  0  0
   43.4979  -10.6695   -7.3915 N   0  0  0  0  0  0  0  0  0  0  0  0
   42.8571  -10.8227   -8.6785 C   0  0  0  0  0  0  0  0  0  0  0  0
   41.7890   -9.7970   -8.8747 C   0  0  0  0  0  0  0  0  0  0  0  0
   41.0931   -9.8698   -9.9155 O   0  0  0  0  0  0  0  0  0  0  0  0
   41.5402   -8.7699   -7.9490 N   0  0  0  0  0  0  0  0  0  0  0  0
   40.4506   -7.7722   -8.1032 C   0  0  1  0  0  0  0  0  0  0  0  0
   39.5549   -7.7943   -6.9278 C   0  0  0  0  0  0  0  0  0  0  0  0
   38.7869   -9.0583   -6.8559 C   0  0  0  0  0  0  0  0  0  0  0  0
   38.8522  -10.0394   -7.8664 C   0  0  0  0  0  0  0  0  0  0  0  0
   38.0542  -11.0550   -7.5170 N   0  0  0  0  0  0  0  0  0  0  0  0
   37.4984  -10.7447   -6.3347 C   0  0  0  0  0  0  0  0  0  0  0  0
   37.9421   -9.5510   -5.9487 N   0  0  0  0  0  0  0  0  0  0  0  0
   41.1708   -6.4638   -8.2472 C   0  0  0  0  0  0  0  0  0  0  0  0
   40.5318   -5.4039   -8.5078 O   0  0  0  0  0  0  0  0  0  0  0  0
   42.5267   -6.4060   -8.0971 O   0  0  0  0  0  0  0  0  0  0  0  0
  2  1  1  1
  2  3  1  0
  3  4  1  0
  5  4  1  0
  5  9  1  0
  6  5  2  0
  7  2  1  0
  7  8  2  0
 10  7  1  0
 11 10  1  0
 11 12  1  0
 12 14  1  0
 13 12  2  0
 14 15  1  0
 15 16  1  1
 15 22  1  0
 16 17  1  0
 17 18  2  0
 18 19  1  0
 20 19  1  0
 21 17  1  0
 21 20  2  0
 22 24  1  0
 23 22  2  0
M  END
$$$$
