EGH.pdb
     RDKit          3D

 24 24  0  0  1  0  0  0  0  0999 V2000
   26.9404  -21.5095  -18.0077 N   0  0  0  0  0  0  0  0  0  0  0  0
   27.4622  -20.6361  -16.9459 C   0  0  1  0  0  0  0  0  0  0  0  0
   28.4465  -19.6735  -17.5469 C   0  0  0  0  0  0  0  0  0  0  0  0
   27.9086  -18.9876  -18.7578 C   0  0  0  0  0  0  0  0  0  0  0  0
   28.5341  -17.6266  -18.9229 C   0  0  0  0  0  0  0  0  0  0  0  0
   29.6350  -17.5043  -19.4723 O   0  0  0  0  0  0  0  0  0  0  0  0
   26.2999  -20.0058  -16.3080 C   0  0  0  0  0  0  0  0  0  0  0  0
   26.4215  -19.2349  -15.2944 O   0  0  0  0  0  0  0  0  0  0  0  0
   27.8151  -16.5464  -18.4321 O   0  0  0  0  0  0  0  0  0  0  0  0
   24.9678  -20.2110  -16.7741 N   0  0  0  0  0  0  0  0  0  0  0  0
   23.8556  -19.4863  -16.2014 C   0  0  0  0  0  0  0  0  0  0  0  0
   23.0755  -20.3485  -15.2637 C   0  0  0  0  0  0  0  0  0  0  0  0
   23.1264  -21.5902  -15.4323 O   0  0  0  0  0  0  0  0  0  0  0  0
   22.2988  -19.8260  -14.2161 N   0  0  0  0  0  0  0  0  0  0  0  0
   21.6985  -20.6607  -13.1440 C   0  0  1  0  0  0  0  0  0  0  0  0
   22.2595  -20.2971  -11.8259 C   0  0  0  0  0  0  0  0  0  0  0  0
   23.7111  -20.5820  -11.7580 C   0  0  0  0  0  0  0  0  0  0  0  0
   24.2173  -21.8896  -11.6107 C   0  0  0  0  0  0  0  0  0  0  0  0
   25.5533  -21.8213  -11.5820 N   0  0  0  0  0  0  0  0  0  0  0  0
   25.8951  -20.5285  -11.7052 C   0  0  0  0  0  0  0  0  0  0  0  0
   24.7884  -19.7971  -11.8096 N   0  0  0  0  0  0  0  0  0  0  0  0
   20.2287  -20.3738  -13.2374 C   0  0  0  0  0  0  0  0  0  0  0  0
   19.8047  -19.4157  -13.9458 O   0  0  0  0  0  0  0  0  0  0  0  0
   19.3332  -21.1476  -12.5563 O   0  0  0  0  0  0  0  0  0  0  0  0
  2  1  1  6
  2  3  1  0
  3  4  1  0
  5  4  1  0
  5  9  1  0
  6  5  2  0
  7  2  1  0
  7  8  2  0
 10  7  1  0
 11 10  1  0
 11 12  1  0
 12 14  1  0
 13 12  2  0
 14 15  1  0
 15 16  1  1
 15 22  1  0
 16 17  1  0
 17 18  2  0
 18 19  1  0
 20 19  1  0
 21 17  1  0
 21 20  2  0
 22 24  1  0
 23 22  2  0
M  END
$$$$
