EGH.pdb
     RDKit          3D

 24 24  0  0  1  0  0  0  0  0999 V2000
   22.0777  -22.5940  -16.8946 N   0  0  0  0  0  0  0  0  0  0  0  0
   22.4749  -21.4941  -17.7861 C   0  0  1  0  0  0  0  0  0  0  0  0
   21.3298  -20.5297  -17.9098 C   0  0  0  0  0  0  0  0  0  0  0  0
   21.1162  -19.7335  -16.6662 C   0  0  0  0  0  0  0  0  0  0  0  0
   20.4114  -20.5568  -15.6193 C   0  0  0  0  0  0  0  0  0  0  0  0
   19.5355  -21.3673  -15.9429 O   0  0  0  0  0  0  0  0  0  0  0  0
   23.7033  -20.9183  -17.2252 C   0  0  0  0  0  0  0  0  0  0  0  0
   24.3328  -19.9704  -17.8097 O   0  0  0  0  0  0  0  0  0  0  0  0
   20.7971  -20.3535  -14.3022 O   0  0  0  0  0  0  0  0  0  0  0  0
   24.2712  -21.3758  -15.9996 N   0  0  0  0  0  0  0  0  0  0  0  0
   25.5134  -20.8291  -15.5013 C   0  0  0  0  0  0  0  0  0  0  0  0
   25.7006  -21.1474  -14.0539 C   0  0  0  0  0  0  0  0  0  0  0  0
   25.2423  -22.2354  -13.6308 O   0  0  0  0  0  0  0  0  0  0  0  0
   26.3616  -20.2846  -13.1636 N   0  0  0  0  0  0  0  0  0  0  0  0
   26.4196  -20.5067  -11.6961 C   0  0  1  0  0  0  0  0  0  0  0  0
   27.3270  -19.5304  -11.0576 C   0  0  0  0  0  0  0  0  0  0  0  0
   27.3526  -19.6967   -9.5864 C   0  0  0  0  0  0  0  0  0  0  0  0
   28.1173  -20.6981   -8.9535 C   0  0  0  0  0  0  0  0  0  0  0  0
   27.9341  -20.5932   -7.6322 N   0  0  0  0  0  0  0  0  0  0  0  0
   27.0897  -19.5707   -7.4206 C   0  0  0  0  0  0  0  0  0  0  0  0
   26.7485  -19.0424   -8.5933 N   0  0  0  0  0  0  0  0  0  0  0  0
   24.9978  -20.3438  -11.2453 C   0  0  0  0  0  0  0  0  0  0  0  0
   24.2018  -19.5986  -11.8862 O   0  0  0  0  0  0  0  0  0  0  0  0
   24.5493  -21.0015  -10.1359 O   0  0  0  0  0  0  0  0  0  0  0  0
  2  1  1  1
  2  3  1  0
  3  4  1  0
  5  4  1  0
  5  9  1  0
  6  5  2  0
  7  2  1  0
  7  8  2  0
 10  7  1  0
 11 10  1  0
 11 12  1  0
 12 14  1  0
 13 12  2  0
 14 15  1  0
 15 16  1  1
 15 22  1  0
 16 17  1  0
 17 18  2  0
 18 19  1  0
 20 19  1  0
 21 17  1  0
 21 20  2  0
 22 24  1  0
 23 22  2  0
M  END
$$$$
