EGH.pdb
     RDKit          3D

 24 24  0  0  1  0  0  0  0  0999 V2000
   25.1484  -15.2541  -16.5963 N   0  0  0  0  0  0  0  0  0  0  0  0
   25.0839  -16.7009  -16.8509 C   0  0  1  0  0  0  0  0  0  0  0  0
   26.2779  -17.1055  -17.6677 C   0  0  0  0  0  0  0  0  0  0  0  0
   27.5616  -16.6194  -17.0829 C   0  0  0  0  0  0  0  0  0  0  0  0
   28.0476  -15.3910  -17.8078 C   0  0  0  0  0  0  0  0  0  0  0  0
   27.2979  -14.7783  -18.5768 O   0  0  0  0  0  0  0  0  0  0  0  0
   24.9867  -17.3564  -15.5409 C   0  0  0  0  0  0  0  0  0  0  0  0
   24.8644  -16.6863  -14.4580 O   0  0  0  0  0  0  0  0  0  0  0  0
   29.3563  -15.0002  -17.5643 O   0  0  0  0  0  0  0  0  0  0  0  0
   25.0222  -18.7742  -15.3914 N   0  0  0  0  0  0  0  0  0  0  0  0
   24.8981  -19.3920  -14.0902 C   0  0  0  0  0  0  0  0  0  0  0  0
   23.4755  -19.7336  -13.7887 C   0  0  0  0  0  0  0  0  0  0  0  0
   23.1179  -19.7385  -12.5867 O   0  0  0  0  0  0  0  0  0  0  0  0
   22.5386  -20.0446  -14.7883 N   0  0  0  0  0  0  0  0  0  0  0  0
   21.0921  -20.2517  -14.5218 C   0  0  1  0  0  0  0  0  0  0  0  0
   20.4758  -19.0122  -14.0039 C   0  0  0  0  0  0  0  0  0  0  0  0
   19.0055  -19.1455  -13.8892 C   0  0  0  0  0  0  0  0  0  0  0  0
   18.1452  -18.9887  -14.9952 C   0  0  0  0  0  0  0  0  0  0  0  0
   16.8870  -19.1670  -14.5762 N   0  0  0  0  0  0  0  0  0  0  0  0
   16.9319  -19.4273  -13.2596 C   0  0  0  0  0  0  0  0  0  0  0  0
   18.2009  -19.4122  -12.8593 N   0  0  0  0  0  0  0  0  0  0  0  0
   20.5294  -20.6556  -15.8528 C   0  0  0  0  0  0  0  0  0  0  0  0
   20.8847  -20.0575  -16.9090 O   0  0  0  0  0  0  0  0  0  0  0  0
   19.6263  -21.6764  -15.9355 O   0  0  0  0  0  0  0  0  0  0  0  0
  2  1  1  1
  2  3  1  0
  3  4  1  0
  5  4  1  0
  5  9  1  0
  6  5  2  0
  7  2  1  0
  7  8  2  0
 10  7  1  0
 11 10  1  0
 11 12  1  0
 12 14  1  0
 13 12  2  0
 14 15  1  0
 15 16  1  6
 15 22  1  0
 16 17  1  0
 17 18  2  0
 18 19  1  0
 20 19  1  0
 21 17  1  0
 21 20  2  0
 22 24  1  0
 23 22  2  0
M  END
$$$$
