EGH.pdb
     RDKit          3D

 24 24  0  0  1  0  0  0  0  0999 V2000
   23.1746  -19.3838  -17.7597 N   0  0  0  0  0  0  0  0  0  0  0  0
   23.5929  -18.1199  -17.1352 C   0  0  1  0  0  0  0  0  0  0  0  0
   22.7756  -16.9985  -17.7105 C   0  0  0  0  0  0  0  0  0  0  0  0
   22.1813  -17.3453  -19.0344 C   0  0  0  0  0  0  0  0  0  0  0  0
   22.6341  -16.3742  -20.0940 C   0  0  0  0  0  0  0  0  0  0  0  0
   21.8095  -15.6942  -20.7157 O   0  0  0  0  0  0  0  0  0  0  0  0
   23.4532  -18.2988  -15.6848 C   0  0  0  0  0  0  0  0  0  0  0  0
   23.7512  -17.3692  -14.8580 O   0  0  0  0  0  0  0  0  0  0  0  0
   24.0000  -16.2931  -20.3227 O   0  0  0  0  0  0  0  0  0  0  0  0
   22.9790  -19.5133  -15.1069 N   0  0  0  0  0  0  0  0  0  0  0  0
   22.8750  -19.6682  -13.6732 C   0  0  0  0  0  0  0  0  0  0  0  0
   24.0219  -20.4571  -13.1313 C   0  0  0  0  0  0  0  0  0  0  0  0
   23.9752  -21.7057  -13.2392 O   0  0  0  0  0  0  0  0  0  0  0  0
   25.1338  -19.8592  -12.5148 N   0  0  0  0  0  0  0  0  0  0  0  0
   26.2368  -20.6301  -11.8860 C   0  0  1  0  0  0  0  0  0  0  0  0
   27.3406  -19.7305  -11.4902 C   0  0  0  0  0  0  0  0  0  0  0  0
   28.3807  -20.4543  -10.7241 C   0  0  0  0  0  0  0  0  0  0  0  0
   29.1245  -21.5161  -11.2785 C   0  0  0  0  0  0  0  0  0  0  0  0
   29.9776  -21.9609  -10.3486 N   0  0  0  0  0  0  0  0  0  0  0  0
   29.7938  -21.2205   -9.2435 C   0  0  0  0  0  0  0  0  0  0  0  0
   28.8386  -20.3241   -9.4780 N   0  0  0  0  0  0  0  0  0  0  0  0
   25.5914  -21.2949  -10.7057 C   0  0  0  0  0  0  0  0  0  0  0  0
   25.8958  -22.4812  -10.3905 O   0  0  0  0  0  0  0  0  0  0  0  0
   24.6671  -20.6221   -9.9591 O   0  0  0  0  0  0  0  0  0  0  0  0
  2  1  1  6
  2  3  1  0
  3  4  1  0
  5  4  1  0
  5  9  1  0
  6  5  2  0
  7  2  1  0
  7  8  2  0
 10  7  1  0
 11 10  1  0
 11 12  1  0
 12 14  1  0
 13 12  2  0
 14 15  1  0
 15 16  1  1
 15 22  1  0
 16 17  1  0
 17 18  2  0
 18 19  1  0
 20 19  1  0
 21 17  1  0
 21 20  2  0
 22 24  1  0
 23 22  2  0
M  END
$$$$
