EGH.pdb
     RDKit          3D

 24 24  0  0  1  0  0  0  0  0999 V2000
   21.6688  -14.7323  -18.2110 N   0  0  0  0  0  0  0  0  0  0  0  0
   22.0265  -14.9632  -16.8034 C   0  0  1  0  0  0  0  0  0  0  0  0
   23.0224  -16.0855  -16.7318 C   0  0  0  0  0  0  0  0  0  0  0  0
   22.4494  -17.3877  -17.1815 C   0  0  0  0  0  0  0  0  0  0  0  0
   22.6745  -18.4571  -16.1440 C   0  0  0  0  0  0  0  0  0  0  0  0
   23.3678  -18.2276  -15.1462 O   0  0  0  0  0  0  0  0  0  0  0  0
   22.5082  -13.6814  -16.2742 C   0  0  0  0  0  0  0  0  0  0  0  0
   22.9383  -13.5648  -15.0751 O   0  0  0  0  0  0  0  0  0  0  0  0
   22.0701  -19.6847  -16.3727 O   0  0  0  0  0  0  0  0  0  0  0  0
   22.5278  -12.4902  -17.0580 N   0  0  0  0  0  0  0  0  0  0  0  0
   22.9351  -11.2260  -16.4866 C   0  0  0  0  0  0  0  0  0  0  0  0
   21.7820  -10.5294  -15.8413 C   0  0  0  0  0  0  0  0  0  0  0  0
   20.6536  -10.6494  -16.3754 O   0  0  0  0  0  0  0  0  0  0  0  0
   21.9146   -9.7565  -14.6756 N   0  0  0  0  0  0  0  0  0  0  0  0
   20.7659   -9.1369  -13.9665 C   0  0  1  0  0  0  0  0  0  0  0  0
   20.9416   -9.2392  -12.5026 C   0  0  0  0  0  0  0  0  0  0  0  0
   19.8481   -8.5536  -11.7768 C   0  0  0  0  0  0  0  0  0  0  0  0
   18.7388   -9.2483  -11.2525 C   0  0  0  0  0  0  0  0  0  0  0  0
   17.9314   -8.3618  -10.6586 N   0  0  0  0  0  0  0  0  0  0  0  0
   18.4931   -7.1495  -10.7928 C   0  0  0  0  0  0  0  0  0  0  0  0
   19.6367   -7.2748  -11.4616 N   0  0  0  0  0  0  0  0  0  0  0  0
   20.7665   -7.7141  -14.4431 C   0  0  0  0  0  0  0  0  0  0  0  0
   19.6877   -7.0570  -14.5063 O   0  0  0  0  0  0  0  0  0  0  0  0
   21.9360   -7.1143  -14.8134 O   0  0  0  0  0  0  0  0  0  0  0  0
  2  1  1  6
  2  3  1  0
  3  4  1  0
  5  4  1  0
  5  9  1  0
  6  5  2  0
  7  2  1  0
  7  8  2  0
 10  7  1  0
 11 10  1  0
 11 12  1  0
 12 14  1  0
 13 12  2  0
 14 15  1  0
 15 16  1  1
 15 22  1  0
 16 17  1  0
 17 18  2  0
 18 19  1  0
 20 19  1  0
 21 17  1  0
 21 20  2  0
 22 24  1  0
 23 22  2  0
M  END
$$$$
