GEM.pdb
     RDKit          3D

 22 21  0  0  1  0  0  0  0  0999 V2000
    7.4166  -12.5951   18.4949 N   0  0  0  0  0  0  0  0  0  0  0  0
    8.6897  -12.9569   19.0852 C   0  0  0  0  0  0  0  0  0  0  0  0
    8.4562  -14.0187   20.0834 C   0  0  0  0  0  0  0  0  0  0  0  0
    7.3939  -14.0063   20.7769 O   0  0  0  0  0  0  0  0  0  0  0  0
    9.3388  -15.0861   20.3451 N   0  0  0  0  0  0  0  0  0  0  0  0
    9.1472  -16.0783   21.3979 C   0  0  1  0  0  0  0  0  0  0  0  0
    9.8576  -17.3208   20.9597 C   0  0  0  0  0  0  0  0  0  0  0  0
    9.7804  -18.5114   21.8443 C   0  0  0  0  0  0  0  0  0  0  0  0
   10.5995  -19.6667   21.4291 C   0  0  0  0  0  0  0  0  0  0  0  0
   11.8591  -19.5303   21.3220 O   0  0  0  0  0  0  0  0  0  0  0  0
    9.3203  -15.5940   22.7457 C   0  0  0  0  0  0  0  0  0  0  0  0
   10.3595  -14.9121   23.0716 O   0  0  0  0  0  0  0  0  0  0  0  0
   10.0671  -20.9103   21.1446 O   0  0  0  0  0  0  0  0  0  0  0  0
    7.1763  -10.8514   26.5150 C   0  0  0  0  0  0  0  0  0  0  0  0
    6.2223  -12.3336   26.9125 S   0  0  0  0  0  0  0  0  0  0  0  0
    7.2849  -13.7831   26.8166 C   0  0  0  0  0  0  0  0  0  0  0  0
    7.4174  -14.3908   25.4733 C   0  0  0  0  0  0  0  0  0  0  0  0
    8.6075  -15.2265   25.1559 C   0  0  2  0  0  0  0  0  0  0  0  0
    8.3920  -15.8171   23.7995 N   0  0  0  0  0  0  0  0  0  0  0  0
    8.9227  -16.2854   26.1005 C   0  0  0  0  0  0  0  0  0  0  0  0
    8.6704  -17.4934   25.9054 O   0  0  0  0  0  0  0  0  0  0  0  0
    9.5531  -15.9567   27.3237 O   0  0  0  0  0  0  0  0  0  0  0  0
  1  2  1  0
  3  5  1  0
  3  2  1  0
  4  3  2  0
  6  5  1  0
  6 11  1  0
  6  7  1  6
  8  7  1  0
  9  8  1  0
 10  9  2  0
 11 19  1  0
 11 12  2  0
 13  9  1  0
 14 15  1  0
 15 16  1  0
 16 17  1  0
 18 17  1  1
 19 18  1  0
 20 18  1  0
 20 22  1  0
 21 20  2  0
M  END
$$$$
