GEM.pdb
     RDKit          3D

 22 21  0  0  1  0  0  0  0  0999 V2000
    7.7890  -11.8437   19.3363 N   0  0  0  0  0  0  0  0  0  0  0  0
    8.7480  -12.9298   19.3102 C   0  0  0  0  0  0  0  0  0  0  0  0
    8.4819  -13.8149   20.4609 C   0  0  0  0  0  0  0  0  0  0  0  0
    7.7913  -13.3876   21.4356 O   0  0  0  0  0  0  0  0  0  0  0  0
    8.9417  -15.1422   20.5792 N   0  0  0  0  0  0  0  0  0  0  0  0
    8.6060  -16.0384   21.6808 C   0  0  1  0  0  0  0  0  0  0  0  0
    8.6330  -17.4310   21.1327 C   0  0  0  0  0  0  0  0  0  0  0  0
    8.3510  -18.5493   22.0686 C   0  0  0  0  0  0  0  0  0  0  0  0
    8.4675  -19.9040   21.4947 C   0  0  0  0  0  0  0  0  0  0  0  0
    9.0348  -20.0556   20.3669 O   0  0  0  0  0  0  0  0  0  0  0  0
    9.2585  -15.7515   22.9349 C   0  0  0  0  0  0  0  0  0  0  0  0
   10.5340  -15.6082   22.9955 O   0  0  0  0  0  0  0  0  0  0  0  0
    7.9868  -21.0375   22.1232 O   0  0  0  0  0  0  0  0  0  0  0  0
    5.8897  -11.3259   25.6221 C   0  0  0  0  0  0  0  0  0  0  0  0
    6.6689  -12.3331   26.9039 S   0  0  0  0  0  0  0  0  0  0  0  0
    7.2556  -13.8773   26.1894 C   0  0  0  0  0  0  0  0  0  0  0  0
    8.7069  -13.9391   25.9044 C   0  0  0  0  0  0  0  0  0  0  0  0
    9.3093  -15.2096   25.4161 C   0  0  2  0  0  0  0  0  0  0  0  0
    8.5768  -15.6052   24.1744 N   0  0  0  0  0  0  0  0  0  0  0  0
    9.3137  -16.3225   26.3511 C   0  0  0  0  0  0  0  0  0  0  0  0
    9.9004  -16.3058   27.4541 O   0  0  0  0  0  0  0  0  0  0  0  0
    8.6200  -17.5095   26.0175 O   0  0  0  0  0  0  0  0  0  0  0  0
  1  2  1  0
  3  5  1  0
  3  2  1  0
  4  3  2  0
  6  5  1  0
  6 11  1  0
  6  7  1  6
  8  7  1  0
  9  8  1  0
 10  9  2  0
 11 19  1  0
 11 12  2  0
 13  9  1  0
 14 15  1  0
 15 16  1  0
 16 17  1  0
 18 17  1  1
 19 18  1  0
 20 18  1  0
 20 22  1  0
 21 20  2  0
M  END
$$$$
