GEM.pdb
     RDKit          3D

 22 21  0  0  1  0  0  0  0  0999 V2000
    7.5766  -13.1990   17.9080 N   0  0  0  0  0  0  0  0  0  0  0  0
    8.7631  -13.1404   18.7380 C   0  0  0  0  0  0  0  0  0  0  0  0
    8.6841  -14.2196   19.7417 C   0  0  0  0  0  0  0  0  0  0  0  0
    7.6156  -14.3828   20.4060 O   0  0  0  0  0  0  0  0  0  0  0  0
    9.7268  -15.1202   20.0396 N   0  0  0  0  0  0  0  0  0  0  0  0
    9.6761  -16.1228   21.0987 C   0  0  1  0  0  0  0  0  0  0  0  0
   10.5588  -17.2533   20.6706 C   0  0  0  0  0  0  0  0  0  0  0  0
   10.3996  -17.7710   19.2876 C   0  0  0  0  0  0  0  0  0  0  0  0
   11.3263  -18.8531   18.9027 C   0  0  0  0  0  0  0  0  0  0  0  0
   12.1513  -19.3007   19.7606 O   0  0  0  0  0  0  0  0  0  0  0  0
    9.7736  -15.6101   22.4435 C   0  0  0  0  0  0  0  0  0  0  0  0
   10.7597  -14.8643   22.7936 O   0  0  0  0  0  0  0  0  0  0  0  0
   11.3500  -19.4181   17.6413 O   0  0  0  0  0  0  0  0  0  0  0  0
    6.3988  -11.3614   27.7868 C   0  0  0  0  0  0  0  0  0  0  0  0
    6.3011  -12.3649   26.2873 S   0  0  0  0  0  0  0  0  0  0  0  0
    7.7025  -13.4921   26.2189 C   0  0  0  0  0  0  0  0  0  0  0  0
    7.8110  -14.3032   24.9855 C   0  0  0  0  0  0  0  0  0  0  0  0
    8.9523  -15.2441   24.8192 C   0  0  2  0  0  0  0  0  0  0  0  0
    8.8232  -15.8717   23.4685 N   0  0  0  0  0  0  0  0  0  0  0  0
    9.0825  -16.2845   25.8260 C   0  0  0  0  0  0  0  0  0  0  0  0
    8.8248  -17.4899   25.6221 O   0  0  0  0  0  0  0  0  0  0  0  0
    9.5254  -15.9395   27.1245 O   0  0  0  0  0  0  0  0  0  0  0  0
  1  2  1  0
  3  5  1  0
  3  2  1  0
  4  3  2  0
  6  5  1  0
  6 11  1  0
  6  7  1  6
  8  7  1  0
  9  8  1  0
 10  9  2  0
 11 19  1  0
 11 12  2  0
 13  9  1  0
 14 15  1  0
 15 16  1  0
 16 17  1  0
 18 17  1  1
 19 18  1  0
 20 18  1  0
 20 22  1  0
 21 20  2  0
M  END
$$$$
