GEM.pdb
     RDKit          3D

 22 21  0  0  1  0  0  0  0  0999 V2000
    6.9196  -12.9206   18.9165 N   0  0  0  0  0  0  0  0  0  0  0  0
    8.2671  -13.4538   18.9291 C   0  0  0  0  0  0  0  0  0  0  0  0
    8.3660  -14.4463   20.0169 C   0  0  0  0  0  0  0  0  0  0  0  0
    7.4533  -14.5078   20.8961 O   0  0  0  0  0  0  0  0  0  0  0  0
    9.4214  -15.3676   20.1729 N   0  0  0  0  0  0  0  0  0  0  0  0
    9.5417  -16.3067   21.2833 C   0  0  1  0  0  0  0  0  0  0  0  0
   10.4852  -17.3823   20.8434 C   0  0  0  0  0  0  0  0  0  0  0  0
   10.8002  -18.4653   21.8099 C   0  0  0  0  0  0  0  0  0  0  0  0
   11.7794  -19.4671   21.3460 C   0  0  0  0  0  0  0  0  0  0  0  0
   12.0845  -20.4386   22.1076 O   0  0  0  0  0  0  0  0  0  0  0  0
    9.6973  -15.7093   22.5871 C   0  0  0  0  0  0  0  0  0  0  0  0
   10.6389  -14.8654   22.8162 O   0  0  0  0  0  0  0  0  0  0  0  0
   12.3954  -19.4094   20.1098 O   0  0  0  0  0  0  0  0  0  0  0  0
    6.5026  -11.1292   27.6703 C   0  0  0  0  0  0  0  0  0  0  0  0
    6.4557  -12.1560   26.1842 S   0  0  0  0  0  0  0  0  0  0  0  0
    7.7709  -13.3828   26.2524 C   0  0  0  0  0  0  0  0  0  0  0  0
    7.9135  -14.2346   25.0502 C   0  0  0  0  0  0  0  0  0  0  0  0
    9.0057  -15.2439   24.9866 C   0  0  2  0  0  0  0  0  0  0  0  0
    8.8548  -15.9875   23.6984 N   0  0  0  0  0  0  0  0  0  0  0  0
    9.0738  -16.1910   26.0872 C   0  0  0  0  0  0  0  0  0  0  0  0
    8.8195  -17.4093   25.9770 O   0  0  0  0  0  0  0  0  0  0  0  0
    9.4474  -15.7328   27.3724 O   0  0  0  0  0  0  0  0  0  0  0  0
  1  2  1  0
  3  5  1  0
  3  2  1  0
  4  3  2  0
  6  5  1  0
  6 11  1  0
  6  7  1  6
  8  7  1  0
  9  8  1  0
 10  9  2  0
 11 19  1  0
 11 12  2  0
 13  9  1  0
 14 15  1  0
 15 16  1  0
 16 17  1  0
 18 17  1  1
 19 18  1  0
 20 18  1  0
 20 22  1  0
 21 20  2  0
M  END
$$$$
