PDG.pdb
     RDKit          3D

 20 20  0  0  1  0  0  0  0  0999 V2000
   18.4240  -25.2151   -8.1161 N   0  0  0  0  0  0  0  0  0  0  0  0
   18.8121  -25.4168   -9.5069 C   0  0  0  0  0  0  0  0  0  0  0  0
   17.7809  -26.3145  -10.1351 C   0  0  0  0  0  0  0  0  0  0  0  0
   16.9718  -26.7670   -8.9275 C   0  0  0  0  0  0  0  0  0  0  0  0
   16.9896  -25.4609   -8.1113 C   0  0  1  0  0  0  0  0  0  0  0  0
   16.4449  -25.6347   -6.7702 C   0  0  0  0  0  0  0  0  0  0  0  0
   15.2196  -25.8231   -6.6071 O   0  0  0  0  0  0  0  0  0  0  0  0
   17.2954  -25.5922   -5.6466 N   0  0  0  0  0  0  0  0  0  0  0  0
   16.7050  -25.9611   -4.3059 C   0  0  1  0  0  0  0  0  0  0  0  0
   17.8353  -26.6262   -3.5494 C   0  0  0  0  0  0  0  0  0  0  0  0
   17.9984  -28.0377   -3.7903 C   0  0  0  0  0  0  0  0  0  0  0  0
   18.8755  -28.5444   -4.5024 O   0  0  0  0  0  0  0  0  0  0  0  0
   16.3897  -24.6524   -3.7145 C   0  0  0  0  0  0  0  0  0  0  0  0
   17.0282  -23.6350   -4.1492 O   0  0  0  0  0  0  0  0  0  0  0  0
   17.0964  -28.9304   -3.1732 O   0  0  0  0  0  0  0  0  0  0  0  0
   15.4377  -24.3829   -2.7021 N   0  0  0  0  0  0  0  0  0  0  0  0
   15.2138  -22.9815   -2.2962 C   0  0  0  0  0  0  0  0  0  0  0  0
   14.0375  -22.8472   -1.4327 C   0  0  0  0  0  0  0  0  0  0  0  0
   13.3593  -23.8614   -1.1491 O   0  0  0  0  0  0  0  0  0  0  0  0
   13.6694  -21.6228   -0.9304 O   0  0  0  0  0  0  0  0  0  0  0  0
  1  5  1  0
  2  1  1  0
  2  3  1  0
  3  4  1  0
  5  4  1  0
  6  7  2  0
  5  6  1  1
  8  6  1  0
  9  8  1  0
  9 10  1  1
 10 11  1  0
 11 12  2  0
 11 15  1  0
 13  9  1  0
 14 13  2  0
 16 13  1  0
 17 16  1  0
 18 20  1  0
 18 17  1  0
 19 18  2  0
M  END
$$$$
