PDG.pdb
     RDKit          3D

 20 20  0  0  1  0  0  0  0  0999 V2000
   24.1616  -13.0636  -15.5850 N   0  0  0  0  0  0  0  0  0  0  0  0
   24.8461  -14.3507  -15.6006 C   0  0  0  0  0  0  0  0  0  0  0  0
   24.8210  -14.8553  -17.0179 C   0  0  0  0  0  0  0  0  0  0  0  0
   23.8694  -13.8754  -17.6900 C   0  0  0  0  0  0  0  0  0  0  0  0
   24.2786  -12.5854  -16.9545 C   0  0  1  0  0  0  0  0  0  0  0  0
   23.3866  -11.4701  -17.2478 C   0  0  0  0  0  0  0  0  0  0  0  0
   23.4152  -10.9183  -18.3695 O   0  0  0  0  0  0  0  0  0  0  0  0
   22.4846  -11.0051  -16.2692 N   0  0  0  0  0  0  0  0  0  0  0  0
   21.6121   -9.8242  -16.6244 C   0  0  1  0  0  0  0  0  0  0  0  0
   20.2081  -10.3847  -16.7070 C   0  0  0  0  0  0  0  0  0  0  0  0
   19.1580   -9.4101  -16.8627 C   0  0  0  0  0  0  0  0  0  0  0  0
   19.0973   -8.5628  -17.7636 O   0  0  0  0  0  0  0  0  0  0  0  0
   21.7490   -8.9497  -15.4502 C   0  0  0  0  0  0  0  0  0  0  0  0
   21.7161   -9.4960  -14.2960 O   0  0  0  0  0  0  0  0  0  0  0  0
   18.1048   -9.4055  -15.9236 O   0  0  0  0  0  0  0  0  0  0  0  0
   21.9215   -7.5447  -15.4508 N   0  0  0  0  0  0  0  0  0  0  0  0
   22.0806   -6.8507  -14.1578 C   0  0  0  0  0  0  0  0  0  0  0  0
   22.3731   -5.4262  -14.3380 C   0  0  0  0  0  0  0  0  0  0  0  0
   22.4367   -4.9493  -15.4945 O   0  0  0  0  0  0  0  0  0  0  0  0
   22.5785   -4.6075  -13.2543 O   0  0  0  0  0  0  0  0  0  0  0  0
  1  5  1  0
  2  1  1  0
  2  3  1  0
  3  4  1  0
  5  4  1  0
  6  7  2  0
  5  6  1  1
  8  6  1  0
  9  8  1  0
  9 10  1  1
 10 11  1  0
 11 12  2  0
 11 15  1  0
 13  9  1  0
 14 13  2  0
 16 13  1  0
 17 16  1  0
 18 20  1  0
 18 17  1  0
 19 18  2  0
M  END
$$$$
