PDG.pdb
     RDKit          3D

 20 20  0  0  1  0  0  0  0  0999 V2000
   26.0253  -10.1924  -17.5421 N   0  0  0  0  0  0  0  0  0  0  0  0
   27.3729  -10.6031  -17.9177 C   0  0  0  0  0  0  0  0  0  0  0  0
   28.1410  -10.8393  -16.6457 C   0  0  0  0  0  0  0  0  0  0  0  0
   27.1911  -10.2895  -15.5908 C   0  0  0  0  0  0  0  0  0  0  0  0
   25.8509  -10.7373  -16.2039 C   0  0  1  0  0  0  0  0  0  0  0  0
   24.7024  -10.1746  -15.5039 C   0  0  0  0  0  0  0  0  0  0  0  0
   24.5054  -10.4431  -14.2987 O   0  0  0  0  0  0  0  0  0  0  0  0
   23.8052   -9.3230  -16.1801 N   0  0  0  0  0  0  0  0  0  0  0  0
   22.6449   -8.7601  -15.3935 C   0  0  1  0  0  0  0  0  0  0  0  0
   22.7448   -7.2593  -15.5669 C   0  0  0  0  0  0  0  0  0  0  0  0
   23.8755   -6.7960  -16.3311 C   0  0  0  0  0  0  0  0  0  0  0  0
   25.0577   -6.8608  -15.9687 O   0  0  0  0  0  0  0  0  0  0  0  0
   21.4749   -9.2847  -16.1130 C   0  0  0  0  0  0  0  0  0  0  0  0
   21.2558   -8.8435  -17.2917 O   0  0  0  0  0  0  0  0  0  0  0  0
   23.6367   -6.2199  -17.5969 O   0  0  0  0  0  0  0  0  0  0  0  0
   20.5470  -10.2451  -15.6435 N   0  0  0  0  0  0  0  0  0  0  0  0
   19.4254  -10.6336  -16.5210 C   0  0  0  0  0  0  0  0  0  0  0  0
   18.5367  -11.6004  -15.8710 C   0  0  0  0  0  0  0  0  0  0  0  0
   17.4907  -11.9683  -16.4537 O   0  0  0  0  0  0  0  0  0  0  0  0
   18.8365  -12.1084  -14.6304 O   0  0  0  0  0  0  0  0  0  0  0  0
  1  5  1  0
  2  1  1  0
  2  3  1  0
  3  4  1  0
  5  4  1  0
  6  7  2  0
  5  6  1  1
  8  6  1  0
  9  8  1  0
  9 10  1  6
 10 11  1  0
 11 12  2  0
 11 15  1  0
 13  9  1  0
 14 13  2  0
 16 13  1  0
 17 16  1  0
 18 20  1  0
 18 17  1  0
 19 18  2  0
M  END
$$$$
