PDG.pdb
     RDKit          3D

 20 20  0  0  1  0  0  0  0  0999 V2000
   24.0336  -11.2641  -15.5349 N   0  0  0  0  0  0  0  0  0  0  0  0
   24.7767  -12.4759  -15.8589 C   0  0  0  0  0  0  0  0  0  0  0  0
   24.4996  -12.8001  -17.3019 C   0  0  0  0  0  0  0  0  0  0  0  0
   23.3765  -11.8291  -17.6384 C   0  0  0  0  0  0  0  0  0  0  0  0
   23.8466  -10.6107  -16.8218 C   0  0  1  0  0  0  0  0  0  0  0  0
   22.8492   -9.5480  -16.7827 C   0  0  0  0  0  0  0  0  0  0  0  0
   22.5846   -8.8936  -17.8148 O   0  0  0  0  0  0  0  0  0  0  0  0
   22.1748   -9.2501  -15.5810 N   0  0  0  0  0  0  0  0  0  0  0  0
   21.0580   -8.2343  -15.6369 C   0  0  1  0  0  0  0  0  0  0  0  0
   19.9247   -8.8537  -14.8467 C   0  0  0  0  0  0  0  0  0  0  0  0
   19.1677   -9.8677  -15.5365 C   0  0  0  0  0  0  0  0  0  0  0  0
   18.9076   -9.8656  -16.7471 O   0  0  0  0  0  0  0  0  0  0  0  0
   21.6224   -7.0855  -14.9132 C   0  0  0  0  0  0  0  0  0  0  0  0
   22.3684   -7.3272  -13.9048 O   0  0  0  0  0  0  0  0  0  0  0  0
   18.6756  -10.9592  -14.7897 O   0  0  0  0  0  0  0  0  0  0  0  0
   21.4352   -5.7149  -15.2136 N   0  0  0  0  0  0  0  0  0  0  0  0
   22.0986   -4.7070  -14.3634 C   0  0  0  0  0  0  0  0  0  0  0  0
   21.9532   -3.3550  -14.9092 C   0  0  0  0  0  0  0  0  0  0  0  0
   22.3751   -2.3745  -14.2538 O   0  0  0  0  0  0  0  0  0  0  0  0
   21.3597   -3.1495  -16.1310 O   0  0  0  0  0  0  0  0  0  0  0  0
  1  5  1  0
  2  1  1  0
  2  3  1  0
  3  4  1  0
  5  4  1  0
  6  7  2  0
  5  6  1  1
  8  6  1  0
  9  8  1  0
  9 10  1  1
 10 11  1  0
 11 12  2  0
 11 15  1  0
 13  9  1  0
 14 13  2  0
 16 13  1  0
 17 16  1  0
 18 20  1  0
 18 17  1  0
 19 18  2  0
M  END
$$$$
