PDG.pdb
     RDKit          3D

 20 20  0  0  1  0  0  0  0  0999 V2000
   20.1490   -9.8279  -17.6146 N   0  0  0  0  0  0  0  0  0  0  0  0
   20.3215  -11.0766  -18.3471 C   0  0  0  0  0  0  0  0  0  0  0  0
   20.7631  -12.1203  -17.3573 C   0  0  0  0  0  0  0  0  0  0  0  0
   21.0487  -11.2852  -16.1170 C   0  0  0  0  0  0  0  0  0  0  0  0
   19.9118  -10.2536  -16.2433 C   0  0  1  0  0  0  0  0  0  0  0  0
   20.0358   -9.1672  -15.2789 C   0  0  0  0  0  0  0  0  0  0  0  0
   19.8180   -9.3739  -14.0651 O   0  0  0  0  0  0  0  0  0  0  0  0
   20.4027   -7.8751  -15.7072 N   0  0  0  0  0  0  0  0  0  0  0  0
   20.5483   -6.8022  -14.6538 C   0  0  1  0  0  0  0  0  0  0  0  0
   22.0152   -6.4278  -14.6755 C   0  0  0  0  0  0  0  0  0  0  0  0
   22.3863   -5.3196  -13.8323 C   0  0  0  0  0  0  0  0  0  0  0  0
   22.8168   -4.2299  -14.2327 O   0  0  0  0  0  0  0  0  0  0  0  0
   19.7288   -5.7043  -15.1877 C   0  0  0  0  0  0  0  0  0  0  0  0
   19.9360   -5.3415  -16.3949 O   0  0  0  0  0  0  0  0  0  0  0  0
   22.2548   -5.4685  -12.4352 O   0  0  0  0  0  0  0  0  0  0  0  0
   18.7129   -4.9914  -14.5068 N   0  0  0  0  0  0  0  0  0  0  0  0
   18.1248   -3.8037  -15.1565 C   0  0  0  0  0  0  0  0  0  0  0  0
   16.9547   -4.1512  -15.9672 C   0  0  0  0  0  0  0  0  0  0  0  0
   16.5826   -5.3452  -16.0363 O   0  0  0  0  0  0  0  0  0  0  0  0
   16.2609   -3.1837  -16.6524 O   0  0  0  0  0  0  0  0  0  0  0  0
  1  5  1  0
  2  1  1  0
  2  3  1  0
  3  4  1  0
  5  4  1  0
  6  7  2  0
  5  6  1  1
  8  6  1  0
  9  8  1  0
  9 10  1  6
 10 11  1  0
 11 12  2  0
 11 15  1  0
 13  9  1  0
 14 13  2  0
 16 13  1  0
 17 16  1  0
 18 20  1  0
 18 17  1  0
 19 18  2  0
M  END
$$$$
