PDG.pdb
     RDKit          3D

 20 20  0  0  1  0  0  0  0  0999 V2000
   16.6065  -10.5334  -10.1363 N   0  0  0  0  0  0  0  0  0  0  0  0
   16.5782  -11.9335  -10.5417 C   0  0  0  0  0  0  0  0  0  0  0  0
   15.5406  -12.0669  -11.6231 C   0  0  0  0  0  0  0  0  0  0  0  0
   14.8588  -10.7064  -11.5824 C   0  0  0  0  0  0  0  0  0  0  0  0
   16.0854   -9.8208  -11.2933 C   0  0  1  0  0  0  0  0  0  0  0  0
   15.7190   -8.4412  -10.9965 C   0  0  0  0  0  0  0  0  0  0  0  0
   15.1699   -7.7333  -11.8688 O   0  0  0  0  0  0  0  0  0  0  0  0
   15.9802   -7.8946   -9.7235 N   0  0  0  0  0  0  0  0  0  0  0  0
   15.4845   -6.4948   -9.4463 C   0  0  1  0  0  0  0  0  0  0  0  0
   15.2228   -6.4596   -7.9554 C   0  0  0  0  0  0  0  0  0  0  0  0
   13.8660   -6.7362   -7.5559 C   0  0  0  0  0  0  0  0  0  0  0  0
   12.9379   -7.0184   -8.3255 O   0  0  0  0  0  0  0  0  0  0  0  0
   16.6476   -5.6614   -9.7846 C   0  0  0  0  0  0  0  0  0  0  0  0
   17.7781   -5.9904   -9.2890 O   0  0  0  0  0  0  0  0  0  0  0  0
   13.5501   -6.6874   -6.1815 O   0  0  0  0  0  0  0  0  0  0  0  0
   16.6611   -4.5162  -10.6166 N   0  0  0  0  0  0  0  0  0  0  0  0
   17.9562   -3.8746  -10.9166 C   0  0  0  0  0  0  0  0  0  0  0  0
   17.8004   -2.7340  -11.8232 C   0  0  0  0  0  0  0  0  0  0  0  0
   16.6704   -2.4670  -12.2930 O   0  0  0  0  0  0  0  0  0  0  0  0
   18.8785   -1.9538  -12.1641 O   0  0  0  0  0  0  0  0  0  0  0  0
  1  5  1  0
  2  1  1  0
  2  3  1  0
  3  4  1  0
  5  4  1  0
  6  7  2  0
  5  6  1  1
  8  6  1  0
  9  8  1  0
  9 10  1  1
 10 11  1  0
 11 12  2  0
 11 15  1  0
 13  9  1  0
 14 13  2  0
 16 13  1  0
 17 16  1  0
 18 20  1  0
 18 17  1  0
 19 18  2  0
M  END
$$$$
