HKG.pdb
     RDKit          3D

 24 24  0  0  1  0  0  0  0  0999 V2000
    6.3867  -16.1391   20.7717 N   0  0  0  0  0  0  0  0  0  0  0  0
    7.0639  -15.8355   22.0086 C   0  0  1  0  0  0  0  0  0  0  0  0
    7.0186  -14.3381   22.1878 C   0  0  0  0  0  0  0  0  0  0  0  0
    7.7248  -13.6624   21.0700 C   0  0  0  0  0  0  0  0  0  0  0  0
    8.3443  -14.2455   19.9916 C   0  0  0  0  0  0  0  0  0  0  0  0
    8.8708  -13.2837   19.1951 N   0  0  0  0  0  0  0  0  0  0  0  0
    8.5843  -12.1034   19.7688 C   0  0  0  0  0  0  0  0  0  0  0  0
    7.8906  -12.3165   20.9051 N   0  0  0  0  0  0  0  0  0  0  0  0
    6.5580  -16.5916   23.1616 C   0  0  0  0  0  0  0  0  0  0  0  0
    5.3071  -16.5572   23.3681 O   0  0  0  0  0  0  0  0  0  0  0  0
    7.3720  -17.3357   24.0278 N   0  0  0  0  0  0  0  0  0  0  0  0
    6.8881  -18.0861   25.1744 C   0  0  1  0  0  0  0  0  0  0  0  0
    7.2213  -19.5449   24.9774 C   0  0  0  0  0  0  0  0  0  0  0  0
    6.7503  -20.4506   26.0572 C   0  0  0  0  0  0  0  0  0  0  0  0
    7.1924  -21.8755   25.9266 C   0  0  0  0  0  0  0  0  0  0  0  0
    6.5537  -22.6528   27.0743 C   0  0  0  0  0  0  0  0  0  0  0  0
    6.7168  -24.0795   26.8966 N   0  0  0  0  0  0  0  0  0  0  0  0
    7.7026  -17.6391   26.3548 C   0  0  0  0  0  0  0  0  0  0  0  0
    7.3907  -17.9295   27.5384 O   0  0  0  0  0  0  0  0  0  0  0  0
    8.8771  -16.8585   26.1918 N   0  0  0  0  0  0  0  0  0  0  0  0
    9.6870  -16.4530   27.3417 C   0  0  0  0  0  0  0  0  0  0  0  0
   10.4449  -17.5788   27.8975 C   0  0  0  0  0  0  0  0  0  0  0  0
   11.2864  -17.3298   28.9719 O   0  0  0  0  0  0  0  0  0  0  0  0
   10.3848  -18.7578   27.4665 O   0  0  0  0  0  0  0  0  0  0  0  0
  2  1  1  6
  2  9  1  0
  3  2  1  0
  3  4  1  0
  4  8  1  0
  4  5  2  0
  5  6  1  0
  7  6  1  0
  8  7  2  0
  9 10  2  0
 11 12  1  0
 11  9  1  0
 12 18  1  0
 13 14  1  0
 12 13  1  6
 14 15  1  0
 16 15  1  0
 16 17  1  0
 18 19  2  0
 20 18  1  0
 20 21  1  0
 22 23  1  0
 22 21  1  0
 24 22  2  0
M  END
$$$$
