HKG.pdb
     RDKit          3D

 24 24  0  0  1  0  0  0  0  0999 V2000
   11.7867  -17.9462   16.9936 N   0  0  0  0  0  0  0  0  0  0  0  0
   11.2892  -18.1658   18.3296 C   0  0  1  0  0  0  0  0  0  0  0  0
   11.9112  -19.4444   18.8343 C   0  0  0  0  0  0  0  0  0  0  0  0
   11.4462  -20.5995   18.0255 C   0  0  0  0  0  0  0  0  0  0  0  0
   10.3197  -20.6799   17.2436 C   0  0  0  0  0  0  0  0  0  0  0  0
   10.2526  -21.9047   16.6676 N   0  0  0  0  0  0  0  0  0  0  0  0
   11.3299  -22.5903   17.0844 C   0  0  0  0  0  0  0  0  0  0  0  0
   12.0623  -21.8131   17.9073 N   0  0  0  0  0  0  0  0  0  0  0  0
   11.4724  -17.0169   19.2259 C   0  0  0  0  0  0  0  0  0  0  0  0
   12.4628  -16.2591   18.9948 O   0  0  0  0  0  0  0  0  0  0  0  0
   10.6237  -16.7208   20.3023 N   0  0  0  0  0  0  0  0  0  0  0  0
   10.7083  -15.5181   21.1137 C   0  0  1  0  0  0  0  0  0  0  0  0
    9.3869  -14.7920   21.0472 C   0  0  0  0  0  0  0  0  0  0  0  0
    9.1048  -14.1130   19.7559 C   0  0  0  0  0  0  0  0  0  0  0  0
    7.6646  -13.7787   19.5173 C   0  0  0  0  0  0  0  0  0  0  0  0
    7.5841  -13.0669   18.1697 C   0  0  0  0  0  0  0  0  0  0  0  0
    6.2119  -12.7896   17.8037 N   0  0  0  0  0  0  0  0  0  0  0  0
   10.8518  -15.9708   22.5388 C   0  0  0  0  0  0  0  0  0  0  0  0
   11.0338  -15.1650   23.4875 O   0  0  0  0  0  0  0  0  0  0  0  0
   10.7886  -17.3450   22.8898 N   0  0  0  0  0  0  0  0  0  0  0  0
   11.9957  -18.1705   22.9534 C   0  0  0  0  0  0  0  0  0  0  0  0
   12.8988  -17.7321   24.0226 C   0  0  0  0  0  0  0  0  0  0  0  0
   13.4973  -18.7056   24.8090 O   0  0  0  0  0  0  0  0  0  0  0  0
   13.1691  -16.5314   24.2768 O   0  0  0  0  0  0  0  0  0  0  0  0
  2  1  1  6
  2  9  1  0
  3  2  1  0
  3  4  1  0
  4  8  1  0
  4  5  2  0
  5  6  1  0
  7  6  1  0
  8  7  2  0
  9 10  2  0
 11 12  1  0
 11  9  1  0
 12 18  1  0
 13 14  1  0
 12 13  1  1
 14 15  1  0
 16 15  1  0
 16 17  1  0
 18 19  2  0
 20 18  1  0
 20 21  1  0
 22 23  1  0
 22 21  1  0
 24 22  2  0
M  END
$$$$
