HKG.pdb
     RDKit          3D

 24 24  0  0  1  0  0  0  0  0999 V2000
    6.1255  -13.8350   20.4361 N   0  0  0  0  0  0  0  0  0  0  0  0
    7.0998  -14.8575   20.7293 C   0  0  1  0  0  0  0  0  0  0  0  0
    8.4015  -14.4297   20.0975 C   0  0  0  0  0  0  0  0  0  0  0  0
    8.2803  -14.4242   18.6176 C   0  0  0  0  0  0  0  0  0  0  0  0
    7.1609  -14.1609   17.8663 C   0  0  0  0  0  0  0  0  0  0  0  0
    7.4646  -14.2567   16.5491 N   0  0  0  0  0  0  0  0  0  0  0  0
    8.7667  -14.5781   16.4724 C   0  0  0  0  0  0  0  0  0  0  0  0
    9.2743  -14.6830   17.7170 N   0  0  0  0  0  0  0  0  0  0  0  0
    7.2063  -15.1818   22.1577 C   0  0  0  0  0  0  0  0  0  0  0  0
    7.0870  -14.2205   22.9764 O   0  0  0  0  0  0  0  0  0  0  0  0
    7.4276  -16.4752   22.6523 N   0  0  0  0  0  0  0  0  0  0  0  0
    7.6583  -16.7961   24.0508 C   0  0  1  0  0  0  0  0  0  0  0  0
    7.1066  -18.1723   24.3321 C   0  0  0  0  0  0  0  0  0  0  0  0
    7.2491  -18.6338   25.7374 C   0  0  0  0  0  0  0  0  0  0  0  0
    6.7728  -20.0296   25.9972 C   0  0  0  0  0  0  0  0  0  0  0  0
    6.9675  -20.3027   27.4861 C   0  0  0  0  0  0  0  0  0  0  0  0
    6.4158  -21.5868   27.8607 N   0  0  0  0  0  0  0  0  0  0  0  0
    9.1459  -16.9113   24.2251 C   0  0  0  0  0  0  0  0  0  0  0  0
    9.8206  -17.8215   23.6786 O   0  0  0  0  0  0  0  0  0  0  0  0
    9.8721  -15.9891   25.0236 N   0  0  0  0  0  0  0  0  0  0  0  0
   11.1781  -16.3341   25.5873 C   0  0  0  0  0  0  0  0  0  0  0  0
   12.2603  -16.1272   24.6193 C   0  0  0  0  0  0  0  0  0  0  0  0
   13.3585  -15.3805   25.0204 O   0  0  0  0  0  0  0  0  0  0  0  0
   12.2619  -16.5811   23.4474 O   0  0  0  0  0  0  0  0  0  0  0  0
  2  1  1  1
  2  9  1  0
  3  2  1  0
  3  4  1  0
  4  8  1  0
  4  5  2  0
  5  6  1  0
  7  6  1  0
  8  7  2  0
  9 10  2  0
 11 12  1  0
 11  9  1  0
 12 18  1  0
 13 14  1  0
 12 13  1  6
 14 15  1  0
 16 15  1  0
 16 17  1  0
 18 19  2  0
 20 18  1  0
 20 21  1  0
 22 23  1  0
 22 21  1  0
 24 22  2  0
M  END
$$$$
