HKG.pdb
     RDKit          3D

 24 24  0  0  1  0  0  0  0  0999 V2000
    8.7042  -15.5712   20.9639 N   0  0  0  0  0  0  0  0  0  0  0  0
    7.8361  -14.7539   21.7758 C   0  0  1  0  0  0  0  0  0  0  0  0
    6.6585  -14.3623   20.9177 C   0  0  0  0  0  0  0  0  0  0  0  0
    7.1220  -13.8912   19.5881 C   0  0  0  0  0  0  0  0  0  0  0  0
    7.8660  -12.7718   19.3048 C   0  0  0  0  0  0  0  0  0  0  0  0
    8.0813  -12.6952   17.9690 N   0  0  0  0  0  0  0  0  0  0  0  0
    7.4766  -13.7595   17.4158 C   0  0  0  0  0  0  0  0  0  0  0  0
    6.8913  -14.4931   18.3837 N   0  0  0  0  0  0  0  0  0  0  0  0
    7.4649  -15.3735   23.0545 C   0  0  0  0  0  0  0  0  0  0  0  0
    6.6801  -14.7182   23.8051 O   0  0  0  0  0  0  0  0  0  0  0  0
    7.9242  -16.6288   23.4786 N   0  0  0  0  0  0  0  0  0  0  0  0
    7.6451  -17.2139   24.7792 C   0  0  1  0  0  0  0  0  0  0  0  0
    7.1579  -18.6286   24.5823 C   0  0  0  0  0  0  0  0  0  0  0  0
    6.0632  -18.7862   23.5899 C   0  0  0  0  0  0  0  0  0  0  0  0
    5.6158  -20.1966   23.3588 C   0  0  0  0  0  0  0  0  0  0  0  0
    4.4614  -20.1458   22.3618 C   0  0  0  0  0  0  0  0  0  0  0  0
    3.9723  -21.4731   22.0572 N   0  0  0  0  0  0  0  0  0  0  0  0
    8.9640  -17.3333   25.4883 C   0  0  0  0  0  0  0  0  0  0  0  0
    9.0617  -17.7787   26.6607 O   0  0  0  0  0  0  0  0  0  0  0  0
   10.1787  -16.9454   24.8642 N   0  0  0  0  0  0  0  0  0  0  0  0
   11.4592  -17.0388   25.5672 C   0  0  0  0  0  0  0  0  0  0  0  0
   12.5867  -16.7063   24.6902 C   0  0  0  0  0  0  0  0  0  0  0  0
   13.8645  -16.7478   25.2289 O   0  0  0  0  0  0  0  0  0  0  0  0
   12.4755  -16.3852   23.4804 O   0  0  0  0  0  0  0  0  0  0  0  0
  2  1  1  6
  2  9  1  0
  3  2  1  0
  3  4  1  0
  4  8  1  0
  4  5  2  0
  5  6  1  0
  7  6  1  0
  8  7  2  0
  9 10  2  0
 11 12  1  0
 11  9  1  0
 12 18  1  0
 13 14  1  0
 12 13  1  6
 14 15  1  0
 16 15  1  0
 16 17  1  0
 18 19  2  0
 20 18  1  0
 20 21  1  0
 22 23  1  0
 22 21  1  0
 24 22  2  0
M  END
$$$$
