HKG.pdb
     RDKit          3D

 24 24  0  0  1  0  0  0  0  0999 V2000
    8.2735  -13.2728   21.9255 N   0  0  0  0  0  0  0  0  0  0  0  0
    8.1203  -14.7042   22.0186 C   0  0  1  0  0  0  0  0  0  0  0  0
    8.8980  -15.3127   20.8778 C   0  0  0  0  0  0  0  0  0  0  0  0
    8.3848  -14.8118   19.5776 C   0  0  0  0  0  0  0  0  0  0  0  0
    7.5046  -13.7796   19.3620 C   0  0  0  0  0  0  0  0  0  0  0  0
    7.2894  -13.6360   18.0317 N   0  0  0  0  0  0  0  0  0  0  0  0
    8.0294  -14.5720   17.4146 C   0  0  0  0  0  0  0  0  0  0  0  0
    8.6984  -15.2918   18.3376 N   0  0  0  0  0  0  0  0  0  0  0  0
    8.4650  -15.2519   23.3369 C   0  0  0  0  0  0  0  0  0  0  0  0
    9.2228  -14.5489   24.0719 O   0  0  0  0  0  0  0  0  0  0  0  0
    8.0067  -16.4880   23.8152 N   0  0  0  0  0  0  0  0  0  0  0  0
    8.3554  -17.0540   25.1074 C   0  0  1  0  0  0  0  0  0  0  0  0
    7.4439  -18.2235   25.3887 C   0  0  0  0  0  0  0  0  0  0  0  0
    7.6884  -18.9173   26.6798 C   0  0  0  0  0  0  0  0  0  0  0  0
    6.8343  -20.1233   26.9226 C   0  0  0  0  0  0  0  0  0  0  0  0
    7.1690  -20.6390   28.3195 C   0  0  0  0  0  0  0  0  0  0  0  0
    6.2690  -21.7001   28.7168 N   0  0  0  0  0  0  0  0  0  0  0  0
    9.7322  -17.6374   24.9631 C   0  0  0  0  0  0  0  0  0  0  0  0
   10.3915  -18.0615   25.9469 O   0  0  0  0  0  0  0  0  0  0  0  0
   10.3643  -17.7404   23.6961 N   0  0  0  0  0  0  0  0  0  0  0  0
   11.6444  -18.4325   23.5384 C   0  0  0  0  0  0  0  0  0  0  0  0
   12.7736  -17.4967   23.5484 C   0  0  0  0  0  0  0  0  0  0  0  0
   13.0196  -16.7860   24.7142 O   0  0  0  0  0  0  0  0  0  0  0  0
   13.5366  -17.2932   22.5709 O   0  0  0  0  0  0  0  0  0  0  0  0
  2  1  1  1
  2  9  1  0
  3  2  1  0
  3  4  1  0
  4  8  1  0
  4  5  2  0
  5  6  1  0
  7  6  1  0
  8  7  2  0
  9 10  2  0
 11 12  1  0
 11  9  1  0
 12 18  1  0
 13 14  1  0
 12 13  1  6
 14 15  1  0
 16 15  1  0
 16 17  1  0
 18 19  2  0
 20 18  1  0
 20 21  1  0
 22 23  1  0
 22 21  1  0
 24 22  2  0
M  END
$$$$
