HKG.pdb
     RDKit          3D

 24 24  0  0  1  0  0  0  0  0999 V2000
   11.0244  -15.3916   20.5370 N   0  0  0  0  0  0  0  0  0  0  0  0
    9.7122  -14.9405   20.9312 C   0  0  1  0  0  0  0  0  0  0  0  0
    8.7092  -15.6971   20.0958 C   0  0  0  0  0  0  0  0  0  0  0  0
    8.3291  -14.9031   18.9001 C   0  0  0  0  0  0  0  0  0  0  0  0
    8.7776  -13.6552   18.5416 C   0  0  0  0  0  0  0  0  0  0  0  0
    8.1901  -13.2774   17.3802 N   0  0  0  0  0  0  0  0  0  0  0  0
    7.3775  -14.2811   17.0107 C   0  0  0  0  0  0  0  0  0  0  0  0
    7.4508  -15.2727   17.9211 N   0  0  0  0  0  0  0  0  0  0  0  0
    9.4682  -15.0207   22.3772 C   0  0  0  0  0  0  0  0  0  0  0  0
   10.1674  -15.8508   23.0336 O   0  0  0  0  0  0  0  0  0  0  0  0
    8.5208  -14.2405   23.0556 N   0  0  0  0  0  0  0  0  0  0  0  0
    8.2767  -14.2976   24.4871 C   0  0  1  0  0  0  0  0  0  0  0  0
    7.3190  -13.1931   24.8622 C   0  0  0  0  0  0  0  0  0  0  0  0
    7.0077  -13.0937   26.3117 C   0  0  0  0  0  0  0  0  0  0  0  0
    6.0897  -11.9716   26.6870 C   0  0  0  0  0  0  0  0  0  0  0  0
    5.9394  -12.0005   28.2055 C   0  0  0  0  0  0  0  0  0  0  0  0
    4.9993  -10.9984   28.6591 N   0  0  0  0  0  0  0  0  0  0  0  0
    7.5391  -15.5803   24.7460 C   0  0  0  0  0  0  0  0  0  0  0  0
    6.4536  -15.8612   24.1759 O   0  0  0  0  0  0  0  0  0  0  0  0
    8.0355  -16.5497   25.6567 N   0  0  0  0  0  0  0  0  0  0  0  0
    7.3281  -17.8103   25.8869 C   0  0  0  0  0  0  0  0  0  0  0  0
    7.9512  -18.5963   26.9569 C   0  0  0  0  0  0  0  0  0  0  0  0
    7.3545  -19.7965   27.3148 O   0  0  0  0  0  0  0  0  0  0  0  0
    8.9918  -18.2569   27.5743 O   0  0  0  0  0  0  0  0  0  0  0  0
  2  1  1  1
  2  9  1  0
  3  2  1  0
  3  4  1  0
  4  8  1  0
  4  5  2  0
  5  6  1  0
  7  6  1  0
  8  7  2  0
  9 10  2  0
 11 12  1  0
 11  9  1  0
 12 18  1  0
 13 14  1  0
 12 13  1  6
 14 15  1  0
 16 15  1  0
 16 17  1  0
 18 19  2  0
 20 18  1  0
 20 21  1  0
 22 23  1  0
 22 21  1  0
 24 22  2  0
M  END
$$$$
