HKG.pdb
     RDKit          3D

 24 24  0  0  1  0  0  0  0  0999 V2000
    8.8610  -15.8868   20.6728 N   0  0  0  0  0  0  0  0  0  0  0  0
    8.1041  -14.9722   21.4923 C   0  0  1  0  0  0  0  0  0  0  0  0
    6.9658  -14.4529   20.6490 C   0  0  0  0  0  0  0  0  0  0  0  0
    7.4731  -13.9586   19.3441 C   0  0  0  0  0  0  0  0  0  0  0  0
    7.9362  -12.7009   19.0435 C   0  0  0  0  0  0  0  0  0  0  0  0
    8.3084  -12.6527   17.7412 N   0  0  0  0  0  0  0  0  0  0  0  0
    8.0809  -13.8723   17.2262 C   0  0  0  0  0  0  0  0  0  0  0  0
    7.5750  -14.6741   18.1848 N   0  0  0  0  0  0  0  0  0  0  0  0
    7.6843  -15.5397   22.7801 C   0  0  0  0  0  0  0  0  0  0  0  0
    6.9164  -14.8304   23.4984 O   0  0  0  0  0  0  0  0  0  0  0  0
    8.0808  -16.8016   23.2459 N   0  0  0  0  0  0  0  0  0  0  0  0
    7.7384  -17.3455   24.5493 C   0  0  1  0  0  0  0  0  0  0  0  0
    7.3963  -18.8071   24.3924 C   0  0  0  0  0  0  0  0  0  0  0  0
    6.0999  -19.0827   23.7205 C   0  0  0  0  0  0  0  0  0  0  0  0
    5.8336  -20.5266   23.4257 C   0  0  0  0  0  0  0  0  0  0  0  0
    4.4262  -20.6156   22.8422 C   0  0  0  0  0  0  0  0  0  0  0  0
    4.1063  -21.9705   22.4477 N   0  0  0  0  0  0  0  0  0  0  0  0
    8.9937  -17.3082   25.3735 C   0  0  0  0  0  0  0  0  0  0  0  0
   10.1191  -17.6149   24.9026 O   0  0  0  0  0  0  0  0  0  0  0  0
    8.9723  -16.9209   26.7391 N   0  0  0  0  0  0  0  0  0  0  0  0
   10.2062  -16.8139   27.5192 C   0  0  0  0  0  0  0  0  0  0  0  0
   10.4781  -18.0392   28.2779 C   0  0  0  0  0  0  0  0  0  0  0  0
   11.5664  -18.0440   29.1383 O   0  0  0  0  0  0  0  0  0  0  0  0
    9.7912  -19.0888   28.2027 O   0  0  0  0  0  0  0  0  0  0  0  0
  2  1  1  6
  2  9  1  0
  3  2  1  0
  3  4  1  0
  4  8  1  0
  4  5  2  0
  5  6  1  0
  7  6  1  0
  8  7  2  0
  9 10  2  0
 11 12  1  0
 11  9  1  0
 12 18  1  0
 13 14  1  0
 12 13  1  6
 14 15  1  0
 16 15  1  0
 16 17  1  0
 18 19  2  0
 20 18  1  0
 20 21  1  0
 22 23  1  0
 22 21  1  0
 24 22  2  0
M  END
$$$$
