HKG.pdb
     RDKit          3D

 24 24  0  0  1  0  0  0  0  0999 V2000
   10.0656  -23.7134   26.2387 N   0  0  0  0  0  0  0  0  0  0  0  0
   11.1370  -23.5409   27.1891 C   0  0  1  0  0  0  0  0  0  0  0  0
   11.9428  -22.3457   26.7431 C   0  0  0  0  0  0  0  0  0  0  0  0
   12.5178  -22.5842   25.3951 C   0  0  0  0  0  0  0  0  0  0  0  0
   13.0009  -23.7638   24.8834 C   0  0  0  0  0  0  0  0  0  0  0  0
   13.4378  -23.5644   23.6161 N   0  0  0  0  0  0  0  0  0  0  0  0
   13.2306  -22.2679   23.3326 C   0  0  0  0  0  0  0  0  0  0  0  0
   12.6740  -21.6612   24.4002 N   0  0  0  0  0  0  0  0  0  0  0  0
   10.6848  -23.4705   28.5846 C   0  0  0  0  0  0  0  0  0  0  0  0
    9.6533  -22.7714   28.8207 O   0  0  0  0  0  0  0  0  0  0  0  0
   11.3228  -24.1253   29.6481 N   0  0  0  0  0  0  0  0  0  0  0  0
   10.8147  -24.1789   31.0085 C   0  0  1  0  0  0  0  0  0  0  0  0
   10.9000  -25.6017   31.5045 C   0  0  0  0  0  0  0  0  0  0  0  0
    9.5924  -26.2625   31.7525 C   0  0  0  0  0  0  0  0  0  0  0  0
    8.7723  -26.5240   30.5270 C   0  0  0  0  0  0  0  0  0  0  0  0
    7.4672  -27.1680   30.9868 C   0  0  0  0  0  0  0  0  0  0  0  0
    6.5510  -27.3446   29.8809 N   0  0  0  0  0  0  0  0  0  0  0  0
   11.7751  -23.3947   31.8567 C   0  0  0  0  0  0  0  0  0  0  0  0
   11.6362  -23.2788   33.1016 O   0  0  0  0  0  0  0  0  0  0  0  0
   12.8991  -22.7384   31.2897 N   0  0  0  0  0  0  0  0  0  0  0  0
   13.7897  -21.9121   32.1061 C   0  0  0  0  0  0  0  0  0  0  0  0
   13.8683  -20.5366   31.6033 C   0  0  0  0  0  0  0  0  0  0  0  0
   14.7119  -19.6514   32.2586 O   0  0  0  0  0  0  0  0  0  0  0  0
   13.2224  -20.1025   30.6166 O   0  0  0  0  0  0  0  0  0  0  0  0
  2  1  1  6
  2  9  1  0
  3  2  1  0
  3  4  1  0
  4  8  1  0
  4  5  2  0
  5  6  1  0
  7  6  1  0
  8  7  2  0
  9 10  2  0
 11 12  1  0
 11  9  1  0
 12 18  1  0
 13 14  1  0
 12 13  1  1
 14 15  1  0
 16 15  1  0
 16 17  1  0
 18 19  2  0
 20 18  1  0
 20 21  1  0
 22 23  1  0
 22 21  1  0
 24 22  2  0
M  END
$$$$
