NGV.pdb
     RDKit          3D

 20 19  0  0  1  0  0  0  0  0999 V2000
   21.5538  -19.7665  -12.7520 N   0  0  0  0  0  0  0  0  0  0  0  0
   22.7423  -20.5238  -12.9486 C   0  0  0  0  0  0  0  0  0  0  0  0
   22.7132  -21.6265  -13.5560 O   0  0  0  0  0  0  0  0  0  0  0  0
   24.0104  -19.9876  -12.4244 C   0  0  0  0  0  0  0  0  0  0  0  0
   24.7821  -21.0638  -11.6748 C   0  0  2  0  0  0  0  0  0  0  0  0
   23.9384  -21.5309  -10.6144 N   0  0  0  0  0  0  0  0  0  0  0  0
   26.0351  -20.4716  -11.1050 C   0  0  0  0  0  0  0  0  0  0  0  0
   26.9525  -20.0657  -11.8746 O   0  0  0  0  0  0  0  0  0  0  0  0
   26.1909  -20.3670   -9.7067 N   0  0  0  0  0  0  0  0  0  0  0  0
   27.3105  -19.7396   -9.0633 C   0  0  0  0  0  0  0  0  0  0  0  0
   27.4096  -20.1750   -7.6695 C   0  0  0  0  0  0  0  0  0  0  0  0
   26.4669  -20.9292   -7.2533 O   0  0  0  0  0  0  0  0  0  0  0  0
   30.0740  -18.7294   -4.5463 C   0  0  0  0  0  0  0  0  0  0  0  0
   29.7716  -20.1878   -4.7692 C   0  0  2  0  0  0  0  0  0  0  0  0
   30.8138  -20.8324   -5.6377 C   0  0  0  0  0  0  0  0  0  0  0  0
   28.4015  -20.3417   -5.4252 C   0  0  2  0  0  0  0  0  0  0  0  0
   28.4564  -19.8172   -6.7813 N   0  0  0  0  0  0  0  0  0  0  0  0
   27.3630  -19.6167   -4.6407 C   0  0  0  0  0  0  0  0  0  0  0  0
   26.8712  -20.1812   -3.4724 O   0  0  0  0  0  0  0  0  0  0  0  0
   26.8958  -18.4996   -4.9819 O   0  0  0  0  0  0  0  0  0  0  0  0
  1  2  1  0
  2  3  2  0
  4  2  1  0
  4  5  1  0
  5  6  1  1
  7  5  1  0
  8  7  2  0
  9  7  1  0
 10  9  1  0
 11 17  1  0
 11 10  1  0
 12 11  2  0
 14 13  1  6
 14 15  1  0
 16 17  1  6
 16 14  1  0
 18 16  1  0
 19 18  1  0
 20 18  2  0
M  END
$$$$
