NGV.pdb
     RDKit          3D

 20 19  0  0  1  0  0  0  0  0999 V2000
   15.3878  -13.8493  -14.8797 N   0  0  0  0  0  0  0  0  0  0  0  0
   15.6550  -12.4518  -14.8737 C   0  0  0  0  0  0  0  0  0  0  0  0
   15.1264  -11.6888  -15.7246 O   0  0  0  0  0  0  0  0  0  0  0  0
   16.5661  -11.9163  -13.8472 C   0  0  0  0  0  0  0  0  0  0  0  0
   16.5813  -10.3950  -13.8803 C   0  0  2  0  0  0  0  0  0  0  0  0
   17.8449   -9.9946  -14.4260 N   0  0  0  0  0  0  0  0  0  0  0  0
   16.4386   -9.8658  -12.4857 C   0  0  0  0  0  0  0  0  0  0  0  0
   15.4151  -10.1508  -11.8002 O   0  0  0  0  0  0  0  0  0  0  0  0
   17.4486   -9.0478  -11.9370 N   0  0  0  0  0  0  0  0  0  0  0  0
   17.4531   -8.5675  -10.5840 C   0  0  0  0  0  0  0  0  0  0  0  0
   16.4418   -7.5243  -10.4080 C   0  0  0  0  0  0  0  0  0  0  0  0
   15.9271   -7.0610  -11.4809 O   0  0  0  0  0  0  0  0  0  0  0  0
   14.7866   -6.2538   -6.6861 C   0  0  0  0  0  0  0  0  0  0  0  0
   14.0084   -6.3116   -7.9742 C   0  0  2  0  0  0  0  0  0  0  0  0
   13.3559   -7.6522   -8.1552 C   0  0  0  0  0  0  0  0  0  0  0  0
   14.9355   -6.0371   -9.1560 C   0  0  2  0  0  0  0  0  0  0  0  0
   16.0159   -7.0117   -9.1556 N   0  0  0  0  0  0  0  0  0  0  0  0
   15.4937   -4.6584   -9.0720 C   0  0  0  0  0  0  0  0  0  0  0  0
   14.7140   -3.5804   -9.4663 O   0  0  0  0  0  0  0  0  0  0  0  0
   16.6543   -4.4084   -8.6562 O   0  0  0  0  0  0  0  0  0  0  0  0
  1  2  1  0
  2  3  2  0
  4  2  1  0
  4  5  1  0
  5  6  1  1
  7  5  1  0
  8  7  2  0
  9  7  1  0
 10  9  1  0
 11 17  1  0
 11 10  1  0
 12 11  2  0
 14 13  1  1
 14 15  1  0
 16 17  1  1
 16 14  1  0
 18 16  1  0
 19 18  1  0
 20 18  2  0
M  END
$$$$
