NGV.pdb
     RDKit          3D

 20 19  0  0  1  0  0  0  0  0999 V2000
   14.0841  -25.7693   -3.6234 N   0  0  0  0  0  0  0  0  0  0  0  0
   15.2553  -25.0518   -3.9949 C   0  0  0  0  0  0  0  0  0  0  0  0
   15.9083  -25.3685   -5.0240 O   0  0  0  0  0  0  0  0  0  0  0  0
   15.6877  -23.9274   -3.1467 C   0  0  0  0  0  0  0  0  0  0  0  0
   14.6967  -23.6929   -2.0159 C   0  0  2  0  0  0  0  0  0  0  0  0
   13.5927  -22.9608   -2.5635 N   0  0  0  0  0  0  0  0  0  0  0  0
   15.3553  -22.8889   -0.9364 C   0  0  0  0  0  0  0  0  0  0  0  0
   16.2566  -23.4085   -0.2180 O   0  0  0  0  0  0  0  0  0  0  0  0
   14.9682  -21.5493   -0.7217 N   0  0  0  0  0  0  0  0  0  0  0  0
   15.5922  -20.6701    0.2263 C   0  0  0  0  0  0  0  0  0  0  0  0
   15.0756  -20.9197    1.5727 C   0  0  0  0  0  0  0  0  0  0  0  0
   14.1092  -21.7505    1.6532 O   0  0  0  0  0  0  0  0  0  0  0  0
   16.8561  -19.5876    5.1837 C   0  0  0  0  0  0  0  0  0  0  0  0
   16.0654  -20.8643    5.0706 C   0  0  2  0  0  0  0  0  0  0  0  0
   16.9491  -22.0197    4.6963 C   0  0  0  0  0  0  0  0  0  0  0  0
   14.9682  -20.7065    4.0205 C   0  0  2  0  0  0  0  0  0  0  0  0
   15.5675  -20.3096    2.7553 N   0  0  0  0  0  0  0  0  0  0  0  0
   13.9732  -19.6862    4.4547 C   0  0  0  0  0  0  0  0  0  0  0  0
   13.0479  -20.0090    5.4371 O   0  0  0  0  0  0  0  0  0  0  0  0
   13.9211  -18.5252    3.9733 O   0  0  0  0  0  0  0  0  0  0  0  0
  1  2  1  0
  2  3  2  0
  4  2  1  0
  4  5  1  0
  5  6  1  6
  7  5  1  0
  8  7  2  0
  9  7  1  0
 10  9  1  0
 11 17  1  0
 11 10  1  0
 12 11  2  0
 14 13  1  6
 14 15  1  0
 16 17  1  6
 16 14  1  0
 18 16  1  0
 19 18  1  0
 20 18  2  0
M  END
$$$$
