NGV.pdb
     RDKit          3D

 20 19  0  0  1  0  0  0  0  0999 V2000
   20.7540  -20.4527  -14.9487 N   0  0  0  0  0  0  0  0  0  0  0  0
   21.3980  -20.0478  -16.1512 C   0  0  0  0  0  0  0  0  0  0  0  0
   21.0225  -20.4937  -17.2673 O   0  0  0  0  0  0  0  0  0  0  0  0
   22.5164  -19.0931  -16.0607 C   0  0  0  0  0  0  0  0  0  0  0  0
   23.8077  -19.7265  -16.5579 C   0  0  2  0  0  0  0  0  0  0  0  0
   23.5212  -21.0998  -16.8523 N   0  0  0  0  0  0  0  0  0  0  0  0
   24.8486  -19.6428  -15.4832 C   0  0  0  0  0  0  0  0  0  0  0  0
   25.1535  -18.5235  -14.9805 O   0  0  0  0  0  0  0  0  0  0  0  0
   25.4894  -20.8159  -15.0318 N   0  0  0  0  0  0  0  0  0  0  0  0
   26.4792  -20.8468  -13.9924 C   0  0  0  0  0  0  0  0  0  0  0  0
   25.8690  -21.2199  -12.7156 C   0  0  0  0  0  0  0  0  0  0  0  0
   24.9377  -22.0916  -12.7770 O   0  0  0  0  0  0  0  0  0  0  0  0
   25.4647  -21.1899   -7.8112 C   0  0  0  0  0  0  0  0  0  0  0  0
   26.1990  -20.6782   -9.0224 C   0  0  2  0  0  0  0  0  0  0  0  0
   26.3250  -19.1818   -8.9896 C   0  0  0  0  0  0  0  0  0  0  0  0
   25.4626  -21.0955  -10.2932 C   0  0  2  0  0  0  0  0  0  0  0  0
   26.2373  -20.6847  -11.4544 N   0  0  0  0  0  0  0  0  0  0  0  0
   24.1087  -20.4756  -10.3392 C   0  0  0  0  0  0  0  0  0  0  0  0
   23.0794  -21.0259   -9.5889 O   0  0  0  0  0  0  0  0  0  0  0  0
   23.8378  -19.4615  -11.0326 O   0  0  0  0  0  0  0  0  0  0  0  0
  1  2  1  0
  2  3  2  0
  4  2  1  0
  4  5  1  0
  5  6  1  1
  7  5  1  0
  8  7  2  0
  9  7  1  0
 10  9  1  0
 11 17  1  0
 11 10  1  0
 12 11  2  0
 14 13  1  1
 14 15  1  0
 16 17  1  6
 16 14  1  0
 18 16  1  0
 19 18  1  0
 20 18  2  0
M  END
$$$$
