NGV.pdb
     RDKit          3D

 20 19  0  0  1  0  0  0  0  0999 V2000
   19.3456  -12.6287  -16.8072 N   0  0  0  0  0  0  0  0  0  0  0  0
   18.2518  -12.1753  -16.0181 C   0  0  0  0  0  0  0  0  0  0  0  0
   17.1408  -12.7669  -16.0526 O   0  0  0  0  0  0  0  0  0  0  0  0
   18.4490  -10.9956  -15.1580 C   0  0  0  0  0  0  0  0  0  0  0  0
   17.2584  -10.7992  -14.2308 C   0  0  2  0  0  0  0  0  0  0  0  0
   16.2259  -10.1622  -14.9943 N   0  0  0  0  0  0  0  0  0  0  0  0
   17.6598   -9.9206  -13.0852 C   0  0  0  0  0  0  0  0  0  0  0  0
   18.4723  -10.3448  -12.2142 O   0  0  0  0  0  0  0  0  0  0  0  0
   17.1297   -8.6175  -12.9787 N   0  0  0  0  0  0  0  0  0  0  0  0
   17.4744   -7.6874  -11.9409 C   0  0  0  0  0  0  0  0  0  0  0  0
   16.2674   -7.0933  -11.3646 C   0  0  0  0  0  0  0  0  0  0  0  0
   15.3393   -6.8037  -12.1926 O   0  0  0  0  0  0  0  0  0  0  0  0
   15.3005   -6.9270   -7.2644 C   0  0  0  0  0  0  0  0  0  0  0  0
   14.2671   -6.8918   -8.3593 C   0  0  2  0  0  0  0  0  0  0  0  0
   13.8336   -8.2779   -8.7423 C   0  0  0  0  0  0  0  0  0  0  0  0
   14.8327   -6.1819   -9.5871 C   0  0  2  0  0  0  0  0  0  0  0  0
   16.0754   -6.8259   -9.9846 N   0  0  0  0  0  0  0  0  0  0  0  0
   15.0773   -4.7424   -9.2911 C   0  0  0  0  0  0  0  0  0  0  0  0
   16.3795   -4.2878   -9.1392 O   0  0  0  0  0  0  0  0  0  0  0  0
   14.1539   -3.8970   -9.1680 O   0  0  0  0  0  0  0  0  0  0  0  0
  1  2  1  0
  2  3  2  0
  4  2  1  0
  4  5  1  0
  5  6  1  6
  7  5  1  0
  8  7  2  0
  9  7  1  0
 10  9  1  0
 11 17  1  0
 11 10  1  0
 12 11  2  0
 14 13  1  1
 14 15  1  0
 16 17  1  1
 16 14  1  0
 18 16  1  0
 19 18  1  0
 20 18  2  0
M  END
$$$$
