NGV.pdb
     RDKit          3D

 20 19  0  0  1  0  0  0  0  0999 V2000
   14.1649  -13.1347  -16.4352 N   0  0  0  0  0  0  0  0  0  0  0  0
   15.0923  -12.1746  -16.9279 C   0  0  0  0  0  0  0  0  0  0  0  0
   15.7654  -12.4004  -17.9678 O   0  0  0  0  0  0  0  0  0  0  0  0
   15.2475  -10.9077  -16.1922 C   0  0  0  0  0  0  0  0  0  0  0  0
   16.6470  -10.7928  -15.6056 C   0  0  2  0  0  0  0  0  0  0  0  0
   16.5960  -11.3284  -14.2770 N   0  0  0  0  0  0  0  0  0  0  0  0
   17.0492   -9.3501  -15.5576 C   0  0  0  0  0  0  0  0  0  0  0  0
   17.4300   -8.7619  -16.6100 O   0  0  0  0  0  0  0  0  0  0  0  0
   17.0025   -8.6471  -14.3353 N   0  0  0  0  0  0  0  0  0  0  0  0
   17.3152   -7.2533  -14.1925 C   0  0  0  0  0  0  0  0  0  0  0  0
   18.7269   -7.0782  -13.8486 C   0  0  0  0  0  0  0  0  0  0  0  0
   19.0737   -7.4921  -12.6913 O   0  0  0  0  0  0  0  0  0  0  0  0
   21.6368   -8.4061  -15.5877 C   0  0  0  0  0  0  0  0  0  0  0  0
   22.0135   -6.9836  -15.2673 C   0  0  2  0  0  0  0  0  0  0  0  0
   23.4281   -6.8948  -14.7702 C   0  0  0  0  0  0  0  0  0  0  0  0
   21.0693   -6.4204  -14.2077 C   0  0  2  0  0  0  0  0  0  0  0  0
   19.7009   -6.4913  -14.6970 N   0  0  0  0  0  0  0  0  0  0  0  0
   21.4239   -5.0087  -13.8902 C   0  0  0  0  0  0  0  0  0  0  0  0
   22.4079   -4.7467  -12.9476 O   0  0  0  0  0  0  0  0  0  0  0  0
   20.8724   -4.0193  -14.4376 O   0  0  0  0  0  0  0  0  0  0  0  0
  1  2  1  0
  2  3  2  0
  4  2  1  0
  4  5  1  0
  5  6  1  1
  7  5  1  0
  8  7  2  0
  9  7  1  0
 10  9  1  0
 11 17  1  0
 11 10  1  0
 12 11  2  0
 14 13  1  1
 14 15  1  0
 16 17  1  6
 16 14  1  0
 18 16  1  0
 19 18  1  0
 20 18  2  0
M  END
$$$$
