NGV.pdb
     RDKit          3D

 20 19  0  0  1  0  0  0  0  0999 V2000
   20.1462  -21.4902  -15.9258 N   0  0  0  0  0  0  0  0  0  0  0  0
   20.9567  -20.3318  -15.7652 C   0  0  0  0  0  0  0  0  0  0  0  0
   20.8845  -19.3743  -16.5798 O   0  0  0  0  0  0  0  0  0  0  0  0
   21.8842  -20.2777  -14.6218 C   0  0  0  0  0  0  0  0  0  0  0  0
   23.3100  -20.5639  -15.0701 C   0  0  2  0  0  0  0  0  0  0  0  0
   23.5057  -21.9813  -14.9851 N   0  0  0  0  0  0  0  0  0  0  0  0
   24.2687  -19.8621  -14.1569 C   0  0  0  0  0  0  0  0  0  0  0  0
   24.2251  -18.6043  -14.0362 O   0  0  0  0  0  0  0  0  0  0  0  0
   25.2217  -20.6070  -13.4308 N   0  0  0  0  0  0  0  0  0  0  0  0
   26.1542  -20.0367  -12.5000 C   0  0  0  0  0  0  0  0  0  0  0  0
   26.0525  -20.7027  -11.2008 C   0  0  0  0  0  0  0  0  0  0  0  0
   25.8054  -21.9552  -11.2348 O   0  0  0  0  0  0  0  0  0  0  0  0
   26.5007  -18.9320   -7.2573 C   0  0  0  0  0  0  0  0  0  0  0  0
   27.0311  -20.2799   -7.6693 C   0  0  2  0  0  0  0  0  0  0  0  0
   28.4366  -20.1753   -8.1887 C   0  0  0  0  0  0  0  0  0  0  0  0
   26.1368  -20.8839   -8.7496 C   0  0  2  0  0  0  0  0  0  0  0  0
   26.2041  -20.0585   -9.9459 N   0  0  0  0  0  0  0  0  0  0  0  0
   24.7287  -20.9734   -8.2714 C   0  0  0  0  0  0  0  0  0  0  0  0
   24.4094  -21.8543   -7.2479 O   0  0  0  0  0  0  0  0  0  0  0  0
   23.7925  -20.2831   -8.7505 O   0  0  0  0  0  0  0  0  0  0  0  0
  1  2  1  0
  2  3  2  0
  4  2  1  0
  4  5  1  0
  5  6  1  1
  7  5  1  0
  8  7  2  0
  9  7  1  0
 10  9  1  0
 11 17  1  0
 11 10  1  0
 12 11  2  0
 14 13  1  6
 14 15  1  0
 16 17  1  6
 16 14  1  0
 18 16  1  0
 19 18  1  0
 20 18  2  0
M  END
$$$$
