NGV.pdb
     RDKit          3D

 20 19  0  0  1  0  0  0  0  0999 V2000
   21.8780  -13.0197  -16.5008 N   0  0  0  0  0  0  0  0  0  0  0  0
   21.8952  -12.7316  -17.8941 C   0  0  0  0  0  0  0  0  0  0  0  0
   21.5910  -13.6131  -18.7403 O   0  0  0  0  0  0  0  0  0  0  0  0
   22.2778  -11.3758  -18.3253 C   0  0  0  0  0  0  0  0  0  0  0  0
   22.2585  -10.4104  -17.1492 C   0  0  2  0  0  0  0  0  0  0  0  0
   20.8886  -10.0677  -16.9032 N   0  0  0  0  0  0  0  0  0  0  0  0
   23.0353   -9.1790  -17.5038 C   0  0  0  0  0  0  0  0  0  0  0  0
   24.2994   -9.2069  -17.5145 O   0  0  0  0  0  0  0  0  0  0  0  0
   22.3543   -7.9863  -17.8263 N   0  0  0  0  0  0  0  0  0  0  0  0
   23.0026   -6.7374  -18.1110 C   0  0  0  0  0  0  0  0  0  0  0  0
   22.6740   -5.7450  -17.0868 C   0  0  0  0  0  0  0  0  0  0  0  0
   23.1082   -4.5627  -17.2973 O   0  0  0  0  0  0  0  0  0  0  0  0
   19.5127   -6.0256  -14.2388 C   0  0  0  0  0  0  0  0  0  0  0  0
   20.0285   -4.8161  -14.9731 C   0  0  2  0  0  0  0  0  0  0  0  0
   19.4390   -4.7248  -16.3516 C   0  0  0  0  0  0  0  0  0  0  0  0
   21.5505   -4.8797  -15.0775 C   0  0  2  0  0  0  0  0  0  0  0  0
   21.9282   -6.0118  -15.9098 N   0  0  0  0  0  0  0  0  0  0  0  0
   22.1610   -5.0158  -13.7254 C   0  0  0  0  0  0  0  0  0  0  0  0
   22.7475   -6.2186  -13.3584 O   0  0  0  0  0  0  0  0  0  0  0  0
   22.1766   -4.0853  -12.8789 O   0  0  0  0  0  0  0  0  0  0  0  0
  1  2  1  0
  2  3  2  0
  4  2  1  0
  4  5  1  0
  5  6  1  6
  7  5  1  0
  8  7  2  0
  9  7  1  0
 10  9  1  0
 11 17  1  0
 11 10  1  0
 12 11  2  0
 14 13  1  6
 14 15  1  0
 16 17  1  6
 16 14  1  0
 18 16  1  0
 19 18  1  0
 20 18  2  0
M  END
$$$$
