NGV.pdb
     RDKit          3D

 20 19  0  0  1  0  0  0  0  0999 V2000
   23.2729  -23.8912  -13.7313 N   0  0  0  0  0  0  0  0  0  0  0  0
   23.7950  -22.5875  -13.9605 C   0  0  0  0  0  0  0  0  0  0  0  0
   24.2198  -22.2519  -15.0974 O   0  0  0  0  0  0  0  0  0  0  0  0
   23.8275  -21.6372  -12.8352 C   0  0  0  0  0  0  0  0  0  0  0  0
   25.2497  -21.1662  -12.5680 C   0  0  2  0  0  0  0  0  0  0  0  0
   26.0367  -22.3304  -12.2854 N   0  0  0  0  0  0  0  0  0  0  0  0
   25.2553  -20.2483  -11.3836 C   0  0  0  0  0  0  0  0  0  0  0  0
   24.3563  -19.3681  -11.2583 O   0  0  0  0  0  0  0  0  0  0  0  0
   26.2661  -20.3669  -10.4066 N   0  0  0  0  0  0  0  0  0  0  0  0
   26.4654  -19.4348   -9.3330 C   0  0  0  0  0  0  0  0  0  0  0  0
   26.9112  -20.1322   -8.1260 C   0  0  0  0  0  0  0  0  0  0  0  0
   26.8998  -21.4078   -8.1835 O   0  0  0  0  0  0  0  0  0  0  0  0
   28.3561  -18.3908   -4.4030 C   0  0  0  0  0  0  0  0  0  0  0  0
   28.9483  -19.5805   -5.1116 C   0  0  2  0  0  0  0  0  0  0  0  0
   30.0181  -19.1601   -6.0784 C   0  0  0  0  0  0  0  0  0  0  0  0
   27.8555  -20.3359   -5.8643 C   0  0  2  0  0  0  0  0  0  0  0  0
   27.3385  -19.4945   -6.9329 N   0  0  0  0  0  0  0  0  0  0  0  0
   26.7526  -20.7178   -4.9383 C   0  0  0  0  0  0  0  0  0  0  0  0
   26.9858  -21.6660   -3.9524 O   0  0  0  0  0  0  0  0  0  0  0  0
   25.5984  -20.2212   -4.9986 O   0  0  0  0  0  0  0  0  0  0  0  0
  1  2  1  0
  2  3  2  0
  4  2  1  0
  4  5  1  0
  5  6  1  1
  7  5  1  0
  8  7  2  0
  9  7  1  0
 10  9  1  0
 11 17  1  0
 11 10  1  0
 12 11  2  0
 14 13  1  6
 14 15  1  0
 16 17  1  6
 16 14  1  0
 18 16  1  0
 19 18  1  0
 20 18  2  0
M  END
$$$$
