NGV.pdb
     RDKit          3D

 20 19  0  0  1  0  0  0  0  0999 V2000
   25.4150  -16.9150  -21.2345 N   0  0  0  0  0  0  0  0  0  0  0  0
   25.6703  -16.5224  -19.8909 C   0  0  0  0  0  0  0  0  0  0  0  0
   26.4778  -15.5916  -19.6316 O   0  0  0  0  0  0  0  0  0  0  0  0
   24.9670  -17.2310  -18.8075 C   0  0  0  0  0  0  0  0  0  0  0  0
   25.8901  -17.4486  -17.6173 C   0  0  2  0  0  0  0  0  0  0  0  0
   26.6932  -18.5999  -17.9076 N   0  0  0  0  0  0  0  0  0  0  0  0
   25.0681  -17.6980  -16.3895 C   0  0  0  0  0  0  0  0  0  0  0  0
   24.4942  -16.7357  -15.8035 O   0  0  0  0  0  0  0  0  0  0  0  0
   24.9346  -19.0094  -15.8868 N   0  0  0  0  0  0  0  0  0  0  0  0
   24.1195  -19.3633  -14.7592 C   0  0  0  0  0  0  0  0  0  0  0  0
   24.7932  -20.3687  -13.9362 C   0  0  0  0  0  0  0  0  0  0  0  0
   25.1921  -21.4148  -14.5504 O   0  0  0  0  0  0  0  0  0  0  0  0
   24.7083  -20.5656   -9.6510 C   0  0  0  0  0  0  0  0  0  0  0  0
   25.9170  -21.0331  -10.4183 C   0  0  2  0  0  0  0  0  0  0  0  0
   26.9685  -19.9624  -10.4809 C   0  0  0  0  0  0  0  0  0  0  0  0
   25.5130  -21.4282  -11.8368 C   0  0  2  0  0  0  0  0  0  0  0  0
   25.0189  -20.2543  -12.5403 N   0  0  0  0  0  0  0  0  0  0  0  0
   24.4612  -22.4829  -11.8052 C   0  0  0  0  0  0  0  0  0  0  0  0
   24.8182  -23.7958  -11.5330 O   0  0  0  0  0  0  0  0  0  0  0  0
   23.2432  -22.2486  -12.0150 O   0  0  0  0  0  0  0  0  0  0  0  0
  1  2  1  0
  2  3  2  0
  4  2  1  0
  4  5  1  0
  5  6  1  6
  7  5  1  0
  8  7  2  0
  9  7  1  0
 10  9  1  0
 11 17  1  0
 11 10  1  0
 12 11  2  0
 14 13  1  1
 14 15  1  0
 16 17  1  1
 16 14  1  0
 18 16  1  0
 19 18  1  0
 20 18  2  0
M  END
$$$$
