YME.pdb
     RDKit          3D

 30 30  0  0  1  0  0  0  0  0999 V2000
    6.2674  -12.5920   17.0984 O   0  0  0  0  0  0  0  0  0  0  0  0
    7.2707  -13.3223   17.7582 C   0  0  0  0  0  0  0  0  0  0  0  0
    8.0450  -12.7424   18.7469 C   0  0  0  0  0  0  0  0  0  0  0  0
    9.0434  -13.4284   19.4208 C   0  0  0  0  0  0  0  0  0  0  0  0
    9.2869  -14.7569   19.0981 C   0  0  0  0  0  0  0  0  0  0  0  0
   10.3297  -15.5040   19.7950 C   0  0  0  0  0  0  0  0  0  0  0  0
    9.8564  -16.2233   21.0477 C   0  0  2  0  0  0  0  0  0  0  0  0
    8.5090  -16.7733   20.8177 N   0  0  0  0  0  0  0  0  0  0  0  0
    9.7672  -15.3694   22.2318 C   0  0  0  0  0  0  0  0  0  0  0  0
   10.6722  -14.5134   22.5169 O   0  0  0  0  0  0  0  0  0  0  0  0
    8.5181  -15.3336   18.1161 C   0  0  0  0  0  0  0  0  0  0  0  0
    7.5216  -14.6408   17.4468 C   0  0  0  0  0  0  0  0  0  0  0  0
    7.0001  -10.9397   26.6633 C   0  0  0  0  0  0  0  0  0  0  0  0
    6.3279  -12.6042   26.5368 S   0  0  0  0  0  0  0  0  0  0  0  0
    7.6852  -13.8411   26.4001 C   0  0  0  0  0  0  0  0  0  0  0  0
    7.7797  -14.2071   24.9664 C   0  0  0  0  0  0  0  0  0  0  0  0
    8.8992  -15.1658   24.6091 C   0  0  2  0  0  0  0  0  0  0  0  0
    8.6813  -15.4085   23.1610 N   0  0  0  0  0  0  0  0  0  0  0  0
    8.7859  -16.4752   25.2766 C   0  0  0  0  0  0  0  0  0  0  0  0
    8.1107  -17.4357   24.7525 O   0  0  0  0  0  0  0  0  0  0  0  0
    9.4272  -16.7251   26.5284 N   0  0  0  0  0  0  0  0  0  0  0  0
    9.8671  -18.0951   26.8399 C   0  0  1  0  0  0  0  0  0  0  0  0
   10.7760  -18.5893   25.7437 C   0  0  0  0  0  0  0  0  0  0  0  0
   12.1825  -18.1153   25.9619 C   0  0  0  0  0  0  0  0  0  0  0  0
   13.0322  -18.6858   24.8811 C   0  0  0  0  0  0  0  0  0  0  0  0
   13.0994  -19.9303   24.7798 O   0  0  0  0  0  0  0  0  0  0  0  0
   10.4573  -18.1567   28.1917 C   0  0  0  0  0  0  0  0  0  0  0  0
   10.8362  -19.2101   28.7643 O   0  0  0  0  0  0  0  0  0  0  0  0
   13.7081  -17.8358   24.0382 O   0  0  0  0  0  0  0  0  0  0  0  0
   10.6485  -16.9935   28.9724 O   0  0  0  0  0  0  0  0  0  0  0  0
  2  1  1  0
  3  2  2  0
  4  3  1  0
  5  4  2  0
  5 11  1  0
  6  5  1  0
  7  9  1  0
  7  6  1  0
  7  8  1  6
  9 10  2  0
 11 12  2  0
 12  2  1  0
 14 13  1  0
 15 14  1  0
 16 15  1  0
 17 16  1  1
 17 19  1  0
 18 17  1  0
 18  9  1  0
 19 20  2  0
 21 22  1  0
 21 19  1  0
 22 27  1  0
 22 23  1  6
 24 23  1  0
 24 25  1  0
 25 26  2  0
 27 28  2  0
 27 30  1  0
 29 25  1  0
M  END
$$$$
