YME.pdb
     RDKit          3D

 30 30  0  0  1  0  0  0  0  0999 V2000
    7.3450  -19.4266   15.0707 O   0  0  0  0  0  0  0  0  0  0  0  0
    7.6770  -18.9335   16.3443 C   0  0  0  0  0  0  0  0  0  0  0  0
    8.9748  -18.5694   16.6547 C   0  0  0  0  0  0  0  0  0  0  0  0
    9.3425  -18.0792   17.8981 C   0  0  0  0  0  0  0  0  0  0  0  0
    8.3743  -17.9430   18.8842 C   0  0  0  0  0  0  0  0  0  0  0  0
    8.7334  -17.4256   20.2012 C   0  0  0  0  0  0  0  0  0  0  0  0
    8.5128  -15.9311   20.3702 C   0  0  2  0  0  0  0  0  0  0  0  0
    9.4105  -15.1971   19.4612 N   0  0  0  0  0  0  0  0  0  0  0  0
    8.7805  -15.4344   21.7197 C   0  0  0  0  0  0  0  0  0  0  0  0
    9.9348  -15.0097   22.0663 O   0  0  0  0  0  0  0  0  0  0  0  0
    7.0849  -18.3046   18.5766 C   0  0  0  0  0  0  0  0  0  0  0  0
    6.7253  -18.7941   17.3308 C   0  0  0  0  0  0  0  0  0  0  0  0
    7.6055  -11.6526   27.7191 C   0  0  0  0  0  0  0  0  0  0  0  0
    7.6495  -12.3688   26.0687 S   0  0  0  0  0  0  0  0  0  0  0  0
    6.7038  -13.9481   26.0237 C   0  0  0  0  0  0  0  0  0  0  0  0
    6.7335  -14.4177   24.6177 C   0  0  0  0  0  0  0  0  0  0  0  0
    8.1052  -14.7707   24.0755 C   0  0  2  0  0  0  0  0  0  0  0  0
    7.7968  -15.3757   22.7555 N   0  0  0  0  0  0  0  0  0  0  0  0
    8.7980  -15.8075   24.8616 C   0  0  0  0  0  0  0  0  0  0  0  0
    8.1769  -16.8502   25.2860 O   0  0  0  0  0  0  0  0  0  0  0  0
   10.1868  -15.6926   25.1758 N   0  0  0  0  0  0  0  0  0  0  0  0
   10.8206  -16.7446   25.9877 C   0  0  1  0  0  0  0  0  0  0  0  0
   12.2997  -16.7751   25.6993 C   0  0  0  0  0  0  0  0  0  0  0  0
   12.5554  -16.7934   24.2212 C   0  0  0  0  0  0  0  0  0  0  0  0
   14.0243  -16.9097   24.0108 C   0  0  0  0  0  0  0  0  0  0  0  0
   14.7324  -15.9029   24.2310 O   0  0  0  0  0  0  0  0  0  0  0  0
   10.4837  -16.5736   27.4149 C   0  0  0  0  0  0  0  0  0  0  0  0
   10.4418  -17.5027   28.2609 O   0  0  0  0  0  0  0  0  0  0  0  0
   14.5496  -18.1070   23.5860 O   0  0  0  0  0  0  0  0  0  0  0  0
   10.1722  -15.3057   27.9576 O   0  0  0  0  0  0  0  0  0  0  0  0
  2  1  1  0
  3  2  2  0
  4  3  1  0
  5  4  2  0
  5 11  1  0
  6  5  1  0
  7  9  1  0
  7  6  1  0
  7  8  1  6
  9 10  2  0
 11 12  2  0
 12  2  1  0
 14 13  1  0
 15 14  1  0
 16 15  1  0
 17 16  1  1
 17 19  1  0
 18 17  1  0
 18  9  1  0
 19 20  2  0
 21 22  1  0
 21 19  1  0
 22 27  1  0
 22 23  1  1
 24 23  1  0
 24 25  1  0
 25 26  2  0
 27 28  2  0
 27 30  1  0
 29 25  1  0
M  END
$$$$
