YME.pdb
     RDKit          3D

 30 30  0  0  1  0  0  0  0  0999 V2000
   10.1389  -21.1374   30.7187 O   0  0  0  0  0  0  0  0  0  0  0  0
    9.7185  -20.7446   29.4364 C   0  0  0  0  0  0  0  0  0  0  0  0
    8.8897  -19.6516   29.2585 C   0  0  0  0  0  0  0  0  0  0  0  0
    8.4533  -19.2325   28.0114 C   0  0  0  0  0  0  0  0  0  0  0  0
    8.8592  -19.9325   26.8828 C   0  0  0  0  0  0  0  0  0  0  0  0
    8.4177  -19.5103   25.5569 C   0  0  0  0  0  0  0  0  0  0  0  0
    6.9752  -19.0344   25.4975 C   0  0  2  0  0  0  0  0  0  0  0  0
    6.1557  -20.0396   24.7983 N   0  0  0  0  0  0  0  0  0  0  0  0
    6.7899  -17.7699   24.7861 C   0  0  0  0  0  0  0  0  0  0  0  0
    6.6392  -17.7243   23.5180 O   0  0  0  0  0  0  0  0  0  0  0  0
    9.6825  -21.0184   27.0588 C   0  0  0  0  0  0  0  0  0  0  0  0
   10.1145  -21.4313   28.3093 C   0  0  0  0  0  0  0  0  0  0  0  0
    6.7047   -9.9464   26.1797 C   0  0  0  0  0  0  0  0  0  0  0  0
    6.2713  -11.6591   26.5225 S   0  0  0  0  0  0  0  0  0  0  0  0
    6.9559  -12.7716   25.2248 C   0  0  0  0  0  0  0  0  0  0  0  0
    6.6482  -14.1577   25.6520 C   0  0  0  0  0  0  0  0  0  0  0  0
    7.0532  -15.2470   24.6777 C   0  0  2  0  0  0  0  0  0  0  0  0
    6.7578  -16.4930   25.4283 N   0  0  0  0  0  0  0  0  0  0  0  0
    8.4979  -15.2651   24.3850 C   0  0  0  0  0  0  0  0  0  0  0  0
    9.3658  -15.4436   25.3166 O   0  0  0  0  0  0  0  0  0  0  0  0
    8.9849  -15.0896   23.0536 N   0  0  0  0  0  0  0  0  0  0  0  0
   10.3916  -15.4130   22.7636 C   0  0  1  0  0  0  0  0  0  0  0  0
   10.6998  -16.7993   23.2686 C   0  0  0  0  0  0  0  0  0  0  0  0
   12.0909  -17.2101   22.8858 C   0  0  0  0  0  0  0  0  0  0  0  0
   12.6515  -18.0251   23.9981 C   0  0  0  0  0  0  0  0  0  0  0  0
   11.8627  -18.7220   24.6732 O   0  0  0  0  0  0  0  0  0  0  0  0
   10.6874  -15.2088   21.3317 C   0  0  0  0  0  0  0  0  0  0  0  0
   11.8241  -15.3272   20.8075 O   0  0  0  0  0  0  0  0  0  0  0  0
   14.0034  -17.9860   24.2448 O   0  0  0  0  0  0  0  0  0  0  0  0
    9.6777  -14.8526   20.4082 O   0  0  0  0  0  0  0  0  0  0  0  0
  2  1  1  0
  3  2  2  0
  4  3  1  0
  5  4  2  0
  5 11  1  0
  6  5  1  0
  7  9  1  0
  7  6  1  0
  7  8  1  6
  9 10  2  0
 11 12  2  0
 12  2  1  0
 14 13  1  0
 15 14  1  0
 16 15  1  0
 17 16  1  1
 17 19  1  0
 18 17  1  0
 18  9  1  0
 19 20  2  0
 21 22  1  0
 21 19  1  0
 22 27  1  0
 22 23  1  6
 24 23  1  0
 24 25  1  0
 25 26  2  0
 27 28  2  0
 27 30  1  0
 29 25  1  0
M  END
$$$$
