YME.pdb
     RDKit          3D

 30 30  0  0  1  0  0  0  0  0999 V2000
   11.3002  -20.7190   30.9949 O   0  0  0  0  0  0  0  0  0  0  0  0
   10.8255  -20.1226   29.8140 C   0  0  0  0  0  0  0  0  0  0  0  0
   10.5170  -20.8845   28.7015 C   0  0  0  0  0  0  0  0  0  0  0  0
   10.0465  -20.3348   27.5192 C   0  0  0  0  0  0  0  0  0  0  0  0
    9.8730  -18.9595   27.4353 C   0  0  0  0  0  0  0  0  0  0  0  0
    9.3752  -18.3547   26.2034 C   0  0  0  0  0  0  0  0  0  0  0  0
    7.8723  -18.1279   26.1779 C   0  0  2  0  0  0  0  0  0  0  0  0
    7.1878  -19.4065   25.9180 N   0  0  0  0  0  0  0  0  0  0  0  0
    7.4245  -17.1923   25.1467 C   0  0  0  0  0  0  0  0  0  0  0  0
    6.9270  -17.5941   24.0404 O   0  0  0  0  0  0  0  0  0  0  0  0
   10.1792  -18.2021   28.5400 C   0  0  0  0  0  0  0  0  0  0  0  0
   10.6493  -18.7594   29.7187 C   0  0  0  0  0  0  0  0  0  0  0  0
    7.0664  -10.5860   25.8094 C   0  0  0  0  0  0  0  0  0  0  0  0
    6.2414  -11.8997   26.7216 S   0  0  0  0  0  0  0  0  0  0  0  0
    5.8901  -13.3313   25.6180 C   0  0  0  0  0  0  0  0  0  0  0  0
    7.0913  -13.5137   24.7682 C   0  0  0  0  0  0  0  0  0  0  0  0
    7.2326  -14.8778   24.1207 C   0  0  2  0  0  0  0  0  0  0  0  0
    7.4970  -15.7704   25.2769 N   0  0  0  0  0  0  0  0  0  0  0  0
    8.4020  -14.9863   23.2298 C   0  0  0  0  0  0  0  0  0  0  0  0
    8.4027  -14.4516   22.0606 O   0  0  0  0  0  0  0  0  0  0  0  0
    9.5791  -15.6861   23.6366 N   0  0  0  0  0  0  0  0  0  0  0  0
   10.7062  -15.7874   22.6949 C   0  0  1  0  0  0  0  0  0  0  0  0
   12.0026  -15.7688   23.4635 C   0  0  0  0  0  0  0  0  0  0  0  0
   13.1730  -15.9392   22.5408 C   0  0  0  0  0  0  0  0  0  0  0  0
   14.4163  -15.8427   23.3535 C   0  0  0  0  0  0  0  0  0  0  0  0
   14.5830  -14.8216   24.0557 O   0  0  0  0  0  0  0  0  0  0  0  0
   10.5413  -16.9583   21.8109 C   0  0  0  0  0  0  0  0  0  0  0  0
    9.8311  -17.9627   22.0717 O   0  0  0  0  0  0  0  0  0  0  0  0
   15.3312  -16.8677   23.3067 O   0  0  0  0  0  0  0  0  0  0  0  0
   11.1927  -17.0412   20.5587 O   0  0  0  0  0  0  0  0  0  0  0  0
  2  1  1  0
  3  2  2  0
  4  3  1  0
  5  4  2  0
  5 11  1  0
  6  5  1  0
  7  9  1  0
  7  6  1  0
  7  8  1  6
  9 10  2  0
 11 12  2  0
 12  2  1  0
 14 13  1  0
 15 14  1  0
 16 15  1  0
 17 16  1  1
 17 19  1  0
 18 17  1  0
 18  9  1  0
 19 20  2  0
 21 22  1  0
 21 19  1  0
 22 27  1  0
 22 23  1  1
 24 23  1  0
 24 25  1  0
 25 26  2  0
 27 28  2  0
 27 30  1  0
 29 25  1  0
M  END
$$$$
