YME.pdb
     RDKit          3D

 30 30  0  0  1  0  0  0  0  0999 V2000
   10.6259  -14.3316   30.8265 O   0  0  0  0  0  0  0  0  0  0  0  0
   10.2846  -14.7106   29.5167 C   0  0  0  0  0  0  0  0  0  0  0  0
   10.5847  -15.9722   29.0357 C   0  0  0  0  0  0  0  0  0  0  0  0
   10.2651  -16.3841   27.7512 C   0  0  0  0  0  0  0  0  0  0  0  0
    9.6150  -15.5001   26.9002 C   0  0  0  0  0  0  0  0  0  0  0  0
    9.2632  -15.9092   25.5437 C   0  0  0  0  0  0  0  0  0  0  0  0
    7.7915  -16.2359   25.3481 C   0  0  2  0  0  0  0  0  0  0  0  0
    7.4695  -17.4890   26.0529 N   0  0  0  0  0  0  0  0  0  0  0  0
    7.3997  -16.4245   23.9516 C   0  0  0  0  0  0  0  0  0  0  0  0
    7.1745  -17.5840   23.4641 O   0  0  0  0  0  0  0  0  0  0  0  0
    9.3166  -14.2466   27.3774 C   0  0  0  0  0  0  0  0  0  0  0  0
    9.6396  -13.8424   28.6632 C   0  0  0  0  0  0  0  0  0  0  0  0
    7.9280  -11.3913   20.5196 C   0  0  0  0  0  0  0  0  0  0  0  0
    7.5616  -12.3651   19.0513 S   0  0  0  0  0  0  0  0  0  0  0  0
    7.3455  -14.1404   19.4899 C   0  0  0  0  0  0  0  0  0  0  0  0
    7.3798  -14.2164   20.9702 C   0  0  0  0  0  0  0  0  0  0  0  0
    7.1985  -15.6028   21.5577 C   0  0  2  0  0  0  0  0  0  0  0  0
    7.2325  -15.3526   23.0204 N   0  0  0  0  0  0  0  0  0  0  0  0
    8.3166  -16.5166   21.2614 C   0  0  0  0  0  0  0  0  0  0  0  0
    8.1417  -17.5810   20.5616 O   0  0  0  0  0  0  0  0  0  0  0  0
    9.6364  -16.2490   21.7379 N   0  0  0  0  0  0  0  0  0  0  0  0
   10.7459  -17.0958   21.2692 C   0  0  1  0  0  0  0  0  0  0  0  0
   11.3397  -16.4951   20.0209 C   0  0  0  0  0  0  0  0  0  0  0  0
   10.7955  -17.1660   18.7944 C   0  0  0  0  0  0  0  0  0  0  0  0
   11.5639  -16.6695   17.6202 C   0  0  0  0  0  0  0  0  0  0  0  0
   12.6400  -16.0688   17.8319 O   0  0  0  0  0  0  0  0  0  0  0  0
   11.7195  -17.3248   22.3551 C   0  0  0  0  0  0  0  0  0  0  0  0
   12.7930  -17.9686   22.2354 O   0  0  0  0  0  0  0  0  0  0  0  0
   11.0716  -16.8850   16.3549 O   0  0  0  0  0  0  0  0  0  0  0  0
   11.5110  -16.8184   23.6587 O   0  0  0  0  0  0  0  0  0  0  0  0
  2  1  1  0
  3  2  2  0
  4  3  1  0
  5  4  2  0
  5 11  1  0
  6  5  1  0
  7  9  1  0
  7  6  1  0
  7  8  1  1
  9 10  2  0
 11 12  2  0
 12  2  1  0
 14 13  1  0
 15 14  1  0
 16 15  1  0
 17 16  1  6
 17 19  1  0
 18 17  1  0
 18  9  1  0
 19 20  2  0
 21 22  1  0
 21 19  1  0
 22 27  1  0
 22 23  1  6
 24 23  1  0
 24 25  1  0
 25 26  2  0
 27 28  2  0
 27 30  1  0
 29 25  1  0
M  END
$$$$
