YME.pdb
     RDKit          3D

 30 30  0  0  1  0  0  0  0  0999 V2000
    3.0911  -24.4517   25.2958 O   0  0  0  0  0  0  0  0  0  0  0  0
    3.9687  -23.4121   24.9429 C   0  0  0  0  0  0  0  0  0  0  0  0
    5.0191  -23.0515   25.7674 C   0  0  0  0  0  0  0  0  0  0  0  0
    5.9059  -22.0328   25.4553 C   0  0  0  0  0  0  0  0  0  0  0  0
    5.7431  -21.3359   24.2653 C   0  0  0  0  0  0  0  0  0  0  0  0
    6.6650  -20.2611   23.9101 C   0  0  0  0  0  0  0  0  0  0  0  0
    6.0079  -19.0667   23.2375 C   0  0  2  0  0  0  0  0  0  0  0  0
    5.8186  -19.3536   21.8048 N   0  0  0  0  0  0  0  0  0  0  0  0
    6.7837  -17.8297   23.3213 C   0  0  0  0  0  0  0  0  0  0  0  0
    7.7483  -17.5820   22.5206 O   0  0  0  0  0  0  0  0  0  0  0  0
    4.6998  -21.6936   23.4458 C   0  0  0  0  0  0  0  0  0  0  0  0
    3.8173  -22.7135   23.7650 C   0  0  0  0  0  0  0  0  0  0  0  0
    6.8738  -10.8680   27.1407 C   0  0  0  0  0  0  0  0  0  0  0  0
    6.1133  -12.3949   26.5673 S   0  0  0  0  0  0  0  0  0  0  0  0
    7.3468  -13.4411   25.6872 C   0  0  0  0  0  0  0  0  0  0  0  0
    6.6284  -14.6614   25.2480 C   0  0  0  0  0  0  0  0  0  0  0  0
    7.4317  -15.6193   24.3894 C   0  0  2  0  0  0  0  0  0  0  0  0
    6.5401  -16.8014   24.2843 N   0  0  0  0  0  0  0  0  0  0  0  0
    8.6730  -16.0851   25.0338 C   0  0  0  0  0  0  0  0  0  0  0  0
    8.6470  -16.9413   25.9926 O   0  0  0  0  0  0  0  0  0  0  0  0
    9.9505  -15.6047   24.6119 N   0  0  0  0  0  0  0  0  0  0  0  0
   11.1572  -16.3409   25.0233 C   0  0  1  0  0  0  0  0  0  0  0  0
   12.2953  -15.9906   24.0992 C   0  0  0  0  0  0  0  0  0  0  0  0
   13.5539  -16.6956   24.5109 C   0  0  0  0  0  0  0  0  0  0  0  0
   14.6084  -16.3741   23.5108 C   0  0  0  0  0  0  0  0  0  0  0  0
   15.0544  -17.3051   22.8053 O   0  0  0  0  0  0  0  0  0  0  0  0
   11.4438  -16.1116   26.4533 C   0  0  0  0  0  0  0  0  0  0  0  0
   11.0135  -15.1411   27.1270 O   0  0  0  0  0  0  0  0  0  0  0  0
   15.0532  -15.0783   23.3960 O   0  0  0  0  0  0  0  0  0  0  0  0
   12.2525  -16.9988   27.2003 O   0  0  0  0  0  0  0  0  0  0  0  0
  2  1  1  0
  3  2  2  0
  4  3  1  0
  5  4  2  0
  5 11  1  0
  6  5  1  0
  7  9  1  0
  7  6  1  0
  7  8  1  6
  9 10  2  0
 11 12  2  0
 12  2  1  0
 14 13  1  0
 15 14  1  0
 16 15  1  0
 17 16  1  1
 17 19  1  0
 18 17  1  0
 18  9  1  0
 19 20  2  0
 21 22  1  0
 21 19  1  0
 22 27  1  0
 22 23  1  6
 24 23  1  0
 24 25  1  0
 25 26  2  0
 27 28  2  0
 27 30  1  0
 29 25  1  0
M  END
$$$$
