YME.pdb
     RDKit          3D

 30 30  0  0  1  0  0  0  0  0999 V2000
    7.2353  -13.8986   15.3228 O   0  0  0  0  0  0  0  0  0  0  0  0
    7.6515  -13.8859   16.6653 C   0  0  0  0  0  0  0  0  0  0  0  0
    8.3873  -14.9298   17.1963 C   0  0  0  0  0  0  0  0  0  0  0  0
    8.8164  -14.9547   18.5142 C   0  0  0  0  0  0  0  0  0  0  0  0
    8.4998  -13.8905   19.3483 C   0  0  0  0  0  0  0  0  0  0  0  0
    8.9425  -13.8892   20.7394 C   0  0  0  0  0  0  0  0  0  0  0  0
    8.9144  -15.2539   21.4085 C   0  0  2  0  0  0  0  0  0  0  0  0
    7.6258  -15.9110   21.1283 N   0  0  0  0  0  0  0  0  0  0  0  0
    9.0589  -15.2114   22.8634 C   0  0  0  0  0  0  0  0  0  0  0  0
   10.1247  -14.7840   23.4239 O   0  0  0  0  0  0  0  0  0  0  0  0
    7.7689  -12.8531   18.8214 C   0  0  0  0  0  0  0  0  0  0  0  0
    7.3435  -12.8357   17.5024 C   0  0  0  0  0  0  0  0  0  0  0  0
    6.8599  -11.0874   26.8567 C   0  0  0  0  0  0  0  0  0  0  0  0
    7.3129  -12.8276   26.9289 S   0  0  0  0  0  0  0  0  0  0  0  0
    6.4723  -13.7708   25.5894 C   0  0  0  0  0  0  0  0  0  0  0  0
    6.8668  -15.1897   25.7609 C   0  0  0  0  0  0  0  0  0  0  0  0
    8.2462  -15.5514   25.2446 C   0  0  2  0  0  0  0  0  0  0  0  0
    8.0424  -15.6321   23.7764 N   0  0  0  0  0  0  0  0  0  0  0  0
    8.7049  -16.8832   25.6791 C   0  0  0  0  0  0  0  0  0  0  0  0
    8.4130  -17.9414   25.0097 O   0  0  0  0  0  0  0  0  0  0  0  0
    9.4950  -17.0448   26.8582 N   0  0  0  0  0  0  0  0  0  0  0  0
   10.4965  -18.1231   26.8996 C   0  0  1  0  0  0  0  0  0  0  0  0
   11.4186  -17.9941   25.7143 C   0  0  0  0  0  0  0  0  0  0  0  0
   12.5415  -18.9852   25.8009 C   0  0  0  0  0  0  0  0  0  0  0  0
   13.4060  -18.8053   24.6027 C   0  0  0  0  0  0  0  0  0  0  0  0
   13.1060  -17.9036   23.7899 O   0  0  0  0  0  0  0  0  0  0  0  0
   11.1854  -18.1428   28.2053 C   0  0  0  0  0  0  0  0  0  0  0  0
   11.1271  -17.2260   29.0638 O   0  0  0  0  0  0  0  0  0  0  0  0
   14.4946  -19.6270   24.4299 O   0  0  0  0  0  0  0  0  0  0  0  0
   11.9913  -19.2343   28.6034 O   0  0  0  0  0  0  0  0  0  0  0  0
  2  1  1  0
  3  2  2  0
  4  3  1  0
  5  4  2  0
  5 11  1  0
  6  5  1  0
  7  9  1  0
  7  6  1  0
  7  8  1  1
  9 10  2  0
 11 12  2  0
 12  2  1  0
 14 13  1  0
 15 14  1  0
 16 15  1  0
 17 16  1  1
 17 19  1  0
 18 17  1  0
 18  9  1  0
 19 20  2  0
 21 22  1  0
 21 19  1  0
 22 27  1  0
 22 23  1  6
 24 23  1  0
 24 25  1  0
 25 26  2  0
 27 28  2  0
 27 30  1  0
 29 25  1  0
M  END
$$$$
