TRG.pdb
     RDKit          3D

 23 22  0  0  1  0  0  0  0  0999 V2000
   23.4195  -22.6202  -17.9478 C   0  0  0  0  0  0  0  0  0  0  0  0
   24.1690  -21.5870  -17.1291 C   0  0  1  0  0  0  0  0  0  0  0  0
   25.4645  -21.4873  -17.6389 O   0  0  0  0  0  0  0  0  0  0  0  0
   23.4835  -20.2591  -17.3085 C   0  0  2  0  0  0  0  0  0  0  0  0
   24.2505  -19.2225  -16.6869 N   0  0  0  0  0  0  0  0  0  0  0  0
   22.1218  -20.3225  -16.6937 C   0  0  0  0  0  0  0  0  0  0  0  0
   21.3299  -21.2612  -16.9446 O   0  0  0  0  0  0  0  0  0  0  0  0
   18.8126  -23.8785  -13.3127 N   0  0  0  0  0  0  0  0  0  0  0  0
   19.0283  -23.1907  -12.0710 C   0  0  0  0  0  0  0  0  0  0  0  0
   18.4363  -23.6153  -11.0335 N   0  0  0  0  0  0  0  0  0  0  0  0
   19.8891  -22.0576  -12.0085 N   0  0  0  0  0  0  0  0  0  0  0  0
   19.6973  -20.9403  -12.8891 C   0  0  0  0  0  0  0  0  0  0  0  0
   20.7260  -19.8445  -12.7211 C   0  0  0  0  0  0  0  0  0  0  0  0
   20.5359  -18.7688  -13.7660 C   0  0  0  0  0  0  0  0  0  0  0  0
   20.4188  -19.3184  -15.1497 C   0  0  2  0  0  0  0  0  0  0  0  0
   21.6979  -19.3009  -15.8003 N   0  0  0  0  0  0  0  0  0  0  0  0
   19.4191  -18.6086  -15.9729 C   0  0  0  0  0  0  0  0  0  0  0  0
   19.7223  -17.4954  -16.4611 O   0  0  0  0  0  0  0  0  0  0  0  0
   18.5990  -23.1576  -10.1150 N   0  0  0  0  0  0  0  0  0  0  0  0
   18.1180  -19.1472  -16.2328 C   0  0  0  0  0  0  0  0  0  0  0  0
   17.0401  -18.7614  -15.3458 C   0  0  0  0  0  0  0  0  0  0  0  0
   16.6066  -17.3775  -15.5467 O   0  0  0  0  0  0  0  0  0  0  0  0
   15.5164  -17.1354  -16.1061 O   0  0  0  0  0  0  0  0  0  0  0  0
  2  1  1  6
  2  3  1  0
  4  6  1  0
  4  2  1  0
  4  5  1  1
  6  7  2  0
  9 11  1  0
  9  8  1  0
 10  9  2  0
 12 11  1  0
 12 13  1  0
 13 14  1  0
 15 14  1  1
 15 17  1  0
 16 15  1  0
 16  6  1  0
 17 19  1  0
 17 18  2  0
 19 20  1  0
 20 21  1  0
 21 22  2  0
 21 23  1  0
M  END
$$$$
