TRG.pdb
     RDKit          3D

 23 22  0  0  1  0  0  0  0  0999 V2000
   21.7914   -9.4657  -14.9759 C   0  0  0  0  0  0  0  0  0  0  0  0
   20.5862  -10.0538  -15.6838 C   0  0  1  0  0  0  0  0  0  0  0  0
   20.9687  -11.2696  -16.2526 O   0  0  0  0  0  0  0  0  0  0  0  0
   19.5228  -10.3242  -14.6535 C   0  0  2  0  0  0  0  0  0  0  0  0
   18.4510  -11.0715  -15.2384 N   0  0  0  0  0  0  0  0  0  0  0  0
   19.0073   -9.0229  -14.1268 C   0  0  0  0  0  0  0  0  0  0  0  0
   18.2236   -8.3075  -14.7939 O   0  0  0  0  0  0  0  0  0  0  0  0
   14.7874   -6.3729   -7.9487 N   0  0  0  0  0  0  0  0  0  0  0  0
   14.3752   -7.6363   -8.4923 C   0  0  0  0  0  0  0  0  0  0  0  0
   13.1579   -7.9734   -8.3836 N   0  0  0  0  0  0  0  0  0  0  0  0
   15.3143   -8.4896   -9.1392 N   0  0  0  0  0  0  0  0  0  0  0  0
   16.6784   -8.0792   -9.3171 C   0  0  0  0  0  0  0  0  0  0  0  0
   17.1200   -8.0312  -10.7628 C   0  0  0  0  0  0  0  0  0  0  0  0
   18.5320   -7.5028  -10.8726 C   0  0  0  0  0  0  0  0  0  0  0  0
   18.9739   -7.3180  -12.2872 C   0  0  2  0  0  0  0  0  0  0  0  0
   19.4062   -8.5701  -12.8395 N   0  0  0  0  0  0  0  0  0  0  0  0
   20.0359   -6.3025  -12.4350 C   0  0  0  0  0  0  0  0  0  0  0  0
   21.1777   -6.5559  -11.9861 O   0  0  0  0  0  0  0  0  0  0  0  0
   12.8123   -8.8385   -8.8438 N   0  0  0  0  0  0  0  0  0  0  0  0
   19.8070   -5.0409  -13.0726 C   0  0  0  0  0  0  0  0  0  0  0  0
   20.9220   -4.1213  -13.1655 C   0  0  0  0  0  0  0  0  0  0  0  0
   21.6245   -4.2076  -14.4472 O   0  0  0  0  0  0  0  0  0  0  0  0
   21.3226   -5.0970  -15.2705 O   0  0  0  0  0  0  0  0  0  0  0  0
  2  1  1  1
  2  3  1  0
  4  6  1  0
  4  2  1  0
  4  5  1  6
  6  7  2  0
  9 11  1  0
  9  8  1  0
 10  9  2  0
 12 11  1  0
 12 13  1  0
 13 14  1  0
 15 14  1  1
 15 17  1  0
 16 15  1  0
 16  6  1  0
 17 19  1  0
 17 18  2  0
 19 20  1  0
 20 21  1  0
 21 22  2  0
 21 23  1  0
M  END
$$$$
