TRG.pdb
     RDKit          3D

 23 22  0  0  1  0  0  0  0  0999 V2000
   26.6241  -10.1842  -14.6265 C   0  0  0  0  0  0  0  0  0  0  0  0
   26.7311  -10.6620  -16.0617 C   0  0  1  0  0  0  0  0  0  0  0  0
   27.8106  -11.5428  -16.1456 O   0  0  0  0  0  0  0  0  0  0  0  0
   25.4736  -11.4170  -16.3998 C   0  0  2  0  0  0  0  0  0  0  0  0
   25.6333  -12.1042  -17.6453 N   0  0  0  0  0  0  0  0  0  0  0  0
   24.3330  -10.4542  -16.4926 C   0  0  0  0  0  0  0  0  0  0  0  0
   24.0705   -9.8462  -17.5568 O   0  0  0  0  0  0  0  0  0  0  0  0
   16.3904  -12.3412  -15.7221 N   0  0  0  0  0  0  0  0  0  0  0  0
   16.5550  -11.3669  -16.7638 C   0  0  0  0  0  0  0  0  0  0  0  0
   15.6046  -11.1924  -17.5845 N   0  0  0  0  0  0  0  0  0  0  0  0
   17.7594  -10.6140  -16.8703 N   0  0  0  0  0  0  0  0  0  0  0  0
   18.8158  -10.7793  -15.9125 C   0  0  0  0  0  0  0  0  0  0  0  0
   20.0404   -9.9398  -16.2003 C   0  0  0  0  0  0  0  0  0  0  0  0
   21.1202  -10.2014  -15.1753 C   0  0  0  0  0  0  0  0  0  0  0  0
   22.3464   -9.3794  -15.4017 C   0  0  2  0  0  0  0  0  0  0  0  0
   23.5159  -10.2099  -15.3551 N   0  0  0  0  0  0  0  0  0  0  0  0
   22.4784   -8.2600  -14.4475 C   0  0  0  0  0  0  0  0  0  0  0  0
   22.8650   -8.5055  -13.2814 O   0  0  0  0  0  0  0  0  0  0  0  0
   15.7000  -10.5020  -18.3552 N   0  0  0  0  0  0  0  0  0  0  0  0
   22.1813   -6.9063  -14.8078 C   0  0  0  0  0  0  0  0  0  0  0  0
   22.2991   -5.8943  -13.7786 C   0  0  0  0  0  0  0  0  0  0  0  0
   22.0270   -4.5442  -14.2754 O   0  0  0  0  0  0  0  0  0  0  0  0
   21.7556   -4.3610  -15.4807 O   0  0  0  0  0  0  0  0  0  0  0  0
  2  1  1  1
  2  3  1  0
  4  6  1  0
  4  2  1  0
  4  5  1  6
  6  7  2  0
  9 11  1  0
  9  8  1  0
 10  9  2  0
 12 11  1  0
 12 13  1  0
 13 14  1  0
 15 14  1  1
 15 17  1  0
 16 15  1  0
 16  6  1  0
 17 19  1  0
 17 18  2  0
 19 20  1  0
 20 21  1  0
 21 22  2  0
 21 23  1  0
M  END
$$$$
