TRG.pdb
     RDKit          3D

 23 22  0  0  1  0  0  0  0  0999 V2000
   26.5210  -16.6426  -17.2517 C   0  0  0  0  0  0  0  0  0  0  0  0
   27.0563  -17.7134  -18.1825 C   0  0  1  0  0  0  0  0  0  0  0  0
   27.8209  -17.0875  -19.1683 O   0  0  0  0  0  0  0  0  0  0  0  0
   27.9561  -18.6200  -17.3864 C   0  0  2  0  0  0  0  0  0  0  0  0
   28.6064  -19.5530  -18.2556 N   0  0  0  0  0  0  0  0  0  0  0  0
   27.1393  -19.3544  -16.3715 C   0  0  0  0  0  0  0  0  0  0  0  0
   26.4547  -20.3581  -16.6797 O   0  0  0  0  0  0  0  0  0  0  0  0
   26.0247  -20.4153   -8.1785 N   0  0  0  0  0  0  0  0  0  0  0  0
   25.0403  -21.0052   -9.0413 C   0  0  0  0  0  0  0  0  0  0  0  0
   23.8160  -20.8784   -8.7376 N   0  0  0  0  0  0  0  0  0  0  0  0
   25.4327  -21.7156  -10.2117 N   0  0  0  0  0  0  0  0  0  0  0  0
   26.2889  -21.1051  -11.1888 C   0  0  0  0  0  0  0  0  0  0  0  0
   25.8932  -19.6913  -11.5521 C   0  0  0  0  0  0  0  0  0  0  0  0
   26.7786  -19.1553  -12.6537 C   0  0  0  0  0  0  0  0  0  0  0  0
   26.2843  -19.5073  -14.0183 C   0  0  2  0  0  0  0  0  0  0  0  0
   27.1268  -18.9168  -15.0189 N   0  0  0  0  0  0  0  0  0  0  0  0
   24.8773  -19.1190  -14.2435 C   0  0  0  0  0  0  0  0  0  0  0  0
   24.5958  -17.9015  -14.3322 O   0  0  0  0  0  0  0  0  0  0  0  0
   23.0810  -21.2807   -9.3521 N   0  0  0  0  0  0  0  0  0  0  0  0
   23.8256  -20.0833  -14.3644 C   0  0  0  0  0  0  0  0  0  0  0  0
   22.4626  -19.5943  -14.3828 C   0  0  0  0  0  0  0  0  0  0  0  0
   22.0199  -19.1956  -15.7202 O   0  0  0  0  0  0  0  0  0  0  0  0
   22.8130  -19.2407  -16.6841 O   0  0  0  0  0  0  0  0  0  0  0  0
  2  1  1  1
  2  3  1  0
  4  6  1  0
  4  2  1  0
  4  5  1  6
  6  7  2  0
  9 11  1  0
  9  8  1  0
 10  9  2  0
 12 11  1  0
 12 13  1  0
 13 14  1  0
 15 14  1  1
 15 17  1  0
 16 15  1  0
 16  6  1  0
 17 19  1  0
 17 18  2  0
 19 20  1  0
 20 21  1  0
 21 22  2  0
 21 23  1  0
M  END
$$$$
