TRG.pdb
     RDKit          3D

 23 22  0  0  1  0  0  0  0  0999 V2000
   27.0187  -16.4901  -20.0345 C   0  0  0  0  0  0  0  0  0  0  0  0
   26.2823  -17.3475  -19.0234 C   0  0  1  0  0  0  0  0  0  0  0  0
   25.0847  -17.7689  -19.6034 O   0  0  0  0  0  0  0  0  0  0  0  0
   27.1245  -18.5613  -18.7356 C   0  0  2  0  0  0  0  0  0  0  0  0
   27.3020  -19.3303  -19.9298 N   0  0  0  0  0  0  0  0  0  0  0  0
   26.4483  -19.3916  -17.6917 C   0  0  0  0  0  0  0  0  0  0  0  0
   25.6237  -20.2856  -17.9948 O   0  0  0  0  0  0  0  0  0  0  0  0
   24.5330  -19.9780  -10.4788 N   0  0  0  0  0  0  0  0  0  0  0  0
   25.5816  -20.6803   -9.7942 C   0  0  0  0  0  0  0  0  0  0  0  0
   25.5377  -20.7491   -8.5290 N   0  0  0  0  0  0  0  0  0  0  0  0
   26.6456  -21.2859  -10.5220 N   0  0  0  0  0  0  0  0  0  0  0  0
   27.2060  -20.6416  -11.6758 C   0  0  0  0  0  0  0  0  0  0  0  0
   26.2859  -20.6258  -12.8760 C   0  0  0  0  0  0  0  0  0  0  0  0
   26.9426  -19.9247  -14.0431 C   0  0  0  0  0  0  0  0  0  0  0  0
   26.0802  -19.8953  -15.2621 C   0  0  2  0  0  0  0  0  0  0  0  0
   26.7356  -19.1750  -16.3163 N   0  0  0  0  0  0  0  0  0  0  0  0
   24.7412  -19.3250  -15.0116 C   0  0  0  0  0  0  0  0  0  0  0  0
   24.6346  -18.0871  -14.8517 O   0  0  0  0  0  0  0  0  0  0  0  0
   26.2924  -21.2353   -8.0058 N   0  0  0  0  0  0  0  0  0  0  0  0
   23.5626  -20.1356  -14.9457 C   0  0  0  0  0  0  0  0  0  0  0  0
   22.3086  -19.4772  -14.6436 C   0  0  0  0  0  0  0  0  0  0  0  0
   21.3505  -19.5450  -15.7486 O   0  0  0  0  0  0  0  0  0  0  0  0
   21.7413  -19.4159  -16.9279 O   0  0  0  0  0  0  0  0  0  0  0  0
  2  1  1  6
  2  3  1  0
  4  6  1  0
  4  2  1  0
  4  5  1  6
  6  7  2  0
  9 11  1  0
  9  8  1  0
 10  9  2  0
 12 11  1  0
 12 13  1  0
 13 14  1  0
 15 14  1  1
 15 17  1  0
 16 15  1  0
 16  6  1  0
 17 19  1  0
 17 18  2  0
 19 20  1  0
 20 21  1  0
 21 22  2  0
 21 23  1  0
M  END
$$$$
