LAW.pdb
     RDKit          3D

 28 29  0  0  1  0  0  0  0  0999 V2000
    8.9940  -12.2730   19.3946 C   0  0  0  0  0  0  0  0  0  0  0  0
    7.8258  -13.2467   19.1830 C   0  0  2  0  0  0  0  0  0  0  0  0
    6.6174  -12.4100   18.8861 C   0  0  0  0  0  0  0  0  0  0  0  0
    7.6693  -14.1208   20.4058 C   0  0  0  0  0  0  0  0  0  0  0  0
    8.9597  -14.8133   20.6885 C   0  0  2  0  0  0  0  0  0  0  0  0
    9.3754  -15.5329   19.5194 N   0  0  0  0  0  0  0  0  0  0  0  0
    8.9426  -15.6417   21.9079 C   0  0  0  0  0  0  0  0  0  0  0  0
    8.3469  -15.2410   22.9401 O   0  0  0  0  0  0  0  0  0  0  0  0
   10.2740  -19.0075   23.0264 C   0  0  0  0  0  0  0  0  0  0  0  0
    9.5124  -17.7253   23.2049 C   0  0  2  0  0  0  0  0  0  0  0  0
    9.5784  -16.9177   22.0083 N   0  0  0  0  0  0  0  0  0  0  0  0
   10.0711  -17.0068   24.3844 C   0  0  0  0  0  0  0  0  0  0  0  0
   11.1173  -16.2751   24.2824 O   0  0  0  0  0  0  0  0  0  0  0  0
    9.5000  -17.0796   25.6698 N   0  0  0  0  0  0  0  0  0  0  0  0
   10.2421  -16.6376   26.8631 C   0  0  1  0  0  0  0  0  0  0  0  0
    9.3211  -15.6492   27.5223 C   0  0  0  0  0  0  0  0  0  0  0  0
    8.1404  -15.2341   26.7997 C   0  0  0  0  0  0  0  0  0  0  0  0
    7.1550  -16.0863   26.3374 C   0  0  0  0  0  0  0  0  0  0  0  0
    6.2248  -15.3777   25.6828 N   0  0  0  0  0  0  0  0  0  0  0  0
    6.5860  -14.0894   25.7125 C   0  0  0  0  0  0  0  0  0  0  0  0
    6.0081  -12.9329   25.2214 C   0  0  0  0  0  0  0  0  0  0  0  0
    6.5887  -11.6930   25.4075 C   0  0  0  0  0  0  0  0  0  0  0  0
    7.7803  -11.6064   26.1041 C   0  0  0  0  0  0  0  0  0  0  0  0
    8.3650  -12.7257   26.5938 C   0  0  0  0  0  0  0  0  0  0  0  0
    7.7872  -13.9655   26.4084 C   0  0  0  0  0  0  0  0  0  0  0  0
   10.5565  -17.7765   27.7356 C   0  0  0  0  0  0  0  0  0  0  0  0
    9.9992  -19.0434   27.5148 O   0  0  0  0  0  0  0  0  0  0  0  0
   11.3311  -17.7018   28.7225 O   0  0  0  0  0  0  0  0  0  0  0  0
  2  3  1  1
  2  1  1  0
  4  2  1  0
  5  4  1  0
  5  6  1  6
  7  5  1  0
  8  7  2  0
 10  9  1  6
 10 12  1  0
 10 11  1  0
 11  7  1  0
 12 13  2  0
 14 15  1  0
 14 12  1  0
 16 17  1  0
 15 16  1  1
 17 18  2  0
 18 19  1  0
 20 19  1  0
 21 20  2  0
 22 21  1  0
 23 24  1  0
 23 22  2  0
 24 25  2  0
 25 17  1  0
 25 20  1  0
 26 27  1  0
 26 15  1  0
 28 26  2  0
M  END
$$$$
