LAW.pdb
     RDKit          3D

 28 29  0  0  1  0  0  0  0  0999 V2000
    6.4933  -20.7918   20.5892 C   0  0  0  0  0  0  0  0  0  0  0  0
    8.0129  -20.9353   20.7551 C   0  0  2  0  0  0  0  0  0  0  0  0
    8.2331  -21.9353   21.8505 C   0  0  0  0  0  0  0  0  0  0  0  0
    8.6195  -19.5814   21.0427 C   0  0  0  0  0  0  0  0  0  0  0  0
    8.2399  -18.6281   19.9602 C   0  0  2  0  0  0  0  0  0  0  0  0
    8.7689  -19.0962   18.7118 N   0  0  0  0  0  0  0  0  0  0  0  0
    8.5825  -17.2235   20.2489 C   0  0  0  0  0  0  0  0  0  0  0  0
    9.7657  -16.8184   20.1191 O   0  0  0  0  0  0  0  0  0  0  0  0
    6.7690  -14.0066   21.0232 C   0  0  0  0  0  0  0  0  0  0  0  0
    7.9928  -14.8732   20.9390 C   0  0  2  0  0  0  0  0  0  0  0  0
    7.6316  -16.2487   20.6827 N   0  0  0  0  0  0  0  0  0  0  0  0
    8.7565  -14.7333   22.2106 C   0  0  0  0  0  0  0  0  0  0  0  0
    9.1556  -13.5886   22.6235 O   0  0  0  0  0  0  0  0  0  0  0  0
    9.0873  -15.8282   23.0326 N   0  0  0  0  0  0  0  0  0  0  0  0
    9.9369  -15.6612   24.2243 C   0  0  1  0  0  0  0  0  0  0  0  0
    9.0757  -16.1419   25.3587 C   0  0  0  0  0  0  0  0  0  0  0  0
    7.8378  -15.4420   25.6159 C   0  0  0  0  0  0  0  0  0  0  0  0
    6.5751  -15.9778   25.4436 C   0  0  0  0  0  0  0  0  0  0  0  0
    5.6539  -15.0506   25.7392 N   0  0  0  0  0  0  0  0  0  0  0  0
    6.2918  -13.9303   26.0988 C   0  0  0  0  0  0  0  0  0  0  0  0
    5.8564  -12.6849   26.5135 C   0  0  0  0  0  0  0  0  0  0  0  0
    6.7417  -11.6801   26.8535 C   0  0  0  0  0  0  0  0  0  0  0  0
    8.1003  -11.9269   26.7770 C   0  0  0  0  0  0  0  0  0  0  0  0
    8.5500  -13.1388   26.3729 C   0  0  0  0  0  0  0  0  0  0  0  0
    7.6674  -14.1439   26.0320 C   0  0  0  0  0  0  0  0  0  0  0  0
   11.1769  -16.4378   24.0961 C   0  0  0  0  0  0  0  0  0  0  0  0
   11.3877  -17.3073   23.0173 O   0  0  0  0  0  0  0  0  0  0  0  0
   12.1200  -16.3815   24.9249 O   0  0  0  0  0  0  0  0  0  0  0  0
  2  3  1  1
  2  1  1  0
  4  2  1  0
  5  4  1  0
  5  6  1  6
  7  5  1  0
  8  7  2  0
 10  9  1  1
 10 12  1  0
 10 11  1  0
 11  7  1  0
 12 13  2  0
 14 15  1  0
 14 12  1  0
 16 17  1  0
 15 16  1  1
 17 18  2  0
 18 19  1  0
 20 19  1  0
 21 20  2  0
 22 21  1  0
 23 24  1  0
 23 22  2  0
 24 25  2  0
 25 17  1  0
 25 20  1  0
 26 27  1  0
 26 15  1  0
 28 26  2  0
M  END
$$$$
