LAW.pdb
     RDKit          3D

 28 29  0  0  1  0  0  0  0  0999 V2000
    9.3601  -13.1728   18.8632 C   0  0  0  0  0  0  0  0  0  0  0  0
    7.9179  -13.3487   19.3597 C   0  0  2  0  0  0  0  0  0  0  0  0
    7.3208  -11.9756   19.4403 C   0  0  0  0  0  0  0  0  0  0  0  0
    7.9247  -14.0825   20.6808 C   0  0  0  0  0  0  0  0  0  0  0  0
    8.5360  -15.4304   20.4960 C   0  0  2  0  0  0  0  0  0  0  0  0
    7.7465  -16.1833   19.5647 N   0  0  0  0  0  0  0  0  0  0  0  0
    8.7960  -16.1504   21.7560 C   0  0  0  0  0  0  0  0  0  0  0  0
    7.8981  -16.2443   22.6311 O   0  0  0  0  0  0  0  0  0  0  0  0
   11.4591  -18.4223   23.1497 C   0  0  0  0  0  0  0  0  0  0  0  0
   10.2401  -17.5532   23.2708 C   0  0  2  0  0  0  0  0  0  0  0  0
   10.0429  -16.7747   22.0695 N   0  0  0  0  0  0  0  0  0  0  0  0
   10.4002  -16.6830   24.4695 C   0  0  0  0  0  0  0  0  0  0  0  0
   11.0602  -15.5870   24.4117 O   0  0  0  0  0  0  0  0  0  0  0  0
    9.8481  -16.9976   25.7265 N   0  0  0  0  0  0  0  0  0  0  0  0
   10.1716  -16.2040   26.9247 C   0  0  1  0  0  0  0  0  0  0  0  0
    8.8460  -16.0144   27.6077 C   0  0  0  0  0  0  0  0  0  0  0  0
    7.7797  -15.3882   26.8598 C   0  0  0  0  0  0  0  0  0  0  0  0
    6.7524  -16.0646   26.2288 C   0  0  0  0  0  0  0  0  0  0  0  0
    5.9594  -15.1850   25.6016 N   0  0  0  0  0  0  0  0  0  0  0  0
    6.4499  -13.9580   25.8136 C   0  0  0  0  0  0  0  0  0  0  0  0
    6.0392  -12.6950   25.4278 C   0  0  0  0  0  0  0  0  0  0  0  0
    6.7289  -11.5585   25.8042 C   0  0  0  0  0  0  0  0  0  0  0  0
    7.8608  -11.6878   26.5883 C   0  0  0  0  0  0  0  0  0  0  0  0
    8.2822  -12.9146   26.9777 C   0  0  0  0  0  0  0  0  0  0  0  0
    7.5952  -14.0515   26.6022 C   0  0  0  0  0  0  0  0  0  0  0  0
   11.1417  -16.9086   27.7730 C   0  0  0  0  0  0  0  0  0  0  0  0
   11.5564  -18.2151   27.4808 O   0  0  0  0  0  0  0  0  0  0  0  0
   11.6606  -16.4041   28.8005 O   0  0  0  0  0  0  0  0  0  0  0  0
  2  3  1  1
  2  1  1  0
  4  2  1  0
  5  4  1  0
  5  6  1  6
  7  5  1  0
  8  7  2  0
 10  9  1  6
 10 12  1  0
 10 11  1  0
 11  7  1  0
 12 13  2  0
 14 15  1  0
 14 12  1  0
 16 17  1  0
 15 16  1  1
 17 18  2  0
 18 19  1  0
 20 19  1  0
 21 20  2  0
 22 21  1  0
 23 24  1  0
 23 22  2  0
 24 25  2  0
 25 17  1  0
 25 20  1  0
 26 27  1  0
 26 15  1  0
 28 26  2  0
M  END
$$$$
