LAW.pdb
     RDKit          3D

 28 29  0  0  1  0  0  0  0  0999 V2000
    5.1652  -21.2253   23.6380 C   0  0  0  0  0  0  0  0  0  0  0  0
    6.6959  -21.1196   23.5812 C   0  0  2  0  0  0  0  0  0  0  0  0
    7.2163  -21.7332   24.8467 C   0  0  0  0  0  0  0  0  0  0  0  0
    7.0959  -19.6732   23.4028 C   0  0  0  0  0  0  0  0  0  0  0  0
    6.6098  -19.1842   22.0802 C   0  0  2  0  0  0  0  0  0  0  0  0
    6.6493  -20.2620   21.1345 N   0  0  0  0  0  0  0  0  0  0  0  0
    7.2884  -17.9651   21.6038 C   0  0  0  0  0  0  0  0  0  0  0  0
    8.4155  -18.0397   21.0517 O   0  0  0  0  0  0  0  0  0  0  0  0
    6.5617  -14.2702   21.2987 C   0  0  0  0  0  0  0  0  0  0  0  0
    7.4704  -15.4651   21.3480 C   0  0  2  0  0  0  0  0  0  0  0  0
    6.7382  -16.6518   21.7277 N   0  0  0  0  0  0  0  0  0  0  0  0
    8.5781  -15.1745   22.3009 C   0  0  0  0  0  0  0  0  0  0  0  0
    9.4093  -14.2247   22.0838 O   0  0  0  0  0  0  0  0  0  0  0  0
    8.7860  -15.9090   23.4846 N   0  0  0  0  0  0  0  0  0  0  0  0
    9.8822  -15.5747   24.4102 C   0  0  1  0  0  0  0  0  0  0  0  0
    9.2415  -15.6213   25.7692 C   0  0  0  0  0  0  0  0  0  0  0  0
    8.0080  -14.8941   25.9642 C   0  0  0  0  0  0  0  0  0  0  0  0
    6.7525  -15.4688   26.0311 C   0  0  0  0  0  0  0  0  0  0  0  0
    5.8306  -14.5082   26.1833 N   0  0  0  0  0  0  0  0  0  0  0  0
    6.4612  -13.3282   26.2170 C   0  0  0  0  0  0  0  0  0  0  0  0
    6.0234  -12.0251   26.3686 C   0  0  0  0  0  0  0  0  0  0  0  0
    6.9024  -10.9593   26.3886 C   0  0  0  0  0  0  0  0  0  0  0  0
    8.2571  -11.2025   26.2533 C   0  0  0  0  0  0  0  0  0  0  0  0
    8.7090  -12.4704   26.1029 C   0  0  0  0  0  0  0  0  0  0  0  0
    7.8326  -13.5367   26.0820 C   0  0  0  0  0  0  0  0  0  0  0  0
   10.9876  -16.5330   24.2802 C   0  0  0  0  0  0  0  0  0  0  0  0
   12.2108  -16.3326   24.9343 O   0  0  0  0  0  0  0  0  0  0  0  0
   10.9205  -17.5805   23.5889 O   0  0  0  0  0  0  0  0  0  0  0  0
  2  3  1  1
  2  1  1  0
  4  2  1  0
  5  4  1  0
  5  6  1  6
  7  5  1  0
  8  7  2  0
 10  9  1  1
 10 12  1  0
 10 11  1  0
 11  7  1  0
 12 13  2  0
 14 15  1  0
 14 12  1  0
 16 17  1  0
 15 16  1  1
 17 18  2  0
 18 19  1  0
 20 19  1  0
 21 20  2  0
 22 21  1  0
 23 24  1  0
 23 22  2  0
 24 25  2  0
 25 17  1  0
 25 20  1  0
 26 27  1  0
 26 15  1  0
 28 26  2  0
M  END
$$$$
