LAW.pdb
     RDKit          3D

 28 29  0  0  1  0  0  0  0  0999 V2000
    9.5058  -21.3106   19.2966 C   0  0  0  0  0  0  0  0  0  0  0  0
    8.4821  -20.4466   18.5462 C   0  0  2  0  0  0  0  0  0  0  0  0
    8.5452  -20.8591   17.1060 C   0  0  0  0  0  0  0  0  0  0  0  0
    8.7945  -18.9850   18.7698 C   0  0  0  0  0  0  0  0  0  0  0  0
    8.6481  -18.6629   20.2188 C   0  0  2  0  0  0  0  0  0  0  0  0
    7.3731  -19.1310   20.6801 N   0  0  0  0  0  0  0  0  0  0  0  0
    8.9048  -17.2492   20.5491 C   0  0  0  0  0  0  0  0  0  0  0  0
   10.0349  -16.7416   20.3345 O   0  0  0  0  0  0  0  0  0  0  0  0
    6.9472  -14.1997   21.5504 C   0  0  0  0  0  0  0  0  0  0  0  0
    8.2132  -15.0022   21.4551 C   0  0  2  0  0  0  0  0  0  0  0  0
    7.9253  -16.3777   21.1180 N   0  0  0  0  0  0  0  0  0  0  0  0
    8.9370  -14.8944   22.7528 C   0  0  0  0  0  0  0  0  0  0  0  0
    9.4364  -13.7821   23.1447 O   0  0  0  0  0  0  0  0  0  0  0  0
    9.1202  -15.9863   23.6234 N   0  0  0  0  0  0  0  0  0  0  0  0
    9.9909  -15.8835   24.8072 C   0  0  1  0  0  0  0  0  0  0  0  0
    9.0835  -16.2129   25.9595 C   0  0  0  0  0  0  0  0  0  0  0  0
    7.8594  -15.4573   26.0978 C   0  0  0  0  0  0  0  0  0  0  0  0
    6.5915  -15.9537   25.8587 C   0  0  0  0  0  0  0  0  0  0  0  0
    5.6895  -14.9810   26.0484 N   0  0  0  0  0  0  0  0  0  0  0  0
    6.3447  -13.8698   26.4049 C   0  0  0  0  0  0  0  0  0  0  0  0
    5.9313  -12.5919   26.7345 C   0  0  0  0  0  0  0  0  0  0  0  0
    6.8300  -11.6059   27.0940 C   0  0  0  0  0  0  0  0  0  0  0  0
    8.1798  -11.9054   27.1251 C   0  0  0  0  0  0  0  0  0  0  0  0
    8.6080  -13.1500   26.8057 C   0  0  0  0  0  0  0  0  0  0  0  0
    7.7121  -14.1364   26.4455 C   0  0  0  0  0  0  0  0  0  0  0  0
   11.1244  -16.8119   24.7055 C   0  0  0  0  0  0  0  0  0  0  0  0
   12.1805  -16.7814   25.6264 O   0  0  0  0  0  0  0  0  0  0  0  0
   11.2295  -17.6832   23.8058 O   0  0  0  0  0  0  0  0  0  0  0  0
  2  3  1  6
  2  1  1  0
  4  2  1  0
  5  4  1  0
  5  6  1  6
  7  5  1  0
  8  7  2  0
 10  9  1  1
 10 12  1  0
 10 11  1  0
 11  7  1  0
 12 13  2  0
 14 15  1  0
 14 12  1  0
 16 17  1  0
 15 16  1  1
 17 18  2  0
 18 19  1  0
 20 19  1  0
 21 20  2  0
 22 21  1  0
 23 24  1  0
 23 22  2  0
 24 25  2  0
 25 17  1  0
 25 20  1  0
 26 27  1  0
 26 15  1  0
 28 26  2  0
M  END
$$$$
