LAW.pdb
     RDKit          3D

 28 29  0  0  1  0  0  0  0  0999 V2000
    9.2127  -12.6870   18.9948 C   0  0  0  0  0  0  0  0  0  0  0  0
    7.8649  -13.4175   19.0796 C   0  0  2  0  0  0  0  0  0  0  0  0
    6.8246  -12.3705   19.3440 C   0  0  0  0  0  0  0  0  0  0  0  0
    7.9345  -14.4830   20.1491 C   0  0  0  0  0  0  0  0  0  0  0  0
    9.0068  -15.4609   19.8053 C   0  0  2  0  0  0  0  0  0  0  0  0
    8.6943  -16.0830   18.5511 N   0  0  0  0  0  0  0  0  0  0  0  0
    9.3048  -16.4278   20.8776 C   0  0  0  0  0  0  0  0  0  0  0  0
    8.5597  -17.4240   21.0601 O   0  0  0  0  0  0  0  0  0  0  0  0
   11.7043  -18.1766   22.6381 C   0  0  0  0  0  0  0  0  0  0  0  0
   10.6060  -17.1855   22.8978 C   0  0  2  0  0  0  0  0  0  0  0  0
   10.4225  -16.3125   21.7608 N   0  0  0  0  0  0  0  0  0  0  0  0
   10.9453  -16.4195   24.1297 C   0  0  0  0  0  0  0  0  0  0  0  0
   12.1613  -16.1619   24.4382 O   0  0  0  0  0  0  0  0  0  0  0  0
    9.9724  -15.9339   25.0249 N   0  0  0  0  0  0  0  0  0  0  0  0
    9.8716  -16.4517   26.4003 C   0  0  1  0  0  0  0  0  0  0  0  0
    8.4153  -16.7887   26.5594 C   0  0  0  0  0  0  0  0  0  0  0  0
    7.4574  -15.7083   26.4994 C   0  0  0  0  0  0  0  0  0  0  0  0
    6.0900  -15.8689   26.3756 C   0  0  0  0  0  0  0  0  0  0  0  0
    5.5039  -14.6652   26.3160 N   0  0  0  0  0  0  0  0  0  0  0  0
    6.4600  -13.7325   26.3992 C   0  0  0  0  0  0  0  0  0  0  0  0
    6.4352  -12.3497   26.4060 C   0  0  0  0  0  0  0  0  0  0  0  0
    7.5906  -11.6013   26.5248 C   0  0  0  0  0  0  0  0  0  0  0  0
    8.8049  -12.2531   26.6401 C   0  0  0  0  0  0  0  0  0  0  0  0
    8.8537  -13.6066   26.6352 C   0  0  0  0  0  0  0  0  0  0  0  0
    7.7008  -14.3563   26.5159 C   0  0  0  0  0  0  0  0  0  0  0  0
   10.7394  -17.6223   26.5838 C   0  0  0  0  0  0  0  0  0  0  0  0
   11.6066  -17.7259   27.6800 O   0  0  0  0  0  0  0  0  0  0  0  0
   10.7683  -18.5963   25.7900 O   0  0  0  0  0  0  0  0  0  0  0  0
  2  3  1  1
  2  1  1  0
  4  2  1  0
  5  4  1  0
  5  6  1  6
  7  5  1  0
  8  7  2  0
 10  9  1  6
 10 12  1  0
 10 11  1  0
 11  7  1  0
 12 13  2  0
 14 15  1  0
 14 12  1  0
 16 17  1  0
 15 16  1  6
 17 18  2  0
 18 19  1  0
 20 19  1  0
 21 20  2  0
 22 21  1  0
 23 24  1  0
 23 22  2  0
 24 25  2  0
 25 17  1  0
 25 20  1  0
 26 27  1  0
 26 15  1  0
 28 26  2  0
M  END
$$$$
