LAW.pdb
     RDKit          3D

 28 29  0  0  1  0  0  0  0  0999 V2000
    9.5921  -20.8597   18.7062 C   0  0  0  0  0  0  0  0  0  0  0  0
    8.3349  -20.1733   18.1530 C   0  0  2  0  0  0  0  0  0  0  0  0
    8.2484  -20.5401   16.7017 C   0  0  0  0  0  0  0  0  0  0  0  0
    8.4247  -18.6843   18.3951 C   0  0  0  0  0  0  0  0  0  0  0  0
    8.4541  -18.4216   19.8630 C   0  0  2  0  0  0  0  0  0  0  0  0
    7.2438  -18.9136   20.4551 N   0  0  0  0  0  0  0  0  0  0  0  0
    8.7495  -17.0213   20.2172 C   0  0  0  0  0  0  0  0  0  0  0  0
    9.8742  -16.5236   19.9562 O   0  0  0  0  0  0  0  0  0  0  0  0
    6.8931  -13.9626   21.3530 C   0  0  0  0  0  0  0  0  0  0  0  0
    8.1395  -14.7893   21.2141 C   0  0  2  0  0  0  0  0  0  0  0  0
    7.8150  -16.1525   20.8609 N   0  0  0  0  0  0  0  0  0  0  0  0
    8.8958  -14.7188   22.4957 C   0  0  0  0  0  0  0  0  0  0  0  0
    9.4069  -13.6185   22.9060 O   0  0  0  0  0  0  0  0  0  0  0  0
    9.0986  -15.8349   23.3306 N   0  0  0  0  0  0  0  0  0  0  0  0
    9.9307  -15.7428   24.5427 C   0  0  1  0  0  0  0  0  0  0  0  0
    8.9898  -16.0949   25.6609 C   0  0  0  0  0  0  0  0  0  0  0  0
    7.8358  -15.2503   25.8692 C   0  0  0  0  0  0  0  0  0  0  0  0
    6.5216  -15.6704   25.7826 C   0  0  0  0  0  0  0  0  0  0  0  0
    5.7062  -14.6290   25.9980 N   0  0  0  0  0  0  0  0  0  0  0  0
    6.4625  -13.5480   26.2222 C   0  0  0  0  0  0  0  0  0  0  0  0
    6.1655  -12.2285   26.5115 C   0  0  0  0  0  0  0  0  0  0  0  0
    7.1560  -11.2888   26.7232 C   0  0  0  0  0  0  0  0  0  0  0  0
    8.4806  -11.6785   26.6436 C   0  0  0  0  0  0  0  0  0  0  0  0
    8.7954  -12.9651   26.3609 C   0  0  0  0  0  0  0  0  0  0  0  0
    7.8076  -13.9055   26.1484 C   0  0  0  0  0  0  0  0  0  0  0  0
   11.0738  -16.6617   24.4638 C   0  0  0  0  0  0  0  0  0  0  0  0
   12.0796  -16.6640   25.4398 O   0  0  0  0  0  0  0  0  0  0  0  0
   11.2315  -17.4955   23.5368 O   0  0  0  0  0  0  0  0  0  0  0  0
  2  3  1  6
  2  1  1  0
  4  2  1  0
  5  4  1  0
  5  6  1  6
  7  5  1  0
  8  7  2  0
 10  9  1  1
 10 12  1  0
 10 11  1  0
 11  7  1  0
 12 13  2  0
 14 15  1  0
 14 12  1  0
 16 17  1  0
 15 16  1  1
 17 18  2  0
 18 19  1  0
 20 19  1  0
 21 20  2  0
 22 21  1  0
 23 24  1  0
 23 22  2  0
 24 25  2  0
 25 17  1  0
 25 20  1  0
 26 27  1  0
 26 15  1  0
 28 26  2  0
M  END
$$$$
