MNC.pdb
     RDKit          3D

 23 22  0  0  1  0  0  0  0  0999 V2000
   28.5508  -12.9498  -15.3604 C   0  0  0  0  0  0  0  0  0  0  0  0
   26.9191  -13.7022  -15.4297 S   0  0  0  0  0  0  0  0  0  0  0  0
   26.3416  -13.7429  -17.1434 C   0  0  0  0  0  0  0  0  0  0  0  0
   25.7136  -12.4218  -17.5377 C   0  0  0  0  0  0  0  0  0  0  0  0
   24.5875  -12.1056  -16.5639 C   0  0  2  0  0  0  0  0  0  0  0  0
   23.5780  -13.1481  -16.6498 N   0  0  0  0  0  0  0  0  0  0  0  0
   24.0164  -10.8124  -16.9786 C   0  0  0  0  0  0  0  0  0  0  0  0
   24.7654   -9.8383  -17.1928 O   0  0  0  0  0  0  0  0  0  0  0  0
   20.1512  -11.1098  -20.0717 N   0  0  0  0  0  0  0  0  0  0  0  0
   20.9587  -10.0855  -19.5404 C   0  0  0  0  0  0  0  0  0  0  0  0
   21.8919   -9.5750  -20.2153 O   0  0  0  0  0  0  0  0  0  0  0  0
   20.7163   -9.5917  -18.1664 C   0  0  0  0  0  0  0  0  0  0  0  0
   22.0780   -9.3949  -17.5200 C   0  0  2  0  0  0  0  0  0  0  0  0
   22.6258  -10.6696  -17.1342 N   0  0  0  0  0  0  0  0  0  0  0  0
   21.9348   -8.5099  -16.3386 C   0  0  0  0  0  0  0  0  0  0  0  0
   21.5725   -8.9644  -15.2307 O   0  0  0  0  0  0  0  0  0  0  0  0
   22.2098   -7.1202  -16.4481 N   0  0  0  0  0  0  0  0  0  0  0  0
   22.1745   -6.2819  -15.2788 C   0  0  1  0  0  0  0  0  0  0  0  0
   22.9527   -4.9791  -15.5182 C   0  0  0  0  0  0  0  0  0  0  0  0
   22.8572   -4.0517  -13.9536 S   0  0  0  0  0  0  0  0  0  0  0  0
   20.7886   -5.8622  -14.9424 C   0  0  0  0  0  0  0  0  0  0  0  0
   19.9883   -5.4712  -15.8020 O   0  0  0  0  0  0  0  0  0  0  0  0
   20.4075   -5.9218  -13.6099 O   0  0  0  0  0  0  0  0  0  0  0  0
  2  1  1  0
  3  2  1  0
  4  3  1  0
  5  7  1  0
  5  4  1  0
  5  6  1  6
  7  8  2  0
 10  9  1  0
 11 10  2  0
 12 10  1  0
 13 12  1  1
 13 15  1  0
 14 13  1  0
 14  7  1  0
 15 16  2  0
 15 17  1  0
 17 18  1  0
 18 21  1  0
 18 19  1  6
 20 19  1  0
 21 22  2  0
 21 23  1  0
M  END
$$$$
