MNC.pdb
     RDKit          3D

 23 22  0  0  1  0  0  0  0  0999 V2000
   11.0672  -26.6234  -11.1642 C   0  0  0  0  0  0  0  0  0  0  0  0
   11.3250  -26.2931  -12.9129 S   0  0  0  0  0  0  0  0  0  0  0  0
   13.0827  -25.9991  -13.2226 C   0  0  0  0  0  0  0  0  0  0  0  0
   13.8705  -25.9970  -11.9286 C   0  0  0  0  0  0  0  0  0  0  0  0
   15.3201  -25.6525  -12.2391 C   0  0  2  0  0  0  0  0  0  0  0  0
   15.7585  -26.4306  -13.3861 N   0  0  0  0  0  0  0  0  0  0  0  0
   16.1087  -26.0166  -11.0491 C   0  0  0  0  0  0  0  0  0  0  0  0
   16.0446  -27.1733  -10.5867 O   0  0  0  0  0  0  0  0  0  0  0  0
   20.2493  -25.9940  -10.9200 N   0  0  0  0  0  0  0  0  0  0  0  0
   19.6968  -24.7470  -10.5691 C   0  0  0  0  0  0  0  0  0  0  0  0
   19.7752  -23.7577  -11.3451 O   0  0  0  0  0  0  0  0  0  0  0  0
   19.0091  -24.5835   -9.2687 C   0  0  0  0  0  0  0  0  0  0  0  0
   17.7621  -25.4517   -9.3151 C   0  0  2  0  0  0  0  0  0  0  0  0
   16.9361  -25.0632  -10.4289 N   0  0  0  0  0  0  0  0  0  0  0  0
   17.0189  -25.3079   -8.0398 C   0  0  0  0  0  0  0  0  0  0  0  0
   16.2800  -24.3203   -7.8301 O   0  0  0  0  0  0  0  0  0  0  0  0
   17.1357  -26.2986   -7.0280 N   0  0  0  0  0  0  0  0  0  0  0  0
   16.3671  -26.1886   -5.8163 C   0  0  1  0  0  0  0  0  0  0  0  0
   16.5960  -27.4098   -4.9126 C   0  0  0  0  0  0  0  0  0  0  0  0
   18.4030  -27.6047   -4.7936 S   0  0  0  0  0  0  0  0  0  0  0  0
   16.7783  -25.0113   -5.0070 C   0  0  0  0  0  0  0  0  0  0  0  0
   17.7779  -24.3352   -5.2824 O   0  0  0  0  0  0  0  0  0  0  0  0
   15.9943  -24.6831   -3.9105 O   0  0  0  0  0  0  0  0  0  0  0  0
  2  1  1  0
  3  2  1  0
  4  3  1  0
  5  7  1  0
  5  4  1  0
  5  6  1  6
  7  8  2  0
 10  9  1  0
 11 10  2  0
 12 10  1  0
 13 12  1  1
 13 15  1  0
 14 13  1  0
 14  7  1  0
 15 16  2  0
 15 17  1  0
 17 18  1  0
 18 21  1  0
 18 19  1  1
 20 19  1  0
 21 22  2  0
 21 23  1  0
M  END
$$$$
