MNC.pdb
     RDKit          3D

 23 22  0  0  1  0  0  0  0  0999 V2000
   28.5368  -19.1717  -13.8869 C   0  0  0  0  0  0  0  0  0  0  0  0
   28.4605  -20.0512  -12.3203 S   0  0  0  0  0  0  0  0  0  0  0  0
   27.0809  -21.2208  -12.3471 C   0  0  0  0  0  0  0  0  0  0  0  0
   25.7813  -20.5217  -12.6896 C   0  0  0  0  0  0  0  0  0  0  0  0
   24.6618  -21.5527  -12.7094 C   0  0  2  0  0  0  0  0  0  0  0  0
   25.2104  -22.8429  -13.0934 N   0  0  0  0  0  0  0  0  0  0  0  0
   23.6833  -21.0995  -13.7132 C   0  0  0  0  0  0  0  0  0  0  0  0
   23.7849  -21.4739  -14.8986 O   0  0  0  0  0  0  0  0  0  0  0  0
   18.1597  -19.3183  -14.8461 N   0  0  0  0  0  0  0  0  0  0  0  0
   19.4101  -19.9105  -15.1094 C   0  0  0  0  0  0  0  0  0  0  0  0
   19.7952  -20.1228  -16.2899 O   0  0  0  0  0  0  0  0  0  0  0  0
   20.2964  -20.2941  -13.9878 C   0  0  0  0  0  0  0  0  0  0  0  0
   21.6900  -19.7953  -14.3340 C   0  0  2  0  0  0  0  0  0  0  0  0
   22.6313  -20.2433  -13.3407 N   0  0  0  0  0  0  0  0  0  0  0  0
   21.6746  -18.3142  -14.4071 C   0  0  0  0  0  0  0  0  0  0  0  0
   21.4751  -17.6187  -13.3865 O   0  0  0  0  0  0  0  0  0  0  0  0
   21.8885  -17.6568  -15.6485 N   0  0  0  0  0  0  0  0  0  0  0  0
   21.8829  -16.2192  -15.7157 C   0  0  1  0  0  0  0  0  0  0  0  0
   23.2098  -15.6948  -16.2856 C   0  0  0  0  0  0  0  0  0  0  0  0
   24.4625  -16.0257  -15.0055 S   0  0  0  0  0  0  0  0  0  0  0  0
   20.8278  -15.7138  -16.6331 C   0  0  0  0  0  0  0  0  0  0  0  0
   20.5235  -16.3012  -17.6794 O   0  0  0  0  0  0  0  0  0  0  0  0
   20.1787  -14.5406  -16.2773 O   0  0  0  0  0  0  0  0  0  0  0  0
  2  1  1  0
  3  2  1  0
  4  3  1  0
  5  7  1  0
  5  4  1  0
  5  6  1  6
  7  8  2  0
 10  9  1  0
 11 10  2  0
 12 10  1  0
 13 12  1  1
 13 15  1  0
 14 13  1  0
 14  7  1  0
 15 16  2  0
 15 17  1  0
 17 18  1  0
 18 21  1  0
 18 19  1  6
 20 19  1  0
 21 22  2  0
 21 23  1  0
M  END
$$$$
