MNC.pdb
     RDKit          3D

 23 22  0  0  1  0  0  0  0  0999 V2000
   28.5360  -10.3369  -16.8366 C   0  0  0  0  0  0  0  0  0  0  0  0
   27.8823  -11.8685  -16.1581 S   0  0  0  0  0  0  0  0  0  0  0  0
   26.5329  -12.4683  -17.2028 C   0  0  0  0  0  0  0  0  0  0  0  0
   25.4807  -11.3967  -17.4013 C   0  0  0  0  0  0  0  0  0  0  0  0
   24.9037  -11.0203  -16.0441 C   0  0  2  0  0  0  0  0  0  0  0  0
   24.3807  -12.2150  -15.4020 N   0  0  0  0  0  0  0  0  0  0  0  0
   23.8133  -10.0622  -16.2958 C   0  0  0  0  0  0  0  0  0  0  0  0
   24.0334   -9.0220  -16.9481 O   0  0  0  0  0  0  0  0  0  0  0  0
   18.4381   -9.2070  -17.5741 N   0  0  0  0  0  0  0  0  0  0  0  0
   19.0710   -9.1073  -16.3198 C   0  0  0  0  0  0  0  0  0  0  0  0
   18.7679   -8.1932  -15.5077 O   0  0  0  0  0  0  0  0  0  0  0  0
   20.1116  -10.0879  -15.9376 C   0  0  0  0  0  0  0  0  0  0  0  0
   21.4539   -9.3909  -16.0894 C   0  0  2  0  0  0  0  0  0  0  0  0
   22.5206  -10.3146  -15.8021 N   0  0  0  0  0  0  0  0  0  0  0  0
   21.5082   -8.2293  -15.1691 C   0  0  0  0  0  0  0  0  0  0  0  0
   21.7601   -8.3796  -13.9528 O   0  0  0  0  0  0  0  0  0  0  0  0
   21.2731   -6.9165  -15.6591 N   0  0  0  0  0  0  0  0  0  0  0  0
   21.4650   -5.7786  -14.7992 C   0  0  1  0  0  0  0  0  0  0  0  0
   22.4871   -4.8042  -15.4041 C   0  0  0  0  0  0  0  0  0  0  0  0
   22.6456   -3.4450  -14.2021 S   0  0  0  0  0  0  0  0  0  0  0  0
   20.2135   -4.9929  -14.6362 C   0  0  0  0  0  0  0  0  0  0  0  0
   20.1292   -4.0369  -13.8543 O   0  0  0  0  0  0  0  0  0  0  0  0
   19.1183   -5.3678  -15.4007 O   0  0  0  0  0  0  0  0  0  0  0  0
  2  1  1  0
  3  2  1  0
  4  3  1  0
  5  7  1  0
  5  4  1  0
  5  6  1  6
  7  8  2  0
 10  9  1  0
 11 10  2  0
 12 10  1  0
 13 12  1  1
 13 15  1  0
 14 13  1  0
 14  7  1  0
 15 16  2  0
 15 17  1  0
 17 18  1  0
 18 21  1  0
 18 19  1  6
 20 19  1  0
 21 22  2  0
 21 23  1  0
M  END
$$$$
