MNC.pdb
     RDKit          3D

 23 22  0  0  1  0  0  0  0  0999 V2000
   28.6657  -13.3662  -15.2392 C   0  0  0  0  0  0  0  0  0  0  0  0
   27.2678  -12.2390  -15.3326 S   0  0  0  0  0  0  0  0  0  0  0  0
   27.4979  -11.0998  -16.7187 C   0  0  0  0  0  0  0  0  0  0  0  0
   26.3704  -10.0904  -16.7865 C   0  0  0  0  0  0  0  0  0  0  0  0
   25.0495  -10.8389  -16.8926 C   0  0  2  0  0  0  0  0  0  0  0  0
   25.0448  -11.6239  -18.1161 N   0  0  0  0  0  0  0  0  0  0  0  0
   23.9856   -9.8208  -16.9402 C   0  0  0  0  0  0  0  0  0  0  0  0
   23.8409   -9.1152  -17.9585 O   0  0  0  0  0  0  0  0  0  0  0  0
   20.9131  -10.3939  -17.5187 N   0  0  0  0  0  0  0  0  0  0  0  0
   20.2257  -10.1509  -16.3137 C   0  0  0  0  0  0  0  0  0  0  0  0
   19.1217  -10.7064  -16.0697 O   0  0  0  0  0  0  0  0  0  0  0  0
   20.8005   -9.2291  -15.3085 C   0  0  0  0  0  0  0  0  0  0  0  0
   22.0761   -8.6597  -15.9081 C   0  0  2  0  0  0  0  0  0  0  0  0
   23.1294   -9.6392  -15.8392 N   0  0  0  0  0  0  0  0  0  0  0  0
   22.4573   -7.4314  -15.1696 C   0  0  0  0  0  0  0  0  0  0  0  0
   22.8541   -7.4868  -13.9844 O   0  0  0  0  0  0  0  0  0  0  0  0
   22.3773   -6.1620  -15.8027 N   0  0  0  0  0  0  0  0  0  0  0  0
   22.8501   -4.9843  -15.1239 C   0  0  1  0  0  0  0  0  0  0  0  0
   23.4096   -3.9642  -16.1272 C   0  0  0  0  0  0  0  0  0  0  0  0
   24.8829   -4.7469  -16.8581 S   0  0  0  0  0  0  0  0  0  0  0  0
   21.7520   -4.2805  -14.4104 C   0  0  0  0  0  0  0  0  0  0  0  0
   20.5579   -4.5101  -14.6423 O   0  0  0  0  0  0  0  0  0  0  0  0
   22.1091   -3.3388  -13.4564 O   0  0  0  0  0  0  0  0  0  0  0  0
  2  1  1  0
  3  2  1  0
  4  3  1  0
  5  7  1  0
  5  4  1  0
  5  6  1  6
  7  8  2  0
 10  9  1  0
 11 10  2  0
 12 10  1  0
 13 12  1  1
 13 15  1  0
 14 13  1  0
 14  7  1  0
 15 16  2  0
 15 17  1  0
 17 18  1  0
 18 21  1  0
 18 19  1  6
 20 19  1  0
 21 22  2  0
 21 23  1  0
M  END
$$$$
