MNC.pdb
     RDKit          3D

 23 22  0  0  1  0  0  0  0  0999 V2000
   29.6558  -19.5022   -7.1027 C   0  0  0  0  0  0  0  0  0  0  0  0
   28.3426  -19.5473   -5.8752 S   0  0  0  0  0  0  0  0  0  0  0  0
   26.7352  -19.5117   -6.7039 C   0  0  0  0  0  0  0  0  0  0  0  0
   26.7141  -20.4525   -7.8912 C   0  0  0  0  0  0  0  0  0  0  0  0
   25.3847  -20.2959   -8.6157 C   0  0  2  0  0  0  0  0  0  0  0  0
   24.3054  -20.6617   -7.7131 N   0  0  0  0  0  0  0  0  0  0  0  0
   25.4160  -21.2153   -9.7664 C   0  0  0  0  0  0  0  0  0  0  0  0
   24.9213  -22.3561   -9.6686 O   0  0  0  0  0  0  0  0  0  0  0  0
   22.4487  -19.9578  -14.1237 N   0  0  0  0  0  0  0  0  0  0  0  0
   23.1792  -20.8756  -13.3442 C   0  0  0  0  0  0  0  0  0  0  0  0
   23.2145  -22.0995  -13.6406 O   0  0  0  0  0  0  0  0  0  0  0  0
   23.9229  -20.4059  -12.1539 C   0  0  0  0  0  0  0  0  0  0  0  0
   25.3054  -21.0347  -12.2190 C   0  0  2  0  0  0  0  0  0  0  0  0
   26.0034  -20.8122  -10.9792 N   0  0  0  0  0  0  0  0  0  0  0  0
   26.0571  -20.4457  -13.3535 C   0  0  0  0  0  0  0  0  0  0  0  0
   26.2586  -19.2130  -13.4249 O   0  0  0  0  0  0  0  0  0  0  0  0
   26.5648  -21.2800  -14.3855 N   0  0  0  0  0  0  0  0  0  0  0  0
   27.4270  -20.7325  -15.3994 C   0  0  1  0  0  0  0  0  0  0  0  0
   28.3424  -21.8201  -15.9821 C   0  0  0  0  0  0  0  0  0  0  0  0
   29.3174  -22.4498  -14.5784 S   0  0  0  0  0  0  0  0  0  0  0  0
   26.6543  -20.2018  -16.5532 C   0  0  0  0  0  0  0  0  0  0  0  0
   25.4184  -20.2518  -16.6015 O   0  0  0  0  0  0  0  0  0  0  0  0
   27.3711  -19.6362  -17.5976 O   0  0  0  0  0  0  0  0  0  0  0  0
  2  1  1  0
  3  2  1  0
  4  3  1  0
  5  7  1  0
  5  4  1  0
  5  6  1  1
  7  8  2  0
 10  9  1  0
 11 10  2  0
 12 10  1  0
 13 12  1  1
 13 15  1  0
 14 13  1  0
 14  7  1  0
 15 16  2  0
 15 17  1  0
 17 18  1  0
 18 21  1  0
 18 19  1  6
 20 19  1  0
 21 22  2  0
 21 23  1  0
M  END
$$$$
