MNC.pdb
     RDKit          3D

 23 22  0  0  1  0  0  0  0  0999 V2000
   18.4025  -13.0770  -16.9037 C   0  0  0  0  0  0  0  0  0  0  0  0
   19.5872  -14.2756  -17.5308 S   0  0  0  0  0  0  0  0  0  0  0  0
   20.7039  -13.4695  -18.7034 C   0  0  0  0  0  0  0  0  0  0  0  0
   21.5429  -12.4115  -18.0166 C   0  0  0  0  0  0  0  0  0  0  0  0
   22.3623  -11.6780  -19.0687 C   0  0  2  0  0  0  0  0  0  0  0  0
   23.5163  -12.4881  -19.4226 N   0  0  0  0  0  0  0  0  0  0  0  0
   22.8011  -10.4105  -18.4594 C   0  0  0  0  0  0  0  0  0  0  0  0
   23.8931  -10.3504  -17.8595 O   0  0  0  0  0  0  0  0  0  0  0  0
   24.1407   -5.2572  -18.5642 N   0  0  0  0  0  0  0  0  0  0  0  0
   22.7959   -5.6617  -18.4567 C   0  0  0  0  0  0  0  0  0  0  0  0
   21.9531   -4.9634  -17.8329 O   0  0  0  0  0  0  0  0  0  0  0  0
   22.3529   -6.9270  -19.0837 C   0  0  0  0  0  0  0  0  0  0  0  0
   22.4683   -8.0106  -18.0238 C   0  0  2  0  0  0  0  0  0  0  0  0
   21.9921   -9.2634  -18.5504 N   0  0  0  0  0  0  0  0  0  0  0  0
   21.6813   -7.6134  -16.8313 C   0  0  0  0  0  0  0  0  0  0  0  0
   20.4405   -7.7693  -16.7945 O   0  0  0  0  0  0  0  0  0  0  0  0
   22.3304   -7.0452  -15.7023 N   0  0  0  0  0  0  0  0  0  0  0  0
   21.5668   -6.6736  -14.5404 C   0  0  1  0  0  0  0  0  0  0  0  0
   21.5335   -7.8215  -13.5199 C   0  0  0  0  0  0  0  0  0  0  0  0
   23.2753   -8.2171  -13.1639 S   0  0  0  0  0  0  0  0  0  0  0  0
   22.1763   -5.5218  -13.8248 C   0  0  0  0  0  0  0  0  0  0  0  0
   23.2006   -4.9573  -14.2304 O   0  0  0  0  0  0  0  0  0  0  0  0
   21.5526   -5.0865  -12.6646 O   0  0  0  0  0  0  0  0  0  0  0  0
  2  1  1  0
  3  2  1  0
  4  3  1  0
  5  7  1  0
  5  4  1  0
  5  6  1  1
  7  8  2  0
 10  9  1  0
 11 10  2  0
 12 10  1  0
 13 12  1  6
 13 15  1  0
 14 13  1  0
 14  7  1  0
 15 16  2  0
 15 17  1  0
 17 18  1  0
 18 21  1  0
 18 19  1  1
 20 19  1  0
 21 22  2  0
 21 23  1  0
M  END
$$$$
