MNC.pdb
     RDKit          3D

 23 22  0  0  1  0  0  0  0  0999 V2000
   27.7199  -18.7958   -6.6691 C   0  0  0  0  0  0  0  0  0  0  0  0
   27.5367  -20.5830   -6.5928 S   0  0  0  0  0  0  0  0  0  0  0  0
   27.7072  -21.2824   -8.2523 C   0  0  0  0  0  0  0  0  0  0  0  0
   26.6875  -20.6868   -9.2013 C   0  0  0  0  0  0  0  0  0  0  0  0
   26.9069  -21.2757  -10.5874 C   0  0  2  0  0  0  0  0  0  0  0  0
   28.2658  -20.9884  -11.0164 N   0  0  0  0  0  0  0  0  0  0  0  0
   25.9425  -20.6188  -11.4868 C   0  0  0  0  0  0  0  0  0  0  0  0
   26.0493  -19.4013  -11.7359 O   0  0  0  0  0  0  0  0  0  0  0  0
   22.9613  -19.5336  -15.1457 N   0  0  0  0  0  0  0  0  0  0  0  0
   23.9479  -20.4680  -15.5158 C   0  0  0  0  0  0  0  0  0  0  0  0
   24.2556  -20.6469  -16.7242 O   0  0  0  0  0  0  0  0  0  0  0  0
   24.6428  -21.2593  -14.4758 C   0  0  0  0  0  0  0  0  0  0  0  0
   24.1181  -20.7814  -13.1315 C   0  0  2  0  0  0  0  0  0  0  0  0
   24.8977  -21.3598  -12.0678 N   0  0  0  0  0  0  0  0  0  0  0  0
   22.6914  -21.1640  -12.9997 C   0  0  0  0  0  0  0  0  0  0  0  0
   22.3268  -22.3539  -13.1280 O   0  0  0  0  0  0  0  0  0  0  0  0
   21.7084  -20.1762  -12.7229 N   0  0  0  0  0  0  0  0  0  0  0  0
   20.3422  -20.5621  -12.4863 C   0  0  1  0  0  0  0  0  0  0  0  0
   19.5640  -19.4245  -11.8077 C   0  0  0  0  0  0  0  0  0  0  0  0
   17.9180  -20.1075  -11.4313 S   0  0  0  0  0  0  0  0  0  0  0  0
   19.6190  -20.8379  -13.7555 C   0  0  0  0  0  0  0  0  0  0  0  0
   18.8192  -21.7756  -13.8714 O   0  0  0  0  0  0  0  0  0  0  0  0
   19.8696  -19.9976  -14.8305 O   0  0  0  0  0  0  0  0  0  0  0  0
  2  1  1  0
  3  2  1  0
  4  3  1  0
  5  7  1  0
  5  4  1  0
  5  6  1  6
  7  8  2  0
 10  9  1  0
 11 10  2  0
 12 10  1  0
 13 12  1  6
 13 15  1  0
 14 13  1  0
 14  7  1  0
 15 16  2  0
 15 17  1  0
 17 18  1  0
 18 21  1  0
 18 19  1  6
 20 19  1  0
 21 22  2  0
 21 23  1  0
M  END
$$$$
