DHG.pdb
     RDKit          3D

 23 23  0  0  1  0  0  0  0  0999 V2000
    7.4520  -16.4170   21.4628 N   0  0  0  0  0  0  0  0  0  0  0  0
    8.6947  -15.6864   21.5777 C   0  0  1  0  0  0  0  0  0  0  0  0
    8.5186  -14.3621   20.8699 C   0  0  0  0  0  0  0  0  0  0  0  0
    8.3746  -14.5743   19.4068 C   0  0  0  0  0  0  0  0  0  0  0  0
    8.6824  -15.6659   18.8816 O   0  0  0  0  0  0  0  0  0  0  0  0
    9.0196  -15.5075   23.0129 C   0  0  0  0  0  0  0  0  0  0  0  0
   10.0508  -14.8648   23.3640 O   0  0  0  0  0  0  0  0  0  0  0  0
    7.8951  -13.5722   18.5762 O   0  0  0  0  0  0  0  0  0  0  0  0
    8.2072  -16.0369   24.0515 N   0  0  0  0  0  0  0  0  0  0  0  0
    8.5957  -16.0976   25.4232 C   0  0  1  0  0  0  0  0  0  0  0  0
    7.3683  -15.7247   26.2564 C   0  0  0  0  0  0  0  0  0  0  0  0
    7.0772  -14.2943   26.0303 C   0  0  0  0  0  0  0  0  0  0  0  0
    7.7092  -13.2018   26.6048 C   0  0  0  0  0  0  0  0  0  0  0  0
    7.1480  -12.0793   26.1353 N   0  0  0  0  0  0  0  0  0  0  0  0
    6.1835  -12.4766   25.2832 C   0  0  0  0  0  0  0  0  0  0  0  0
    6.1387  -13.8146   25.2181 N   0  0  0  0  0  0  0  0  0  0  0  0
    9.0769  -17.4010   25.8696 C   0  0  0  0  0  0  0  0  0  0  0  0
    8.4292  -18.4408   25.6347 O   0  0  0  0  0  0  0  0  0  0  0  0
   10.2992  -17.4895   26.5818 N   0  0  0  0  0  0  0  0  0  0  0  0
   10.9654  -18.7561   26.8316 C   0  0  0  0  0  0  0  0  0  0  0  0
   11.2087  -18.8539   28.2825 C   0  0  0  0  0  0  0  0  0  0  0  0
   10.8351  -17.9161   29.0394 O   0  0  0  0  0  0  0  0  0  0  0  0
   11.8379  -19.9435   28.8637 O   0  0  0  0  0  0  0  0  0  0  0  0
  2  1  1  1
  2  3  1  0
  3  4  1  0
  4  8  1  0
  5  4  2  0
  6  9  1  0
  6  2  1  0
  7  6  2  0
 10 17  1  0
 10  9  1  0
 11 12  1  0
 10 11  1  1
 12 16  1  0
 13 14  1  0
 13 12  2  0
 14 15  1  0
 15 16  2  0
 17 19  1  0
 18 17  2  0
 19 20  1  0
 20 21  1  0
 21 22  2  0
 21 23  1  0
M  END
$$$$
