DHG.pdb
     RDKit          3D

 23 23  0  0  1  0  0  0  0  0999 V2000
   10.0014  -17.5741   17.4910 N   0  0  0  0  0  0  0  0  0  0  0  0
   11.1222  -16.6823   17.2918 C   0  0  1  0  0  0  0  0  0  0  0  0
   10.8726  -15.9046   16.0196 C   0  0  0  0  0  0  0  0  0  0  0  0
   10.9346  -16.8080   14.8421 C   0  0  0  0  0  0  0  0  0  0  0  0
   10.6200  -18.0137   14.9390 O   0  0  0  0  0  0  0  0  0  0  0  0
   11.2461  -15.7909   18.4696 C   0  0  0  0  0  0  0  0  0  0  0  0
   12.1300  -14.8867   18.5022 O   0  0  0  0  0  0  0  0  0  0  0  0
   11.3419  -16.3464   13.5991 O   0  0  0  0  0  0  0  0  0  0  0  0
   10.3964  -15.9005   19.6031 N   0  0  0  0  0  0  0  0  0  0  0  0
   10.4687  -15.0497   20.7464 C   0  0  1  0  0  0  0  0  0  0  0  0
    9.0483  -14.5604   21.0349 C   0  0  0  0  0  0  0  0  0  0  0  0
    8.5302  -13.9095   19.8142 C   0  0  0  0  0  0  0  0  0  0  0  0
    8.6900  -12.5872   19.4283 C   0  0  0  0  0  0  0  0  0  0  0  0
    8.0673  -12.3985   18.2570 N   0  0  0  0  0  0  0  0  0  0  0  0
    7.5317  -13.5896   17.9270 C   0  0  0  0  0  0  0  0  0  0  0  0
    7.8100  -14.5041   18.8665 N   0  0  0  0  0  0  0  0  0  0  0  0
   10.9917  -15.6827   21.9528 C   0  0  0  0  0  0  0  0  0  0  0  0
   10.2325  -16.2577   22.7583 O   0  0  0  0  0  0  0  0  0  0  0  0
   12.3840  -15.6448   22.2158 N   0  0  0  0  0  0  0  0  0  0  0  0
   12.9863  -16.3577   23.3291 C   0  0  0  0  0  0  0  0  0  0  0  0
   14.4196  -16.0128   23.3570 C   0  0  0  0  0  0  0  0  0  0  0  0
   15.1373  -16.2593   22.3489 O   0  0  0  0  0  0  0  0  0  0  0  0
   15.0256  -15.4218   24.4544 O   0  0  0  0  0  0  0  0  0  0  0  0
  2  1  1  1
  2  3  1  0
  3  4  1  0
  4  8  1  0
  5  4  2  0
  6  9  1  0
  6  2  1  0
  7  6  2  0
 10 17  1  0
 10  9  1  0
 11 12  1  0
 10 11  1  1
 12 16  1  0
 13 14  1  0
 13 12  2  0
 14 15  1  0
 15 16  2  0
 17 19  1  0
 18 17  2  0
 19 20  1  0
 20 21  1  0
 21 22  2  0
 21 23  1  0
M  END
$$$$
