DHG.pdb
     RDKit          3D

 23 23  0  0  1  0  0  0  0  0999 V2000
    9.9640  -18.0621   20.7111 N   0  0  0  0  0  0  0  0  0  0  0  0
   11.0267  -17.1646   21.1067 C   0  0  1  0  0  0  0  0  0  0  0  0
   11.7526  -16.7285   19.8542 C   0  0  0  0  0  0  0  0  0  0  0  0
   12.3532  -17.9027   19.1708 C   0  0  0  0  0  0  0  0  0  0  0  0
   12.8773  -18.8295   19.8254 O   0  0  0  0  0  0  0  0  0  0  0  0
   10.4417  -16.0141   21.8357 C   0  0  0  0  0  0  0  0  0  0  0  0
   11.1700  -15.0477   22.2036 O   0  0  0  0  0  0  0  0  0  0  0  0
   12.3527  -18.0108   17.7879 O   0  0  0  0  0  0  0  0  0  0  0  0
    9.0593  -15.9352   22.1546 N   0  0  0  0  0  0  0  0  0  0  0  0
    8.4402  -14.8064   22.7701 C   0  0  1  0  0  0  0  0  0  0  0  0
    7.1231  -14.5569   22.0333 C   0  0  0  0  0  0  0  0  0  0  0  0
    7.4291  -14.3497   20.6031 C   0  0  0  0  0  0  0  0  0  0  0  0
    7.8337  -13.1753   19.9866 C   0  0  0  0  0  0  0  0  0  0  0  0
    8.0080  -13.4092   18.6789 N   0  0  0  0  0  0  0  0  0  0  0  0
    7.7144  -14.7108   18.4938 C   0  0  0  0  0  0  0  0  0  0  0  0
    7.3643  -15.2811   19.6551 N   0  0  0  0  0  0  0  0  0  0  0  0
    8.1503  -14.9625   24.1919 C   0  0  0  0  0  0  0  0  0  0  0  0
    7.4052  -14.1595   24.7883 O   0  0  0  0  0  0  0  0  0  0  0  0
    8.7234  -16.0428   24.9085 N   0  0  0  0  0  0  0  0  0  0  0  0
    8.4699  -16.2617   26.3222 C   0  0  0  0  0  0  0  0  0  0  0  0
    9.4592  -17.2418   26.8065 C   0  0  0  0  0  0  0  0  0  0  0  0
    9.4025  -17.6427   28.0016 O   0  0  0  0  0  0  0  0  0  0  0  0
   10.4640  -17.7516   25.9995 O   0  0  0  0  0  0  0  0  0  0  0  0
  2  1  1  6
  2  3  1  0
  3  4  1  0
  4  8  1  0
  5  4  2  0
  6  9  1  0
  6  2  1  0
  7  6  2  0
 10 17  1  0
 10  9  1  0
 11 12  1  0
 10 11  1  6
 12 16  1  0
 13 14  1  0
 13 12  2  0
 14 15  1  0
 15 16  2  0
 17 19  1  0
 18 17  2  0
 19 20  1  0
 20 21  1  0
 21 22  2  0
 21 23  1  0
M  END
$$$$
