DHG.pdb
     RDKit          3D

 23 23  0  0  1  0  0  0  0  0999 V2000
   10.4410  -16.5771   16.8680 N   0  0  0  0  0  0  0  0  0  0  0  0
   10.9804  -17.2501   18.0288 C   0  0  1  0  0  0  0  0  0  0  0  0
   12.4011  -17.6560   17.7081 C   0  0  0  0  0  0  0  0  0  0  0  0
   12.4185  -18.6310   16.5875 C   0  0  0  0  0  0  0  0  0  0  0  0
   12.8077  -18.2950   15.4484 O   0  0  0  0  0  0  0  0  0  0  0  0
   10.9163  -16.3338   19.1922 C   0  0  0  0  0  0  0  0  0  0  0  0
   11.5917  -15.2645   19.2072 O   0  0  0  0  0  0  0  0  0  0  0  0
   12.0053  -19.9430   16.7663 O   0  0  0  0  0  0  0  0  0  0  0  0
   10.1094  -16.6006   20.3308 N   0  0  0  0  0  0  0  0  0  0  0  0
   10.0233  -15.7481   21.4719 C   0  0  1  0  0  0  0  0  0  0  0  0
    8.5381  -15.4863   21.7282 C   0  0  0  0  0  0  0  0  0  0  0  0
    8.0190  -14.6615   20.6182 C   0  0  0  0  0  0  0  0  0  0  0  0
    7.2311  -15.0747   19.5545 C   0  0  0  0  0  0  0  0  0  0  0  0
    6.9758  -14.0204   18.7680 N   0  0  0  0  0  0  0  0  0  0  0  0
    7.5988  -12.9725   19.3408 C   0  0  0  0  0  0  0  0  0  0  0  0
    8.2298  -13.3574   20.4589 N   0  0  0  0  0  0  0  0  0  0  0  0
   10.6126  -16.2909   22.6917 C   0  0  0  0  0  0  0  0  0  0  0  0
    9.9243  -16.9388   23.5054 O   0  0  0  0  0  0  0  0  0  0  0  0
   11.9886  -16.0796   22.9583 N   0  0  0  0  0  0  0  0  0  0  0  0
   12.6498  -16.6339   24.1271 C   0  0  0  0  0  0  0  0  0  0  0  0
   14.0891  -16.3366   24.0086 C   0  0  0  0  0  0  0  0  0  0  0  0
   14.5267  -15.7944   22.9567 O   0  0  0  0  0  0  0  0  0  0  0  0
   14.9984  -16.6289   25.0129 O   0  0  0  0  0  0  0  0  0  0  0  0
  2  1  1  6
  2  3  1  0
  3  4  1  0
  4  8  1  0
  5  4  2  0
  6  9  1  0
  6  2  1  0
  7  6  2  0
 10 17  1  0
 10  9  1  0
 11 12  1  0
 10 11  1  1
 12 16  1  0
 13 14  1  0
 13 12  2  0
 14 15  1  0
 15 16  2  0
 17 19  1  0
 18 17  2  0
 19 20  1  0
 20 21  1  0
 21 22  2  0
 21 23  1  0
M  END
$$$$
