DHG.pdb
     RDKit          3D

 23 23  0  0  1  0  0  0  0  0999 V2000
   10.2416  -16.9653   16.5906 N   0  0  0  0  0  0  0  0  0  0  0  0
    9.9232  -17.7238   17.7799 C   0  0  1  0  0  0  0  0  0  0  0  0
   10.7784  -18.9705   17.7749 C   0  0  0  0  0  0  0  0  0  0  0  0
   10.5262  -19.7640   16.5448 C   0  0  0  0  0  0  0  0  0  0  0  0
    9.4281  -19.6995   15.9513 O   0  0  0  0  0  0  0  0  0  0  0  0
   10.1793  -16.8822   18.9731 C   0  0  0  0  0  0  0  0  0  0  0  0
   11.1859  -16.1175   19.0171 O   0  0  0  0  0  0  0  0  0  0  0  0
   11.4971  -20.6006   16.0141 O   0  0  0  0  0  0  0  0  0  0  0  0
    9.3260  -16.8880   20.1091 N   0  0  0  0  0  0  0  0  0  0  0  0
    9.5360  -16.0931   21.2754 C   0  0  1  0  0  0  0  0  0  0  0  0
    8.2737  -15.2543   21.4827 C   0  0  0  0  0  0  0  0  0  0  0  0
    8.1681  -14.2986   20.3613 C   0  0  0  0  0  0  0  0  0  0  0  0
    7.2748  -14.3343   19.3013 C   0  0  0  0  0  0  0  0  0  0  0  0
    7.5084  -13.2853   18.5012 N   0  0  0  0  0  0  0  0  0  0  0  0
    8.5322  -12.6133   19.0621 C   0  0  0  0  0  0  0  0  0  0  0  0
    8.9325  -13.2237   20.1862 N   0  0  0  0  0  0  0  0  0  0  0  0
    9.7929  -16.8485   22.4973 C   0  0  0  0  0  0  0  0  0  0  0  0
    8.9366  -17.6254   22.9652 O   0  0  0  0  0  0  0  0  0  0  0  0
   11.0343  -16.6988   23.1647 N   0  0  0  0  0  0  0  0  0  0  0  0
   11.4480  -17.5759   24.2465 C   0  0  0  0  0  0  0  0  0  0  0  0
   11.7737  -16.7285   25.4083 C   0  0  0  0  0  0  0  0  0  0  0  0
   12.8788  -16.1205   25.4432 O   0  0  0  0  0  0  0  0  0  0  0  0
   10.9108  -16.5654   26.4806 O   0  0  0  0  0  0  0  0  0  0  0  0
  2  1  1  6
  2  3  1  0
  3  4  1  0
  4  8  1  0
  5  4  2  0
  6  9  1  0
  6  2  1  0
  7  6  2  0
 10 17  1  0
 10  9  1  0
 11 12  1  0
 10 11  1  1
 12 16  1  0
 13 14  1  0
 13 12  2  0
 14 15  1  0
 15 16  2  0
 17 19  1  0
 18 17  2  0
 19 20  1  0
 20 21  1  0
 21 22  2  0
 21 23  1  0
M  END
$$$$
