DHG.pdb
     RDKit          3D

 23 23  0  0  1  0  0  0  0  0999 V2000
    9.6606  -18.1570   18.9966 N   0  0  0  0  0  0  0  0  0  0  0  0
   10.7947  -17.2647   18.9032 C   0  0  1  0  0  0  0  0  0  0  0  0
   10.9817  -16.9069   17.4462 C   0  0  0  0  0  0  0  0  0  0  0  0
   11.2147  -18.1325   16.6399 C   0  0  0  0  0  0  0  0  0  0  0  0
   11.9957  -19.0243   17.0358 O   0  0  0  0  0  0  0  0  0  0  0  0
   10.5377  -16.0671   19.7382 C   0  0  0  0  0  0  0  0  0  0  0  0
   11.3690  -15.1144   19.7700 O   0  0  0  0  0  0  0  0  0  0  0  0
   10.5755  -18.3288   15.4246 O   0  0  0  0  0  0  0  0  0  0  0  0
    9.3677  -15.9264   20.5320 N   0  0  0  0  0  0  0  0  0  0  0  0
    9.1011  -14.8091   21.3785 C   0  0  1  0  0  0  0  0  0  0  0  0
    7.6862  -14.3258   21.0551 C   0  0  0  0  0  0  0  0  0  0  0  0
    7.6386  -13.9710   19.6220 C   0  0  0  0  0  0  0  0  0  0  0  0
    8.0004  -12.7672   19.0365 C   0  0  0  0  0  0  0  0  0  0  0  0
    7.8085  -12.8529   17.7132 N   0  0  0  0  0  0  0  0  0  0  0  0
    7.3347  -14.0936   17.4881 C   0  0  0  0  0  0  0  0  0  0  0  0
    7.2312  -14.7711   18.6399 N   0  0  0  0  0  0  0  0  0  0  0  0
    9.1767  -15.0885   22.8089 C   0  0  0  0  0  0  0  0  0  0  0  0
    9.0092  -14.1835   23.6508 O   0  0  0  0  0  0  0  0  0  0  0  0
    9.4448  -16.4083   23.2510 N   0  0  0  0  0  0  0  0  0  0  0  0
   10.6485  -16.7539   23.9873 C   0  0  0  0  0  0  0  0  0  0  0  0
   10.2907  -16.8337   25.4154 C   0  0  0  0  0  0  0  0  0  0  0  0
    9.0847  -16.7008   25.7618 O   0  0  0  0  0  0  0  0  0  0  0  0
   11.2302  -17.0509   26.4109 O   0  0  0  0  0  0  0  0  0  0  0  0
  2  1  1  6
  2  3  1  0
  3  4  1  0
  4  8  1  0
  5  4  2  0
  6  9  1  0
  6  2  1  0
  7  6  2  0
 10 17  1  0
 10  9  1  0
 11 12  1  0
 10 11  1  1
 12 16  1  0
 13 14  1  0
 13 12  2  0
 14 15  1  0
 15 16  2  0
 17 19  1  0
 18 17  2  0
 19 20  1  0
 20 21  1  0
 21 22  2  0
 21 23  1  0
M  END
$$$$
