SPP.pdb
     RDKit          3D

 21 22  0  0  1  0  0  0  0  0999 V2000
   16.5619   -8.6530  -19.7600 O   0  0  0  0  0  0  0  0  0  0  0  0
   17.1078   -8.2945  -18.5490 C   0  0  0  0  0  0  0  0  0  0  0  0
   17.8213   -9.4987  -17.9639 C   0  0  2  0  0  0  0  0  0  0  0  0
   16.8855  -10.3302  -17.2859 N   0  0  0  0  0  0  0  0  0  0  0  0
   18.9119   -9.0685  -17.0807 C   0  0  0  0  0  0  0  0  0  0  0  0
   18.5832   -8.7277  -15.8998 O   0  0  0  0  0  0  0  0  0  0  0  0
   20.2837   -9.0223  -17.4949 N   0  0  0  0  0  0  0  0  0  0  0  0
   20.7733   -9.6986  -18.6434 C   0  0  0  0  0  0  0  0  0  0  0  0
   22.2813   -9.5926  -18.5419 C   0  0  0  0  0  0  0  0  0  0  0  0
   22.5298   -8.3861  -17.6933 C   0  0  0  0  0  0  0  0  0  0  0  0
   21.3047   -8.3128  -16.8395 C   0  0  1  0  0  0  0  0  0  0  0  0
   20.9562   -6.9030  -16.5133 C   0  0  0  0  0  0  0  0  0  0  0  0
   20.1779   -6.2921  -17.2623 O   0  0  0  0  0  0  0  0  0  0  0  0
   21.5336   -6.3312  -15.3610 N   0  0  0  0  0  0  0  0  0  0  0  0
   22.2855   -6.9899  -14.3099 C   0  0  0  0  0  0  0  0  0  0  0  0
   22.1749   -6.0331  -13.1148 C   0  0  0  0  0  0  0  0  0  0  0  0
   22.3136   -4.7030  -13.8254 C   0  0  0  0  0  0  0  0  0  0  0  0
   21.4527   -4.9167  -15.0440 C   0  0  1  0  0  0  0  0  0  0  0  0
   21.8917   -4.0717  -16.1817 C   0  0  0  0  0  0  0  0  0  0  0  0
   21.2196   -2.8719  -16.3680 O   0  0  0  0  0  0  0  0  0  0  0  0
   22.8054   -4.3523  -16.9727 O   0  0  0  0  0  0  0  0  0  0  0  0
  2  1  1  0
  3  2  1  0
  3  4  1  1
  5  3  1  0
  6  5  2  0
  7  5  1  0
  7  8  1  0
  9  8  1  0
 10 11  1  0
 10  9  1  0
 11  7  1  0
 11 12  1  6
 12 14  1  0
 13 12  2  0
 14 15  1  0
 14 18  1  0
 15 16  1  0
 17 16  1  0
 18 17  1  0
 18 19  1  6
 19 20  1  0
 21 19  2  0
M  END
$$$$
