SPP.pdb
     RDKit          3D

 21 22  0  0  1  0  0  0  0  0999 V2000
   25.5393  -18.7090  -10.5577 O   0  0  0  0  0  0  0  0  0  0  0  0
   24.7998  -19.4994  -11.4069 C   0  0  0  0  0  0  0  0  0  0  0  0
   25.2542  -20.9380  -11.2483 C   0  0  2  0  0  0  0  0  0  0  0  0
   24.1253  -21.8050  -11.2740 N   0  0  0  0  0  0  0  0  0  0  0  0
   26.0371  -21.0949  -10.0166 C   0  0  0  0  0  0  0  0  0  0  0  0
   25.3755  -21.2225   -8.9375 O   0  0  0  0  0  0  0  0  0  0  0  0
   27.4707  -21.1071   -9.9956 N   0  0  0  0  0  0  0  0  0  0  0  0
   28.2669  -21.0533  -11.1700 C   0  0  0  0  0  0  0  0  0  0  0  0
   29.6746  -21.3550  -10.6978 C   0  0  0  0  0  0  0  0  0  0  0  0
   29.6880  -20.9778   -9.2503 C   0  0  0  0  0  0  0  0  0  0  0  0
   28.2637  -21.1660   -8.8367 C   0  0  1  0  0  0  0  0  0  0  0  0
   27.8741  -20.1927   -7.7801 C   0  0  0  0  0  0  0  0  0  0  0  0
   27.2725  -19.1595   -8.1129 O   0  0  0  0  0  0  0  0  0  0  0  0
   28.2120  -20.4984   -6.4458 N   0  0  0  0  0  0  0  0  0  0  0  0
   28.7215  -21.7463   -5.9099 C   0  0  0  0  0  0  0  0  0  0  0  0
   28.3837  -21.6769   -4.4143 C   0  0  0  0  0  0  0  0  0  0  0  0
   28.6867  -20.2186   -4.1405 C   0  0  0  0  0  0  0  0  0  0  0  0
   28.0906  -19.5503   -5.3530 C   0  0  1  0  0  0  0  0  0  0  0  0
   28.7673  -18.2663   -5.6606 C   0  0  0  0  0  0  0  0  0  0  0  0
   28.4813  -17.1917   -4.8302 O   0  0  0  0  0  0  0  0  0  0  0  0
   29.5623  -18.0804   -6.5947 O   0  0  0  0  0  0  0  0  0  0  0  0
  2  1  1  0
  3  2  1  0
  3  4  1  1
  5  3  1  0
  6  5  2  0
  7  5  1  0
  7  8  1  0
  9  8  1  0
 10 11  1  0
 10  9  1  0
 11  7  1  0
 11 12  1  1
 12 14  1  0
 13 12  2  0
 14 15  1  0
 14 18  1  0
 15 16  1  0
 17 16  1  0
 18 17  1  0
 18 19  1  6
 19 20  1  0
 21 19  2  0
M  END
$$$$
