SPP.pdb
     RDKit          3D

 21 22  0  0  1  0  0  0  0  0999 V2000
   13.1280  -21.2354    3.0007 O   0  0  0  0  0  0  0  0  0  0  0  0
   14.3543  -21.0369    3.5921 C   0  0  0  0  0  0  0  0  0  0  0  0
   15.4365  -21.2884    2.5591 C   0  0  2  0  0  0  0  0  0  0  0  0
   15.4429  -22.6644    2.1939 N   0  0  0  0  0  0  0  0  0  0  0  0
   16.7419  -20.8511    3.0683 C   0  0  0  0  0  0  0  0  0  0  0  0
   17.3943  -21.6992    3.7566 O   0  0  0  0  0  0  0  0  0  0  0  0
   17.2816  -19.5457    2.8224 N   0  0  0  0  0  0  0  0  0  0  0  0
   16.7788  -18.6711    1.8231 C   0  0  0  0  0  0  0  0  0  0  0  0
   17.7946  -17.5498    1.7431 C   0  0  0  0  0  0  0  0  0  0  0  0
   18.4738  -17.5449    3.0759 C   0  0  0  0  0  0  0  0  0  0  0  0
   18.3519  -18.9658    3.5247 C   0  0  1  0  0  0  0  0  0  0  0  0
   18.2314  -19.0569    5.0055 C   0  0  0  0  0  0  0  0  0  0  0  0
   17.1013  -19.1647    5.5068 O   0  0  0  0  0  0  0  0  0  0  0  0
   19.4175  -19.0155    5.7668 N   0  0  0  0  0  0  0  0  0  0  0  0
   20.7886  -19.1055    5.3021 C   0  0  0  0  0  0  0  0  0  0  0  0
   21.5760  -19.5482    6.5431 C   0  0  0  0  0  0  0  0  0  0  0  0
   20.8829  -18.7222    7.6065 C   0  0  0  0  0  0  0  0  0  0  0  0
   19.4357  -18.8679    7.2111 C   0  0  1  0  0  0  0  0  0  0  0  0
   18.6253  -17.7075    7.6560 C   0  0  0  0  0  0  0  0  0  0  0  0
   18.4311  -16.6878    6.7348 O   0  0  0  0  0  0  0  0  0  0  0  0
   18.1122  -17.5792    8.7782 O   0  0  0  0  0  0  0  0  0  0  0  0
  2  1  1  0
  3  2  1  0
  3  4  1  1
  5  3  1  0
  6  5  2  0
  7  5  1  0
  7  8  1  0
  9  8  1  0
 10 11  1  0
 10  9  1  0
 11  7  1  0
 11 12  1  1
 12 14  1  0
 13 12  2  0
 14 15  1  0
 14 18  1  0
 15 16  1  0
 17 16  1  0
 18 17  1  0
 18 19  1  6
 19 20  1  0
 21 19  2  0
M  END
$$$$
