SPP.pdb
     RDKit          3D

 21 22  0  0  1  0  0  0  0  0999 V2000
   24.9376  -21.5865  -17.6520 O   0  0  0  0  0  0  0  0  0  0  0  0
   25.8222  -22.6373  -17.5709 C   0  0  0  0  0  0  0  0  0  0  0  0
   27.1801  -22.0969  -17.1639 C   0  0  2  0  0  0  0  0  0  0  0  0
   28.1757  -23.0938  -17.3682 N   0  0  0  0  0  0  0  0  0  0  0  0
   27.1495  -21.6308  -15.7724 C   0  0  0  0  0  0  0  0  0  0  0  0
   27.2144  -22.5283  -14.8730 O   0  0  0  0  0  0  0  0  0  0  0  0
   27.0516  -20.2466  -15.4117 N   0  0  0  0  0  0  0  0  0  0  0  0
   27.2260  -19.1861  -16.3397 C   0  0  0  0  0  0  0  0  0  0  0  0
   27.3007  -17.9349  -15.4886 C   0  0  0  0  0  0  0  0  0  0  0  0
   26.5841  -18.2829  -14.2224 C   0  0  0  0  0  0  0  0  0  0  0  0
   26.7699  -19.7630  -14.1225 C   0  0  1  0  0  0  0  0  0  0  0  0
   25.6007  -20.4120  -13.4689 C   0  0  0  0  0  0  0  0  0  0  0  0
   24.6932  -20.8656  -14.1836 O   0  0  0  0  0  0  0  0  0  0  0  0
   25.5857  -20.4777  -12.0605 N   0  0  0  0  0  0  0  0  0  0  0  0
   26.6501  -20.1454  -11.1328 C   0  0  0  0  0  0  0  0  0  0  0  0
   26.2803  -20.9049   -9.8513 C   0  0  0  0  0  0  0  0  0  0  0  0
   24.7803  -20.6963   -9.8421 C   0  0  0  0  0  0  0  0  0  0  0  0
   24.4331  -20.9135  -11.2926 C   0  0  1  0  0  0  0  0  0  0  0  0
   23.2041  -20.1778  -11.6792 C   0  0  0  0  0  0  0  0  0  0  0  0
   21.9911  -20.7657  -11.3493 O   0  0  0  0  0  0  0  0  0  0  0  0
   23.1771  -19.0870  -12.2696 O   0  0  0  0  0  0  0  0  0  0  0  0
  2  1  1  0
  3  2  1  0
  3  4  1  1
  5  3  1  0
  6  5  2  0
  7  5  1  0
  7  8  1  0
  9  8  1  0
 10 11  1  0
 10  9  1  0
 11  7  1  0
 11 12  1  6
 12 14  1  0
 13 12  2  0
 14 15  1  0
 14 18  1  0
 15 16  1  0
 17 16  1  0
 18 17  1  0
 18 19  1  6
 19 20  1  0
 21 19  2  0
M  END
$$$$
