SPP.pdb
     RDKit          3D

 21 22  0  0  1  0  0  0  0  0999 V2000
   24.6019  -12.0462  -21.5093 O   0  0  0  0  0  0  0  0  0  0  0  0
   23.9072  -11.7205  -20.3673 C   0  0  0  0  0  0  0  0  0  0  0  0
   24.3950  -12.6045  -19.2350 C   0  0  2  0  0  0  0  0  0  0  0  0
   23.8519  -13.9127  -19.3775 N   0  0  0  0  0  0  0  0  0  0  0  0
   24.0547  -12.0088  -17.9373 C   0  0  0  0  0  0  0  0  0  0  0  0
   22.8491  -12.1400  -17.5527 O   0  0  0  0  0  0  0  0  0  0  0  0
   25.0052  -11.3096  -17.1228 N   0  0  0  0  0  0  0  0  0  0  0  0
   26.4064  -11.3568  -17.3471 C   0  0  0  0  0  0  0  0  0  0  0  0
   27.0171  -10.7103  -16.1205 C   0  0  0  0  0  0  0  0  0  0  0  0
   25.9435   -9.8240  -15.5732 C   0  0  0  0  0  0  0  0  0  0  0  0
   24.6859  -10.4967  -16.0217 C   0  0  1  0  0  0  0  0  0  0  0  0
   23.6073   -9.5057  -16.2866 C   0  0  0  0  0  0  0  0  0  0  0  0
   23.5667   -8.9500  -17.3955 O   0  0  0  0  0  0  0  0  0  0  0  0
   22.6810   -9.2486  -15.2552 N   0  0  0  0  0  0  0  0  0  0  0  0
   22.5510   -9.9180  -13.9750 C   0  0  0  0  0  0  0  0  0  0  0  0
   21.1097   -9.6181  -13.5404 C   0  0  0  0  0  0  0  0  0  0  0  0
   20.9933   -8.1747  -13.9838 C   0  0  0  0  0  0  0  0  0  0  0  0
   21.6646   -8.2147  -15.3327 C   0  0  1  0  0  0  0  0  0  0  0  0
   22.2449   -6.8986  -15.6966 C   0  0  0  0  0  0  0  0  0  0  0  0
   21.3835   -5.9670  -16.2587 O   0  0  0  0  0  0  0  0  0  0  0  0
   23.4306   -6.5693  -15.5385 O   0  0  0  0  0  0  0  0  0  0  0  0
  2  1  1  0
  3  2  1  0
  3  4  1  6
  5  3  1  0
  6  5  2  0
  7  5  1  0
  7  8  1  0
  9  8  1  0
 10 11  1  0
 10  9  1  0
 11  7  1  0
 11 12  1  6
 12 14  1  0
 13 12  2  0
 14 15  1  0
 14 18  1  0
 15 16  1  0
 17 16  1  0
 18 17  1  0
 18 19  1  1
 19 20  1  0
 21 19  2  0
M  END
$$$$
