SPP.pdb
     RDKit          3D

 21 22  0  0  1  0  0  0  0  0999 V2000
   25.2706  -21.6103  -17.8560 O   0  0  0  0  0  0  0  0  0  0  0  0
   26.0936  -20.9172  -18.7135 C   0  0  0  0  0  0  0  0  0  0  0  0
   27.4834  -20.8572  -18.1082 C   0  0  2  0  0  0  0  0  0  0  0  0
   28.2226  -22.0142  -18.4846 N   0  0  0  0  0  0  0  0  0  0  0  0
   27.4010  -20.7106  -16.6500 C   0  0  0  0  0  0  0  0  0  0  0  0
   27.5002  -21.7793  -15.9669 O   0  0  0  0  0  0  0  0  0  0  0  0
   27.2180  -19.4464  -15.9988 N   0  0  0  0  0  0  0  0  0  0  0  0
   27.2341  -18.2057  -16.6890 C   0  0  0  0  0  0  0  0  0  0  0  0
   27.2709  -17.1556  -15.5974 C   0  0  0  0  0  0  0  0  0  0  0  0
   26.6836  -17.8244  -14.3951 C   0  0  0  0  0  0  0  0  0  0  0  0
   26.9967  -19.2685  -14.6223 C   0  0  1  0  0  0  0  0  0  0  0  0
   25.9375  -20.1473  -14.0555 C   0  0  0  0  0  0  0  0  0  0  0  0
   24.9937  -20.4907  -14.7844 O   0  0  0  0  0  0  0  0  0  0  0  0
   26.0635  -20.5466  -12.7091 N   0  0  0  0  0  0  0  0  0  0  0  0
   27.2112  -20.4076  -11.8330 C   0  0  0  0  0  0  0  0  0  0  0  0
   26.9793  -21.4626  -10.7424 C   0  0  0  0  0  0  0  0  0  0  0  0
   25.4854  -21.3146  -10.5426 C   0  0  0  0  0  0  0  0  0  0  0  0
   24.9981  -21.1924  -11.9636 C   0  0  1  0  0  0  0  0  0  0  0  0
   23.7285  -20.4291  -12.0451 C   0  0  0  0  0  0  0  0  0  0  0  0
   22.5619  -21.1180  -11.7439 O   0  0  0  0  0  0  0  0  0  0  0  0
   23.6297  -19.2329  -12.3589 O   0  0  0  0  0  0  0  0  0  0  0  0
  2  1  1  0
  3  2  1  0
  3  4  1  1
  5  3  1  0
  6  5  2  0
  7  5  1  0
  7  8  1  0
  9  8  1  0
 10 11  1  0
 10  9  1  0
 11  7  1  0
 11 12  1  6
 12 14  1  0
 13 12  2  0
 14 15  1  0
 14 18  1  0
 15 16  1  0
 17 16  1  0
 18 17  1  0
 18 19  1  1
 19 20  1  0
 21 19  2  0
M  END
$$$$
