SPP.pdb
     RDKit          3D

 21 22  0  0  1  0  0  0  0  0999 V2000
   25.6321  -21.3964  -18.7853 O   0  0  0  0  0  0  0  0  0  0  0  0
   26.0654  -22.5032  -18.0924 C   0  0  0  0  0  0  0  0  0  0  0  0
   27.4668  -22.2344  -17.5775 C   0  0  2  0  0  0  0  0  0  0  0  0
   28.2712  -23.3977  -17.7414 N   0  0  0  0  0  0  0  0  0  0  0  0
   27.4224  -21.7921  -16.1786 C   0  0  0  0  0  0  0  0  0  0  0  0
   27.3495  -22.7070  -15.2975 O   0  0  0  0  0  0  0  0  0  0  0  0
   27.4566  -20.4119  -15.7918 N   0  0  0  0  0  0  0  0  0  0  0  0
   27.8051  -19.3623  -16.6823 C   0  0  0  0  0  0  0  0  0  0  0  0
   27.9652  -18.1419  -15.7988 C   0  0  0  0  0  0  0  0  0  0  0  0
   27.1370  -18.4285  -14.5865 C   0  0  0  0  0  0  0  0  0  0  0  0
   27.1507  -19.9216  -14.5107 C   0  0  1  0  0  0  0  0  0  0  0  0
   25.8782  -20.4460  -13.9439 C   0  0  0  0  0  0  0  0  0  0  0  0
   24.9398  -20.6974  -14.7161 O   0  0  0  0  0  0  0  0  0  0  0  0
   25.8055  -20.6311  -12.5480 N   0  0  0  0  0  0  0  0  0  0  0  0
   26.8570  -20.4663  -11.5626 C   0  0  0  0  0  0  0  0  0  0  0  0
   26.3819  -21.3009  -10.3652 C   0  0  0  0  0  0  0  0  0  0  0  0
   24.9032  -20.9740  -10.3833 C   0  0  0  0  0  0  0  0  0  0  0  0
   24.5947  -21.0371  -11.8573 C   0  0  1  0  0  0  0  0  0  0  0  0
   23.4417  -20.1746  -12.2145 C   0  0  0  0  0  0  0  0  0  0  0  0
   22.1755  -20.7134  -12.0341 O   0  0  0  0  0  0  0  0  0  0  0  0
   23.5210  -19.0187  -12.6581 O   0  0  0  0  0  0  0  0  0  0  0  0
  2  1  1  0
  3  2  1  0
  3  4  1  1
  5  3  1  0
  6  5  2  0
  7  5  1  0
  7  8  1  0
  9  8  1  0
 10 11  1  0
 10  9  1  0
 11  7  1  0
 11 12  1  6
 12 14  1  0
 13 12  2  0
 14 15  1  0
 14 18  1  0
 15 16  1  0
 17 16  1  0
 18 17  1  0
 18 19  1  1
 19 20  1  0
 21 19  2  0
M  END
$$$$
