DCN.pdb
     RDKit          3D

 23 22  0  0  1  0  0  0  0  0999 V2000
   16.8736  -17.4184   16.8560 N   0  0  0  0  0  0  0  0  0  0  0  0
   15.7241  -18.2785   16.8905 C   0  0  1  0  0  0  0  0  0  0  0  0
   15.8574  -19.4248   15.9452 C   0  0  0  0  0  0  0  0  0  0  0  0
   15.8850  -18.9114   14.5589 C   0  0  0  0  0  0  0  0  0  0  0  0
   15.8412  -17.6735   14.3679 O   0  0  0  0  0  0  0  0  0  0  0  0
   15.4161  -18.6984   18.2748 C   0  0  0  0  0  0  0  0  0  0  0  0
   14.2868  -19.1782   18.5144 O   0  0  0  0  0  0  0  0  0  0  0  0
   15.9573  -19.7214   13.4337 O   0  0  0  0  0  0  0  0  0  0  0  0
   16.3316  -18.5871   19.3477 N   0  0  0  0  0  0  0  0  0  0  0  0
   15.9535  -19.0151   20.7174 C   0  0  1  0  0  0  0  0  0  0  0  0
   17.2217  -19.5902   21.3543 C   0  0  0  0  0  0  0  0  0  0  0  0
   17.0780  -19.8299   23.1230 S   0  0  0  0  0  0  0  0  0  0  0  0
   15.4365  -17.8646   21.4633 C   0  0  0  0  0  0  0  0  0  0  0  0
   15.7884  -16.6633   21.2013 O   0  0  0  0  0  0  0  0  0  0  0  0
   10.8418  -15.2450   23.5206 N   0  0  0  0  0  0  0  0  0  0  0  0
   11.8224  -16.0699   24.1706 C   0  0  0  0  0  0  0  0  0  0  0  0
   12.0888  -15.8802   25.3601 O   0  0  0  0  0  0  0  0  0  0  0  0
   12.4616  -17.1060   23.3739 C   0  0  0  0  0  0  0  0  0  0  0  0
   13.9147  -16.8833   23.1742 C   0  0  2  0  0  0  0  0  0  0  0  0
   14.5149  -18.0445   22.5126 N   0  0  0  0  0  0  0  0  0  0  0  0
   14.7015  -16.5700   24.3634 C   0  0  0  0  0  0  0  0  0  0  0  0
   15.0739  -17.4292   25.1691 O   0  0  0  0  0  0  0  0  0  0  0  0
   15.0653  -15.2543   24.6310 O   0  0  0  0  0  0  0  0  0  0  0  0
  2  1  1  1
  3  4  1  0
  3  2  1  0
  4  8  1  0
  5  4  2  0
  6  2  1  0
  6  9  1  0
  7  6  2  0
 10  9  1  0
 10 13  1  0
 10 11  1  1
 11 12  1  0
 13 20  1  0
 14 13  2  0
 16 15  1  0
 16 17  2  0
 18 16  1  0
 19 21  1  0
 19 18  1  1
 20 19  1  0
 21 23  1  0
 22 21  2  0
M  END
$$$$
