DCN.pdb
     RDKit          3D

 23 22  0  0  1  0  0  0  0  0999 V2000
    7.6621  -12.6742   19.6154 N   0  0  0  0  0  0  0  0  0  0  0  0
    7.7317  -14.0229   20.1040 C   0  0  1  0  0  0  0  0  0  0  0  0
    8.4611  -14.9199   19.1613 C   0  0  0  0  0  0  0  0  0  0  0  0
    7.6681  -16.1493   18.9478 C   0  0  0  0  0  0  0  0  0  0  0  0
    6.4194  -16.0909   19.0383 O   0  0  0  0  0  0  0  0  0  0  0  0
    8.2718  -14.0621   21.4803 C   0  0  0  0  0  0  0  0  0  0  0  0
    9.4891  -13.8324   21.6493 O   0  0  0  0  0  0  0  0  0  0  0  0
    8.2219  -17.3868   18.6485 O   0  0  0  0  0  0  0  0  0  0  0  0
    7.4851  -14.3463   22.6213 N   0  0  0  0  0  0  0  0  0  0  0  0
    8.1136  -14.5202   23.9543 C   0  0  1  0  0  0  0  0  0  0  0  0
    7.0670  -14.0854   24.9839 C   0  0  0  0  0  0  0  0  0  0  0  0
    6.5298  -12.3903   24.7729 S   0  0  0  0  0  0  0  0  0  0  0  0
    8.5086  -15.9204   24.1290 C   0  0  0  0  0  0  0  0  0  0  0  0
    8.4523  -16.7727   23.1770 O   0  0  0  0  0  0  0  0  0  0  0  0
   12.9730  -16.8601   22.9243 N   0  0  0  0  0  0  0  0  0  0  0  0
   11.9218  -17.4233   23.7257 C   0  0  0  0  0  0  0  0  0  0  0  0
   11.5896  -18.5996   23.5589 O   0  0  0  0  0  0  0  0  0  0  0  0
   11.2926  -16.5575   24.7114 C   0  0  0  0  0  0  0  0  0  0  0  0
   10.1826  -17.2116   25.4469 C   0  0  2  0  0  0  0  0  0  0  0  0
    8.9753  -16.3850   25.3737 N   0  0  0  0  0  0  0  0  0  0  0  0
   10.4292  -17.5481   26.8460 C   0  0  0  0  0  0  0  0  0  0  0  0
   10.6215  -16.6955   27.7190 O   0  0  0  0  0  0  0  0  0  0  0  0
   10.4553  -18.8795   27.2478 O   0  0  0  0  0  0  0  0  0  0  0  0
  2  1  1  6
  3  4  1  0
  3  2  1  0
  4  8  1  0
  5  4  2  0
  6  2  1  0
  6  9  1  0
  7  6  2  0
 10  9  1  0
 10 13  1  0
 10 11  1  1
 11 12  1  0
 13 20  1  0
 14 13  2  0
 16 15  1  0
 16 17  2  0
 18 16  1  0
 19 21  1  0
 19 18  1  1
 20 19  1  0
 21 23  1  0
 22 21  2  0
M  END
$$$$
