DCN.pdb
     RDKit          3D

 23 22  0  0  1  0  0  0  0  0999 V2000
    9.1209  -16.9970   16.3172 N   0  0  0  0  0  0  0  0  0  0  0  0
    8.1469  -17.1238   17.3649 C   0  0  1  0  0  0  0  0  0  0  0  0
    7.7413  -18.5433   17.5796 C   0  0  0  0  0  0  0  0  0  0  0  0
    7.1202  -19.0641   16.3431 C   0  0  0  0  0  0  0  0  0  0  0  0
    7.6655  -20.0212   15.7452 O   0  0  0  0  0  0  0  0  0  0  0  0
    8.6072  -16.4565   18.6020 C   0  0  0  0  0  0  0  0  0  0  0  0
    9.8362  -16.3090   18.7773 O   0  0  0  0  0  0  0  0  0  0  0  0
    5.9530  -18.5563   15.7887 O   0  0  0  0  0  0  0  0  0  0  0  0
    7.7311  -15.9738   19.6025 N   0  0  0  0  0  0  0  0  0  0  0  0
    8.2604  -15.4049   20.8668 C   0  0  1  0  0  0  0  0  0  0  0  0
    7.0958  -14.6594   21.5243 C   0  0  0  0  0  0  0  0  0  0  0  0
    7.4266  -14.1861   23.2194 S   0  0  0  0  0  0  0  0  0  0  0  0
    8.7691  -16.4871   21.7138 C   0  0  0  0  0  0  0  0  0  0  0  0
    8.2052  -17.6334   21.7742 O   0  0  0  0  0  0  0  0  0  0  0  0
   13.4804  -19.3609   23.3626 N   0  0  0  0  0  0  0  0  0  0  0  0
   12.0480  -19.2485   23.3419 C   0  0  0  0  0  0  0  0  0  0  0  0
   11.3618  -20.0691   23.9563 O   0  0  0  0  0  0  0  0  0  0  0  0
   11.4725  -18.1499   22.5813 C   0  0  0  0  0  0  0  0  0  0  0  0
   10.4348  -17.3967   23.3276 C   0  0  2  0  0  0  0  0  0  0  0  0
    9.9197  -16.3002   22.5038 N   0  0  0  0  0  0  0  0  0  0  0  0
   10.8216  -16.8569   24.6277 C   0  0  0  0  0  0  0  0  0  0  0  0
   11.6472  -15.9473   24.7597 O   0  0  0  0  0  0  0  0  0  0  0  0
   10.2538  -17.3672   25.7905 O   0  0  0  0  0  0  0  0  0  0  0  0
  2  1  1  6
  3  4  1  0
  3  2  1  0
  4  8  1  0
  5  4  2  0
  6  2  1  0
  6  9  1  0
  7  6  2  0
 10  9  1  0
 10 13  1  0
 10 11  1  1
 11 12  1  0
 13 20  1  0
 14 13  2  0
 16 15  1  0
 16 17  2  0
 18 16  1  0
 19 21  1  0
 19 18  1  6
 20 19  1  0
 21 23  1  0
 22 21  2  0
M  END
$$$$
