DCN.pdb
     RDKit          3D

 23 22  0  0  1  0  0  0  0  0999 V2000
    8.2763  -16.4589   15.6573 N   0  0  0  0  0  0  0  0  0  0  0  0
    9.5905  -15.9382   15.4041 C   0  0  1  0  0  0  0  0  0  0  0  0
    9.6593  -15.2068   14.1056 C   0  0  0  0  0  0  0  0  0  0  0  0
    9.3290  -16.1373   13.0051 C   0  0  0  0  0  0  0  0  0  0  0  0
   10.2458  -16.5333   12.2478 O   0  0  0  0  0  0  0  0  0  0  0  0
   10.0745  -15.1374   16.5494 C   0  0  0  0  0  0  0  0  0  0  0  0
   11.2332  -14.6702   16.5024 O   0  0  0  0  0  0  0  0  0  0  0  0
    8.0495  -16.6111   12.7484 O   0  0  0  0  0  0  0  0  0  0  0  0
    9.2967  -14.8693   17.7004 N   0  0  0  0  0  0  0  0  0  0  0  0
    9.8954  -14.2061   18.8853 C   0  0  1  0  0  0  0  0  0  0  0  0
    8.7259  -13.7776   19.7758 C   0  0  0  0  0  0  0  0  0  0  0  0
    7.5800  -12.6734   18.9546 S   0  0  0  0  0  0  0  0  0  0  0  0
   10.7923  -15.1425   19.5679 C   0  0  0  0  0  0  0  0  0  0  0  0
   10.6048  -16.4076   19.5507 O   0  0  0  0  0  0  0  0  0  0  0  0
   14.7982  -13.5781   18.9131 N   0  0  0  0  0  0  0  0  0  0  0  0
   14.5822  -14.9386   19.3217 C   0  0  0  0  0  0  0  0  0  0  0  0
   14.6926  -15.8492   18.4968 O   0  0  0  0  0  0  0  0  0  0  0  0
   14.2376  -15.1736   20.7156 C   0  0  0  0  0  0  0  0  0  0  0  0
   12.8366  -15.6217   20.9086 C   0  0  2  0  0  0  0  0  0  0  0  0
   11.9144  -14.6740   20.2778 N   0  0  0  0  0  0  0  0  0  0  0  0
   12.4014  -15.8456   22.2840 C   0  0  0  0  0  0  0  0  0  0  0  0
   11.6427  -16.7651   22.6081 O   0  0  0  0  0  0  0  0  0  0  0  0
   12.8422  -15.0037   23.2997 O   0  0  0  0  0  0  0  0  0  0  0  0
  2  1  1  1
  3  4  1  0
  3  2  1  0
  4  8  1  0
  5  4  2  0
  6  2  1  0
  6  9  1  0
  7  6  2  0
 10  9  1  0
 10 13  1  0
 10 11  1  1
 11 12  1  0
 13 20  1  0
 14 13  2  0
 16 15  1  0
 16 17  2  0
 18 16  1  0
 19 21  1  0
 19 18  1  1
 20 19  1  0
 21 23  1  0
 22 21  2  0
M  END
$$$$
