DCN.pdb
     RDKit          3D

 23 22  0  0  1  0  0  0  0  0999 V2000
    7.8323  -17.5667   18.0083 N   0  0  0  0  0  0  0  0  0  0  0  0
    9.2104  -17.4095   18.3807 C   0  0  1  0  0  0  0  0  0  0  0  0
   10.0900  -17.2145   17.1917 C   0  0  0  0  0  0  0  0  0  0  0  0
    9.8076  -18.2730   16.1989 C   0  0  0  0  0  0  0  0  0  0  0  0
    9.3275  -19.3623   16.5912 O   0  0  0  0  0  0  0  0  0  0  0  0
    9.3676  -16.3503   19.4009 C   0  0  0  0  0  0  0  0  0  0  0  0
   10.4727  -16.2343   19.9738 O   0  0  0  0  0  0  0  0  0  0  0  0
   10.0420  -18.1408   14.8368 O   0  0  0  0  0  0  0  0  0  0  0  0
    8.3330  -15.4572   19.7667 N   0  0  0  0  0  0  0  0  0  0  0  0
    8.5113  -14.5073   20.8928 C   0  0  1  0  0  0  0  0  0  0  0  0
    7.4385  -13.4286   20.7202 C   0  0  0  0  0  0  0  0  0  0  0  0
    7.5793  -12.5325   19.1763 S   0  0  0  0  0  0  0  0  0  0  0  0
    8.3712  -15.2242   22.1631 C   0  0  0  0  0  0  0  0  0  0  0  0
    7.3193  -15.8863   22.4645 O   0  0  0  0  0  0  0  0  0  0  0  0
    7.2929  -19.0575   23.7424 N   0  0  0  0  0  0  0  0  0  0  0  0
    8.3226  -18.3615   24.4635 C   0  0  0  0  0  0  0  0  0  0  0  0
    8.3874  -18.4675   25.6908 O   0  0  0  0  0  0  0  0  0  0  0  0
    9.2525  -17.5521   23.6908 C   0  0  0  0  0  0  0  0  0  0  0  0
    9.4124  -16.1743   24.2173 C   0  0  2  0  0  0  0  0  0  0  0  0
    9.4103  -15.2111   23.1134 N   0  0  0  0  0  0  0  0  0  0  0  0
   10.5838  -15.9207   25.0508 C   0  0  0  0  0  0  0  0  0  0  0  0
   10.6421  -16.2378   26.2434 O   0  0  0  0  0  0  0  0  0  0  0  0
   11.7020  -15.2956   24.5089 O   0  0  0  0  0  0  0  0  0  0  0  0
  2  1  1  6
  3  4  1  0
  3  2  1  0
  4  8  1  0
  5  4  2  0
  6  2  1  0
  6  9  1  0
  7  6  2  0
 10  9  1  0
 10 13  1  0
 10 11  1  6
 11 12  1  0
 13 20  1  0
 14 13  2  0
 16 15  1  0
 16 17  2  0
 18 16  1  0
 19 21  1  0
 19 18  1  6
 20 19  1  0
 21 23  1  0
 22 21  2  0
M  END
$$$$
