DCN.pdb
     RDKit          3D

 23 22  0  0  1  0  0  0  0  0999 V2000
    8.2550  -14.7119   20.3357 N   0  0  0  0  0  0  0  0  0  0  0  0
    7.8993  -15.5117   21.4742 C   0  0  1  0  0  0  0  0  0  0  0  0
    8.4497  -16.8949   21.3772 C   0  0  0  0  0  0  0  0  0  0  0  0
    7.8031  -17.5977   20.2485 C   0  0  0  0  0  0  0  0  0  0  0  0
    7.9541  -17.1510   19.0873 O   0  0  0  0  0  0  0  0  0  0  0  0
    8.2589  -14.8294   22.7362 C   0  0  0  0  0  0  0  0  0  0  0  0
    9.4630  -14.7912   23.0705 O   0  0  0  0  0  0  0  0  0  0  0  0
    7.0258  -18.7395   20.3893 O   0  0  0  0  0  0  0  0  0  0  0  0
    7.3129  -14.2149   23.5900 N   0  0  0  0  0  0  0  0  0  0  0  0
    7.7397  -13.5588   24.8508 C   0  0  1  0  0  0  0  0  0  0  0  0
    6.5302  -12.7669   25.3551 C   0  0  0  0  0  0  0  0  0  0  0  0
    6.7137  -12.1942   27.0418 S   0  0  0  0  0  0  0  0  0  0  0  0
    8.1687  -14.5790   25.8112 C   0  0  0  0  0  0  0  0  0  0  0  0
    7.6033  -15.7232   25.8945 O   0  0  0  0  0  0  0  0  0  0  0  0
   11.3425  -18.4919   27.1150 N   0  0  0  0  0  0  0  0  0  0  0  0
   11.5751  -17.1268   27.4986 C   0  0  0  0  0  0  0  0  0  0  0  0
   12.3274  -16.8775   28.4439 O   0  0  0  0  0  0  0  0  0  0  0  0
   10.8964  -16.0907   26.7352 C   0  0  0  0  0  0  0  0  0  0  0  0
    9.8065  -15.4227   27.4881 C   0  0  2  0  0  0  0  0  0  0  0  0
    9.2401  -14.3319   26.6908 N   0  0  0  0  0  0  0  0  0  0  0  0
   10.1431  -14.9034   28.8103 C   0  0  0  0  0  0  0  0  0  0  0  0
   10.1969  -13.6957   29.0649 O   0  0  0  0  0  0  0  0  0  0  0  0
   10.4214  -15.7809   29.8531 O   0  0  0  0  0  0  0  0  0  0  0  0
  2  1  1  6
  3  4  1  0
  3  2  1  0
  4  8  1  0
  5  4  2  0
  6  2  1  0
  6  9  1  0
  7  6  2  0
 10  9  1  0
 10 13  1  0
 10 11  1  1
 11 12  1  0
 13 20  1  0
 14 13  2  0
 16 15  1  0
 16 17  2  0
 18 16  1  0
 19 21  1  0
 19 18  1  6
 20 19  1  0
 21 23  1  0
 22 21  2  0
M  END
$$$$
