DCN.pdb
     RDKit          3D

 23 22  0  0  1  0  0  0  0  0999 V2000
    8.9789  -16.1675   19.9587 N   0  0  0  0  0  0  0  0  0  0  0  0
    8.2994  -16.5204   21.1737 C   0  0  1  0  0  0  0  0  0  0  0  0
    8.4603  -17.9668   21.5020 C   0  0  0  0  0  0  0  0  0  0  0  0
    7.8565  -18.7801   20.4250 C   0  0  0  0  0  0  0  0  0  0  0  0
    6.6123  -18.7631   20.2748 O   0  0  0  0  0  0  0  0  0  0  0  0
    8.6937  -15.6246   22.2825 C   0  0  0  0  0  0  0  0  0  0  0  0
    9.9118  -15.4598   22.5107 O   0  0  0  0  0  0  0  0  0  0  0  0
    8.5866  -19.5760   19.5526 O   0  0  0  0  0  0  0  0  0  0  0  0
    7.7659  -14.9408   23.1030 N   0  0  0  0  0  0  0  0  0  0  0  0
    8.2259  -14.1224   24.2523 C   0  0  1  0  0  0  0  0  0  0  0  0
    6.9971  -13.3621   24.7587 C   0  0  0  0  0  0  0  0  0  0  0  0
    7.3043  -12.4468   26.2668 S   0  0  0  0  0  0  0  0  0  0  0  0
    8.7926  -14.9992   25.2804 C   0  0  0  0  0  0  0  0  0  0  0  0
    8.1697  -16.0225   25.7283 O   0  0  0  0  0  0  0  0  0  0  0  0
   11.4198  -14.2426   29.2474 N   0  0  0  0  0  0  0  0  0  0  0  0
   10.1182  -14.8466   29.3242 C   0  0  0  0  0  0  0  0  0  0  0  0
    9.5315  -14.8979   30.4081 O   0  0  0  0  0  0  0  0  0  0  0  0
    9.5510  -15.3762   28.0935 C   0  0  0  0  0  0  0  0  0  0  0  0
   10.5370  -15.4878   26.9906 C   0  0  2  0  0  0  0  0  0  0  0  0
   10.0678  -14.7426   25.8197 N   0  0  0  0  0  0  0  0  0  0  0  0
   10.8991  -16.8369   26.5663 C   0  0  0  0  0  0  0  0  0  0  0  0
   10.0624  -17.7111   26.3175 O   0  0  0  0  0  0  0  0  0  0  0  0
   12.2380  -17.1869   26.4259 O   0  0  0  0  0  0  0  0  0  0  0  0
  2  1  1  6
  3  4  1  0
  3  2  1  0
  4  8  1  0
  5  4  2  0
  6  2  1  0
  6  9  1  0
  7  6  2  0
 10  9  1  0
 10 13  1  0
 10 11  1  1
 11 12  1  0
 13 20  1  0
 14 13  2  0
 16 15  1  0
 16 17  2  0
 18 16  1  0
 19 21  1  0
 19 18  1  1
 20 19  1  0
 21 23  1  0
 22 21  2  0
M  END
$$$$
