DCN.pdb
     RDKit          3D

 23 22  0  0  1  0  0  0  0  0999 V2000
    8.6645  -17.5671   19.7489 N   0  0  0  0  0  0  0  0  0  0  0  0
    9.9876  -17.0656   19.9948 C   0  0  1  0  0  0  0  0  0  0  0  0
   10.5398  -16.3461   18.8103 C   0  0  0  0  0  0  0  0  0  0  0  0
   10.8435  -17.3250   17.7447 C   0  0  0  0  0  0  0  0  0  0  0  0
    9.9890  -18.1956   17.4570 O   0  0  0  0  0  0  0  0  0  0  0  0
   10.0289  -16.2615   21.2354 C   0  0  0  0  0  0  0  0  0  0  0  0
   11.1085  -15.7206   21.5591 O   0  0  0  0  0  0  0  0  0  0  0  0
   12.0323  -17.3465   17.0278 O   0  0  0  0  0  0  0  0  0  0  0  0
    8.9104  -16.0693   22.0803 N   0  0  0  0  0  0  0  0  0  0  0  0
    9.0066  -15.2083   23.2852 C   0  0  1  0  0  0  0  0  0  0  0  0
    7.5754  -14.7849   23.6272 C   0  0  0  0  0  0  0  0  0  0  0  0
    7.4621  -13.8351   25.1410 S   0  0  0  0  0  0  0  0  0  0  0  0
    9.6328  -15.9616   24.3749 C   0  0  0  0  0  0  0  0  0  0  0  0
    9.7830  -15.4740   25.5477 O   0  0  0  0  0  0  0  0  0  0  0  0
   11.0090  -17.6923   27.9334 N   0  0  0  0  0  0  0  0  0  0  0  0
    9.8725  -18.4632   27.5105 C   0  0  0  0  0  0  0  0  0  0  0  0
    9.0821  -18.8983   28.3517 O   0  0  0  0  0  0  0  0  0  0  0  0
    9.7123  -18.6938   26.0829 C   0  0  0  0  0  0  0  0  0  0  0  0
   10.7390  -18.0120   25.2571 C   0  0  2  0  0  0  0  0  0  0  0  0
   10.0977  -17.2742   24.1659 N   0  0  0  0  0  0  0  0  0  0  0  0
   11.7921  -18.8509   24.6927 C   0  0  0  0  0  0  0  0  0  0  0  0
   11.6875  -19.4174   23.5998 O   0  0  0  0  0  0  0  0  0  0  0  0
   12.9798  -19.0419   25.3911 O   0  0  0  0  0  0  0  0  0  0  0  0
  2  1  1  6
  3  4  1  0
  3  2  1  0
  4  8  1  0
  5  4  2  0
  6  2  1  0
  6  9  1  0
  7  6  2  0
 10  9  1  0
 10 13  1  0
 10 11  1  1
 11 12  1  0
 13 20  1  0
 14 13  2  0
 16 15  1  0
 16 17  2  0
 18 16  1  0
 19 21  1  0
 19 18  1  6
 20 19  1  0
 21 23  1  0
 22 21  2  0
M  END
$$$$
