DCN.pdb
     RDKit          3D

 23 22  0  0  1  0  0  0  0  0999 V2000
   10.5904  -18.0410   18.3623 N   0  0  0  0  0  0  0  0  0  0  0  0
   11.8982  -18.0086   18.9548 C   0  0  1  0  0  0  0  0  0  0  0  0
   12.9327  -17.5248   17.9949 C   0  0  0  0  0  0  0  0  0  0  0  0
   12.8256  -18.2930   16.7362 C   0  0  0  0  0  0  0  0  0  0  0  0
   12.4011  -19.4716   16.7773 O   0  0  0  0  0  0  0  0  0  0  0  0
   11.8867  -17.2545   20.2270 C   0  0  0  0  0  0  0  0  0  0  0  0
   12.9473  -16.7137   20.6086 O   0  0  0  0  0  0  0  0  0  0  0  0
   13.1693  -17.7893   15.4890 O   0  0  0  0  0  0  0  0  0  0  0  0
   10.7379  -17.1102   21.0401 N   0  0  0  0  0  0  0  0  0  0  0  0
   10.8018  -16.3638   22.3211 C   0  0  1  0  0  0  0  0  0  0  0  0
    9.3524  -16.1266   22.7541 C   0  0  0  0  0  0  0  0  0  0  0  0
    9.2100  -15.4509   24.4062 S   0  0  0  0  0  0  0  0  0  0  0  0
   11.5490  -17.1492   23.3071 C   0  0  0  0  0  0  0  0  0  0  0  0
   11.3413  -18.3980   23.4888 O   0  0  0  0  0  0  0  0  0  0  0  0
   15.7853  -15.5481   23.3253 N   0  0  0  0  0  0  0  0  0  0  0  0
   15.3635  -16.8302   23.8183 C   0  0  0  0  0  0  0  0  0  0  0  0
   15.5623  -17.8412   23.1400 O   0  0  0  0  0  0  0  0  0  0  0  0
   14.7109  -16.8673   25.1181 C   0  0  0  0  0  0  0  0  0  0  0  0
   13.3084  -17.3475   25.0596 C   0  0  2  0  0  0  0  0  0  0  0  0
   12.5422  -16.5458   24.1022 N   0  0  0  0  0  0  0  0  0  0  0  0
   12.5744  -17.3889   26.3209 C   0  0  0  0  0  0  0  0  0  0  0  0
   12.9308  -18.0753   27.2843 O   0  0  0  0  0  0  0  0  0  0  0  0
   11.4173  -16.6332   26.4784 O   0  0  0  0  0  0  0  0  0  0  0  0
  2  1  1  6
  3  4  1  0
  3  2  1  0
  4  8  1  0
  5  4  2  0
  6  2  1  0
  6  9  1  0
  7  6  2  0
 10  9  1  0
 10 13  1  0
 10 11  1  1
 11 12  1  0
 13 20  1  0
 14 13  2  0
 16 15  1  0
 16 17  2  0
 18 16  1  0
 19 21  1  0
 19 18  1  1
 20 19  1  0
 21 23  1  0
 22 21  2  0
M  END
$$$$
