CKN.pdb
     RDKit          3D

 24 23  0  0  1  0  0  0  0  0999 V2000
   16.1344  -22.4454    1.3118 N   0  0  0  0  0  0  0  0  0  0  0  0
   15.3903  -21.8888    2.4193 C   0  0  1  0  0  0  0  0  0  0  0  0
   14.8962  -22.9901    3.3319 C   0  0  0  0  0  0  0  0  0  0  0  0
   13.6223  -23.8896    2.3618 S   0  0  0  0  0  0  0  0  0  0  0  0
   16.2401  -20.8908    3.0999 C   0  0  0  0  0  0  0  0  0  0  0  0
   17.4528  -21.1762    3.2835 O   0  0  0  0  0  0  0  0  0  0  0  0
   15.8096  -19.6354    3.5655 N   0  0  0  0  0  0  0  0  0  0  0  0
   16.6027  -18.6392    4.2130 C   0  0  1  0  0  0  0  0  0  0  0  0
   16.2529  -17.2401    3.7273 C   0  0  0  0  0  0  0  0  0  0  0  0
   17.0947  -16.1909    4.3521 C   0  0  0  0  0  0  0  0  0  0  0  0
   16.8910  -14.8142    3.8212 C   0  0  0  0  0  0  0  0  0  0  0  0
   17.7752  -13.7477    4.3953 C   0  0  0  0  0  0  0  0  0  0  0  0
   17.5782  -12.4432    3.8586 N   0  0  0  0  0  0  0  0  0  0  0  0
   16.5358  -18.7199    5.6939 C   0  0  0  0  0  0  0  0  0  0  0  0
   15.4129  -18.9570    6.2404 O   0  0  0  0  0  0  0  0  0  0  0  0
   17.9717  -20.8139   10.8183 N   0  0  0  0  0  0  0  0  0  0  0  0
   18.2166  -19.6310   10.0802 C   0  0  0  0  0  0  0  0  0  0  0  0
   18.2833  -18.5317   10.6982 O   0  0  0  0  0  0  0  0  0  0  0  0
   18.3980  -19.6304    8.6054 C   0  0  0  0  0  0  0  0  0  0  0  0
   17.4984  -18.5888    7.9780 C   0  0  2  0  0  0  0  0  0  0  0  0
   17.6394  -18.5501    6.5376 N   0  0  0  0  0  0  0  0  0  0  0  0
   17.7971  -17.2366    8.5592 C   0  0  0  0  0  0  0  0  0  0  0  0
   18.2063  -16.1565    7.7941 O   0  0  0  0  0  0  0  0  0  0  0  0
   17.6814  -17.0382    9.7975 O   0  0  0  0  0  0  0  0  0  0  0  0
  2  5  1  0
  2  1  1  6
  3  2  1  0
  4  3  1  0
  5  6  2  0
  7  8  1  0
  7  5  1  0
  9 10  1  0
  8  9  1  6
 10 11  1  0
 11 12  1  0
 13 12  1  0
 14  8  1  0
 14 15  2  0
 16 17  1  0
 17 18  2  0
 17 19  1  0
 20 19  1  1
 20 21  1  0
 20 22  1  0
 21 14  1  0
 22 24  2  0
 22 23  1  0
M  END
$$$$
