CKN.pdb
     RDKit          3D

 24 23  0  0  1  0  0  0  0  0999 V2000
   26.5346  -20.9886   -9.7818 N   0  0  0  0  0  0  0  0  0  0  0  0
   27.1074  -20.4151  -10.9789 C   0  0  1  0  0  0  0  0  0  0  0  0
   28.1241  -21.3587  -11.5838 C   0  0  0  0  0  0  0  0  0  0  0  0
   29.6313  -21.1758  -10.5506 S   0  0  0  0  0  0  0  0  0  0  0  0
   26.0086  -20.0576  -11.8988 C   0  0  0  0  0  0  0  0  0  0  0  0
   24.8338  -20.3568  -11.5583 O   0  0  0  0  0  0  0  0  0  0  0  0
   26.1606  -19.4044  -13.1351 N   0  0  0  0  0  0  0  0  0  0  0  0
   25.1205  -18.9749  -14.0153 C   0  0  1  0  0  0  0  0  0  0  0  0
   25.5743  -17.8236  -14.9007 C   0  0  0  0  0  0  0  0  0  0  0  0
   24.4550  -17.2034  -15.6506 C   0  0  0  0  0  0  0  0  0  0  0  0
   24.8482  -16.1286  -16.6039 C   0  0  0  0  0  0  0  0  0  0  0  0
   23.7345  -15.5034  -17.3899 C   0  0  0  0  0  0  0  0  0  0  0  0
   24.1447  -14.5750  -18.3891 N   0  0  0  0  0  0  0  0  0  0  0  0
   24.5586  -20.0820  -14.8293 C   0  0  0  0  0  0  0  0  0  0  0  0
   24.7792  -20.0896  -16.0811 O   0  0  0  0  0  0  0  0  0  0  0  0
   20.2631  -20.2722  -11.2762 N   0  0  0  0  0  0  0  0  0  0  0  0
   20.7848  -20.8385  -12.4641 C   0  0  0  0  0  0  0  0  0  0  0  0
   20.3909  -21.9859  -12.8145 O   0  0  0  0  0  0  0  0  0  0  0  0
   21.7791  -20.1364  -13.3164 C   0  0  0  0  0  0  0  0  0  0  0  0
   22.3464  -21.0953  -14.3394 C   0  0  2  0  0  0  0  0  0  0  0  0
   23.7933  -21.1294  -14.3040 N   0  0  0  0  0  0  0  0  0  0  0  0
   21.8755  -20.7157  -15.7140 C   0  0  0  0  0  0  0  0  0  0  0  0
   20.9365  -21.4477  -16.4224 O   0  0  0  0  0  0  0  0  0  0  0  0
   22.3346  -19.6892  -16.2813 O   0  0  0  0  0  0  0  0  0  0  0  0
  2  5  1  0
  2  1  1  1
  3  2  1  0
  4  3  1  0
  5  6  2  0
  7  8  1  0
  7  5  1  0
  9 10  1  0
  8  9  1  6
 10 11  1  0
 11 12  1  0
 13 12  1  0
 14  8  1  0
 14 15  2  0
 16 17  1  0
 17 18  2  0
 17 19  1  0
 20 19  1  1
 20 21  1  0
 20 22  1  0
 21 14  1  0
 22 24  2  0
 22 23  1  0
M  END
$$$$
