CKN.pdb
     RDKit          3D

 24 23  0  0  1  0  0  0  0  0999 V2000
   25.7229  -12.8874  -17.5796 N   0  0  0  0  0  0  0  0  0  0  0  0
   25.3251  -12.3025  -16.3187 C   0  0  1  0  0  0  0  0  0  0  0  0
   26.5202  -11.6965  -15.6158 C   0  0  0  0  0  0  0  0  0  0  0  0
   27.5389  -13.1244  -15.0714 S   0  0  0  0  0  0  0  0  0  0  0  0
   24.2347  -11.3393  -16.5728 C   0  0  0  0  0  0  0  0  0  0  0  0
   24.4087  -10.4757  -17.4725 O   0  0  0  0  0  0  0  0  0  0  0  0
   23.0050  -11.3018  -15.8911 N   0  0  0  0  0  0  0  0  0  0  0  0
   21.9046  -10.4277  -16.1481 C   0  0  1  0  0  0  0  0  0  0  0  0
   20.5756  -11.0802  -15.7969 C   0  0  0  0  0  0  0  0  0  0  0  0
   20.1838  -12.1354  -16.7627 C   0  0  0  0  0  0  0  0  0  0  0  0
   18.8536  -12.7590  -16.5165 C   0  0  0  0  0  0  0  0  0  0  0  0
   18.4638  -13.8709  -17.4441 C   0  0  0  0  0  0  0  0  0  0  0  0
   17.2438  -14.5307  -17.1205 N   0  0  0  0  0  0  0  0  0  0  0  0
   22.0439   -9.1107  -15.4772 C   0  0  0  0  0  0  0  0  0  0  0  0
   22.4402   -9.0816  -14.2698 O   0  0  0  0  0  0  0  0  0  0  0  0
   23.1734   -3.1266  -15.8587 N   0  0  0  0  0  0  0  0  0  0  0  0
   22.3879   -4.2415  -15.4790 C   0  0  0  0  0  0  0  0  0  0  0  0
   21.6594   -4.1502  -14.4516 O   0  0  0  0  0  0  0  0  0  0  0  0
   22.3864   -5.5169  -16.2414 C   0  0  0  0  0  0  0  0  0  0  0  0
   21.8691   -6.6372  -15.3666 C   0  0  2  0  0  0  0  0  0  0  0  0
   21.7644   -7.8853  -16.0928 N   0  0  0  0  0  0  0  0  0  0  0  0
   20.5325   -6.2638  -14.7928 C   0  0  0  0  0  0  0  0  0  0  0  0
   20.3814   -5.6577  -13.5561 O   0  0  0  0  0  0  0  0  0  0  0  0
   19.4766   -6.4979  -15.4382 O   0  0  0  0  0  0  0  0  0  0  0  0
  2  5  1  0
  2  1  1  6
  3  2  1  0
  4  3  1  0
  5  6  2  0
  7  8  1  0
  7  5  1  0
  9 10  1  0
  8  9  1  1
 10 11  1  0
 11 12  1  0
 13 12  1  0
 14  8  1  0
 14 15  2  0
 16 17  1  0
 17 18  2  0
 17 19  1  0
 20 19  1  6
 20 21  1  0
 20 22  1  0
 21 14  1  0
 22 24  2  0
 22 23  1  0
M  END
$$$$
