CKN.pdb
     RDKit          3D

 24 23  0  0  1  0  0  0  0  0999 V2000
   27.5323  -22.2370  -15.6434 N   0  0  0  0  0  0  0  0  0  0  0  0
   26.2641  -22.7669  -16.0918 C   0  0  1  0  0  0  0  0  0  0  0  0
   26.2172  -24.2664  -15.8939 C   0  0  0  0  0  0  0  0  0  0  0  0
   27.4209  -24.9531  -17.0991 S   0  0  0  0  0  0  0  0  0  0  0  0
   25.1816  -22.0423  -15.3957 C   0  0  0  0  0  0  0  0  0  0  0  0
   25.3084  -21.8389  -14.1594 O   0  0  0  0  0  0  0  0  0  0  0  0
   24.0089  -21.5534  -15.9989 N   0  0  0  0  0  0  0  0  0  0  0  0
   22.9784  -20.7830  -15.3781 C   0  0  1  0  0  0  0  0  0  0  0  0
   22.9162  -19.3711  -15.9421 C   0  0  0  0  0  0  0  0  0  0  0  0
   21.9690  -18.5014  -15.2030 C   0  0  0  0  0  0  0  0  0  0  0  0
   20.7198  -18.1557  -15.9370 C   0  0  0  0  0  0  0  0  0  0  0  0
   19.7514  -17.2698  -15.2116 C   0  0  0  0  0  0  0  0  0  0  0  0
   18.6054  -16.8813  -15.9628 N   0  0  0  0  0  0  0  0  0  0  0  0
   21.6484  -21.4397  -15.4413 C   0  0  0  0  0  0  0  0  0  0  0  0
   21.2246  -21.8489  -16.5677 O   0  0  0  0  0  0  0  0  0  0  0  0
   18.7780  -24.0108  -11.1861 N   0  0  0  0  0  0  0  0  0  0  0  0
   19.3947  -23.1837  -12.1555 C   0  0  0  0  0  0  0  0  0  0  0  0
   19.8717  -22.0725  -11.7917 O   0  0  0  0  0  0  0  0  0  0  0  0
   19.5032  -23.5706  -13.5860 C   0  0  0  0  0  0  0  0  0  0  0  0
   19.5541  -22.3306  -14.4507 C   0  0  2  0  0  0  0  0  0  0  0  0
   20.8209  -21.6399  -14.3306 N   0  0  0  0  0  0  0  0  0  0  0  0
   18.4287  -21.4053  -14.0864 C   0  0  0  0  0  0  0  0  0  0  0  0
   17.0930  -21.7388  -14.2419 O   0  0  0  0  0  0  0  0  0  0  0  0
   18.6730  -20.2635  -13.6145 O   0  0  0  0  0  0  0  0  0  0  0  0
  2  5  1  0
  2  1  1  1
  3  2  1  0
  4  3  1  0
  5  6  2  0
  7  8  1  0
  7  5  1  0
  9 10  1  0
  8  9  1  6
 10 11  1  0
 11 12  1  0
 13 12  1  0
 14  8  1  0
 14 15  2  0
 16 17  1  0
 17 18  2  0
 17 19  1  0
 20 19  1  1
 20 21  1  0
 20 22  1  0
 21 14  1  0
 22 24  2  0
 22 23  1  0
M  END
$$$$
