CKN.pdb
     RDKit          3D

 24 23  0  0  1  0  0  0  0  0999 V2000
   17.6445  -12.6633  -16.3401 N   0  0  0  0  0  0  0  0  0  0  0  0
   18.5348  -12.1142  -15.3421 C   0  0  1  0  0  0  0  0  0  0  0  0
   19.9112  -11.8867  -15.9282 C   0  0  0  0  0  0  0  0  0  0  0  0
   20.8341  -13.4441  -15.6189 S   0  0  0  0  0  0  0  0  0  0  0  0
   17.9177  -10.8933  -14.7852 C   0  0  0  0  0  0  0  0  0  0  0  0
   17.4349  -10.0560  -15.5923 O   0  0  0  0  0  0  0  0  0  0  0  0
   17.8201  -10.5805  -13.4174 N   0  0  0  0  0  0  0  0  0  0  0  0
   17.3220   -9.3703  -12.8446 C   0  0  1  0  0  0  0  0  0  0  0  0
   16.6208   -9.6241  -11.5182 C   0  0  0  0  0  0  0  0  0  0  0  0
   15.1676   -9.8740  -11.6784 C   0  0  0  0  0  0  0  0  0  0  0  0
   14.3970   -9.9743  -10.4076 C   0  0  0  0  0  0  0  0  0  0  0  0
   12.9086  -10.0940  -10.5458 C   0  0  0  0  0  0  0  0  0  0  0  0
   12.1893  -10.1599   -9.3183 N   0  0  0  0  0  0  0  0  0  0  0  0
   18.3673   -8.3257  -12.7019 C   0  0  0  0  0  0  0  0  0  0  0  0
   19.3569   -8.5552  -11.9379 O   0  0  0  0  0  0  0  0  0  0  0  0
   22.5290   -5.5022  -12.7189 N   0  0  0  0  0  0  0  0  0  0  0  0
   21.8386   -5.8734  -13.8977 C   0  0  0  0  0  0  0  0  0  0  0  0
   22.1889   -5.3569  -14.9955 O   0  0  0  0  0  0  0  0  0  0  0  0
   20.7164   -6.8473  -13.8955 C   0  0  0  0  0  0  0  0  0  0  0  0
   19.4718   -6.1951  -13.3357 C   0  0  2  0  0  0  0  0  0  0  0  0
   18.3347   -7.0910  -13.3599 N   0  0  0  0  0  0  0  0  0  0  0  0
   19.1570   -4.9455  -14.1069 C   0  0  0  0  0  0  0  0  0  0  0  0
   19.7117   -3.7113  -13.8092 O   0  0  0  0  0  0  0  0  0  0  0  0
   18.3546   -4.9833  -15.0769 O   0  0  0  0  0  0  0  0  0  0  0  0
  2  5  1  0
  2  1  1  6
  3  2  1  0
  4  3  1  0
  5  6  2  0
  7  8  1  0
  7  5  1  0
  9 10  1  0
  8  9  1  1
 10 11  1  0
 11 12  1  0
 13 12  1  0
 14  8  1  0
 14 15  2  0
 16 17  1  0
 17 18  2  0
 17 19  1  0
 20 19  1  6
 20 21  1  0
 20 22  1  0
 21 14  1  0
 22 24  2  0
 22 23  1  0
M  END
$$$$
