CKN.pdb
     RDKit          3D

 24 23  0  0  1  0  0  0  0  0999 V2000
   30.4794  -24.5068  -16.2834 N   0  0  0  0  0  0  0  0  0  0  0  0
   29.1948  -24.5020  -16.9467 C   0  0  1  0  0  0  0  0  0  0  0  0
   28.4743  -25.8123  -16.7146 C   0  0  0  0  0  0  0  0  0  0  0  0
   29.2288  -26.9975  -17.8975 S   0  0  0  0  0  0  0  0  0  0  0  0
   28.4370  -23.3192  -16.4908 C   0  0  0  0  0  0  0  0  0  0  0  0
   28.3608  -23.1096  -15.2514 O   0  0  0  0  0  0  0  0  0  0  0  0
   27.7862  -22.3955  -17.3284 N   0  0  0  0  0  0  0  0  0  0  0  0
   27.0156  -21.2621  -16.9253 C   0  0  1  0  0  0  0  0  0  0  0  0
   27.0248  -20.1712  -17.9861 C   0  0  0  0  0  0  0  0  0  0  0  0
   26.1959  -19.0004  -17.6093 C   0  0  0  0  0  0  0  0  0  0  0  0
   26.1085  -17.9270  -18.6383 C   0  0  0  0  0  0  0  0  0  0  0  0
   25.3439  -16.6979  -18.2470 C   0  0  0  0  0  0  0  0  0  0  0  0
   25.2165  -15.7126  -19.2676 N   0  0  0  0  0  0  0  0  0  0  0  0
   25.6266  -21.6158  -16.5386 C   0  0  0  0  0  0  0  0  0  0  0  0
   25.0263  -22.5264  -17.1914 O   0  0  0  0  0  0  0  0  0  0  0  0
   21.6194  -20.9772  -12.3501 N   0  0  0  0  0  0  0  0  0  0  0  0
   22.9572  -20.8977  -12.8061 C   0  0  0  0  0  0  0  0  0  0  0  0
   23.6574  -19.9036  -12.4655 O   0  0  0  0  0  0  0  0  0  0  0  0
   23.5716  -21.9381  -13.6710 C   0  0  0  0  0  0  0  0  0  0  0  0
   23.6064  -21.4583  -15.1051 C   0  0  2  0  0  0  0  0  0  0  0  0
   24.9264  -21.0060  -15.4916 N   0  0  0  0  0  0  0  0  0  0  0  0
   22.6080  -20.3536  -15.3002 C   0  0  0  0  0  0  0  0  0  0  0  0
   22.9527  -19.0934  -15.7615 O   0  0  0  0  0  0  0  0  0  0  0  0
   21.3903  -20.5454  -15.0421 O   0  0  0  0  0  0  0  0  0  0  0  0
  2  5  1  0
  2  1  1  1
  3  2  1  0
  4  3  1  0
  5  6  2  0
  7  8  1  0
  7  5  1  0
  9 10  1  0
  8  9  1  6
 10 11  1  0
 11 12  1  0
 13 12  1  0
 14  8  1  0
 14 15  2  0
 16 17  1  0
 17 18  2  0
 17 19  1  0
 20 19  1  1
 20 21  1  0
 20 22  1  0
 21 14  1  0
 22 24  2  0
 22 23  1  0
M  END
$$$$
