CKN.pdb
     RDKit          3D

 24 23  0  0  1  0  0  0  0  0999 V2000
   27.2701  -21.5856   -9.3890 N   0  0  0  0  0  0  0  0  0  0  0  0
   26.2332  -20.6073   -9.1476 C   0  0  1  0  0  0  0  0  0  0  0  0
   26.8060  -19.3878   -8.4588 C   0  0  0  0  0  0  0  0  0  0  0  0
   27.6447  -20.0283   -6.9557 S   0  0  0  0  0  0  0  0  0  0  0  0
   25.5663  -20.3058  -10.4305 C   0  0  0  0  0  0  0  0  0  0  0  0
   24.6563  -19.4355  -10.4315 O   0  0  0  0  0  0  0  0  0  0  0  0
   25.8620  -20.9115  -11.6650 N   0  0  0  0  0  0  0  0  0  0  0  0
   25.2935  -20.5956  -12.9369 C   0  0  1  0  0  0  0  0  0  0  0  0
   26.2945  -20.7978  -14.0650 C   0  0  0  0  0  0  0  0  0  0  0  0
   25.7724  -20.3514  -15.3795 C   0  0  0  0  0  0  0  0  0  0  0  0
   26.7141  -20.5083  -16.5229 C   0  0  0  0  0  0  0  0  0  0  0  0
   26.2415  -19.9805  -17.8446 C   0  0  0  0  0  0  0  0  0  0  0  0
   27.2230  -19.9638  -18.8766 N   0  0  0  0  0  0  0  0  0  0  0  0
   24.0334  -21.3331  -13.2058 C   0  0  0  0  0  0  0  0  0  0  0  0
   23.9975  -22.5821  -12.9723 O   0  0  0  0  0  0  0  0  0  0  0  0
   19.0785  -22.7567  -11.9819 N   0  0  0  0  0  0  0  0  0  0  0  0
   19.3493  -21.5960  -12.7456 C   0  0  0  0  0  0  0  0  0  0  0  0
   18.4535  -21.1539  -13.5181 O   0  0  0  0  0  0  0  0  0  0  0  0
   20.6472  -20.8759  -12.6754 C   0  0  0  0  0  0  0  0  0  0  0  0
   21.6037  -21.4407  -13.7020 C   0  0  2  0  0  0  0  0  0  0  0  0
   22.8695  -20.7378  -13.7053 N   0  0  0  0  0  0  0  0  0  0  0  0
   20.9818  -21.3838  -15.0678 C   0  0  0  0  0  0  0  0  0  0  0  0
   21.1573  -20.3190  -15.9366 O   0  0  0  0  0  0  0  0  0  0  0  0
   20.2596  -22.3312  -15.4765 O   0  0  0  0  0  0  0  0  0  0  0  0
  2  5  1  0
  2  1  1  6
  3  2  1  0
  4  3  1  0
  5  6  2  0
  7  8  1  0
  7  5  1  0
  9 10  1  0
  8  9  1  6
 10 11  1  0
 11 12  1  0
 13 12  1  0
 14  8  1  0
 14 15  2  0
 16 17  1  0
 17 18  2  0
 17 19  1  0
 20 19  1  1
 20 21  1  0
 20 22  1  0
 21 14  1  0
 22 24  2  0
 22 23  1  0
M  END
$$$$
