CKN.pdb
     RDKit          3D

 24 23  0  0  1  0  0  0  0  0999 V2000
   26.7468  -21.5845  -14.9595 N   0  0  0  0  0  0  0  0  0  0  0  0
   25.9791  -20.5423  -14.3157 C   0  0  1  0  0  0  0  0  0  0  0  0
   26.4718  -19.1782  -14.7475 C   0  0  0  0  0  0  0  0  0  0  0  0
   28.1624  -19.0281  -14.0458 S   0  0  0  0  0  0  0  0  0  0  0  0
   24.5478  -20.7729  -14.5979 C   0  0  0  0  0  0  0  0  0  0  0  0
   24.2210  -21.0808  -15.7743 O   0  0  0  0  0  0  0  0  0  0  0  0
   23.5061  -20.6785  -13.6575 N   0  0  0  0  0  0  0  0  0  0  0  0
   22.1053  -20.8006  -13.9096 C   0  0  1  0  0  0  0  0  0  0  0  0
   21.3361  -21.1529  -12.6448 C   0  0  0  0  0  0  0  0  0  0  0  0
   21.0936  -22.6099  -12.5103 C   0  0  0  0  0  0  0  0  0  0  0  0
   20.2653  -23.0100  -11.3387 C   0  0  0  0  0  0  0  0  0  0  0  0
   20.1151  -24.4842  -11.1089 C   0  0  0  0  0  0  0  0  0  0  0  0
   19.2406  -24.8458  -10.0444 N   0  0  0  0  0  0  0  0  0  0  0  0
   21.5293  -19.5993  -14.5648 C   0  0  0  0  0  0  0  0  0  0  0  0
   21.8782  -18.4512  -14.1456 O   0  0  0  0  0  0  0  0  0  0  0  0
   20.2469  -16.5656  -19.5219 N   0  0  0  0  0  0  0  0  0  0  0  0
   20.0881  -16.9484  -18.1683 C   0  0  0  0  0  0  0  0  0  0  0  0
   19.5344  -16.1422  -17.3695 O   0  0  0  0  0  0  0  0  0  0  0  0
   20.5476  -18.2624  -17.6485 C   0  0  0  0  0  0  0  0  0  0  0  0
   20.0877  -18.4379  -16.2182 C   0  0  2  0  0  0  0  0  0  0  0  0
   20.6171  -19.6478  -15.6250 N   0  0  0  0  0  0  0  0  0  0  0  0
   18.5871  -18.4523  -16.1606 C   0  0  0  0  0  0  0  0  0  0  0  0
   17.8555  -17.6808  -15.2724 O   0  0  0  0  0  0  0  0  0  0  0  0
   17.9288  -19.1890  -16.9417 O   0  0  0  0  0  0  0  0  0  0  0  0
  2  5  1  0
  2  1  1  6
  3  2  1  0
  4  3  1  0
  5  6  2  0
  7  8  1  0
  7  5  1  0
  9 10  1  0
  8  9  1  1
 10 11  1  0
 11 12  1  0
 13 12  1  0
 14  8  1  0
 14 15  2  0
 16 17  1  0
 17 18  2  0
 17 19  1  0
 20 19  1  6
 20 21  1  0
 20 22  1  0
 21 14  1  0
 22 24  2  0
 22 23  1  0
M  END
$$$$
