CKN.pdb
     RDKit          3D

 24 23  0  0  1  0  0  0  0  0999 V2000
   15.0339  -12.8063  -14.9484 N   0  0  0  0  0  0  0  0  0  0  0  0
   15.6811  -13.2149  -13.7219 C   0  0  1  0  0  0  0  0  0  0  0  0
   16.5379  -14.4396  -13.9580 C   0  0  0  0  0  0  0  0  0  0  0  0
   15.3549  -15.7986  -14.3139 S   0  0  0  0  0  0  0  0  0  0  0  0
   16.4297  -12.0623  -13.1811 C   0  0  0  0  0  0  0  0  0  0  0  0
   16.8230  -12.1228  -11.9864 O   0  0  0  0  0  0  0  0  0  0  0  0
   16.7460  -10.8901  -13.8912 N   0  0  0  0  0  0  0  0  0  0  0  0
   17.4681   -9.7575  -13.4048 C   0  0  1  0  0  0  0  0  0  0  0  0
   18.1532   -9.0015  -14.5338 C   0  0  0  0  0  0  0  0  0  0  0  0
   18.9245   -7.8300  -14.0519 C   0  0  0  0  0  0  0  0  0  0  0  0
   19.5435   -6.9950  -15.1189 C   0  0  0  0  0  0  0  0  0  0  0  0
   20.4235   -5.8738  -14.6527 C   0  0  0  0  0  0  0  0  0  0  0  0
   21.0588   -5.1311  -15.6887 N   0  0  0  0  0  0  0  0  0  0  0  0
   16.6296   -8.8455  -12.5867 C   0  0  0  0  0  0  0  0  0  0  0  0
   15.5006   -8.4823  -13.0441 O   0  0  0  0  0  0  0  0  0  0  0  0
   13.8055   -6.5269   -9.0336 N   0  0  0  0  0  0  0  0  0  0  0  0
   14.8840   -7.2341   -8.4500 C   0  0  0  0  0  0  0  0  0  0  0  0
   15.1165   -7.0800   -7.2184 O   0  0  0  0  0  0  0  0  0  0  0  0
   15.7552   -8.1515   -9.2293 C   0  0  0  0  0  0  0  0  0  0  0  0
   16.1136   -7.5167  -10.5546 C   0  0  2  0  0  0  0  0  0  0  0  0
   17.0041   -8.3535  -11.3312 N   0  0  0  0  0  0  0  0  0  0  0  0
   16.7425   -6.1724  -10.3255 C   0  0  0  0  0  0  0  0  0  0  0  0
   18.0061   -5.8387  -10.7852 O   0  0  0  0  0  0  0  0  0  0  0  0
   16.1211   -5.2810   -9.6887 O   0  0  0  0  0  0  0  0  0  0  0  0
  2  5  1  0
  2  1  1  6
  3  2  1  0
  4  3  1  0
  5  6  2  0
  7  8  1  0
  7  5  1  0
  9 10  1  0
  8  9  1  6
 10 11  1  0
 11 12  1  0
 13 12  1  0
 14  8  1  0
 14 15  2  0
 16 17  1  0
 17 18  2  0
 17 19  1  0
 20 19  1  1
 20 21  1  0
 20 22  1  0
 21 14  1  0
 22 24  2  0
 22 23  1  0
M  END
$$$$
