RLA.pdb
     RDKit          3D

 25 24  0  0  1  0  0  0  0  0999 V2000
   20.1699  -20.3604  -13.8239 N   0  0  0  0  0  0  0  0  0  0  0  0
   20.9556  -19.2931  -14.3583 C   0  0  0  0  0  0  0  0  0  0  0  0
   20.3212  -18.3248  -14.9139 N   0  0  0  0  0  0  0  0  0  0  0  0
   22.3578  -19.2618  -14.3025 N   0  0  0  0  0  0  0  0  0  0  0  0
   23.1445  -20.2594  -13.5980 C   0  0  0  0  0  0  0  0  0  0  0  0
   23.3486  -19.7348  -12.1981 C   0  0  0  0  0  0  0  0  0  0  0  0
   24.1540  -20.7329  -11.4127 C   0  0  0  0  0  0  0  0  0  0  0  0
   25.5959  -20.2971  -11.4283 C   0  0  2  0  0  0  0  0  0  0  0  0
   26.2292  -21.0348  -12.5261 N   0  0  0  0  0  0  0  0  0  0  0  0
   26.1831  -20.7505  -10.1186 C   0  0  0  0  0  0  0  0  0  0  0  0
   26.3820  -21.9658   -9.8843 O   0  0  0  0  0  0  0  0  0  0  0  0
   20.7603  -17.4856  -15.3269 C   0  0  0  0  0  0  0  0  0  0  0  0
   28.7961  -18.2055   -5.1033 C   0  0  1  0  0  0  0  0  0  0  0  0
   28.3176  -19.4187   -5.8412 C   0  0  0  0  0  0  0  0  0  0  0  0
   29.5028  -20.3717   -5.9772 C   0  0  0  0  0  0  0  0  0  0  0  0
   27.8273  -19.1407   -7.2255 C   0  0  2  0  0  0  0  0  0  0  0  0
   27.0622  -20.2985   -7.8453 N   0  0  0  0  0  0  0  0  0  0  0  0
   26.5323  -19.8273   -9.1041 C   0  0  0  0  0  0  0  0  0  0  0  0
   25.9058  -20.6791   -6.9816 O   0  0  0  0  0  0  0  0  0  0  0  0
   24.8906  -19.9457   -6.8561 C   0  0  0  0  0  0  0  0  0  0  0  0
   24.7539  -23.7678   -5.1907 C   0  0  2  0  0  0  0  0  0  0  0  0
   24.8078  -22.2545   -5.4318 N   0  0  0  0  0  0  0  0  0  0  0  0
   25.9208  -21.8952   -6.2697 C   0  0  0  0  0  0  0  0  0  0  0  0
   24.9584  -21.5245   -4.1530 O   0  0  0  0  0  0  0  0  0  0  0  0
   23.8269  -21.2627   -3.3635 O   0  0  0  0  0  0  0  0  0  0  0  0
  1  2  1  0
  2  3  2  0
  4  5  1  0
  4  2  1  0
  6  7  1  0
  6  5  1  0
  7  8  1  0
  8  9  1  6
 10  8  1  0
 10 17  1  0
 11 10  2  0
 13 12  1  1
 13 14  1  0
 16 15  1  6
 15 13  1  0
 16 17  1  0
 18 16  1  0
 19 18  2  0
 21 20  1  6
 21 22  1  0
 21 23  1  0
 22 18  1  0
 23 24  1  0
 25 23  2  0
M  END
$$$$
