RLA.pdb
     RDKit          3D

 25 24  0  0  1  0  0  0  0  0999 V2000
   17.5813  -24.5782  -13.5819 N   0  0  0  0  0  0  0  0  0  0  0  0
   18.6748  -25.2595  -12.9638 C   0  0  0  0  0  0  0  0  0  0  0  0
   18.7683  -26.5225  -13.1754 N   0  0  0  0  0  0  0  0  0  0  0  0
   19.6263  -24.6199  -12.1541 N   0  0  0  0  0  0  0  0  0  0  0  0
   20.0573  -23.2495  -12.3707 C   0  0  0  0  0  0  0  0  0  0  0  0
   20.1424  -23.0576  -13.8649 C   0  0  0  0  0  0  0  0  0  0  0  0
   20.4381  -21.6124  -14.1578 C   0  0  0  0  0  0  0  0  0  0  0  0
   21.6232  -21.1925  -13.3281 C   0  0  2  0  0  0  0  0  0  0  0  0
   21.0967  -20.8980  -11.9914 N   0  0  0  0  0  0  0  0  0  0  0  0
   22.1404  -19.9236  -13.9512 C   0  0  0  0  0  0  0  0  0  0  0  0
   21.4557  -18.8737  -13.9455 O   0  0  0  0  0  0  0  0  0  0  0  0
   19.4793  -27.1445  -12.7569 C   0  0  0  0  0  0  0  0  0  0  0  0
   27.5409  -17.7103  -16.0075 C   0  0  1  0  0  0  0  0  0  0  0  0
   26.0881  -17.5059  -15.7026 C   0  0  0  0  0  0  0  0  0  0  0  0
   25.9852  -16.3580  -14.7011 C   0  0  0  0  0  0  0  0  0  0  0  0
   25.4214  -18.6869  -15.0742 C   0  0  2  0  0  0  0  0  0  0  0  0
   23.9034  -18.6181  -15.1054 N   0  0  0  0  0  0  0  0  0  0  0  0
   23.4142  -19.8658  -14.5656 C   0  0  0  0  0  0  0  0  0  0  0  0
   23.4166  -18.5118  -16.5124 O   0  0  0  0  0  0  0  0  0  0  0  0
   23.5017  -19.4677  -17.3270 C   0  0  0  0  0  0  0  0  0  0  0  0
   21.8858  -18.6417  -18.8092 C   0  0  2  0  0  0  0  0  0  0  0  0
   22.2704  -17.2491  -18.2959 N   0  0  0  0  0  0  0  0  0  0  0  0
   22.8365  -17.3137  -16.9749 C   0  0  0  0  0  0  0  0  0  0  0  0
   21.0829  -16.3679  -18.2296 O   0  0  0  0  0  0  0  0  0  0  0  0
   20.7165  -15.7842  -17.0061 O   0  0  0  0  0  0  0  0  0  0  0  0
  1  2  1  0
  2  3  2  0
  4  5  1  0
  4  2  1  0
  6  7  1  0
  6  5  1  0
  7  8  1  0
  8  9  1  1
 10  8  1  0
 10 17  1  0
 11 10  2  0
 13 12  1  6
 13 14  1  0
 16 15  1  1
 15 13  1  0
 16 17  1  0
 18 16  1  0
 19 18  2  0
 21 20  1  6
 21 22  1  0
 21 23  1  0
 22 18  1  0
 23 24  1  0
 25 23  2  0
M  END
$$$$
