LIC.pdb
     RDKit          3D

 23 22  0  0  1  0  0  0  0  0999 V2000
    6.4370  -21.9460   26.5887 C   0  0  0  0  0  0  0  0  0  0  0  0
    5.6252  -21.0426   25.6345 C   0  0  2  0  0  0  0  0  0  0  0  0
    5.2444  -21.9494   24.4832 C   0  0  0  0  0  0  0  0  0  0  0  0
    6.4838  -19.9142   25.1458 C   0  0  0  0  0  0  0  0  0  0  0  0
    5.7920  -18.7076   24.6469 C   0  0  2  0  0  0  0  0  0  0  0  0
    5.0070  -19.0636   23.4394 N   0  0  0  0  0  0  0  0  0  0  0  0
    6.5656  -17.5223   24.3327 C   0  0  0  0  0  0  0  0  0  0  0  0
    7.0548  -17.3424   23.1583 O   0  0  0  0  0  0  0  0  0  0  0  0
    5.6306  -12.9106   26.7139 C   0  0  0  0  0  0  0  0  0  0  0  0
    6.1474  -13.8545   25.6649 C   0  0  0  0  0  0  0  0  0  0  0  0
    7.5927  -14.3088   25.9529 C   0  0  2  0  0  0  0  0  0  0  0  0
    8.5142  -13.1394   25.8132 C   0  0  0  0  0  0  0  0  0  0  0  0
    7.8661  -15.4221   24.9373 C   0  0  2  0  0  0  0  0  0  0  0  0
    6.8604  -16.4655   25.2333 N   0  0  0  0  0  0  0  0  0  0  0  0
    9.2130  -15.9830   25.0176 C   0  0  0  0  0  0  0  0  0  0  0  0
    9.5547  -16.6261   26.0609 O   0  0  0  0  0  0  0  0  0  0  0  0
   10.1831  -15.8628   23.9981 N   0  0  0  0  0  0  0  0  0  0  0  0
   11.4083  -16.6409   23.9752 C   0  0  1  0  0  0  0  0  0  0  0  0
   11.5450  -17.5399   22.7926 C   0  0  0  0  0  0  0  0  0  0  0  0
   11.4507  -16.6817   21.2023 S   0  0  0  0  0  0  0  0  0  0  0  0
   12.6080  -15.7639   24.1392 C   0  0  0  0  0  0  0  0  0  0  0  0
   13.8788  -16.2335   24.3468 O   0  0  0  0  0  0  0  0  0  0  0  0
   12.4292  -14.5237   24.0812 O   0  0  0  0  0  0  0  0  0  0  0  0
  2  1  1  1
  2  3  1  0
  4  5  1  0
  4  2  1  0
  5  7  1  0
  5  6  1  6
  7  8  2  0
  9 10  1  0
 10 11  1  0
 11 13  1  0
 11 12  1  6
 13 14  1  1
 14  7  1  0
 15 16  2  0
 15 13  1  0
 17 15  1  0
 18 17  1  0
 18 21  1  0
 18 19  1  6
 20 19  1  0
 21 22  1  0
 23 21  2  0
M  END
$$$$
