LIC.pdb
     RDKit          3D

 23 22  0  0  1  0  0  0  0  0999 V2000
    4.6201  -17.1395   20.3515 C   0  0  0  0  0  0  0  0  0  0  0  0
    6.0937  -17.4812   20.0393 C   0  0  2  0  0  0  0  0  0  0  0  0
    6.1191  -18.9909   19.9267 C   0  0  0  0  0  0  0  0  0  0  0  0
    6.9727  -17.0289   21.1672 C   0  0  0  0  0  0  0  0  0  0  0  0
    6.9522  -15.5900   21.5028 C   0  0  2  0  0  0  0  0  0  0  0  0
    7.3447  -14.8076   20.3050 N   0  0  0  0  0  0  0  0  0  0  0  0
    7.7423  -15.1081   22.6189 C   0  0  0  0  0  0  0  0  0  0  0  0
    8.9940  -14.8518   22.4830 O   0  0  0  0  0  0  0  0  0  0  0  0
    5.7890  -11.7982   26.2262 C   0  0  0  0  0  0  0  0  0  0  0  0
    6.8039  -12.5463   25.4085 C   0  0  0  0  0  0  0  0  0  0  0  0
    7.2537  -13.8527   26.0935 C   0  0  2  0  0  0  0  0  0  0  0  0
    7.9594  -13.5224   27.3698 C   0  0  0  0  0  0  0  0  0  0  0  0
    8.1511  -14.5483   25.0658 C   0  0  2  0  0  0  0  0  0  0  0  0
    7.2575  -14.8673   23.9311 N   0  0  0  0  0  0  0  0  0  0  0  0
    8.7906  -15.7652   25.5613 C   0  0  0  0  0  0  0  0  0  0  0  0
    8.0621  -16.7281   25.9626 O   0  0  0  0  0  0  0  0  0  0  0  0
   10.1887  -15.9552   25.6261 N   0  0  0  0  0  0  0  0  0  0  0  0
   10.7995  -17.1930   26.0753 C   0  0  1  0  0  0  0  0  0  0  0  0
   12.0693  -17.5430   25.3746 C   0  0  0  0  0  0  0  0  0  0  0  0
   12.0819  -17.1117   23.6173 S   0  0  0  0  0  0  0  0  0  0  0  0
   10.9721  -17.2022   27.5604 C   0  0  0  0  0  0  0  0  0  0  0  0
   11.4239  -18.2819   28.2734 O   0  0  0  0  0  0  0  0  0  0  0  0
   10.6828  -16.1518   28.1819 O   0  0  0  0  0  0  0  0  0  0  0  0
  2  1  1  1
  2  3  1  0
  4  5  1  0
  4  2  1  0
  5  7  1  0
  5  6  1  6
  7  8  2  0
  9 10  1  0
 10 11  1  0
 11 13  1  0
 11 12  1  1
 13 14  1  6
 14  7  1  0
 15 16  2  0
 15 13  1  0
 17 15  1  0
 18 17  1  0
 18 21  1  0
 18 19  1  6
 20 19  1  0
 21 22  1  0
 23 21  2  0
M  END
$$$$
