LIC.pdb
     RDKit          3D

 23 22  0  0  1  0  0  0  0  0999 V2000
    5.2299  -20.1164   24.8691 C   0  0  0  0  0  0  0  0  0  0  0  0
    6.6416  -20.2526   24.2574 C   0  0  2  0  0  0  0  0  0  0  0  0
    7.2732  -21.4052   25.0094 C   0  0  0  0  0  0  0  0  0  0  0  0
    7.4214  -18.9922   24.4871 C   0  0  0  0  0  0  0  0  0  0  0  0
    6.9144  -17.7598   23.8487 C   0  0  2  0  0  0  0  0  0  0  0  0
    6.7787  -17.9906   22.3895 N   0  0  0  0  0  0  0  0  0  0  0  0
    7.6361  -16.5155   24.0301 C   0  0  0  0  0  0  0  0  0  0  0  0
    8.5604  -16.1602   23.2115 O   0  0  0  0  0  0  0  0  0  0  0  0
    5.0834  -12.3752   26.0269 C   0  0  0  0  0  0  0  0  0  0  0  0
    6.1607  -13.0592   25.2333 C   0  0  0  0  0  0  0  0  0  0  0  0
    7.3806  -13.4245   26.1033 C   0  0  2  0  0  0  0  0  0  0  0  0
    8.0926  -12.1723   26.5047 C   0  0  0  0  0  0  0  0  0  0  0  0
    8.2280  -14.3502   25.2257 C   0  0  2  0  0  0  0  0  0  0  0  0
    7.4209  -15.5808   25.0765 N   0  0  0  0  0  0  0  0  0  0  0  0
    9.5371  -14.6713   25.7902 C   0  0  0  0  0  0  0  0  0  0  0  0
   10.5025  -13.8614   25.6147 O   0  0  0  0  0  0  0  0  0  0  0  0
    9.8136  -15.8393   26.5347 N   0  0  0  0  0  0  0  0  0  0  0  0
   10.8765  -15.9169   27.5202 C   0  0  1  0  0  0  0  0  0  0  0  0
   10.8272  -14.8525   28.5644 C   0  0  0  0  0  0  0  0  0  0  0  0
   11.4258  -15.3861   30.1866 S   0  0  0  0  0  0  0  0  0  0  0  0
   10.9493  -17.2802   28.1297 C   0  0  0  0  0  0  0  0  0  0  0  0
   11.9807  -17.7119   28.9223 O   0  0  0  0  0  0  0  0  0  0  0  0
   10.0028  -18.0692   27.8948 O   0  0  0  0  0  0  0  0  0  0  0  0
  2  1  1  1
  2  3  1  0
  4  5  1  0
  4  2  1  0
  5  7  1  0
  5  6  1  6
  7  8  2  0
  9 10  1  0
 10 11  1  0
 11 13  1  0
 11 12  1  6
 13 14  1  1
 14  7  1  0
 15 16  2  0
 15 13  1  0
 17 15  1  0
 18 17  1  0
 18 21  1  0
 18 19  1  1
 20 19  1  0
 21 22  1  0
 23 21  2  0
M  END
$$$$
