LIC.pdb
     RDKit          3D

 23 22  0  0  1  0  0  0  0  0999 V2000
    9.9333  -14.9084   30.0517 C   0  0  0  0  0  0  0  0  0  0  0  0
   10.3020  -16.3931   29.8391 C   0  0  2  0  0  0  0  0  0  0  0  0
   11.8114  -16.4311   29.9539 C   0  0  0  0  0  0  0  0  0  0  0  0
    9.8732  -16.8350   28.4715 C   0  0  0  0  0  0  0  0  0  0  0  0
    8.4350  -16.7299   28.1491 C   0  0  2  0  0  0  0  0  0  0  0  0
    7.7709  -18.0167   28.4715 N   0  0  0  0  0  0  0  0  0  0  0  0
    8.0318  -16.3528   26.8084 C   0  0  0  0  0  0  0  0  0  0  0  0
    7.7997  -17.2428   25.9113 O   0  0  0  0  0  0  0  0  0  0  0  0
    5.6817  -11.7826   26.1911 C   0  0  0  0  0  0  0  0  0  0  0  0
    5.9800  -13.1656   25.6845 C   0  0  0  0  0  0  0  0  0  0  0  0
    7.2950  -13.2191   24.8806 C   0  0  2  0  0  0  0  0  0  0  0  0
    7.0505  -12.6988   23.5002 C   0  0  0  0  0  0  0  0  0  0  0  0
    7.7150  -14.6916   24.9089 C   0  0  2  0  0  0  0  0  0  0  0  0
    7.8480  -15.0241   26.3441 N   0  0  0  0  0  0  0  0  0  0  0  0
    8.9684  -14.9664   24.2096 C   0  0  0  0  0  0  0  0  0  0  0  0
   10.0699  -14.7951   24.8230 O   0  0  0  0  0  0  0  0  0  0  0  0
    9.0473  -15.4205   22.8746 N   0  0  0  0  0  0  0  0  0  0  0  0
   10.2963  -15.8009   22.2403 C   0  0  1  0  0  0  0  0  0  0  0  0
   11.0253  -16.9056   22.9286 C   0  0  0  0  0  0  0  0  0  0  0  0
    9.9584  -18.2606   23.4766 S   0  0  0  0  0  0  0  0  0  0  0  0
   10.0964  -16.0967   20.7884 C   0  0  0  0  0  0  0  0  0  0  0  0
   11.1164  -16.3612   19.9120 O   0  0  0  0  0  0  0  0  0  0  0  0
    8.9187  -16.1007   20.3566 O   0  0  0  0  0  0  0  0  0  0  0  0
  2  1  1  6
  2  3  1  0
  4  5  1  0
  4  2  1  0
  5  7  1  0
  5  6  1  6
  7  8  2  0
  9 10  1  0
 10 11  1  0
 11 13  1  0
 11 12  1  6
 13 14  1  1
 14  7  1  0
 15 16  2  0
 15 13  1  0
 17 15  1  0
 18 17  1  0
 18 21  1  0
 18 19  1  1
 20 19  1  0
 21 22  1  0
 23 21  2  0
M  END
$$$$
