LIC.pdb
     RDKit          3D

 23 22  0  0  1  0  0  0  0  0999 V2000
    6.1353  -19.9821   28.2353 C   0  0  0  0  0  0  0  0  0  0  0  0
    6.9349  -20.4863   27.0138 C   0  0  2  0  0  0  0  0  0  0  0  0
    8.0907  -21.2626   27.6090 C   0  0  0  0  0  0  0  0  0  0  0  0
    7.4453  -19.3200   26.2209 C   0  0  0  0  0  0  0  0  0  0  0  0
    6.4385  -18.4321   25.6033 C   0  0  2  0  0  0  0  0  0  0  0  0
    5.6911  -19.1914   24.5710 N   0  0  0  0  0  0  0  0  0  0  0  0
    6.8635  -17.1816   25.0052 C   0  0  0  0  0  0  0  0  0  0  0  0
    7.1439  -17.1073   23.7536 O   0  0  0  0  0  0  0  0  0  0  0  0
    5.1751  -12.4661   26.4942 C   0  0  0  0  0  0  0  0  0  0  0  0
    5.8676  -13.4505   25.5944 C   0  0  0  0  0  0  0  0  0  0  0  0
    7.3643  -13.5973   25.9363 C   0  0  2  0  0  0  0  0  0  0  0  0
    8.0844  -12.3466   25.5450 C   0  0  0  0  0  0  0  0  0  0  0  0
    7.8271  -14.8330   25.1588 C   0  0  2  0  0  0  0  0  0  0  0  0
    7.0112  -15.9468   25.6896 N   0  0  0  0  0  0  0  0  0  0  0  0
    9.2492  -15.1331   25.3104 C   0  0  0  0  0  0  0  0  0  0  0  0
    9.7127  -15.3643   26.4725 O   0  0  0  0  0  0  0  0  0  0  0  0
   10.1655  -15.1889   24.2371 N   0  0  0  0  0  0  0  0  0  0  0  0
   11.3904  -15.9667   24.2814 C   0  0  1  0  0  0  0  0  0  0  0  0
   11.2120  -17.3702   24.7548 C   0  0  0  0  0  0  0  0  0  0  0  0
   12.3582  -17.8537   26.0689 S   0  0  0  0  0  0  0  0  0  0  0  0
   12.1093  -15.9169   22.9714 C   0  0  0  0  0  0  0  0  0  0  0  0
   13.4741  -15.9133   22.8452 O   0  0  0  0  0  0  0  0  0  0  0  0
   11.4108  -15.8764   21.9303 O   0  0  0  0  0  0  0  0  0  0  0  0
  2  1  1  1
  2  3  1  0
  4  5  1  0
  4  2  1  0
  5  7  1  0
  5  6  1  6
  7  8  2  0
  9 10  1  0
 10 11  1  0
 11 13  1  0
 11 12  1  6
 13 14  1  1
 14  7  1  0
 15 16  2  0
 15 13  1  0
 17 15  1  0
 18 17  1  0
 18 21  1  0
 18 19  1  6
 20 19  1  0
 21 22  1  0
 23 21  2  0
M  END
$$$$
