LIC.pdb
     RDKit          3D

 23 22  0  0  1  0  0  0  0  0999 V2000
    5.7446  -18.9542   20.2422 C   0  0  0  0  0  0  0  0  0  0  0  0
    6.5615  -17.6559   20.0609 C   0  0  2  0  0  0  0  0  0  0  0  0
    7.6033  -18.0037   19.0186 C   0  0  0  0  0  0  0  0  0  0  0  0
    7.2237  -17.2845   21.3544 C   0  0  0  0  0  0  0  0  0  0  0  0
    7.4890  -15.8499   21.5885 C   0  0  2  0  0  0  0  0  0  0  0  0
    8.2401  -15.3012   20.4328 N   0  0  0  0  0  0  0  0  0  0  0  0
    8.1821  -15.4418   22.7949 C   0  0  0  0  0  0  0  0  0  0  0  0
    9.4653  -15.3968   22.8387 O   0  0  0  0  0  0  0  0  0  0  0  0
    6.1037  -11.8204   25.9688 C   0  0  0  0  0  0  0  0  0  0  0  0
    7.1552  -12.6881   25.3368 C   0  0  0  0  0  0  0  0  0  0  0  0
    7.4012  -13.9815   26.1397 C   0  0  2  0  0  0  0  0  0  0  0  0
    7.9999  -13.6328   27.4649 C   0  0  0  0  0  0  0  0  0  0  0  0
    8.3278  -14.8233   25.2575 C   0  0  2  0  0  0  0  0  0  0  0  0
    7.5632  -15.0568   24.0130 N   0  0  0  0  0  0  0  0  0  0  0  0
    8.7212  -16.0980   25.8540 C   0  0  0  0  0  0  0  0  0  0  0  0
    7.8630  -17.0336   25.9373 O   0  0  0  0  0  0  0  0  0  0  0  0
   10.0134  -16.3735   26.3531 N   0  0  0  0  0  0  0  0  0  0  0  0
   10.4069  -17.6774   26.8552 C   0  0  1  0  0  0  0  0  0  0  0  0
   11.2852  -18.4535   25.9323 C   0  0  0  0  0  0  0  0  0  0  0  0
   12.6066  -17.4739   25.1782 S   0  0  0  0  0  0  0  0  0  0  0  0
   11.0042  -17.5720   28.2218 C   0  0  0  0  0  0  0  0  0  0  0  0
   11.3787  -18.6503   28.9804 O   0  0  0  0  0  0  0  0  0  0  0  0
   11.1686  -16.4213   28.6931 O   0  0  0  0  0  0  0  0  0  0  0  0
  2  1  1  1
  2  3  1  0
  4  5  1  0
  4  2  1  0
  5  7  1  0
  5  6  1  6
  7  8  2  0
  9 10  1  0
 10 11  1  0
 11 13  1  0
 11 12  1  1
 13 14  1  6
 14  7  1  0
 15 16  2  0
 15 13  1  0
 17 15  1  0
 18 17  1  0
 18 21  1  0
 18 19  1  6
 20 19  1  0
 21 22  1  0
 23 21  2  0
M  END
$$$$
