LIC.pdb
     RDKit          3D

 23 22  0  0  1  0  0  0  0  0999 V2000
    4.7367  -20.9458   25.6646 C   0  0  0  0  0  0  0  0  0  0  0  0
    5.6761  -21.2155   24.4687 C   0  0  2  0  0  0  0  0  0  0  0  0
    6.5075  -22.4059   24.8981 C   0  0  0  0  0  0  0  0  0  0  0  0
    6.5564  -20.0246   24.2320 C   0  0  0  0  0  0  0  0  0  0  0  0
    5.8916  -18.7132   24.0849 C   0  0  2  0  0  0  0  0  0  0  0  0
    4.9875  -18.7576   22.9095 N   0  0  0  0  0  0  0  0  0  0  0  0
    6.6992  -17.5144   23.9712 C   0  0  0  0  0  0  0  0  0  0  0  0
    7.2023  -17.1589   22.8437 O   0  0  0  0  0  0  0  0  0  0  0  0
    5.8004  -12.9808   26.4634 C   0  0  0  0  0  0  0  0  0  0  0  0
    6.4232  -13.9011   25.4517 C   0  0  0  0  0  0  0  0  0  0  0  0
    7.7204  -14.5493   25.9765 C   0  0  2  0  0  0  0  0  0  0  0  0
    8.7678  -13.4945   26.1392 C   0  0  0  0  0  0  0  0  0  0  0  0
    8.0827  -15.6087   24.9316 C   0  0  2  0  0  0  0  0  0  0  0  0
    7.0151  -16.6275   25.0335 N   0  0  0  0  0  0  0  0  0  0  0  0
    9.3905  -16.2266   25.1394 C   0  0  0  0  0  0  0  0  0  0  0  0
    9.5860  -16.9253   26.1845 O   0  0  0  0  0  0  0  0  0  0  0  0
   10.4757  -16.1038   24.2438 N   0  0  0  0  0  0  0  0  0  0  0  0
   11.6574  -16.9441   24.3119 C   0  0  1  0  0  0  0  0  0  0  0  0
   12.3348  -17.1617   23.0006 C   0  0  0  0  0  0  0  0  0  0  0  0
   13.0104  -15.6536   22.2633 S   0  0  0  0  0  0  0  0  0  0  0  0
   12.6142  -16.4475   25.3479 C   0  0  0  0  0  0  0  0  0  0  0  0
   13.7248  -17.1370   25.7596 O   0  0  0  0  0  0  0  0  0  0  0  0
   12.3763  -15.3299   25.8653 O   0  0  0  0  0  0  0  0  0  0  0  0
  2  1  1  1
  2  3  1  0
  4  5  1  0
  4  2  1  0
  5  7  1  0
  5  6  1  6
  7  8  2  0
  9 10  1  0
 10 11  1  0
 11 13  1  0
 11 12  1  6
 13 14  1  1
 14  7  1  0
 15 16  2  0
 15 13  1  0
 17 15  1  0
 18 17  1  0
 18 21  1  0
 18 19  1  6
 20 19  1  0
 21 22  1  0
 23 21  2  0
M  END
$$$$
