KTI.pdb
     RDKit          3D

 25 24  0  0  1  0  0  0  0  0999 V2000
   18.2755  -25.4775   -7.9111 N   0  0  0  0  0  0  0  0  0  0  0  0
   18.4081  -25.8401   -9.3063 C   0  0  1  0  0  0  0  0  0  0  0  0
   17.6734  -27.1471   -9.4993 C   0  0  0  0  0  0  0  0  0  0  0  0
   18.3175  -28.1577   -8.5741 C   0  0  0  0  0  0  0  0  0  0  0  0
   17.8296  -29.5559   -8.8387 C   0  0  0  0  0  0  0  0  0  0  0  0
   18.4616  -30.5656   -7.9104 C   0  0  0  0  0  0  0  0  0  0  0  0
   18.0683  -31.9191   -8.2539 N   0  0  0  0  0  0  0  0  0  0  0  0
   17.8902  -24.7531  -10.1329 C   0  0  0  0  0  0  0  0  0  0  0  0
   17.7075  -23.6214   -9.6173 O   0  0  0  0  0  0  0  0  0  0  0  0
   19.8628  -23.0449  -11.1042 C   0  0  0  0  0  0  0  0  0  0  0  0
   19.3679  -23.4951  -12.4394 C   0  0  1  0  0  0  0  0  0  0  0  0
   20.1383  -24.5252  -12.9607 O   0  0  0  0  0  0  0  0  0  0  0  0
   17.8885  -23.8189  -12.4347 C   0  0  2  0  0  0  0  0  0  0  0  0
   17.5674  -24.8758  -11.5108 N   0  0  0  0  0  0  0  0  0  0  0  0
   17.4117  -24.1120  -13.8074 C   0  0  0  0  0  0  0  0  0  0  0  0
   17.4815  -25.2924  -14.2164 O   0  0  0  0  0  0  0  0  0  0  0  0
   12.3800  -22.9469  -16.6054 C   0  0  0  0  0  0  0  0  0  0  0  0
   13.8047  -23.3135  -16.8381 C   0  0  0  0  0  0  0  0  0  0  0  0
   14.7910  -23.0746  -15.7792 C   0  0  2  0  0  0  0  0  0  0  0  0
   14.7512  -21.6057  -15.3071 C   0  0  0  0  0  0  0  0  0  0  0  0
   16.2082  -23.4601  -15.9425 C   0  0  2  0  0  0  0  0  0  0  0  0
   16.8897  -23.1093  -14.6498 N   0  0  0  0  0  0  0  0  0  0  0  0
   16.9717  -22.8138  -16.9835 C   0  0  0  0  0  0  0  0  0  0  0  0
   16.9670  -23.1458  -18.3243 O   0  0  0  0  0  0  0  0  0  0  0  0
   17.7601  -21.8284  -16.7056 O   0  0  0  0  0  0  0  0  0  0  0  0
  2  1  1  1
  3  2  1  0
  3  4  1  0
  5  4  1  0
  5  6  1  0
  6  7  1  0
  8  9  2  0
  8  2  1  0
 11 10  1  1
 11 13  1  0
 12 11  1  0
 13 14  1  1
 14  8  1  0
 15 22  1  0
 15 13  1  0
 16 15  2  0
 18 17  1  0
 19 21  1  0
 19 18  1  0
 19 20  1  6
 21 22  1  1
 23 21  1  0
 24 23  1  0
 25 23  2  0
M  END
$$$$
