KTI.pdb
     RDKit          3D

 25 24  0  0  1  0  0  0  0  0999 V2000
   17.5100  -12.1180  -16.8756 N   0  0  0  0  0  0  0  0  0  0  0  0
   18.6238  -11.2467  -17.1849 C   0  0  1  0  0  0  0  0  0  0  0  0
   18.6302  -11.0454  -18.6831 C   0  0  0  0  0  0  0  0  0  0  0  0
   18.9261  -12.3918  -19.3093 C   0  0  0  0  0  0  0  0  0  0  0  0
   20.3018  -12.4416  -19.9158 C   0  0  0  0  0  0  0  0  0  0  0  0
   20.5890  -13.7725  -20.5692 C   0  0  0  0  0  0  0  0  0  0  0  0
   21.2557  -14.6788  -19.6534 N   0  0  0  0  0  0  0  0  0  0  0  0
   18.4811  -10.0041  -16.4308 C   0  0  0  0  0  0  0  0  0  0  0  0
   17.5794   -9.1895  -16.7522 O   0  0  0  0  0  0  0  0  0  0  0  0
   17.0818   -9.1013  -13.4296 C   0  0  0  0  0  0  0  0  0  0  0  0
   18.4472   -8.5041  -13.3314 C   0  0  1  0  0  0  0  0  0  0  0  0
   19.2409   -9.1675  -12.4060 O   0  0  0  0  0  0  0  0  0  0  0  0
   19.1203   -8.3615  -14.6804 C   0  0  2  0  0  0  0  0  0  0  0  0
   19.3022   -9.6322  -15.3330 N   0  0  0  0  0  0  0  0  0  0  0  0
   20.3921   -7.6102  -14.5548 C   0  0  0  0  0  0  0  0  0  0  0  0
   21.4648   -8.2400  -14.6895 O   0  0  0  0  0  0  0  0  0  0  0  0
   22.8818   -2.6733  -16.6424 C   0  0  0  0  0  0  0  0  0  0  0  0
   22.8176   -3.5253  -15.4225 C   0  0  0  0  0  0  0  0  0  0  0  0
   21.7730   -4.5493  -15.3146 C   0  0  2  0  0  0  0  0  0  0  0  0
   20.3697   -3.9271  -15.4750 C   0  0  0  0  0  0  0  0  0  0  0  0
   21.7255   -5.4868  -14.1733 C   0  0  2  0  0  0  0  0  0  0  0  0
   20.4221   -6.2255  -14.2916 N   0  0  0  0  0  0  0  0  0  0  0  0
   21.7508   -4.9344  -12.8397 C   0  0  0  0  0  0  0  0  0  0  0  0
   20.7236   -4.9823  -11.9173 O   0  0  0  0  0  0  0  0  0  0  0  0
   22.7989   -4.3173  -12.4033 O   0  0  0  0  0  0  0  0  0  0  0  0
  2  1  1  6
  3  2  1  0
  3  4  1  0
  5  4  1  0
  5  6  1  0
  6  7  1  0
  8  9  2  0
  8  2  1  0
 11 10  1  6
 11 13  1  0
 12 11  1  0
 13 14  1  1
 14  8  1  0
 15 22  1  0
 15 13  1  0
 16 15  2  0
 18 17  1  0
 19 21  1  0
 19 18  1  0
 19 20  1  1
 21 22  1  6
 23 21  1  0
 24 23  1  0
 25 23  2  0
M  END
$$$$
