KTI.pdb
     RDKit          3D

 25 24  0  0  1  0  0  0  0  0999 V2000
   25.8879  -27.3231  -16.4378 N   0  0  0  0  0  0  0  0  0  0  0  0
   25.3451  -26.0063  -16.1786 C   0  0  1  0  0  0  0  0  0  0  0  0
   25.6953  -25.1379  -17.3654 C   0  0  0  0  0  0  0  0  0  0  0  0
   27.1577  -24.7704  -17.2287 C   0  0  0  0  0  0  0  0  0  0  0  0
   27.3700  -23.6613  -16.2348 C   0  0  0  0  0  0  0  0  0  0  0  0
   27.0986  -22.3009  -16.8317 C   0  0  0  0  0  0  0  0  0  0  0  0
   27.3558  -21.2420  -15.8742 N   0  0  0  0  0  0  0  0  0  0  0  0
   23.9081  -26.1205  -15.9442 C   0  0  0  0  0  0  0  0  0  0  0  0
   23.2340  -26.9253  -16.6354 O   0  0  0  0  0  0  0  0  0  0  0  0
   21.9490  -27.4309  -13.1717 C   0  0  0  0  0  0  0  0  0  0  0  0
   21.4082  -26.0642  -13.4365 C   0  0  1  0  0  0  0  0  0  0  0  0
   21.7377  -25.1689  -12.4283 O   0  0  0  0  0  0  0  0  0  0  0  0
   21.7709  -25.5498  -14.8139 C   0  0  2  0  0  0  0  0  0  0  0  0
   23.1916  -25.3743  -14.9708 N   0  0  0  0  0  0  0  0  0  0  0  0
   21.0167  -24.3125  -15.1268 C   0  0  0  0  0  0  0  0  0  0  0  0
   21.6390  -23.2271  -15.1285 O   0  0  0  0  0  0  0  0  0  0  0  0
   15.9875  -24.4728  -17.9007 C   0  0  0  0  0  0  0  0  0  0  0  0
   16.9526  -24.3480  -16.7732 C   0  0  0  0  0  0  0  0  0  0  0  0
   18.0044  -23.3277  -16.8365 C   0  0  2  0  0  0  0  0  0  0  0  0
   18.8989  -23.5314  -18.0776 C   0  0  0  0  0  0  0  0  0  0  0  0
   18.8858  -23.0544  -15.6823 C   0  0  2  0  0  0  0  0  0  0  0  0
   19.6373  -24.3287  -15.4178 N   0  0  0  0  0  0  0  0  0  0  0  0
   18.2692  -22.6882  -14.4293 C   0  0  0  0  0  0  0  0  0  0  0  0
   17.7509  -21.4492  -14.1066 O   0  0  0  0  0  0  0  0  0  0  0  0
   18.1645  -23.5493  -13.4714 O   0  0  0  0  0  0  0  0  0  0  0  0
  2  1  1  6
  3  2  1  0
  3  4  1  0
  5  4  1  0
  5  6  1  0
  6  7  1  0
  8  9  2  0
  8  2  1  0
 11 10  1  1
 11 13  1  0
 12 11  1  0
 13 14  1  1
 14  8  1  0
 15 22  1  0
 15 13  1  0
 16 15  2  0
 18 17  1  0
 19 21  1  0
 19 18  1  0
 19 20  1  6
 21 22  1  1
 23 21  1  0
 24 23  1  0
 25 23  2  0
M  END
$$$$
