KTI.pdb
     RDKit          3D

 25 24  0  0  1  0  0  0  0  0999 V2000
   22.7196  -19.2641  -18.5926 N   0  0  0  0  0  0  0  0  0  0  0  0
   22.8385  -18.7833  -17.2324 C   0  0  1  0  0  0  0  0  0  0  0  0
   21.4786  -18.9271  -16.5880 C   0  0  0  0  0  0  0  0  0  0  0  0
   20.6932  -17.6783  -16.9283 C   0  0  0  0  0  0  0  0  0  0  0  0
   20.1553  -17.7154  -18.3327 C   0  0  0  0  0  0  0  0  0  0  0  0
   19.2635  -16.5343  -18.6332 C   0  0  0  0  0  0  0  0  0  0  0  0
   17.9883  -16.6469  -17.9508 N   0  0  0  0  0  0  0  0  0  0  0  0
   23.8886  -19.5353  -16.5507 C   0  0  0  0  0  0  0  0  0  0  0  0
   23.8717  -20.7914  -16.5924 O   0  0  0  0  0  0  0  0  0  0  0  0
   27.4005  -19.9454  -17.2004 C   0  0  0  0  0  0  0  0  0  0  0  0
   27.3261  -19.5709  -15.7566 C   0  0  1  0  0  0  0  0  0  0  0  0
   27.8286  -18.2986  -15.5216 O   0  0  0  0  0  0  0  0  0  0  0  0
   25.9426  -19.7679  -15.1731 C   0  0  2  0  0  0  0  0  0  0  0  0
   24.9568  -18.9445  -15.8244 N   0  0  0  0  0  0  0  0  0  0  0  0
   25.9591  -19.5647  -13.7047 C   0  0  0  0  0  0  0  0  0  0  0  0
   25.4265  -18.5294  -13.2466 O   0  0  0  0  0  0  0  0  0  0  0  0
   23.4811  -20.6078   -8.9837 C   0  0  0  0  0  0  0  0  0  0  0  0
   24.8586  -20.2787   -9.4446 C   0  0  0  0  0  0  0  0  0  0  0  0
   25.2191  -20.5000  -10.8490 C   0  0  2  0  0  0  0  0  0  0  0  0
   24.8028  -21.9125  -11.3111 C   0  0  0  0  0  0  0  0  0  0  0  0
   26.5881  -20.2461  -11.3441 C   0  0  2  0  0  0  0  0  0  0  0  0
   26.5509  -20.4948  -12.8258 N   0  0  0  0  0  0  0  0  0  0  0  0
   27.6590  -21.0660  -10.8294 C   0  0  0  0  0  0  0  0  0  0  0  0
   28.2890  -20.9136   -9.6096 O   0  0  0  0  0  0  0  0  0  0  0  0
   28.1268  -22.0496  -11.5249 O   0  0  0  0  0  0  0  0  0  0  0  0
  2  1  1  6
  3  2  1  0
  3  4  1  0
  5  4  1  0
  5  6  1  0
  6  7  1  0
  8  9  2  0
  8  2  1  0
 11 10  1  6
 11 13  1  0
 12 11  1  0
 13 14  1  6
 14  8  1  0
 15 22  1  0
 15 13  1  0
 16 15  2  0
 18 17  1  0
 19 21  1  0
 19 18  1  0
 19 20  1  1
 21 22  1  6
 23 21  1  0
 24 23  1  0
 25 23  2  0
M  END
$$$$
