KTI.pdb
     RDKit          3D

 25 24  0  0  1  0  0  0  0  0999 V2000
   22.1176  -14.3249  -20.4150 N   0  0  0  0  0  0  0  0  0  0  0  0
   21.0738  -13.3823  -20.0721 C   0  0  1  0  0  0  0  0  0  0  0  0
   20.0861  -14.1117  -19.1902 C   0  0  0  0  0  0  0  0  0  0  0  0
   19.5755  -15.2962  -19.9831 C   0  0  0  0  0  0  0  0  0  0  0  0
   18.5486  -16.0862  -19.2187 C   0  0  0  0  0  0  0  0  0  0  0  0
   18.0663  -17.2915  -19.9902 C   0  0  0  0  0  0  0  0  0  0  0  0
   17.1883  -18.1189  -19.1845 N   0  0  0  0  0  0  0  0  0  0  0  0
   21.6759  -12.2161  -19.4315 C   0  0  0  0  0  0  0  0  0  0  0  0
   22.9122  -12.2085  -19.2046 O   0  0  0  0  0  0  0  0  0  0  0  0
   22.2964   -9.0551  -20.8089 C   0  0  0  0  0  0  0  0  0  0  0  0
   21.6051   -8.7445  -19.5219 C   0  0  1  0  0  0  0  0  0  0  0  0
   20.3173   -8.2677  -19.7239 O   0  0  0  0  0  0  0  0  0  0  0  0
   21.6525   -9.8972  -18.5410 C   0  0  2  0  0  0  0  0  0  0  0  0
   20.9566  -11.0577  -19.0335 N   0  0  0  0  0  0  0  0  0  0  0  0
   21.1591   -9.4726  -17.2090 C   0  0  0  0  0  0  0  0  0  0  0  0
   19.9611   -9.6956  -16.9254 O   0  0  0  0  0  0  0  0  0  0  0  0
   21.7723   -9.8709  -11.4824 C   0  0  0  0  0  0  0  0  0  0  0  0
   22.0142   -8.8022  -12.4912 C   0  0  0  0  0  0  0  0  0  0  0  0
   22.1045   -9.1603  -13.9106 C   0  0  2  0  0  0  0  0  0  0  0  0
   23.5723   -9.3822  -14.3330 C   0  0  0  0  0  0  0  0  0  0  0  0
   21.4502   -8.3457  -14.9557 C   0  0  2  0  0  0  0  0  0  0  0  0
   21.9935   -8.8339  -16.2691 N   0  0  0  0  0  0  0  0  0  0  0  0
   21.6685   -6.9188  -14.9399 C   0  0  0  0  0  0  0  0  0  0  0  0
   22.4534   -6.2038  -15.8235 O   0  0  0  0  0  0  0  0  0  0  0  0
   21.1137   -6.1785  -14.0376 O   0  0  0  0  0  0  0  0  0  0  0  0
  2  1  1  1
  3  2  1  0
  3  4  1  0
  5  4  1  0
  5  6  1  0
  6  7  1  0
  8  9  2  0
  8  2  1  0
 11 10  1  6
 11 13  1  0
 12 11  1  0
 13 14  1  6
 14  8  1  0
 15 22  1  0
 15 13  1  0
 16 15  2  0
 18 17  1  0
 19 21  1  0
 19 18  1  0
 19 20  1  6
 21 22  1  6
 23 21  1  0
 24 23  1  0
 25 23  2  0
M  END
$$$$
