VKV.pdb
     RDKit          3D

 24 23  0  0  1  0  0  0  0  0999 V2000
    6.9870  -13.0254   20.1614 C   0  0  0  0  0  0  0  0  0  0  0  0
    8.2877  -13.6456   19.7217 C   0  0  2  0  0  0  0  0  0  0  0  0
    8.6126  -13.1183   18.3443 C   0  0  0  0  0  0  0  0  0  0  0  0
    8.2510  -15.1472   19.7648 C   0  0  2  0  0  0  0  0  0  0  0  0
    7.3652  -15.6132   18.7324 N   0  0  0  0  0  0  0  0  0  0  0  0
    7.8146  -15.6525   21.0738 C   0  0  0  0  0  0  0  0  0  0  0  0
    6.5783  -15.8948   21.2939 O   0  0  0  0  0  0  0  0  0  0  0  0
    8.6884  -15.9110   22.1632 N   0  0  0  0  0  0  0  0  0  0  0  0
    8.3256  -16.4185   23.4279 C   0  0  1  0  0  0  0  0  0  0  0  0
    8.9399  -17.7322   23.8272 C   0  0  0  0  0  0  0  0  0  0  0  0
    8.4748  -18.1470   25.2093 C   0  0  0  0  0  0  0  0  0  0  0  0
    8.9905  -19.4993   25.6334 C   0  0  0  0  0  0  0  0  0  0  0  0
    8.4274  -19.8944   26.9879 C   0  0  0  0  0  0  0  0  0  0  0  0
    8.8883  -21.1983   27.4155 N   0  0  0  0  0  0  0  0  0  0  0  0
    8.5640  -15.4529   24.5180 C   0  0  0  0  0  0  0  0  0  0  0  0
    9.7371  -14.9684   24.6379 O   0  0  0  0  0  0  0  0  0  0  0  0
    7.4239  -11.7698   27.5602 C   0  0  0  0  0  0  0  0  0  0  0  0
    6.9430  -12.9105   26.6804 C   0  0  1  0  0  0  0  0  0  0  0  0
    6.3468  -12.2547   25.4459 C   0  0  0  0  0  0  0  0  0  0  0  0
    7.9972  -13.8847   26.3373 C   0  0  2  0  0  0  0  0  0  0  0  0
    7.6318  -14.9872   25.4765 N   0  0  0  0  0  0  0  0  0  0  0  0
    8.6592  -14.4340   27.5952 C   0  0  0  0  0  0  0  0  0  0  0  0
    9.5050  -13.6482   28.3480 O   0  0  0  0  0  0  0  0  0  0  0  0
    8.4694  -15.5953   27.9921 O   0  0  0  0  0  0  0  0  0  0  0  0
  2  1  1  6
  2  4  1  0
  2  3  1  0
  4  5  1  6
  6  4  1  0
  7  6  2  0
  8  6  1  0
  9 10  1  1
  9  8  1  0
 10 11  1  0
 11 12  1  0
 13 12  1  0
 14 13  1  0
 15  9  1  0
 16 15  2  0
 18 17  1  1
 18 19  1  0
 18 20  1  0
 20 21  1  1
 21 15  1  0
 22 20  1  0
 22 23  1  0
 24 22  2  0
M  END
$$$$
