VKV.pdb
     RDKit          3D

 24 23  0  0  1  0  0  0  0  0999 V2000
    7.5349  -11.8079   27.1161 C   0  0  0  0  0  0  0  0  0  0  0  0
    6.8130  -11.7163   25.7969 C   0  0  2  0  0  0  0  0  0  0  0  0
    5.9809  -10.4560   25.8083 C   0  0  0  0  0  0  0  0  0  0  0  0
    5.9919  -12.9406   25.5058 C   0  0  2  0  0  0  0  0  0  0  0  0
    5.0378  -13.1149   26.5674 N   0  0  0  0  0  0  0  0  0  0  0  0
    6.8234  -14.1444   25.3684 C   0  0  0  0  0  0  0  0  0  0  0  0
    7.0260  -14.9085   26.3737 O   0  0  0  0  0  0  0  0  0  0  0  0
    7.4455  -14.5529   24.1587 N   0  0  0  0  0  0  0  0  0  0  0  0
    8.3267  -15.6415   23.9943 C   0  0  1  0  0  0  0  0  0  0  0  0
    8.9254  -15.8220   22.6262 C   0  0  0  0  0  0  0  0  0  0  0  0
    7.8655  -16.2355   21.6241 C   0  0  0  0  0  0  0  0  0  0  0  0
    8.4368  -16.7433   20.3240 C   0  0  0  0  0  0  0  0  0  0  0  0
    7.3354  -17.2487   19.4080 C   0  0  0  0  0  0  0  0  0  0  0  0
    7.8460  -17.6954   18.1291 N   0  0  0  0  0  0  0  0  0  0  0  0
    9.4275  -15.6357   24.9771 C   0  0  0  0  0  0  0  0  0  0  0  0
   10.3157  -14.7274   24.8706 O   0  0  0  0  0  0  0  0  0  0  0  0
   11.2771  -15.2044   29.2506 C   0  0  0  0  0  0  0  0  0  0  0  0
   10.1834  -15.4406   28.2237 C   0  0  1  0  0  0  0  0  0  0  0  0
    9.6834  -14.0603   27.8304 C   0  0  0  0  0  0  0  0  0  0  0  0
   10.6227  -16.2262   27.0540 C   0  0  2  0  0  0  0  0  0  0  0  0
    9.6309  -16.5377   26.0494 N   0  0  0  0  0  0  0  0  0  0  0  0
   11.3089  -17.5144   27.4918 C   0  0  0  0  0  0  0  0  0  0  0  0
   12.5029  -17.4793   28.1794 O   0  0  0  0  0  0  0  0  0  0  0  0
   10.8311  -18.6354   27.2526 O   0  0  0  0  0  0  0  0  0  0  0  0
  2  1  1  1
  2  4  1  0
  2  3  1  0
  4  5  1  1
  6  4  1  0
  7  6  2  0
  8  6  1  0
  9 10  1  6
  9  8  1  0
 10 11  1  0
 11 12  1  0
 13 12  1  0
 14 13  1  0
 15  9  1  0
 16 15  2  0
 18 17  1  1
 18 19  1  0
 18 20  1  0
 20 21  1  6
 21 15  1  0
 22 20  1  0
 22 23  1  0
 24 22  2  0
M  END
$$$$
