VKV.pdb
     RDKit          3D

 24 23  0  0  1  0  0  0  0  0999 V2000
    6.9185  -12.9860   19.6512 C   0  0  0  0  0  0  0  0  0  0  0  0
    8.3549  -13.4367   19.7112 C   0  0  2  0  0  0  0  0  0  0  0  0
    9.0766  -12.8507   18.5209 C   0  0  0  0  0  0  0  0  0  0  0  0
    8.4849  -14.9321   19.7788 C   0  0  2  0  0  0  0  0  0  0  0  0
    7.9514  -15.4932   18.5670 N   0  0  0  0  0  0  0  0  0  0  0  0
    7.7925  -15.4953   20.9462 C   0  0  0  0  0  0  0  0  0  0  0  0
    6.6760  -16.1028   20.8049 O   0  0  0  0  0  0  0  0  0  0  0  0
    8.2816  -15.4234   22.2777 N   0  0  0  0  0  0  0  0  0  0  0  0
    7.7756  -16.1174   23.3962 C   0  0  1  0  0  0  0  0  0  0  0  0
    8.0617  -17.5928   23.4585 C   0  0  0  0  0  0  0  0  0  0  0  0
    7.5117  -18.1953   24.7365 C   0  0  0  0  0  0  0  0  0  0  0  0
    7.7276  -19.6845   24.8373 C   0  0  0  0  0  0  0  0  0  0  0  0
    7.1182  -20.2358   26.1149 C   0  0  0  0  0  0  0  0  0  0  0  0
    7.4218  -21.6380   26.3081 N   0  0  0  0  0  0  0  0  0  0  0  0
    8.1962  -15.5163   24.6765 C   0  0  0  0  0  0  0  0  0  0  0  0
    9.4463  -15.3946   24.8947 O   0  0  0  0  0  0  0  0  0  0  0  0
    7.2843  -11.8018   27.7694 C   0  0  0  0  0  0  0  0  0  0  0  0
    6.7488  -12.9639   26.9513 C   0  0  1  0  0  0  0  0  0  0  0  0
    6.0073  -12.3369   25.7822 C   0  0  0  0  0  0  0  0  0  0  0  0
    7.7904  -13.9097   26.5053 C   0  0  2  0  0  0  0  0  0  0  0  0
    7.3657  -15.0494   25.7239 N   0  0  0  0  0  0  0  0  0  0  0  0
    8.6220  -14.3976   27.6853 C   0  0  0  0  0  0  0  0  0  0  0  0
    8.6972  -15.7399   27.9884 O   0  0  0  0  0  0  0  0  0  0  0  0
    9.2591  -13.6204   28.4149 O   0  0  0  0  0  0  0  0  0  0  0  0
  2  1  1  6
  2  4  1  0
  2  3  1  0
  4  5  1  6
  6  4  1  0
  7  6  2  0
  8  6  1  0
  9 10  1  1
  9  8  1  0
 10 11  1  0
 11 12  1  0
 13 12  1  0
 14 13  1  0
 15  9  1  0
 16 15  2  0
 18 17  1  6
 18 19  1  0
 18 20  1  0
 20 21  1  1
 21 15  1  0
 22 20  1  0
 22 23  1  0
 24 22  2  0
M  END
$$$$
