VKV.pdb
     RDKit          3D

 24 23  0  0  1  0  0  0  0  0999 V2000
    7.1467  -12.7775   21.0221 C   0  0  0  0  0  0  0  0  0  0  0  0
    8.3591  -13.1808   20.2237 C   0  0  2  0  0  0  0  0  0  0  0  0
    8.3553  -12.3871   18.9388 C   0  0  0  0  0  0  0  0  0  0  0  0
    8.4190  -14.6623   19.9801 C   0  0  2  0  0  0  0  0  0  0  0  0
    7.3727  -15.0175   19.0597 N   0  0  0  0  0  0  0  0  0  0  0  0
    8.2838  -15.4333   21.2237 C   0  0  0  0  0  0  0  0  0  0  0  0
    7.1296  -15.6389   21.7348 O   0  0  0  0  0  0  0  0  0  0  0  0
    9.3742  -15.9992   21.9364 N   0  0  0  0  0  0  0  0  0  0  0  0
    9.3095  -16.6691   23.1756 C   0  0  1  0  0  0  0  0  0  0  0  0
   10.1059  -17.9395   23.2962 C   0  0  0  0  0  0  0  0  0  0  0  0
    9.6672  -18.9517   22.2562 C   0  0  0  0  0  0  0  0  0  0  0  0
   10.5481  -20.1747   22.2025 C   0  0  0  0  0  0  0  0  0  0  0  0
   10.0228  -21.1777   21.1899 C   0  0  0  0  0  0  0  0  0  0  0  0
   10.7851  -22.4083   21.1889 N   0  0  0  0  0  0  0  0  0  0  0  0
    9.6650  -15.7978   24.3123 C   0  0  0  0  0  0  0  0  0  0  0  0
    9.9547  -14.5818   24.0623 O   0  0  0  0  0  0  0  0  0  0  0  0
    8.7137  -13.0209   27.6564 C   0  0  0  0  0  0  0  0  0  0  0  0
    8.6266  -14.1090   26.6005 C   0  0  1  0  0  0  0  0  0  0  0  0
    8.6135  -13.3853   25.2642 C   0  0  0  0  0  0  0  0  0  0  0  0
    9.7112  -15.1068   26.6811 C   0  0  2  0  0  0  0  0  0  0  0  0
    9.7319  -16.1513   25.6818 N   0  0  0  0  0  0  0  0  0  0  0  0
    9.7632  -15.7417   28.0654 C   0  0  0  0  0  0  0  0  0  0  0  0
   10.6212  -15.2604   29.0306 O   0  0  0  0  0  0  0  0  0  0  0  0
    9.0465  -16.7055   28.3809 O   0  0  0  0  0  0  0  0  0  0  0  0
  2  1  1  6
  2  4  1  0
  2  3  1  0
  4  5  1  6
  6  4  1  0
  7  6  2  0
  8  6  1  0
  9 10  1  6
  9  8  1  0
 10 11  1  0
 11 12  1  0
 13 12  1  0
 14 13  1  0
 15  9  1  0
 16 15  2  0
 18 17  1  1
 18 19  1  0
 18 20  1  0
 20 21  1  6
 21 15  1  0
 22 20  1  0
 22 23  1  0
 24 22  2  0
M  END
$$$$
