VKV.pdb
     RDKit          3D

 24 23  0  0  1  0  0  0  0  0999 V2000
    9.2588  -12.7731   20.0769 C   0  0  0  0  0  0  0  0  0  0  0  0
    8.4371  -13.5411   19.0745 C   0  0  2  0  0  0  0  0  0  0  0  0
    7.0201  -13.0224   19.1391 C   0  0  0  0  0  0  0  0  0  0  0  0
    8.5121  -15.0265   19.2885 C   0  0  2  0  0  0  0  0  0  0  0  0
    7.8580  -15.6812   18.1879 N   0  0  0  0  0  0  0  0  0  0  0  0
    7.8970  -15.4341   20.5592 C   0  0  0  0  0  0  0  0  0  0  0  0
    6.6301  -15.5864   20.6448 O   0  0  0  0  0  0  0  0  0  0  0  0
    8.6223  -15.6894   21.7533 N   0  0  0  0  0  0  0  0  0  0  0  0
    8.0969  -16.1847   22.9646 C   0  0  1  0  0  0  0  0  0  0  0  0
    8.5710  -17.5451   23.3974 C   0  0  0  0  0  0  0  0  0  0  0  0
    7.8796  -17.9754   24.6762 C   0  0  0  0  0  0  0  0  0  0  0  0
    8.2143  -19.3860   25.0919 C   0  0  0  0  0  0  0  0  0  0  0  0
    7.3986  -19.8026   26.3038 C   0  0  0  0  0  0  0  0  0  0  0  0
    7.6432  -21.1776   26.6848 N   0  0  0  0  0  0  0  0  0  0  0  0
    8.2921  -15.2532   24.0923 C   0  0  0  0  0  0  0  0  0  0  0  0
    9.4495  -14.7420   24.2485 O   0  0  0  0  0  0  0  0  0  0  0  0
    7.1167  -11.9139   27.5169 C   0  0  0  0  0  0  0  0  0  0  0  0
    6.6281  -12.9782   26.5500 C   0  0  1  0  0  0  0  0  0  0  0  0
    5.9219  -12.2268   25.4336 C   0  0  0  0  0  0  0  0  0  0  0  0
    7.6986  -13.8559   26.0380 C   0  0  2  0  0  0  0  0  0  0  0  0
    7.3330  -14.8476   25.0516 N   0  0  0  0  0  0  0  0  0  0  0  0
    8.4334  -14.5411   27.1837 C   0  0  0  0  0  0  0  0  0  0  0  0
    9.5677  -13.9804   27.7300 O   0  0  0  0  0  0  0  0  0  0  0  0
    8.0495  -15.6179   27.6687 O   0  0  0  0  0  0  0  0  0  0  0  0
  2  1  1  1
  2  4  1  0
  2  3  1  0
  4  5  1  6
  6  4  1  0
  7  6  2  0
  8  6  1  0
  9 10  1  1
  9  8  1  0
 10 11  1  0
 11 12  1  0
 13 12  1  0
 14 13  1  0
 15  9  1  0
 16 15  2  0
 18 17  1  1
 18 19  1  0
 18 20  1  0
 20 21  1  6
 21 15  1  0
 22 20  1  0
 22 23  1  0
 24 22  2  0
M  END
$$$$
