VKV.pdb
     RDKit          3D

 24 23  0  0  1  0  0  0  0  0999 V2000
    8.2761  -13.1660   18.0849 C   0  0  0  0  0  0  0  0  0  0  0  0
    7.7068  -13.6431   19.3956 C   0  0  2  0  0  0  0  0  0  0  0  0
    8.2080  -12.7228   20.4832 C   0  0  0  0  0  0  0  0  0  0  0  0
    8.0314  -15.0840   19.6718 C   0  0  2  0  0  0  0  0  0  0  0  0
    7.5690  -15.8775   18.5653 N   0  0  0  0  0  0  0  0  0  0  0  0
    7.4252  -15.5574   20.9238 C   0  0  0  0  0  0  0  0  0  0  0  0
    6.1540  -15.6431   21.0348 O   0  0  0  0  0  0  0  0  0  0  0  0
    8.1638  -15.9503   22.0716 N   0  0  0  0  0  0  0  0  0  0  0  0
    7.6336  -16.3131   23.3269 C   0  0  1  0  0  0  0  0  0  0  0  0
    7.9280  -17.7090   23.8036 C   0  0  0  0  0  0  0  0  0  0  0  0
    7.0677  -18.7211   23.0728 C   0  0  0  0  0  0  0  0  0  0  0  0
    7.3093  -20.1425   23.5153 C   0  0  0  0  0  0  0  0  0  0  0  0
    6.4778  -21.1146   22.6961 C   0  0  0  0  0  0  0  0  0  0  0  0
    6.6122  -22.4793   23.1598 N   0  0  0  0  0  0  0  0  0  0  0  0
    8.0168  -15.3743   24.3990 C   0  0  0  0  0  0  0  0  0  0  0  0
    9.1865  -14.8689   24.3576 O   0  0  0  0  0  0  0  0  0  0  0  0
    7.3807  -11.8277   27.7191 C   0  0  0  0  0  0  0  0  0  0  0  0
    6.7560  -12.9354   26.8889 C   0  0  1  0  0  0  0  0  0  0  0  0
    5.9952  -12.2354   25.7750 C   0  0  0  0  0  0  0  0  0  0  0  0
    7.7315  -13.9120   26.3665 C   0  0  2  0  0  0  0  0  0  0  0  0
    7.2313  -14.9557   25.5001 N   0  0  0  0  0  0  0  0  0  0  0  0
    8.5262  -14.5461   27.5016 C   0  0  0  0  0  0  0  0  0  0  0  0
    9.4890  -13.8269   28.1764 O   0  0  0  0  0  0  0  0  0  0  0  0
    8.3451  -15.7200   27.8638 O   0  0  0  0  0  0  0  0  0  0  0  0
  2  1  1  6
  2  4  1  0
  2  3  1  0
  4  5  1  6
  6  4  1  0
  7  6  2  0
  8  6  1  0
  9 10  1  1
  9  8  1  0
 10 11  1  0
 11 12  1  0
 13 12  1  0
 14 13  1  0
 15  9  1  0
 16 15  2  0
 18 17  1  6
 18 19  1  0
 18 20  1  0
 20 21  1  1
 21 15  1  0
 22 20  1  0
 22 23  1  0
 24 22  2  0
M  END
$$$$
