VKV.pdb
     RDKit          3D

 24 23  0  0  1  0  0  0  0  0999 V2000
    7.9629  -12.5924   18.2220 C   0  0  0  0  0  0  0  0  0  0  0  0
    7.7910  -13.3400   19.5187 C   0  0  2  0  0  0  0  0  0  0  0  0
    8.3135  -12.4649   20.6333 C   0  0  0  0  0  0  0  0  0  0  0  0
    8.4510  -14.6897   19.4948 C   0  0  2  0  0  0  0  0  0  0  0  0
    7.9515  -15.4235   18.3635 N   0  0  0  0  0  0  0  0  0  0  0  0
    8.2133  -15.4436   20.7335 C   0  0  0  0  0  0  0  0  0  0  0  0
    7.0641  -15.9525   20.9703 O   0  0  0  0  0  0  0  0  0  0  0  0
    9.1964  -15.6699   21.7332 N   0  0  0  0  0  0  0  0  0  0  0  0
    9.0142  -16.3633   22.9476 C   0  0  1  0  0  0  0  0  0  0  0  0
    9.9353  -17.5245   23.2041 C   0  0  0  0  0  0  0  0  0  0  0  0
    9.6488  -18.6624   22.2441 C   0  0  0  0  0  0  0  0  0  0  0  0
   10.5093  -19.8777   22.4827 C   0  0  0  0  0  0  0  0  0  0  0  0
   10.2504  -20.9412   21.4294 C   0  0  0  0  0  0  0  0  0  0  0  0
   10.9713  -22.1676   21.6977 N   0  0  0  0  0  0  0  0  0  0  0  0
    9.0632  -15.4733   24.1236 C   0  0  0  0  0  0  0  0  0  0  0  0
   10.0761  -14.7096   24.2503 O   0  0  0  0  0  0  0  0  0  0  0  0
    7.4562  -12.4771   27.6097 C   0  0  0  0  0  0  0  0  0  0  0  0
    7.1432  -13.5303   26.5612 C   0  0  1  0  0  0  0  0  0  0  0  0
    6.5881  -12.7705   25.3678 C   0  0  0  0  0  0  0  0  0  0  0  0
    8.3003  -14.3703   26.1953 C   0  0  2  0  0  0  0  0  0  0  0  0
    8.1049  -15.3599   25.1597 N   0  0  0  0  0  0  0  0  0  0  0  0
    8.8901  -15.0481   27.4261 C   0  0  0  0  0  0  0  0  0  0  0  0
    9.8414  -14.4119   28.1941 O   0  0  0  0  0  0  0  0  0  0  0  0
    8.5457  -16.1854   27.7866 O   0  0  0  0  0  0  0  0  0  0  0  0
  2  1  1  6
  2  4  1  0
  2  3  1  0
  4  5  1  6
  6  4  1  0
  7  6  2  0
  8  6  1  0
  9 10  1  1
  9  8  1  0
 10 11  1  0
 11 12  1  0
 13 12  1  0
 14 13  1  0
 15  9  1  0
 16 15  2  0
 18 17  1  1
 18 19  1  0
 18 20  1  0
 20 21  1  6
 21 15  1  0
 22 20  1  0
 22 23  1  0
 24 22  2  0
M  END
$$$$
