RAI.pdb
     RDKit          3D

 25 24  0  0  1  0  0  0  0  0999 V2000
   31.8992  -26.1227  -17.8753 N   0  0  0  0  0  0  0  0  0  0  0  0
   30.9426  -26.9889  -18.4913 C   0  0  0  0  0  0  0  0  0  0  0  0
   31.2599  -28.1823  -18.8770 N   0  0  0  0  0  0  0  0  0  0  0  0
   29.6039  -26.5655  -18.7016 N   0  0  0  0  0  0  0  0  0  0  0  0
   29.1815  -25.2753  -18.2293 C   0  0  0  0  0  0  0  0  0  0  0  0
   28.5888  -25.3904  -16.8265 C   0  0  0  0  0  0  0  0  0  0  0  0
   27.9728  -24.0400  -16.5134 C   0  0  0  0  0  0  0  0  0  0  0  0
   29.0395  -22.9819  -16.3455 C   0  0  2  0  0  0  0  0  0  0  0  0
   30.2092  -23.6572  -15.7892 N   0  0  0  0  0  0  0  0  0  0  0  0
   28.5401  -22.0341  -15.2909 C   0  0  0  0  0  0  0  0  0  0  0  0
   28.7138  -22.2749  -14.0641 O   0  0  0  0  0  0  0  0  0  0  0  0
   30.5737  -28.8273  -19.3065 C   0  0  0  0  0  0  0  0  0  0  0  0
   27.0242  -18.5755  -15.1900 C   0  0  1  0  0  0  0  0  0  0  0  0
   27.4851  -19.8915  -14.6078 N   0  0  0  0  0  0  0  0  0  0  0  0
   27.8597  -20.8409  -15.6160 C   0  0  0  0  0  0  0  0  0  0  0  0
   26.4951  -20.4956  -13.7150 O   0  0  0  0  0  0  0  0  0  0  0  0
   25.7335  -21.3941  -14.1495 C   0  0  0  0  0  0  0  0  0  0  0  0
   26.8226  -19.7022   -8.2099 C   0  0  0  0  0  0  0  0  0  0  0  0
   26.6689  -20.5363   -9.4622 C   0  0  2  0  0  0  0  0  0  0  0  0
   25.3274  -20.2775  -10.1141 C   0  0  0  0  0  0  0  0  0  0  0  0
   24.2540  -20.9578   -9.3060 C   0  0  2  0  0  0  0  0  0  0  0  0
   25.2881  -20.7133  -11.5416 N   0  0  0  0  0  0  0  0  0  0  0  0
   26.3227  -20.1332  -12.3505 C   0  0  0  0  0  0  0  0  0  0  0  0
   23.9303  -20.4546  -12.1294 O   0  0  0  0  0  0  0  0  0  0  0  0
   23.0386  -21.3579  -12.1508 O   0  0  0  0  0  0  0  0  0  0  0  0
  2  1  1  0
  2  3  2  0
  4  2  1  0
  5  4  1  0
  6  5  1  0
  7  6  1  0
  8  7  1  0
  8  9  1  1
 10  8  1  0
 10 14  1  0
 11 10  2  0
 13 14  1  0
 13 12  1  1
 15 13  1  0
 15 16  2  0
 18 19  1  0
 18 17  1  0
 19 21  1  0
 19 20  1  6
 21 22  1  6
 21 23  1  0
 22 15  1  0
 23 24  2  0
 23 25  1  0
M  END
$$$$
