RAI.pdb
     RDKit          3D

 25 24  0  0  1  0  0  0  0  0999 V2000
   16.2752  -13.2041  -17.1007 N   0  0  0  0  0  0  0  0  0  0  0  0
   15.2914  -12.6887  -16.2000 C   0  0  0  0  0  0  0  0  0  0  0  0
   14.4987  -13.4721  -15.5430 N   0  0  0  0  0  0  0  0  0  0  0  0
   15.1505  -11.2909  -15.9952 N   0  0  0  0  0  0  0  0  0  0  0  0
   16.0833  -10.3833  -16.6053 C   0  0  0  0  0  0  0  0  0  0  0  0
   17.4855  -10.6029  -16.0415 C   0  0  0  0  0  0  0  0  0  0  0  0
   18.3443   -9.4786  -16.5885 C   0  0  0  0  0  0  0  0  0  0  0  0
   19.7630   -9.5797  -16.0759 C   0  0  2  0  0  0  0  0  0  0  0  0
   20.1539  -10.9806  -16.2118 N   0  0  0  0  0  0  0  0  0  0  0  0
   19.7083   -9.2828  -14.6033 C   0  0  0  0  0  0  0  0  0  0  0  0
   19.4008  -10.1790  -13.7693 O   0  0  0  0  0  0  0  0  0  0  0  0
   13.8384  -13.1203  -14.8277 C   0  0  0  0  0  0  0  0  0  0  0  0
   21.2588   -6.8925  -12.3008 C   0  0  2  0  0  0  0  0  0  0  0  0
   20.0826   -7.7648  -12.6729 N   0  0  0  0  0  0  0  0  0  0  0  0
   19.9947   -8.0014  -14.0851 C   0  0  0  0  0  0  0  0  0  0  0  0
   18.8068   -7.2356  -12.1883 O   0  0  0  0  0  0  0  0  0  0  0  0
   18.1320   -6.4730  -12.9226 C   0  0  0  0  0  0  0  0  0  0  0  0
   14.2764   -9.2721  -11.2822 C   0  0  0  0  0  0  0  0  0  0  0  0
   15.4122   -8.3053  -11.5329 C   0  0  2  0  0  0  0  0  0  0  0  0
   15.9059   -7.7131  -10.2302 C   0  0  0  0  0  0  0  0  0  0  0  0
   14.7739   -6.9668   -9.5748 C   0  0  2  0  0  0  0  0  0  0  0  0
   17.0989   -6.8343  -10.4136 N   0  0  0  0  0  0  0  0  0  0  0  0
   18.2544   -7.5266  -10.9105 C   0  0  0  0  0  0  0  0  0  0  0  0
   17.4104   -6.1039   -9.1387 O   0  0  0  0  0  0  0  0  0  0  0  0
   18.3086   -6.5197   -8.3437 O   0  0  0  0  0  0  0  0  0  0  0  0
  2  1  1  0
  2  3  2  0
  4  2  1  0
  5  4  1  0
  6  5  1  0
  7  6  1  0
  8  7  1  0
  8  9  1  1
 10  8  1  0
 10 14  1  0
 11 10  2  0
 13 14  1  0
 13 12  1  1
 15 13  1  0
 15 16  2  0
 18 19  1  0
 18 17  1  0
 19 21  1  0
 19 20  1  1
 21 22  1  6
 21 23  1  0
 22 15  1  0
 23 24  2  0
 23 25  1  0
M  END
$$$$
