RAI.pdb
     RDKit          3D

 25 24  0  0  1  0  0  0  0  0999 V2000
   25.7003  -22.8748  -16.2606 N   0  0  0  0  0  0  0  0  0  0  0  0
   26.8909  -22.5115  -16.9646 C   0  0  0  0  0  0  0  0  0  0  0  0
   27.0688  -22.8339  -18.2048 N   0  0  0  0  0  0  0  0  0  0  0  0
   27.9241  -21.7802  -16.3219 N   0  0  0  0  0  0  0  0  0  0  0  0
   27.7020  -21.2341  -15.0110 C   0  0  0  0  0  0  0  0  0  0  0  0
   27.3766  -19.7448  -15.1034 C   0  0  0  0  0  0  0  0  0  0  0  0
   27.3619  -19.2240  -13.6788 C   0  0  0  0  0  0  0  0  0  0  0  0
   27.5633  -20.3474  -12.6874 C   0  0  2  0  0  0  0  0  0  0  0  0
   26.6698  -21.4276  -13.0979 N   0  0  0  0  0  0  0  0  0  0  0  0
   27.0605  -19.8448  -11.3628 C   0  0  0  0  0  0  0  0  0  0  0  0
   27.5093  -18.7785  -10.8581 O   0  0  0  0  0  0  0  0  0  0  0  0
   27.9367  -22.6023  -18.7192 C   0  0  0  0  0  0  0  0  0  0  0  0
   24.2214  -20.4622   -9.0192 C   0  0  2  0  0  0  0  0  0  0  0  0
   25.6489  -20.0785   -9.3322 N   0  0  0  0  0  0  0  0  0  0  0  0
   26.0724  -20.5323  -10.6256 C   0  0  0  0  0  0  0  0  0  0  0  0
   26.5975  -20.5436   -8.3191 O   0  0  0  0  0  0  0  0  0  0  0  0
   27.2507  -21.5972   -8.5175 C   0  0  0  0  0  0  0  0  0  0  0  0
   30.9284  -19.2796   -4.3722 C   0  0  0  0  0  0  0  0  0  0  0  0
   29.7552  -20.1848   -4.6751 C   0  0  2  0  0  0  0  0  0  0  0  0
   28.8601  -19.5642   -5.7263 C   0  0  0  0  0  0  0  0  0  0  0  0
   28.3970  -18.2170   -5.2378 C   0  0  2  0  0  0  0  0  0  0  0  0
   27.7029  -20.4370   -6.0843 N   0  0  0  0  0  0  0  0  0  0  0  0
   26.8450  -19.8745   -7.0888 C   0  0  0  0  0  0  0  0  0  0  0  0
   26.9267  -20.8064   -4.8526 O   0  0  0  0  0  0  0  0  0  0  0  0
   25.7646  -20.3410   -4.6418 O   0  0  0  0  0  0  0  0  0  0  0  0
  2  1  1  0
  2  3  2  0
  4  2  1  0
  5  4  1  0
  6  5  1  0
  7  6  1  0
  8  7  1  0
  8  9  1  6
 10  8  1  0
 10 14  1  0
 11 10  2  0
 13 14  1  0
 13 12  1  6
 15 13  1  0
 15 16  2  0
 18 19  1  0
 18 17  1  0
 19 21  1  0
 19 20  1  6
 21 22  1  1
 21 23  1  0
 22 15  1  0
 23 24  2  0
 23 25  1  0
M  END
$$$$
