RAI.pdb
     RDKit          3D

 25 24  0  0  1  0  0  0  0  0999 V2000
   21.1156  -19.7974  -14.9233 N   0  0  0  0  0  0  0  0  0  0  0  0
   20.6311  -19.5225  -13.6062 C   0  0  0  0  0  0  0  0  0  0  0  0
   19.3707  -19.5864  -13.3217 N   0  0  0  0  0  0  0  0  0  0  0  0
   21.5229  -19.1680  -12.5600 N   0  0  0  0  0  0  0  0  0  0  0  0
   22.9351  -19.0999  -12.8191 C   0  0  0  0  0  0  0  0  0  0  0  0
   23.4718  -20.4763  -13.2065 C   0  0  0  0  0  0  0  0  0  0  0  0
   24.3209  -20.9450  -12.0402 C   0  0  0  0  0  0  0  0  0  0  0  0
   25.6377  -21.5120  -12.5200 C   0  0  2  0  0  0  0  0  0  0  0  0
   25.3573  -22.8634  -12.9983 N   0  0  0  0  0  0  0  0  0  0  0  0
   26.5118  -21.6517  -11.3050 C   0  0  0  0  0  0  0  0  0  0  0  0
   26.2079  -22.4457  -10.3720 O   0  0  0  0  0  0  0  0  0  0  0  0
   19.0055  -19.3907  -12.3731 C   0  0  0  0  0  0  0  0  0  0  0  0
   30.0035  -20.6897  -10.3303 C   0  0  1  0  0  0  0  0  0  0  0  0
   28.5894  -21.1384  -10.0438 N   0  0  0  0  0  0  0  0  0  0  0  0
   27.7027  -20.9104  -11.1483 C   0  0  0  0  0  0  0  0  0  0  0  0
   28.0317  -20.5244   -8.8378 O   0  0  0  0  0  0  0  0  0  0  0  0
   27.1174  -19.6705   -8.9418 C   0  0  0  0  0  0  0  0  0  0  0  0
   28.4350  -19.6422   -2.9437 C   0  0  0  0  0  0  0  0  0  0  0  0
   27.4164  -20.1644   -3.9323 C   0  0  1  0  0  0  0  0  0  0  0  0
   28.1030  -20.8581   -5.0894 C   0  0  0  0  0  0  0  0  0  0  0  0
   29.5556  -21.0568   -4.7452 C   0  0  2  0  0  0  0  0  0  0  0  0
   27.9483  -20.1182   -6.3770 N   0  0  0  0  0  0  0  0  0  0  0  0
   28.4580  -20.8290   -7.5156 C   0  0  0  0  0  0  0  0  0  0  0  0
   28.5623  -18.7515   -6.2709 O   0  0  0  0  0  0  0  0  0  0  0  0
   27.9910  -17.8210   -5.6234 O   0  0  0  0  0  0  0  0  0  0  0  0
  2  1  1  0
  2  3  2  0
  4  2  1  0
  5  4  1  0
  6  5  1  0
  7  6  1  0
  8  7  1  0
  8  9  1  1
 10  8  1  0
 10 14  1  0
 11 10  2  0
 13 14  1  0
 13 12  1  6
 15 13  1  0
 15 16  2  0
 18 19  1  0
 18 17  1  0
 19 21  1  0
 19 20  1  1
 21 22  1  6
 21 23  1  0
 22 15  1  0
 23 24  2  0
 23 25  1  0
M  END
$$$$
