RAI.pdb
     RDKit          3D

 25 24  0  0  1  0  0  0  0  0999 V2000
   23.9844  -30.6532   -9.5626 N   0  0  0  0  0  0  0  0  0  0  0  0
   23.5452  -31.9198  -10.0602 C   0  0  0  0  0  0  0  0  0  0  0  0
   24.2409  -32.9956   -9.8809 N   0  0  0  0  0  0  0  0  0  0  0  0
   22.3228  -32.0399  -10.7723 N   0  0  0  0  0  0  0  0  0  0  0  0
   21.4553  -30.9007  -10.8969 C   0  0  0  0  0  0  0  0  0  0  0  0
   20.8422  -30.5483   -9.5432 C   0  0  0  0  0  0  0  0  0  0  0  0
   19.8696  -29.4130   -9.7998 C   0  0  0  0  0  0  0  0  0  0  0  0
   19.2399  -28.9351   -8.5111 C   0  0  2  0  0  0  0  0  0  0  0  0
   18.1872  -29.8935   -8.1838 N   0  0  0  0  0  0  0  0  0  0  0  0
   18.5608  -27.6310   -8.8243 C   0  0  0  0  0  0  0  0  0  0  0  0
   17.5204  -27.5936   -9.5379 O   0  0  0  0  0  0  0  0  0  0  0  0
   23.9521  -33.9132  -10.2631 C   0  0  0  0  0  0  0  0  0  0  0  0
   18.8666  -24.0119   -7.8026 C   0  0  1  0  0  0  0  0  0  0  0  0
   18.4120  -25.1556   -8.6790 N   0  0  0  0  0  0  0  0  0  0  0  0
   19.0471  -26.3970   -8.3414 C   0  0  0  0  0  0  0  0  0  0  0  0
   18.5977  -24.8867  -10.1058 O   0  0  0  0  0  0  0  0  0  0  0  0
   19.6272  -25.3077  -10.6881 C   0  0  0  0  0  0  0  0  0  0  0  0
   15.1893  -25.9195  -13.6236 C   0  0  0  0  0  0  0  0  0  0  0  0
   16.6421  -25.6438  -13.3057 C   0  0  2  0  0  0  0  0  0  0  0  0
   16.8993  -24.1536  -13.2361 C   0  0  0  0  0  0  0  0  0  0  0  0
   17.2231  -23.6504  -14.6181 C   0  0  2  0  0  0  0  0  0  0  0  0
   17.9775  -23.8009  -12.2654 N   0  0  0  0  0  0  0  0  0  0  0  0
   17.6742  -24.1631  -10.9096 C   0  0  0  0  0  0  0  0  0  0  0  0
   18.3212  -22.3428  -12.3737 O   0  0  0  0  0  0  0  0  0  0  0  0
   17.8469  -21.4918  -11.5598 O   0  0  0  0  0  0  0  0  0  0  0  0
  2  1  1  0
  2  3  2  0
  4  2  1  0
  5  4  1  0
  6  5  1  0
  7  6  1  0
  8  7  1  0
  8  9  1  6
 10  8  1  0
 10 14  1  0
 11 10  2  0
 13 14  1  0
 13 12  1  1
 15 13  1  0
 15 16  2  0
 18 19  1  0
 18 17  1  0
 19 21  1  0
 19 20  1  1
 21 22  1  6
 21 23  1  0
 22 15  1  0
 23 24  2  0
 23 25  1  0
M  END
$$$$
