RAI.pdb
     RDKit          3D

 25 24  0  0  1  0  0  0  0  0999 V2000
   10.8796  -26.7144   -6.1257 N   0  0  0  0  0  0  0  0  0  0  0  0
   11.7631  -27.8119   -6.3708 C   0  0  0  0  0  0  0  0  0  0  0  0
   11.4677  -28.7418   -7.2203 N   0  0  0  0  0  0  0  0  0  0  0  0
   13.0019  -27.9184   -5.6856 N   0  0  0  0  0  0  0  0  0  0  0  0
   13.4025  -26.8839   -4.7716 C   0  0  0  0  0  0  0  0  0  0  0  0
   14.7789  -27.1943   -4.1871 C   0  0  0  0  0  0  0  0  0  0  0  0
   15.0561  -26.1159   -3.1570 C   0  0  0  0  0  0  0  0  0  0  0  0
   15.2499  -24.7700   -3.8179 C   0  0  2  0  0  0  0  0  0  0  0  0
   16.6164  -24.7545   -4.3338 N   0  0  0  0  0  0  0  0  0  0  0  0
   15.1851  -23.7421   -2.7229 C   0  0  0  0  0  0  0  0  0  0  0  0
   16.1985  -23.4757   -2.0191 O   0  0  0  0  0  0  0  0  0  0  0  0
   12.1094  -29.5265   -7.4292 C   0  0  0  0  0  0  0  0  0  0  0  0
   12.7596  -21.0804   -1.6155 C   0  0  1  0  0  0  0  0  0  0  0  0
   13.9879  -21.9507   -1.4866 N   0  0  0  0  0  0  0  0  0  0  0  0
   14.0013  -23.0312   -2.4302 C   0  0  0  0  0  0  0  0  0  0  0  0
   14.1678  -22.4833   -0.1351 O   0  0  0  0  0  0  0  0  0  0  0  0
   13.9349  -23.6961    0.0903 C   0  0  0  0  0  0  0  0  0  0  0  0
   17.7592  -23.3062    4.4241 C   0  0  0  0  0  0  0  0  0  0  0  0
   16.3082  -23.0364    4.0930 C   0  0  2  0  0  0  0  0  0  0  0  0
   16.1727  -22.5071    2.6813 C   0  0  0  0  0  0  0  0  0  0  0  0
   16.9760  -21.2393    2.5575 C   0  0  2  0  0  0  0  0  0  0  0  0
   14.7505  -22.2877    2.2835 N   0  0  0  0  0  0  0  0  0  0  0  0
   14.5992  -21.7100    0.9778 C   0  0  0  0  0  0  0  0  0  0  0  0
   14.0372  -21.4721    3.3238 O   0  0  0  0  0  0  0  0  0  0  0  0
   13.7504  -20.2521    3.1219 O   0  0  0  0  0  0  0  0  0  0  0  0
  2  1  1  0
  2  3  2  0
  4  2  1  0
  5  4  1  0
  6  5  1  0
  7  6  1  0
  8  7  1  0
  8  9  1  1
 10  8  1  0
 10 14  1  0
 11 10  2  0
 13 14  1  0
 13 12  1  6
 15 13  1  0
 15 16  2  0
 18 19  1  0
 18 17  1  0
 19 21  1  0
 19 20  1  6
 21 22  1  1
 21 23  1  0
 22 15  1  0
 23 24  2  0
 23 25  1  0
M  END
$$$$
