RAI.pdb
     RDKit          3D

 25 24  0  0  1  0  0  0  0  0999 V2000
   28.1859  -22.6607  -14.6432 N   0  0  0  0  0  0  0  0  0  0  0  0
   29.0021  -22.3009  -15.7609 C   0  0  0  0  0  0  0  0  0  0  0  0
   29.8021  -23.1522  -16.3167 N   0  0  0  0  0  0  0  0  0  0  0  0
   28.9617  -20.9887  -16.3014 N   0  0  0  0  0  0  0  0  0  0  0  0
   28.0093  -20.0382  -15.7960 C   0  0  0  0  0  0  0  0  0  0  0  0
   28.5902  -19.2882  -14.5991 C   0  0  0  0  0  0  0  0  0  0  0  0
   27.4373  -18.5243  -13.9761 C   0  0  0  0  0  0  0  0  0  0  0  0
   26.2249  -19.4117  -13.8086 C   0  0  2  0  0  0  0  0  0  0  0  0
   25.1878  -18.8654  -14.6803 N   0  0  0  0  0  0  0  0  0  0  0  0
   25.7495  -19.2248  -12.3947 C   0  0  0  0  0  0  0  0  0  0  0  0
   25.2450  -18.1313  -12.0166 O   0  0  0  0  0  0  0  0  0  0  0  0
   30.3725  -22.9167  -17.1476 C   0  0  0  0  0  0  0  0  0  0  0  0
   24.1273  -20.7930   -9.7641 C   0  0  1  0  0  0  0  0  0  0  0  0
   25.4064  -20.0525  -10.0779 N   0  0  0  0  0  0  0  0  0  0  0  0
   25.8425  -20.2511  -11.4301 C   0  0  0  0  0  0  0  0  0  0  0  0
   26.4968  -20.3883   -9.1611 O   0  0  0  0  0  0  0  0  0  0  0  0
   27.3249  -21.2763   -9.4800 C   0  0  0  0  0  0  0  0  0  0  0  0
   30.2562  -18.4797   -4.7227 C   0  0  0  0  0  0  0  0  0  0  0  0
   29.5905  -19.6252   -5.4522 C   0  0  2  0  0  0  0  0  0  0  0  0
   28.4238  -19.1259   -6.2776 C   0  0  0  0  0  0  0  0  0  0  0  0
   27.4914  -18.3514   -5.3839 C   0  0  2  0  0  0  0  0  0  0  0  0
   27.7056  -20.2281   -6.9837 N   0  0  0  0  0  0  0  0  0  0  0  0
   26.6983  -19.7678   -7.8973 C   0  0  0  0  0  0  0  0  0  0  0  0
   27.1347  -21.1996   -5.9907 O   0  0  0  0  0  0  0  0  0  0  0  0
   25.8851  -21.2649   -5.7765 O   0  0  0  0  0  0  0  0  0  0  0  0
  2  1  1  0
  2  3  2  0
  4  2  1  0
  5  4  1  0
  6  5  1  0
  7  6  1  0
  8  7  1  0
  8  9  1  6
 10  8  1  0
 10 14  1  0
 11 10  2  0
 13 14  1  0
 13 12  1  6
 15 13  1  0
 15 16  2  0
 18 19  1  0
 18 17  1  0
 19 21  1  0
 19 20  1  6
 21 22  1  1
 21 23  1  0
 22 15  1  0
 23 24  2  0
 23 25  1  0
M  END
$$$$
