RAI.pdb
     RDKit          3D

 25 24  0  0  1  0  0  0  0  0999 V2000
   21.4647  -22.4001  -13.7467 N   0  0  0  0  0  0  0  0  0  0  0  0
   20.8984  -21.7893  -12.5843 C   0  0  0  0  0  0  0  0  0  0  0  0
   19.7946  -22.2186  -12.0639 N   0  0  0  0  0  0  0  0  0  0  0  0
   21.5326  -20.6839  -11.9586 N   0  0  0  0  0  0  0  0  0  0  0  0
   22.9664  -20.6437  -11.8649 C   0  0  0  0  0  0  0  0  0  0  0  0
   23.4013  -20.5409  -10.4046 C   0  0  0  0  0  0  0  0  0  0  0  0
   24.9000  -20.3073  -10.4230 C   0  0  0  0  0  0  0  0  0  0  0  0
   25.6001  -21.3382  -11.2790 C   0  0  2  0  0  0  0  0  0  0  0  0
   26.7949  -21.7452  -10.5438 N   0  0  0  0  0  0  0  0  0  0  0  0
   26.0707  -20.6212  -12.5137 C   0  0  0  0  0  0  0  0  0  0  0  0
   26.7605  -19.5673  -12.4316 O   0  0  0  0  0  0  0  0  0  0  0  0
   19.3222  -21.7296  -11.2835 C   0  0  0  0  0  0  0  0  0  0  0  0
   26.3380  -21.2932  -16.1876 C   0  0  1  0  0  0  0  0  0  0  0  0
   26.2199  -20.3895  -14.9825 N   0  0  0  0  0  0  0  0  0  0  0  0
   25.7683  -21.0853  -13.8120 C   0  0  0  0  0  0  0  0  0  0  0  0
   25.3574  -19.2316  -15.2228 O   0  0  0  0  0  0  0  0  0  0  0  0
   24.1654  -19.2530  -14.8296 C   0  0  0  0  0  0  0  0  0  0  0  0
   27.4267  -14.2737  -15.4249 C   0  0  0  0  0  0  0  0  0  0  0  0
   26.3616  -15.2859  -15.0662 C   0  0  2  0  0  0  0  0  0  0  0  0
   25.5304  -15.6388  -16.2812 C   0  0  0  0  0  0  0  0  0  0  0  0
   24.5219  -14.5452  -16.5155 C   0  0  2  0  0  0  0  0  0  0  0  0
   24.8660  -16.9700  -16.1563 N   0  0  0  0  0  0  0  0  0  0  0  0
   25.7771  -18.0466  -15.8879 C   0  0  0  0  0  0  0  0  0  0  0  0
   24.0335  -17.2543  -17.3737 O   0  0  0  0  0  0  0  0  0  0  0  0
   22.7804  -17.0513  -17.3772 O   0  0  0  0  0  0  0  0  0  0  0  0
  2  1  1  0
  2  3  2  0
  4  2  1  0
  5  4  1  0
  6  5  1  0
  7  6  1  0
  8  7  1  0
  8  9  1  1
 10  8  1  0
 10 14  1  0
 11 10  2  0
 13 14  1  0
 13 12  1  1
 15 13  1  0
 15 16  2  0
 18 19  1  0
 18 17  1  0
 19 21  1  0
 19 20  1  6
 21 22  1  1
 21 23  1  0
 22 15  1  0
 23 24  2  0
 23 25  1  0
M  END
$$$$
