RAI.pdb
     RDKit          3D

 25 24  0  0  1  0  0  0  0  0999 V2000
   11.9825  -10.5237    3.4228 N   0  0  0  0  0  0  0  0  0  0  0  0
   10.9530  -11.3018    4.0389 C   0  0  0  0  0  0  0  0  0  0  0  0
    9.7498  -10.8464    4.1742 N   0  0  0  0  0  0  0  0  0  0  0  0
   11.2187  -12.6087    4.5258 N   0  0  0  0  0  0  0  0  0  0  0  0
   12.5509  -13.1425    4.4453 C   0  0  0  0  0  0  0  0  0  0  0  0
   12.5963  -14.5503    5.0355 C   0  0  0  0  0  0  0  0  0  0  0  0
   14.0287  -15.0270    4.8876 C   0  0  0  0  0  0  0  0  0  0  0  0
   14.2089  -16.4018    5.4902 C   0  0  2  0  0  0  0  0  0  0  0  0
   13.1718  -16.5471    6.5086 N   0  0  0  0  0  0  0  0  0  0  0  0
   15.5283  -16.3840    6.2104 C   0  0  0  0  0  0  0  0  0  0  0  0
   16.6119  -16.2347    5.5806 O   0  0  0  0  0  0  0  0  0  0  0  0
    9.0003  -11.3887    4.6387 C   0  0  0  0  0  0  0  0  0  0  0  0
   16.7457  -16.0861    9.7434 C   0  0  2  0  0  0  0  0  0  0  0  0
   16.8829  -16.4775    8.2905 N   0  0  0  0  0  0  0  0  0  0  0  0
   15.6205  -16.5318    7.6111 C   0  0  0  0  0  0  0  0  0  0  0  0
   17.5881  -17.7471    8.1082 O   0  0  0  0  0  0  0  0  0  0  0  0
   16.9311  -18.8038    7.9407 C   0  0  0  0  0  0  0  0  0  0  0  0
   21.5841  -18.5180    4.7782 C   0  0  0  0  0  0  0  0  0  0  0  0
   20.3700  -18.6513    5.6703 C   0  0  2  0  0  0  0  0  0  0  0  0
   20.7607  -19.2065    7.0233 C   0  0  0  0  0  0  0  0  0  0  0  0
   21.2781  -20.6092    6.8429 C   0  0  2  0  0  0  0  0  0  0  0  0
   19.6385  -19.1660    8.0073 N   0  0  0  0  0  0  0  0  0  0  0  0
   19.0039  -17.8819    8.1060 C   0  0  0  0  0  0  0  0  0  0  0  0
   20.1055  -19.6453    9.3520 O   0  0  0  0  0  0  0  0  0  0  0  0
   20.4675  -18.8282   10.2535 O   0  0  0  0  0  0  0  0  0  0  0  0
  2  1  1  0
  2  3  2  0
  4  2  1  0
  5  4  1  0
  6  5  1  0
  7  6  1  0
  8  7  1  0
  8  9  1  1
 10  8  1  0
 10 14  1  0
 11 10  2  0
 13 14  1  0
 13 12  1  6
 15 13  1  0
 15 16  2  0
 18 19  1  0
 18 17  1  0
 19 21  1  0
 19 20  1  1
 21 22  1  6
 21 23  1  0
 22 15  1  0
 23 24  2  0
 23 25  1  0
M  END
$$$$
