RAI.pdb
     RDKit          3D

 25 24  0  0  1  0  0  0  0  0999 V2000
   27.1278  -17.5087  -20.2044 N   0  0  0  0  0  0  0  0  0  0  0  0
   27.4687  -16.1375  -19.9845 C   0  0  0  0  0  0  0  0  0  0  0  0
   27.6562  -15.3203  -20.9697 N   0  0  0  0  0  0  0  0  0  0  0  0
   27.6138  -15.6237  -18.6690 N   0  0  0  0  0  0  0  0  0  0  0  0
   27.4489  -16.4976  -17.5398 C   0  0  0  0  0  0  0  0  0  0  0  0
   26.5486  -17.6757  -17.9060 C   0  0  0  0  0  0  0  0  0  0  0  0
   26.4846  -18.5602  -16.6754 C   0  0  0  0  0  0  0  0  0  0  0  0
   27.6192  -19.5592  -16.6645 C   0  0  2  0  0  0  0  0  0  0  0  0
   27.2966  -20.5638  -17.6747 N   0  0  0  0  0  0  0  0  0  0  0  0
   27.5686  -20.2501  -15.3303 C   0  0  0  0  0  0  0  0  0  0  0  0
   26.6053  -21.0064  -15.0248 O   0  0  0  0  0  0  0  0  0  0  0  0
   27.9672  -14.3432  -20.8285 C   0  0  0  0  0  0  0  0  0  0  0  0
   29.7427  -20.5120  -12.2442 C   0  0  1  0  0  0  0  0  0  0  0  0
   28.4870  -20.6919  -13.0649 N   0  0  0  0  0  0  0  0  0  0  0  0
   28.5842  -20.0894  -14.3633 C   0  0  0  0  0  0  0  0  0  0  0  0
   27.2888  -20.1949  -12.3868 O   0  0  0  0  0  0  0  0  0  0  0  0
   26.9521  -18.9931  -12.5225 C   0  0  0  0  0  0  0  0  0  0  0  0
   21.5596  -20.3165  -11.4496 C   0  0  0  0  0  0  0  0  0  0  0  0
   22.8702  -20.0388  -10.7473 C   0  0  2  0  0  0  0  0  0  0  0  0
   24.0137  -20.7293  -11.4596 C   0  0  0  0  0  0  0  0  0  0  0  0
   23.7484  -22.2115  -11.4834 C   0  0  2  0  0  0  0  0  0  0  0  0
   25.3403  -20.4268  -10.8450 N   0  0  0  0  0  0  0  0  0  0  0  0
   26.4497  -20.9918  -11.5601 C   0  0  0  0  0  0  0  0  0  0  0  0
   25.3550  -20.8447   -9.4024 O   0  0  0  0  0  0  0  0  0  0  0  0
   26.0179  -21.8561   -9.0161 O   0  0  0  0  0  0  0  0  0  0  0  0
  2  1  1  0
  2  3  2  0
  4  2  1  0
  5  4  1  0
  6  5  1  0
  7  6  1  0
  8  7  1  0
  8  9  1  6
 10  8  1  0
 10 14  1  0
 11 10  2  0
 13 14  1  0
 13 12  1  6
 15 13  1  0
 15 16  2  0
 18 19  1  0
 18 17  1  0
 19 21  1  0
 19 20  1  6
 21 22  1  1
 21 23  1  0
 22 15  1  0
 23 24  2  0
 23 25  1  0
M  END
$$$$
