APN.pdb
     RDKit          3D

 21 21  0  0  1  0  0  0  0  0999 V2000
   17.6343  -10.0476  -16.3540 C   0  0  0  0  0  0  0  0  0  0  0  0
   18.7462  -10.6632  -15.5183 C   0  0  2  0  0  0  0  0  0  0  0  0
   18.5601  -12.0691  -15.4163 N   0  0  0  0  0  0  0  0  0  0  0  0
   18.7989   -9.9254  -14.2501 C   0  0  0  0  0  0  0  0  0  0  0  0
   17.9034  -10.2428  -13.3961 O   0  0  0  0  0  0  0  0  0  0  0  0
   19.7250   -8.9308  -13.9102 N   0  0  0  0  0  0  0  0  0  0  0  0
   20.8181   -8.3618  -14.6596 C   0  0  0  0  0  0  0  0  0  0  0  0
   20.9377   -6.9668  -14.0937 C   0  0  0  0  0  0  0  0  0  0  0  0
   20.8920   -7.3260  -12.5981 C   0  0  0  0  0  0  0  0  0  0  0  0
   19.7324   -8.2525  -12.6025 C   0  0  1  0  0  0  0  0  0  0  0  0
   18.4347   -7.6143  -12.3127 C   0  0  0  0  0  0  0  0  0  0  0  0
   17.8261   -7.1187  -13.2828 O   0  0  0  0  0  0  0  0  0  0  0  0
   14.2615   -6.1158   -9.5383 N   0  0  0  0  0  0  0  0  0  0  0  0
   15.1017   -6.8217   -8.6388 C   0  0  0  0  0  0  0  0  0  0  0  0
   14.7298   -7.0185   -7.4449 O   0  0  0  0  0  0  0  0  0  0  0  0
   16.4017   -7.3240   -9.0909 C   0  0  0  0  0  0  0  0  0  0  0  0
   16.6813   -6.9876  -10.5587 C   0  0  2  0  0  0  0  0  0  0  0  0
   17.9210   -7.5677  -11.0334 N   0  0  0  0  0  0  0  0  0  0  0  0
   16.6867   -5.5391  -10.6810 C   0  0  0  0  0  0  0  0  0  0  0  0
   15.6396   -4.7671  -11.1691 O   0  0  0  0  0  0  0  0  0  0  0  0
   17.7198   -4.9034  -10.3196 O   0  0  0  0  0  0  0  0  0  0  0  0
  2  1  1  6
  2  4  1  0
  3  2  1  0
  4  5  2  0
  6 10  1  0
  6  4  1  0
  7  6  1  0
  8  9  1  0
  8  7  1  0
  9 10  1  0
 10 11  1  6
 11 12  2  0
 11 18  1  0
 14 13  1  0
 14 16  1  0
 15 14  2  0
 17 16  1  1
 17 19  1  0
 18 17  1  0
 19 20  1  0
 21 19  2  0
M  END
$$$$
