APN.pdb
     RDKit          3D

 21 21  0  0  1  0  0  0  0  0999 V2000
   25.2318  -19.0000   -9.9776 C   0  0  0  0  0  0  0  0  0  0  0  0
   26.6099  -19.6428  -10.0170 C   0  0  2  0  0  0  0  0  0  0  0  0
   26.7251  -20.4831  -11.1581 N   0  0  0  0  0  0  0  0  0  0  0  0
   26.8285  -20.2871   -8.7161 C   0  0  0  0  0  0  0  0  0  0  0  0
   26.2453  -21.4129   -8.5594 O   0  0  0  0  0  0  0  0  0  0  0  0
   27.6028  -19.7825   -7.6632 N   0  0  0  0  0  0  0  0  0  0  0  0
   28.4177  -18.5960   -7.5742 C   0  0  0  0  0  0  0  0  0  0  0  0
   28.3808  -18.2593   -6.1025 C   0  0  0  0  0  0  0  0  0  0  0  0
   28.6751  -19.6622   -5.5432 C   0  0  0  0  0  0  0  0  0  0  0  0
   27.7239  -20.4575   -6.3594 C   0  0  1  0  0  0  0  0  0  0  0  0
   26.4062  -20.6718   -5.7326 C   0  0  0  0  0  0  0  0  0  0  0  0
   25.6565  -19.6775   -5.6526 O   0  0  0  0  0  0  0  0  0  0  0  0
   26.2316  -24.1080   -2.6266 N   0  0  0  0  0  0  0  0  0  0  0  0
   25.7752  -24.4962   -3.9127 C   0  0  0  0  0  0  0  0  0  0  0  0
   26.3594  -25.4287   -4.5386 O   0  0  0  0  0  0  0  0  0  0  0  0
   24.6266  -23.8179   -4.5186 C   0  0  0  0  0  0  0  0  0  0  0  0
   24.8067  -22.2980   -4.5746 C   0  0  2  0  0  0  0  0  0  0  0  0
   26.0232  -21.9093   -5.2586 N   0  0  0  0  0  0  0  0  0  0  0  0
   24.7803  -21.8048   -3.2074 C   0  0  0  0  0  0  0  0  0  0  0  0
   25.8560  -21.2405   -2.5329 O   0  0  0  0  0  0  0  0  0  0  0  0
   23.6991  -21.8844   -2.5543 O   0  0  0  0  0  0  0  0  0  0  0  0
  2  1  1  1
  2  4  1  0
  3  2  1  0
  4  5  2  0
  6 10  1  0
  6  4  1  0
  7  6  1  0
  8  9  1  0
  8  7  1  0
  9 10  1  0
 10 11  1  1
 11 12  2  0
 11 18  1  0
 14 13  1  0
 14 16  1  0
 15 14  2  0
 17 16  1  1
 17 19  1  0
 18 17  1  0
 19 20  1  0
 21 19  2  0
M  END
$$$$
