APN.pdb
     RDKit          3D

 21 21  0  0  1  0  0  0  0  0999 V2000
   21.5219  -22.5943  -14.7411 C   0  0  0  0  0  0  0  0  0  0  0  0
   21.5902  -21.9149  -13.3819 C   0  0  2  0  0  0  0  0  0  0  0  0
   20.3404  -21.3114  -13.0734 N   0  0  0  0  0  0  0  0  0  0  0  0
   22.7529  -21.0187  -13.3998 C   0  0  0  0  0  0  0  0  0  0  0  0
   22.5220  -19.8327  -13.8147 O   0  0  0  0  0  0  0  0  0  0  0  0
   24.0573  -21.3487  -13.0094 N   0  0  0  0  0  0  0  0  0  0  0  0
   24.6011  -22.5702  -12.4688 C   0  0  0  0  0  0  0  0  0  0  0  0
   26.0409  -22.5400  -12.9232 C   0  0  0  0  0  0  0  0  0  0  0  0
   26.3721  -21.0909  -12.5255 C   0  0  0  0  0  0  0  0  0  0  0  0
   25.1839  -20.4029  -13.0896 C   0  0  1  0  0  0  0  0  0  0  0  0
   25.3651  -19.8867  -14.4592 C   0  0  0  0  0  0  0  0  0  0  0  0
   25.1158  -20.6768  -15.3923 O   0  0  0  0  0  0  0  0  0  0  0  0
   24.9137  -15.2646  -17.7782 N   0  0  0  0  0  0  0  0  0  0  0  0
   26.0557  -15.6354  -17.0221 C   0  0  0  0  0  0  0  0  0  0  0  0
   27.2147  -15.3413  -17.4378 O   0  0  0  0  0  0  0  0  0  0  0  0
   25.8950  -16.3597  -15.7588 C   0  0  0  0  0  0  0  0  0  0  0  0
   25.9074  -17.8794  -15.9493 C   0  0  2  0  0  0  0  0  0  0  0  0
   25.7895  -18.5957  -14.6956 N   0  0  0  0  0  0  0  0  0  0  0  0
   27.1355  -18.2215  -16.6479 C   0  0  0  0  0  0  0  0  0  0  0  0
   27.2416  -18.4930  -18.0064 O   0  0  0  0  0  0  0  0  0  0  0  0
   28.2127  -18.2843  -15.9864 O   0  0  0  0  0  0  0  0  0  0  0  0
  2  1  1  6
  2  4  1  0
  3  2  1  0
  4  5  2  0
  6 10  1  0
  6  4  1  0
  7  6  1  0
  8  9  1  0
  8  7  1  0
  9 10  1  0
 10 11  1  6
 11 12  2  0
 11 18  1  0
 14 13  1  0
 14 16  1  0
 15 14  2  0
 17 16  1  1
 17 19  1  0
 18 17  1  0
 19 20  1  0
 21 19  2  0
M  END
$$$$
