APN.pdb
     RDKit          3D

 21 21  0  0  1  0  0  0  0  0999 V2000
   28.5529  -34.1253   -4.9857 C   0  0  0  0  0  0  0  0  0  0  0  0
   29.4543  -34.8683   -5.9599 C   0  0  2  0  0  0  0  0  0  0  0  0
   28.6819  -35.7469   -6.7680 N   0  0  0  0  0  0  0  0  0  0  0  0
   30.5277  -35.4898   -5.1744 C   0  0  0  0  0  0  0  0  0  0  0  0
   30.1523  -36.4011   -4.3616 O   0  0  0  0  0  0  0  0  0  0  0  0
   31.8910  -35.1742   -5.2424 N   0  0  0  0  0  0  0  0  0  0  0  0
   32.5911  -34.1688   -6.0033 C   0  0  0  0  0  0  0  0  0  0  0  0
   33.8056  -33.8750   -5.1551 C   0  0  0  0  0  0  0  0  0  0  0  0
   34.2353  -35.3244   -4.8677 C   0  0  0  0  0  0  0  0  0  0  0  0
   32.9226  -35.8982   -4.4796 C   0  0  1  0  0  0  0  0  0  0  0  0
   32.6456  -35.8749   -3.0312 C   0  0  0  0  0  0  0  0  0  0  0  0
   32.0171  -34.8878   -2.5977 O   0  0  0  0  0  0  0  0  0  0  0  0
   30.7692  -38.6454   -1.4043 N   0  0  0  0  0  0  0  0  0  0  0  0
   31.8042  -39.2497   -0.6447 C   0  0  0  0  0  0  0  0  0  0  0  0
   31.6936  -40.4524   -0.2656 O   0  0  0  0  0  0  0  0  0  0  0  0
   33.0028  -38.4820   -0.2978 C   0  0  0  0  0  0  0  0  0  0  0  0
   32.9201  -37.0250   -0.7628 C   0  0  2  0  0  0  0  0  0  0  0  0
   33.0614  -36.8929   -2.1985 N   0  0  0  0  0  0  0  0  0  0  0  0
   33.9481  -36.2815   -0.0530 C   0  0  0  0  0  0  0  0  0  0  0  0
   35.0838  -35.7256   -0.6289 O   0  0  0  0  0  0  0  0  0  0  0  0
   33.8222  -36.1121    1.1949 O   0  0  0  0  0  0  0  0  0  0  0  0
  2  1  1  1
  2  4  1  0
  3  2  1  0
  4  5  2  0
  6 10  1  0
  6  4  1  0
  7  6  1  0
  8  9  1  0
  8  7  1  0
  9 10  1  0
 10 11  1  1
 11 12  2  0
 11 18  1  0
 14 13  1  0
 14 16  1  0
 15 14  2  0
 17 16  1  6
 17 19  1  0
 18 17  1  0
 19 20  1  0
 21 19  2  0
M  END
$$$$
