APN.pdb
     RDKit          3D

 21 21  0  0  1  0  0  0  0  0999 V2000
   23.6485  -11.7358  -19.6990 C   0  0  0  0  0  0  0  0  0  0  0  0
   23.8072  -12.4350  -18.3575 C   0  0  2  0  0  0  0  0  0  0  0  0
   22.8015  -13.4279  -18.2016 N   0  0  0  0  0  0  0  0  0  0  0  0
   23.8511  -11.3928  -17.3245 C   0  0  0  0  0  0  0  0  0  0  0  0
   22.7204  -10.8895  -17.0080 O   0  0  0  0  0  0  0  0  0  0  0  0
   24.9991  -10.9195  -16.6758 N   0  0  0  0  0  0  0  0  0  0  0  0
   26.3830  -11.3052  -16.8032 C   0  0  0  0  0  0  0  0  0  0  0  0
   27.1296  -10.0443  -16.4380 C   0  0  0  0  0  0  0  0  0  0  0  0
   26.3537   -9.6860  -15.1584 C   0  0  0  0  0  0  0  0  0  0  0  0
   24.9656   -9.8571  -15.6558 C   0  0  1  0  0  0  0  0  0  0  0  0
   24.3419   -8.6249  -16.1733 C   0  0  0  0  0  0  0  0  0  0  0  0
   24.5691   -8.3418  -17.3672 O   0  0  0  0  0  0  0  0  0  0  0  0
   21.1787   -4.4704  -16.3222 N   0  0  0  0  0  0  0  0  0  0  0  0
   20.6080   -5.4626  -15.4837 C   0  0  0  0  0  0  0  0  0  0  0  0
   19.4089   -5.3505  -15.0935 O   0  0  0  0  0  0  0  0  0  0  0  0
   21.4061   -6.6187  -15.0680 C   0  0  0  0  0  0  0  0  0  0  0  0
   22.7899   -6.6417  -15.7242 C   0  0  2  0  0  0  0  0  0  0  0  0
   23.5480   -7.8262  -15.3767 N   0  0  0  0  0  0  0  0  0  0  0  0
   23.4819   -5.4270  -15.3256 C   0  0  0  0  0  0  0  0  0  0  0  0
   23.7019   -4.3210  -16.1373 O   0  0  0  0  0  0  0  0  0  0  0  0
   23.9318   -5.3443  -14.1455 O   0  0  0  0  0  0  0  0  0  0  0  0
  2  1  1  6
  2  4  1  0
  3  2  1  0
  4  5  2  0
  6 10  1  0
  6  4  1  0
  7  6  1  0
  8  9  1  0
  8  7  1  0
  9 10  1  0
 10 11  1  6
 11 12  2  0
 11 18  1  0
 14 13  1  0
 14 16  1  0
 15 14  2  0
 17 16  1  1
 17 19  1  0
 18 17  1  0
 19 20  1  0
 21 19  2  0
M  END
$$$$
