APN.pdb
     RDKit          3D

 21 21  0  0  1  0  0  0  0  0999 V2000
   17.5928   -9.7597  -16.1550 C   0  0  0  0  0  0  0  0  0  0  0  0
   18.6721  -10.4624  -15.3456 C   0  0  2  0  0  0  0  0  0  0  0  0
   18.4275  -11.8627  -15.3160 N   0  0  0  0  0  0  0  0  0  0  0  0
   18.7456   -9.7923  -14.0414 C   0  0  0  0  0  0  0  0  0  0  0  0
   17.8164  -10.0952  -13.2186 O   0  0  0  0  0  0  0  0  0  0  0  0
   19.7240   -8.8747  -13.6373 N   0  0  0  0  0  0  0  0  0  0  0  0
   20.8772   -8.3565  -14.3313 C   0  0  0  0  0  0  0  0  0  0  0  0
   21.0706   -6.9925  -13.7126 C   0  0  0  0  0  0  0  0  0  0  0  0
   20.9506   -7.3975  -12.2329 C   0  0  0  0  0  0  0  0  0  0  0  0
   19.7325   -8.2426  -12.3067 C   0  0  1  0  0  0  0  0  0  0  0  0
   18.4713   -7.5279  -12.0353 C   0  0  0  0  0  0  0  0  0  0  0  0
   17.9354   -6.9516  -13.0037 O   0  0  0  0  0  0  0  0  0  0  0  0
   14.1870   -6.0917   -9.4057 N   0  0  0  0  0  0  0  0  0  0  0  0
   14.9571   -6.8802   -8.5121 C   0  0  0  0  0  0  0  0  0  0  0  0
   14.5043   -7.1637   -7.3644 O   0  0  0  0  0  0  0  0  0  0  0  0
   16.2782   -7.3675   -8.9167 C   0  0  0  0  0  0  0  0  0  0  0  0
   16.6526   -6.9341  -10.3372 C   0  0  2  0  0  0  0  0  0  0  0  0
   17.9135   -7.4981  -10.7741 N   0  0  0  0  0  0  0  0  0  0  0  0
   16.6808   -5.4808  -10.3567 C   0  0  0  0  0  0  0  0  0  0  0  0
   15.6873   -4.6620  -10.8792 O   0  0  0  0  0  0  0  0  0  0  0  0
   17.6831   -4.8865   -9.8627 O   0  0  0  0  0  0  0  0  0  0  0  0
  2  1  1  6
  2  4  1  0
  3  2  1  0
  4  5  2  0
  6 10  1  0
  6  4  1  0
  7  6  1  0
  8  9  1  0
  8  7  1  0
  9 10  1  0
 10 11  1  6
 11 12  2  0
 11 18  1  0
 14 13  1  0
 14 16  1  0
 15 14  2  0
 17 16  1  1
 17 19  1  0
 18 17  1  0
 19 20  1  0
 21 19  2  0
M  END
$$$$
