APN.pdb
     RDKit          3D

 21 21  0  0  1  0  0  0  0  0999 V2000
   17.2764  -10.3718  -16.6534 C   0  0  0  0  0  0  0  0  0  0  0  0
   18.5151  -11.1939  -16.3319 C   0  0  2  0  0  0  0  0  0  0  0  0
   18.1388  -12.4594  -15.8042 N   0  0  0  0  0  0  0  0  0  0  0  0
   19.3771  -10.3685  -15.4769 C   0  0  0  0  0  0  0  0  0  0  0  0
   18.9736  -10.2220  -14.2737 O   0  0  0  0  0  0  0  0  0  0  0  0
   20.5720   -9.7469  -15.8621 N   0  0  0  0  0  0  0  0  0  0  0  0
   21.2599   -9.7255  -17.1295 C   0  0  0  0  0  0  0  0  0  0  0  0
   21.9992   -8.4090  -17.1009 C   0  0  0  0  0  0  0  0  0  0  0  0
   22.6032   -8.5207  -15.6900 C   0  0  0  0  0  0  0  0  0  0  0  0
   21.3968   -8.9486  -14.9386 C   0  0  1  0  0  0  0  0  0  0  0  0
   20.6258   -7.8459  -14.3345 C   0  0  0  0  0  0  0  0  0  0  0  0
   19.7884   -7.2816  -15.0677 O   0  0  0  0  0  0  0  0  0  0  0  0
   18.6202   -4.7292  -10.6946 N   0  0  0  0  0  0  0  0  0  0  0  0
   19.2205   -5.8259  -10.0236 C   0  0  0  0  0  0  0  0  0  0  0  0
   19.0900   -5.9517   -8.7708 O   0  0  0  0  0  0  0  0  0  0  0  0
   19.9929   -6.8145  -10.7803 C   0  0  0  0  0  0  0  0  0  0  0  0
   20.1448   -6.4342  -12.2562 C   0  0  2  0  0  0  0  0  0  0  0  0
   20.8216   -7.4586  -13.0252 N   0  0  0  0  0  0  0  0  0  0  0  0
   20.8559   -5.1674  -12.3093 C   0  0  0  0  0  0  0  0  0  0  0  0
   20.2761   -3.9265  -12.5427 O   0  0  0  0  0  0  0  0  0  0  0  0
   22.1090   -5.1668  -12.1314 O   0  0  0  0  0  0  0  0  0  0  0  0
  2  1  1  1
  2  4  1  0
  3  2  1  0
  4  5  2  0
  6 10  1  0
  6  4  1  0
  7  6  1  0
  8  9  1  0
  8  7  1  0
  9 10  1  0
 10 11  1  6
 11 12  2  0
 11 18  1  0
 14 13  1  0
 14 16  1  0
 15 14  2  0
 17 16  1  1
 17 19  1  0
 18 17  1  0
 19 20  1  0
 21 19  2  0
M  END
$$$$
