LTR.pdb
     RDKit          3D

 27 26  0  0  1  0  0  0  0  0999 V2000
   21.9859  -30.7101   -9.8670 C   0  0  0  0  0  0  0  0  0  0  0  0
   20.6337  -30.1023  -10.0584 C   0  0  1  0  0  0  0  0  0  0  0  0
   20.1934  -29.4842   -8.7441 C   0  0  0  0  0  0  0  0  0  0  0  0
   20.5906  -29.0701  -11.1510 C   0  0  0  0  0  0  0  0  0  0  0  0
   19.1883  -28.4942  -11.2483 C   0  0  2  0  0  0  0  0  0  0  0  0
   18.2857  -29.5722  -11.5969 N   0  0  0  0  0  0  0  0  0  0  0  0
   19.0985  -27.4606  -12.3041 C   0  0  0  0  0  0  0  0  0  0  0  0
   19.1114  -27.7975  -13.4985 O   0  0  0  0  0  0  0  0  0  0  0  0
   16.4793  -25.2367  -13.3588 C   0  0  0  0  0  0  0  0  0  0  0  0
   17.6388  -24.3433  -12.9708 C   0  0  1  0  0  0  0  0  0  0  0  0
   17.4375  -23.7098  -11.7488 O   0  0  0  0  0  0  0  0  0  0  0  0
   18.9619  -25.0664  -13.0604 C   0  0  2  0  0  0  0  0  0  0  0  0
   18.9949  -26.0540  -12.0038 N   0  0  0  0  0  0  0  0  0  0  0  0
   20.1244  -24.1651  -13.0248 C   0  0  0  0  0  0  0  0  0  0  0  0
   20.5557  -23.8189  -11.8818 O   0  0  0  0  0  0  0  0  0  0  0  0
   27.7351  -24.0470  -17.1837 N   0  0  0  0  0  0  0  0  0  0  0  0
   27.7472  -22.8473  -16.4208 C   0  0  0  0  0  0  0  0  0  0  0  0
   28.8029  -22.1220  -16.4315 N   0  0  0  0  0  0  0  0  0  0  0  0
   26.6530  -22.4078  -15.6464 N   0  0  0  0  0  0  0  0  0  0  0  0
   25.4217  -23.1213  -15.5723 C   0  0  0  0  0  0  0  0  0  0  0  0
   24.3227  -22.4639  -14.8301 C   0  0  0  0  0  0  0  0  0  0  0  0
   23.0883  -23.2827  -14.8096 C   0  0  0  0  0  0  0  0  0  0  0  0
   21.9166  -22.7255  -14.1211 C   0  0  2  0  0  0  0  0  0  0  0  0
   20.7864  -23.6643  -14.1662 N   0  0  0  0  0  0  0  0  0  0  0  0
   21.5831  -21.3558  -14.2963 C   0  0  0  0  0  0  0  0  0  0  0  0
   20.6387  -20.8631  -14.9960 O   0  0  0  0  0  0  0  0  0  0  0  0
   22.3511  -20.3674  -13.6438 O   0  0  0  0  0  0  0  0  0  0  0  0
  2  1  1  1
  3  2  1  0
  4  2  1  0
  5  4  1  0
  5  6  1  6
  7  5  1  0
  8  7  2  0
 10  9  1  1
 10 12  1  0
 11 10  1  0
 12 13  1  1
 13  7  1  0
 14 12  1  0
 14 15  2  0
 16 17  1  0
 17 18  2  0
 17 19  1  0
 19 20  1  0
 20 21  1  0
 21 22  1  0
 23 24  1  0
 23 22  1  6
 24 14  1  0
 25 23  1  0
 26 25  2  0
 27 25  1  0
M  END
$$$$
