LTR.pdb
     RDKit          3D

 27 26  0  0  1  0  0  0  0  0999 V2000
   15.9415  -15.2291  -16.9768 C   0  0  0  0  0  0  0  0  0  0  0  0
   17.2049  -14.4892  -17.2783 C   0  0  1  0  0  0  0  0  0  0  0  0
   16.9569  -13.5774  -18.4659 C   0  0  0  0  0  0  0  0  0  0  0  0
   17.7216  -13.6883  -16.1153 C   0  0  0  0  0  0  0  0  0  0  0  0
   18.9694  -12.9312  -16.5366 C   0  0  2  0  0  0  0  0  0  0  0  0
   20.0658  -13.8758  -16.5981 N   0  0  0  0  0  0  0  0  0  0  0  0
   19.3231  -11.8802  -15.5559 C   0  0  0  0  0  0  0  0  0  0  0  0
   19.6265  -12.1980  -14.3952 O   0  0  0  0  0  0  0  0  0  0  0  0
   22.1741   -9.6074  -15.5832 C   0  0  0  0  0  0  0  0  0  0  0  0
   20.9315   -8.7437  -15.5285 C   0  0  1  0  0  0  0  0  0  0  0  0
   20.6444   -8.1452  -16.7511 O   0  0  0  0  0  0  0  0  0  0  0  0
   19.7570   -9.4832  -14.9326 C   0  0  2  0  0  0  0  0  0  0  0  0
   19.3317  -10.4782  -15.8928 N   0  0  0  0  0  0  0  0  0  0  0  0
   18.6585   -8.5972  -14.5162 C   0  0  0  0  0  0  0  0  0  0  0  0
   17.7048   -8.4296  -15.3376 O   0  0  0  0  0  0  0  0  0  0  0  0
   14.7878   -7.2140   -6.7259 N   0  0  0  0  0  0  0  0  0  0  0  0
   14.0283   -6.4843   -7.6810 C   0  0  0  0  0  0  0  0  0  0  0  0
   12.8836   -6.0252   -7.3357 N   0  0  0  0  0  0  0  0  0  0  0  0
   14.4685   -6.2361   -8.9980 N   0  0  0  0  0  0  0  0  0  0  0  0
   15.5366   -6.9576   -9.6055 C   0  0  0  0  0  0  0  0  0  0  0  0
   15.8703   -6.5910  -11.0003 C   0  0  0  0  0  0  0  0  0  0  0  0
   17.0187   -7.3648  -11.5265 C   0  0  0  0  0  0  0  0  0  0  0  0
   17.4990   -7.0331  -12.8744 C   0  0  2  0  0  0  0  0  0  0  0  0
   18.5944   -7.9275  -13.2756 N   0  0  0  0  0  0  0  0  0  0  0  0
   17.6491   -5.6721  -13.2525 C   0  0  0  0  0  0  0  0  0  0  0  0
   18.7316   -5.0179  -13.4100 O   0  0  0  0  0  0  0  0  0  0  0  0
   16.4994   -4.8911  -13.4992 O   0  0  0  0  0  0  0  0  0  0  0  0
  2  1  1  1
  3  2  1  0
  4  2  1  0
  5  4  1  0
  5  6  1  1
  7  5  1  0
  8  7  2  0
 10  9  1  6
 10 12  1  0
 11 10  1  0
 12 13  1  6
 13  7  1  0
 14 12  1  0
 14 15  2  0
 16 17  1  0
 17 18  2  0
 17 19  1  0
 19 20  1  0
 20 21  1  0
 21 22  1  0
 23 24  1  0
 23 22  1  1
 24 14  1  0
 25 23  1  0
 26 25  2  0
 27 25  1  0
M  END
$$$$
