LTR.pdb
     RDKit          3D

 27 26  0  0  1  0  0  0  0  0999 V2000
   28.3451  -20.7896   -4.3994 C   0  0  0  0  0  0  0  0  0  0  0  0
   27.3893  -20.2468   -5.4125 C   0  0  1  0  0  0  0  0  0  0  0  0
   27.7636  -18.8051   -5.7033 C   0  0  0  0  0  0  0  0  0  0  0  0
   27.3595  -21.0374   -6.6912 C   0  0  0  0  0  0  0  0  0  0  0  0
   26.3786  -20.3979   -7.6590 C   0  0  2  0  0  0  0  0  0  0  0  0
   25.0716  -20.9731   -7.4157 N   0  0  0  0  0  0  0  0  0  0  0  0
   26.7470  -20.6737   -9.0660 C   0  0  0  0  0  0  0  0  0  0  0  0
   27.4407  -21.6662   -9.3377 O   0  0  0  0  0  0  0  0  0  0  0  0
   26.7193  -22.6153  -10.8414 C   0  0  0  0  0  0  0  0  0  0  0  0
   26.0120  -21.6037  -11.7186 C   0  0  1  0  0  0  0  0  0  0  0  0
   24.6277  -21.6694  -11.5979 O   0  0  0  0  0  0  0  0  0  0  0  0
   26.5648  -20.2107  -11.5307 C   0  0  2  0  0  0  0  0  0  0  0  0
   26.3295  -19.8268  -10.1558 N   0  0  0  0  0  0  0  0  0  0  0  0
   26.0242  -19.2330  -12.4883 C   0  0  0  0  0  0  0  0  0  0  0  0
   24.8060  -18.9010  -12.3536 O   0  0  0  0  0  0  0  0  0  0  0  0
   27.7223  -14.8566  -19.0314 N   0  0  0  0  0  0  0  0  0  0  0  0
   26.6355  -14.0939  -18.5229 C   0  0  0  0  0  0  0  0  0  0  0  0
   25.9352  -13.3998  -19.3404 N   0  0  0  0  0  0  0  0  0  0  0  0
   26.2829  -14.0583  -17.1574 N   0  0  0  0  0  0  0  0  0  0  0  0
   26.7856  -14.9907  -16.2042 C   0  0  0  0  0  0  0  0  0  0  0  0
   26.7685  -16.4159  -16.6040 C   0  0  0  0  0  0  0  0  0  0  0  0
   27.2059  -17.3130  -15.5092 C   0  0  0  0  0  0  0  0  0  0  0  0
   26.1653  -17.8827  -14.6431 C   0  0  2  0  0  0  0  0  0  0  0  0
   26.7628  -18.6446  -13.5371 N   0  0  0  0  0  0  0  0  0  0  0  0
   25.0023  -18.4552  -15.2240 C   0  0  0  0  0  0  0  0  0  0  0  0
   23.9012  -17.8775  -15.5039 O   0  0  0  0  0  0  0  0  0  0  0  0
   24.9981  -19.8271  -15.5566 O   0  0  0  0  0  0  0  0  0  0  0  0
  2  1  1  1
  3  2  1  0
  4  2  1  0
  5  4  1  0
  5  6  1  1
  7  5  1  0
  8  7  2  0
 10  9  1  1
 10 12  1  0
 11 10  1  0
 12 13  1  1
 13  7  1  0
 14 12  1  0
 14 15  2  0
 16 17  1  0
 17 18  2  0
 17 19  1  0
 19 20  1  0
 20 21  1  0
 21 22  1  0
 23 24  1  0
 23 22  1  6
 24 14  1  0
 25 23  1  0
 26 25  2  0
 27 25  1  0
M  END
$$$$
