LTR.pdb
     RDKit          3D

 27 26  0  0  1  0  0  0  0  0999 V2000
   27.4313  -10.6371  -16.4959 C   0  0  0  0  0  0  0  0  0  0  0  0
   25.9388  -10.6960  -16.4366 C   0  0  1  0  0  0  0  0  0  0  0  0
   25.5149  -12.1532  -16.4207 C   0  0  0  0  0  0  0  0  0  0  0  0
   25.3582   -9.9795  -15.2490 C   0  0  0  0  0  0  0  0  0  0  0  0
   23.8429   -9.9690  -15.3552 C   0  0  2  0  0  0  0  0  0  0  0  0
   23.4931  -10.0111  -16.7602 N   0  0  0  0  0  0  0  0  0  0  0  0
   23.2670   -8.7347  -14.7754 C   0  0  0  0  0  0  0  0  0  0  0  0
   23.5781   -8.3919  -13.6239 O   0  0  0  0  0  0  0  0  0  0  0  0
   23.8413   -5.5878  -15.9385 C   0  0  0  0  0  0  0  0  0  0  0  0
   22.9976   -5.7471  -14.6912 C   0  0  1  0  0  0  0  0  0  0  0  0
   22.6320   -4.5252  -14.1358 O   0  0  0  0  0  0  0  0  0  0  0  0
   21.8288   -6.6770  -14.9164 C   0  0  2  0  0  0  0  0  0  0  0  0
   22.3441   -7.8964  -15.4998 N   0  0  0  0  0  0  0  0  0  0  0  0
   20.7525   -6.0789  -15.7219 C   0  0  0  0  0  0  0  0  0  0  0  0
   20.9175   -6.0488  -16.9805 O   0  0  0  0  0  0  0  0  0  0  0  0
   12.2618   -7.3979  -16.1173 N   0  0  0  0  0  0  0  0  0  0  0  0
   12.4689   -6.3151  -17.0151 C   0  0  0  0  0  0  0  0  0  0  0  0
   11.5055   -5.9562  -17.7789 N   0  0  0  0  0  0  0  0  0  0  0  0
   13.6860   -5.6085  -17.1125 N   0  0  0  0  0  0  0  0  0  0  0  0
   14.8440   -5.9546  -16.3575 C   0  0  0  0  0  0  0  0  0  0  0  0
   16.0747   -5.1854  -16.6484 C   0  0  0  0  0  0  0  0  0  0  0  0
   17.2330   -5.6543  -15.8529 C   0  0  0  0  0  0  0  0  0  0  0  0
   18.4994   -4.9258  -16.0050 C   0  0  2  0  0  0  0  0  0  0  0  0
   19.5592   -5.5414  -15.1936 N   0  0  0  0  0  0  0  0  0  0  0  0
   18.4949   -3.5055  -16.0321 C   0  0  0  0  0  0  0  0  0  0  0  0
   19.1727   -2.7062  -15.3068 O   0  0  0  0  0  0  0  0  0  0  0  0
   17.6605   -2.8332  -16.9511 O   0  0  0  0  0  0  0  0  0  0  0  0
  2  1  1  1
  3  2  1  0
  4  2  1  0
  5  4  1  0
  5  6  1  6
  7  5  1  0
  8  7  2  0
 10  9  1  6
 10 12  1  0
 11 10  1  0
 12 13  1  6
 13  7  1  0
 14 12  1  0
 14 15  2  0
 16 17  1  0
 17 18  2  0
 17 19  1  0
 19 20  1  0
 20 21  1  0
 21 22  1  0
 23 24  1  0
 23 22  1  1
 24 14  1  0
 25 23  1  0
 26 25  2  0
 27 25  1  0
M  END
$$$$
