LTR.pdb
     RDKit          3D

 27 26  0  0  1  0  0  0  0  0999 V2000
   25.4148  -14.2602  -20.4957 C   0  0  0  0  0  0  0  0  0  0  0  0
   25.0316  -12.8373  -20.2447 C   0  0  1  0  0  0  0  0  0  0  0  0
   24.5963  -12.2170  -21.5596 C   0  0  0  0  0  0  0  0  0  0  0  0
   23.9432  -12.6825  -19.2188 C   0  0  0  0  0  0  0  0  0  0  0  0
   23.5886  -11.2124  -19.0749 C   0  0  2  0  0  0  0  0  0  0  0  0
   24.7789  -10.5052  -18.6493 N   0  0  0  0  0  0  0  0  0  0  0  0
   22.5403  -11.0052  -18.0505 C   0  0  0  0  0  0  0  0  0  0  0  0
   21.4587  -11.6063  -18.1457 O   0  0  0  0  0  0  0  0  0  0  0  0
   22.9345  -11.4916  -14.3611 C   0  0  0  0  0  0  0  0  0  0  0  0
   22.3490  -10.1104  -14.5675 C   0  0  1  0  0  0  0  0  0  0  0  0
   23.2627   -9.0980  -14.2929 O   0  0  0  0  0  0  0  0  0  0  0  0
   21.6912   -9.9735  -15.9203 C   0  0  2  0  0  0  0  0  0  0  0  0
   22.7208  -10.1207  -16.9260 N   0  0  0  0  0  0  0  0  0  0  0  0
   20.9273   -8.7256  -16.0754 C   0  0  0  0  0  0  0  0  0  0  0  0
   21.4835   -7.7802  -16.7150 O   0  0  0  0  0  0  0  0  0  0  0  0
   12.7306   -6.9024  -18.2807 N   0  0  0  0  0  0  0  0  0  0  0  0
   13.2922   -5.6340  -17.9688 C   0  0  0  0  0  0  0  0  0  0  0  0
   12.5871   -4.5833  -18.1675 N   0  0  0  0  0  0  0  0  0  0  0  0
   14.5929   -5.4667  -17.4490 N   0  0  0  0  0  0  0  0  0  0  0  0
   15.4658   -6.5610  -17.1819 C   0  0  0  0  0  0  0  0  0  0  0  0
   16.7570   -6.2319  -16.5373 C   0  0  0  0  0  0  0  0  0  0  0  0
   17.6226   -7.4225  -16.3705 C   0  0  0  0  0  0  0  0  0  0  0  0
   18.8997   -7.2391  -15.6685 C   0  0  2  0  0  0  0  0  0  0  0  0
   19.6289   -8.5113  -15.5655 N   0  0  0  0  0  0  0  0  0  0  0  0
   18.9579   -6.4045  -14.5205 C   0  0  0  0  0  0  0  0  0  0  0  0
   19.1465   -6.7516  -13.3087 O   0  0  0  0  0  0  0  0  0  0  0  0
   18.7946   -5.0103  -14.6691 O   0  0  0  0  0  0  0  0  0  0  0  0
  2  1  1  6
  3  2  1  0
  4  2  1  0
  5  4  1  0
  5  6  1  1
  7  5  1  0
  8  7  2  0
 10  9  1  6
 10 12  1  0
 11 10  1  0
 12 13  1  6
 13  7  1  0
 14 12  1  0
 14 15  2  0
 16 17  1  0
 17 18  2  0
 17 19  1  0
 19 20  1  0
 20 21  1  0
 21 22  1  0
 23 24  1  0
 23 22  1  1
 24 14  1  0
 25 23  1  0
 26 25  2  0
 27 25  1  0
M  END
$$$$
