LTR.pdb
     RDKit          3D

 27 26  0  0  1  0  0  0  0  0999 V2000
   25.4083  -12.5538  -16.3394 C   0  0  0  0  0  0  0  0  0  0  0  0
   26.3533  -13.6945  -16.5405 C   0  0  1  0  0  0  0  0  0  0  0  0
   27.5202  -13.5270  -15.5847 C   0  0  0  0  0  0  0  0  0  0  0  0
   25.7162  -15.0419  -16.3416 C   0  0  0  0  0  0  0  0  0  0  0  0
   26.7749  -16.1249  -16.4597 C   0  0  2  0  0  0  0  0  0  0  0  0
   27.2172  -16.1689  -17.8383 N   0  0  0  0  0  0  0  0  0  0  0  0
   26.2304  -17.4561  -16.1094 C   0  0  0  0  0  0  0  0  0  0  0  0
   25.2835  -17.9249  -16.7604 O   0  0  0  0  0  0  0  0  0  0  0  0
   27.8564  -20.7219  -16.1543 C   0  0  0  0  0  0  0  0  0  0  0  0
   27.3078  -20.5557  -14.7527 C   0  0  1  0  0  0  0  0  0  0  0  0
   28.3075  -20.3266  -13.8129 O   0  0  0  0  0  0  0  0  0  0  0  0
   26.1920  -19.5389  -14.7011 C   0  0  2  0  0  0  0  0  0  0  0  0
   26.7589  -18.2483  -15.0266 N   0  0  0  0  0  0  0  0  0  0  0  0
   25.4689  -19.5288  -13.4197 C   0  0  0  0  0  0  0  0  0  0  0  0
   25.9376  -18.7966  -12.4943 O   0  0  0  0  0  0  0  0  0  0  0  0
   17.5811  -21.5948  -10.3008 N   0  0  0  0  0  0  0  0  0  0  0  0
   18.4113  -22.2449   -9.3470 C   0  0  0  0  0  0  0  0  0  0  0  0
   17.8866  -22.6556   -8.2532 N   0  0  0  0  0  0  0  0  0  0  0  0
   19.7915  -22.4641   -9.5395 N   0  0  0  0  0  0  0  0  0  0  0  0
   20.4770  -22.0817  -10.7288 C   0  0  0  0  0  0  0  0  0  0  0  0
   21.8189  -21.4825  -10.5523 C   0  0  0  0  0  0  0  0  0  0  0  0
   22.4659  -21.1597  -11.8453 C   0  0  0  0  0  0  0  0  0  0  0  0
   23.8334  -20.6250  -11.8042 C   0  0  2  0  0  0  0  0  0  0  0  0
   24.2991  -20.2720  -13.1530 N   0  0  0  0  0  0  0  0  0  0  0  0
   24.8014  -21.2332  -10.9610 C   0  0  0  0  0  0  0  0  0  0  0  0
   25.4878  -22.2832  -11.1870 O   0  0  0  0  0  0  0  0  0  0  0  0
   25.0864  -20.6554   -9.7050 O   0  0  0  0  0  0  0  0  0  0  0  0
  2  1  1  1
  3  2  1  0
  4  2  1  0
  5  4  1  0
  5  6  1  6
  7  5  1  0
  8  7  2  0
 10  9  1  6
 10 12  1  0
 11 10  1  0
 12 13  1  1
 13  7  1  0
 14 12  1  0
 14 15  2  0
 16 17  1  0
 17 18  2  0
 17 19  1  0
 19 20  1  0
 20 21  1  0
 21 22  1  0
 23 24  1  0
 23 22  1  6
 24 14  1  0
 25 23  1  0
 26 25  2  0
 27 25  1  0
M  END
$$$$
