LTR.pdb
     RDKit          3D

 27 26  0  0  1  0  0  0  0  0999 V2000
   29.3066  -19.9979   -5.0491 C   0  0  0  0  0  0  0  0  0  0  0  0
   27.9217  -19.9262   -5.6071 C   0  0  1  0  0  0  0  0  0  0  0  0
   27.2197  -18.7254   -5.0001 C   0  0  0  0  0  0  0  0  0  0  0  0
   27.8848  -19.8380   -7.1077 C   0  0  0  0  0  0  0  0  0  0  0  0
   26.4423  -19.7390   -7.5737 C   0  0  2  0  0  0  0  0  0  0  0  0
   25.7533  -20.9417   -7.1529 N   0  0  0  0  0  0  0  0  0  0  0  0
   26.3537  -19.6513   -9.0488 C   0  0  0  0  0  0  0  0  0  0  0  0
   26.7891  -18.6468   -9.6332 O   0  0  0  0  0  0  0  0  0  0  0  0
   27.9862  -21.6772  -11.4863 C   0  0  0  0  0  0  0  0  0  0  0  0
   26.5209  -21.7536  -11.8604 C   0  0  1  0  0  0  0  0  0  0  0  0
   25.9612  -22.9940  -11.5716 O   0  0  0  0  0  0  0  0  0  0  0  0
   25.7338  -20.5946  -11.2957 C   0  0  2  0  0  0  0  0  0  0  0  0
   25.7739  -20.6982   -9.8532 N   0  0  0  0  0  0  0  0  0  0  0  0
   24.3600  -20.5120  -11.8160 C   0  0  0  0  0  0  0  0  0  0  0  0
   23.4175  -20.7972  -11.0143 O   0  0  0  0  0  0  0  0  0  0  0  0
   20.8202  -15.2356  -17.9653 N   0  0  0  0  0  0  0  0  0  0  0  0
   19.7439  -16.0347  -17.4915 C   0  0  0  0  0  0  0  0  0  0  0  0
   18.5484  -15.7148  -17.8217 N   0  0  0  0  0  0  0  0  0  0  0  0
   19.9205  -17.1689  -16.6715 N   0  0  0  0  0  0  0  0  0  0  0  0
   21.1770  -17.5214  -16.0990 C   0  0  0  0  0  0  0  0  0  0  0  0
   21.1710  -18.6483  -15.1393 C   0  0  0  0  0  0  0  0  0  0  0  0
   22.5243  -18.9515  -14.6185 C   0  0  0  0  0  0  0  0  0  0  0  0
   22.6458  -20.0397  -13.6394 C   0  0  2  0  0  0  0  0  0  0  0  0
   24.0228  -20.1399  -13.1350 N   0  0  0  0  0  0  0  0  0  0  0  0
   21.9883  -21.2763  -13.8769 C   0  0  0  0  0  0  0  0  0  0  0  0
   22.4617  -22.3207  -14.4334 O   0  0  0  0  0  0  0  0  0  0  0  0
   20.6454  -21.4355  -13.4720 O   0  0  0  0  0  0  0  0  0  0  0  0
  2  1  1  1
  3  2  1  0
  4  2  1  0
  5  4  1  0
  5  6  1  6
  7  5  1  0
  8  7  2  0
 10  9  1  1
 10 12  1  0
 11 10  1  0
 12 13  1  1
 13  7  1  0
 14 12  1  0
 14 15  2  0
 16 17  1  0
 17 18  2  0
 17 19  1  0
 19 20  1  0
 20 21  1  0
 21 22  1  0
 23 24  1  0
 23 22  1  6
 24 14  1  0
 25 23  1  0
 26 25  2  0
 27 25  1  0
M  END
$$$$
