AAE.pdb
     RDKit          3D

 20 19  0  0  1  0  0  0  0  0999 V2000
    6.5168  -18.7257   19.4874 C   0  0  0  0  0  0  0  0  0  0  0  0
    6.7643  -17.3539   18.8963 C   0  0  2  0  0  0  0  0  0  0  0  0
    7.3019  -17.3746   17.5683 N   0  0  0  0  0  0  0  0  0  0  0  0
    7.7096  -16.5957   19.7911 C   0  0  0  0  0  0  0  0  0  0  0  0
    8.9519  -16.7205   19.6382 O   0  0  0  0  0  0  0  0  0  0  0  0
    7.5268  -13.9287   22.4566 C   0  0  0  0  0  0  0  0  0  0  0  0
    8.1667  -14.9988   21.6093 C   0  0  2  0  0  0  0  0  0  0  0  0
    7.2261  -15.7425   20.8056 N   0  0  0  0  0  0  0  0  0  0  0  0
    8.9990  -15.9403   22.4207 C   0  0  0  0  0  0  0  0  0  0  0  0
    8.5051  -16.9905   22.9159 O   0  0  0  0  0  0  0  0  0  0  0  0
   10.3714  -15.6657   22.6479 N   0  0  0  0  0  0  0  0  0  0  0  0
   11.2484  -16.5885   23.3936 C   0  0  1  0  0  0  0  0  0  0  0  0
   12.6465  -16.0900   23.1205 C   0  0  0  0  0  0  0  0  0  0  0  0
   13.7268  -16.8217   23.8439 C   0  0  0  0  0  0  0  0  0  0  0  0
   15.0309  -16.2415   23.4785 C   0  0  0  0  0  0  0  0  0  0  0  0
   15.2257  -15.8143   22.3281 O   0  0  0  0  0  0  0  0  0  0  0  0
   10.9274  -16.4510   24.8491 C   0  0  0  0  0  0  0  0  0  0  0  0
   11.2894  -17.4615   25.7071 O   0  0  0  0  0  0  0  0  0  0  0  0
   16.0368  -16.1723   24.4154 O   0  0  0  0  0  0  0  0  0  0  0  0
   10.3318  -15.4283   25.3045 O   0  0  0  0  0  0  0  0  0  0  0  0
  2  1  1  1
  2  3  1  0
  4  8  1  0
  4  2  1  0
  5  4  2  0
  7  6  1  1
  7  9  1  0
  7  8  1  0
  9 11  1  0
 10  9  2  0
 11 12  1  0
 12 13  1  1
 13 14  1  0
 14 15  1  0
 15 19  1  0
 15 16  2  0
 17 12  1  0
 17 18  1  0
 20 17  2  0
M  END
$$$$
