AAE.pdb
     RDKit          3D

 20 19  0  0  1  0  0  0  0  0999 V2000
    8.5084  -20.9048   20.4194 C   0  0  0  0  0  0  0  0  0  0  0  0
    8.8770  -20.2596   21.7386 C   0  0  2  0  0  0  0  0  0  0  0  0
    7.7548  -19.7987   22.5012 N   0  0  0  0  0  0  0  0  0  0  0  0
    9.7973  -19.0959   21.4772 C   0  0  0  0  0  0  0  0  0  0  0  0
   10.8626  -19.2730   20.8325 O   0  0  0  0  0  0  0  0  0  0  0  0
    9.6731  -15.5121   21.0348 C   0  0  0  0  0  0  0  0  0  0  0  0
   10.3729  -16.7065   21.6317 C   0  0  2  0  0  0  0  0  0  0  0  0
    9.4864  -17.8016   21.9452 N   0  0  0  0  0  0  0  0  0  0  0  0
   11.1809  -16.3444   22.8373 C   0  0  0  0  0  0  0  0  0  0  0  0
   10.6812  -15.6764   23.7839 O   0  0  0  0  0  0  0  0  0  0  0  0
   12.5354  -16.7515   22.9376 N   0  0  0  0  0  0  0  0  0  0  0  0
   13.3926  -16.3689   24.0759 C   0  0  1  0  0  0  0  0  0  0  0  0
   13.6618  -17.6640   24.8026 C   0  0  0  0  0  0  0  0  0  0  0  0
   12.4613  -18.2989   25.4203 C   0  0  0  0  0  0  0  0  0  0  0  0
   12.8588  -19.5685   26.0534 C   0  0  0  0  0  0  0  0  0  0  0  0
   13.1879  -20.5410   25.3534 O   0  0  0  0  0  0  0  0  0  0  0  0
   14.6679  -15.8133   23.5235 C   0  0  0  0  0  0  0  0  0  0  0  0
   14.9098  -15.9206   22.1751 O   0  0  0  0  0  0  0  0  0  0  0  0
   12.8660  -19.6773   27.4254 O   0  0  0  0  0  0  0  0  0  0  0  0
   15.5251  -15.2495   24.2689 O   0  0  0  0  0  0  0  0  0  0  0  0
  2  1  1  6
  2  3  1  0
  4  8  1  0
  4  2  1  0
  5  4  2  0
  7  6  1  1
  7  9  1  0
  7  8  1  0
  9 11  1  0
 10  9  2  0
 11 12  1  0
 12 13  1  1
 13 14  1  0
 14 15  1  0
 15 19  1  0
 15 16  2  0
 17 12  1  0
 17 18  1  0
 20 17  2  0
M  END
$$$$
