AAE.pdb
     RDKit          3D

 20 19  0  0  1  0  0  0  0  0999 V2000
    8.1259  -12.6311   20.1251 C   0  0  0  0  0  0  0  0  0  0  0  0
    7.6418  -14.0296   19.8055 C   0  0  2  0  0  0  0  0  0  0  0  0
    6.2385  -14.2283   20.0168 N   0  0  0  0  0  0  0  0  0  0  0  0
    8.4045  -15.0189   20.6473 C   0  0  0  0  0  0  0  0  0  0  0  0
    7.9814  -15.3243   21.7918 O   0  0  0  0  0  0  0  0  0  0  0  0
   10.7052  -17.8175   20.0559 C   0  0  0  0  0  0  0  0  0  0  0  0
   10.1844  -16.6986   20.9216 C   0  0  2  0  0  0  0  0  0  0  0  0
    9.5935  -15.6139   20.1747 N   0  0  0  0  0  0  0  0  0  0  0  0
   11.2308  -16.1673   21.8491 C   0  0  0  0  0  0  0  0  0  0  0  0
   11.8984  -15.1360   21.5613 O   0  0  0  0  0  0  0  0  0  0  0  0
   11.4914  -16.8201   23.0806 N   0  0  0  0  0  0  0  0  0  0  0  0
   12.5310  -16.3528   24.0174 C   0  0  1  0  0  0  0  0  0  0  0  0
   12.4174  -17.2774   25.2049 C   0  0  0  0  0  0  0  0  0  0  0  0
   11.2390  -17.0273   26.0851 C   0  0  0  0  0  0  0  0  0  0  0  0
   11.2247  -18.0267   27.1677 C   0  0  0  0  0  0  0  0  0  0  0  0
   10.7610  -19.1616   26.9658 O   0  0  0  0  0  0  0  0  0  0  0  0
   13.8604  -16.5290   23.3526 C   0  0  0  0  0  0  0  0  0  0  0  0
   14.8929  -15.6914   23.7004 O   0  0  0  0  0  0  0  0  0  0  0  0
   11.7272  -17.7016   28.4070 O   0  0  0  0  0  0  0  0  0  0  0  0
   14.0531  -17.4289   22.4801 O   0  0  0  0  0  0  0  0  0  0  0  0
  2  1  1  1
  2  3  1  0
  4  8  1  0
  4  2  1  0
  5  4  2  0
  7  6  1  6
  7  9  1  0
  7  8  1  0
  9 11  1  0
 10  9  2  0
 11 12  1  0
 12 13  1  1
 13 14  1  0
 14 15  1  0
 15 19  1  0
 15 16  2  0
 17 12  1  0
 17 18  1  0
 20 17  2  0
M  END
$$$$
