AAE.pdb
     RDKit          3D

 20 19  0  0  1  0  0  0  0  0999 V2000
    5.7978  -17.8192   20.3449 C   0  0  0  0  0  0  0  0  0  0  0  0
    6.5101  -16.5603   19.8977 C   0  0  2  0  0  0  0  0  0  0  0  0
    7.2885  -16.7177   18.7050 N   0  0  0  0  0  0  0  0  0  0  0  0
    7.4118  -16.0846   21.0067 C   0  0  0  0  0  0  0  0  0  0  0  0
    8.5833  -16.5334   21.0969 O   0  0  0  0  0  0  0  0  0  0  0  0
    7.3775  -13.4196   23.6801 C   0  0  0  0  0  0  0  0  0  0  0  0
    7.9005  -14.6106   22.9180 C   0  0  2  0  0  0  0  0  0  0  0  0
    6.9651  -15.1391   21.9541 N   0  0  0  0  0  0  0  0  0  0  0  0
    8.3669  -15.7032   23.8268 C   0  0  0  0  0  0  0  0  0  0  0  0
    7.5617  -16.5555   24.2931 O   0  0  0  0  0  0  0  0  0  0  0  0
    9.7362  -15.8009   24.1819 N   0  0  0  0  0  0  0  0  0  0  0  0
   10.2556  -16.8885   25.0328 C   0  0  1  0  0  0  0  0  0  0  0  0
   11.7531  -16.8302   24.8541 C   0  0  0  0  0  0  0  0  0  0  0  0
   12.2363  -17.1740   23.4851 C   0  0  0  0  0  0  0  0  0  0  0  0
   13.6991  -17.0061   23.4333 C   0  0  0  0  0  0  0  0  0  0  0  0
   14.4361  -17.7177   24.1364 O   0  0  0  0  0  0  0  0  0  0  0  0
    9.8932  -16.5748   26.4507 C   0  0  0  0  0  0  0  0  0  0  0  0
   10.0645  -17.5439   27.4098 O   0  0  0  0  0  0  0  0  0  0  0  0
   14.2510  -16.0576   22.6027 O   0  0  0  0  0  0  0  0  0  0  0  0
    9.4338  -15.4407   26.7838 O   0  0  0  0  0  0  0  0  0  0  0  0
  2  1  1  1
  2  3  1  0
  4  8  1  0
  4  2  1  0
  5  4  2  0
  7  6  1  1
  7  9  1  0
  7  8  1  0
  9 11  1  0
 10  9  2  0
 11 12  1  0
 12 13  1  1
 13 14  1  0
 14 15  1  0
 15 19  1  0
 15 16  2  0
 17 12  1  0
 17 18  1  0
 20 17  2  0
M  END
$$$$
