AAE.pdb
     RDKit          3D

 20 19  0  0  1  0  0  0  0  0999 V2000
    7.4427  -12.5251   19.3879 C   0  0  0  0  0  0  0  0  0  0  0  0
    8.8185  -13.1372   19.2304 C   0  0  2  0  0  0  0  0  0  0  0  0
    9.2668  -13.2336   17.8728 N   0  0  0  0  0  0  0  0  0  0  0  0
    8.8171  -14.5146   19.8402 C   0  0  0  0  0  0  0  0  0  0  0  0
    8.4937  -14.6647   21.0465 O   0  0  0  0  0  0  0  0  0  0  0  0
    8.7898  -18.0831   18.9067 C   0  0  0  0  0  0  0  0  0  0  0  0
    9.2920  -16.9288   19.7362 C   0  0  2  0  0  0  0  0  0  0  0  0
    9.1748  -15.6484   19.0802 N   0  0  0  0  0  0  0  0  0  0  0  0
   10.6987  -17.1359   20.2007 C   0  0  0  0  0  0  0  0  0  0  0  0
   11.0844  -18.2529   20.6432 O   0  0  0  0  0  0  0  0  0  0  0  0
   11.6319  -16.0696   20.1494 N   0  0  0  0  0  0  0  0  0  0  0  0
   13.0372  -16.2293   20.5696 C   0  0  1  0  0  0  0  0  0  0  0  0
   13.7945  -15.2005   19.7659 C   0  0  0  0  0  0  0  0  0  0  0  0
   14.9022  -15.7478   18.9296 C   0  0  0  0  0  0  0  0  0  0  0  0
   15.5978  -14.6341   18.2614 C   0  0  0  0  0  0  0  0  0  0  0  0
   16.7457  -14.3126   18.6120 O   0  0  0  0  0  0  0  0  0  0  0  0
   13.1194  -15.9060   22.0287 C   0  0  0  0  0  0  0  0  0  0  0  0
   14.2698  -16.2160   22.7136 O   0  0  0  0  0  0  0  0  0  0  0  0
   14.9737  -13.9477   17.2447 O   0  0  0  0  0  0  0  0  0  0  0  0
   12.1559  -15.3559   22.6428 O   0  0  0  0  0  0  0  0  0  0  0  0
  2  1  1  6
  2  3  1  0
  4  8  1  0
  4  2  1  0
  5  4  2  0
  7  6  1  6
  7  9  1  0
  7  8  1  0
  9 11  1  0
 10  9  2  0
 11 12  1  0
 12 13  1  6
 13 14  1  0
 14 15  1  0
 15 19  1  0
 15 16  2  0
 17 12  1  0
 17 18  1  0
 20 17  2  0
M  END
$$$$
