AAE.pdb
     RDKit          3D

 20 19  0  0  1  0  0  0  0  0999 V2000
    7.9948  -18.0843   18.6590 C   0  0  0  0  0  0  0  0  0  0  0  0
    8.1280  -16.9170   17.7040 C   0  0  2  0  0  0  0  0  0  0  0  0
    8.9852  -17.1691   16.5838 N   0  0  0  0  0  0  0  0  0  0  0  0
    8.6520  -15.7222   18.4572 C   0  0  0  0  0  0  0  0  0  0  0  0
    9.8921  -15.5266   18.5360 O   0  0  0  0  0  0  0  0  0  0  0  0
    7.3117  -12.6058   20.0950 C   0  0  0  0  0  0  0  0  0  0  0  0
    8.3193  -13.6896   19.8072 C   0  0  2  0  0  0  0  0  0  0  0  0
    7.7734  -14.8116   19.0814 N   0  0  0  0  0  0  0  0  0  0  0  0
    9.0032  -14.1700   21.0477 C   0  0  0  0  0  0  0  0  0  0  0  0
    9.5883  -13.3670   21.8256 O   0  0  0  0  0  0  0  0  0  0  0  0
    9.0041  -15.5499   21.3739 N   0  0  0  0  0  0  0  0  0  0  0  0
    9.6787  -16.0766   22.5757 C   0  0  1  0  0  0  0  0  0  0  0  0
    9.4486  -17.5672   22.5194 C   0  0  0  0  0  0  0  0  0  0  0  0
   10.1300  -18.3489   23.5920 C   0  0  0  0  0  0  0  0  0  0  0  0
    9.8365  -19.7807   23.4062 C   0  0  0  0  0  0  0  0  0  0  0  0
   10.7592  -20.6127   23.3961 O   0  0  0  0  0  0  0  0  0  0  0  0
   11.1396  -15.7758   22.4508 C   0  0  0  0  0  0  0  0  0  0  0  0
   11.6722  -15.5776   21.1996 O   0  0  0  0  0  0  0  0  0  0  0  0
    8.5350  -20.1979   23.2436 O   0  0  0  0  0  0  0  0  0  0  0  0
   11.8921  -15.7007   23.4689 O   0  0  0  0  0  0  0  0  0  0  0  0
  2  1  1  1
  2  3  1  0
  4  8  1  0
  4  2  1  0
  5  4  2  0
  7  6  1  1
  7  9  1  0
  7  8  1  0
  9 11  1  0
 10  9  2  0
 11 12  1  0
 12 13  1  6
 13 14  1  0
 14 15  1  0
 15 19  1  0
 15 16  2  0
 17 12  1  0
 17 18  1  0
 20 17  2  0
M  END
$$$$
