AAE.pdb
     RDKit          3D

 20 19  0  0  1  0  0  0  0  0999 V2000
    8.0567  -14.8590   17.8976 C   0  0  0  0  0  0  0  0  0  0  0  0
    8.1919  -13.6091   18.7412 C   0  0  2  0  0  0  0  0  0  0  0  0
    8.7311  -12.4820   18.0395 N   0  0  0  0  0  0  0  0  0  0  0  0
    9.0708  -13.9085   19.9274 C   0  0  0  0  0  0  0  0  0  0  0  0
   10.3113  -13.7148   19.8519 O   0  0  0  0  0  0  0  0  0  0  0  0
    8.6371  -14.7059   23.5806 C   0  0  0  0  0  0  0  0  0  0  0  0
    9.3854  -14.5677   22.2792 C   0  0  2  0  0  0  0  0  0  0  0  0
    8.5266  -14.4064   21.1303 N   0  0  0  0  0  0  0  0  0  0  0  0
   10.3351  -15.7002   22.0499 C   0  0  0  0  0  0  0  0  0  0  0  0
    9.9712  -16.7487   21.4495 O   0  0  0  0  0  0  0  0  0  0  0  0
   11.6745  -15.6127   22.5071 N   0  0  0  0  0  0  0  0  0  0  0  0
   12.6371  -16.7195   22.3479 C   0  0  1  0  0  0  0  0  0  0  0  0
   13.9641  -16.0398   22.1139 C   0  0  0  0  0  0  0  0  0  0  0  0
   14.0739  -15.3045   20.8204 C   0  0  0  0  0  0  0  0  0  0  0  0
   15.4544  -14.8156   20.6589 C   0  0  0  0  0  0  0  0  0  0  0  0
   15.8217  -13.7767   21.2329 O   0  0  0  0  0  0  0  0  0  0  0  0
   12.6706  -17.4869   23.6325 C   0  0  0  0  0  0  0  0  0  0  0  0
   13.2201  -18.7464   23.6394 O   0  0  0  0  0  0  0  0  0  0  0  0
   16.3402  -15.5128   19.8693 O   0  0  0  0  0  0  0  0  0  0  0  0
   12.2051  -17.0027   24.7082 O   0  0  0  0  0  0  0  0  0  0  0  0
  2  1  1  6
  2  3  1  0
  4  8  1  0
  4  2  1  0
  5  4  2  0
  7  6  1  1
  7  9  1  0
  7  8  1  0
  9 11  1  0
 10  9  2  0
 11 12  1  0
 12 13  1  1
 13 14  1  0
 14 15  1  0
 15 19  1  0
 15 16  2  0
 17 12  1  0
 17 18  1  0
 20 17  2  0
M  END
$$$$
