AAE.pdb
     RDKit          3D

 20 19  0  0  1  0  0  0  0  0999 V2000
    6.5424  -18.7305   19.3314 C   0  0  0  0  0  0  0  0  0  0  0  0
    6.9200  -17.3865   18.7456 C   0  0  2  0  0  0  0  0  0  0  0  0
    7.6300  -17.4656   17.5034 N   0  0  0  0  0  0  0  0  0  0  0  0
    7.7652  -16.6356   19.7410 C   0  0  0  0  0  0  0  0  0  0  0  0
    9.0045  -16.8444   19.7935 O   0  0  0  0  0  0  0  0  0  0  0  0
    7.3564  -13.8941   22.3056 C   0  0  0  0  0  0  0  0  0  0  0  0
    8.0251  -15.0515   21.6086 C   0  0  2  0  0  0  0  0  0  0  0  0
    7.1904  -15.6962   20.6231 N   0  0  0  0  0  0  0  0  0  0  0  0
    8.5494  -16.0666   22.5741 C   0  0  0  0  0  0  0  0  0  0  0  0
    7.8375  -17.0358   22.9562 O   0  0  0  0  0  0  0  0  0  0  0  0
    9.8694  -15.9558   23.0800 N   0  0  0  0  0  0  0  0  0  0  0  0
   10.4247  -16.9148   24.0541 C   0  0  1  0  0  0  0  0  0  0  0  0
   11.7932  -17.2550   23.5162 C   0  0  0  0  0  0  0  0  0  0  0  0
   11.9891  -18.6906   23.1603 C   0  0  0  0  0  0  0  0  0  0  0  0
   13.3502  -18.8741   22.6268 C   0  0  0  0  0  0  0  0  0  0  0  0
   13.6579  -18.4003   21.5201 O   0  0  0  0  0  0  0  0  0  0  0  0
   10.5483  -16.2125   25.3700 C   0  0  0  0  0  0  0  0  0  0  0  0
   10.3513  -14.8533   25.4184 O   0  0  0  0  0  0  0  0  0  0  0  0
   14.2842  -19.5727   23.3574 O   0  0  0  0  0  0  0  0  0  0  0  0
   10.8298  -16.8410   26.4349 O   0  0  0  0  0  0  0  0  0  0  0  0
  2  1  1  1
  2  3  1  0
  4  8  1  0
  4  2  1  0
  5  4  2  0
  7  6  1  1
  7  9  1  0
  7  8  1  0
  9 11  1  0
 10  9  2  0
 11 12  1  0
 12 13  1  6
 13 14  1  0
 14 15  1  0
 15 19  1  0
 15 16  2  0
 17 12  1  0
 17 18  1  0
 20 17  2  0
M  END
$$$$
