GAD.pdb
     RDKit          3D

 18 17  0  0  1  0  0  0  0  0999 V2000
   17.9042  -11.4831  -15.5518 N   0  0  0  0  0  0  0  0  0  0  0  0
   19.3272  -11.2144  -15.6165 C   0  0  0  0  0  0  0  0  0  0  0  0
   19.5401   -9.8171  -16.0693 C   0  0  0  0  0  0  0  0  0  0  0  0
   20.7173   -9.3380  -16.1383 O   0  0  0  0  0  0  0  0  0  0  0  0
   17.4771   -7.1560  -17.7076 C   0  0  0  0  0  0  0  0  0  0  0  0
   18.7463   -7.6307  -17.0142 C   0  0  2  0  0  0  0  0  0  0  0  0
   18.4878   -8.9380  -16.4467 N   0  0  0  0  0  0  0  0  0  0  0  0
   19.1315   -6.6182  -16.0332 C   0  0  0  0  0  0  0  0  0  0  0  0
   18.4776   -6.5829  -14.9550 O   0  0  0  0  0  0  0  0  0  0  0  0
   20.1710   -5.6689  -16.1748 N   0  0  0  0  0  0  0  0  0  0  0  0
   20.5172   -4.7467  -15.0963 C   0  0  1  0  0  0  0  0  0  0  0  0
   21.9906   -4.8727  -14.7326 C   0  0  0  0  0  0  0  0  0  0  0  0
   22.2778   -6.1736  -14.0838 C   0  0  0  0  0  0  0  0  0  0  0  0
   22.0098   -6.3448  -12.8705 O   0  0  0  0  0  0  0  0  0  0  0  0
   20.2970   -3.3396  -15.5196 C   0  0  0  0  0  0  0  0  0  0  0  0
   19.9262   -3.0351  -16.8192 O   0  0  0  0  0  0  0  0  0  0  0  0
   22.8402   -7.2226  -14.7789 O   0  0  0  0  0  0  0  0  0  0  0  0
   20.4394   -2.3822  -14.7159 O   0  0  0  0  0  0  0  0  0  0  0  0
  2  1  1  0
  3  2  1  0
  3  4  2  0
  6  5  1  1
  6  7  1  0
  7  3  1  0
  8  6  1  0
  9  8  2  0
 10  8  1  0
 11 12  1  6
 11 10  1  0
 12 13  1  0
 13 14  2  0
 15 16  1  0
 15 11  1  0
 17 13  1  0
 18 15  2  0
M  END
$$$$
