GAD.pdb
     RDKit          3D

 18 17  0  0  1  0  0  0  0  0999 V2000
   27.2618  -20.6561  -15.9910 N   0  0  0  0  0  0  0  0  0  0  0  0
   26.4907  -19.7207  -16.7857 C   0  0  0  0  0  0  0  0  0  0  0  0
   25.4155  -19.1367  -15.9456 C   0  0  0  0  0  0  0  0  0  0  0  0
   25.2221  -19.5654  -14.7628 O   0  0  0  0  0  0  0  0  0  0  0  0
   23.1368  -16.1756  -16.0507 C   0  0  0  0  0  0  0  0  0  0  0  0
   23.5133  -17.5532  -15.5243 C   0  0  2  0  0  0  0  0  0  0  0  0
   24.5508  -18.0939  -16.3783 N   0  0  0  0  0  0  0  0  0  0  0  0
   22.2989  -18.3646  -15.4714 C   0  0  0  0  0  0  0  0  0  0  0  0
   21.9931  -19.0121  -16.5099 O   0  0  0  0  0  0  0  0  0  0  0  0
   21.4282  -18.4959  -14.3639 N   0  0  0  0  0  0  0  0  0  0  0  0
   20.2426  -19.3472  -14.4194 C   0  0  1  0  0  0  0  0  0  0  0  0
   19.9421  -19.9414  -13.0499 C   0  0  0  0  0  0  0  0  0  0  0  0
   19.6505  -21.3913  -13.1420 C   0  0  0  0  0  0  0  0  0  0  0  0
   19.7087  -21.9762  -14.2500 O   0  0  0  0  0  0  0  0  0  0  0  0
   19.0488  -18.5572  -14.8175 C   0  0  0  0  0  0  0  0  0  0  0  0
   18.0400  -19.1233  -15.5796 O   0  0  0  0  0  0  0  0  0  0  0  0
   19.3105  -22.1349  -12.0323 O   0  0  0  0  0  0  0  0  0  0  0  0
   18.9151  -17.3532  -14.4776 O   0  0  0  0  0  0  0  0  0  0  0  0
  2  1  1  0
  3  2  1  0
  3  4  2  0
  6  5  1  6
  6  7  1  0
  7  3  1  0
  8  6  1  0
  9  8  2  0
 10  8  1  0
 11 12  1  1
 11 10  1  0
 12 13  1  0
 13 14  2  0
 15 16  1  0
 15 11  1  0
 17 13  1  0
 18 15  2  0
M  END
$$$$
