GAD.pdb
     RDKit          3D

 18 17  0  0  1  0  0  0  0  0999 V2000
   16.7544  -12.9136  -15.7325 N   0  0  0  0  0  0  0  0  0  0  0  0
   16.7906  -11.5811  -16.3021 C   0  0  0  0  0  0  0  0  0  0  0  0
   18.1830  -11.0692  -16.2584 C   0  0  0  0  0  0  0  0  0  0  0  0
   18.7866  -10.9480  -15.1444 O   0  0  0  0  0  0  0  0  0  0  0  0
   20.9051  -10.3091  -18.7212 C   0  0  0  0  0  0  0  0  0  0  0  0
   20.2977  -10.2392  -17.3273 C   0  0  2  0  0  0  0  0  0  0  0  0
   18.9234  -10.6888  -17.4115 N   0  0  0  0  0  0  0  0  0  0  0  0
   20.4505   -8.8715  -16.8354 C   0  0  0  0  0  0  0  0  0  0  0  0
   19.4910   -8.0772  -17.0346 O   0  0  0  0  0  0  0  0  0  0  0  0
   21.5748   -8.3482  -16.1541 N   0  0  0  0  0  0  0  0  0  0  0  0
   21.6330   -6.9503  -15.7347 C   0  0  1  0  0  0  0  0  0  0  0  0
   22.3802   -6.8151  -14.4148 C   0  0  0  0  0  0  0  0  0  0  0  0
   22.4268   -5.4049  -13.9620 C   0  0  0  0  0  0  0  0  0  0  0  0
   23.0070   -4.5386  -14.6592 O   0  0  0  0  0  0  0  0  0  0  0  0
   22.3712   -6.1343  -16.7332 C   0  0  0  0  0  0  0  0  0  0  0  0
   21.9832   -4.8360  -17.0210 O   0  0  0  0  0  0  0  0  0  0  0  0
   21.8447   -5.0031  -12.7790 O   0  0  0  0  0  0  0  0  0  0  0  0
   23.3684   -6.5932  -17.3478 O   0  0  0  0  0  0  0  0  0  0  0  0
  2  1  1  0
  3  2  1  0
  3  4  2  0
  6  5  1  6
  6  7  1  0
  7  3  1  0
  8  6  1  0
  9  8  2  0
 10  8  1  0
 11 12  1  1
 11 10  1  0
 12 13  1  0
 13 14  2  0
 15 16  1  0
 15 11  1  0
 17 13  1  0
 18 15  2  0
M  END
$$$$
