GAD.pdb
     RDKit          3D

 18 17  0  0  1  0  0  0  0  0999 V2000
   24.3481  -13.2688  -18.6196 N   0  0  0  0  0  0  0  0  0  0  0  0
   23.0826  -12.7425  -18.1475 C   0  0  0  0  0  0  0  0  0  0  0  0
   23.3326  -11.8022  -17.0268 C   0  0  0  0  0  0  0  0  0  0  0  0
   22.3623  -11.3642  -16.3291 O   0  0  0  0  0  0  0  0  0  0  0  0
   26.2943  -10.2219  -15.3322 C   0  0  0  0  0  0  0  0  0  0  0  0
   24.8106  -10.2992  -15.6630 C   0  0  2  0  0  0  0  0  0  0  0  0
   24.6243  -11.3346  -16.6586 N   0  0  0  0  0  0  0  0  0  0  0  0
   24.3728   -8.9721  -16.0909 C   0  0  0  0  0  0  0  0  0  0  0  0
   24.4674   -8.7029  -17.3196 O   0  0  0  0  0  0  0  0  0  0  0  0
   23.8507   -7.9545  -15.2579 N   0  0  0  0  0  0  0  0  0  0  0  0
   23.2852   -6.7271  -15.8122 C   0  0  1  0  0  0  0  0  0  0  0  0
   22.0989   -7.0405  -16.7140 C   0  0  0  0  0  0  0  0  0  0  0  0
   21.5445   -5.8097  -17.3251 C   0  0  0  0  0  0  0  0  0  0  0  0
   22.3124   -4.8898  -17.6959 O   0  0  0  0  0  0  0  0  0  0  0  0
   22.7804   -5.8465  -14.7270 C   0  0  0  0  0  0  0  0  0  0  0  0
   22.4456   -4.5258  -14.9773 O   0  0  0  0  0  0  0  0  0  0  0  0
   20.1889   -5.6356  -17.5040 O   0  0  0  0  0  0  0  0  0  0  0  0
   22.6412   -6.2689  -13.5501 O   0  0  0  0  0  0  0  0  0  0  0  0
  2  1  1  0
  3  2  1  0
  3  4  2  0
  6  5  1  6
  6  7  1  0
  7  3  1  0
  8  6  1  0
  9  8  2  0
 10  8  1  0
 11 12  1  6
 11 10  1  0
 12 13  1  0
 13 14  2  0
 15 16  1  0
 15 11  1  0
 17 13  1  0
 18 15  2  0
M  END
$$$$
