GAD.pdb
     RDKit          3D

 18 17  0  0  1  0  0  0  0  0999 V2000
   17.9148  -12.3546  -14.9975 N   0  0  0  0  0  0  0  0  0  0  0  0
   17.1470  -11.2222  -15.4763 C   0  0  0  0  0  0  0  0  0  0  0  0
   18.0685  -10.2286  -16.0817 C   0  0  0  0  0  0  0  0  0  0  0  0
   19.3060  -10.2373  -15.7838 O   0  0  0  0  0  0  0  0  0  0  0  0
   17.9127   -7.5566  -18.7166 C   0  0  0  0  0  0  0  0  0  0  0  0
   18.5843   -8.2515  -17.5406 C   0  0  2  0  0  0  0  0  0  0  0  0
   17.6582   -9.2281  -17.0054 N   0  0  0  0  0  0  0  0  0  0  0  0
   18.9923   -7.2261  -16.5823 C   0  0  0  0  0  0  0  0  0  0  0  0
   18.1459   -6.8808  -15.7131 O   0  0  0  0  0  0  0  0  0  0  0  0
   20.2499   -6.5796  -16.5337 N   0  0  0  0  0  0  0  0  0  0  0  0
   20.5553   -5.5754  -15.5179 C   0  0  1  0  0  0  0  0  0  0  0  0
   21.8042   -5.9621  -14.7372 C   0  0  0  0  0  0  0  0  0  0  0  0
   22.1009   -4.9779  -13.6700 C   0  0  0  0  0  0  0  0  0  0  0  0
   21.1755   -4.2974  -13.1661 O   0  0  0  0  0  0  0  0  0  0  0  0
   20.8323   -4.2593  -16.1493 C   0  0  0  0  0  0  0  0  0  0  0  0
   20.9049   -4.1297  -17.5266 O   0  0  0  0  0  0  0  0  0  0  0  0
   23.3820   -4.7791  -13.2020 O   0  0  0  0  0  0  0  0  0  0  0  0
   21.0096   -3.2236  -15.4574 O   0  0  0  0  0  0  0  0  0  0  0  0
  2  1  1  0
  3  2  1  0
  3  4  2  0
  6  5  1  6
  6  7  1  0
  7  3  1  0
  8  6  1  0
  9  8  2  0
 10  8  1  0
 11 12  1  6
 11 10  1  0
 12 13  1  0
 13 14  2  0
 15 16  1  0
 15 11  1  0
 17 13  1  0
 18 15  2  0
M  END
$$$$
