GAD.pdb
     RDKit          3D

 18 17  0  0  1  0  0  0  0  0999 V2000
   16.9212  -14.2930  -15.9871 N   0  0  0  0  0  0  0  0  0  0  0  0
   17.8205  -13.6978  -16.9557 C   0  0  0  0  0  0  0  0  0  0  0  0
   18.6412  -12.6585  -16.2856 C   0  0  0  0  0  0  0  0  0  0  0  0
   18.2069  -12.0729  -15.2422 O   0  0  0  0  0  0  0  0  0  0  0  0
   22.1164  -11.2683  -16.5795 C   0  0  0  0  0  0  0  0  0  0  0  0
   20.6852  -11.2174  -16.0640 C   0  0  2  0  0  0  0  0  0  0  0  0
   19.9264  -12.2509  -16.7380 N   0  0  0  0  0  0  0  0  0  0  0  0
   20.1750   -9.8647  -16.2783 C   0  0  0  0  0  0  0  0  0  0  0  0
   19.7013   -9.6016  -17.4174 O   0  0  0  0  0  0  0  0  0  0  0  0
   20.1602   -8.8160  -15.3286 N   0  0  0  0  0  0  0  0  0  0  0  0
   19.5842   -7.5102  -15.6395 C   0  0  1  0  0  0  0  0  0  0  0  0
   18.5170   -7.1362  -14.6197 C   0  0  0  0  0  0  0  0  0  0  0  0
   18.0653   -5.7363  -14.7987 C   0  0  0  0  0  0  0  0  0  0  0  0
   17.9536   -4.9788  -13.8053 O   0  0  0  0  0  0  0  0  0  0  0  0
   20.6252   -6.4516  -15.5816 C   0  0  0  0  0  0  0  0  0  0  0  0
   21.9041   -6.7323  -15.1294 O   0  0  0  0  0  0  0  0  0  0  0  0
   17.7570   -5.2267  -16.0418 O   0  0  0  0  0  0  0  0  0  0  0  0
   20.3809   -5.2704  -15.9394 O   0  0  0  0  0  0  0  0  0  0  0  0
  2  1  1  0
  3  2  1  0
  3  4  2  0
  6  5  1  6
  6  7  1  0
  7  3  1  0
  8  6  1  0
  9  8  2  0
 10  8  1  0
 11 12  1  1
 11 10  1  0
 12 13  1  0
 13 14  2  0
 15 16  1  0
 15 11  1  0
 17 13  1  0
 18 15  2  0
M  END
$$$$
