GAD.pdb
     RDKit          3D

 18 17  0  0  1  0  0  0  0  0999 V2000
   16.1989   -9.7570  -16.2819 N   0  0  0  0  0  0  0  0  0  0  0  0
   17.0153   -9.2979  -17.3882 C   0  0  0  0  0  0  0  0  0  0  0  0
   17.2979   -7.8508  -17.2188 C   0  0  0  0  0  0  0  0  0  0  0  0
   18.3696   -7.3480  -17.6866 O   0  0  0  0  0  0  0  0  0  0  0  0
   15.4719   -4.8164  -15.9731 C   0  0  0  0  0  0  0  0  0  0  0  0
   16.7350   -5.5373  -16.4222 C   0  0  2  0  0  0  0  0  0  0  0  0
   16.4286   -6.9475  -16.5474 N   0  0  0  0  0  0  0  0  0  0  0  0
   17.7932   -5.2382  -15.4596 C   0  0  0  0  0  0  0  0  0  0  0  0
   17.7249   -5.8042  -14.3343 O   0  0  0  0  0  0  0  0  0  0  0  0
   18.8923   -4.3717  -15.6671 N   0  0  0  0  0  0  0  0  0  0  0  0
   20.0113   -4.3173  -14.7298 C   0  0  1  0  0  0  0  0  0  0  0  0
   20.8087   -5.6140  -14.7678 C   0  0  0  0  0  0  0  0  0  0  0  0
   21.9344   -5.5848  -13.8046 C   0  0  0  0  0  0  0  0  0  0  0  0
   22.2961   -4.4989  -13.2916 O   0  0  0  0  0  0  0  0  0  0  0  0
   20.9486   -3.2243  -15.0963 C   0  0  0  0  0  0  0  0  0  0  0  0
   20.8789   -2.6102  -16.3361 O   0  0  0  0  0  0  0  0  0  0  0  0
   22.6118   -6.7302  -13.4453 O   0  0  0  0  0  0  0  0  0  0  0  0
   21.8329   -2.8221  -14.2968 O   0  0  0  0  0  0  0  0  0  0  0  0
  2  1  1  0
  3  2  1  0
  3  4  2  0
  6  5  1  1
  6  7  1  0
  7  3  1  0
  8  6  1  0
  9  8  2  0
 10  8  1  0
 11 12  1  6
 11 10  1  0
 12 13  1  0
 13 14  2  0
 15 16  1  0
 15 11  1  0
 17 13  1  0
 18 15  2  0
M  END
$$$$
