GAD.pdb
     RDKit          3D

 18 17  0  0  1  0  0  0  0  0999 V2000
   14.8239  -12.5777  -11.1619 N   0  0  0  0  0  0  0  0  0  0  0  0
   14.9093  -11.7491   -9.9756 C   0  0  0  0  0  0  0  0  0  0  0  0
   15.1940  -10.3491  -10.3774 C   0  0  0  0  0  0  0  0  0  0  0  0
   15.0840   -9.9969  -11.5956 O   0  0  0  0  0  0  0  0  0  0  0  0
   15.8396   -7.0645   -8.7008 C   0  0  0  0  0  0  0  0  0  0  0  0
   15.9007   -7.9854   -9.9112 C   0  0  2  0  0  0  0  0  0  0  0  0
   15.5962   -9.3309   -9.4696 N   0  0  0  0  0  0  0  0  0  0  0  0
   17.2198   -7.8409  -10.5235 C   0  0  0  0  0  0  0  0  0  0  0  0
   18.1422   -8.5816  -10.0857 O   0  0  0  0  0  0  0  0  0  0  0  0
   17.5654   -6.9471  -11.5645 N   0  0  0  0  0  0  0  0  0  0  0  0
   18.8883   -6.9684  -12.1835 C   0  0  1  0  0  0  0  0  0  0  0  0
   19.1828   -8.3394  -12.7771 C   0  0  0  0  0  0  0  0  0  0  0  0
   20.4694   -8.3452  -13.5121 C   0  0  0  0  0  0  0  0  0  0  0  0
   21.4545   -8.9707  -13.0520 O   0  0  0  0  0  0  0  0  0  0  0  0
   18.9596   -5.9911  -13.3004 C   0  0  0  0  0  0  0  0  0  0  0  0
   20.1287   -5.2983  -13.5690 O   0  0  0  0  0  0  0  0  0  0  0  0
   20.6260   -7.6747  -14.7061 O   0  0  0  0  0  0  0  0  0  0  0  0
   17.9651   -5.7610  -14.0359 O   0  0  0  0  0  0  0  0  0  0  0  0
  2  1  1  0
  3  2  1  0
  3  4  2  0
  6  5  1  1
  6  7  1  0
  7  3  1  0
  8  6  1  0
  9  8  2  0
 10  8  1  0
 11 12  1  6
 11 10  1  0
 12 13  1  0
 13 14  2  0
 15 16  1  0
 15 11  1  0
 17 13  1  0
 18 15  2  0
M  END
$$$$
