MPG.pdb
     RDKit          3D

 20 20  0  0  1  0  0  0  0  0999 V2000
    8.2226  -11.7619   27.7835 C   0  0  0  0  0  0  0  0  0  0  0  0
    7.0260  -12.5206   26.6891 S   0  0  0  0  0  0  0  0  0  0  0  0
    7.3169  -14.2484   26.3729 C   0  0  0  0  0  0  0  0  0  0  0  0
    6.3667  -14.9232   25.4572 C   0  0  0  0  0  0  0  0  0  0  0  0
    6.6648  -16.3367   25.0967 C   0  0  2  0  0  0  0  0  0  0  0  0
    6.7472  -17.1513   26.2553 N   0  0  0  0  0  0  0  0  0  0  0  0
    7.7865  -16.4451   24.1356 C   0  0  0  0  0  0  0  0  0  0  0  0
    8.8120  -17.0378   24.6356 O   0  0  0  0  0  0  0  0  0  0  0  0
    7.8437  -15.9981   22.8199 N   0  0  0  0  0  0  0  0  0  0  0  0
    6.6223  -15.8398   21.9962 C   0  0  0  0  0  0  0  0  0  0  0  0
    6.9375  -14.6135   21.1288 C   0  0  0  0  0  0  0  0  0  0  0  0
    8.3556  -14.1974   21.5431 C   0  0  0  0  0  0  0  0  0  0  0  0
    8.8712  -15.6182   21.8989 C   0  0  1  0  0  0  0  0  0  0  0  0
   10.2458  -15.6224   22.2707 C   0  0  0  0  0  0  0  0  0  0  0  0
   10.8603  -14.7642   22.8935 O   0  0  0  0  0  0  0  0  0  0  0  0
   11.0216  -16.7769   21.8688 N   0  0  0  0  0  0  0  0  0  0  0  0
   12.4389  -16.8060   22.0343 C   0  0  0  0  0  0  0  0  0  0  0  0
   12.7669  -16.8791   23.4771 C   0  0  0  0  0  0  0  0  0  0  0  0
   12.1329  -17.7214   24.3745 O   0  0  0  0  0  0  0  0  0  0  0  0
   13.6702  -16.1449   23.9441 O   0  0  0  0  0  0  0  0  0  0  0  0
  1  2  1  0
  3  2  1  0
  4  3  1  0
  5  4  1  0
  5  6  1  1
  7  8  2  0
  7  5  1  0
  9  7  1  0
 10  9  1  0
 11 12  1  0
 11 10  1  0
 12 13  1  0
 13  9  1  0
 14 15  2  0
 13 14  1  1
 16 14  1  0
 17 16  1  0
 18 17  1  0
 19 18  1  0
 20 18  2  0
M  END
$$$$
