MPG.pdb
     RDKit          3D

 20 20  0  0  1  0  0  0  0  0999 V2000
    6.0436  -11.8784   26.8415 C   0  0  0  0  0  0  0  0  0  0  0  0
    7.6798  -12.5787   27.0354 S   0  0  0  0  0  0  0  0  0  0  0  0
    7.8000  -14.2944   26.5750 C   0  0  0  0  0  0  0  0  0  0  0  0
    6.7998  -14.7900   25.6001 C   0  0  0  0  0  0  0  0  0  0  0  0
    6.9333  -16.2049   25.1561 C   0  0  2  0  0  0  0  0  0  0  0  0
    7.1420  -17.0683   26.2623 N   0  0  0  0  0  0  0  0  0  0  0  0
    7.8750  -16.3498   24.0221 C   0  0  0  0  0  0  0  0  0  0  0  0
    8.8375  -17.1628   24.2780 O   0  0  0  0  0  0  0  0  0  0  0  0
    7.8296  -15.7327   22.7766 N   0  0  0  0  0  0  0  0  0  0  0  0
    6.5707  -15.1779   22.2265 C   0  0  0  0  0  0  0  0  0  0  0  0
    7.0391  -13.9380   21.4529 C   0  0  0  0  0  0  0  0  0  0  0  0
    8.5640  -13.9226   21.6281 C   0  0  0  0  0  0  0  0  0  0  0  0
    8.7572  -15.4604   21.7212 C   0  0  1  0  0  0  0  0  0  0  0  0
   10.1282  -15.8330   21.8178 C   0  0  0  0  0  0  0  0  0  0  0  0
   11.0830  -15.3547   21.2164 O   0  0  0  0  0  0  0  0  0  0  0  0
   10.4440  -16.9072   22.7358 N   0  0  0  0  0  0  0  0  0  0  0  0
   11.7854  -17.3669   22.8983 C   0  0  0  0  0  0  0  0  0  0  0  0
   12.5380  -16.4085   23.7407 C   0  0  0  0  0  0  0  0  0  0  0  0
   12.2163  -16.1123   25.0543 O   0  0  0  0  0  0  0  0  0  0  0  0
   13.5328  -15.8130   23.2623 O   0  0  0  0  0  0  0  0  0  0  0  0
  1  2  1  0
  3  2  1  0
  4  3  1  0
  5  4  1  0
  5  6  1  1
  7  8  2  0
  7  5  1  0
  9  7  1  0
 10  9  1  0
 11 12  1  0
 11 10  1  0
 12 13  1  0
 13  9  1  0
 14 15  2  0
 13 14  1  1
 16 14  1  0
 17 16  1  0
 18 17  1  0
 19 18  1  0
 20 18  2  0
M  END
$$$$
