MPG.pdb
     RDKit          3D

 20 20  0  0  1  0  0  0  0  0999 V2000
    6.7784  -11.5423   26.9798 C   0  0  0  0  0  0  0  0  0  0  0  0
    6.1144  -13.1847   26.7212 S   0  0  0  0  0  0  0  0  0  0  0  0
    7.2645  -14.3319   25.9923 C   0  0  0  0  0  0  0  0  0  0  0  0
    6.9896  -15.7722   26.2079 C   0  0  0  0  0  0  0  0  0  0  0  0
    6.6460  -16.5812   25.0061 C   0  0  2  0  0  0  0  0  0  0  0  0
    6.1949  -17.8747   25.3748 N   0  0  0  0  0  0  0  0  0  0  0  0
    7.7040  -16.5240   23.9710 C   0  0  0  0  0  0  0  0  0  0  0  0
    8.7366  -17.2255   24.2786 O   0  0  0  0  0  0  0  0  0  0  0  0
    7.6978  -15.8295   22.7662 N   0  0  0  0  0  0  0  0  0  0  0  0
    6.4431  -15.3161   22.1684 C   0  0  0  0  0  0  0  0  0  0  0  0
    6.8789  -14.0016   21.5068 C   0  0  0  0  0  0  0  0  0  0  0  0
    8.3854  -13.9063   21.7847 C   0  0  0  0  0  0  0  0  0  0  0  0
    8.6709  -15.4326   21.7946 C   0  0  1  0  0  0  0  0  0  0  0  0
   10.0541  -15.7276   21.9597 C   0  0  0  0  0  0  0  0  0  0  0  0
   11.0077  -14.9703   21.8215 O   0  0  0  0  0  0  0  0  0  0  0  0
   10.3858  -17.0857   22.3368 N   0  0  0  0  0  0  0  0  0  0  0  0
   11.7442  -17.5133   22.4302 C   0  0  0  0  0  0  0  0  0  0  0  0
   12.4182  -16.7831   23.5289 C   0  0  0  0  0  0  0  0  0  0  0  0
   13.4928  -15.9293   23.3474 O   0  0  0  0  0  0  0  0  0  0  0  0
   12.0129  -16.9269   24.7071 O   0  0  0  0  0  0  0  0  0  0  0  0
  1  2  1  0
  3  2  1  0
  4  3  1  0
  5  4  1  0
  5  6  1  1
  7  8  2  0
  7  5  1  0
  9  7  1  0
 10  9  1  0
 11 12  1  0
 11 10  1  0
 12 13  1  0
 13  9  1  0
 14 15  2  0
 13 14  1  1
 16 14  1  0
 17 16  1  0
 18 17  1  0
 19 18  1  0
 20 18  2  0
M  END
$$$$
