MPG.pdb
     RDKit          3D

 20 20  0  0  1  0  0  0  0  0999 V2000
    7.1517  -11.0956   26.3448 C   0  0  0  0  0  0  0  0  0  0  0  0
    6.6656  -12.3787   27.4948 S   0  0  0  0  0  0  0  0  0  0  0  0
    6.1643  -13.9021   26.7215 C   0  0  0  0  0  0  0  0  0  0  0  0
    7.1719  -14.5737   25.8670 C   0  0  0  0  0  0  0  0  0  0  0  0
    6.7583  -15.8416   25.2049 C   0  0  2  0  0  0  0  0  0  0  0  0
    6.3224  -16.7961   26.1596 N   0  0  0  0  0  0  0  0  0  0  0  0
    7.7573  -16.3092   24.2163 C   0  0  0  0  0  0  0  0  0  0  0  0
    8.5276  -17.2252   24.6857 O   0  0  0  0  0  0  0  0  0  0  0  0
    7.9391  -15.8851   22.9044 N   0  0  0  0  0  0  0  0  0  0  0  0
    6.7988  -15.7202   21.9729 C   0  0  0  0  0  0  0  0  0  0  0  0
    7.2118  -14.5138   21.1187 C   0  0  0  0  0  0  0  0  0  0  0  0
    8.5947  -14.1144   21.6515 C   0  0  0  0  0  0  0  0  0  0  0  0
    9.0511  -15.5375   22.0731 C   0  0  1  0  0  0  0  0  0  0  0  0
   10.3869  -15.5582   22.5659 C   0  0  0  0  0  0  0  0  0  0  0  0
   10.9075  -14.7872   23.3637 O   0  0  0  0  0  0  0  0  0  0  0  0
   11.2434  -16.6152   22.0704 N   0  0  0  0  0  0  0  0  0  0  0  0
   12.6102  -16.7046   22.4713 C   0  0  0  0  0  0  0  0  0  0  0  0
   13.2502  -17.8558   21.7933 C   0  0  0  0  0  0  0  0  0  0  0  0
   14.2332  -17.7370   20.8257 O   0  0  0  0  0  0  0  0  0  0  0  0
   12.9009  -19.0226   22.0930 O   0  0  0  0  0  0  0  0  0  0  0  0
  1  2  1  0
  3  2  1  0
  4  3  1  0
  5  4  1  0
  5  6  1  1
  7  8  2  0
  7  5  1  0
  9  7  1  0
 10  9  1  0
 11 12  1  0
 11 10  1  0
 12 13  1  0
 13  9  1  0
 14 15  2  0
 13 14  1  1
 16 14  1  0
 17 16  1  0
 18 17  1  0
 19 18  1  0
 20 18  2  0
M  END
$$$$
