MPG.pdb
     RDKit          3D

 20 20  0  0  1  0  0  0  0  0999 V2000
    8.2415  -12.1433   28.3047 C   0  0  0  0  0  0  0  0  0  0  0  0
    7.1154  -12.6724   27.0174 S   0  0  0  0  0  0  0  0  0  0  0  0
    7.2927  -14.3806   26.5477 C   0  0  0  0  0  0  0  0  0  0  0  0
    6.4449  -14.8505   25.4265 C   0  0  0  0  0  0  0  0  0  0  0  0
    6.6254  -16.2623   24.9893 C   0  0  2  0  0  0  0  0  0  0  0  0
    6.8244  -17.1188   26.1026 N   0  0  0  0  0  0  0  0  0  0  0  0
    7.6016  -16.3856   23.8821 C   0  0  0  0  0  0  0  0  0  0  0  0
    8.5653  -17.1903   24.1585 O   0  0  0  0  0  0  0  0  0  0  0  0
    7.5855  -15.7568   22.6418 N   0  0  0  0  0  0  0  0  0  0  0  0
    6.3702  -15.0872   22.1224 C   0  0  0  0  0  0  0  0  0  0  0  0
    6.9316  -13.8879   21.3465 C   0  0  0  0  0  0  0  0  0  0  0  0
    8.4550  -14.0104   21.4890 C   0  0  0  0  0  0  0  0  0  0  0  0
    8.5116  -15.5601   21.5683 C   0  0  1  0  0  0  0  0  0  0  0  0
    9.8453  -16.0546   21.6330 C   0  0  0  0  0  0  0  0  0  0  0  0
   10.6883  -16.0667   20.7435 O   0  0  0  0  0  0  0  0  0  0  0  0
   10.2678  -16.6138   22.9001 N   0  0  0  0  0  0  0  0  0  0  0  0
   11.5714  -17.1721   23.0610 C   0  0  0  0  0  0  0  0  0  0  0  0
   12.4537  -16.1847   23.7252 C   0  0  0  0  0  0  0  0  0  0  0  0
   12.2141  -15.6518   24.9803 O   0  0  0  0  0  0  0  0  0  0  0  0
   13.4892  -15.7878   23.1392 O   0  0  0  0  0  0  0  0  0  0  0  0
  1  2  1  0
  3  2  1  0
  4  3  1  0
  5  4  1  0
  5  6  1  1
  7  8  2  0
  7  5  1  0
  9  7  1  0
 10  9  1  0
 11 12  1  0
 11 10  1  0
 12 13  1  0
 13  9  1  0
 14 15  2  0
 13 14  1  1
 16 14  1  0
 17 16  1  0
 18 17  1  0
 19 18  1  0
 20 18  2  0
M  END
$$$$
