MPG.pdb
     RDKit          3D

 20 20  0  0  1  0  0  0  0  0999 V2000
    7.3581  -10.9281   26.3378 C   0  0  0  0  0  0  0  0  0  0  0  0
    6.9674  -12.2108   27.5241 S   0  0  0  0  0  0  0  0  0  0  0  0
    6.4090  -13.7359   26.7945 C   0  0  0  0  0  0  0  0  0  0  0  0
    7.3554  -14.4184   25.8808 C   0  0  0  0  0  0  0  0  0  0  0  0
    6.8660  -15.6468   25.1964 C   0  0  2  0  0  0  0  0  0  0  0  0
    6.4551  -16.6251   26.1380 N   0  0  0  0  0  0  0  0  0  0  0  0
    7.7928  -16.1039   24.1352 C   0  0  0  0  0  0  0  0  0  0  0  0
    8.5998  -17.0183   24.5423 O   0  0  0  0  0  0  0  0  0  0  0  0
    7.8768  -15.6719   22.8160 N   0  0  0  0  0  0  0  0  0  0  0  0
    6.7807  -14.9095   22.1737 C   0  0  0  0  0  0  0  0  0  0  0  0
    7.5224  -13.9390   21.2445 C   0  0  0  0  0  0  0  0  0  0  0  0
    9.0082  -14.2700   21.4414 C   0  0  0  0  0  0  0  0  0  0  0  0
    8.8243  -15.7809   21.7489 C   0  0  1  0  0  0  0  0  0  0  0  0
   10.0654  -16.4579   21.9188 C   0  0  0  0  0  0  0  0  0  0  0  0
   10.6647  -17.1485   21.1027 O   0  0  0  0  0  0  0  0  0  0  0  0
   10.7063  -16.3206   23.2098 N   0  0  0  0  0  0  0  0  0  0  0  0
   11.9773  -16.9161   23.4684 C   0  0  0  0  0  0  0  0  0  0  0  0
   13.0524  -15.9595   23.1166 C   0  0  0  0  0  0  0  0  0  0  0  0
   13.6609  -15.1092   24.0240 O   0  0  0  0  0  0  0  0  0  0  0  0
   13.4576  -15.8928   21.9315 O   0  0  0  0  0  0  0  0  0  0  0  0
  1  2  1  0
  3  2  1  0
  4  3  1  0
  5  4  1  0
  5  6  1  1
  7  8  2  0
  7  5  1  0
  9  7  1  0
 10  9  1  0
 11 12  1  0
 11 10  1  0
 12 13  1  0
 13  9  1  0
 14 15  2  0
 13 14  1  1
 16 14  1  0
 17 16  1  0
 18 17  1  0
 19 18  1  0
 20 18  2  0
M  END
$$$$
