MPG.pdb
     RDKit          3D

 20 20  0  0  1  0  0  0  0  0999 V2000
    7.0000  -12.0453   27.2796 C   0  0  0  0  0  0  0  0  0  0  0  0
    8.3380  -13.2082   27.5295 S   0  0  0  0  0  0  0  0  0  0  0  0
    8.4476  -14.4754   26.2837 C   0  0  0  0  0  0  0  0  0  0  0  0
    7.7223  -15.7384   26.5582 C   0  0  0  0  0  0  0  0  0  0  0  0
    7.0384  -16.3882   25.4062 C   0  0  2  0  0  0  0  0  0  0  0  0
    6.4440  -17.6167   25.7938 N   0  0  0  0  0  0  0  0  0  0  0  0
    7.8912  -16.4234   24.1957 C   0  0  0  0  0  0  0  0  0  0  0  0
    8.9362  -17.1570   24.3468 O   0  0  0  0  0  0  0  0  0  0  0  0
    7.6907  -15.7817   22.9783 N   0  0  0  0  0  0  0  0  0  0  0  0
    6.3644  -15.2507   22.5856 C   0  0  0  0  0  0  0  0  0  0  0  0
    6.7117  -13.9821   21.7947 C   0  0  0  0  0  0  0  0  0  0  0  0
    8.2456  -13.9279   21.7990 C   0  0  0  0  0  0  0  0  0  0  0  0
    8.4869  -15.4615   21.8329 C   0  0  1  0  0  0  0  0  0  0  0  0
    9.8691  -15.7977   21.7669 C   0  0  0  0  0  0  0  0  0  0  0  0
   10.5728  -15.8993   20.7687 O   0  0  0  0  0  0  0  0  0  0  0  0
   10.5342  -16.0528   23.0274 N   0  0  0  0  0  0  0  0  0  0  0  0
   11.9245  -15.7778   23.1957 C   0  0  0  0  0  0  0  0  0  0  0  0
   12.7144  -16.9722   22.8163 C   0  0  0  0  0  0  0  0  0  0  0  0
   12.4527  -18.2522   23.2743 O   0  0  0  0  0  0  0  0  0  0  0  0
   13.6864  -16.8479   22.0335 O   0  0  0  0  0  0  0  0  0  0  0  0
  1  2  1  0
  3  2  1  0
  4  3  1  0
  5  4  1  0
  5  6  1  1
  7  8  2  0
  7  5  1  0
  9  7  1  0
 10  9  1  0
 11 12  1  0
 11 10  1  0
 12 13  1  0
 13  9  1  0
 14 15  2  0
 13 14  1  1
 16 14  1  0
 17 16  1  0
 18 17  1  0
 19 18  1  0
 20 18  2  0
M  END
$$$$
