MPG.pdb
     RDKit          3D

 20 20  0  0  1  0  0  0  0  0999 V2000
    6.3460  -11.7558   27.7418 C   0  0  0  0  0  0  0  0  0  0  0  0
    6.4272  -12.1477   25.9968 S   0  0  0  0  0  0  0  0  0  0  0  0
    7.5449  -13.4747   25.5968 C   0  0  0  0  0  0  0  0  0  0  0  0
    7.2428  -14.7974   26.1932 C   0  0  0  0  0  0  0  0  0  0  0  0
    7.0078  -15.9254   25.2502 C   0  0  2  0  0  0  0  0  0  0  0  0
    6.7426  -17.1294   25.9521 N   0  0  0  0  0  0  0  0  0  0  0  0
    8.0417  -15.9955   24.1918 C   0  0  0  0  0  0  0  0  0  0  0  0
    9.1651  -16.4456   24.6257 O   0  0  0  0  0  0  0  0  0  0  0  0
    7.9307  -15.6452   22.8506 N   0  0  0  0  0  0  0  0  0  0  0  0
    6.6270  -15.2913   22.2422 C   0  0  0  0  0  0  0  0  0  0  0  0
    6.9960  -14.2054   21.2223 C   0  0  0  0  0  0  0  0  0  0  0  0
    8.5194  -14.0608   21.3413 C   0  0  0  0  0  0  0  0  0  0  0  0
    8.8173  -15.5336   21.7325 C   0  0  1  0  0  0  0  0  0  0  0  0
   10.2118  -15.7935   21.8568 C   0  0  0  0  0  0  0  0  0  0  0  0
   10.9934  -16.1460   20.9811 O   0  0  0  0  0  0  0  0  0  0  0  0
   10.7871  -15.6237   23.1746 N   0  0  0  0  0  0  0  0  0  0  0  0
   12.1863  -15.3994   23.3444 C   0  0  0  0  0  0  0  0  0  0  0  0
   12.8674  -16.6908   23.5953 C   0  0  0  0  0  0  0  0  0  0  0  0
   13.4692  -17.0296   24.7952 O   0  0  0  0  0  0  0  0  0  0  0  0
   12.9184  -17.5507   22.6836 O   0  0  0  0  0  0  0  0  0  0  0  0
  1  2  1  0
  3  2  1  0
  4  3  1  0
  5  4  1  0
  5  6  1  1
  7  8  2  0
  7  5  1  0
  9  7  1  0
 10  9  1  0
 11 12  1  0
 11 10  1  0
 12 13  1  0
 13  9  1  0
 14 15  2  0
 13 14  1  1
 16 14  1  0
 17 16  1  0
 18 17  1  0
 19 18  1  0
 20 18  2  0
M  END
$$$$
