IFC.pdb
     RDKit          3D

 26 26  0  0  1  0  0  0  0  0999 V2000
    8.6971  -20.4475   18.9399 C   0  0  0  0  0  0  0  0  0  0  0  0
    8.7506  -18.9440   18.8028 C   0  0  0  0  0  0  0  0  0  0  0  0
    8.9916  -18.2734   20.1373 C   0  0  2  0  0  0  0  0  0  0  0  0
    7.9711  -18.7500   21.1562 C   0  0  0  0  0  0  0  0  0  0  0  0
    9.0203  -16.7742   20.0409 C   0  0  2  0  0  0  0  0  0  0  0  0
   10.0944  -16.4171   19.1178 N   0  0  0  0  0  0  0  0  0  0  0  0
    9.2625  -16.1063   21.3400 C   0  0  0  0  0  0  0  0  0  0  0  0
   10.3584  -16.0702   21.9362 O   0  0  0  0  0  0  0  0  0  0  0  0
    8.1948  -15.4360   22.0071 N   0  0  0  0  0  0  0  0  0  0  0  0
    8.2939  -14.8113   23.3013 C   0  0  1  0  0  0  0  0  0  0  0  0
    7.2324  -13.8142   23.5658 C   0  0  0  0  0  0  0  0  0  0  0  0
    7.1328  -13.2326   24.9011 C   0  0  0  0  0  0  0  0  0  0  0  0
    6.1865  -13.6687   25.8027 C   0  0  0  0  0  0  0  0  0  0  0  0
    6.0883  -13.1675   27.0812 C   0  0  0  0  0  0  0  0  0  0  0  0
    6.9594  -12.1827   27.5160 C   0  0  0  0  0  0  0  0  0  0  0  0
    7.9040  -11.7355   26.6420 C   0  0  0  0  0  0  0  0  0  0  0  0
    8.0036  -12.2351   25.3644 C   0  0  0  0  0  0  0  0  0  0  0  0
    8.2834  -15.8991   24.3048 C   0  0  0  0  0  0  0  0  0  0  0  0
    7.2965  -16.6828   24.4284 O   0  0  0  0  0  0  0  0  0  0  0  0
    9.4082  -16.0736   25.1470 N   0  0  0  0  0  0  0  0  0  0  0  0
    9.5821  -17.1170   26.1089 C   0  0  1  0  0  0  0  0  0  0  0  0
   10.2033  -18.3724   25.6044 C   0  0  0  0  0  0  0  0  0  0  0  0
   11.9046  -18.1772   25.0813 S   0  0  0  0  0  0  0  0  0  0  0  0
   10.1807  -16.6524   27.3975 C   0  0  0  0  0  0  0  0  0  0  0  0
   10.5924  -15.4722   27.4776 O   0  0  0  0  0  0  0  0  0  0  0  0
   10.2977  -17.4722   28.4919 O   0  0  0  0  0  0  0  0  0  0  0  0
  2  1  1  0
  3  2  1  0
  3  4  1  1
  5  3  1  0
  5  6  1  6
  7  8  2  0
  7  5  1  0
  9  7  1  0
 10 11  1  1
 10  9  1  0
 11 12  1  0
 12 17  2  0
 12 13  1  0
 13 14  2  0
 14 15  1  0
 16 15  2  0
 17 16  1  0
 18 10  1  0
 19 18  2  0
 20 18  1  0
 21 22  1  6
 21 20  1  0
 22 23  1  0
 24 26  1  0
 24 21  1  0
 25 24  2  0
M  END
$$$$
