IFC.pdb
     RDKit          3D

 26 26  0  0  1  0  0  0  0  0999 V2000
    8.8126  -20.5072   18.9982 C   0  0  0  0  0  0  0  0  0  0  0  0
    8.8217  -19.0066   18.8242 C   0  0  0  0  0  0  0  0  0  0  0  0
    9.0105  -18.2958   20.1463 C   0  0  2  0  0  0  0  0  0  0  0  0
    7.9956  -18.7946   21.1601 C   0  0  0  0  0  0  0  0  0  0  0  0
    8.9740  -16.7994   20.0154 C   0  0  2  0  0  0  0  0  0  0  0  0
   10.0117  -16.4198   19.0602 N   0  0  0  0  0  0  0  0  0  0  0  0
    9.2163  -16.0916   21.2933 C   0  0  0  0  0  0  0  0  0  0  0  0
   10.3261  -15.9785   21.8529 O   0  0  0  0  0  0  0  0  0  0  0  0
    8.1317  -15.4720   21.9819 N   0  0  0  0  0  0  0  0  0  0  0  0
    8.2351  -14.8095   23.2568 C   0  0  1  0  0  0  0  0  0  0  0  0
    7.2160  -13.7568   23.4669 C   0  0  0  0  0  0  0  0  0  0  0  0
    7.0943  -13.1520   24.7900 C   0  0  0  0  0  0  0  0  0  0  0  0
    6.1361  -13.5755   25.6850 C   0  0  0  0  0  0  0  0  0  0  0  0
    6.0169  -13.0521   26.9528 C   0  0  0  0  0  0  0  0  0  0  0  0
    6.8780  -12.0564   27.3830 C   0  0  0  0  0  0  0  0  0  0  0  0
    7.8340  -11.6212   26.5154 C   0  0  0  0  0  0  0  0  0  0  0  0
    7.9546  -12.1430   25.2484 C   0  0  0  0  0  0  0  0  0  0  0  0
    8.1555  -15.8614   24.2948 C   0  0  0  0  0  0  0  0  0  0  0  0
    7.3571  -16.8391   24.1935 O   0  0  0  0  0  0  0  0  0  0  0  0
    8.9973  -15.7775   25.4302 N   0  0  0  0  0  0  0  0  0  0  0  0
    9.6610  -16.8730   26.0653 C   0  0  1  0  0  0  0  0  0  0  0  0
   10.4785  -17.7441   25.1768 C   0  0  0  0  0  0  0  0  0  0  0  0
   10.5180  -19.4605   25.6853 S   0  0  0  0  0  0  0  0  0  0  0  0
   10.3763  -16.4951   27.3224 C   0  0  0  0  0  0  0  0  0  0  0  0
   10.5192  -15.2798   27.5898 O   0  0  0  0  0  0  0  0  0  0  0  0
   10.8832  -17.4300   28.1897 O   0  0  0  0  0  0  0  0  0  0  0  0
  2  1  1  0
  3  2  1  0
  3  4  1  1
  5  3  1  0
  5  6  1  6
  7  8  2  0
  7  5  1  0
  9  7  1  0
 10 11  1  1
 10  9  1  0
 11 12  1  0
 12 17  2  0
 12 13  1  0
 13 14  2  0
 14 15  1  0
 16 15  2  0
 17 16  1  0
 18 10  1  0
 19 18  2  0
 20 18  1  0
 21 22  1  6
 21 20  1  0
 22 23  1  0
 24 26  1  0
 24 21  1  0
 25 24  2  0
M  END
$$$$
