IFC.pdb
     RDKit          3D

 26 26  0  0  1  0  0  0  0  0999 V2000
    7.1812  -23.3109   22.6382 C   0  0  0  0  0  0  0  0  0  0  0  0
    6.1720  -22.3638   23.2437 C   0  0  0  0  0  0  0  0  0  0  0  0
    6.6155  -20.9232   23.1140 C   0  0  2  0  0  0  0  0  0  0  0  0
    7.9812  -20.7350   23.7513 C   0  0  0  0  0  0  0  0  0  0  0  0
    5.6094  -19.9507   23.6614 C   0  0  2  0  0  0  0  0  0  0  0  0
    4.4123  -20.0476   22.8302 N   0  0  0  0  0  0  0  0  0  0  0  0
    6.0846  -18.5483   23.6564 C   0  0  0  0  0  0  0  0  0  0  0  0
    6.0526  -17.7822   22.6717 O   0  0  0  0  0  0  0  0  0  0  0  0
    6.6314  -17.9766   24.8432 N   0  0  0  0  0  0  0  0  0  0  0  0
    7.1260  -16.6285   24.9570 C   0  0  1  0  0  0  0  0  0  0  0  0
    6.6047  -15.8986   26.1344 C   0  0  0  0  0  0  0  0  0  0  0  0
    7.0018  -14.5075   26.3302 C   0  0  0  0  0  0  0  0  0  0  0  0
    8.1312  -14.1801   27.0485 C   0  0  0  0  0  0  0  0  0  0  0  0
    8.5539  -12.8813   27.2218 C   0  0  0  0  0  0  0  0  0  0  0  0
    7.8402  -11.8327   26.6661 C   0  0  0  0  0  0  0  0  0  0  0  0
    6.7197  -12.1318   25.9513 C   0  0  0  0  0  0  0  0  0  0  0  0
    6.2959  -13.4287   25.7770 C   0  0  0  0  0  0  0  0  0  0  0  0
    8.6035  -16.7138   24.9777 C   0  0  0  0  0  0  0  0  0  0  0  0
    9.2160  -17.4806   25.7780 O   0  0  0  0  0  0  0  0  0  0  0  0
    9.3544  -15.9216   24.0758 N   0  0  0  0  0  0  0  0  0  0  0  0
   10.7644  -16.0090   23.8560 C   0  0  1  0  0  0  0  0  0  0  0  0
   11.2600  -15.4488   22.5687 C   0  0  0  0  0  0  0  0  0  0  0  0
   10.1621  -15.7387   21.1843 S   0  0  0  0  0  0  0  0  0  0  0  0
   11.5833  -15.5756   25.0291 C   0  0  0  0  0  0  0  0  0  0  0  0
   12.8271  -15.7149   24.9777 O   0  0  0  0  0  0  0  0  0  0  0  0
   11.0218  -15.0349   26.1586 O   0  0  0  0  0  0  0  0  0  0  0  0
  2  1  1  0
  3  2  1  0
  3  4  1  1
  5  3  1  0
  5  6  1  6
  7  8  2  0
  7  5  1  0
  9  7  1  0
 10 11  1  1
 10  9  1  0
 11 12  1  0
 12 17  2  0
 12 13  1  0
 13 14  2  0
 14 15  1  0
 16 15  2  0
 17 16  1  0
 18 10  1  0
 19 18  2  0
 20 18  1  0
 21 22  1  6
 21 20  1  0
 22 23  1  0
 24 26  1  0
 24 21  1  0
 25 24  2  0
M  END
$$$$
