IFC.pdb
     RDKit          3D

 26 26  0  0  1  0  0  0  0  0999 V2000
   11.8650  -20.4681   20.3305 C   0  0  0  0  0  0  0  0  0  0  0  0
   10.7066  -19.5289   20.0895 C   0  0  0  0  0  0  0  0  0  0  0  0
   10.6311  -18.4564   21.1538 C   0  0  2  0  0  0  0  0  0  0  0  0
   10.5270  -19.0894   22.5305 C   0  0  0  0  0  0  0  0  0  0  0  0
    9.5237  -17.4702   20.9119 C   0  0  2  0  0  0  0  0  0  0  0  0
    9.6372  -17.0180   19.5277 N   0  0  0  0  0  0  0  0  0  0  0  0
    9.5796  -16.2923   21.8074 C   0  0  0  0  0  0  0  0  0  0  0  0
   10.4206  -15.3731   21.7341 O   0  0  0  0  0  0  0  0  0  0  0  0
    8.6211  -16.1459   22.8534 N   0  0  0  0  0  0  0  0  0  0  0  0
    8.5334  -15.0131   23.7390 C   0  0  1  0  0  0  0  0  0  0  0  0
    7.1510  -14.5310   23.9564 C   0  0  0  0  0  0  0  0  0  0  0  0
    6.9135  -13.5201   24.9826 C   0  0  0  0  0  0  0  0  0  0  0  0
    7.4854  -12.2692   24.9008 C   0  0  0  0  0  0  0  0  0  0  0  0
    7.2541  -11.2814   25.8315 C   0  0  0  0  0  0  0  0  0  0  0  0
    6.4173  -11.5172   26.9094 C   0  0  0  0  0  0  0  0  0  0  0  0
    5.8400  -12.7470   27.0117 C   0  0  0  0  0  0  0  0  0  0  0  0
    6.0700  -13.7350   26.0828 C   0  0  0  0  0  0  0  0  0  0  0  0
    9.1792  -15.4109   25.0099 C   0  0  0  0  0  0  0  0  0  0  0  0
    9.4105  -14.5733   25.9310 O   0  0  0  0  0  0  0  0  0  0  0  0
    9.5443  -16.7649   25.2058 N   0  0  0  0  0  0  0  0  0  0  0  0
   10.1963  -17.2993   26.3605 C   0  0  1  0  0  0  0  0  0  0  0  0
    9.3233  -17.5705   27.5355 C   0  0  0  0  0  0  0  0  0  0  0  0
    8.0615  -18.8034   27.2290 S   0  0  0  0  0  0  0  0  0  0  0  0
   11.1252  -18.4303   26.0563 C   0  0  0  0  0  0  0  0  0  0  0  0
   11.1072  -18.9301   24.9079 O   0  0  0  0  0  0  0  0  0  0  0  0
   11.9923  -18.9413   26.9894 O   0  0  0  0  0  0  0  0  0  0  0  0
  2  1  1  0
  3  2  1  0
  3  4  1  1
  5  3  1  0
  5  6  1  6
  7  8  2  0
  7  5  1  0
  9  7  1  0
 10 11  1  1
 10  9  1  0
 11 12  1  0
 12 17  2  0
 12 13  1  0
 13 14  2  0
 14 15  1  0
 16 15  2  0
 17 16  1  0
 18 10  1  0
 19 18  2  0
 20 18  1  0
 21 22  1  1
 21 20  1  0
 22 23  1  0
 24 26  1  0
 24 21  1  0
 25 24  2  0
M  END
$$$$
