IFC.pdb
     RDKit          3D

 26 26  0  0  1  0  0  0  0  0999 V2000
    8.3862  -18.2087   18.3353 C   0  0  0  0  0  0  0  0  0  0  0  0
    9.1613  -18.8731   19.4488 C   0  0  0  0  0  0  0  0  0  0  0  0
   10.3232  -18.0174   19.9033 C   0  0  2  0  0  0  0  0  0  0  0  0
   11.6068  -18.4766   19.2337 C   0  0  0  0  0  0  0  0  0  0  0  0
   10.4641  -17.9700   21.3984 C   0  0  2  0  0  0  0  0  0  0  0  0
    9.5002  -18.9144   21.9574 N   0  0  0  0  0  0  0  0  0  0  0  0
   10.2083  -16.6285   21.9706 C   0  0  0  0  0  0  0  0  0  0  0  0
   10.8535  -15.5957   21.6974 O   0  0  0  0  0  0  0  0  0  0  0  0
    9.1536  -16.4447   22.9130 N   0  0  0  0  0  0  0  0  0  0  0  0
    8.9044  -15.2294   23.6452 C   0  0  1  0  0  0  0  0  0  0  0  0
    7.5376  -15.1400   24.2063 C   0  0  0  0  0  0  0  0  0  0  0  0
    7.1814  -13.9702   25.0036 C   0  0  0  0  0  0  0  0  0  0  0  0
    6.3378  -14.0732   26.0881 C   0  0  0  0  0  0  0  0  0  0  0  0
    6.0099  -12.9976   26.8825 C   0  0  0  0  0  0  0  0  0  0  0  0
    6.5301  -11.7430   26.6117 C   0  0  0  0  0  0  0  0  0  0  0  0
    7.3670  -11.6164   25.5442 C   0  0  0  0  0  0  0  0  0  0  0  0
    7.6957  -12.6899   24.7496 C   0  0  0  0  0  0  0  0  0  0  0  0
    9.9356  -15.1469   24.7037 C   0  0  0  0  0  0  0  0  0  0  0  0
   10.8984  -14.3273   24.6342 O   0  0  0  0  0  0  0  0  0  0  0  0
    9.8425  -16.0028   25.8278 N   0  0  0  0  0  0  0  0  0  0  0  0
   10.6805  -15.9613   26.9854 C   0  0  1  0  0  0  0  0  0  0  0  0
   10.8416  -14.6274   27.6267 C   0  0  0  0  0  0  0  0  0  0  0  0
    9.6155  -14.2773   28.8838 S   0  0  0  0  0  0  0  0  0  0  0  0
   10.3958  -17.0473   27.9724 C   0  0  0  0  0  0  0  0  0  0  0  0
   11.1271  -17.1459   28.9845 O   0  0  0  0  0  0  0  0  0  0  0  0
    9.3661  -17.9396   27.8076 O   0  0  0  0  0  0  0  0  0  0  0  0
  2  1  1  0
  3  2  1  0
  3  4  1  6
  5  3  1  0
  5  6  1  1
  7  8  2  0
  7  5  1  0
  9  7  1  0
 10 11  1  1
 10  9  1  0
 11 12  1  0
 12 17  2  0
 12 13  1  0
 13 14  2  0
 14 15  1  0
 16 15  2  0
 17 16  1  0
 18 10  1  0
 19 18  2  0
 20 18  1  0
 21 22  1  1
 21 20  1  0
 22 23  1  0
 24 26  1  0
 24 21  1  0
 25 24  2  0
M  END
$$$$
