IFC.pdb
     RDKit          3D

 26 26  0  0  1  0  0  0  0  0999 V2000
    7.3769  -13.4836   17.0732 C   0  0  0  0  0  0  0  0  0  0  0  0
    8.0873  -14.6281   17.7570 C   0  0  0  0  0  0  0  0  0  0  0  0
    8.4589  -14.2789   19.1814 C   0  0  2  0  0  0  0  0  0  0  0  0
    9.4297  -13.1110   19.1994 C   0  0  0  0  0  0  0  0  0  0  0  0
    8.9911  -15.4543   19.9512 C   0  0  2  0  0  0  0  0  0  0  0  0
    7.9909  -16.5158   19.8730 N   0  0  0  0  0  0  0  0  0  0  0  0
    9.2588  -15.1515   21.3757 C   0  0  0  0  0  0  0  0  0  0  0  0
   10.3419  -14.7287   21.8293 O   0  0  0  0  0  0  0  0  0  0  0  0
    8.2336  -15.3397   22.3493 N   0  0  0  0  0  0  0  0  0  0  0  0
    8.3022  -14.8907   23.7163 C   0  0  1  0  0  0  0  0  0  0  0  0
    7.2681  -13.8923   24.0694 C   0  0  0  0  0  0  0  0  0  0  0  0
    7.2377  -13.3646   25.4303 C   0  0  0  0  0  0  0  0  0  0  0  0
    6.1524  -13.5710   26.2537 C   0  0  0  0  0  0  0  0  0  0  0  0
    6.1058  -13.1185   27.5532 C   0  0  0  0  0  0  0  0  0  0  0  0
    7.1756  -12.4227   28.0909 C   0  0  0  0  0  0  0  0  0  0  0  0
    8.2603  -12.2063   27.2956 C   0  0  0  0  0  0  0  0  0  0  0  0
    8.3086  -12.6576   25.9972 C   0  0  0  0  0  0  0  0  0  0  0  0
    8.2105  -16.0968   24.5693 C   0  0  0  0  0  0  0  0  0  0  0  0
    7.2820  -16.9458   24.4259 O   0  0  0  0  0  0  0  0  0  0  0  0
    9.1890  -16.3121   25.5698 N   0  0  0  0  0  0  0  0  0  0  0  0
    9.6769  -17.5831   26.0063 C   0  0  1  0  0  0  0  0  0  0  0  0
    9.9938  -18.5641   24.9323 C   0  0  0  0  0  0  0  0  0  0  0  0
   11.3656  -18.0765   23.8901 S   0  0  0  0  0  0  0  0  0  0  0  0
   10.7516  -17.4909   27.0413 C   0  0  0  0  0  0  0  0  0  0  0  0
   11.8905  -17.1042   26.6916 O   0  0  0  0  0  0  0  0  0  0  0  0
   10.5359  -17.8171   28.3568 O   0  0  0  0  0  0  0  0  0  0  0  0
  2  1  1  0
  3  2  1  0
  3  4  1  6
  5  3  1  0
  5  6  1  1
  7  8  2  0
  7  5  1  0
  9  7  1  0
 10 11  1  1
 10  9  1  0
 11 12  1  0
 12 17  2  0
 12 13  1  0
 13 14  2  0
 14 15  1  0
 16 15  2  0
 17 16  1  0
 18 10  1  0
 19 18  2  0
 20 18  1  0
 21 22  1  6
 21 20  1  0
 22 23  1  0
 24 26  1  0
 24 21  1  0
 25 24  2  0
M  END
$$$$
