QST.pdb
     RDKit          3D

 23 22  0  0  1  0  0  0  0  0999 V2000
    6.4812  -17.9655   18.2162 N   0  0  0  0  0  0  0  0  0  0  0  0
    7.5362  -18.6646   17.5706 C   0  0  0  0  0  0  0  0  0  0  0  0
    7.3173  -19.1484   16.4448 O   0  0  0  0  0  0  0  0  0  0  0  0
    8.8351  -18.8069   18.2244 C   0  0  0  0  0  0  0  0  0  0  0  0
    8.9902  -18.1562   19.5645 C   0  0  0  0  0  0  0  0  0  0  0  0
   10.0068  -17.0776   19.5989 C   0  0  2  0  0  0  0  0  0  0  0  0
   11.0503  -17.2537   18.6591 N   0  0  0  0  0  0  0  0  0  0  0  0
   10.6159  -16.9023   20.9467 C   0  0  0  0  0  0  0  0  0  0  0  0
   11.7848  -17.2935   21.1952 O   0  0  0  0  0  0  0  0  0  0  0  0
    8.1972  -15.7033   24.0719 O   0  0  0  0  0  0  0  0  0  0  0  0
    9.5328  -15.3192   24.1695 C   0  0  0  0  0  0  0  0  0  0  0  0
   10.4169  -16.2854   23.3687 C   0  0  2  0  0  0  0  0  0  0  0  0
    9.9134  -16.2849   22.0258 N   0  0  0  0  0  0  0  0  0  0  0  0
   10.3241  -17.5912   24.0333 C   0  0  0  0  0  0  0  0  0  0  0  0
    9.6989  -18.5849   23.5898 O   0  0  0  0  0  0  0  0  0  0  0  0
   11.4889  -20.2075   23.7814 C   0  0  0  0  0  0  0  0  0  0  0  0
   12.0097  -19.9537   25.1643 C   0  0  1  0  0  0  0  0  0  0  0  0
   13.2369  -19.3013   25.0376 O   0  0  0  0  0  0  0  0  0  0  0  0
   11.0843  -19.0251   25.9502 C   0  0  2  0  0  0  0  0  0  0  0  0
   10.9946  -17.7465   25.2789 N   0  0  0  0  0  0  0  0  0  0  0  0
   11.7210  -18.8156   27.2677 C   0  0  0  0  0  0  0  0  0  0  0  0
   11.7240  -19.8276   28.2090 O   0  0  0  0  0  0  0  0  0  0  0  0
   12.2536  -17.7197   27.5197 O   0  0  0  0  0  0  0  0  0  0  0  0
  2  1  1  0
  2  3  2  0
  4  2  1  0
  5  4  1  0
  6  5  1  0
  6  7  1  6
  8  6  1  0
  8 13  1  0
  9  8  2  0
 10 11  1  0
 12 11  1  1
 12 13  1  0
 12 14  1  0
 14 15  2  0
 14 20  1  0
 17 16  1  6
 17 18  1  0
 19 21  1  0
 19 17  1  0
 19 20  1  6
 21 22  1  0
 23 21  2  0
M  END
$$$$
