QST.pdb
     RDKit          3D

 23 22  0  0  1  0  0  0  0  0999 V2000
    8.3106  -12.9500   16.5736 N   0  0  0  0  0  0  0  0  0  0  0  0
    7.8427  -14.2679   16.8240 C   0  0  0  0  0  0  0  0  0  0  0  0
    7.0414  -14.7701   16.0147 O   0  0  0  0  0  0  0  0  0  0  0  0
    8.2953  -14.9991   18.0052 C   0  0  0  0  0  0  0  0  0  0  0  0
    9.1995  -14.2651   18.9470 C   0  0  0  0  0  0  0  0  0  0  0  0
    9.5954  -15.0503   20.1407 C   0  0  2  0  0  0  0  0  0  0  0  0
    9.6468  -16.4455   19.9083 N   0  0  0  0  0  0  0  0  0  0  0  0
    8.7099  -14.8037   21.3126 C   0  0  0  0  0  0  0  0  0  0  0  0
    8.4386  -13.6377   21.6971 O   0  0  0  0  0  0  0  0  0  0  0  0
    8.0045  -17.6721   24.2556 O   0  0  0  0  0  0  0  0  0  0  0  0
    6.8879  -17.0131   23.7459 C   0  0  0  0  0  0  0  0  0  0  0  0
    7.2927  -15.6339   23.2070 C   0  0  2  0  0  0  0  0  0  0  0  0
    8.1228  -15.8687   22.0612 N   0  0  0  0  0  0  0  0  0  0  0  0
    7.9810  -14.9388   24.3018 C   0  0  0  0  0  0  0  0  0  0  0  0
    9.2259  -14.8711   24.4453 O   0  0  0  0  0  0  0  0  0  0  0  0
    6.2347  -11.5136   26.0362 C   0  0  0  0  0  0  0  0  0  0  0  0
    6.6630  -12.6112   26.9637 C   0  0  1  0  0  0  0  0  0  0  0  0
    5.5548  -13.4299   27.1851 O   0  0  0  0  0  0  0  0  0  0  0  0
    7.7499  -13.4834   26.3357 C   0  0  2  0  0  0  0  0  0  0  0  0
    7.1765  -14.2891   25.2795 N   0  0  0  0  0  0  0  0  0  0  0  0
    8.2302  -14.3872   27.4023 C   0  0  0  0  0  0  0  0  0  0  0  0
    8.9011  -13.8775   28.4978 O   0  0  0  0  0  0  0  0  0  0  0  0
    8.0241  -15.6103   27.3031 O   0  0  0  0  0  0  0  0  0  0  0  0
  2  1  1  0
  2  3  2  0
  4  2  1  0
  5  4  1  0
  6  5  1  0
  6  7  1  6
  8  6  1  0
  8 13  1  0
  9  8  2  0
 10 11  1  0
 12 11  1  1
 12 13  1  0
 12 14  1  0
 14 15  2  0
 14 20  1  0
 17 16  1  6
 17 18  1  0
 19 21  1  0
 19 17  1  0
 19 20  1  6
 21 22  1  0
 23 21  2  0
M  END
$$$$
