QST.pdb
     RDKit          3D

 23 22  0  0  1  0  0  0  0  0999 V2000
    7.9295  -12.9491   16.5772 N   0  0  0  0  0  0  0  0  0  0  0  0
    8.0778  -14.3592   16.4867 C   0  0  0  0  0  0  0  0  0  0  0  0
    7.9290  -14.8949   15.3730 O   0  0  0  0  0  0  0  0  0  0  0  0
    8.3920  -15.1455   17.6774 C   0  0  0  0  0  0  0  0  0  0  0  0
    8.4752  -14.4010   18.9744 C   0  0  0  0  0  0  0  0  0  0  0  0
    9.0271  -15.1990   20.0954 C   0  0  2  0  0  0  0  0  0  0  0  0
    9.1593  -16.5764   19.7978 N   0  0  0  0  0  0  0  0  0  0  0  0
    8.2293  -15.0652   21.3459 C   0  0  0  0  0  0  0  0  0  0  0  0
    7.8750  -13.9403   21.7819 O   0  0  0  0  0  0  0  0  0  0  0  0
    8.2647  -17.8696   24.4501 O   0  0  0  0  0  0  0  0  0  0  0  0
    7.0220  -17.4772   23.9576 C   0  0  0  0  0  0  0  0  0  0  0  0
    7.1165  -16.0679   23.3566 C   0  0  2  0  0  0  0  0  0  0  0  0
    7.8239  -16.1976   22.1157 N   0  0  0  0  0  0  0  0  0  0  0  0
    7.8090  -15.2330   24.3461 C   0  0  0  0  0  0  0  0  0  0  0  0
    9.0377  -14.9777   24.3431 O   0  0  0  0  0  0  0  0  0  0  0  0
    6.9623  -11.7994   27.8317 C   0  0  0  0  0  0  0  0  0  0  0  0
    6.4382  -12.8760   26.9292 C   0  0  1  0  0  0  0  0  0  0  0  0
    5.7720  -12.2516   25.8738 O   0  0  0  0  0  0  0  0  0  0  0  0
    7.5732  -13.7000   26.3216 C   0  0  2  0  0  0  0  0  0  0  0  0
    7.0287  -14.6667   25.3929 N   0  0  0  0  0  0  0  0  0  0  0  0
    8.2043  -14.4327   27.4397 C   0  0  0  0  0  0  0  0  0  0  0  0
    8.1083  -15.8095   27.5128 O   0  0  0  0  0  0  0  0  0  0  0  0
    8.8221  -13.7973   28.3131 O   0  0  0  0  0  0  0  0  0  0  0  0
  2  1  1  0
  2  3  2  0
  4  2  1  0
  5  4  1  0
  6  5  1  0
  6  7  1  6
  8  6  1  0
  8 13  1  0
  9  8  2  0
 10 11  1  0
 12 11  1  1
 12 13  1  0
 12 14  1  0
 14 15  2  0
 14 20  1  0
 17 16  1  1
 17 18  1  0
 19 21  1  0
 19 17  1  0
 19 20  1  6
 21 22  1  0
 23 21  2  0
M  END
$$$$
