QST.pdb
     RDKit          3D

 23 22  0  0  1  0  0  0  0  0999 V2000
   17.8181  -18.9593   15.6599 N   0  0  0  0  0  0  0  0  0  0  0  0
   18.1430  -17.6031   15.3890 C   0  0  0  0  0  0  0  0  0  0  0  0
   19.3381  -17.3127   15.1971 O   0  0  0  0  0  0  0  0  0  0  0  0
   17.0931  -16.5880   15.3443 C   0  0  0  0  0  0  0  0  0  0  0  0
   15.6858  -17.0649   15.5325 C   0  0  0  0  0  0  0  0  0  0  0  0
   14.6659  -15.9934   15.4347 C   0  0  2  0  0  0  0  0  0  0  0  0
   14.9919  -14.9865   14.4949 N   0  0  0  0  0  0  0  0  0  0  0  0
   14.3895  -15.3392   16.7439 C   0  0  0  0  0  0  0  0  0  0  0  0
   14.7405  -14.1538   16.9729 O   0  0  0  0  0  0  0  0  0  0  0  0
   12.4459  -17.4481   19.7914 O   0  0  0  0  0  0  0  0  0  0  0  0
   12.3165  -16.0621   19.7331 C   0  0  0  0  0  0  0  0  0  0  0  0
   13.5770  -15.4427   19.1136 C   0  0  2  0  0  0  0  0  0  0  0  0
   13.7152  -16.0151   17.8058 N   0  0  0  0  0  0  0  0  0  0  0  0
   14.6902  -15.7593   20.0170 C   0  0  0  0  0  0  0  0  0  0  0  0
   15.5487  -16.6533   19.8203 O   0  0  0  0  0  0  0  0  0  0  0  0
   17.4048  -13.9780   23.7382 C   0  0  0  0  0  0  0  0  0  0  0  0
   16.3733  -13.8256   22.6608 C   0  0  1  0  0  0  0  0  0  0  0  0
   16.9777  -13.1627   21.5917 O   0  0  0  0  0  0  0  0  0  0  0  0
   15.9011  -15.1831   22.1408 C   0  0  2  0  0  0  0  0  0  0  0  0
   14.8086  -14.9942   21.2111 N   0  0  0  0  0  0  0  0  0  0  0  0
   15.3921  -15.9269   23.3125 C   0  0  0  0  0  0  0  0  0  0  0  0
   16.2492  -16.6984   24.0743 O   0  0  0  0  0  0  0  0  0  0  0  0
   14.1851  -15.8509   23.6051 O   0  0  0  0  0  0  0  0  0  0  0  0
  2  1  1  0
  2  3  2  0
  4  2  1  0
  5  4  1  0
  6  5  1  0
  6  7  1  6
  8  6  1  0
  8 13  1  0
  9  8  2  0
 10 11  1  0
 12 11  1  1
 12 13  1  0
 12 14  1  0
 14 15  2  0
 14 20  1  0
 17 16  1  1
 17 18  1  0
 19 21  1  0
 19 17  1  0
 19 20  1  6
 21 22  1  0
 23 21  2  0
M  END
$$$$
