QST.pdb
     RDKit          3D

 23 22  0  0  1  0  0  0  0  0999 V2000
    8.7328  -17.7450   17.3536 N   0  0  0  0  0  0  0  0  0  0  0  0
    8.1616  -16.8364   16.4227 C   0  0  0  0  0  0  0  0  0  0  0  0
    7.6212  -17.3028   15.4030 O   0  0  0  0  0  0  0  0  0  0  0  0
    8.2186  -15.3970   16.6672 C   0  0  0  0  0  0  0  0  0  0  0  0
    8.9298  -14.9515   17.9078 C   0  0  0  0  0  0  0  0  0  0  0  0
    8.1831  -13.9504   18.7065 C   0  0  2  0  0  0  0  0  0  0  0  0
    8.1994  -12.6517   18.1438 N   0  0  0  0  0  0  0  0  0  0  0  0
    8.6668  -13.8571   20.1121 C   0  0  0  0  0  0  0  0  0  0  0  0
    9.6480  -13.1347   20.4225 O   0  0  0  0  0  0  0  0  0  0  0  0
    6.5070  -15.2850   23.2940 O   0  0  0  0  0  0  0  0  0  0  0  0
    7.6343  -14.4993   23.5237 C   0  0  0  0  0  0  0  0  0  0  0  0
    8.6930  -14.7722   22.4462 C   0  0  2  0  0  0  0  0  0  0  0  0
    8.0492  -14.5770   21.1796 N   0  0  0  0  0  0  0  0  0  0  0  0
    9.1692  -16.1444   22.6608 C   0  0  0  0  0  0  0  0  0  0  0  0
    8.7168  -17.1644   22.0866 O   0  0  0  0  0  0  0  0  0  0  0  0
   12.3440  -17.6732   21.9898 C   0  0  0  0  0  0  0  0  0  0  0  0
   12.2042  -17.7493   23.4807 C   0  0  1  0  0  0  0  0  0  0  0  0
   12.8676  -16.6469   24.0213 O   0  0  0  0  0  0  0  0  0  0  0  0
   10.7412  -17.6515   23.9123 C   0  0  2  0  0  0  0  0  0  0  0  0
   10.2272  -16.3372   23.5929 N   0  0  0  0  0  0  0  0  0  0  0  0
   10.7259  -17.8130   25.3816 C   0  0  0  0  0  0  0  0  0  0  0  0
   10.9644  -19.0504   25.9491 O   0  0  0  0  0  0  0  0  0  0  0  0
   10.4963  -16.8240   26.1010 O   0  0  0  0  0  0  0  0  0  0  0  0
  2  1  1  0
  2  3  2  0
  4  2  1  0
  5  4  1  0
  6  5  1  0
  6  7  1  6
  8  6  1  0
  8 13  1  0
  9  8  2  0
 10 11  1  0
 12 11  1  1
 12 13  1  0
 12 14  1  0
 14 15  2  0
 14 20  1  0
 17 16  1  6
 17 18  1  0
 19 21  1  0
 19 17  1  0
 19 20  1  1
 21 22  1  0
 23 21  2  0
M  END
$$$$
