QST.pdb
     RDKit          3D

 23 22  0  0  1  0  0  0  0  0999 V2000
   10.6926  -15.0849   13.8889 N   0  0  0  0  0  0  0  0  0  0  0  0
   10.2746  -16.4290   13.6965 C   0  0  0  0  0  0  0  0  0  0  0  0
    9.8195  -16.7487   12.5829 O   0  0  0  0  0  0  0  0  0  0  0  0
   10.3783  -17.3966   14.7864 C   0  0  0  0  0  0  0  0  0  0  0  0
   11.7318  -17.9868   15.0375 C   0  0  0  0  0  0  0  0  0  0  0  0
   11.7401  -19.0733   16.0462 C   0  0  2  0  0  0  0  0  0  0  0  0
   10.6229  -19.9375   15.9558 N   0  0  0  0  0  0  0  0  0  0  0  0
   11.8248  -18.5627   17.4428 C   0  0  0  0  0  0  0  0  0  0  0  0
   12.8628  -17.9998   17.8746 O   0  0  0  0  0  0  0  0  0  0  0  0
    8.6795  -19.1488   20.2333 O   0  0  0  0  0  0  0  0  0  0  0  0
    9.3914  -17.9521   20.1865 C   0  0  0  0  0  0  0  0  0  0  0  0
   10.8293  -18.2146   19.7174 C   0  0  2  0  0  0  0  0  0  0  0  0
   10.7406  -18.6822   18.3645 N   0  0  0  0  0  0  0  0  0  0  0  0
   11.4028  -19.1974   20.6452 C   0  0  0  0  0  0  0  0  0  0  0  0
   11.6919  -20.3833   20.3538 O   0  0  0  0  0  0  0  0  0  0  0  0
   14.2601  -20.1856   24.2976 C   0  0  0  0  0  0  0  0  0  0  0  0
   13.6884  -19.3987   23.1566 C   0  0  1  0  0  0  0  0  0  0  0  0
   14.3240  -19.8278   21.9906 O   0  0  0  0  0  0  0  0  0  0  0  0
   12.1943  -19.6698   22.9816 C   0  0  2  0  0  0  0  0  0  0  0  0
   11.6521  -18.7758   21.9814 N   0  0  0  0  0  0  0  0  0  0  0  0
   11.5571  -19.3586   24.2787 C   0  0  0  0  0  0  0  0  0  0  0  0
   11.3624  -20.3552   25.2162 O   0  0  0  0  0  0  0  0  0  0  0  0
   11.1985  -18.1912   24.5169 O   0  0  0  0  0  0  0  0  0  0  0  0
  2  1  1  0
  2  3  2  0
  4  2  1  0
  5  4  1  0
  6  5  1  0
  6  7  1  1
  8  6  1  0
  8 13  1  0
  9  8  2  0
 10 11  1  0
 12 11  1  1
 12 13  1  0
 12 14  1  0
 14 15  2  0
 14 20  1  0
 17 16  1  1
 17 18  1  0
 19 21  1  0
 19 17  1  0
 19 20  1  6
 21 22  1  0
 23 21  2  0
M  END
$$$$
