QST.pdb
     RDKit          3D

 23 22  0  0  1  0  0  0  0  0999 V2000
    7.7798  -12.7147   15.7581 N   0  0  0  0  0  0  0  0  0  0  0  0
    8.4221  -13.9636   15.9731 C   0  0  0  0  0  0  0  0  0  0  0  0
    9.5596  -14.1287   15.4954 O   0  0  0  0  0  0  0  0  0  0  0  0
    7.7515  -15.0167   16.7321 C   0  0  0  0  0  0  0  0  0  0  0  0
    7.6834  -14.8380   18.2176 C   0  0  0  0  0  0  0  0  0  0  0  0
    8.0856  -16.0378   18.9901 C   0  0  2  0  0  0  0  0  0  0  0  0
    6.9918  -16.8260   19.4210 N   0  0  0  0  0  0  0  0  0  0  0  0
    8.9195  -15.7056   20.1786 C   0  0  0  0  0  0  0  0  0  0  0  0
   10.1617  -15.5359   20.0827 O   0  0  0  0  0  0  0  0  0  0  0  0
    7.2832  -15.9914   24.0021 O   0  0  0  0  0  0  0  0  0  0  0  0
    8.2303  -14.9911   23.7937 C   0  0  0  0  0  0  0  0  0  0  0  0
    9.1758  -15.3927   22.6530 C   0  0  2  0  0  0  0  0  0  0  0  0
    8.3609  -15.5617   21.4849 N   0  0  0  0  0  0  0  0  0  0  0  0
    9.8553  -16.6217   23.0813 C   0  0  0  0  0  0  0  0  0  0  0  0
    9.5938  -17.7755   22.6627 O   0  0  0  0  0  0  0  0  0  0  0  0
   13.9679  -18.5362   24.8029 C   0  0  0  0  0  0  0  0  0  0  0  0
   13.1375  -17.4120   24.2599 C   0  0  1  0  0  0  0  0  0  0  0  0
   13.3193  -17.3861   22.8764 O   0  0  0  0  0  0  0  0  0  0  0  0
   11.6479  -17.6416   24.5148 C   0  0  2  0  0  0  0  0  0  0  0  0
   10.8932  -16.4991   24.0473 N   0  0  0  0  0  0  0  0  0  0  0  0
   11.4838  -17.7400   25.9806 C   0  0  0  0  0  0  0  0  0  0  0  0
   11.1948  -16.6130   26.7266 O   0  0  0  0  0  0  0  0  0  0  0  0
   11.6085  -18.8470   26.5348 O   0  0  0  0  0  0  0  0  0  0  0  0
  2  1  1  0
  2  3  2  0
  4  2  1  0
  5  4  1  0
  6  5  1  0
  6  7  1  1
  8  6  1  0
  8 13  1  0
  9  8  2  0
 10 11  1  0
 12 11  1  1
 12 13  1  0
 12 14  1  0
 14 15  2  0
 14 20  1  0
 17 16  1  1
 17 18  1  0
 19 21  1  0
 19 17  1  0
 19 20  1  1
 21 22  1  0
 23 21  2  0
M  END
$$$$
