ACY.pdb
     RDKit          3D

 24 24  0  0  1  0  0  0  0  0999 V2000
    6.7545  -15.9563   21.3652 C   0  0  0  0  0  0  0  0  0  0  0  0
    7.1781  -14.5048   21.4880 C   0  0  2  0  0  0  0  0  0  0  0  0
    7.8936  -14.1277   20.2782 N   0  0  0  0  0  0  0  0  0  0  0  0
    8.0314  -14.3164   22.6924 C   0  0  0  0  0  0  0  0  0  0  0  0
    9.2681  -14.3734   22.6088 O   0  0  0  0  0  0  0  0  0  0  0  0
    7.4242  -14.0692   23.9476 N   0  0  0  0  0  0  0  0  0  0  0  0
    8.1378  -13.9246   25.1752 C   0  0  1  0  0  0  0  0  0  0  0  0
    7.3696  -13.0877   26.1865 C   0  0  0  0  0  0  0  0  0  0  0  0
    5.6806  -13.8039   26.2539 S   0  0  0  0  0  0  0  0  0  0  0  0
    8.4258  -15.2199   25.8393 C   0  0  0  0  0  0  0  0  0  0  0  0
    7.5785  -16.1517   25.7783 O   0  0  0  0  0  0  0  0  0  0  0  0
   10.7385  -17.7447   20.4471 O   0  0  0  0  0  0  0  0  0  0  0  0
   10.8824  -17.5977   21.8289 C   0  0  0  0  0  0  0  0  0  0  0  0
   11.5644  -16.5388   22.3841 C   0  0  0  0  0  0  0  0  0  0  0  0
   11.7134  -16.3825   23.7468 C   0  0  0  0  0  0  0  0  0  0  0  0
   11.1732  -17.3013   24.6267 C   0  0  0  0  0  0  0  0  0  0  0  0
   11.3414  -17.1341   26.0646 C   0  0  0  0  0  0  0  0  0  0  0  0
   10.1010  -16.8438   26.8302 C   0  0  2  0  0  0  0  0  0  0  0  0
    9.6247  -15.4846   26.5574 N   0  0  0  0  0  0  0  0  0  0  0  0
   10.3346  -17.0383   28.2763 C   0  0  0  0  0  0  0  0  0  0  0  0
   10.1447  -15.9826   29.1835 O   0  0  0  0  0  0  0  0  0  0  0  0
   10.4859  -18.3674   24.0561 C   0  0  0  0  0  0  0  0  0  0  0  0
   10.3416  -18.5165   22.6993 C   0  0  0  0  0  0  0  0  0  0  0  0
   10.7035  -18.1288   28.7399 O   0  0  0  0  0  0  0  0  0  0  0  0
  2  1  1  6
  2  4  1  0
  3  2  1  0
  4  6  1  0
  4  5  2  0
  6  7  1  0
  7 10  1  0
  7  8  1  1
  8  9  1  0
 10 11  2  0
 12 13  1  0
 13 23  2  0
 14 13  1  0
 14 15  2  0
 15 16  1  0
 16 22  2  0
 16 17  1  0
 18 17  1  6
 18 20  1  0
 19 10  1  0
 19 18  1  0
 20 21  1  0
 23 22  1  0
 24 20  2  0
M  END
$$$$
