ACY.pdb
     RDKit          3D

 24 24  0  0  1  0  0  0  0  0999 V2000
    6.5814  -18.8385   21.3449 C   0  0  0  0  0  0  0  0  0  0  0  0
    6.8785  -17.9996   20.1164 C   0  0  2  0  0  0  0  0  0  0  0  0
    7.3422  -18.8811   19.0554 N   0  0  0  0  0  0  0  0  0  0  0  0
    7.8992  -16.9641   20.4331 C   0  0  0  0  0  0  0  0  0  0  0  0
    9.0958  -17.2692   20.5543 O   0  0  0  0  0  0  0  0  0  0  0  0
    7.4993  -15.6158   20.5978 N   0  0  0  0  0  0  0  0  0  0  0  0
    8.3594  -14.5670   21.0424 C   0  0  1  0  0  0  0  0  0  0  0  0
    7.7768  -13.1915   20.7564 C   0  0  0  0  0  0  0  0  0  0  0  0
    7.5656  -13.1024   18.9350 S   0  0  0  0  0  0  0  0  0  0  0  0
    8.6279  -14.6108   22.5011 C   0  0  0  0  0  0  0  0  0  0  0  0
    8.0572  -13.7842   23.2633 O   0  0  0  0  0  0  0  0  0  0  0  0
    6.3387  -10.7670   27.2328 O   0  0  0  0  0  0  0  0  0  0  0  0
    6.8861  -11.9649   26.7667 C   0  0  0  0  0  0  0  0  0  0  0  0
    6.1037  -12.9781   26.2611 C   0  0  0  0  0  0  0  0  0  0  0  0
    6.6323  -14.1654   25.7978 C   0  0  0  0  0  0  0  0  0  0  0  0
    7.9958  -14.3896   25.8236 C   0  0  0  0  0  0  0  0  0  0  0  0
    8.5464  -15.6492   25.3400 C   0  0  0  0  0  0  0  0  0  0  0  0
    9.7986  -15.5442   24.5463 C   0  0  2  0  0  0  0  0  0  0  0  0
    9.5083  -15.5475   23.1095 N   0  0  0  0  0  0  0  0  0  0  0  0
   10.7216  -16.6430   24.8985 C   0  0  0  0  0  0  0  0  0  0  0  0
   11.3113  -16.7061   26.1720 O   0  0  0  0  0  0  0  0  0  0  0  0
    8.7779  -13.3599   26.3360 C   0  0  0  0  0  0  0  0  0  0  0  0
    8.2451  -12.1812   26.7951 C   0  0  0  0  0  0  0  0  0  0  0  0
   11.0084  -17.5420   24.0925 O   0  0  0  0  0  0  0  0  0  0  0  0
  2  1  1  1
  2  4  1  0
  3  2  1  0
  4  6  1  0
  4  5  2  0
  6  7  1  0
  7 10  1  0
  7  8  1  1
  8  9  1  0
 10 11  2  0
 12 13  1  0
 13 23  2  0
 14 13  1  0
 14 15  2  0
 15 16  1  0
 16 22  2  0
 16 17  1  0
 18 17  1  1
 18 20  1  0
 19 10  1  0
 19 18  1  0
 20 21  1  0
 23 22  1  0
 24 20  2  0
M  END
$$$$
