ACY.pdb
     RDKit          3D

 24 24  0  0  1  0  0  0  0  0999 V2000
    2.1631  -22.2701   19.1644 C   0  0  0  0  0  0  0  0  0  0  0  0
    2.8827  -21.8666   20.4375 C   0  0  2  0  0  0  0  0  0  0  0  0
    2.0608  -20.8970   21.1460 N   0  0  0  0  0  0  0  0  0  0  0  0
    4.2199  -21.2983   20.1164 C   0  0  0  0  0  0  0  0  0  0  0  0
    5.0843  -21.9889   19.5545 O   0  0  0  0  0  0  0  0  0  0  0  0
    4.5082  -19.9542   20.4561 N   0  0  0  0  0  0  0  0  0  0  0  0
    5.7520  -19.3044   20.1954 C   0  0  1  0  0  0  0  0  0  0  0  0
    5.5636  -17.8451   19.8103 C   0  0  0  0  0  0  0  0  0  0  0  0
    4.6449  -17.0721   21.1992 S   0  0  0  0  0  0  0  0  0  0  0  0
    6.6706  -19.3126   21.3607 C   0  0  0  0  0  0  0  0  0  0  0  0
    6.2346  -18.9875   22.4982 O   0  0  0  0  0  0  0  0  0  0  0  0
   11.9434  -21.6804   27.8170 O   0  0  0  0  0  0  0  0  0  0  0  0
   11.0861  -21.4343   26.7417 C   0  0  0  0  0  0  0  0  0  0  0  0
   10.1725  -20.4049   26.7562 C   0  0  0  0  0  0  0  0  0  0  0  0
    9.3206  -20.1516   25.7008 C   0  0  0  0  0  0  0  0  0  0  0  0
    9.3508  -20.9373   24.5641 C   0  0  0  0  0  0  0  0  0  0  0  0
    8.4425  -20.6689   23.4566 C   0  0  0  0  0  0  0  0  0  0  0  0
    8.9302  -19.6980   22.4424 C   0  0  2  0  0  0  0  0  0  0  0  0
    8.0440  -19.6723   21.2752 N   0  0  0  0  0  0  0  0  0  0  0  0
   10.3148  -20.0261   22.0438 C   0  0  0  0  0  0  0  0  0  0  0  0
   11.4100  -19.4576   22.7153 O   0  0  0  0  0  0  0  0  0  0  0  0
   10.2773  -21.9746   24.5590 C   0  0  0  0  0  0  0  0  0  0  0  0
   11.1219  -22.2206   25.6127 C   0  0  0  0  0  0  0  0  0  0  0  0
   10.5609  -20.8074   21.1115 O   0  0  0  0  0  0  0  0  0  0  0  0
  2  1  1  6
  2  4  1  0
  3  2  1  0
  4  6  1  0
  4  5  2  0
  6  7  1  0
  7 10  1  0
  7  8  1  1
  8  9  1  0
 10 11  2  0
 12 13  1  0
 13 23  2  0
 14 13  1  0
 14 15  2  0
 15 16  1  0
 16 22  2  0
 16 17  1  0
 18 17  1  1
 18 20  1  0
 19 10  1  0
 19 18  1  0
 20 21  1  0
 23 22  1  0
 24 20  2  0
M  END
$$$$
