ACY.pdb
     RDKit          3D

 24 24  0  0  1  0  0  0  0  0999 V2000
    9.1892  -18.7845   17.9129 C   0  0  0  0  0  0  0  0  0  0  0  0
    8.1314  -19.3001   18.8701 C   0  0  2  0  0  0  0  0  0  0  0  0
    6.9705  -19.7150   18.0969 N   0  0  0  0  0  0  0  0  0  0  0  0
    7.7671  -18.2446   19.8538 C   0  0  0  0  0  0  0  0  0  0  0  0
    7.6121  -17.0676   19.4929 O   0  0  0  0  0  0  0  0  0  0  0  0
    7.5954  -18.5885   21.2166 N   0  0  0  0  0  0  0  0  0  0  0  0
    7.1675  -17.6799   22.2309 C   0  0  1  0  0  0  0  0  0  0  0  0
    6.0374  -18.2541   23.0714 C   0  0  0  0  0  0  0  0  0  0  0  0
    6.8356  -18.9990   24.5474 S   0  0  0  0  0  0  0  0  0  0  0  0
    8.2477  -17.3132   23.1798 C   0  0  0  0  0  0  0  0  0  0  0  0
    9.0833  -18.1867   23.5383 O   0  0  0  0  0  0  0  0  0  0  0  0
    5.3046  -11.5261   27.2374 O   0  0  0  0  0  0  0  0  0  0  0  0
    6.3695  -12.1757   26.6084 C   0  0  0  0  0  0  0  0  0  0  0  0
    7.5939  -12.3304   27.2179 C   0  0  0  0  0  0  0  0  0  0  0  0
    8.6531  -12.9700   26.6073 C   0  0  0  0  0  0  0  0  0  0  0  0
    8.5248  -13.4911   25.3337 C   0  0  0  0  0  0  0  0  0  0  0  0
    9.6502  -14.1582   24.6918 C   0  0  0  0  0  0  0  0  0  0  0  0
    9.5417  -15.6356   24.5713 C   0  0  2  0  0  0  0  0  0  0  0  0
    8.4052  -16.0086   23.7241 N   0  0  0  0  0  0  0  0  0  0  0  0
    9.4239  -16.2511   25.9095 C   0  0  0  0  0  0  0  0  0  0  0  0
    8.2064  -16.8022   26.3426 O   0  0  0  0  0  0  0  0  0  0  0  0
    7.2839  -13.3298   24.7263 C   0  0  0  0  0  0  0  0  0  0  0  0
    6.2345  -12.6925   25.3399 C   0  0  0  0  0  0  0  0  0  0  0  0
   10.3844  -16.3044   26.6935 O   0  0  0  0  0  0  0  0  0  0  0  0
  2  1  1  6
  2  4  1  0
  3  2  1  0
  4  6  1  0
  4  5  2  0
  6  7  1  0
  7 10  1  0
  7  8  1  1
  8  9  1  0
 10 11  2  0
 12 13  1  0
 13 23  2  0
 14 13  1  0
 14 15  2  0
 15 16  1  0
 16 22  2  0
 16 17  1  0
 18 17  1  1
 18 20  1  0
 19 10  1  0
 19 18  1  0
 20 21  1  0
 23 22  1  0
 24 20  2  0
M  END
$$$$
