ACY.pdb
     RDKit          3D

 24 24  0  0  1  0  0  0  0  0999 V2000
    9.5018  -17.5334   16.4927 C   0  0  0  0  0  0  0  0  0  0  0  0
    8.7501  -16.2602   16.8322 C   0  0  2  0  0  0  0  0  0  0  0  0
    9.1488  -15.2230   15.8925 N   0  0  0  0  0  0  0  0  0  0  0  0
    9.0378  -15.8492   18.2332 C   0  0  0  0  0  0  0  0  0  0  0  0
   10.0991  -15.2741   18.5202 O   0  0  0  0  0  0  0  0  0  0  0  0
    8.0888  -16.1176   19.2493 N   0  0  0  0  0  0  0  0  0  0  0  0
    8.2845  -15.8296   20.6335 C   0  0  1  0  0  0  0  0  0  0  0  0
    7.0951  -16.2579   21.4791 C   0  0  0  0  0  0  0  0  0  0  0  0
    5.6639  -15.2865   20.8641 S   0  0  0  0  0  0  0  0  0  0  0  0
    9.4713  -16.5093   21.2091 C   0  0  0  0  0  0  0  0  0  0  0  0
    9.7687  -17.6728   20.8248 O   0  0  0  0  0  0  0  0  0  0  0  0
   14.6108  -15.0972   17.3019 O   0  0  0  0  0  0  0  0  0  0  0  0
   14.1425  -15.2579   18.6083 C   0  0  0  0  0  0  0  0  0  0  0  0
   14.2736  -16.4461   19.2907 C   0  0  0  0  0  0  0  0  0  0  0  0
   13.8154  -16.6173   20.5808 C   0  0  0  0  0  0  0  0  0  0  0  0
   13.1937  -15.5820   21.2531 C   0  0  0  0  0  0  0  0  0  0  0  0
   12.7050  -15.7725   22.6127 C   0  0  0  0  0  0  0  0  0  0  0  0
   11.4827  -16.6072   22.7485 C   0  0  2  0  0  0  0  0  0  0  0  0
   10.3153  -15.9188   22.1899 N   0  0  0  0  0  0  0  0  0  0  0  0
   11.2574  -16.9581   24.1660 C   0  0  0  0  0  0  0  0  0  0  0  0
   10.0646  -16.5978   24.8149 O   0  0  0  0  0  0  0  0  0  0  0  0
   13.0661  -14.3856   20.5552 C   0  0  0  0  0  0  0  0  0  0  0  0
   13.5245  -14.2225   19.2718 C   0  0  0  0  0  0  0  0  0  0  0  0
   12.1031  -17.5773   24.8305 O   0  0  0  0  0  0  0  0  0  0  0  0
  2  1  1  6
  2  4  1  0
  3  2  1  0
  4  6  1  0
  4  5  2  0
  6  7  1  0
  7 10  1  0
  7  8  1  1
  8  9  1  0
 10 11  2  0
 12 13  1  0
 13 23  2  0
 14 13  1  0
 14 15  2  0
 15 16  1  0
 16 22  2  0
 16 17  1  0
 18 17  1  1
 18 20  1  0
 19 10  1  0
 19 18  1  0
 20 21  1  0
 23 22  1  0
 24 20  2  0
M  END
$$$$
