ACY.pdb
     RDKit          3D

 24 24  0  0  1  0  0  0  0  0999 V2000
    9.0986  -18.9374   18.7496 C   0  0  0  0  0  0  0  0  0  0  0  0
    8.9952  -18.8742   20.2617 C   0  0  2  0  0  0  0  0  0  0  0  0
    7.6002  -19.0489   20.6377 N   0  0  0  0  0  0  0  0  0  0  0  0
    9.5231  -17.5757   20.7612 C   0  0  0  0  0  0  0  0  0  0  0  0
   10.7319  -17.3081   20.6777 O   0  0  0  0  0  0  0  0  0  0  0  0
    8.6351  -16.6354   21.3379 N   0  0  0  0  0  0  0  0  0  0  0  0
    9.0216  -15.3466   21.8142 C   0  0  1  0  0  0  0  0  0  0  0  0
    7.9103  -14.3211   21.6507 C   0  0  0  0  0  0  0  0  0  0  0  0
    6.3795  -15.1368   22.2520 S   0  0  0  0  0  0  0  0  0  0  0  0
    9.3856  -15.3407   23.2527 C   0  0  0  0  0  0  0  0  0  0  0  0
    9.9851  -14.3432   23.7381 O   0  0  0  0  0  0  0  0  0  0  0  0
    5.8901  -11.2304   26.9494 O   0  0  0  0  0  0  0  0  0  0  0  0
    6.4966  -12.4828   26.8259 C   0  0  0  0  0  0  0  0  0  0  0  0
    5.7923  -13.6013   26.4419 C   0  0  0  0  0  0  0  0  0  0  0  0
    6.3798  -14.8434   26.3163 C   0  0  0  0  0  0  0  0  0  0  0  0
    7.7259  -15.0179   26.5765 C   0  0  0  0  0  0  0  0  0  0  0  0
    8.3380  -16.3343   26.4496 C   0  0  0  0  0  0  0  0  0  0  0  0
    9.5146  -16.4147   25.5450 C   0  0  2  0  0  0  0  0  0  0  0  0
    9.0950  -16.4131   24.1405 N   0  0  0  0  0  0  0  0  0  0  0  0
   10.3156  -17.6177   25.8528 C   0  0  0  0  0  0  0  0  0  0  0  0
   10.9260  -17.7730   27.1085 O   0  0  0  0  0  0  0  0  0  0  0  0
    8.4289  -13.8819   26.9637 C   0  0  0  0  0  0  0  0  0  0  0  0
    7.8378  -12.6492   27.0864 C   0  0  0  0  0  0  0  0  0  0  0  0
   10.4783  -18.5267   25.0237 O   0  0  0  0  0  0  0  0  0  0  0  0
  2  1  1  6
  2  4  1  0
  3  2  1  0
  4  6  1  0
  4  5  2  0
  6  7  1  0
  7 10  1  0
  7  8  1  1
  8  9  1  0
 10 11  2  0
 12 13  1  0
 13 23  2  0
 14 13  1  0
 14 15  2  0
 15 16  1  0
 16 22  2  0
 16 17  1  0
 18 17  1  1
 18 20  1  0
 19 10  1  0
 19 18  1  0
 20 21  1  0
 23 22  1  0
 24 20  2  0
M  END
$$$$
