ACY.pdb
     RDKit          3D

 24 24  0  0  1  0  0  0  0  0999 V2000
    8.0579  -12.2443   18.9812 C   0  0  0  0  0  0  0  0  0  0  0  0
    8.5400  -13.5579   18.3954 C   0  0  2  0  0  0  0  0  0  0  0  0
    7.9273  -13.7337   17.0871 N   0  0  0  0  0  0  0  0  0  0  0  0
    8.1929  -14.6856   19.3022 C   0  0  0  0  0  0  0  0  0  0  0  0
    7.1896  -15.3843   19.0901 O   0  0  0  0  0  0  0  0  0  0  0  0
    9.0176  -14.9637   20.4191 N   0  0  0  0  0  0  0  0  0  0  0  0
    8.9026  -16.1271   21.2381 C   0  0  1  0  0  0  0  0  0  0  0  0
    9.4420  -17.3686   20.5445 C   0  0  0  0  0  0  0  0  0  0  0  0
    9.1978  -18.7521   21.7263 S   0  0  0  0  0  0  0  0  0  0  0  0
    9.6393  -16.0132   22.5210 C   0  0  0  0  0  0  0  0  0  0  0  0
   10.8976  -16.0944   22.5247 O   0  0  0  0  0  0  0  0  0  0  0  0
   11.3084  -15.0666   31.2754 O   0  0  0  0  0  0  0  0  0  0  0  0
   10.6964  -15.1819   30.0248 C   0  0  0  0  0  0  0  0  0  0  0  0
   10.2514  -16.3898   29.5375 C   0  0  0  0  0  0  0  0  0  0  0  0
    9.6456  -16.5166   28.3044 C   0  0  0  0  0  0  0  0  0  0  0  0
    9.4577  -15.4139   27.4926 C   0  0  0  0  0  0  0  0  0  0  0  0
    8.8243  -15.5566   26.1880 C   0  0  0  0  0  0  0  0  0  0  0  0
    9.7493  -15.6750   25.0307 C   0  0  2  0  0  0  0  0  0  0  0  0
    9.0025  -15.8136   23.7770 N   0  0  0  0  0  0  0  0  0  0  0  0
   10.6677  -16.8164   25.2242 C   0  0  0  0  0  0  0  0  0  0  0  0
   10.2160  -18.1372   25.0660 O   0  0  0  0  0  0  0  0  0  0  0  0
    9.9105  -14.1980   27.9939 C   0  0  0  0  0  0  0  0  0  0  0  0
   10.5122  -14.0793   29.2218 C   0  0  0  0  0  0  0  0  0  0  0  0
   11.8594  -16.6544   25.5303 O   0  0  0  0  0  0  0  0  0  0  0  0
  2  1  1  1
  2  4  1  0
  3  2  1  0
  4  6  1  0
  4  5  2  0
  6  7  1  0
  7 10  1  0
  7  8  1  6
  8  9  1  0
 10 11  2  0
 12 13  1  0
 13 23  2  0
 14 13  1  0
 14 15  2  0
 15 16  1  0
 16 22  2  0
 16 17  1  0
 18 17  1  1
 18 20  1  0
 19 10  1  0
 19 18  1  0
 20 21  1  0
 23 22  1  0
 24 20  2  0
M  END
$$$$
