MMM.pdb
     RDKit          3D

 25 24  0  0  1  0  0  0  0  0999 V2000
   29.5548  -21.4871   -9.4505 C   0  0  0  0  0  0  0  0  0  0  0  0
   30.2311  -20.5719  -10.8143 S   0  0  0  0  0  0  0  0  0  0  0  0
   29.5754  -20.8743  -12.4270 C   0  0  0  0  0  0  0  0  0  0  0  0
   28.3298  -20.1678  -12.7736 C   0  0  0  0  0  0  0  0  0  0  0  0
   27.0919  -20.9591  -12.7420 C   0  0  2  0  0  0  0  0  0  0  0  0
   27.2014  -22.1713  -13.4727 N   0  0  0  0  0  0  0  0  0  0  0  0
   25.9716  -20.0902  -13.2770 C   0  0  0  0  0  0  0  0  0  0  0  0
   25.7915  -19.0074  -12.6648 O   0  0  0  0  0  0  0  0  0  0  0  0
   25.1597  -16.6704  -18.9781 C   0  0  0  0  0  0  0  0  0  0  0  0
   24.0647  -17.9202  -18.2423 S   0  0  0  0  0  0  0  0  0  0  0  0
   24.8906  -18.7714  -16.8699 C   0  0  0  0  0  0  0  0  0  0  0  0
   23.8980  -19.7465  -16.2892 C   0  0  0  0  0  0  0  0  0  0  0  0
   24.0204  -19.7940  -14.7546 C   0  0  2  0  0  0  0  0  0  0  0  0
   25.1982  -20.4913  -14.3881 N   0  0  0  0  0  0  0  0  0  0  0  0
   22.7682  -20.4573  -14.3038 C   0  0  0  0  0  0  0  0  0  0  0  0
   22.5744  -21.6458  -14.6564 O   0  0  0  0  0  0  0  0  0  0  0  0
   21.3406  -21.9851   -8.5237 C   0  0  0  0  0  0  0  0  0  0  0  0
   22.3332  -20.5667   -9.0596 S   0  0  0  0  0  0  0  0  0  0  0  0
   22.2968  -20.5203  -10.8770 C   0  0  0  0  0  0  0  0  0  0  0  0
   20.8659  -20.4670  -11.3436 C   0  0  0  0  0  0  0  0  0  0  0  0
   20.6999  -20.4923  -12.8391 C   0  0  2  0  0  0  0  0  0  0  0  0
   21.7979  -19.8087  -13.5022 N   0  0  0  0  0  0  0  0  0  0  0  0
   19.4396  -19.8954  -13.3056 C   0  0  0  0  0  0  0  0  0  0  0  0
   19.4833  -18.7673  -13.8908 O   0  0  0  0  0  0  0  0  0  0  0  0
   18.1739  -20.4350  -13.1797 O   0  0  0  0  0  0  0  0  0  0  0  0
  1  2  1  0
  3  2  1  0
  4  3  1  0
  5  6  1  6
  5  4  1  0
  7  5  1  0
  8  7  2  0
 10  9  1  0
 11 12  1  0
 11 10  1  0
 13 12  1  6
 13 15  1  0
 13 14  1  0
 14  7  1  0
 15 16  2  0
 18 17  1  0
 19 18  1  0
 21 20  1  1
 20 19  1  0
 22 21  1  0
 22 15  1  0
 23 21  1  0
 24 23  2  0
 25 23  1  0
M  END
$$$$
