MMM.pdb
     RDKit          3D

 25 24  0  0  1  0  0  0  0  0999 V2000
   30.3050  -16.9476  -17.1538 C   0  0  0  0  0  0  0  0  0  0  0  0
   29.3427  -18.0398  -16.1360 S   0  0  0  0  0  0  0  0  0  0  0  0
   27.7124  -18.4586  -16.6735 C   0  0  0  0  0  0  0  0  0  0  0  0
   26.9396  -19.3534  -15.7944 C   0  0  0  0  0  0  0  0  0  0  0  0
   27.6922  -20.4072  -15.0998 C   0  0  2  0  0  0  0  0  0  0  0  0
   28.2371  -21.3665  -15.9932 N   0  0  0  0  0  0  0  0  0  0  0  0
   26.7631  -21.0545  -14.0927 C   0  0  0  0  0  0  0  0  0  0  0  0
   25.9983  -21.9374  -14.5564 O   0  0  0  0  0  0  0  0  0  0  0  0
   27.0242  -19.5601   -7.8720 C   0  0  0  0  0  0  0  0  0  0  0  0
   25.5193  -20.5763   -7.8003 S   0  0  0  0  0  0  0  0  0  0  0  0
   24.9850  -21.0534   -9.4666 C   0  0  0  0  0  0  0  0  0  0  0  0
   26.0439  -20.5750  -10.4275 C   0  0  0  0  0  0  0  0  0  0  0  0
   25.7069  -21.0119  -11.8655 C   0  0  2  0  0  0  0  0  0  0  0  0
   26.7754  -20.6747  -12.7329 N   0  0  0  0  0  0  0  0  0  0  0  0
   24.4367  -20.3050  -12.1789 C   0  0  0  0  0  0  0  0  0  0  0  0
   24.5040  -19.2500  -12.8547 O   0  0  0  0  0  0  0  0  0  0  0  0
   22.8759  -21.4049  -16.8522 C   0  0  0  0  0  0  0  0  0  0  0  0
   21.2371  -22.0012  -16.3589 S   0  0  0  0  0  0  0  0  0  0  0  0
   20.8599  -21.2962  -14.7257 C   0  0  0  0  0  0  0  0  0  0  0  0
   22.0986  -21.3351  -13.8701 C   0  0  0  0  0  0  0  0  0  0  0  0
   21.9519  -20.6562  -12.5352 C   0  0  2  0  0  0  0  0  0  0  0  0
   23.1698  -20.7697  -11.7502 N   0  0  0  0  0  0  0  0  0  0  0  0
   20.8362  -21.1714  -11.7277 C   0  0  0  0  0  0  0  0  0  0  0  0
   21.0225  -22.2230  -11.0375 O   0  0  0  0  0  0  0  0  0  0  0  0
   19.5697  -20.6283  -11.6271 O   0  0  0  0  0  0  0  0  0  0  0  0
  1  2  1  0
  3  2  1  0
  4  3  1  0
  5  6  1  6
  5  4  1  0
  7  5  1  0
  8  7  2  0
 10  9  1  0
 11 12  1  0
 11 10  1  0
 13 12  1  1
 13 15  1  0
 13 14  1  0
 14  7  1  0
 15 16  2  0
 18 17  1  0
 19 18  1  0
 21 20  1  6
 20 19  1  0
 22 21  1  0
 22 15  1  0
 23 21  1  0
 24 23  2  0
 25 23  1  0
M  END
$$$$
