MMM.pdb
     RDKit          3D

 25 24  0  0  1  0  0  0  0  0999 V2000
   18.7955  -23.0654  -14.3155 C   0  0  0  0  0  0  0  0  0  0  0  0
   19.8404  -22.4770  -15.6258 S   0  0  0  0  0  0  0  0  0  0  0  0
   20.0636  -20.7322  -15.7932 C   0  0  0  0  0  0  0  0  0  0  0  0
   21.1243  -20.1231  -14.9718 C   0  0  0  0  0  0  0  0  0  0  0  0
   21.8883  -21.0293  -14.1031 C   0  0  2  0  0  0  0  0  0  0  0  0
   21.2322  -21.2841  -12.8703 N   0  0  0  0  0  0  0  0  0  0  0  0
   23.2578  -20.4184  -13.8847 C   0  0  0  0  0  0  0  0  0  0  0  0
   23.4166  -19.2682  -14.3658 O   0  0  0  0  0  0  0  0  0  0  0  0
   27.5441  -21.5708   -9.1695 C   0  0  0  0  0  0  0  0  0  0  0  0
   25.9629  -20.7012   -8.9549 S   0  0  0  0  0  0  0  0  0  0  0  0
   25.2612  -20.2359  -10.5614 C   0  0  0  0  0  0  0  0  0  0  0  0
   26.1046  -20.8951  -11.6232 C   0  0  0  0  0  0  0  0  0  0  0  0
   25.5646  -20.5629  -13.0268 C   0  0  2  0  0  0  0  0  0  0  0  0
   24.2686  -21.1133  -13.1855 N   0  0  0  0  0  0  0  0  0  0  0  0
   26.5746  -21.1342  -13.9567 C   0  0  0  0  0  0  0  0  0  0  0  0
   26.7814  -22.3709  -13.9101 O   0  0  0  0  0  0  0  0  0  0  0  0
   24.1556  -23.5262  -18.1542 C   0  0  0  0  0  0  0  0  0  0  0  0
   24.4817  -21.9048  -18.8953 S   0  0  0  0  0  0  0  0  0  0  0  0
   26.1329  -21.3700  -18.3530 C   0  0  0  0  0  0  0  0  0  0  0  0
   26.0938  -21.0539  -16.8811 C   0  0  0  0  0  0  0  0  0  0  0  0
   27.4219  -20.6546  -16.2970 C   0  0  2  0  0  0  0  0  0  0  0  0
   27.3032  -20.3474  -14.8813 N   0  0  0  0  0  0  0  0  0  0  0  0
   28.0407  -19.5008  -16.9663 C   0  0  0  0  0  0  0  0  0  0  0  0
   28.9519  -19.7162  -17.8268 O   0  0  0  0  0  0  0  0  0  0  0  0
   27.7372  -18.1681  -16.7641 O   0  0  0  0  0  0  0  0  0  0  0  0
  1  2  1  0
  3  2  1  0
  4  3  1  0
  5  6  1  1
  5  4  1  0
  7  5  1  0
  8  7  2  0
 10  9  1  0
 11 12  1  0
 11 10  1  0
 13 12  1  1
 13 15  1  0
 13 14  1  0
 14  7  1  0
 15 16  2  0
 18 17  1  0
 19 18  1  0
 21 20  1  6
 20 19  1  0
 22 21  1  0
 22 15  1  0
 23 21  1  0
 24 23  2  0
 25 23  1  0
M  END
$$$$
