MMM.pdb
     RDKit          3D

 25 24  0  0  1  0  0  0  0  0999 V2000
   21.4183  -16.2229  -19.9270 C   0  0  0  0  0  0  0  0  0  0  0  0
   21.7454  -17.2650  -18.5262 S   0  0  0  0  0  0  0  0  0  0  0  0
   22.9895  -18.5094  -18.6865 C   0  0  0  0  0  0  0  0  0  0  0  0
   23.1788  -19.4028  -17.5304 C   0  0  0  0  0  0  0  0  0  0  0  0
   23.0791  -18.7889  -16.1990 C   0  0  2  0  0  0  0  0  0  0  0  0
   24.1072  -17.8401  -15.9582 N   0  0  0  0  0  0  0  0  0  0  0  0
   23.1025  -19.9024  -15.1713 C   0  0  0  0  0  0  0  0  0  0  0  0
   22.7964  -21.0415  -15.6054 O   0  0  0  0  0  0  0  0  0  0  0  0
   26.5576  -20.8699   -9.7169 C   0  0  0  0  0  0  0  0  0  0  0  0
   24.8511  -20.9074   -9.0932 S   0  0  0  0  0  0  0  0  0  0  0  0
   23.6812  -21.2381  -10.4393 C   0  0  0  0  0  0  0  0  0  0  0  0
   23.9875  -20.2604  -11.5455 C   0  0  0  0  0  0  0  0  0  0  0  0
   23.1701  -20.5968  -12.8067 C   0  0  2  0  0  0  0  0  0  0  0  0
   23.4481  -19.6520  -13.8254 N   0  0  0  0  0  0  0  0  0  0  0  0
   21.7562  -20.5811  -12.3465 C   0  0  0  0  0  0  0  0  0  0  0  0
   21.2604  -19.4778  -12.0125 O   0  0  0  0  0  0  0  0  0  0  0  0
   16.0906  -20.1513  -16.2960 C   0  0  0  0  0  0  0  0  0  0  0  0
   17.7257  -19.9636  -15.5372 S   0  0  0  0  0  0  0  0  0  0  0  0
   18.2490  -21.5988  -14.9380 C   0  0  0  0  0  0  0  0  0  0  0  0
   19.5996  -21.4785  -14.2827 C   0  0  0  0  0  0  0  0  0  0  0  0
   19.6178  -21.8547  -12.8258 C   0  0  2  0  0  0  0  0  0  0  0  0
   20.9570  -21.7474  -12.2712 N   0  0  0  0  0  0  0  0  0  0  0  0
   19.1178  -23.2113  -12.5578 C   0  0  0  0  0  0  0  0  0  0  0  0
   18.0242  -23.3395  -11.9216 O   0  0  0  0  0  0  0  0  0  0  0  0
   19.7154  -24.4002  -12.9296 O   0  0  0  0  0  0  0  0  0  0  0  0
  1  2  1  0
  3  2  1  0
  4  3  1  0
  5  6  1  1
  5  4  1  0
  7  5  1  0
  8  7  2  0
 10  9  1  0
 11 12  1  0
 11 10  1  0
 13 12  1  1
 13 15  1  0
 13 14  1  0
 14  7  1  0
 15 16  2  0
 18 17  1  0
 19 18  1  0
 21 20  1  6
 20 19  1  0
 22 21  1  0
 22 15  1  0
 23 21  1  0
 24 23  2  0
 25 23  1  0
M  END
$$$$
