MMM.pdb
     RDKit          3D

 25 24  0  0  1  0  0  0  0  0999 V2000
   23.4175  -17.9586  -14.7378 C   0  0  0  0  0  0  0  0  0  0  0  0
   24.9103  -18.1914  -15.6718 S   0  0  0  0  0  0  0  0  0  0  0  0
   26.1814  -19.2000  -14.9725 C   0  0  0  0  0  0  0  0  0  0  0  0
   25.8948  -19.8027  -13.6589 C   0  0  0  0  0  0  0  0  0  0  0  0
   27.0192  -20.4540  -12.9725 C   0  0  2  0  0  0  0  0  0  0  0  0
   27.6750  -21.4120  -13.7895 N   0  0  0  0  0  0  0  0  0  0  0  0
   26.4855  -21.0837  -11.7017 C   0  0  0  0  0  0  0  0  0  0  0  0
   26.9938  -22.1917  -11.3958 O   0  0  0  0  0  0  0  0  0  0  0  0
   27.9889  -19.8373   -4.7793 C   0  0  0  0  0  0  0  0  0  0  0  0
   27.9633  -19.5399   -6.5719 S   0  0  0  0  0  0  0  0  0  0  0  0
   26.4881  -20.2784   -7.3257 C   0  0  0  0  0  0  0  0  0  0  0  0
   26.5935  -20.0628   -8.8142 C   0  0  0  0  0  0  0  0  0  0  0  0
   25.3789  -20.6746   -9.5370 C   0  0  2  0  0  0  0  0  0  0  0  0
   25.4863  -20.4494  -10.9317 N   0  0  0  0  0  0  0  0  0  0  0  0
   24.2038  -20.0104   -8.9130 C   0  0  0  0  0  0  0  0  0  0  0  0
   24.3697  -19.4447   -7.8053 O   0  0  0  0  0  0  0  0  0  0  0  0
   19.6246  -22.7000  -12.2613 C   0  0  0  0  0  0  0  0  0  0  0  0
   19.2726  -23.4414  -10.6455 S   0  0  0  0  0  0  0  0  0  0  0  0
   19.9141  -22.3168   -9.3687 C   0  0  0  0  0  0  0  0  0  0  0  0
   21.1431  -21.6211   -9.8919 C   0  0  0  0  0  0  0  0  0  0  0  0
   21.7447  -20.6242   -8.9387 C   0  0  2  0  0  0  0  0  0  0  0  0
   22.9210  -19.9914   -9.5118 N   0  0  0  0  0  0  0  0  0  0  0  0
   22.1209  -21.1996   -7.6388 C   0  0  0  0  0  0  0  0  0  0  0  0
   22.9449  -22.1679   -7.6204 O   0  0  0  0  0  0  0  0  0  0  0  0
   21.6706  -20.7973   -6.3961 O   0  0  0  0  0  0  0  0  0  0  0  0
  1  2  1  0
  3  2  1  0
  4  3  1  0
  5  6  1  6
  5  4  1  0
  7  5  1  0
  8  7  2  0
 10  9  1  0
 11 12  1  0
 11 10  1  0
 13 12  1  1
 13 15  1  0
 13 14  1  0
 14  7  1  0
 15 16  2  0
 18 17  1  0
 19 18  1  0
 21 20  1  6
 20 19  1  0
 22 21  1  0
 22 15  1  0
 23 21  1  0
 24 23  2  0
 25 23  1  0
M  END
$$$$
