MMM.pdb
     RDKit          3D

 25 24  0  0  1  0  0  0  0  0999 V2000
   26.7359  -15.6881  -14.9264 C   0  0  0  0  0  0  0  0  0  0  0  0
   28.1095  -16.3940  -15.8039 S   0  0  0  0  0  0  0  0  0  0  0  0
   28.0212  -18.0999  -16.2555 C   0  0  0  0  0  0  0  0  0  0  0  0
   27.1687  -18.9593  -15.4156 C   0  0  0  0  0  0  0  0  0  0  0  0
   27.8241  -20.0995  -14.7598 C   0  0  2  0  0  0  0  0  0  0  0  0
   28.2695  -21.0785  -15.6864 N   0  0  0  0  0  0  0  0  0  0  0  0
   26.8459  -20.6866  -13.7624 C   0  0  0  0  0  0  0  0  0  0  0  0
   25.9691  -21.4433  -14.2505 O   0  0  0  0  0  0  0  0  0  0  0  0
   27.5691  -19.7457   -7.3802 C   0  0  0  0  0  0  0  0  0  0  0  0
   25.8295  -20.2697   -7.4181 S   0  0  0  0  0  0  0  0  0  0  0  0
   25.4111  -20.9963   -9.0265 C   0  0  0  0  0  0  0  0  0  0  0  0
   26.2582  -20.3017  -10.0625 C   0  0  0  0  0  0  0  0  0  0  0  0
   25.9672  -20.8655  -11.4659 C   0  0  2  0  0  0  0  0  0  0  0  0
   26.9347  -20.3892  -12.3850 N   0  0  0  0  0  0  0  0  0  0  0  0
   24.5830  -20.4130  -11.7668 C   0  0  0  0  0  0  0  0  0  0  0  0
   24.4087  -19.2008  -12.0399 O   0  0  0  0  0  0  0  0  0  0  0  0
   21.5049  -21.3707  -16.8038 C   0  0  0  0  0  0  0  0  0  0  0  0
   20.2528  -22.0762  -15.6998 S   0  0  0  0  0  0  0  0  0  0  0  0
   20.4482  -21.2946  -14.0696 C   0  0  0  0  0  0  0  0  0  0  0  0
   21.8351  -21.5689  -13.5506 C   0  0  0  0  0  0  0  0  0  0  0  0
   22.1426  -20.9185  -12.2290 C   0  0  2  0  0  0  0  0  0  0  0  0
   23.4677  -21.2852  -11.7576 N   0  0  0  0  0  0  0  0  0  0  0  0
   21.1740  -21.2403  -11.1705 C   0  0  0  0  0  0  0  0  0  0  0  0
   20.0450  -20.6554  -11.1839 O   0  0  0  0  0  0  0  0  0  0  0  0
   21.3525  -22.1333  -10.1313 O   0  0  0  0  0  0  0  0  0  0  0  0
  1  2  1  0
  3  2  1  0
  4  3  1  0
  5  6  1  6
  5  4  1  0
  7  5  1  0
  8  7  2  0
 10  9  1  0
 11 12  1  0
 11 10  1  0
 13 12  1  1
 13 15  1  0
 13 14  1  0
 14  7  1  0
 15 16  2  0
 18 17  1  0
 19 18  1  0
 21 20  1  6
 20 19  1  0
 22 21  1  0
 22 15  1  0
 23 21  1  0
 24 23  2  0
 25 23  1  0
M  END
$$$$
