MMM.pdb
     RDKit          3D

 25 24  0  0  1  0  0  0  0  0999 V2000
   21.4467  -15.4763  -22.8096 C   0  0  0  0  0  0  0  0  0  0  0  0
   21.8799  -14.4975  -21.3921 S   0  0  0  0  0  0  0  0  0  0  0  0
   20.5792  -13.6958  -20.5047 C   0  0  0  0  0  0  0  0  0  0  0  0
   20.9828  -12.8494  -19.3683 C   0  0  0  0  0  0  0  0  0  0  0  0
   22.1316  -13.3115  -18.5769 C   0  0  2  0  0  0  0  0  0  0  0  0
   21.8628  -14.5189  -17.8803 N   0  0  0  0  0  0  0  0  0  0  0  0
   22.5175  -12.1977  -17.6245 C   0  0  0  0  0  0  0  0  0  0  0  0
   21.9128  -12.1985  -16.5227 O   0  0  0  0  0  0  0  0  0  0  0  0
   27.5541  -12.2918  -14.8179 C   0  0  0  0  0  0  0  0  0  0  0  0
   26.2476  -11.1292  -15.3119 S   0  0  0  0  0  0  0  0  0  0  0  0
   26.2998  -10.8241  -17.0991 C   0  0  0  0  0  0  0  0  0  0  0  0
   25.2993   -9.7354  -17.3942 C   0  0  0  0  0  0  0  0  0  0  0  0
   23.8704  -10.2119  -17.0729 C   0  0  2  0  0  0  0  0  0  0  0  0
   23.4922  -11.2378  -17.9740 N   0  0  0  0  0  0  0  0  0  0  0  0
   23.0379   -8.9845  -17.1808 C   0  0  0  0  0  0  0  0  0  0  0  0
   23.0072   -8.3921  -18.2865 O   0  0  0  0  0  0  0  0  0  0  0  0
   17.0411   -8.2414  -15.3498 C   0  0  0  0  0  0  0  0  0  0  0  0
   17.3785   -7.0142  -16.6400 S   0  0  0  0  0  0  0  0  0  0  0  0
   19.0875   -6.4339  -16.4188 C   0  0  0  0  0  0  0  0  0  0  0  0
   20.0131   -7.6210  -16.3751 C   0  0  0  0  0  0  0  0  0  0  0  0
   21.4631   -7.2701  -16.1782 C   0  0  2  0  0  0  0  0  0  0  0  0
   22.2876   -8.4644  -16.0986 N   0  0  0  0  0  0  0  0  0  0  0  0
   21.7184   -6.4559  -14.9807 C   0  0  0  0  0  0  0  0  0  0  0  0
   22.1175   -7.0403  -13.9241 O   0  0  0  0  0  0  0  0  0  0  0  0
   21.5723   -5.0867  -14.8663 O   0  0  0  0  0  0  0  0  0  0  0  0
  1  2  1  0
  3  2  1  0
  4  3  1  0
  5  6  1  1
  5  4  1  0
  7  5  1  0
  8  7  2  0
 10  9  1  0
 11 12  1  0
 11 10  1  0
 13 12  1  6
 13 15  1  0
 13 14  1  0
 14  7  1  0
 15 16  2  0
 18 17  1  0
 19 18  1  0
 21 20  1  1
 20 19  1  0
 22 21  1  0
 22 15  1  0
 23 21  1  0
 24 23  2  0
 25 23  1  0
M  END
$$$$
