MMM.pdb
     RDKit          3D

 25 24  0  0  1  0  0  0  0  0999 V2000
   29.3843  -15.6637  -16.8992 C   0  0  0  0  0  0  0  0  0  0  0  0
   28.7020  -17.0443  -16.0140 S   0  0  0  0  0  0  0  0  0  0  0  0
   27.0728  -17.5816  -16.4369 C   0  0  0  0  0  0  0  0  0  0  0  0
   26.5275  -18.7055  -15.6558 C   0  0  0  0  0  0  0  0  0  0  0  0
   27.4996  -19.6645  -15.1128 C   0  0  2  0  0  0  0  0  0  0  0  0
   28.1816  -20.3836  -16.1292 N   0  0  0  0  0  0  0  0  0  0  0  0
   26.7580  -20.5982  -14.1775 C   0  0  0  0  0  0  0  0  0  0  0  0
   26.2369  -21.6036  -14.7229 O   0  0  0  0  0  0  0  0  0  0  0  0
   26.2357  -19.3789   -7.7751 C   0  0  0  0  0  0  0  0  0  0  0  0
   25.5314  -21.0505   -7.8848 S   0  0  0  0  0  0  0  0  0  0  0  0
   25.0709  -21.4439   -9.5946 C   0  0  0  0  0  0  0  0  0  0  0  0
   25.9771  -20.6429  -10.4950 C   0  0  0  0  0  0  0  0  0  0  0  0
   25.7432  -21.0183  -11.9703 C   0  0  2  0  0  0  0  0  0  0  0  0
   26.6728  -20.3351  -12.7930 N   0  0  0  0  0  0  0  0  0  0  0  0
   24.3277  -20.6422  -12.2279 C   0  0  0  0  0  0  0  0  0  0  0  0
   24.0687  -19.4295  -12.4192 O   0  0  0  0  0  0  0  0  0  0  0  0
   21.4199  -22.0054  -17.1738 C   0  0  0  0  0  0  0  0  0  0  0  0
   20.0115  -22.4938  -16.1431 S   0  0  0  0  0  0  0  0  0  0  0  0
   20.2120  -21.7000  -14.5195 C   0  0  0  0  0  0  0  0  0  0  0  0
   21.6103  -21.9445  -14.0165 C   0  0  0  0  0  0  0  0  0  0  0  0
   21.9213  -21.2818  -12.7018 C   0  0  2  0  0  0  0  0  0  0  0  0
   23.2738  -21.5869  -12.2655 N   0  0  0  0  0  0  0  0  0  0  0  0
   20.9964  -21.6494  -11.6194 C   0  0  0  0  0  0  0  0  0  0  0  0
   19.9248  -20.9783  -11.4838 O   0  0  0  0  0  0  0  0  0  0  0  0
   21.1601  -22.6720  -10.7048 O   0  0  0  0  0  0  0  0  0  0  0  0
  1  2  1  0
  3  2  1  0
  4  3  1  0
  5  6  1  6
  5  4  1  0
  7  5  1  0
  8  7  2  0
 10  9  1  0
 11 12  1  0
 11 10  1  0
 13 12  1  1
 13 15  1  0
 13 14  1  0
 14  7  1  0
 15 16  2  0
 18 17  1  0
 19 18  1  0
 21 20  1  6
 20 19  1  0
 22 21  1  0
 22 15  1  0
 23 21  1  0
 24 23  2  0
 25 23  1  0
M  END
$$$$
