MMM.pdb
     RDKit          3D

 25 24  0  0  1  0  0  0  0  0999 V2000
   25.7892  -17.0749  -16.9100 C   0  0  0  0  0  0  0  0  0  0  0  0
   27.5241  -17.1169  -16.5314 S   0  0  0  0  0  0  0  0  0  0  0  0
   28.1735  -18.5685  -15.7613 C   0  0  0  0  0  0  0  0  0  0  0  0
   27.2763  -19.2778  -14.8326 C   0  0  0  0  0  0  0  0  0  0  0  0
   27.7747  -20.5398  -14.2684 C   0  0  2  0  0  0  0  0  0  0  0  0
   28.0249  -21.5204  -15.2639 N   0  0  0  0  0  0  0  0  0  0  0  0
   26.7600  -21.0278  -13.2541 C   0  0  0  0  0  0  0  0  0  0  0  0
   25.9533  -21.8949  -13.6748 O   0  0  0  0  0  0  0  0  0  0  0  0
   26.3411  -19.2817   -6.9074 C   0  0  0  0  0  0  0  0  0  0  0  0
   27.4656  -20.6449   -7.3311 S   0  0  0  0  0  0  0  0  0  0  0  0
   27.0435  -21.3482   -8.9488 C   0  0  0  0  0  0  0  0  0  0  0  0
   26.0788  -20.3965   -9.6098 C   0  0  0  0  0  0  0  0  0  0  0  0
   25.7178  -20.8875  -11.0243 C   0  0  2  0  0  0  0  0  0  0  0  0
   26.7430  -20.5277  -11.9339 N   0  0  0  0  0  0  0  0  0  0  0  0
   24.4081  -20.2464  -11.3156 C   0  0  0  0  0  0  0  0  0  0  0  0
   24.4095  -19.0396  -11.6592 O   0  0  0  0  0  0  0  0  0  0  0  0
   23.1394  -22.4337  -16.1389 C   0  0  0  0  0  0  0  0  0  0  0  0
   21.9624  -21.0582  -16.2221 S   0  0  0  0  0  0  0  0  0  0  0  0
   21.3284  -20.7695  -14.5424 C   0  0  0  0  0  0  0  0  0  0  0  0
   22.4581  -20.9034  -13.5556 C   0  0  0  0  0  0  0  0  0  0  0  0
   22.0512  -20.7206  -12.1184 C   0  0  2  0  0  0  0  0  0  0  0  0
   23.1748  -20.9354  -11.2218 N   0  0  0  0  0  0  0  0  0  0  0  0
   20.9528  -21.6027  -11.6967 C   0  0  0  0  0  0  0  0  0  0  0  0
   19.7576  -21.1911  -11.8355 O   0  0  0  0  0  0  0  0  0  0  0  0
   21.0715  -22.8667  -11.1517 O   0  0  0  0  0  0  0  0  0  0  0  0
  1  2  1  0
  3  2  1  0
  4  3  1  0
  5  6  1  6
  5  4  1  0
  7  5  1  0
  8  7  2  0
 10  9  1  0
 11 12  1  0
 11 10  1  0
 13 12  1  1
 13 15  1  0
 13 14  1  0
 14  7  1  0
 15 16  2  0
 18 17  1  0
 19 18  1  0
 21 20  1  6
 20 19  1  0
 22 21  1  0
 22 15  1  0
 23 21  1  0
 24 23  2  0
 25 23  1  0
M  END
$$$$
