RDH.pdb
     RDKit          3D

 30 30  0  0  1  0  0  0  0  0999 V2000
    8.5442  -13.5663   20.3639 N   0  0  0  0  0  0  0  0  0  0  0  0
    8.4699  -13.0977   19.0186 C   0  0  0  0  0  0  0  0  0  0  0  0
    8.1286  -11.8875   18.7929 N   0  0  0  0  0  0  0  0  0  0  0  0
    8.7802  -13.9915   17.9314 N   0  0  0  0  0  0  0  0  0  0  0  0
    9.2789  -15.3012   18.2615 C   0  0  0  0  0  0  0  0  0  0  0  0
    9.4591  -16.0623   16.9666 C   0  0  0  0  0  0  0  0  0  0  0  0
   10.1769  -17.3695   17.1826 C   0  0  0  0  0  0  0  0  0  0  0  0
    9.3227  -18.3347   17.9729 C   0  0  2  0  0  0  0  0  0  0  0  0
    7.9428  -17.9321   18.0177 N   0  0  0  0  0  0  0  0  0  0  0  0
    9.8184  -18.5239   19.3513 C   0  0  0  0  0  0  0  0  0  0  0  0
    9.1659  -18.0681   20.3414 O   0  0  0  0  0  0  0  0  0  0  0  0
    8.0779  -11.4943   17.8361 N   0  0  0  0  0  0  0  0  0  0  0  0
   11.0217  -19.2141   19.5659 C   0  0  1  0  0  0  0  0  0  0  0  0
   11.4977  -19.4820   20.9571 C   0  0  0  0  0  0  0  0  0  0  0  0
   12.0983  -20.8462   20.9076 C   0  0  0  0  0  0  0  0  0  0  0  0
   11.4617  -21.9055   21.6331 O   0  0  0  0  0  0  0  0  0  0  0  0
   10.4845  -21.9135   22.4019 C   0  0  0  0  0  0  0  0  0  0  0  0
   12.5342  -18.4663   21.1747 O   0  0  0  0  0  0  0  0  0  0  0  0
   13.1075  -17.9012   20.1887 O   0  0  0  0  0  0  0  0  0  0  0  0
   12.0351  -23.2055   21.4600 N   0  0  0  0  0  0  0  0  0  0  0  0
   12.9481  -18.0556   22.4367 C   0  0  1  0  0  0  0  0  0  0  0  0
   13.4881  -16.6843   22.6655 C   0  0  0  0  0  0  0  0  0  0  0  0
   12.3176  -15.7853   22.3346 C   0  0  0  0  0  0  0  0  0  0  0  0
   12.4546  -15.0755   21.0447 C   0  0  0  0  0  0  0  0  0  0  0  0
   13.5913  -15.1872   20.2474 N   0  0  0  0  0  0  0  0  0  0  0  0
   13.4012  -14.4357   19.1680 C   0  0  0  0  0  0  0  0  0  0  0  0
   12.1963  -13.8751   19.2812 N   0  0  0  0  0  0  0  0  0  0  0  0
   11.6033  -14.2566   20.4250 C   0  0  0  0  0  0  0  0  0  0  0  0
   13.8780  -16.6385   24.0839 O   0  0  0  0  0  0  0  0  0  0  0  0
   13.2724  -17.4643   25.0027 O   0  0  0  0  0  0  0  0  0  0  0  0
  1  2  1  0
  2  3  2  0
  4  2  1  0
  5  4  1  0
  6  5  1  0
  7  6  1  0
  8 10  1  0
  8  7  1  0
  8  9  1  1
 10 11  2  0
 12 13  1  0
 12 10  1  0
 13 14  1  1
 15 19  1  0
 15 14  1  0
 16 15  2  0
 17 13  1  0
 18 17  2  0
 20 17  1  0
 21 20  1  0
 21 22  1  6
 23 22  1  0
 24 23  2  0
 25 24  1  0
 26 25  1  0
 26 27  2  0
 27 23  1  0
 28 21  1  0
 28 29  1  0
 30 28  2  0
M  END
$$$$
