RDH.pdb
     RDKit          3D

 30 30  0  0  1  0  0  0  0  0999 V2000
    7.9101  -14.8243   14.4981 N   0  0  0  0  0  0  0  0  0  0  0  0
    9.0639  -14.5060   15.2744 C   0  0  0  0  0  0  0  0  0  0  0  0
   10.2105  -14.9225   14.8954 N   0  0  0  0  0  0  0  0  0  0  0  0
    8.9244  -13.7199   16.4743 N   0  0  0  0  0  0  0  0  0  0  0  0
    8.8813  -14.4184   17.7326 C   0  0  0  0  0  0  0  0  0  0  0  0
    7.4635  -14.3362   18.2536 C   0  0  0  0  0  0  0  0  0  0  0  0
    7.3866  -13.5603   19.5430 C   0  0  0  0  0  0  0  0  0  0  0  0
    8.6673  -13.6940   20.3354 C   0  0  2  0  0  0  0  0  0  0  0  0
    9.8368  -13.5659   19.5083 N   0  0  0  0  0  0  0  0  0  0  0  0
    8.7363  -14.9677   21.0800 C   0  0  0  0  0  0  0  0  0  0  0  0
    7.6794  -15.5166   21.5218 O   0  0  0  0  0  0  0  0  0  0  0  0
   11.0572  -14.8304   15.4846 N   0  0  0  0  0  0  0  0  0  0  0  0
    9.9828  -15.5747   21.2996 C   0  0  2  0  0  0  0  0  0  0  0  0
   10.0716  -16.8556   22.0647 C   0  0  0  0  0  0  0  0  0  0  0  0
   11.3964  -17.4358   21.7009 C   0  0  0  0  0  0  0  0  0  0  0  0
   11.5203  -18.1462   20.4625 O   0  0  0  0  0  0  0  0  0  0  0  0
   10.7761  -18.9685   19.9002 C   0  0  0  0  0  0  0  0  0  0  0  0
   10.0605  -16.4270   23.4682 O   0  0  0  0  0  0  0  0  0  0  0  0
   10.8919  -15.5602   23.8896 O   0  0  0  0  0  0  0  0  0  0  0  0
   12.7103  -17.8801   19.7130 N   0  0  0  0  0  0  0  0  0  0  0  0
    9.1632  -16.9181   24.4095 C   0  0  1  0  0  0  0  0  0  0  0  0
    9.2199  -16.4806   25.8342 C   0  0  0  0  0  0  0  0  0  0  0  0
    7.7680  -16.2496   26.1897 C   0  0  0  0  0  0  0  0  0  0  0  0
    7.2683  -14.9076   25.8212 C   0  0  0  0  0  0  0  0  0  0  0  0
    8.0868  -13.9366   25.2490 N   0  0  0  0  0  0  0  0  0  0  0  0
    7.3427  -12.8558   25.0390 C   0  0  0  0  0  0  0  0  0  0  0  0
    6.1087  -13.1347   25.4611 N   0  0  0  0  0  0  0  0  0  0  0  0
    6.0461  -14.3874   25.9431 C   0  0  0  0  0  0  0  0  0  0  0  0
    9.8323  -17.5970   26.5723 O   0  0  0  0  0  0  0  0  0  0  0  0
   10.3837  -17.3940   27.8164 O   0  0  0  0  0  0  0  0  0  0  0  0
  1  2  1  0
  2  3  2  0
  4  2  1  0
  5  4  1  0
  6  5  1  0
  7  6  1  0
  8 10  1  0
  8  7  1  0
  8  9  1  6
 10 11  2  0
 12 13  1  0
 12 10  1  0
 13 14  1  6
 15 19  1  0
 15 14  1  0
 16 15  2  0
 17 13  1  0
 18 17  2  0
 20 17  1  0
 21 20  1  0
 21 22  1  1
 23 22  1  0
 24 23  2  0
 25 24  1  0
 26 25  1  0
 26 27  2  0
 27 23  1  0
 28 21  1  0
 28 29  1  0
 30 28  2  0
M  END
$$$$
