RDH.pdb
     RDKit          3D

 30 30  0  0  1  0  0  0  0  0999 V2000
    7.7815  -12.5579   17.7196 N   0  0  0  0  0  0  0  0  0  0  0  0
    8.4134  -13.6818   17.1091 C   0  0  0  0  0  0  0  0  0  0  0  0
    8.1963  -13.9310   15.8752 N   0  0  0  0  0  0  0  0  0  0  0  0
    9.2881  -14.5214   17.8883 N   0  0  0  0  0  0  0  0  0  0  0  0
    9.3622  -14.2800   19.3058 C   0  0  0  0  0  0  0  0  0  0  0  0
    9.2576  -15.6178   20.0042 C   0  0  0  0  0  0  0  0  0  0  0  0
    9.6498  -16.7541   19.0955 C   0  0  0  0  0  0  0  0  0  0  0  0
    9.4269  -18.0898   19.7678 C   0  0  2  0  0  0  0  0  0  0  0  0
    8.0310  -18.3793   19.9575 N   0  0  0  0  0  0  0  0  0  0  0  0
   10.1240  -18.1881   21.0662 C   0  0  0  0  0  0  0  0  0  0  0  0
    9.5857  -18.7926   22.0451 O   0  0  0  0  0  0  0  0  0  0  0  0
    8.6538  -14.7162   15.3786 N   0  0  0  0  0  0  0  0  0  0  0  0
   11.3929  -17.6070   21.2165 C   0  0  2  0  0  0  0  0  0  0  0  0
   12.2733  -18.0065   22.3564 C   0  0  0  0  0  0  0  0  0  0  0  0
   13.6607  -17.7009   21.9030 C   0  0  0  0  0  0  0  0  0  0  0  0
   14.7517  -17.9777   22.7901 O   0  0  0  0  0  0  0  0  0  0  0  0
   14.8536  -18.7414   23.7661 C   0  0  0  0  0  0  0  0  0  0  0  0
   11.8716  -17.1048   23.4422 O   0  0  0  0  0  0  0  0  0  0  0  0
   12.6105  -16.9527   24.4675 O   0  0  0  0  0  0  0  0  0  0  0  0
   15.9600  -17.2563   22.5287 N   0  0  0  0  0  0  0  0  0  0  0  0
   10.6925  -16.3686   23.4268 C   0  0  1  0  0  0  0  0  0  0  0  0
    9.8795  -16.1842   24.6635 C   0  0  0  0  0  0  0  0  0  0  0  0
    8.4748  -16.5207   24.2147 C   0  0  0  0  0  0  0  0  0  0  0  0
    7.8863  -15.5244   23.2941 C   0  0  0  0  0  0  0  0  0  0  0  0
    8.5463  -14.3489   22.9442 N   0  0  0  0  0  0  0  0  0  0  0  0
    7.7589  -13.6783   22.1098 C   0  0  0  0  0  0  0  0  0  0  0  0
    6.6507  -14.4009   21.9418 N   0  0  0  0  0  0  0  0  0  0  0  0
    6.7126  -15.5348   22.6603 C   0  0  0  0  0  0  0  0  0  0  0  0
   10.4230  -17.1353   25.6463 O   0  0  0  0  0  0  0  0  0  0  0  0
   11.0047  -18.3119   25.2333 O   0  0  0  0  0  0  0  0  0  0  0  0
  1  2  1  0
  2  3  2  0
  4  2  1  0
  5  4  1  0
  6  5  1  0
  7  6  1  0
  8 10  1  0
  8  7  1  0
  8  9  1  1
 10 11  2  0
 12 13  1  0
 12 10  1  0
 13 14  1  6
 15 19  1  0
 15 14  1  0
 16 15  2  0
 17 13  1  0
 18 17  2  0
 20 17  1  0
 21 20  1  0
 21 22  1  1
 23 22  1  0
 24 23  2  0
 25 24  1  0
 26 25  1  0
 26 27  2  0
 27 23  1  0
 28 21  1  0
 28 29  1  0
 30 28  2  0
M  END
$$$$
