RDH.pdb
     RDKit          3D

 30 30  0  0  1  0  0  0  0  0999 V2000
    9.2199  -13.8399   16.0017 N   0  0  0  0  0  0  0  0  0  0  0  0
    7.8478  -13.6692   16.3526 C   0  0  0  0  0  0  0  0  0  0  0  0
    6.9393  -14.0682   15.5480 N   0  0  0  0  0  0  0  0  0  0  0  0
    7.5017  -13.0508   17.6076 N   0  0  0  0  0  0  0  0  0  0  0  0
    8.3390  -13.3285   18.7455 C   0  0  0  0  0  0  0  0  0  0  0  0
    8.4313  -14.8315   18.8901 C   0  0  0  0  0  0  0  0  0  0  0  0
    9.3302  -15.2283   20.0326 C   0  0  0  0  0  0  0  0  0  0  0  0
    9.4803  -16.7307   20.1100 C   0  0  2  0  0  0  0  0  0  0  0  0
    8.3929  -17.4217   19.4709 N   0  0  0  0  0  0  0  0  0  0  0  0
    9.6103  -17.2110   21.5006 C   0  0  0  0  0  0  0  0  0  0  0  0
    8.6127  -17.7098   22.1085 O   0  0  0  0  0  0  0  0  0  0  0  0
    5.9299  -13.9738   15.7595 N   0  0  0  0  0  0  0  0  0  0  0  0
   10.8491  -17.1139   22.1537 C   0  0  1  0  0  0  0  0  0  0  0  0
   10.9976  -17.5956   23.5608 C   0  0  0  0  0  0  0  0  0  0  0  0
   12.4141  -18.0492   23.6700 C   0  0  0  0  0  0  0  0  0  0  0  0
   12.6761  -19.3926   24.0947 O   0  0  0  0  0  0  0  0  0  0  0  0
   11.9316  -20.2787   24.5493 C   0  0  0  0  0  0  0  0  0  0  0  0
   10.7746  -16.3913   24.3690 O   0  0  0  0  0  0  0  0  0  0  0  0
   10.7947  -15.2365   23.8338 O   0  0  0  0  0  0  0  0  0  0  0  0
   14.0376  -19.8210   23.9872 N   0  0  0  0  0  0  0  0  0  0  0  0
   10.5264  -16.4243   25.7364 C   0  0  1  0  0  0  0  0  0  0  0  0
    9.8448  -15.2914   26.4265 C   0  0  0  0  0  0  0  0  0  0  0  0
    8.5263  -15.1753   25.6944 C   0  0  0  0  0  0  0  0  0  0  0  0
    7.6727  -14.0663   26.1718 C   0  0  0  0  0  0  0  0  0  0  0  0
    8.0628  -13.2130   27.2013 N   0  0  0  0  0  0  0  0  0  0  0  0
    7.0845  -12.3331   27.3872 C   0  0  0  0  0  0  0  0  0  0  0  0
    6.1200  -12.6204   26.5120 N   0  0  0  0  0  0  0  0  0  0  0  0
    6.4644  -13.6793   25.7600 C   0  0  0  0  0  0  0  0  0  0  0  0
    9.6994  -15.7065   27.8309 O   0  0  0  0  0  0  0  0  0  0  0  0
   10.0236  -16.9860   28.2191 O   0  0  0  0  0  0  0  0  0  0  0  0
  1  2  1  0
  2  3  2  0
  4  2  1  0
  5  4  1  0
  6  5  1  0
  7  6  1  0
  8 10  1  0
  8  7  1  0
  8  9  1  1
 10 11  2  0
 12 13  1  0
 12 10  1  0
 13 14  1  1
 15 19  1  0
 15 14  1  0
 16 15  2  0
 17 13  1  0
 18 17  2  0
 20 17  1  0
 21 20  1  0
 21 22  1  6
 23 22  1  0
 24 23  2  0
 25 24  1  0
 26 25  1  0
 26 27  2  0
 27 23  1  0
 28 21  1  0
 28 29  1  0
 30 28  2  0
M  END
$$$$
