RDH.pdb
     RDKit          3D

 30 30  0  0  1  0  0  0  0  0999 V2000
    9.8152  -12.9442   20.0439 N   0  0  0  0  0  0  0  0  0  0  0  0
    8.8353  -12.7968   19.0177 C   0  0  0  0  0  0  0  0  0  0  0  0
    9.2076  -12.7413   17.7970 N   0  0  0  0  0  0  0  0  0  0  0  0
    7.4397  -12.7129   19.3677 N   0  0  0  0  0  0  0  0  0  0  0  0
    7.0286  -13.2795   20.6259 C   0  0  0  0  0  0  0  0  0  0  0  0
    7.3209  -14.7629   20.5774 C   0  0  0  0  0  0  0  0  0  0  0  0
    8.2299  -15.1898   21.7008 C   0  0  0  0  0  0  0  0  0  0  0  0
    8.4343  -16.6878   21.6957 C   0  0  2  0  0  0  0  0  0  0  0  0
    7.1928  -17.4079   21.6037 N   0  0  0  0  0  0  0  0  0  0  0  0
    9.1807  -17.1566   22.8809 C   0  0  0  0  0  0  0  0  0  0  0  0
    8.5934  -17.8099   23.7983 O   0  0  0  0  0  0  0  0  0  0  0  0
    8.5622  -12.4771   17.0313 N   0  0  0  0  0  0  0  0  0  0  0  0
   10.5517  -16.8759   22.9914 C   0  0  2  0  0  0  0  0  0  0  0  0
   11.3343  -17.3931   24.1550 C   0  0  0  0  0  0  0  0  0  0  0  0
   12.7600  -17.3383   23.7211 C   0  0  0  0  0  0  0  0  0  0  0  0
   13.2941  -18.4365   22.9711 O   0  0  0  0  0  0  0  0  0  0  0  0
   14.3234  -18.5477   22.2824 C   0  0  0  0  0  0  0  0  0  0  0  0
   11.0763  -16.4115   25.2149 O   0  0  0  0  0  0  0  0  0  0  0  0
   11.4753  -15.2085   25.0978 O   0  0  0  0  0  0  0  0  0  0  0  0
   12.5213  -19.6409   23.0023 N   0  0  0  0  0  0  0  0  0  0  0  0
   10.3920  -16.7146   26.3864 C   0  0  1  0  0  0  0  0  0  0  0  0
   10.1864  -15.6892   27.4497 C   0  0  0  0  0  0  0  0  0  0  0  0
    8.6810  -15.5973   27.5639 C   0  0  0  0  0  0  0  0  0  0  0  0
    8.0582  -14.7085   26.5597 C   0  0  0  0  0  0  0  0  0  0  0  0
    8.7918  -13.7769   25.8289 N   0  0  0  0  0  0  0  0  0  0  0  0
    7.9479  -13.1451   25.0199 C   0  0  0  0  0  0  0  0  0  0  0  0
    6.7349  -13.6572   25.2325 N   0  0  0  0  0  0  0  0  0  0  0  0
    6.7850  -14.6159   26.1727 C   0  0  0  0  0  0  0  0  0  0  0  0
   10.8327  -16.2283   28.6570 O   0  0  0  0  0  0  0  0  0  0  0  0
   10.9359  -15.4633   29.7959 O   0  0  0  0  0  0  0  0  0  0  0  0
  1  2  1  0
  2  3  2  0
  4  2  1  0
  5  4  1  0
  6  5  1  0
  7  6  1  0
  8 10  1  0
  8  7  1  0
  8  9  1  1
 10 11  2  0
 12 13  1  0
 12 10  1  0
 13 14  1  6
 15 19  1  0
 15 14  1  0
 16 15  2  0
 17 13  1  0
 18 17  2  0
 20 17  1  0
 21 20  1  0
 21 22  1  6
 23 22  1  0
 24 23  2  0
 25 24  1  0
 26 25  1  0
 26 27  2  0
 27 23  1  0
 28 21  1  0
 28 29  1  0
 30 28  2  0
M  END
$$$$
