RDH.pdb
     RDKit          3D

 30 30  0  0  1  0  0  0  0  0999 V2000
    8.8034  -12.5074   20.0533 N   0  0  0  0  0  0  0  0  0  0  0  0
    8.3861  -13.0676   18.8095 C   0  0  0  0  0  0  0  0  0  0  0  0
    9.0829  -12.8560   17.7600 N   0  0  0  0  0  0  0  0  0  0  0  0
    7.1868  -13.8646   18.7502 N   0  0  0  0  0  0  0  0  0  0  0  0
    6.5757  -14.2505   19.9955 C   0  0  0  0  0  0  0  0  0  0  0  0
    6.6198  -15.7603   20.0786 C   0  0  0  0  0  0  0  0  0  0  0  0
    6.7320  -16.2379   21.5034 C   0  0  0  0  0  0  0  0  0  0  0  0
    7.7632  -15.4372   22.2658 C   0  0  2  0  0  0  0  0  0  0  0  0
    8.6079  -14.6651   21.3949 N   0  0  0  0  0  0  0  0  0  0  0  0
    8.6058  -16.2868   23.1316 C   0  0  0  0  0  0  0  0  0  0  0  0
    8.0832  -17.1855   23.8615 O   0  0  0  0  0  0  0  0  0  0  0  0
    8.7342  -13.0724   16.8092 N   0  0  0  0  0  0  0  0  0  0  0  0
    9.9965  -16.0970   23.1456 C   0  0  2  0  0  0  0  0  0  0  0  0
   10.8618  -16.9368   24.0288 C   0  0  0  0  0  0  0  0  0  0  0  0
   12.2481  -16.7431   23.5144 C   0  0  0  0  0  0  0  0  0  0  0  0
   12.6981  -17.5572   22.4243 O   0  0  0  0  0  0  0  0  0  0  0  0
   12.3371  -18.6767   22.0212 C   0  0  0  0  0  0  0  0  0  0  0  0
   10.7094  -16.3244   25.3536 O   0  0  0  0  0  0  0  0  0  0  0  0
   11.2072  -15.1794   25.6015 O   0  0  0  0  0  0  0  0  0  0  0  0
   13.7581  -17.0054   21.6365 N   0  0  0  0  0  0  0  0  0  0  0  0
   10.0250  -16.9304   26.4009 C   0  0  1  0  0  0  0  0  0  0  0  0
    9.8573  -16.2449   27.7148 C   0  0  0  0  0  0  0  0  0  0  0  0
    8.3589  -16.0789   27.8366 C   0  0  0  0  0  0  0  0  0  0  0  0
    7.8292  -14.8923   27.1310 C   0  0  0  0  0  0  0  0  0  0  0  0
    8.6549  -13.9849   26.4714 N   0  0  0  0  0  0  0  0  0  0  0  0
    7.8786  -13.0437   25.9446 C   0  0  0  0  0  0  0  0  0  0  0  0
    6.6183  -13.3459   26.2593 N   0  0  0  0  0  0  0  0  0  0  0  0
    6.5705  -14.4753   26.9858 C   0  0  0  0  0  0  0  0  0  0  0  0
   10.4282  -17.1571   28.7188 O   0  0  0  0  0  0  0  0  0  0  0  0
   10.5334  -16.7709   30.0351 O   0  0  0  0  0  0  0  0  0  0  0  0
  1  2  1  0
  2  3  2  0
  4  2  1  0
  5  4  1  0
  6  5  1  0
  7  6  1  0
  8 10  1  0
  8  7  1  0
  8  9  1  6
 10 11  2  0
 12 13  1  0
 12 10  1  0
 13 14  1  6
 15 19  1  0
 15 14  1  0
 16 15  2  0
 17 13  1  0
 18 17  2  0
 20 17  1  0
 21 20  1  0
 21 22  1  1
 23 22  1  0
 24 23  2  0
 25 24  1  0
 26 25  1  0
 26 27  2  0
 27 23  1  0
 28 21  1  0
 28 29  1  0
 30 28  2  0
M  END
$$$$
