RDH.pdb
     RDKit          3D

 30 30  0  0  1  0  0  0  0  0999 V2000
    6.8536  -13.4396   20.3816 N   0  0  0  0  0  0  0  0  0  0  0  0
    7.7906  -13.3302   19.3114 C   0  0  0  0  0  0  0  0  0  0  0  0
    8.2475  -12.1809   18.9916 N   0  0  0  0  0  0  0  0  0  0  0  0
    8.2112  -14.5138   18.6048 N   0  0  0  0  0  0  0  0  0  0  0  0
    7.9657  -15.7890   19.2268 C   0  0  0  0  0  0  0  0  0  0  0  0
    9.3077  -16.4324   19.4974 C   0  0  0  0  0  0  0  0  0  0  0  0
    9.6446  -16.4246   20.9661 C   0  0  0  0  0  0  0  0  0  0  0  0
    9.9127  -17.8246   21.4700 C   0  0  2  0  0  0  0  0  0  0  0  0
    9.5061  -18.8314   20.5271 N   0  0  0  0  0  0  0  0  0  0  0  0
    9.2638  -18.0869   22.7706 C   0  0  0  0  0  0  0  0  0  0  0  0
    9.3235  -17.2311   23.7074 O   0  0  0  0  0  0  0  0  0  0  0  0
    8.8985  -12.0436   18.1979 N   0  0  0  0  0  0  0  0  0  0  0  0
    8.5755  -19.2940   22.9700 C   0  0  1  0  0  0  0  0  0  0  0  0
    7.8718  -19.5542   24.2627 C   0  0  0  0  0  0  0  0  0  0  0  0
    6.9893  -20.7267   23.9969 C   0  0  0  0  0  0  0  0  0  0  0  0
    5.8251  -20.5415   23.1820 O   0  0  0  0  0  0  0  0  0  0  0  0
    5.1584  -19.5287   22.9065 C   0  0  0  0  0  0  0  0  0  0  0  0
    8.9545  -19.9179   25.1841 O   0  0  0  0  0  0  0  0  0  0  0  0
    9.7293  -20.8936   24.9237 O   0  0  0  0  0  0  0  0  0  0  0  0
    5.3129  -21.7230   22.5574 N   0  0  0  0  0  0  0  0  0  0  0  0
    9.2083  -19.2387   26.3702 C   0  0  1  0  0  0  0  0  0  0  0  0
   10.3483  -19.6217   27.2523 C   0  0  0  0  0  0  0  0  0  0  0  0
   11.2961  -18.4492   27.1318 C   0  0  0  0  0  0  0  0  0  0  0  0
   12.0215  -18.3964   25.8444 C   0  0  0  0  0  0  0  0  0  0  0  0
   13.2315  -19.0557   25.6409 N   0  0  0  0  0  0  0  0  0  0  0  0
   13.6172  -18.8128   24.3926 C   0  0  0  0  0  0  0  0  0  0  0  0
   12.6896  -18.0339   23.8344 N   0  0  0  0  0  0  0  0  0  0  0  0
   11.7053  -17.7695   24.7102 C   0  0  0  0  0  0  0  0  0  0  0  0
    9.7779  -19.7765   28.6001 O   0  0  0  0  0  0  0  0  0  0  0  0
   10.5438  -20.2696   29.6313 O   0  0  0  0  0  0  0  0  0  0  0  0
  1  2  1  0
  2  3  2  0
  4  2  1  0
  5  4  1  0
  6  5  1  0
  7  6  1  0
  8 10  1  0
  8  7  1  0
  8  9  1  6
 10 11  2  0
 12 13  1  0
 12 10  1  0
 13 14  1  1
 15 19  1  0
 15 14  1  0
 16 15  2  0
 17 13  1  0
 18 17  2  0
 20 17  1  0
 21 20  1  0
 21 22  1  1
 23 22  1  0
 24 23  2  0
 25 24  1  0
 26 25  1  0
 26 27  2  0
 27 23  1  0
 28 21  1  0
 28 29  1  0
 30 28  2  0
M  END
$$$$
