LIY.pdb
     RDKit          3D

 29 29  0  0  1  0  0  0  0  0999 V2000
   28.0371  -22.2776  -19.0665 C   0  0  0  0  0  0  0  0  0  0  0  0
   28.2256  -21.6494  -17.7276 C   0  0  1  0  0  0  0  0  0  0  0  0
   28.5917  -20.1947  -17.9194 C   0  0  0  0  0  0  0  0  0  0  0  0
   27.0464  -21.8178  -16.8087 C   0  0  0  0  0  0  0  0  0  0  0  0
   27.1598  -21.0281  -15.5486 C   0  0  2  0  0  0  0  0  0  0  0  0
   28.3693  -21.4308  -14.8567 N   0  0  0  0  0  0  0  0  0  0  0  0
   26.0002  -21.3536  -14.6719 C   0  0  0  0  0  0  0  0  0  0  0  0
   25.0258  -22.0506  -15.0992 O   0  0  0  0  0  0  0  0  0  0  0  0
   26.6727  -20.6464   -9.2388 C   0  0  0  0  0  0  0  0  0  0  0  0
   26.4127  -21.3614  -10.5780 C   0  0  0  0  0  0  0  0  0  0  0  0
   25.1445  -20.7977  -11.1078 C   0  0  2  0  0  0  0  0  0  0  0  0
   23.9930  -20.9310  -10.1206 C   0  0  0  0  0  0  0  0  0  0  0  0
   24.7381  -21.2584  -12.4814 C   0  0  2  0  0  0  0  0  0  0  0  0
   25.9135  -20.9117  -13.3251 N   0  0  0  0  0  0  0  0  0  0  0  0
   23.5366  -20.6107  -13.0241 C   0  0  0  0  0  0  0  0  0  0  0  0
   23.4143  -19.3405  -12.9680 O   0  0  0  0  0  0  0  0  0  0  0  0
   16.2723  -18.3892  -17.3091 O   0  0  0  0  0  0  0  0  0  0  0  0
   17.4694  -18.9446  -16.8810 C   0  0  0  0  0  0  0  0  0  0  0  0
   18.5699  -18.1353  -16.6520 C   0  0  0  0  0  0  0  0  0  0  0  0
   19.7269  -18.7311  -16.2310 C   0  0  0  0  0  0  0  0  0  0  0  0
   19.8550  -20.0878  -16.0238 C   0  0  0  0  0  0  0  0  0  0  0  0
   21.1060  -20.7266  -15.5754 C   0  0  0  0  0  0  0  0  0  0  0  0
   21.2501  -20.6072  -14.0927 C   0  0  2  0  0  0  0  0  0  0  0  0
   22.4604  -21.2897  -13.6307 N   0  0  0  0  0  0  0  0  0  0  0  0
   20.0929  -21.1331  -13.3524 C   0  0  0  0  0  0  0  0  0  0  0  0
   19.9897  -22.3572  -13.0297 O   0  0  0  0  0  0  0  0  0  0  0  0
   18.7182  -20.8498  -16.2695 C   0  0  0  0  0  0  0  0  0  0  0  0
   17.5366  -20.3057  -16.6913 C   0  0  0  0  0  0  0  0  0  0  0  0
   19.0753  -20.2637  -12.9879 O   0  0  0  0  0  0  0  0  0  0  0  0
  2  1  1  6
  3  2  1  0
  4  2  1  0
  5  4  1  0
  5  6  1  1
  7  8  2  0
  7  5  1  0
  9 10  1  0
 11 10  1  0
 11 13  1  0
 11 12  1  1
 13 15  1  0
 13 14  1  6
 14  7  1  0
 15 16  2  0
 17 18  1  0
 18 19  2  0
 18 28  1  0
 19 20  1  0
 20 21  2  0
 21 22  1  0
 23 22  1  6
 23 25  1  0
 24 23  1  0
 24 15  1  0
 25 26  2  0
 25 29  1  0
 27 21  1  0
 28 27  2  0
M  END
$$$$
