LIY.pdb
     RDKit          3D

 29 29  0  0  1  0  0  0  0  0999 V2000
   29.2229  -16.0720  -16.0047 C   0  0  0  0  0  0  0  0  0  0  0  0
   28.1512  -17.0922  -16.1876 C   0  0  1  0  0  0  0  0  0  0  0  0
   28.7815  -18.3794  -16.6703 C   0  0  0  0  0  0  0  0  0  0  0  0
   27.3023  -17.3041  -14.9640 C   0  0  0  0  0  0  0  0  0  0  0  0
   26.3267  -18.4232  -15.1063 C   0  0  2  0  0  0  0  0  0  0  0  0
   25.3399  -18.0536  -16.1030 N   0  0  0  0  0  0  0  0  0  0  0  0
   25.6194  -18.6116  -13.8088 C   0  0  0  0  0  0  0  0  0  0  0  0
   24.8984  -17.6895  -13.3109 O   0  0  0  0  0  0  0  0  0  0  0  0
   22.1154  -21.9512  -13.5725 C   0  0  0  0  0  0  0  0  0  0  0  0
   23.0078  -20.7162  -13.3470 C   0  0  0  0  0  0  0  0  0  0  0  0
   23.9000  -21.0537  -12.2083 C   0  0  2  0  0  0  0  0  0  0  0  0
   23.1281  -21.5508  -10.9936 C   0  0  0  0  0  0  0  0  0  0  0  0
   24.9045  -20.0027  -11.8203 C   0  0  2  0  0  0  0  0  0  0  0  0
   25.7060  -19.8149  -13.0598 N   0  0  0  0  0  0  0  0  0  0  0  0
   25.7947  -20.3726  -10.7120 C   0  0  0  0  0  0  0  0  0  0  0  0
   26.3995  -21.4976  -10.7258 O   0  0  0  0  0  0  0  0  0  0  0  0
   30.0491  -20.6528   -3.0164 O   0  0  0  0  0  0  0  0  0  0  0  0
   29.4213  -20.2299   -4.1791 C   0  0  0  0  0  0  0  0  0  0  0  0
   29.9583  -20.5480   -5.4156 C   0  0  0  0  0  0  0  0  0  0  0  0
   29.3018  -20.1076   -6.5317 C   0  0  0  0  0  0  0  0  0  0  0  0
   28.1397  -19.3673   -6.4913 C   0  0  0  0  0  0  0  0  0  0  0  0
   27.4384  -18.8897   -7.6972 C   0  0  0  0  0  0  0  0  0  0  0  0
   26.8255  -20.0371   -8.4327 C   0  0  2  0  0  0  0  0  0  0  0  0
   26.0579  -19.5651   -9.5869 N   0  0  0  0  0  0  0  0  0  0  0  0
   25.9553  -20.8700   -7.5885 C   0  0  0  0  0  0  0  0  0  0  0  0
   24.6964  -20.7088   -7.5400 O   0  0  0  0  0  0  0  0  0  0  0  0
   27.6474  -19.0784   -5.2235 C   0  0  0  0  0  0  0  0  0  0  0  0
   28.2635  -19.4938   -4.0753 C   0  0  0  0  0  0  0  0  0  0  0  0
   26.5251  -21.8723   -6.8171 O   0  0  0  0  0  0  0  0  0  0  0  0
  2  1  1  1
  3  2  1  0
  4  2  1  0
  5  4  1  0
  5  6  1  6
  7  8  2  0
  7  5  1  0
  9 10  1  0
 11 10  1  0
 11 13  1  0
 11 12  1  1
 13 15  1  0
 13 14  1  6
 14  7  1  0
 15 16  2  0
 17 18  1  0
 18 19  2  0
 18 28  1  0
 19 20  1  0
 20 21  2  0
 21 22  1  0
 23 22  1  1
 23 25  1  0
 24 23  1  0
 24 15  1  0
 25 26  2  0
 25 29  1  0
 27 21  1  0
 28 27  2  0
M  END
$$$$
