LIY.pdb
     RDKit          3D

 29 29  0  0  1  0  0  0  0  0999 V2000
   27.5834  -17.5217  -16.9726 C   0  0  0  0  0  0  0  0  0  0  0  0
   28.1549  -18.6782  -16.2251 C   0  0  1  0  0  0  0  0  0  0  0  0
   29.3098  -18.1892  -15.3800 C   0  0  0  0  0  0  0  0  0  0  0  0
   27.1402  -19.4333  -15.4106 C   0  0  0  0  0  0  0  0  0  0  0  0
   27.7421  -20.4871  -14.5436 C   0  0  2  0  0  0  0  0  0  0  0  0
   28.2284  -21.5606  -15.3891 N   0  0  0  0  0  0  0  0  0  0  0  0
   26.6810  -21.0450  -13.6592 C   0  0  0  0  0  0  0  0  0  0  0  0
   25.8705  -21.9306  -14.0796 O   0  0  0  0  0  0  0  0  0  0  0  0
   27.2257  -20.7804   -8.2270 C   0  0  0  0  0  0  0  0  0  0  0  0
   26.9614  -21.3662   -9.6268 C   0  0  0  0  0  0  0  0  0  0  0  0
   25.7055  -20.7355  -10.1081 C   0  0  2  0  0  0  0  0  0  0  0  0
   24.5388  -20.9661   -9.1573 C   0  0  0  0  0  0  0  0  0  0  0  0
   25.3154  -21.0380  -11.5295 C   0  0  2  0  0  0  0  0  0  0  0  0
   26.5125  -20.6279  -12.3123 N   0  0  0  0  0  0  0  0  0  0  0  0
   24.1367  -20.3107  -12.0189 C   0  0  0  0  0  0  0  0  0  0  0  0
   24.1317  -19.0335  -12.0280 O   0  0  0  0  0  0  0  0  0  0  0  0
   21.6173  -24.4510  -17.6421 O   0  0  0  0  0  0  0  0  0  0  0  0
   21.6904  -23.3100  -16.8562 C   0  0  0  0  0  0  0  0  0  0  0  0
   20.5324  -22.6580  -16.4659 C   0  0  0  0  0  0  0  0  0  0  0  0
   20.6578  -21.5375  -15.6916 C   0  0  0  0  0  0  0  0  0  0  0  0
   21.8700  -21.0252  -15.2813 C   0  0  0  0  0  0  0  0  0  0  0  0
   22.0007  -19.8135  -14.4513 C   0  0  0  0  0  0  0  0  0  0  0  0
   21.8197  -20.1493  -13.0064 C   0  0  2  0  0  0  0  0  0  0  0  0
   22.9603  -20.9176  -12.5037 N   0  0  0  0  0  0  0  0  0  0  0  0
   20.5826  -20.8973  -12.7344 C   0  0  0  0  0  0  0  0  0  0  0  0
   20.5897  -22.0840  -12.2820 O   0  0  0  0  0  0  0  0  0  0  0  0
   22.9975  -21.7209  -15.7030 C   0  0  0  0  0  0  0  0  0  0  0  0
   22.9292  -22.8460  -16.4775 C   0  0  0  0  0  0  0  0  0  0  0  0
   19.3603  -20.2876  -12.9763 O   0  0  0  0  0  0  0  0  0  0  0  0
  2  1  1  1
  3  2  1  0
  4  2  1  0
  5  4  1  0
  5  6  1  6
  7  8  2  0
  7  5  1  0
  9 10  1  0
 11 10  1  0
 11 13  1  0
 11 12  1  1
 13 15  1  0
 13 14  1  6
 14  7  1  0
 15 16  2  0
 17 18  1  0
 18 19  2  0
 18 28  1  0
 19 20  1  0
 20 21  2  0
 21 22  1  0
 23 22  1  6
 23 25  1  0
 24 23  1  0
 24 15  1  0
 25 26  2  0
 25 29  1  0
 27 21  1  0
 28 27  2  0
M  END
$$$$
