LIY.pdb
     RDKit          3D

 29 29  0  0  1  0  0  0  0  0999 V2000
   26.9393  -17.1441  -16.7852 C   0  0  0  0  0  0  0  0  0  0  0  0
   27.7864  -17.9765  -15.8840 C   0  0  1  0  0  0  0  0  0  0  0  0
   28.6150  -17.0605  -15.0112 C   0  0  0  0  0  0  0  0  0  0  0  0
   27.0071  -18.9754  -15.0730 C   0  0  0  0  0  0  0  0  0  0  0  0
   27.8432  -19.7194  -14.0872 C   0  0  2  0  0  0  0  0  0  0  0  0
   28.7184  -20.6224  -14.8100 N   0  0  0  0  0  0  0  0  0  0  0  0
   26.9500  -20.5408  -13.2230 C   0  0  0  0  0  0  0  0  0  0  0  0
   26.5369  -21.6834  -13.5993 O   0  0  0  0  0  0  0  0  0  0  0  0
   27.0866  -19.9598   -7.8583 C   0  0  0  0  0  0  0  0  0  0  0  0
   27.0180  -20.7236   -9.1941 C   0  0  0  0  0  0  0  0  0  0  0  0
   25.6814  -20.4280   -9.7708 C   0  0  2  0  0  0  0  0  0  0  0  0
   24.5450  -20.9067   -8.8774 C   0  0  0  0  0  0  0  0  0  0  0  0
   25.4668  -20.8548  -11.1976 C   0  0  2  0  0  0  0  0  0  0  0  0
   26.5117  -20.1040  -11.9448 N   0  0  0  0  0  0  0  0  0  0  0  0
   24.1438  -20.5352  -11.7499 C   0  0  0  0  0  0  0  0  0  0  0  0
   23.9515  -19.4219  -12.3457 O   0  0  0  0  0  0  0  0  0  0  0  0
   17.8081  -21.5038  -17.4220 O   0  0  0  0  0  0  0  0  0  0  0  0
   18.8858  -21.6251  -16.5567 C   0  0  0  0  0  0  0  0  0  0  0  0
   19.0729  -22.7938  -15.8372 C   0  0  0  0  0  0  0  0  0  0  0  0
   20.1503  -22.8637  -14.9976 C   0  0  0  0  0  0  0  0  0  0  0  0
   21.0553  -21.8375  -14.8301 C   0  0  0  0  0  0  0  0  0  0  0  0
   22.2123  -21.9151  -13.9193 C   0  0  0  0  0  0  0  0  0  0  0  0
   21.8884  -21.2736  -12.6090 C   0  0  2  0  0  0  0  0  0  0  0  0
   23.0180  -21.3812  -11.6836 N   0  0  0  0  0  0  0  0  0  0  0  0
   20.6900  -21.8357  -11.9675 C   0  0  0  0  0  0  0  0  0  0  0  0
   19.5247  -21.3778  -12.1810 O   0  0  0  0  0  0  0  0  0  0  0  0
   20.8170  -20.6896  -15.5777 C   0  0  0  0  0  0  0  0  0  0  0  0
   19.7559  -20.5666  -16.4316 C   0  0  0  0  0  0  0  0  0  0  0  0
   20.8317  -22.9078  -11.0987 O   0  0  0  0  0  0  0  0  0  0  0  0
  2  1  1  1
  3  2  1  0
  4  2  1  0
  5  4  1  0
  5  6  1  6
  7  8  2  0
  7  5  1  0
  9 10  1  0
 11 10  1  0
 11 13  1  0
 11 12  1  1
 13 15  1  0
 13 14  1  6
 14  7  1  0
 15 16  2  0
 17 18  1  0
 18 19  2  0
 18 28  1  0
 19 20  1  0
 20 21  2  0
 21 22  1  0
 23 22  1  6
 23 25  1  0
 24 23  1  0
 24 15  1  0
 25 26  2  0
 25 29  1  0
 27 21  1  0
 28 27  2  0
M  END
$$$$
