LIY.pdb
     RDKit          3D

 29 29  0  0  1  0  0  0  0  0999 V2000
   25.8117  -18.6092  -18.3845 C   0  0  0  0  0  0  0  0  0  0  0  0
   24.7740  -18.3232  -17.3529 C   0  0  1  0  0  0  0  0  0  0  0  0
   23.4378  -18.1528  -18.0404 C   0  0  0  0  0  0  0  0  0  0  0  0
   24.7157  -19.3477  -16.2530 C   0  0  0  0  0  0  0  0  0  0  0  0
   23.5424  -19.1790  -15.3479 C   0  0  2  0  0  0  0  0  0  0  0  0
   23.6567  -17.8993  -14.6748 N   0  0  0  0  0  0  0  0  0  0  0  0
   23.5787  -20.2475  -14.3104 C   0  0  0  0  0  0  0  0  0  0  0  0
   23.6273  -21.4772  -14.6317 O   0  0  0  0  0  0  0  0  0  0  0  0
   26.4009  -19.3547   -9.9957 C   0  0  0  0  0  0  0  0  0  0  0  0
   25.8253  -20.1371  -11.1911 C   0  0  0  0  0  0  0  0  0  0  0  0
   24.4393  -20.5121  -10.8104 C   0  0  2  0  0  0  0  0  0  0  0  0
   24.3978  -21.4124   -9.5832 C   0  0  0  0  0  0  0  0  0  0  0  0
   23.5746  -21.0585  -11.9140 C   0  0  2  0  0  0  0  0  0  0  0  0
   23.5615  -19.9618  -12.9194 N   0  0  0  0  0  0  0  0  0  0  0  0
   22.1962  -21.3809  -11.5219 C   0  0  0  0  0  0  0  0  0  0  0  0
   21.3392  -20.4460  -11.3705 O   0  0  0  0  0  0  0  0  0  0  0  0
   16.0311  -24.7746   -6.4905 O   0  0  0  0  0  0  0  0  0  0  0  0
   17.0765  -24.1926   -7.1928 C   0  0  0  0  0  0  0  0  0  0  0  0
   16.8258  -23.4926   -8.3614 C   0  0  0  0  0  0  0  0  0  0  0  0
   17.8903  -22.9376   -9.0168 C   0  0  0  0  0  0  0  0  0  0  0  0
   19.1932  -23.0378   -8.5780 C   0  0  0  0  0  0  0  0  0  0  0  0
   20.3385  -22.4427   -9.2909 C   0  0  0  0  0  0  0  0  0  0  0  0
   20.3961  -22.9459  -10.6969 C   0  0  2  0  0  0  0  0  0  0  0  0
   21.7087  -22.6832  -11.2903 N   0  0  0  0  0  0  0  0  0  0  0  0
   19.3562  -22.3698  -11.5631 C   0  0  0  0  0  0  0  0  0  0  0  0
   19.2510  -21.1198  -11.7624 O   0  0  0  0  0  0  0  0  0  0  0  0
   19.3843  -23.7515   -7.4002 C   0  0  0  0  0  0  0  0  0  0  0  0
   18.3562  -24.3263   -6.7052 C   0  0  0  0  0  0  0  0  0  0  0  0
   18.4564  -23.2188  -12.1907 O   0  0  0  0  0  0  0  0  0  0  0  0
  2  1  1  6
  3  2  1  0
  4  2  1  0
  5  4  1  0
  5  6  1  1
  7  8  2  0
  7  5  1  0
  9 10  1  0
 11 10  1  0
 11 13  1  0
 11 12  1  1
 13 15  1  0
 13 14  1  6
 14  7  1  0
 15 16  2  0
 17 18  1  0
 18 19  2  0
 18 28  1  0
 19 20  1  0
 20 21  2  0
 21 22  1  0
 23 22  1  1
 23 25  1  0
 24 23  1  0
 24 15  1  0
 25 26  2  0
 25 29  1  0
 27 21  1  0
 28 27  2  0
M  END
$$$$
