LIY.pdb
     RDKit          3D

 29 29  0  0  1  0  0  0  0  0999 V2000
   34.0343  -28.4382  -21.3737 C   0  0  0  0  0  0  0  0  0  0  0  0
   33.7806  -27.1293  -20.7066 C   0  0  1  0  0  0  0  0  0  0  0  0
   33.0112  -26.2394  -21.6570 C   0  0  0  0  0  0  0  0  0  0  0  0
   33.0978  -27.2526  -19.3719 C   0  0  0  0  0  0  0  0  0  0  0  0
   32.7432  -25.9376  -18.7641 C   0  0  2  0  0  0  0  0  0  0  0  0
   33.8884  -25.4463  -18.0218 N   0  0  0  0  0  0  0  0  0  0  0  0
   31.6250  -26.1398  -17.8007 C   0  0  0  0  0  0  0  0  0  0  0  0
   31.8456  -26.4963  -16.5998 O   0  0  0  0  0  0  0  0  0  0  0  0
   28.5953  -22.2400  -16.8757 C   0  0  0  0  0  0  0  0  0  0  0  0
   29.4324  -23.5225  -16.7115 C   0  0  0  0  0  0  0  0  0  0  0  0
   28.5748  -24.6390  -17.1854 C   0  0  2  0  0  0  0  0  0  0  0  0
   27.1970  -24.6280  -16.5373 C   0  0  0  0  0  0  0  0  0  0  0  0
   29.1878  -26.0122  -17.1344 C   0  0  2  0  0  0  0  0  0  0  0  0
   30.2642  -25.9495  -18.1596 N   0  0  0  0  0  0  0  0  0  0  0  0
   28.2707  -27.1145  -17.4530 C   0  0  0  0  0  0  0  0  0  0  0  0
   27.7623  -27.2061  -18.6212 O   0  0  0  0  0  0  0  0  0  0  0  0
   23.1164  -34.1892  -17.2871 O   0  0  0  0  0  0  0  0  0  0  0  0
   24.0509  -33.2264  -16.9340 C   0  0  0  0  0  0  0  0  0  0  0  0
   23.8539  -32.4448  -15.8077 C   0  0  0  0  0  0  0  0  0  0  0  0
   24.8043  -31.5098  -15.5024 C   0  0  0  0  0  0  0  0  0  0  0  0
   25.9422  -31.3050  -16.2530 C   0  0  0  0  0  0  0  0  0  0  0  0
   26.9615  -30.2917  -15.9233 C   0  0  0  0  0  0  0  0  0  0  0  0
   26.8885  -29.1477  -16.8820 C   0  0  2  0  0  0  0  0  0  0  0  0
   27.8851  -28.1271  -16.5512 N   0  0  0  0  0  0  0  0  0  0  0  0
   25.5600  -28.5185  -16.9356 C   0  0  0  0  0  0  0  0  0  0  0  0
   25.1496  -27.7161  -16.0408 O   0  0  0  0  0  0  0  0  0  0  0  0
   26.0866  -32.1182  -17.3714 C   0  0  0  0  0  0  0  0  0  0  0  0
   25.1675  -33.0683  -17.7223 C   0  0  0  0  0  0  0  0  0  0  0  0
   24.7215  -28.8064  -18.0025 O   0  0  0  0  0  0  0  0  0  0  0  0
  2  1  1  6
  3  2  1  0
  4  2  1  0
  5  4  1  0
  5  6  1  1
  7  8  2  0
  7  5  1  0
  9 10  1  0
 11 10  1  0
 11 13  1  0
 11 12  1  1
 13 15  1  0
 13 14  1  6
 14  7  1  0
 15 16  2  0
 17 18  1  0
 18 19  2  0
 18 28  1  0
 19 20  1  0
 20 21  2  0
 21 22  1  0
 23 22  1  1
 23 25  1  0
 24 23  1  0
 24 15  1  0
 25 26  2  0
 25 29  1  0
 27 21  1  0
 28 27  2  0
M  END
$$$$
