IEK.pdb
     RDKit          3D

 27 26  0  0  1  0  0  0  0  0999 V2000
   20.3298  -24.4790  -14.3521 C   0  0  0  0  0  0  0  0  0  0  0  0
   20.7862  -25.4111  -13.2403 C   0  0  0  0  0  0  0  0  0  0  0  0
   19.6866  -25.5789  -12.2041 C   0  0  2  0  0  0  0  0  0  0  0  0
   19.1803  -24.2321  -11.7453 C   0  0  0  0  0  0  0  0  0  0  0  0
   20.0907  -26.4338  -11.0442 C   0  0  2  0  0  0  0  0  0  0  0  0
   20.5262  -27.7233  -11.5488 N   0  0  0  0  0  0  0  0  0  0  0  0
   18.9826  -26.5434  -10.0611 C   0  0  0  0  0  0  0  0  0  0  0  0
   17.9029  -27.1088  -10.3685 O   0  0  0  0  0  0  0  0  0  0  0  0
   19.0666  -26.0215   -8.7231 N   0  0  0  0  0  0  0  0  0  0  0  0
   18.0090  -26.1528   -7.7798 C   0  0  1  0  0  0  0  0  0  0  0  0
   18.4134  -26.4009   -6.3602 C   0  0  0  0  0  0  0  0  0  0  0  0
   17.2981  -26.5564   -5.3737 C   0  0  0  0  0  0  0  0  0  0  0  0
   17.7020  -26.7423   -3.9829 C   0  0  0  0  0  0  0  0  0  0  0  0
   18.4862  -25.8857   -3.4516 O   0  0  0  0  0  0  0  0  0  0  0  0
   17.1075  -24.9490   -7.7851 C   0  0  0  0  0  0  0  0  0  0  0  0
   17.5816  -23.7886   -7.7842 O   0  0  0  0  0  0  0  0  0  0  0  0
   17.2513  -27.8241   -3.2401 O   0  0  0  0  0  0  0  0  0  0  0  0
   15.7184  -25.1815   -7.7936 N   0  0  0  0  0  0  0  0  0  0  0  0
   14.7645  -23.9972   -7.9584 C   0  0  1  0  0  0  0  0  0  0  0  0
   13.5213  -24.6301   -8.4686 C   0  0  0  0  0  0  0  0  0  0  0  0
   12.3115  -23.8899   -8.7910 C   0  0  0  0  0  0  0  0  0  0  0  0
   11.0888  -24.5991   -9.2238 C   0  0  0  0  0  0  0  0  0  0  0  0
    9.9353  -23.7179   -9.5947 C   0  0  0  0  0  0  0  0  0  0  0  0
    8.8072  -24.5648   -9.9482 N   0  0  0  0  0  0  0  0  0  0  0  0
   14.6793  -23.4462   -6.5922 C   0  0  0  0  0  0  0  0  0  0  0  0
   14.8572  -24.0983   -5.5544 O   0  0  0  0  0  0  0  0  0  0  0  0
   14.3769  -22.0752   -6.3613 O   0  0  0  0  0  0  0  0  0  0  0  0
  1  2  1  0
  2  3  1  0
  3  4  1  1
  5  3  1  0
  5  6  1  6
  7  5  1  0
  7  8  2  0
  9  7  1  0
 10  9  1  0
 10 11  1  1
 12 11  1  0
 12 13  1  0
 13 14  2  0
 15 10  1  0
 16 15  2  0
 17 13  1  0
 18 15  1  0
 19 25  1  0
 19 18  1  0
 19 20  1  1
 21 20  1  0
 21 22  1  0
 23 22  1  0
 23 24  1  0
 25 27  1  0
 26 25  2  0
M  END
$$$$
