IEK.pdb
     RDKit          3D

 27 26  0  0  1  0  0  0  0  0999 V2000
   18.2798  -14.1764  -15.7384 C   0  0  0  0  0  0  0  0  0  0  0  0
   19.3140  -13.2335  -16.3337 C   0  0  0  0  0  0  0  0  0  0  0  0
   19.2429  -13.2586  -17.8520 C   0  0  2  0  0  0  0  0  0  0  0  0
   19.4635  -14.6600  -18.3701 C   0  0  0  0  0  0  0  0  0  0  0  0
   20.1711  -12.2832  -18.5051 C   0  0  2  0  0  0  0  0  0  0  0  0
   21.5276  -12.5803  -18.0822 N   0  0  0  0  0  0  0  0  0  0  0  0
   19.7649  -10.8872  -18.2011 C   0  0  0  0  0  0  0  0  0  0  0  0
   18.6163  -10.4718  -18.4982 O   0  0  0  0  0  0  0  0  0  0  0  0
   20.6371   -9.9376  -17.5628 N   0  0  0  0  0  0  0  0  0  0  0  0
   20.2190   -8.6217  -17.2181 C   0  0  1  0  0  0  0  0  0  0  0  0
   20.6155   -8.1342  -15.8596 C   0  0  0  0  0  0  0  0  0  0  0  0
   19.8373   -8.6874  -14.7065 C   0  0  0  0  0  0  0  0  0  0  0  0
   20.2012   -8.1725  -13.3896 C   0  0  0  0  0  0  0  0  0  0  0  0
   21.1852   -7.3637  -13.2970 O   0  0  0  0  0  0  0  0  0  0  0  0
   20.7014   -7.6062  -18.2170 C   0  0  0  0  0  0  0  0  0  0  0  0
   21.8720   -7.6467  -18.6634 O   0  0  0  0  0  0  0  0  0  0  0  0
   19.5010   -8.5457  -12.2513 O   0  0  0  0  0  0  0  0  0  0  0  0
   19.7860   -6.6174  -18.6273 N   0  0  0  0  0  0  0  0  0  0  0  0
   20.2380   -5.5503  -19.6257 C   0  0  1  0  0  0  0  0  0  0  0  0
   18.9605   -4.9329  -20.0653 C   0  0  0  0  0  0  0  0  0  0  0  0
   18.8800   -3.8209  -20.9994 C   0  0  0  0  0  0  0  0  0  0  0  0
   17.5725   -3.2289  -21.3528 C   0  0  0  0  0  0  0  0  0  0  0  0
   17.6292   -2.0756  -22.3076 C   0  0  0  0  0  0  0  0  0  0  0  0
   16.2702   -1.7405  -22.7022 N   0  0  0  0  0  0  0  0  0  0  0  0
   21.1128   -4.6837  -18.8128 C   0  0  0  0  0  0  0  0  0  0  0  0
   22.1424   -4.1322  -19.2250 O   0  0  0  0  0  0  0  0  0  0  0  0
   20.8244   -4.4084  -17.4469 O   0  0  0  0  0  0  0  0  0  0  0  0
  1  2  1  0
  2  3  1  0
  3  4  1  6
  5  3  1  0
  5  6  1  1
  7  5  1  0
  7  8  2  0
  9  7  1  0
 10  9  1  0
 10 11  1  1
 12 11  1  0
 12 13  1  0
 13 14  2  0
 15 10  1  0
 16 15  2  0
 17 13  1  0
 18 15  1  0
 19 25  1  0
 19 18  1  0
 19 20  1  1
 21 20  1  0
 21 22  1  0
 23 22  1  0
 23 24  1  0
 25 27  1  0
 26 25  2  0
M  END
$$$$
