IEK.pdb
     RDKit          3D

 27 26  0  0  1  0  0  0  0  0999 V2000
   28.5844  -13.4141  -16.2244 C   0  0  0  0  0  0  0  0  0  0  0  0
   27.0969  -13.3041  -16.5216 C   0  0  0  0  0  0  0  0  0  0  0  0
   26.6323  -11.8639  -16.3775 C   0  0  2  0  0  0  0  0  0  0  0  0
   26.8999  -11.3577  -14.9800 C   0  0  0  0  0  0  0  0  0  0  0  0
   25.2015  -11.6609  -16.7666 C   0  0  2  0  0  0  0  0  0  0  0  0
   24.9389  -12.4174  -17.9773 N   0  0  0  0  0  0  0  0  0  0  0  0
   24.8970  -10.2145  -16.9128 C   0  0  0  0  0  0  0  0  0  0  0  0
   24.9455   -9.4430  -15.9216 O   0  0  0  0  0  0  0  0  0  0  0  0
   24.5333   -9.6123  -18.1678 N   0  0  0  0  0  0  0  0  0  0  0  0
   24.0967   -8.2620  -18.2737 C   0  0  1  0  0  0  0  0  0  0  0  0
   24.3470   -7.5848  -19.5849 C   0  0  0  0  0  0  0  0  0  0  0  0
   23.9550   -6.1423  -19.6684 C   0  0  0  0  0  0  0  0  0  0  0  0
   24.2382   -5.4800  -20.9385 C   0  0  0  0  0  0  0  0  0  0  0  0
   25.4457   -5.1662  -21.2114 O   0  0  0  0  0  0  0  0  0  0  0  0
   22.6293   -8.1276  -17.9729 C   0  0  0  0  0  0  0  0  0  0  0  0
   21.7653   -8.5612  -18.7708 O   0  0  0  0  0  0  0  0  0  0  0  0
   23.2254   -5.1902  -21.8415 O   0  0  0  0  0  0  0  0  0  0  0  0
   22.2720   -7.5003  -16.7634 N   0  0  0  0  0  0  0  0  0  0  0  0
   20.8016   -7.4731  -16.3429 C   0  0  1  0  0  0  0  0  0  0  0  0
   20.5000   -8.9013  -16.0675 C   0  0  0  0  0  0  0  0  0  0  0  0
   19.3207   -9.3534  -15.3464 C   0  0  0  0  0  0  0  0  0  0  0  0
   19.1850  -10.7677  -14.9384 C   0  0  0  0  0  0  0  0  0  0  0  0
   17.9786  -11.0811  -14.1071 C   0  0  0  0  0  0  0  0  0  0  0  0
   18.0439  -12.4797  -13.7140 N   0  0  0  0  0  0  0  0  0  0  0  0
   20.8100   -6.5890  -15.1615 C   0  0  0  0  0  0  0  0  0  0  0  0
   21.8306   -6.1531  -14.6117 O   0  0  0  0  0  0  0  0  0  0  0  0
   19.6011   -6.1571  -14.5479 O   0  0  0  0  0  0  0  0  0  0  0  0
  1  2  1  0
  2  3  1  0
  3  4  1  1
  5  3  1  0
  5  6  1  6
  7  5  1  0
  7  8  2  0
  9  7  1  0
 10  9  1  0
 10 11  1  6
 12 11  1  0
 12 13  1  0
 13 14  2  0
 15 10  1  0
 16 15  2  0
 17 13  1  0
 18 15  1  0
 19 25  1  0
 19 18  1  0
 19 20  1  1
 21 20  1  0
 21 22  1  0
 23 22  1  0
 23 24  1  0
 25 27  1  0
 26 25  2  0
M  END
$$$$
