IEK.pdb
     RDKit          3D

 27 26  0  0  1  0  0  0  0  0999 V2000
   28.1619  -17.7422  -19.9996 C   0  0  0  0  0  0  0  0  0  0  0  0
   27.2608  -17.0845  -18.9659 C   0  0  0  0  0  0  0  0  0  0  0  0
   26.7407  -18.1188  -17.9807 C   0  0  2  0  0  0  0  0  0  0  0  0
   26.1637  -19.3064  -18.7139 C   0  0  0  0  0  0  0  0  0  0  0  0
   25.7639  -17.5593  -16.9945 C   0  0  2  0  0  0  0  0  0  0  0  0
   26.4183  -16.5047  -16.2418 N   0  0  0  0  0  0  0  0  0  0  0  0
   25.2194  -18.6348  -16.1266 C   0  0  0  0  0  0  0  0  0  0  0  0
   25.9867  -19.4413  -15.5429 O   0  0  0  0  0  0  0  0  0  0  0  0
   23.8110  -18.8232  -15.9012 N   0  0  0  0  0  0  0  0  0  0  0  0
   23.2969  -19.8743  -15.0911 C   0  0  1  0  0  0  0  0  0  0  0  0
   21.9228  -19.6706  -14.5337 C   0  0  0  0  0  0  0  0  0  0  0  0
   21.3537  -20.8105  -13.7475 C   0  0  0  0  0  0  0  0  0  0  0  0
   19.9809  -20.6373  -13.2811 C   0  0  0  0  0  0  0  0  0  0  0  0
   19.0227  -20.8773  -14.0905 O   0  0  0  0  0  0  0  0  0  0  0  0
   23.2934  -21.1884  -15.8227 C   0  0  0  0  0  0  0  0  0  0  0  0
   22.7543  -21.2976  -16.9490 O   0  0  0  0  0  0  0  0  0  0  0  0
   19.7070  -20.2201  -11.9864 O   0  0  0  0  0  0  0  0  0  0  0  0
   23.9199  -22.2810  -15.1923 N   0  0  0  0  0  0  0  0  0  0  0  0
   23.8920  -23.6511  -15.8719 C   0  0  1  0  0  0  0  0  0  0  0  0
   24.9572  -24.4048  -15.1621 C   0  0  0  0  0  0  0  0  0  0  0  0
   25.4618  -25.6965  -15.6004 C   0  0  0  0  0  0  0  0  0  0  0  0
   26.8283  -25.8230  -16.1497 C   0  0  0  0  0  0  0  0  0  0  0  0
   27.1926  -27.1868  -16.6518 C   0  0  0  0  0  0  0  0  0  0  0  0
   28.5012  -27.1087  -17.2814 N   0  0  0  0  0  0  0  0  0  0  0  0
   22.5142  -24.1174  -15.6234 C   0  0  0  0  0  0  0  0  0  0  0  0
   21.4971  -23.6146  -16.1202 O   0  0  0  0  0  0  0  0  0  0  0  0
   22.2462  -25.2197  -14.7646 O   0  0  0  0  0  0  0  0  0  0  0  0
  1  2  1  0
  2  3  1  0
  3  4  1  6
  5  3  1  0
  5  6  1  1
  7  5  1  0
  7  8  2  0
  9  7  1  0
 10  9  1  0
 10 11  1  6
 12 11  1  0
 12 13  1  0
 13 14  2  0
 15 10  1  0
 16 15  2  0
 17 13  1  0
 18 15  1  0
 19 25  1  0
 19 18  1  0
 19 20  1  1
 21 20  1  0
 21 22  1  0
 23 22  1  0
 23 24  1  0
 25 27  1  0
 26 25  2  0
M  END
$$$$
