IEK.pdb
     RDKit          3D

 27 26  0  0  1  0  0  0  0  0999 V2000
   19.0317  -14.1572  -19.5686 C   0  0  0  0  0  0  0  0  0  0  0  0
   19.5338  -13.7309  -18.1977 C   0  0  0  0  0  0  0  0  0  0  0  0
   19.8133  -12.2368  -18.1762 C   0  0  2  0  0  0  0  0  0  0  0  0
   20.7847  -11.8632  -19.2705 C   0  0  0  0  0  0  0  0  0  0  0  0
   20.2761  -11.7395  -16.8427 C   0  0  2  0  0  0  0  0  0  0  0  0
   19.5211  -12.4207  -15.8068 N   0  0  0  0  0  0  0  0  0  0  0  0
   20.1590  -10.2609  -16.7639 C   0  0  0  0  0  0  0  0  0  0  0  0
   20.8084   -9.5212  -17.5457 O   0  0  0  0  0  0  0  0  0  0  0  0
   19.3162   -9.5904  -15.8100 N   0  0  0  0  0  0  0  0  0  0  0  0
   19.2296   -8.1724  -15.7250 C   0  0  1  0  0  0  0  0  0  0  0  0
   18.0570   -7.6233  -14.9742 C   0  0  0  0  0  0  0  0  0  0  0  0
   17.8734   -6.1386  -15.0306 C   0  0  0  0  0  0  0  0  0  0  0  0
   16.7145   -5.6145  -14.3135 C   0  0  0  0  0  0  0  0  0  0  0  0
   15.7582   -6.4108  -14.0270 O   0  0  0  0  0  0  0  0  0  0  0  0
   20.4696   -7.5757  -15.1180 C   0  0  0  0  0  0  0  0  0  0  0  0
   21.0637   -8.1466  -14.1734 O   0  0  0  0  0  0  0  0  0  0  0  0
   16.6392   -4.2791  -13.9442 O   0  0  0  0  0  0  0  0  0  0  0  0
   20.9311   -6.3584  -15.6556 N   0  0  0  0  0  0  0  0  0  0  0  0
   22.2293   -5.7511  -15.1210 C   0  0  1  0  0  0  0  0  0  0  0  0
   22.9024   -5.2531  -16.3480 C   0  0  0  0  0  0  0  0  0  0  0  0
   24.3157   -5.4489  -16.6302 C   0  0  0  0  0  0  0  0  0  0  0  0
   24.8845   -5.0489  -17.9346 C   0  0  0  0  0  0  0  0  0  0  0  0
   26.2820   -5.5221  -18.1955 C   0  0  0  0  0  0  0  0  0  0  0  0
   26.6714   -5.0875  -19.5275 N   0  0  0  0  0  0  0  0  0  0  0  0
   21.7511   -4.7076  -14.1938 C   0  0  0  0  0  0  0  0  0  0  0  0
   20.6499   -4.1458  -14.2687 O   0  0  0  0  0  0  0  0  0  0  0  0
   22.5502   -4.2568  -13.1063 O   0  0  0  0  0  0  0  0  0  0  0  0
  1  2  1  0
  2  3  1  0
  3  4  1  6
  5  3  1  0
  5  6  1  1
  7  5  1  0
  7  8  2  0
  9  7  1  0
 10  9  1  0
 10 11  1  1
 12 11  1  0
 12 13  1  0
 13 14  2  0
 15 10  1  0
 16 15  2  0
 17 13  1  0
 18 15  1  0
 19 25  1  0
 19 18  1  0
 19 20  1  6
 21 20  1  0
 21 22  1  0
 23 22  1  0
 23 24  1  0
 25 27  1  0
 26 25  2  0
M  END
$$$$
