IEK.pdb
     RDKit          3D

 27 26  0  0  1  0  0  0  0  0999 V2000
   19.1758  -32.9967  -11.5744 C   0  0  0  0  0  0  0  0  0  0  0  0
   20.1722  -32.0703  -10.8945 C   0  0  0  0  0  0  0  0  0  0  0  0
   21.0489  -32.8512   -9.9288 C   0  0  2  0  0  0  0  0  0  0  0  0
   20.2021  -33.5619   -8.9000 C   0  0  0  0  0  0  0  0  0  0  0  0
   22.1074  -32.0150   -9.2806 C   0  0  2  0  0  0  0  0  0  0  0  0
   23.0030  -31.5211  -10.3108 N   0  0  0  0  0  0  0  0  0  0  0  0
   22.8122  -32.7857   -8.2245 C   0  0  0  0  0  0  0  0  0  0  0  0
   22.1777  -33.2909   -7.2643 O   0  0  0  0  0  0  0  0  0  0  0  0
   24.2348  -33.0005   -8.2274 N   0  0  0  0  0  0  0  0  0  0  0  0
   24.8978  -33.7668   -7.2281 C   0  0  1  0  0  0  0  0  0  0  0  0
   26.3653  -33.9858   -7.4250 C   0  0  0  0  0  0  0  0  0  0  0  0
   27.0292  -34.9173   -6.4591 C   0  0  0  0  0  0  0  0  0  0  0  0
   28.4775  -35.0449   -6.5937 C   0  0  0  0  0  0  0  0  0  0  0  0
   28.9470  -35.6862   -7.5933 O   0  0  0  0  0  0  0  0  0  0  0  0
   24.7132  -33.1725   -5.8589 C   0  0  0  0  0  0  0  0  0  0  0  0
   24.7670  -31.9328   -5.6817 O   0  0  0  0  0  0  0  0  0  0  0  0
   29.3399  -34.4860   -5.6614 O   0  0  0  0  0  0  0  0  0  0  0  0
   24.4765  -34.0634   -4.7939 N   0  0  0  0  0  0  0  0  0  0  0  0
   24.2203  -33.5020   -3.3943 C   0  0  1  0  0  0  0  0  0  0  0  0
   22.7968  -33.8457   -3.1452 C   0  0  0  0  0  0  0  0  0  0  0  0
   22.1531  -33.7297   -1.8462 C   0  0  0  0  0  0  0  0  0  0  0  0
   20.7578  -34.1788   -1.6555 C   0  0  0  0  0  0  0  0  0  0  0  0
   20.2083  -33.9918   -0.2743 C   0  0  0  0  0  0  0  0  0  0  0  0
   18.8476  -34.5044   -0.2494 N   0  0  0  0  0  0  0  0  0  0  0  0
   25.2008  -34.2247   -2.5616 C   0  0  0  0  0  0  0  0  0  0  0  0
   25.6379  -33.8231   -1.4746 O   0  0  0  0  0  0  0  0  0  0  0  0
   25.7327  -35.4821   -2.9623 O   0  0  0  0  0  0  0  0  0  0  0  0
  1  2  1  0
  2  3  1  0
  3  4  1  1
  5  3  1  0
  5  6  1  6
  7  5  1  0
  7  8  2  0
  9  7  1  0
 10  9  1  0
 10 11  1  6
 12 11  1  0
 12 13  1  0
 13 14  2  0
 15 10  1  0
 16 15  2  0
 17 13  1  0
 18 15  1  0
 19 25  1  0
 19 18  1  0
 19 20  1  1
 21 20  1  0
 21 22  1  0
 23 22  1  0
 23 24  1  0
 25 27  1  0
 26 25  2  0
M  END
$$$$
