IEK.pdb
     RDKit          3D

 27 26  0  0  1  0  0  0  0  0999 V2000
   25.2504  -24.9892  -14.9621 C   0  0  0  0  0  0  0  0  0  0  0  0
   25.3518  -23.4781  -15.1013 C   0  0  0  0  0  0  0  0  0  0  0  0
   24.1657  -22.8031  -14.4316 C   0  0  2  0  0  0  0  0  0  0  0  0
   22.8679  -23.3810  -14.9441 C   0  0  0  0  0  0  0  0  0  0  0  0
   24.1851  -21.3118  -14.5551 C   0  0  2  0  0  0  0  0  0  0  0  0
   25.4344  -20.8177  -14.0051 N   0  0  0  0  0  0  0  0  0  0  0  0
   22.9917  -20.7150  -13.9025 C   0  0  0  0  0  0  0  0  0  0  0  0
   22.8846  -20.6963  -12.6502 O   0  0  0  0  0  0  0  0  0  0  0  0
   21.9026  -20.1331  -14.6408 N   0  0  0  0  0  0  0  0  0  0  0  0
   20.7400  -19.6088  -14.0092 C   0  0  1  0  0  0  0  0  0  0  0  0
   20.0709  -18.4612  -14.6988 C   0  0  0  0  0  0  0  0  0  0  0  0
   18.8969  -17.8594  -13.9910 C   0  0  0  0  0  0  0  0  0  0  0  0
   18.3184  -16.6735  -14.6162 C   0  0  0  0  0  0  0  0  0  0  0  0
   18.9224  -15.5555  -14.4884 O   0  0  0  0  0  0  0  0  0  0  0  0
   19.6978  -20.6716  -13.7940 C   0  0  0  0  0  0  0  0  0  0  0  0
   19.4831  -21.5491  -14.6629 O   0  0  0  0  0  0  0  0  0  0  0  0
   17.1355  -16.7439  -15.3381 O   0  0  0  0  0  0  0  0  0  0  0  0
   18.9816  -20.6387  -12.5817 N   0  0  0  0  0  0  0  0  0  0  0  0
   17.9641  -21.7420  -12.2859 C   0  0  1  0  0  0  0  0  0  0  0  0
   17.7865  -21.6552  -10.8137 C   0  0  0  0  0  0  0  0  0  0  0  0
   17.2897  -22.7492   -9.9941 C   0  0  0  0  0  0  0  0  0  0  0  0
   18.1555  -23.9046   -9.6770 C   0  0  0  0  0  0  0  0  0  0  0  0
   17.5590  -24.9146   -8.7449 C   0  0  0  0  0  0  0  0  0  0  0  0
   18.4585  -26.0547   -8.6684 N   0  0  0  0  0  0  0  0  0  0  0  0
   16.7938  -21.3390  -13.0892 C   0  0  0  0  0  0  0  0  0  0  0  0
   15.9868  -22.1236  -13.6062 O   0  0  0  0  0  0  0  0  0  0  0  0
   16.4973  -19.9693  -13.3352 O   0  0  0  0  0  0  0  0  0  0  0  0
  1  2  1  0
  2  3  1  0
  3  4  1  6
  5  3  1  0
  5  6  1  1
  7  5  1  0
  7  8  2  0
  9  7  1  0
 10  9  1  0
 10 11  1  6
 12 11  1  0
 12 13  1  0
 13 14  2  0
 15 10  1  0
 16 15  2  0
 17 13  1  0
 18 15  1  0
 19 25  1  0
 19 18  1  0
 19 20  1  1
 21 20  1  0
 21 22  1  0
 23 22  1  0
 23 24  1  0
 25 27  1  0
 26 25  2  0
M  END
$$$$
