IEK.pdb
     RDKit          3D

 27 26  0  0  1  0  0  0  0  0999 V2000
   17.5660  -16.8409  -16.6444 C   0  0  0  0  0  0  0  0  0  0  0  0
   18.0040  -15.7002  -17.5499 C   0  0  0  0  0  0  0  0  0  0  0  0
   18.1719  -14.4202  -16.7471 C   0  0  2  0  0  0  0  0  0  0  0  0
   16.8930  -14.0787  -16.0200 C   0  0  0  0  0  0  0  0  0  0  0  0
   18.6584  -13.2662  -17.5664 C   0  0  2  0  0  0  0  0  0  0  0  0
   19.6380  -13.7552  -18.5195 N   0  0  0  0  0  0  0  0  0  0  0  0
   19.1911  -12.1894  -16.6930 C   0  0  0  0  0  0  0  0  0  0  0  0
   18.4864  -11.6964  -15.7763 O   0  0  0  0  0  0  0  0  0  0  0  0
   20.5170  -11.6491  -16.8336 N   0  0  0  0  0  0  0  0  0  0  0  0
   20.9981  -10.5760  -16.0322 C   0  0  1  0  0  0  0  0  0  0  0  0
   22.4816  -10.3789  -16.0086 C   0  0  0  0  0  0  0  0  0  0  0  0
   22.9917   -9.3151  -15.0869 C   0  0  0  0  0  0  0  0  0  0  0  0
   24.4441   -9.1929  -15.0004 C   0  0  0  0  0  0  0  0  0  0  0  0
   25.0208   -8.2544  -15.6466 O   0  0  0  0  0  0  0  0  0  0  0  0
   20.3781   -9.2647  -16.4298 C   0  0  0  0  0  0  0  0  0  0  0  0
   20.3832   -8.8852  -17.6244 O   0  0  0  0  0  0  0  0  0  0  0  0
   25.1969  -10.0723  -14.2354 O   0  0  0  0  0  0  0  0  0  0  0  0
   19.7940   -8.4897  -15.4089 N   0  0  0  0  0  0  0  0  0  0  0  0
   19.1038   -7.1741  -15.7730 C   0  0  1  0  0  0  0  0  0  0  0  0
   17.7023   -7.3917  -15.3314 C   0  0  0  0  0  0  0  0  0  0  0  0
   16.6972   -6.3413  -15.2861 C   0  0  0  0  0  0  0  0  0  0  0  0
   15.3414   -6.6198  -14.7674 C   0  0  0  0  0  0  0  0  0  0  0  0
   14.3779   -5.4753  -14.8477 C   0  0  0  0  0  0  0  0  0  0  0  0
   13.0789   -5.9367  -14.3841 N   0  0  0  0  0  0  0  0  0  0  0  0
   19.8634   -6.1745  -14.9977 C   0  0  0  0  0  0  0  0  0  0  0  0
   20.5070   -6.4183  -13.9680 O   0  0  0  0  0  0  0  0  0  0  0  0
   19.9136   -4.8087  -15.3934 O   0  0  0  0  0  0  0  0  0  0  0  0
  1  2  1  0
  2  3  1  0
  3  4  1  6
  5  3  1  0
  5  6  1  6
  7  5  1  0
  7  8  2  0
  9  7  1  0
 10  9  1  0
 10 11  1  6
 12 11  1  0
 12 13  1  0
 13 14  2  0
 15 10  1  0
 16 15  2  0
 17 13  1  0
 18 15  1  0
 19 25  1  0
 19 18  1  0
 19 20  1  1
 21 20  1  0
 21 22  1  0
 23 22  1  0
 23 24  1  0
 25 27  1  0
 26 25  2  0
M  END
$$$$
