RCH.pdb
     RDKit          3D

 28 28  0  0  1  0  0  0  0  0999 V2000
    8.1305  -12.8104   15.3788 N   0  0  0  0  0  0  0  0  0  0  0  0
    8.2008  -14.2116   15.2678 C   0  0  0  0  0  0  0  0  0  0  0  0
    7.5348  -14.8856   14.3831 N   0  0  0  0  0  0  0  0  0  0  0  0
    9.0376  -14.9112   16.1649 N   0  0  0  0  0  0  0  0  0  0  0  0
    9.0536  -14.4960   17.5747 C   0  0  0  0  0  0  0  0  0  0  0  0
    7.7037  -14.7530   18.1700 C   0  0  0  0  0  0  0  0  0  0  0  0
    7.6299  -14.4766   19.6264 C   0  0  0  0  0  0  0  0  0  0  0  0
    8.5049  -15.2872   20.5225 C   0  0  2  0  0  0  0  0  0  0  0  0
    8.4871  -16.6786   20.2361 N   0  0  0  0  0  0  0  0  0  0  0  0
    8.0746  -15.0166   21.9349 C   0  0  0  0  0  0  0  0  0  0  0  0
    7.6023  -13.8725   22.1610 O   0  0  0  0  0  0  0  0  0  0  0  0
    7.5480  -15.9271   14.3782 N   0  0  0  0  0  0  0  0  0  0  0  0
    8.2040  -16.0104   22.9376 C   0  0  1  0  0  0  0  0  0  0  0  0
    8.3096  -15.6103   24.3096 C   0  0  0  0  0  0  0  0  0  0  0  0
    7.0345  -15.9417   25.0533 S   0  0  0  0  0  0  0  0  0  0  0  0
    6.6468  -17.6968   25.0364 C   0  0  0  0  0  0  0  0  0  0  0  0
    9.4991  -16.1929   24.9810 O   0  0  0  0  0  0  0  0  0  0  0  0
    9.8883  -17.3443   24.6520 N   0  0  0  0  0  0  0  0  0  0  0  0
   10.2340  -15.5333   25.9781 C   0  0  2  0  0  0  0  0  0  0  0  0
   10.0392  -15.5953   27.3838 C   0  0  0  0  0  0  0  0  0  0  0  0
    8.6734  -15.3434   27.9001 C   0  0  0  0  0  0  0  0  0  0  0  0
    8.0919  -14.0227   27.5822 C   0  0  0  0  0  0  0  0  0  0  0  0
    8.6980  -12.8214   27.3309 N   0  0  0  0  0  0  0  0  0  0  0  0
    7.7584  -11.8919   27.0989 C   0  0  0  0  0  0  0  0  0  0  0  0
    6.5736  -12.4959   27.2021 N   0  0  0  0  0  0  0  0  0  0  0  0
    6.7607  -13.7814   27.4933 C   0  0  0  0  0  0  0  0  0  0  0  0
   10.3727  -17.0049   27.8125 O   0  0  0  0  0  0  0  0  0  0  0  0
    9.4057  -17.9989   27.8128 O   0  0  0  0  0  0  0  0  0  0  0  0
  2  4  1  0
  2  1  1  0
  3  2  2  0
  5  6  1  0
  5  4  1  0
  7  6  1  0
  8  7  1  0
  8  9  1  6
 10 11  2  0
 10  8  1  0
 12 10  1  0
 13 12  1  0
 13 14  1  1
 15 14  1  0
 16 13  1  0
 16 18  1  0
 17 16  2  0
 19 18  1  0
 19 20  1  6
 20 21  1  0
 21 22  2  0
 21 25  1  0
 22 23  1  0
 23 24  1  0
 25 24  2  0
 26 19  1  0
 27 26  1  0
 28 26  2  0
M  END
$$$$
