RCH.pdb
     RDKit          3D

 28 28  0  0  1  0  0  0  0  0999 V2000
   10.2199  -14.6578   17.7596 N   0  0  0  0  0  0  0  0  0  0  0  0
    8.9503  -14.2793   17.2847 C   0  0  0  0  0  0  0  0  0  0  0  0
    8.5681  -13.0439   17.1938 N   0  0  0  0  0  0  0  0  0  0  0  0
    8.0545  -15.2972   16.8901 N   0  0  0  0  0  0  0  0  0  0  0  0
    8.3398  -16.6786   17.3029 C   0  0  0  0  0  0  0  0  0  0  0  0
    8.3789  -16.7382   18.7988 C   0  0  0  0  0  0  0  0  0  0  0  0
    9.4303  -17.6385   19.3342 C   0  0  0  0  0  0  0  0  0  0  0  0
    9.4829  -17.8265   20.8133 C   0  0  2  0  0  0  0  0  0  0  0  0
    8.3547  -18.5062   21.3456 N   0  0  0  0  0  0  0  0  0  0  0  0
    9.6428  -16.4687   21.4330 C   0  0  0  0  0  0  0  0  0  0  0  0
   10.6941  -15.8443   21.1365 O   0  0  0  0  0  0  0  0  0  0  0  0
    7.5959  -12.8009   16.9101 N   0  0  0  0  0  0  0  0  0  0  0  0
    8.6511  -15.9433   22.2993 C   0  0  1  0  0  0  0  0  0  0  0  0
    8.8265  -14.6319   22.8497 C   0  0  0  0  0  0  0  0  0  0  0  0
    7.5264  -13.8602   22.7936 S   0  0  0  0  0  0  0  0  0  0  0  0
    6.5158  -14.0779   24.2640 C   0  0  0  0  0  0  0  0  0  0  0  0
    9.3824  -14.6636   24.2263 O   0  0  0  0  0  0  0  0  0  0  0  0
    9.5939  -13.5786   24.8291 N   0  0  0  0  0  0  0  0  0  0  0  0
    9.6944  -15.8458   24.9152 C   0  0  1  0  0  0  0  0  0  0  0  0
    9.4835  -16.1297   26.2910 C   0  0  0  0  0  0  0  0  0  0  0  0
    8.1007  -16.0191   26.8115 C   0  0  0  0  0  0  0  0  0  0  0  0
    7.5990  -14.6477   27.0372 C   0  0  0  0  0  0  0  0  0  0  0  0
    8.2750  -13.4814   27.2749 N   0  0  0  0  0  0  0  0  0  0  0  0
    7.3927  -12.4820   27.4273 C   0  0  0  0  0  0  0  0  0  0  0  0
    6.1747  -13.0078   27.2883 N   0  0  0  0  0  0  0  0  0  0  0  0
    6.2852  -14.3135   27.0527 C   0  0  0  0  0  0  0  0  0  0  0  0
    9.8760  -17.5721   26.5079 O   0  0  0  0  0  0  0  0  0  0  0  0
   10.8336  -17.9178   27.4495 O   0  0  0  0  0  0  0  0  0  0  0  0
  2  4  1  0
  2  1  1  0
  3  2  2  0
  5  6  1  0
  5  4  1  0
  7  6  1  0
  8  7  1  0
  8  9  1  1
 10 11  2  0
 10  8  1  0
 12 10  1  0
 13 12  1  0
 13 14  1  1
 15 14  1  0
 16 13  1  0
 16 18  1  0
 17 16  2  0
 19 18  1  0
 19 20  1  1
 20 21  1  0
 21 22  2  0
 21 25  1  0
 22 23  1  0
 23 24  1  0
 25 24  2  0
 26 19  1  0
 27 26  1  0
 28 26  2  0
M  END
$$$$
