RCH.pdb
     RDKit          3D

 28 28  0  0  1  0  0  0  0  0999 V2000
    7.6672  -13.6802   15.5735 N   0  0  0  0  0  0  0  0  0  0  0  0
    8.4780  -14.6199   16.2370 C   0  0  0  0  0  0  0  0  0  0  0  0
    8.7970  -15.7668   15.7238 N   0  0  0  0  0  0  0  0  0  0  0  0
    8.9643  -14.2928   17.5219 N   0  0  0  0  0  0  0  0  0  0  0  0
    8.4902  -13.0538   18.1545 C   0  0  0  0  0  0  0  0  0  0  0  0
    7.3040  -13.3715   19.0116 C   0  0  0  0  0  0  0  0  0  0  0  0
    7.6078  -13.4072   20.4639 C   0  0  0  0  0  0  0  0  0  0  0  0
    7.9838  -14.7254   21.0528 C   0  0  2  0  0  0  0  0  0  0  0  0
    6.9392  -15.6876   21.0188 N   0  0  0  0  0  0  0  0  0  0  0  0
    8.4467  -14.4737   22.4583 C   0  0  0  0  0  0  0  0  0  0  0  0
    9.3669  -13.6267   22.5956 O   0  0  0  0  0  0  0  0  0  0  0  0
    9.4481  -16.4140   16.2158 N   0  0  0  0  0  0  0  0  0  0  0  0
    7.8637  -15.1642   23.5506 C   0  0  2  0  0  0  0  0  0  0  0  0
    8.4886  -15.0913   24.8382 C   0  0  0  0  0  0  0  0  0  0  0  0
    7.6194  -14.3122   25.8007 S   0  0  0  0  0  0  0  0  0  0  0  0
    5.8984  -14.8299   25.7706 C   0  0  0  0  0  0  0  0  0  0  0  0
    8.8344  -16.4307   25.3781 O   0  0  0  0  0  0  0  0  0  0  0  0
    8.1272  -17.4228   25.0607 N   0  0  0  0  0  0  0  0  0  0  0  0
    9.9189  -16.6703   26.2360 C   0  0  1  0  0  0  0  0  0  0  0  0
   10.5801  -17.9047   26.4745 C   0  0  0  0  0  0  0  0  0  0  0  0
   11.9277  -18.0874   25.8865 C   0  0  0  0  0  0  0  0  0  0  0  0
   11.9820  -18.2250   24.4163 C   0  0  0  0  0  0  0  0  0  0  0  0
   10.9750  -18.2833   23.4908 N   0  0  0  0  0  0  0  0  0  0  0  0
   11.5069  -18.4204   22.2665 C   0  0  0  0  0  0  0  0  0  0  0  0
   12.8323  -18.4488   22.4143 N   0  0  0  0  0  0  0  0  0  0  0  0
   13.1320  -18.3319   23.7062 C   0  0  0  0  0  0  0  0  0  0  0  0
   10.7793  -18.0159   27.9678 O   0  0  0  0  0  0  0  0  0  0  0  0
   11.3181  -19.1619   28.5330 O   0  0  0  0  0  0  0  0  0  0  0  0
  2  4  1  0
  2  1  1  0
  3  2  2  0
  5  6  1  0
  5  4  1  0
  7  6  1  0
  8  7  1  0
  8  9  1  1
 10 11  2  0
 10  8  1  0
 12 10  1  0
 13 12  1  0
 13 14  1  6
 15 14  1  0
 16 13  1  0
 16 18  1  0
 17 16  2  0
 19 18  1  0
 19 20  1  1
 20 21  1  0
 21 22  2  0
 21 25  1  0
 22 23  1  0
 23 24  1  0
 25 24  2  0
 26 19  1  0
 27 26  1  0
 28 26  2  0
M  END
$$$$
