RCH.pdb
     RDKit          3D

 28 28  0  0  1  0  0  0  0  0999 V2000
    8.1864  -15.4023   14.8241 N   0  0  0  0  0  0  0  0  0  0  0  0
    8.0539  -14.0216   14.5862 C   0  0  0  0  0  0  0  0  0  0  0  0
    7.7761  -13.5279   13.4201 N   0  0  0  0  0  0  0  0  0  0  0  0
    8.2330  -13.1368   15.6722 N   0  0  0  0  0  0  0  0  0  0  0  0
    8.6898  -13.6884   16.9556 C   0  0  0  0  0  0  0  0  0  0  0  0
    7.5064  -14.2254   17.7000 C   0  0  0  0  0  0  0  0  0  0  0  0
    7.5813  -14.0229   19.1684 C   0  0  0  0  0  0  0  0  0  0  0  0
    8.1755  -15.1232   19.9820 C   0  0  2  0  0  0  0  0  0  0  0  0
    7.3526  -16.2777   20.0734 N   0  0  0  0  0  0  0  0  0  0  0  0
    8.4800  -14.5628   21.3408 C   0  0  0  0  0  0  0  0  0  0  0  0
    9.3213  -13.6280   21.3792 O   0  0  0  0  0  0  0  0  0  0  0  0
    7.6964  -12.4994   13.2764 N   0  0  0  0  0  0  0  0  0  0  0  0
    7.8422  -15.0754   22.4986 C   0  0  1  0  0  0  0  0  0  0  0  0
    8.1584  -14.5133   23.7783 C   0  0  0  0  0  0  0  0  0  0  0  0
    6.9163  -13.9340   24.4192 S   0  0  0  0  0  0  0  0  0  0  0  0
    7.1704  -13.4467   26.1305 C   0  0  0  0  0  0  0  0  0  0  0  0
    8.8310  -15.4868   24.6755 O   0  0  0  0  0  0  0  0  0  0  0  0
    8.2202  -16.5344   25.0141 N   0  0  0  0  0  0  0  0  0  0  0  0
   10.1284  -15.3145   25.1819 C   0  0  2  0  0  0  0  0  0  0  0  0
   10.5688  -15.4971   26.5200 C   0  0  0  0  0  0  0  0  0  0  0  0
   10.2487  -14.4331   27.5002 C   0  0  0  0  0  0  0  0  0  0  0  0
   10.5778  -14.7282   28.9102 C   0  0  0  0  0  0  0  0  0  0  0  0
   11.0830  -15.8622   29.4869 N   0  0  0  0  0  0  0  0  0  0  0  0
   11.2092  -15.6676   30.8086 C   0  0  0  0  0  0  0  0  0  0  0  0
   10.7896  -14.4279   31.0657 N   0  0  0  0  0  0  0  0  0  0  0  0
   10.4059  -13.8504   29.9291 C   0  0  0  0  0  0  0  0  0  0  0  0
    9.8847  -16.7383   27.0428 O   0  0  0  0  0  0  0  0  0  0  0  0
   10.6198  -17.7969   27.5548 O   0  0  0  0  0  0  0  0  0  0  0  0
  2  4  1  0
  2  1  1  0
  3  2  2  0
  5  6  1  0
  5  4  1  0
  7  6  1  0
  8  7  1  0
  8  9  1  1
 10 11  2  0
 10  8  1  0
 12 10  1  0
 13 12  1  0
 13 14  1  1
 15 14  1  0
 16 13  1  0
 16 18  1  0
 17 16  2  0
 19 18  1  0
 19 20  1  6
 20 21  1  0
 21 22  2  0
 21 25  1  0
 22 23  1  0
 23 24  1  0
 25 24  2  0
 26 19  1  0
 27 26  1  0
 28 26  2  0
M  END
$$$$
