RCH.pdb
     RDKit          3D

 28 28  0  0  1  0  0  0  0  0999 V2000
    7.9499  -12.7571   13.6236 N   0  0  0  0  0  0  0  0  0  0  0  0
    7.7995  -13.5438   14.7808 C   0  0  0  0  0  0  0  0  0  0  0  0
    7.6353  -14.8293   14.7462 N   0  0  0  0  0  0  0  0  0  0  0  0
    7.8297  -12.8974   16.0361 N   0  0  0  0  0  0  0  0  0  0  0  0
    7.4433  -13.6659   17.2278 C   0  0  0  0  0  0  0  0  0  0  0  0
    8.6166  -14.4790   17.6806 C   0  0  0  0  0  0  0  0  0  0  0  0
    8.9567  -14.2919   19.1131 C   0  0  0  0  0  0  0  0  0  0  0  0
    9.2061  -15.5193   19.9237 C   0  0  2  0  0  0  0  0  0  0  0  0
    8.2115  -16.5216   19.7678 N   0  0  0  0  0  0  0  0  0  0  0  0
    9.3293  -15.0930   21.3577 C   0  0  0  0  0  0  0  0  0  0  0  0
   10.1856  -14.2036   21.6001 O   0  0  0  0  0  0  0  0  0  0  0  0
    7.6191  -15.3934   15.6216 N   0  0  0  0  0  0  0  0  0  0  0  0
    8.5153  -15.6751   22.3619 C   0  0  1  0  0  0  0  0  0  0  0  0
    8.7448  -15.3323   23.7343 C   0  0  0  0  0  0  0  0  0  0  0  0
    7.4291  -15.1159   24.4490 S   0  0  0  0  0  0  0  0  0  0  0  0
    7.5732  -14.0287   25.8731 C   0  0  0  0  0  0  0  0  0  0  0  0
    9.5880  -16.3331   24.4361 O   0  0  0  0  0  0  0  0  0  0  0  0
    9.4593  -17.5529   24.1520 N   0  0  0  0  0  0  0  0  0  0  0  0
   10.5383  -16.0043   25.4151 C   0  0  2  0  0  0  0  0  0  0  0  0
   10.6273  -16.5063   26.7409 C   0  0  0  0  0  0  0  0  0  0  0  0
    9.5291  -16.1721   27.6776 C   0  0  0  0  0  0  0  0  0  0  0  0
    9.4063  -14.7484   28.0536 C   0  0  0  0  0  0  0  0  0  0  0  0
   10.2397  -13.6897   27.8115 N   0  0  0  0  0  0  0  0  0  0  0  0
    9.7159  -12.5810   28.3566 C   0  0  0  0  0  0  0  0  0  0  0  0
    8.5670  -12.9324   28.9361 N   0  0  0  0  0  0  0  0  0  0  0  0
    8.3686  -14.2371   28.7606 C   0  0  0  0  0  0  0  0  0  0  0  0
   10.6209  -18.0137   26.6421 O   0  0  0  0  0  0  0  0  0  0  0  0
   10.2169  -18.6513   25.4788 O   0  0  0  0  0  0  0  0  0  0  0  0
  2  4  1  0
  2  1  1  0
  3  2  2  0
  5  6  1  0
  5  4  1  0
  7  6  1  0
  8  7  1  0
  8  9  1  1
 10 11  2  0
 10  8  1  0
 12 10  1  0
 13 12  1  0
 13 14  1  6
 15 14  1  0
 16 13  1  0
 16 18  1  0
 17 16  2  0
 19 18  1  0
 19 20  1  6
 20 21  1  0
 21 22  2  0
 21 25  1  0
 22 23  1  0
 23 24  1  0
 25 24  2  0
 26 19  1  0
 27 26  1  0
 28 26  2  0
M  END
$$$$
