RCH.pdb
     RDKit          3D

 28 28  0  0  1  0  0  0  0  0999 V2000
   16.9531  -13.9453   18.7853 N   0  0  0  0  0  0  0  0  0  0  0  0
   16.3804  -13.9379   17.4998 C   0  0  0  0  0  0  0  0  0  0  0  0
   16.9515  -13.3886   16.4738 N   0  0  0  0  0  0  0  0  0  0  0  0
   15.1244  -14.5596   17.3249 N   0  0  0  0  0  0  0  0  0  0  0  0
   14.2856  -14.7870   18.5102 C   0  0  0  0  0  0  0  0  0  0  0  0
   12.9623  -14.1175   18.3019 C   0  0  0  0  0  0  0  0  0  0  0  0
   12.0013  -14.3340   19.4121 C   0  0  0  0  0  0  0  0  0  0  0  0
   10.7123  -15.0079   19.0805 C   0  0  2  0  0  0  0  0  0  0  0  0
    9.7024  -14.1204   18.6217 N   0  0  0  0  0  0  0  0  0  0  0  0
   10.2670  -15.7528   20.3053 C   0  0  0  0  0  0  0  0  0  0  0  0
    9.7251  -15.0630   21.2073 O   0  0  0  0  0  0  0  0  0  0  0  0
   16.4848  -13.3726   15.5428 N   0  0  0  0  0  0  0  0  0  0  0  0
   10.4580  -17.1534   20.4142 C   0  0  2  0  0  0  0  0  0  0  0  0
   10.1174  -17.8126   21.6403 C   0  0  0  0  0  0  0  0  0  0  0  0
    9.2004  -18.9850   21.3694 S   0  0  0  0  0  0  0  0  0  0  0  0
    8.4366  -18.9189   19.7436 C   0  0  0  0  0  0  0  0  0  0  0  0
   11.3153  -18.2253   22.4147 O   0  0  0  0  0  0  0  0  0  0  0  0
   12.2531  -18.8231   21.8243 N   0  0  0  0  0  0  0  0  0  0  0  0
   11.4761  -17.9893   23.7887 C   0  0  1  0  0  0  0  0  0  0  0  0
   12.5139  -18.4635   24.6348 C   0  0  0  0  0  0  0  0  0  0  0  0
   13.4643  -17.4670   25.1816 C   0  0  0  0  0  0  0  0  0  0  0  0
   14.2656  -16.7206   24.1895 C   0  0  0  0  0  0  0  0  0  0  0  0
   14.3060  -16.8178   22.8246 N   0  0  0  0  0  0  0  0  0  0  0  0
   15.1974  -15.9369   22.3448 C   0  0  0  0  0  0  0  0  0  0  0  0
   15.7145  -15.2910   23.3910 N   0  0  0  0  0  0  0  0  0  0  0  0
   15.1610  -15.7543   24.5096 C   0  0  0  0  0  0  0  0  0  0  0  0
   11.8492  -19.0831   25.8416 O   0  0  0  0  0  0  0  0  0  0  0  0
   12.5707  -19.8636   26.7322 O   0  0  0  0  0  0  0  0  0  0  0  0
  2  4  1  0
  2  1  1  0
  3  2  2  0
  5  6  1  0
  5  4  1  0
  7  6  1  0
  8  7  1  0
  8  9  1  1
 10 11  2  0
 10  8  1  0
 12 10  1  0
 13 12  1  0
 13 14  1  6
 15 14  1  0
 16 13  1  0
 16 18  1  0
 17 16  2  0
 19 18  1  0
 19 20  1  1
 20 21  1  0
 21 22  2  0
 21 25  1  0
 22 23  1  0
 23 24  1  0
 25 24  2  0
 26 19  1  0
 27 26  1  0
 28 26  2  0
M  END
$$$$
