RCH.pdb
     RDKit          3D

 28 28  0  0  1  0  0  0  0  0999 V2000
    7.6074  -13.6108   17.1022 N   0  0  0  0  0  0  0  0  0  0  0  0
    8.7836  -13.6233   17.8749 C   0  0  0  0  0  0  0  0  0  0  0  0
    9.1994  -12.5960   18.5475 N   0  0  0  0  0  0  0  0  0  0  0  0
    9.5427  -14.8134   17.9160 N   0  0  0  0  0  0  0  0  0  0  0  0
    9.0301  -15.9430   18.7043 C   0  0  0  0  0  0  0  0  0  0  0  0
    9.2103  -15.6388   20.1595 C   0  0  0  0  0  0  0  0  0  0  0  0
    8.1876  -16.2666   21.0328 C   0  0  0  0  0  0  0  0  0  0  0  0
    7.2065  -15.3612   21.6987 C   0  0  2  0  0  0  0  0  0  0  0  0
    6.7011  -14.3398   20.8504 N   0  0  0  0  0  0  0  0  0  0  0  0
    7.8803  -14.7807   22.9080 C   0  0  0  0  0  0  0  0  0  0  0  0
    9.0150  -14.2709   22.7192 O   0  0  0  0  0  0  0  0  0  0  0  0
   10.1802  -12.5406   18.8936 N   0  0  0  0  0  0  0  0  0  0  0  0
    7.2521  -14.8176   24.1784 C   0  0  1  0  0  0  0  0  0  0  0  0
    7.9313  -14.2614   25.3111 C   0  0  0  0  0  0  0  0  0  0  0  0
    7.1401  -13.1055   25.8828 S   0  0  0  0  0  0  0  0  0  0  0  0
    7.8867  -12.4050   27.3601 C   0  0  0  0  0  0  0  0  0  0  0  0
    8.2342  -15.2802   26.3481 O   0  0  0  0  0  0  0  0  0  0  0  0
    7.3088  -16.0228   26.7691 N   0  0  0  0  0  0  0  0  0  0  0  0
    9.5088  -15.4752   26.9021 C   0  0  1  0  0  0  0  0  0  0  0  0
    9.8953  -16.4392   27.8712 C   0  0  0  0  0  0  0  0  0  0  0  0
   11.0718  -17.2867   27.5664 C   0  0  0  0  0  0  0  0  0  0  0  0
   10.9505  -18.1663   26.3852 C   0  0  0  0  0  0  0  0  0  0  0  0
   10.0276  -19.1322   26.0868 N   0  0  0  0  0  0  0  0  0  0  0  0
   10.3278  -19.6787   24.8985 C   0  0  0  0  0  0  0  0  0  0  0  0
   11.4255  -19.0676   24.4505 N   0  0  0  0  0  0  0  0  0  0  0  0
   11.8114  -18.1532   25.3379 C   0  0  0  0  0  0  0  0  0  0  0  0
   10.2657  -15.6801   29.1236 O   0  0  0  0  0  0  0  0  0  0  0  0
   10.6573  -16.3482   30.2740 O   0  0  0  0  0  0  0  0  0  0  0  0
  2  4  1  0
  2  1  1  0
  3  2  2  0
  5  6  1  0
  5  4  1  0
  7  6  1  0
  8  7  1  0
  8  9  1  6
 10 11  2  0
 10  8  1  0
 12 10  1  0
 13 12  1  0
 13 14  1  1
 15 14  1  0
 16 13  1  0
 16 18  1  0
 17 16  2  0
 19 18  1  0
 19 20  1  1
 20 21  1  0
 21 22  2  0
 21 25  1  0
 22 23  1  0
 23 24  1  0
 25 24  2  0
 26 19  1  0
 27 26  1  0
 28 26  2  0
M  END
$$$$
