RCH.pdb
     RDKit          3D

 28 28  0  0  1  0  0  0  0  0999 V2000
    9.1924  -15.4270   16.0856 N   0  0  0  0  0  0  0  0  0  0  0  0
    9.8274  -16.5233   16.6985 C   0  0  0  0  0  0  0  0  0  0  0  0
   10.9722  -16.9880   16.3061 N   0  0  0  0  0  0  0  0  0  0  0  0
    9.1827  -17.1425   17.7918 N   0  0  0  0  0  0  0  0  0  0  0  0
    7.9367  -16.5486   18.2967 C   0  0  0  0  0  0  0  0  0  0  0  0
    8.2448  -15.2077   18.8880 C   0  0  0  0  0  0  0  0  0  0  0  0
    7.0625  -14.5244   19.4694 C   0  0  0  0  0  0  0  0  0  0  0  0
    7.2883  -13.2027   20.1235 C   0  0  2  0  0  0  0  0  0  0  0  0
    7.9802  -12.2690   19.3064 N   0  0  0  0  0  0  0  0  0  0  0  0
    8.0268  -13.4566   21.4055 C   0  0  0  0  0  0  0  0  0  0  0  0
    9.2815  -13.5019   21.3227 O   0  0  0  0  0  0  0  0  0  0  0  0
   11.4272  -17.7846   16.7994 N   0  0  0  0  0  0  0  0  0  0  0  0
    7.3267  -13.6317   22.6257 C   0  0  2  0  0  0  0  0  0  0  0  0
    8.0688  -13.8080   23.8389 C   0  0  0  0  0  0  0  0  0  0  0  0
    7.3028  -13.2356   25.0113 S   0  0  0  0  0  0  0  0  0  0  0  0
    5.7626  -14.1035   25.3358 C   0  0  0  0  0  0  0  0  0  0  0  0
    8.4450  -15.2252   24.0735 O   0  0  0  0  0  0  0  0  0  0  0  0
    7.7925  -16.1373   23.5012 N   0  0  0  0  0  0  0  0  0  0  0  0
    9.5007  -15.6249   24.9073 C   0  0  1  0  0  0  0  0  0  0  0  0
   10.1421  -16.8917   24.9481 C   0  0  0  0  0  0  0  0  0  0  0  0
   11.5201  -16.9819   24.4113 C   0  0  0  0  0  0  0  0  0  0  0  0
   12.1406  -18.3228   24.4358 C   0  0  0  0  0  0  0  0  0  0  0  0
   11.6196  -19.5373   24.7928 N   0  0  0  0  0  0  0  0  0  0  0  0
   12.5656  -20.4800   24.6621 C   0  0  0  0  0  0  0  0  0  0  0  0
   13.6705  -19.8711   24.2286 N   0  0  0  0  0  0  0  0  0  0  0  0
   13.4275  -18.5697   24.0881 C   0  0  0  0  0  0  0  0  0  0  0  0
   10.2558  -17.2807   26.4033 O   0  0  0  0  0  0  0  0  0  0  0  0
   10.5646  -18.5812   26.7728 O   0  0  0  0  0  0  0  0  0  0  0  0
  2  4  1  0
  2  1  1  0
  3  2  2  0
  5  6  1  0
  5  4  1  0
  7  6  1  0
  8  7  1  0
  8  9  1  6
 10 11  2  0
 10  8  1  0
 12 10  1  0
 13 12  1  0
 13 14  1  6
 15 14  1  0
 16 13  1  0
 16 18  1  0
 17 16  2  0
 19 18  1  0
 19 20  1  1
 20 21  1  0
 21 22  2  0
 21 25  1  0
 22 23  1  0
 23 24  1  0
 25 24  2  0
 26 19  1  0
 27 26  1  0
 28 26  2  0
M  END
$$$$
