YYW.pdb
     RDKit          3D

 39 42  0  0  1  0  0  0  0  0999 V2000
   31.1261  -15.2671  -21.4049 O   0  0  0  0  0  0  0  0  0  0  0  0
   30.2898  -16.0013  -20.5756 C   0  0  0  0  0  0  0  0  0  0  0  0
   29.0752  -16.4497  -21.0805 C   0  0  0  0  0  0  0  0  0  0  0  0
   28.2359  -17.1779  -20.2730 C   0  0  0  0  0  0  0  0  0  0  0  0
   28.6344  -17.4426  -18.9684 C   0  0  0  0  0  0  0  0  0  0  0  0
   27.7538  -18.2193  -18.0838 C   0  0  0  0  0  0  0  0  0  0  0  0
   28.4445  -19.5133  -17.7063 C   0  0  2  0  0  0  0  0  0  0  0  0
   28.5619  -20.4014  -18.8448 N   0  0  0  0  0  0  0  0  0  0  0  0
   27.6393  -20.1356  -16.6268 C   0  0  0  0  0  0  0  0  0  0  0  0
   26.6292  -20.8365  -16.8728 O   0  0  0  0  0  0  0  0  0  0  0  0
   29.8457  -16.9913  -18.4761 C   0  0  0  0  0  0  0  0  0  0  0  0
   30.6733  -16.2663  -19.2920 C   0  0  0  0  0  0  0  0  0  0  0  0
   24.2276  -21.1405   -8.6374 O   0  0  0  0  0  0  0  0  0  0  0  0
   25.1081  -20.8525   -9.6646 C   0  0  0  0  0  0  0  0  0  0  0  0
   25.3861  -19.5317   -9.9641 C   0  0  0  0  0  0  0  0  0  0  0  0
   26.2737  -19.2661  -11.0001 C   0  0  0  0  0  0  0  0  0  0  0  0
   26.8796  -20.2605  -11.7311 C   0  0  0  0  0  0  0  0  0  0  0  0
   27.8243  -19.9728  -12.8354 C   0  0  0  0  0  0  0  0  0  0  0  0
   27.2108  -20.3100  -14.1768 C   0  0  2  0  0  0  0  0  0  0  0  0
   28.0388  -19.9210  -15.2801 N   0  0  0  0  0  0  0  0  0  0  0  0
   25.8692  -19.6388  -14.2291 C   0  0  0  0  0  0  0  0  0  0  0  0
   25.7776  -18.3888  -14.3445 O   0  0  0  0  0  0  0  0  0  0  0  0
   26.5743  -21.5803  -11.3996 C   0  0  0  0  0  0  0  0  0  0  0  0
   25.7038  -21.8620  -10.3839 C   0  0  0  0  0  0  0  0  0  0  0  0
   24.6629  -20.3720  -14.1521 N   0  0  0  0  0  0  0  0  0  0  0  0
   23.3383  -19.7817  -14.1857 C   0  0  1  0  0  0  0  0  0  0  0  0
   23.2023  -19.1246  -15.5559 C   0  0  0  0  0  0  0  0  0  0  0  0
   21.8945  -18.4934  -15.7400 C   0  0  0  0  0  0  0  0  0  0  0  0
   21.1924  -17.7517  -14.8250 C   0  0  0  0  0  0  0  0  0  0  0  0
   20.0388  -17.3544  -15.3913 N   0  0  0  0  0  0  0  0  0  0  0  0
   19.9552  -17.8118  -16.6577 C   0  0  0  0  0  0  0  0  0  0  0  0
   19.0415  -17.7200  -17.6682 C   0  0  0  0  0  0  0  0  0  0  0  0
   19.2814  -18.3283  -18.8754 C   0  0  0  0  0  0  0  0  0  0  0  0
   20.4360  -19.0450  -19.1128 C   0  0  0  0  0  0  0  0  0  0  0  0
   21.3629  -19.1445  -18.1033 C   0  0  0  0  0  0  0  0  0  0  0  0
   21.1246  -18.5299  -16.8781 C   0  0  0  0  0  0  0  0  0  0  0  0
   22.2763  -20.7496  -13.9304 C   0  0  0  0  0  0  0  0  0  0  0  0
   22.4645  -21.9682  -14.1197 O   0  0  0  0  0  0  0  0  0  0  0  0
   21.0454  -20.3283  -13.4744 O   0  0  0  0  0  0  0  0  0  0  0  0
  2 12  2  0
  2  1  1  0
  3  2  1  0
  4  5  1  0
  4  3  2  0
  5 11  2  0
  6  5  1  0
  6  7  1  0
  7  9  1  0
  7  8  1  6
  9 10  2  0
 11 12  1  0
 13 14  1  0
 14 15  2  0
 15 16  1  0
 17 18  1  0
 17 16  2  0
 19 18  1  1
 19 21  1  0
 20 19  1  0
 20  9  1  0
 21 22  2  0
 21 25  1  0
 23 17  1  0
 24 14  1  0
 24 23  2  0
 25 26  1  0
 26 27  1  6
 27 28  1  0
 28 29  2  0
 30 29  1  0
 31 30  1  0
 32 31  2  0
 33 32  1  0
 34 33  2  0
 34 35  1  0
 35 36  2  0
 36 31  1  0
 36 28  1  0
 37 26  1  0
 37 39  1  0
 38 37  2  0
M  END
$$$$
