YYW.pdb
     RDKit          3D

 39 42  0  0  1  0  0  0  0  0999 V2000
   32.9361  -18.2205  -20.7871 O   0  0  0  0  0  0  0  0  0  0  0  0
   32.0296  -18.0500  -19.7502 C   0  0  0  0  0  0  0  0  0  0  0  0
   31.0874  -19.0446  -19.5170 C   0  0  0  0  0  0  0  0  0  0  0  0
   30.1830  -18.8915  -18.4945 C   0  0  0  0  0  0  0  0  0  0  0  0
   30.2427  -17.7375  -17.7228 C   0  0  0  0  0  0  0  0  0  0  0  0
   29.2855  -17.5495  -16.6230 C   0  0  0  0  0  0  0  0  0  0  0  0
   27.8796  -17.5274  -17.1858 C   0  0  2  0  0  0  0  0  0  0  0  0
   27.6541  -16.3498  -17.9988 N   0  0  0  0  0  0  0  0  0  0  0  0
   26.9495  -17.5626  -16.0305 C   0  0  0  0  0  0  0  0  0  0  0  0
   26.9730  -16.6869  -15.1333 O   0  0  0  0  0  0  0  0  0  0  0  0
   31.1848  -16.7537  -17.9637 C   0  0  0  0  0  0  0  0  0  0  0  0
   32.0808  -16.9190  -18.9864 C   0  0  0  0  0  0  0  0  0  0  0  0
   22.3484  -20.7194  -20.3127 O   0  0  0  0  0  0  0  0  0  0  0  0
   22.6673  -20.1119  -19.1117 C   0  0  0  0  0  0  0  0  0  0  0  0
   23.1776  -18.8269  -19.1204 C   0  0  0  0  0  0  0  0  0  0  0  0
   23.4908  -18.2365  -17.9018 C   0  0  0  0  0  0  0  0  0  0  0  0
   23.3132  -18.8785  -16.6990 C   0  0  0  0  0  0  0  0  0  0  0  0
   23.6495  -18.2457  -15.4024 C   0  0  0  0  0  0  0  0  0  0  0  0
   25.0166  -18.6826  -14.9233 C   0  0  2  0  0  0  0  0  0  0  0  0
   26.0109  -18.6266  -15.9541 N   0  0  0  0  0  0  0  0  0  0  0  0
   24.8681  -20.0715  -14.3738 C   0  0  0  0  0  0  0  0  0  0  0  0
   25.0576  -21.0781  -15.1053 O   0  0  0  0  0  0  0  0  0  0  0  0
   22.7964  -20.1734  -16.7307 C   0  0  0  0  0  0  0  0  0  0  0  0
   22.4820  -20.7713  -17.9191 C   0  0  0  0  0  0  0  0  0  0  0  0
   24.5129  -20.3083  -13.0260 N   0  0  0  0  0  0  0  0  0  0  0  0
   24.2615  -21.6201  -12.4603 C   0  0  1  0  0  0  0  0  0  0  0  0
   25.4156  -21.8959  -11.5013 C   0  0  0  0  0  0  0  0  0  0  0  0
   25.3915  -21.0099  -10.3365 C   0  0  0  0  0  0  0  0  0  0  0  0
   24.3313  -20.2748   -9.8720 C   0  0  0  0  0  0  0  0  0  0  0  0
   24.7267  -19.5969   -8.7795 N   0  0  0  0  0  0  0  0  0  0  0  0
   26.0208  -19.8615   -8.5055 C   0  0  0  0  0  0  0  0  0  0  0  0
   26.9144  -19.4684   -7.5507 C   0  0  0  0  0  0  0  0  0  0  0  0
   28.2005  -19.9487   -7.5670 C   0  0  0  0  0  0  0  0  0  0  0  0
   28.6352  -20.8330   -8.5324 C   0  0  0  0  0  0  0  0  0  0  0  0
   27.7449  -21.2358   -9.4985 C   0  0  0  0  0  0  0  0  0  0  0  0
   26.4405  -20.7520   -9.4865 C   0  0  0  0  0  0  0  0  0  0  0  0
   22.9625  -21.7176  -11.8023 C   0  0  0  0  0  0  0  0  0  0  0  0
   22.3052  -20.6921  -11.5324 O   0  0  0  0  0  0  0  0  0  0  0  0
   22.4419  -22.9498  -11.4687 O   0  0  0  0  0  0  0  0  0  0  0  0
  2 12  2  0
  2  1  1  0
  3  2  1  0
  4  5  1  0
  4  3  2  0
  5 11  2  0
  6  5  1  0
  6  7  1  0
  7  9  1  0
  7  8  1  1
  9 10  2  0
 11 12  1  0
 13 14  1  0
 14 15  2  0
 15 16  1  0
 17 18  1  0
 17 16  2  0
 19 18  1  6
 19 21  1  0
 20 19  1  0
 20  9  1  0
 21 22  2  0
 21 25  1  0
 23 17  1  0
 24 14  1  0
 24 23  2  0
 25 26  1  0
 26 27  1  1
 27 28  1  0
 28 29  2  0
 30 29  1  0
 31 30  1  0
 32 31  2  0
 33 32  1  0
 34 33  2  0
 34 35  1  0
 35 36  2  0
 36 31  1  0
 36 28  1  0
 37 26  1  0
 37 39  1  0
 38 37  2  0
M  END
$$$$
