YYW.pdb
     RDKit          3D

 39 42  0  0  1  0  0  0  0  0999 V2000
   28.9008  -12.6312  -15.6158 O   0  0  0  0  0  0  0  0  0  0  0  0
   27.7768  -11.8694  -15.9027 C   0  0  0  0  0  0  0  0  0  0  0  0
   27.3780  -11.7407  -17.2278 C   0  0  0  0  0  0  0  0  0  0  0  0
   26.2676  -10.9903  -17.5288 C   0  0  0  0  0  0  0  0  0  0  0  0
   25.5763  -10.3810  -16.4888 C   0  0  0  0  0  0  0  0  0  0  0  0
   24.3850   -9.5721  -16.7848 C   0  0  0  0  0  0  0  0  0  0  0  0
   23.1451  -10.4122  -16.5595 C   0  0  2  0  0  0  0  0  0  0  0  0
   23.1503  -11.5965  -17.3939 N   0  0  0  0  0  0  0  0  0  0  0  0
   21.9764   -9.5510  -16.8651 C   0  0  0  0  0  0  0  0  0  0  0  0
   21.6312   -9.2949  -18.0430 O   0  0  0  0  0  0  0  0  0  0  0  0
   25.9821  -10.5157  -15.1733 C   0  0  0  0  0  0  0  0  0  0  0  0
   27.0910  -11.2669  -14.8869 C   0  0  0  0  0  0  0  0  0  0  0  0
   16.3579  -13.3996  -16.5691 O   0  0  0  0  0  0  0  0  0  0  0  0
   16.9912  -12.2310  -16.1864 C   0  0  0  0  0  0  0  0  0  0  0  0
   17.9933  -12.2872  -15.2355 C   0  0  0  0  0  0  0  0  0  0  0  0
   18.6155  -11.1006  -14.8663 C   0  0  0  0  0  0  0  0  0  0  0  0
   18.2734   -9.8839  -15.4078 C   0  0  0  0  0  0  0  0  0  0  0  0
   18.9387   -8.6212  -15.0106 C   0  0  0  0  0  0  0  0  0  0  0  0
   20.0360   -8.2553  -15.9861 C   0  0  2  0  0  0  0  0  0  0  0  0
   21.2375   -9.0088  -15.7792 N   0  0  0  0  0  0  0  0  0  0  0  0
   20.2774   -6.7805  -15.8452 C   0  0  0  0  0  0  0  0  0  0  0  0
   20.8644   -6.3170  -14.8328 O   0  0  0  0  0  0  0  0  0  0  0  0
   17.2582   -9.8674  -16.3638 C   0  0  0  0  0  0  0  0  0  0  0  0
   16.6341  -11.0239  -16.7403 C   0  0  0  0  0  0  0  0  0  0  0  0
   19.8613   -5.8572  -16.8315 N   0  0  0  0  0  0  0  0  0  0  0  0
   19.9315   -4.4152  -16.6898 C   0  0  1  0  0  0  0  0  0  0  0  0
   19.6567   -3.8397  -18.0758 C   0  0  0  0  0  0  0  0  0  0  0  0
   19.7600   -2.3798  -18.0996 C   0  0  0  0  0  0  0  0  0  0  0  0
   20.9009   -1.6282  -18.2174 C   0  0  0  0  0  0  0  0  0  0  0  0
   20.5599   -0.3272  -18.1975 N   0  0  0  0  0  0  0  0  0  0  0  0
   19.2236   -0.1938  -18.0697 C   0  0  0  0  0  0  0  0  0  0  0  0
   18.3519    0.8547  -17.9961 C   0  0  0  0  0  0  0  0  0  0  0  0
   17.0046    0.6265  -17.8637 C   0  0  0  0  0  0  0  0  0  0  0  0
   16.4851   -0.6499  -17.8007 C   0  0  0  0  0  0  0  0  0  0  0  0
   17.3525   -1.7131  -17.8737 C   0  0  0  0  0  0  0  0  0  0  0  0
   18.7188   -1.4872  -18.0079 C   0  0  0  0  0  0  0  0  0  0  0  0
   19.0100   -3.8958  -15.6843 C   0  0  0  0  0  0  0  0  0  0  0  0
   17.8905   -4.4192  -15.5136 O   0  0  0  0  0  0  0  0  0  0  0  0
   19.3660   -2.8149  -14.9062 O   0  0  0  0  0  0  0  0  0  0  0  0
  2 12  2  0
  2  1  1  0
  3  2  1  0
  4  5  1  0
  4  3  2  0
  5 11  2  0
  6  5  1  0
  6  7  1  0
  7  9  1  0
  7  8  1  6
  9 10  2  0
 11 12  1  0
 13 14  1  0
 14 15  2  0
 15 16  1  0
 17 18  1  0
 17 16  2  0
 19 18  1  1
 19 21  1  0
 20 19  1  0
 20  9  1  0
 21 22  2  0
 21 25  1  0
 23 17  1  0
 24 14  1  0
 24 23  2  0
 25 26  1  0
 26 27  1  6
 27 28  1  0
 28 29  2  0
 30 29  1  0
 31 30  1  0
 32 31  2  0
 33 32  1  0
 34 33  2  0
 34 35  1  0
 35 36  2  0
 36 31  1  0
 36 28  1  0
 37 26  1  0
 37 39  1  0
 38 37  2  0
M  END
$$$$
