YYW.pdb
     RDKit          3D

 39 42  0  0  1  0  0  0  0  0999 V2000
   25.0616  -13.6486  -22.3042 O   0  0  0  0  0  0  0  0  0  0  0  0
   24.0719  -12.7293  -21.9860 C   0  0  0  0  0  0  0  0  0  0  0  0
   23.0269  -12.5367  -22.8817 C   0  0  0  0  0  0  0  0  0  0  0  0
   22.0391  -11.6305  -22.5818 C   0  0  0  0  0  0  0  0  0  0  0  0
   22.1203  -10.9324  -21.3832 C   0  0  0  0  0  0  0  0  0  0  0  0
   21.0759   -9.9566  -21.0393 C   0  0  0  0  0  0  0  0  0  0  0  0
   20.1791  -10.5444  -19.9696 C   0  0  2  0  0  0  0  0  0  0  0  0
   19.5443  -11.7647  -20.4241 N   0  0  0  0  0  0  0  0  0  0  0  0
   19.1683   -9.5113  -19.6353 C   0  0  0  0  0  0  0  0  0  0  0  0
   18.2832   -9.1608  -20.4515 O   0  0  0  0  0  0  0  0  0  0  0  0
   23.1650  -11.1319  -20.4988 C   0  0  0  0  0  0  0  0  0  0  0  0
   24.1435  -12.0385  -20.8101 C   0  0  0  0  0  0  0  0  0  0  0  0
   14.8747  -13.1867  -17.0255 O   0  0  0  0  0  0  0  0  0  0  0  0
   15.5398  -11.9777  -16.9303 C   0  0  0  0  0  0  0  0  0  0  0  0
   16.6049  -11.8608  -16.0564 C   0  0  0  0  0  0  0  0  0  0  0  0
   17.2581  -10.6366  -15.9774 C   0  0  0  0  0  0  0  0  0  0  0  0
   16.8867   -9.5477  -16.7301 C   0  0  0  0  0  0  0  0  0  0  0  0
   17.5853   -8.2442  -16.6419 C   0  0  0  0  0  0  0  0  0  0  0  0
   18.2768   -7.9094  -17.9454 C   0  0  2  0  0  0  0  0  0  0  0  0
   19.2190   -8.9116  -18.3482 N   0  0  0  0  0  0  0  0  0  0  0  0
   18.9354   -6.5728  -17.7645 C   0  0  0  0  0  0  0  0  0  0  0  0
   20.0628   -6.4788  -17.2127 O   0  0  0  0  0  0  0  0  0  0  0  0
   15.8081   -9.7042  -17.6001 C   0  0  0  0  0  0  0  0  0  0  0  0
   15.1526  -10.9002  -17.6922 C   0  0  0  0  0  0  0  0  0  0  0  0
   18.3261   -5.3739  -18.2006 N   0  0  0  0  0  0  0  0  0  0  0  0
   18.9222   -4.0570  -18.0787 C   0  0  1  0  0  0  0  0  0  0  0  0
   18.7608   -3.3914  -19.4420 C   0  0  0  0  0  0  0  0  0  0  0  0
   19.3279   -2.0423  -19.4701 C   0  0  0  0  0  0  0  0  0  0  0  0
   20.6378   -1.6860  -19.2763 C   0  0  0  0  0  0  0  0  0  0  0  0
   20.7381   -0.3491  -19.3851 N   0  0  0  0  0  0  0  0  0  0  0  0
   19.5304    0.1928  -19.6459 C   0  0  0  0  0  0  0  0  0  0  0  0
   19.0527    1.4559  -19.8483 C   0  0  0  0  0  0  0  0  0  0  0  0
   17.7183    1.6590  -20.0992 C   0  0  0  0  0  0  0  0  0  0  0  0
   16.8207    0.6130  -20.1563 C   0  0  0  0  0  0  0  0  0  0  0  0
   17.2898   -0.6627  -19.9543 C   0  0  0  0  0  0  0  0  0  0  0  0
   18.6411   -0.8739  -19.6996 C   0  0  0  0  0  0  0  0  0  0  0  0
   18.3349   -3.2629  -17.0043 C   0  0  0  0  0  0  0  0  0  0  0  0
   17.1324   -3.3930  -16.6985 O   0  0  0  0  0  0  0  0  0  0  0  0
   19.1046   -2.3543  -16.3097 O   0  0  0  0  0  0  0  0  0  0  0  0
  2 12  2  0
  2  1  1  0
  3  2  1  0
  4  5  1  0
  4  3  2  0
  5 11  2  0
  6  5  1  0
  6  7  1  0
  7  9  1  0
  7  8  1  6
  9 10  2  0
 11 12  1  0
 13 14  1  0
 14 15  2  0
 15 16  1  0
 17 18  1  0
 17 16  2  0
 19 18  1  1
 19 21  1  0
 20 19  1  0
 20  9  1  0
 21 22  2  0
 21 25  1  0
 23 17  1  0
 24 14  1  0
 24 23  2  0
 25 26  1  0
 26 27  1  6
 27 28  1  0
 28 29  2  0
 30 29  1  0
 31 30  1  0
 32 31  2  0
 33 32  1  0
 34 33  2  0
 34 35  1  0
 35 36  2  0
 36 31  1  0
 36 28  1  0
 37 26  1  0
 37 39  1  0
 38 37  2  0
M  END
$$$$
