YYW.pdb
     RDKit          3D

 39 42  0  0  1  0  0  0  0  0999 V2000
   24.6186  -18.2072  -21.5061 O   0  0  0  0  0  0  0  0  0  0  0  0
   24.3713  -18.1339  -20.1425 C   0  0  0  0  0  0  0  0  0  0  0  0
   25.2237  -18.8034  -19.2727 C   0  0  0  0  0  0  0  0  0  0  0  0
   24.9931  -18.7409  -17.9200 C   0  0  0  0  0  0  0  0  0  0  0  0
   23.9063  -18.0042  -17.4652 C   0  0  0  0  0  0  0  0  0  0  0  0
   23.6377  -17.9222  -16.0222 C   0  0  0  0  0  0  0  0  0  0  0  0
   22.8606  -19.1485  -15.5907 C   0  0  2  0  0  0  0  0  0  0  0  0
   21.4933  -19.1026  -16.0674 N   0  0  0  0  0  0  0  0  0  0  0  0
   22.9063  -19.1914  -14.1084 C   0  0  0  0  0  0  0  0  0  0  0  0
   22.3499  -18.3173  -13.4022 O   0  0  0  0  0  0  0  0  0  0  0  0
   23.0642  -17.3416  -18.3400 C   0  0  0  0  0  0  0  0  0  0  0  0
   23.3055  -17.4121  -19.6864 C   0  0  0  0  0  0  0  0  0  0  0  0
   17.5093  -21.2556  -11.0960 O   0  0  0  0  0  0  0  0  0  0  0  0
   18.8855  -21.3491  -11.1993 C   0  0  0  0  0  0  0  0  0  0  0  0
   19.4438  -21.8072  -12.3783 C   0  0  0  0  0  0  0  0  0  0  0  0
   20.8285  -21.8929  -12.4594 C   0  0  0  0  0  0  0  0  0  0  0  0
   21.6557  -21.5415  -11.4187 C   0  0  0  0  0  0  0  0  0  0  0  0
   23.1314  -21.6354  -11.5091 C   0  0  0  0  0  0  0  0  0  0  0  0
   23.7240  -20.3577  -12.0621 C   0  0  2  0  0  0  0  0  0  0  0  0
   23.6051  -20.2613  -13.4872 N   0  0  0  0  0  0  0  0  0  0  0  0
   25.1585  -20.3108  -11.6229 C   0  0  0  0  0  0  0  0  0  0  0  0
   26.0448  -20.9523  -12.2452 O   0  0  0  0  0  0  0  0  0  0  0  0
   21.0558  -21.0840  -10.2459 C   0  0  0  0  0  0  0  0  0  0  0  0
   19.6955  -20.9926  -10.1465 C   0  0  0  0  0  0  0  0  0  0  0  0
   25.5734  -19.5531  -10.5038 N   0  0  0  0  0  0  0  0  0  0  0  0
   26.7678  -19.8219   -9.7258 C   0  0  1  0  0  0  0  0  0  0  0  0
   26.3525  -19.7150   -8.2617 C   0  0  0  0  0  0  0  0  0  0  0  0
   27.3949  -19.1068   -7.4334 C   0  0  0  0  0  0  0  0  0  0  0  0
   27.9683  -17.8713   -7.5916 C   0  0  0  0  0  0  0  0  0  0  0  0
   28.8820  -17.6962   -6.6201 N   0  0  0  0  0  0  0  0  0  0  0  0
   28.9314  -18.7818   -5.8207 C   0  0  0  0  0  0  0  0  0  0  0  0
   29.6474  -19.1467   -4.7167 C   0  0  0  0  0  0  0  0  0  0  0  0
   29.4392  -20.3705   -4.1303 C   0  0  0  0  0  0  0  0  0  0  0  0
   28.5137  -21.2664   -4.6241 C   0  0  0  0  0  0  0  0  0  0  0  0
   27.7871  -20.9103   -5.7347 C   0  0  0  0  0  0  0  0  0  0  0  0
   27.9943  -19.6713   -6.3327 C   0  0  0  0  0  0  0  0  0  0  0  0
   27.3705  -21.1145  -10.0352 C   0  0  0  0  0  0  0  0  0  0  0  0
   28.6026  -21.2215  -10.1989 O   0  0  0  0  0  0  0  0  0  0  0  0
   26.5827  -22.2399  -10.1511 O   0  0  0  0  0  0  0  0  0  0  0  0
  2 12  2  0
  2  1  1  0
  3  2  1  0
  4  5  1  0
  4  3  2  0
  5 11  2  0
  6  5  1  0
  6  7  1  0
  7  9  1  0
  7  8  1  1
  9 10  2  0
 11 12  1  0
 13 14  1  0
 14 15  2  0
 15 16  1  0
 17 18  1  0
 17 16  2  0
 19 18  1  6
 19 21  1  0
 20 19  1  0
 20  9  1  0
 21 22  2  0
 21 25  1  0
 23 17  1  0
 24 14  1  0
 24 23  2  0
 25 26  1  0
 26 27  1  1
 27 28  1  0
 28 29  2  0
 30 29  1  0
 31 30  1  0
 32 31  2  0
 33 32  1  0
 34 33  2  0
 34 35  1  0
 35 36  2  0
 36 31  1  0
 36 28  1  0
 37 26  1  0
 37 39  1  0
 38 37  2  0
M  END
$$$$
