YYW.pdb
     RDKit          3D

 39 42  0  0  1  0  0  0  0  0999 V2000
   26.5632  -12.4627  -21.5101 O   0  0  0  0  0  0  0  0  0  0  0  0
   26.0403  -13.6144  -20.9391 C   0  0  0  0  0  0  0  0  0  0  0  0
   25.3070  -14.4824  -21.7392 C   0  0  0  0  0  0  0  0  0  0  0  0
   24.7826  -15.6269  -21.1896 C   0  0  0  0  0  0  0  0  0  0  0  0
   25.0057  -15.8785  -19.8414 C   0  0  0  0  0  0  0  0  0  0  0  0
   24.4547  -17.0962  -19.2293 C   0  0  0  0  0  0  0  0  0  0  0  0
   25.5943  -18.0013  -18.8099 C   0  0  2  0  0  0  0  0  0  0  0  0
   26.4070  -18.3883  -19.9451 N   0  0  0  0  0  0  0  0  0  0  0  0
   24.9880  -19.1891  -18.1599 C   0  0  0  0  0  0  0  0  0  0  0  0
   24.6818  -20.2168  -18.8098 O   0  0  0  0  0  0  0  0  0  0  0  0
   25.7372  -15.0075  -19.0542 C   0  0  0  0  0  0  0  0  0  0  0  0
   26.2546  -13.8699  -19.6148 C   0  0  0  0  0  0  0  0  0  0  0  0
   29.7346  -23.3590  -16.7710 O   0  0  0  0  0  0  0  0  0  0  0  0
   28.6051  -22.7058  -16.3119 C   0  0  0  0  0  0  0  0  0  0  0  0
   28.6650  -21.3464  -16.0666 C   0  0  0  0  0  0  0  0  0  0  0  0
   27.5180  -20.7112  -15.6057 C   0  0  0  0  0  0  0  0  0  0  0  0
   26.3367  -21.3799  -15.3869 C   0  0  0  0  0  0  0  0  0  0  0  0
   25.1166  -20.6989  -14.8946 C   0  0  0  0  0  0  0  0  0  0  0  0
   24.2316  -20.2713  -16.0449 C   0  0  2  0  0  0  0  0  0  0  0  0
   24.7545  -19.1439  -16.7591 N   0  0  0  0  0  0  0  0  0  0  0  0
   22.8743  -19.9821  -15.4731 C   0  0  0  0  0  0  0  0  0  0  0  0
   22.7270  -19.1244  -14.5637 O   0  0  0  0  0  0  0  0  0  0  0  0
   26.3152  -22.7501  -15.6457 C   0  0  0  0  0  0  0  0  0  0  0  0
   27.4330  -23.3931  -16.0994 C   0  0  0  0  0  0  0  0  0  0  0  0
   21.7143  -20.6522  -15.9249 N   0  0  0  0  0  0  0  0  0  0  0  0
   20.3892  -20.4717  -15.3633 C   0  0  1  0  0  0  0  0  0  0  0  0
   19.5190  -19.9345  -16.4954 C   0  0  0  0  0  0  0  0  0  0  0  0
   18.1501  -19.6567  -16.0578 C   0  0  0  0  0  0  0  0  0  0  0  0
   17.7161  -19.4285  -14.7772 C   0  0  0  0  0  0  0  0  0  0  0  0
   16.3886  -19.2140  -14.8073 N   0  0  0  0  0  0  0  0  0  0  0  0
   15.9286  -19.2935  -16.0731 C   0  0  0  0  0  0  0  0  0  0  0  0
   14.7102  -19.1670  -16.6764 C   0  0  0  0  0  0  0  0  0  0  0  0
   14.5929  -19.3142  -18.0364 C   0  0  0  0  0  0  0  0  0  0  0  0
   15.6828  -19.5912  -18.8354 C   0  0  0  0  0  0  0  0  0  0  0  0
   16.9142  -19.7207  -18.2395 C   0  0  0  0  0  0  0  0  0  0  0  0
   17.0384  -19.5725  -16.8617 C   0  0  0  0  0  0  0  0  0  0  0  0
   19.8450  -21.6950  -14.7823 C   0  0  0  0  0  0  0  0  0  0  0  0
   19.8818  -22.7716  -15.4115 O   0  0  0  0  0  0  0  0  0  0  0  0
   19.2805  -21.6770  -13.5247 O   0  0  0  0  0  0  0  0  0  0  0  0
  2 12  2  0
  2  1  1  0
  3  2  1  0
  4  5  1  0
  4  3  2  0
  5 11  2  0
  6  5  1  0
  6  7  1  0
  7  9  1  0
  7  8  1  6
  9 10  2  0
 11 12  1  0
 13 14  1  0
 14 15  2  0
 15 16  1  0
 17 18  1  0
 17 16  2  0
 19 18  1  1
 19 21  1  0
 20 19  1  0
 20  9  1  0
 21 22  2  0
 21 25  1  0
 23 17  1  0
 24 14  1  0
 24 23  2  0
 25 26  1  0
 26 27  1  6
 27 28  1  0
 28 29  2  0
 30 29  1  0
 31 30  1  0
 32 31  2  0
 33 32  1  0
 34 33  2  0
 34 35  1  0
 35 36  2  0
 36 31  1  0
 36 28  1  0
 37 26  1  0
 37 39  1  0
 38 37  2  0
M  END
$$$$
