YYW.pdb
     RDKit          3D

 39 42  0  0  1  0  0  0  0  0999 V2000
   18.0752  -15.6820  -16.2766 O   0  0  0  0  0  0  0  0  0  0  0  0
   18.7698  -16.6534  -15.5697 C   0  0  0  0  0  0  0  0  0  0  0  0
   20.1007  -16.4192  -15.2451 C   0  0  0  0  0  0  0  0  0  0  0  0
   20.8025  -17.3705  -14.5455 C   0  0  0  0  0  0  0  0  0  0  0  0
   20.1514  -18.5435  -14.1840 C   0  0  0  0  0  0  0  0  0  0  0  0
   20.8806  -19.5775  -13.4355 C   0  0  0  0  0  0  0  0  0  0  0  0
   21.8306  -20.2931  -14.3731 C   0  0  2  0  0  0  0  0  0  0  0  0
   21.1139  -21.1258  -15.3175 N   0  0  0  0  0  0  0  0  0  0  0  0
   22.7409  -21.1067  -13.5302 C   0  0  0  0  0  0  0  0  0  0  0  0
   22.3219  -22.0571  -12.8278 O   0  0  0  0  0  0  0  0  0  0  0  0
   18.8262  -18.7664  -14.5123 C   0  0  0  0  0  0  0  0  0  0  0  0
   18.1380  -17.8095  -15.2101 C   0  0  0  0  0  0  0  0  0  0  0  0
   23.9830  -26.4718  -16.5779 O   0  0  0  0  0  0  0  0  0  0  0  0
   24.5100  -25.4221  -15.8473 C   0  0  0  0  0  0  0  0  0  0  0  0
   24.6095  -24.1744  -16.4348 C   0  0  0  0  0  0  0  0  0  0  0  0
   25.1421  -23.1347  -15.6819 C   0  0  0  0  0  0  0  0  0  0  0  0
   25.5698  -23.3008  -14.3858 C   0  0  0  0  0  0  0  0  0  0  0  0
   26.1380  -22.1899  -13.5872 C   0  0  0  0  0  0  0  0  0  0  0  0
   25.0707  -21.5242  -12.7464 C   0  0  2  0  0  0  0  0  0  0  0  0
   24.1251  -20.7861  -13.5309 N   0  0  0  0  0  0  0  0  0  0  0  0
   25.7751  -20.6427  -11.7566 C   0  0  0  0  0  0  0  0  0  0  0  0
   25.8916  -19.4064  -11.9626 O   0  0  0  0  0  0  0  0  0  0  0  0
   25.4535  -24.5735  -13.8276 C   0  0  0  0  0  0  0  0  0  0  0  0
   24.9322  -25.6091  -14.5519 C   0  0  0  0  0  0  0  0  0  0  0  0
   26.3328  -21.1554  -10.5629 N   0  0  0  0  0  0  0  0  0  0  0  0
   27.1033  -20.3748   -9.6137 C   0  0  1  0  0  0  0  0  0  0  0  0
   26.2721  -20.3218   -8.3355 C   0  0  0  0  0  0  0  0  0  0  0  0
   26.8832  -19.4718   -7.3124 C   0  0  0  0  0  0  0  0  0  0  0  0
   26.7679  -18.1115   -7.1834 C   0  0  0  0  0  0  0  0  0  0  0  0
   27.4828  -17.7213   -6.1128 N   0  0  0  0  0  0  0  0  0  0  0  0
   28.0700  -18.7853   -5.5271 C   0  0  0  0  0  0  0  0  0  0  0  0
   28.8818  -18.9771   -4.4460 C   0  0  0  0  0  0  0  0  0  0  0  0
   29.3120  -20.2393   -4.1190 C   0  0  0  0  0  0  0  0  0  0  0  0
   28.9478  -21.3465   -4.8568 C   0  0  0  0  0  0  0  0  0  0  0  0
   28.1311  -21.1659   -5.9471 C   0  0  0  0  0  0  0  0  0  0  0  0
   27.6925  -19.8890   -6.2827 C   0  0  0  0  0  0  0  0  0  0  0  0
   28.4385  -20.9163   -9.3814 C   0  0  0  0  0  0  0  0  0  0  0  0
   28.6203  -22.1468   -9.2850 O   0  0  0  0  0  0  0  0  0  0  0  0
   29.5217  -20.0715   -9.2648 O   0  0  0  0  0  0  0  0  0  0  0  0
  2 12  2  0
  2  1  1  0
  3  2  1  0
  4  5  1  0
  4  3  2  0
  5 11  2  0
  6  5  1  0
  6  7  1  0
  7  9  1  0
  7  8  1  6
  9 10  2  0
 11 12  1  0
 13 14  1  0
 14 15  2  0
 15 16  1  0
 17 18  1  0
 17 16  2  0
 19 18  1  6
 19 21  1  0
 20 19  1  0
 20  9  1  0
 21 22  2  0
 21 25  1  0
 23 17  1  0
 24 14  1  0
 24 23  2  0
 25 26  1  0
 26 27  1  1
 27 28  1  0
 28 29  2  0
 30 29  1  0
 31 30  1  0
 32 31  2  0
 33 32  1  0
 34 33  2  0
 34 35  1  0
 35 36  2  0
 36 31  1  0
 36 28  1  0
 37 26  1  0
 37 39  1  0
 38 37  2  0
M  END
$$$$
