ELH.pdb
     RDKit          3D

 28 28  0  0  1  0  0  0  0  0999 V2000
    9.1635  -16.4057   19.7108 N   0  0  0  0  0  0  0  0  0  0  0  0
    8.1985  -16.6402   20.7475 C   0  0  1  0  0  0  0  0  0  0  0  0
    7.8684  -18.0584   21.0361 C   0  0  0  0  0  0  0  0  0  0  0  0
    8.9954  -18.9136   21.4579 C   0  0  0  0  0  0  0  0  0  0  0  0
    8.7030  -20.2974   21.8302 C   0  0  0  0  0  0  0  0  0  0  0  0
    8.8864  -21.2677   21.0831 O   0  0  0  0  0  0  0  0  0  0  0  0
    8.6935  -15.9256   21.9713 C   0  0  0  0  0  0  0  0  0  0  0  0
    9.9027  -15.6962   22.1168 O   0  0  0  0  0  0  0  0  0  0  0  0
    8.1824  -20.5648   23.1053 O   0  0  0  0  0  0  0  0  0  0  0  0
    6.1728  -12.9571   26.8314 C   0  0  0  0  0  0  0  0  0  0  0  0
    7.3596  -13.2698   25.9475 C   0  0  2  0  0  0  0  0  0  0  0  0
    7.8600  -11.9327   25.4099 C   0  0  0  0  0  0  0  0  0  0  0  0
    6.9113  -14.0810   24.7260 C   0  0  0  0  0  0  0  0  0  0  0  0
    8.0559  -14.7597   24.0695 C   0  0  2  0  0  0  0  0  0  0  0  0
    7.7347  -15.5377   22.9234 N   0  0  0  0  0  0  0  0  0  0  0  0
    8.9416  -15.5093   25.0353 C   0  0  0  0  0  0  0  0  0  0  0  0
    8.5086  -16.3498   25.8595 O   0  0  0  0  0  0  0  0  0  0  0  0
   10.3453  -15.2923   25.0567 N   0  0  0  0  0  0  0  0  0  0  0  0
   11.2288  -15.9575   26.0255 C   0  0  1  0  0  0  0  0  0  0  0  0
   10.4533  -16.5359   27.1575 C   0  0  0  0  0  0  0  0  0  0  0  0
   10.3098  -15.5376   28.2366 C   0  0  0  0  0  0  0  0  0  0  0  0
   10.4377  -14.1594   28.0671 C   0  0  0  0  0  0  0  0  0  0  0  0
   10.2510  -13.5321   29.2415 N   0  0  0  0  0  0  0  0  0  0  0  0
   10.0069  -14.4978   30.1506 C   0  0  0  0  0  0  0  0  0  0  0  0
   10.0437  -15.6894   29.5440 N   0  0  0  0  0  0  0  0  0  0  0  0
   12.0061  -17.0037   25.3251 C   0  0  0  0  0  0  0  0  0  0  0  0
   11.7226  -17.2935   23.9826 O   0  0  0  0  0  0  0  0  0  0  0  0
   12.9160  -17.6597   25.8591 O   0  0  0  0  0  0  0  0  0  0  0  0
  2  3  1  0
  2  1  1  6
  4  3  1  0
  4  5  1  0
  5  6  2  0
  7  2  1  0
  8  7  2  0
  9  5  1  0
 11 10  1  1
 12 11  1  0
 13 11  1  0
 14 13  1  1
 14 15  1  0
 15  7  1  0
 16 17  2  0
 16 14  1  0
 18 16  1  0
 19 18  1  0
 19 20  1  1
 21 20  1  0
 22 21  2  0
 23 24  1  0
 23 22  1  0
 24 25  2  0
 25 21  1  0
 26 19  1  0
 27 26  1  0
 28 26  2  0
M  END
$$$$
