ELH.pdb
     RDKit          3D

 28 28  0  0  1  0  0  0  0  0999 V2000
    9.3681  -18.3566   18.7021 N   0  0  0  0  0  0  0  0  0  0  0  0
   10.5840  -17.6198   18.5028 C   0  0  1  0  0  0  0  0  0  0  0  0
   10.9134  -17.2521   17.1028 C   0  0  0  0  0  0  0  0  0  0  0  0
    9.8468  -16.5698   16.3436 C   0  0  0  0  0  0  0  0  0  0  0  0
   10.1149  -16.2212   14.9488 C   0  0  0  0  0  0  0  0  0  0  0  0
   11.2115  -16.3783   14.3955 O   0  0  0  0  0  0  0  0  0  0  0  0
   10.5105  -16.4119   19.3912 C   0  0  0  0  0  0  0  0  0  0  0  0
   11.4777  -15.6425   19.4836 O   0  0  0  0  0  0  0  0  0  0  0  0
    9.0824  -15.6740   14.1724 O   0  0  0  0  0  0  0  0  0  0  0  0
    8.7224  -12.5774   19.4427 C   0  0  0  0  0  0  0  0  0  0  0  0
    7.7392  -13.7192   19.5738 C   0  0  2  0  0  0  0  0  0  0  0  0
    6.3479  -13.0939   19.5512 C   0  0  0  0  0  0  0  0  0  0  0  0
    7.8849  -14.3890   20.9453 C   0  0  0  0  0  0  0  0  0  0  0  0
    9.1499  -15.1577   21.0476 C   0  0  2  0  0  0  0  0  0  0  0  0
    9.3131  -16.2029   20.0974 N   0  0  0  0  0  0  0  0  0  0  0  0
    9.4619  -15.6132   22.4527 C   0  0  0  0  0  0  0  0  0  0  0  0
    9.4694  -14.8429   23.4426 O   0  0  0  0  0  0  0  0  0  0  0  0
    9.7699  -16.9724   22.7275 N   0  0  0  0  0  0  0  0  0  0  0  0
   10.1404  -17.4381   24.0720 C   0  0  1  0  0  0  0  0  0  0  0  0
    9.5120  -18.7518   24.3825 C   0  0  0  0  0  0  0  0  0  0  0  0
    8.0425  -18.6497   24.2725 C   0  0  0  0  0  0  0  0  0  0  0  0
    7.3035  -17.4970   24.5362 C   0  0  0  0  0  0  0  0  0  0  0  0
    5.9944  -17.7357   24.3438 N   0  0  0  0  0  0  0  0  0  0  0  0
    5.8981  -19.0255   23.9620 C   0  0  0  0  0  0  0  0  0  0  0  0
    7.1223  -19.5627   23.9220 N   0  0  0  0  0  0  0  0  0  0  0  0
   11.6151  -17.5209   24.1606 C   0  0  0  0  0  0  0  0  0  0  0  0
   12.2132  -17.9471   25.3554 O   0  0  0  0  0  0  0  0  0  0  0  0
   12.3790  -17.2309   23.2249 O   0  0  0  0  0  0  0  0  0  0  0  0
  2  3  1  0
  2  1  1  6
  4  3  1  0
  4  5  1  0
  5  6  2  0
  7  2  1  0
  8  7  2  0
  9  5  1  0
 11 10  1  1
 12 11  1  0
 13 11  1  0
 14 13  1  1
 14 15  1  0
 15  7  1  0
 16 17  2  0
 16 14  1  0
 18 16  1  0
 19 18  1  0
 19 20  1  6
 21 20  1  0
 22 21  2  0
 23 24  1  0
 23 22  1  0
 24 25  2  0
 25 21  1  0
 26 19  1  0
 27 26  1  0
 28 26  2  0
M  END
$$$$
