ELH.pdb
     RDKit          3D

 28 28  0  0  1  0  0  0  0  0999 V2000
    7.6759  -18.0877   22.1302 N   0  0  0  0  0  0  0  0  0  0  0  0
    8.8783  -17.3839   21.7842 C   0  0  1  0  0  0  0  0  0  0  0  0
    9.0146  -16.9628   20.3673 C   0  0  0  0  0  0  0  0  0  0  0  0
    7.9748  -16.0453   19.8607 C   0  0  0  0  0  0  0  0  0  0  0  0
    8.0250  -15.6659   18.4492 C   0  0  0  0  0  0  0  0  0  0  0  0
    7.0480  -15.7000   17.6891 O   0  0  0  0  0  0  0  0  0  0  0  0
    8.9838  -16.2168   22.7225 C   0  0  0  0  0  0  0  0  0  0  0  0
    9.9105  -15.4020   22.6072 O   0  0  0  0  0  0  0  0  0  0  0  0
    9.2429  -15.2349   17.9020 O   0  0  0  0  0  0  0  0  0  0  0  0
    5.6514  -12.6233   26.3312 C   0  0  0  0  0  0  0  0  0  0  0  0
    7.0006  -13.1810   25.9358 C   0  0  2  0  0  0  0  0  0  0  0  0
    7.7674  -12.0329   25.2867 C   0  0  0  0  0  0  0  0  0  0  0  0
    6.8340  -14.2515   24.8508 C   0  0  0  0  0  0  0  0  0  0  0  0
    8.0422  -15.1049   24.7337 C   0  0  2  0  0  0  0  0  0  0  0  0
    7.9976  -16.0982   23.7173 N   0  0  0  0  0  0  0  0  0  0  0  0
    8.5103  -15.6645   26.0553 C   0  0  0  0  0  0  0  0  0  0  0  0
    7.7430  -15.8840   27.0230 O   0  0  0  0  0  0  0  0  0  0  0  0
    9.8790  -15.9777   26.2712 N   0  0  0  0  0  0  0  0  0  0  0  0
   10.3083  -17.2395   26.8921 C   0  0  1  0  0  0  0  0  0  0  0  0
    9.7782  -18.4163   26.1494 C   0  0  0  0  0  0  0  0  0  0  0  0
    8.6337  -19.0017   26.8769 C   0  0  0  0  0  0  0  0  0  0  0  0
    8.0999  -18.4936   28.0606 C   0  0  0  0  0  0  0  0  0  0  0  0
    7.0686  -19.2557   28.4646 N   0  0  0  0  0  0  0  0  0  0  0  0
    6.9449  -20.2390   27.5501 C   0  0  0  0  0  0  0  0  0  0  0  0
    7.8808  -20.0806   26.6077 N   0  0  0  0  0  0  0  0  0  0  0  0
   11.7866  -17.2679   26.9465 C   0  0  0  0  0  0  0  0  0  0  0  0
   12.4319  -18.2586   27.7008 O   0  0  0  0  0  0  0  0  0  0  0  0
   12.5137  -16.4530   26.3545 O   0  0  0  0  0  0  0  0  0  0  0  0
  2  3  1  0
  2  1  1  6
  4  3  1  0
  4  5  1  0
  5  6  2  0
  7  2  1  0
  8  7  2  0
  9  5  1  0
 11 10  1  6
 12 11  1  0
 13 11  1  0
 14 13  1  1
 14 15  1  0
 15  7  1  0
 16 17  2  0
 16 14  1  0
 18 16  1  0
 19 18  1  0
 19 20  1  6
 21 20  1  0
 22 21  2  0
 23 24  1  0
 23 22  1  0
 24 25  2  0
 25 21  1  0
 26 19  1  0
 27 26  1  0
 28 26  2  0
M  END
$$$$
