ELH.pdb
     RDKit          3D

 28 28  0  0  1  0  0  0  0  0999 V2000
    7.5511  -18.0677   22.2662 N   0  0  0  0  0  0  0  0  0  0  0  0
    8.8231  -17.8577   21.6347 C   0  0  1  0  0  0  0  0  0  0  0  0
    8.8113  -17.6980   20.1589 C   0  0  0  0  0  0  0  0  0  0  0  0
    7.6682  -18.3067   19.4500 C   0  0  0  0  0  0  0  0  0  0  0  0
    7.0561  -17.5482   18.3597 C   0  0  0  0  0  0  0  0  0  0  0  0
    7.6826  -16.7871   17.6103 O   0  0  0  0  0  0  0  0  0  0  0  0
    9.4565  -16.6791   22.3153 C   0  0  0  0  0  0  0  0  0  0  0  0
   10.5029  -16.1863   21.8700 O   0  0  0  0  0  0  0  0  0  0  0  0
    5.6776  -17.6747   18.1312 O   0  0  0  0  0  0  0  0  0  0  0  0
    7.5952  -12.9563   23.0060 C   0  0  0  0  0  0  0  0  0  0  0  0
    7.1714  -13.9274   24.0853 C   0  0  2  0  0  0  0  0  0  0  0  0
    6.1892  -13.1762   24.9787 C   0  0  0  0  0  0  0  0  0  0  0  0
    8.3682  -14.2876   24.9735 C   0  0  0  0  0  0  0  0  0  0  0  0
    9.3575  -15.1218   24.2474 C   0  0  2  0  0  0  0  0  0  0  0  0
    8.8147  -16.1736   23.4594 N   0  0  0  0  0  0  0  0  0  0  0  0
   10.4968  -15.5936   25.1182 C   0  0  0  0  0  0  0  0  0  0  0  0
   11.5497  -14.9351   25.2945 O   0  0  0  0  0  0  0  0  0  0  0  0
   10.4283  -16.8394   25.7974 N   0  0  0  0  0  0  0  0  0  0  0  0
   11.5161  -17.3258   26.6588 C   0  0  1  0  0  0  0  0  0  0  0  0
   11.0723  -17.4472   28.0751 C   0  0  0  0  0  0  0  0  0  0  0  0
   10.8282  -16.1072   28.6468 C   0  0  0  0  0  0  0  0  0  0  0  0
   10.7898  -14.9235   27.9107 C   0  0  0  0  0  0  0  0  0  0  0  0
   10.5480  -13.8823   28.7261 N   0  0  0  0  0  0  0  0  0  0  0  0
   10.4335  -14.3945   29.9684 C   0  0  0  0  0  0  0  0  0  0  0  0
   10.6016  -15.7202   29.9125 N   0  0  0  0  0  0  0  0  0  0  0  0
   11.9938  -18.6260   26.1389 C   0  0  0  0  0  0  0  0  0  0  0  0
   13.0236  -19.3025   26.8088 O   0  0  0  0  0  0  0  0  0  0  0  0
   11.5331  -19.1732   25.1232 O   0  0  0  0  0  0  0  0  0  0  0  0
  2  3  1  0
  2  1  1  1
  4  3  1  0
  4  5  1  0
  5  6  2  0
  7  2  1  0
  8  7  2  0
  9  5  1  0
 11 10  1  6
 12 11  1  0
 13 11  1  0
 14 13  1  1
 14 15  1  0
 15  7  1  0
 16 17  2  0
 16 14  1  0
 18 16  1  0
 19 18  1  0
 19 20  1  1
 21 20  1  0
 22 21  2  0
 23 24  1  0
 23 22  1  0
 24 25  2  0
 25 21  1  0
 26 19  1  0
 27 26  1  0
 28 26  2  0
M  END
$$$$
