ELH.pdb
     RDKit          3D

 28 28  0  0  1  0  0  0  0  0999 V2000
    8.9850  -14.5757   20.1189 N   0  0  0  0  0  0  0  0  0  0  0  0
    7.9394  -14.8895   21.0512 C   0  0  1  0  0  0  0  0  0  0  0  0
    7.1290  -16.0974   20.7553 C   0  0  0  0  0  0  0  0  0  0  0  0
    7.8847  -17.3106   20.3855 C   0  0  0  0  0  0  0  0  0  0  0  0
    7.1258  -18.5198   20.0681 C   0  0  0  0  0  0  0  0  0  0  0  0
    6.5347  -18.7033   18.9956 O   0  0  0  0  0  0  0  0  0  0  0  0
    8.5766  -14.9675   22.4083 C   0  0  0  0  0  0  0  0  0  0  0  0
    9.7581  -15.3228   22.5262 O   0  0  0  0  0  0  0  0  0  0  0  0
    7.0491  -19.5464   21.0214 O   0  0  0  0  0  0  0  0  0  0  0  0
    8.5112  -11.9541   26.2155 C   0  0  0  0  0  0  0  0  0  0  0  0
    7.2430  -12.6199   25.7299 C   0  0  2  0  0  0  0  0  0  0  0  0
    6.1323  -12.1707   26.6743 C   0  0  0  0  0  0  0  0  0  0  0  0
    7.3494  -14.1413   25.8878 C   0  0  0  0  0  0  0  0  0  0  0  0
    8.2349  -14.7380   24.8575 C   0  0  2  0  0  0  0  0  0  0  0  0
    7.7808  -14.6235   23.5149 N   0  0  0  0  0  0  0  0  0  0  0  0
    8.6784  -16.1423   25.1896 C   0  0  0  0  0  0  0  0  0  0  0  0
    8.6238  -17.0946   24.3751 O   0  0  0  0  0  0  0  0  0  0  0  0
    9.1924  -16.4601   26.4752 N   0  0  0  0  0  0  0  0  0  0  0  0
   10.3462  -17.3523   26.6619 C   0  0  1  0  0  0  0  0  0  0  0  0
   11.5745  -16.7869   26.0382 C   0  0  0  0  0  0  0  0  0  0  0  0
   11.7948  -17.3949   24.7101 C   0  0  0  0  0  0  0  0  0  0  0  0
   10.9459  -18.3245   24.1103 C   0  0  0  0  0  0  0  0  0  0  0  0
   11.4297  -18.6803   22.9074 N   0  0  0  0  0  0  0  0  0  0  0  0
   12.5740  -17.9865   22.7406 C   0  0  0  0  0  0  0  0  0  0  0  0
   12.7843  -17.2233   23.8187 N   0  0  0  0  0  0  0  0  0  0  0  0
   10.5440  -17.5827   28.1100 C   0  0  0  0  0  0  0  0  0  0  0  0
   10.4084  -18.8786   28.6289 O   0  0  0  0  0  0  0  0  0  0  0  0
   10.8292  -16.6834   28.9182 O   0  0  0  0  0  0  0  0  0  0  0  0
  2  3  1  0
  2  1  1  6
  4  3  1  0
  4  5  1  0
  5  6  2  0
  7  2  1  0
  8  7  2  0
  9  5  1  0
 11 10  1  1
 12 11  1  0
 13 11  1  0
 14 13  1  1
 14 15  1  0
 15  7  1  0
 16 17  2  0
 16 14  1  0
 18 16  1  0
 19 18  1  0
 19 20  1  1
 21 20  1  0
 22 21  2  0
 23 24  1  0
 23 22  1  0
 24 25  2  0
 25 21  1  0
 26 19  1  0
 27 26  1  0
 28 26  2  0
M  END
$$$$
