ELH.pdb
     RDKit          3D

 28 28  0  0  1  0  0  0  0  0999 V2000
    8.9546  -18.5092   17.7520 N   0  0  0  0  0  0  0  0  0  0  0  0
    8.0046  -18.1431   18.7642 C   0  0  1  0  0  0  0  0  0  0  0  0
    7.3961  -19.2563   19.5348 C   0  0  0  0  0  0  0  0  0  0  0  0
    6.9073  -20.4022   18.7425 C   0  0  0  0  0  0  0  0  0  0  0  0
    6.3489  -21.5452   19.4641 C   0  0  0  0  0  0  0  0  0  0  0  0
    5.1538  -21.6526   19.7700 O   0  0  0  0  0  0  0  0  0  0  0  0
    8.6877  -17.1540   19.6635 C   0  0  0  0  0  0  0  0  0  0  0  0
    9.8726  -17.3166   19.9881 O   0  0  0  0  0  0  0  0  0  0  0  0
    7.2002  -22.5942   19.8428 O   0  0  0  0  0  0  0  0  0  0  0  0
    9.4094  -12.6020   19.6945 C   0  0  0  0  0  0  0  0  0  0  0  0
    7.9870  -13.1078   19.7860 C   0  0  2  0  0  0  0  0  0  0  0  0
    7.0917  -11.8728   19.8091 C   0  0  0  0  0  0  0  0  0  0  0  0
    7.7640  -13.8228   21.1240 C   0  0  0  0  0  0  0  0  0  0  0  0
    8.3756  -15.1747   21.1308 C   0  0  2  0  0  0  0  0  0  0  0  0
    7.9299  -16.0567   20.1084 N   0  0  0  0  0  0  0  0  0  0  0  0
    8.3652  -15.8297   22.4909 C   0  0  0  0  0  0  0  0  0  0  0  0
    7.3420  -16.3454   23.0012 O   0  0  0  0  0  0  0  0  0  0  0  0
    9.5458  -15.8948   23.2783 N   0  0  0  0  0  0  0  0  0  0  0  0
    9.8267  -17.0199   24.1822 C   0  0  1  0  0  0  0  0  0  0  0  0
    9.7682  -18.3215   23.4611 C   0  0  0  0  0  0  0  0  0  0  0  0
   10.1407  -19.4231   24.3719 C   0  0  0  0  0  0  0  0  0  0  0  0
   10.4261  -19.2714   25.7283 C   0  0  0  0  0  0  0  0  0  0  0  0
   10.7295  -20.4636   26.2708 N   0  0  0  0  0  0  0  0  0  0  0  0
   10.6392  -21.3662   25.2729 C   0  0  0  0  0  0  0  0  0  0  0  0
   10.2879  -20.7384   24.1453 N   0  0  0  0  0  0  0  0  0  0  0  0
   11.1544  -16.8159   24.8025 C   0  0  0  0  0  0  0  0  0  0  0  0
   11.4278  -17.3860   26.0543 O   0  0  0  0  0  0  0  0  0  0  0  0
   12.0668  -16.1570   24.2765 O   0  0  0  0  0  0  0  0  0  0  0  0
  2  3  1  0
  2  1  1  6
  4  3  1  0
  4  5  1  0
  5  6  2  0
  7  2  1  0
  8  7  2  0
  9  5  1  0
 11 10  1  1
 12 11  1  0
 13 11  1  0
 14 13  1  1
 14 15  1  0
 15  7  1  0
 16 17  2  0
 16 14  1  0
 18 16  1  0
 19 18  1  0
 19 20  1  6
 21 20  1  0
 22 21  2  0
 23 24  1  0
 23 22  1  0
 24 25  2  0
 25 21  1  0
 26 19  1  0
 27 26  1  0
 28 26  2  0
M  END
$$$$
