ELH.pdb
     RDKit          3D

 28 28  0  0  1  0  0  0  0  0999 V2000
   10.2354  -15.8346   20.6819 N   0  0  0  0  0  0  0  0  0  0  0  0
    9.6363  -16.6473   21.7024 C   0  0  1  0  0  0  0  0  0  0  0  0
   10.1554  -18.0316   21.8361 C   0  0  0  0  0  0  0  0  0  0  0  0
   11.5538  -18.2433   21.4130 C   0  0  0  0  0  0  0  0  0  0  0  0
   12.1718  -19.5346   21.7123 C   0  0  0  0  0  0  0  0  0  0  0  0
   13.3245  -19.6655   22.1454 O   0  0  0  0  0  0  0  0  0  0  0  0
    9.7532  -15.8841   22.9898 C   0  0  0  0  0  0  0  0  0  0  0  0
   10.8667  -15.5617   23.4281 O   0  0  0  0  0  0  0  0  0  0  0  0
   11.4328  -20.7088   21.5032 O   0  0  0  0  0  0  0  0  0  0  0  0
    6.0811  -12.5667   26.7235 C   0  0  0  0  0  0  0  0  0  0  0  0
    7.3965  -13.2610   26.4488 C   0  0  2  0  0  0  0  0  0  0  0  0
    8.4450  -12.1605   26.3185 C   0  0  0  0  0  0  0  0  0  0  0  0
    7.3482  -13.9688   25.0896 C   0  0  0  0  0  0  0  0  0  0  0  0
    8.5321  -14.8393   24.8834 C   0  0  2  0  0  0  0  0  0  0  0  0
    8.5595  -15.5604   23.6581 N   0  0  0  0  0  0  0  0  0  0  0  0
    8.8404  -15.7215   26.0690 C   0  0  0  0  0  0  0  0  0  0  0  0
    8.0089  -16.5114   26.5769 O   0  0  0  0  0  0  0  0  0  0  0  0
   10.1217  -15.6980   26.6820 N   0  0  0  0  0  0  0  0  0  0  0  0
   10.4445  -16.5167   27.8599 C   0  0  1  0  0  0  0  0  0  0  0  0
   11.8691  -16.9499   27.8444 C   0  0  0  0  0  0  0  0  0  0  0  0
   12.1129  -17.8511   26.6997 C   0  0  0  0  0  0  0  0  0  0  0  0
   11.2312  -18.8398   26.2643 C   0  0  0  0  0  0  0  0  0  0  0  0
   11.7490  -19.4831   25.2033 N   0  0  0  0  0  0  0  0  0  0  0  0
   12.9471  -18.9125   24.9638 C   0  0  0  0  0  0  0  0  0  0  0  0
   13.1563  -17.9413   25.8594 N   0  0  0  0  0  0  0  0  0  0  0  0
   10.1392  -15.7397   29.0815 C   0  0  0  0  0  0  0  0  0  0  0  0
   10.2597  -16.3509   30.3380 O   0  0  0  0  0  0  0  0  0  0  0  0
    9.7739  -14.5524   29.0696 O   0  0  0  0  0  0  0  0  0  0  0  0
  2  3  1  0
  2  1  1  6
  4  3  1  0
  4  5  1  0
  5  6  2  0
  7  2  1  0
  8  7  2  0
  9  5  1  0
 11 10  1  6
 12 11  1  0
 13 11  1  0
 14 13  1  1
 14 15  1  0
 15  7  1  0
 16 17  2  0
 16 14  1  0
 18 16  1  0
 19 18  1  0
 19 20  1  6
 21 20  1  0
 22 21  2  0
 23 24  1  0
 23 22  1  0
 24 25  2  0
 25 21  1  0
 26 19  1  0
 27 26  1  0
 28 26  2  0
M  END
$$$$
