AGV.pdb
     RDKit          3D

 17 16  0  0  1  0  0  0  0  0999 V2000
    7.6685  -12.2048   19.8132 C   0  0  0  0  0  0  0  0  0  0  0  0
    7.8513  -13.7023   19.5890 C   0  0  2  0  0  0  0  0  0  0  0  0
    6.5228  -14.2709   19.4788 N   0  0  0  0  0  0  0  0  0  0  0  0
    8.5100  -14.3416   20.7720 C   0  0  0  0  0  0  0  0  0  0  0  0
    9.7385  -14.1954   21.0037 O   0  0  0  0  0  0  0  0  0  0  0  0
    7.7779  -15.1442   21.6893 N   0  0  0  0  0  0  0  0  0  0  0  0
    8.3218  -15.8895   22.7678 C   0  0  0  0  0  0  0  0  0  0  0  0
    8.7035  -15.1291   23.9674 C   0  0  0  0  0  0  0  0  0  0  0  0
    9.9448  -15.1345   24.2516 O   0  0  0  0  0  0  0  0  0  0  0  0
    7.1017  -11.5643   25.6361 C   0  0  0  0  0  0  0  0  0  0  0  0
    7.2971  -12.7461   26.5412 C   0  0  1  0  0  0  0  0  0  0  0  0
    5.9634  -13.4028   26.8379 C   0  0  0  0  0  0  0  0  0  0  0  0
    8.3082  -13.7340   26.0260 C   0  0  2  0  0  0  0  0  0  0  0  0
    7.8625  -14.4081   24.8248 N   0  0  0  0  0  0  0  0  0  0  0  0
    8.4842  -14.7745   27.0738 C   0  0  0  0  0  0  0  0  0  0  0  0
    7.9737  -15.9309   26.9586 O   0  0  0  0  0  0  0  0  0  0  0  0
    9.2121  -14.5485   28.2349 O   0  0  0  0  0  0  0  0  0  0  0  0
  2  1  1  1
  2  3  1  0
  4  2  1  0
  5  4  2  0
  6  4  1  0
  7  8  1  0
  7  6  1  0
  8  9  2  0
 11 10  1  6
 11 13  1  0
 12 11  1  0
 13 14  1  6
 14  8  1  0
 15 13  1  0
 16 15  2  0
 17 15  1  0
M  END
$$$$
