AGV.pdb
     RDKit          3D

 17 16  0  0  1  0  0  0  0  0999 V2000
    8.2981  -17.2937   18.5743 C   0  0  0  0  0  0  0  0  0  0  0  0
    9.1189  -17.0874   19.8431 C   0  0  2  0  0  0  0  0  0  0  0  0
    9.1903  -18.3746   20.5052 N   0  0  0  0  0  0  0  0  0  0  0  0
    8.4260  -16.1459   20.7787 C   0  0  0  0  0  0  0  0  0  0  0  0
    8.3844  -14.9071   20.5592 O   0  0  0  0  0  0  0  0  0  0  0  0
    7.7822  -16.6075   21.9593 N   0  0  0  0  0  0  0  0  0  0  0  0
    6.9851  -15.8273   22.8370 C   0  0  0  0  0  0  0  0  0  0  0  0
    7.7032  -14.9864   23.8067 C   0  0  0  0  0  0  0  0  0  0  0  0
    8.9730  -14.9981   23.7124 O   0  0  0  0  0  0  0  0  0  0  0  0
    6.7450  -11.1937   25.3760 C   0  0  0  0  0  0  0  0  0  0  0  0
    7.1264  -12.2696   26.3512 C   0  0  1  0  0  0  0  0  0  0  0  0
    5.8932  -12.7909   27.0623 C   0  0  0  0  0  0  0  0  0  0  0  0
    7.9307  -13.3805   25.7327 C   0  0  2  0  0  0  0  0  0  0  0  0
    7.1520  -14.1834   24.8135 N   0  0  0  0  0  0  0  0  0  0  0  0
    8.3692  -14.2765   26.8356 C   0  0  0  0  0  0  0  0  0  0  0  0
    7.8455  -15.4186   27.0159 O   0  0  0  0  0  0  0  0  0  0  0  0
    9.3710  -13.9233   27.7304 O   0  0  0  0  0  0  0  0  0  0  0  0
  2  1  1  6
  2  3  1  0
  4  2  1  0
  5  4  2  0
  6  4  1  0
  7  8  1  0
  7  6  1  0
  8  9  2  0
 11 10  1  6
 11 13  1  0
 12 11  1  0
 13 14  1  6
 14  8  1  0
 15 13  1  0
 16 15  2  0
 17 15  1  0
M  END
$$$$
