AGV.pdb
     RDKit          3D

 17 16  0  0  1  0  0  0  0  0999 V2000
    8.4591  -18.8636   19.8066 C   0  0  0  0  0  0  0  0  0  0  0  0
    8.4748  -17.3387   19.7798 C   0  0  2  0  0  0  0  0  0  0  0  0
    9.8032  -16.9299   20.1905 N   0  0  0  0  0  0  0  0  0  0  0  0
    7.5103  -16.7783   20.7786 C   0  0  0  0  0  0  0  0  0  0  0  0
    6.2695  -16.9631   20.6750 O   0  0  0  0  0  0  0  0  0  0  0  0
    7.9512  -16.0109   21.8913 N   0  0  0  0  0  0  0  0  0  0  0  0
    7.1230  -15.4211   22.8815 C   0  0  0  0  0  0  0  0  0  0  0  0
    7.8052  -14.6962   23.9642 C   0  0  0  0  0  0  0  0  0  0  0  0
    9.0777  -14.7067   23.9181 O   0  0  0  0  0  0  0  0  0  0  0  0
    6.7957  -11.0209   25.4193 C   0  0  0  0  0  0  0  0  0  0  0  0
    7.1371  -12.0250   26.4819 C   0  0  1  0  0  0  0  0  0  0  0  0
    5.8778  -12.4850   27.1896 C   0  0  0  0  0  0  0  0  0  0  0  0
    7.9505  -13.1833   25.9717 C   0  0  2  0  0  0  0  0  0  0  0  0
    7.2176  -14.0038   25.0307 N   0  0  0  0  0  0  0  0  0  0  0  0
    8.2790  -14.0423   27.1404 C   0  0  0  0  0  0  0  0  0  0  0  0
    9.0441  -13.6406   28.0701 O   0  0  0  0  0  0  0  0  0  0  0  0
    7.7736  -15.3277   27.2872 O   0  0  0  0  0  0  0  0  0  0  0  0
  2  1  1  1
  2  3  1  0
  4  2  1  0
  5  4  2  0
  6  4  1  0
  7  8  1  0
  7  6  1  0
  8  9  2  0
 11 10  1  6
 11 13  1  0
 12 11  1  0
 13 14  1  6
 14  8  1  0
 15 13  1  0
 16 15  2  0
 17 15  1  0
M  END
$$$$
