AGV.pdb
     RDKit          3D

 17 16  0  0  1  0  0  0  0  0999 V2000
    7.2267  -18.5488   19.7919 C   0  0  0  0  0  0  0  0  0  0  0  0
    8.1217  -18.3186   21.0053 C   0  0  2  0  0  0  0  0  0  0  0  0
    8.1408  -19.5622   21.7490 N   0  0  0  0  0  0  0  0  0  0  0  0
    7.5401  -17.2730   21.9055 C   0  0  0  0  0  0  0  0  0  0  0  0
    7.4315  -16.0730   21.5412 O   0  0  0  0  0  0  0  0  0  0  0  0
    7.0830  -17.5870   23.2147 N   0  0  0  0  0  0  0  0  0  0  0  0
    6.4726  -16.6863   24.1260 C   0  0  0  0  0  0  0  0  0  0  0  0
    7.3233  -15.6117   24.6595 C   0  0  0  0  0  0  0  0  0  0  0  0
    8.5630  -15.7016   24.3830 O   0  0  0  0  0  0  0  0  0  0  0  0
    6.5172  -11.5104   25.1270 C   0  0  0  0  0  0  0  0  0  0  0  0
    7.1199  -12.2247   26.3018 C   0  0  1  0  0  0  0  0  0  0  0  0
    6.0678  -12.4555   27.3686 C   0  0  0  0  0  0  0  0  0  0  0  0
    7.8309  -13.4969   25.9285 C   0  0  2  0  0  0  0  0  0  0  0  0
    6.9265  -14.5122   25.4315 N   0  0  0  0  0  0  0  0  0  0  0  0
    8.4565  -14.0340   27.1662 C   0  0  0  0  0  0  0  0  0  0  0  0
    8.0051  -15.0679   27.7477 O   0  0  0  0  0  0  0  0  0  0  0  0
    9.5649  -13.4431   27.7589 O   0  0  0  0  0  0  0  0  0  0  0  0
  2  1  1  6
  2  3  1  0
  4  2  1  0
  5  4  2  0
  6  4  1  0
  7  8  1  0
  7  6  1  0
  8  9  2  0
 11 10  1  6
 11 13  1  0
 12 11  1  0
 13 14  1  1
 14  8  1  0
 15 13  1  0
 16 15  2  0
 17 15  1  0
M  END
$$$$
