AGV.pdb
     RDKit          3D

 17 16  0  0  1  0  0  0  0  0999 V2000
    8.1118  -12.5126   18.5301 C   0  0  0  0  0  0  0  0  0  0  0  0
    8.5429  -13.9441   18.8320 C   0  0  2  0  0  0  0  0  0  0  0  0
    8.2170  -14.7318   17.6600 N   0  0  0  0  0  0  0  0  0  0  0  0
    7.7578  -14.5067   19.9762 C   0  0  0  0  0  0  0  0  0  0  0  0
    6.7596  -15.2507   19.7905 O   0  0  0  0  0  0  0  0  0  0  0  0
    8.1035  -14.2267   21.3266 N   0  0  0  0  0  0  0  0  0  0  0  0
    7.5404  -14.8365   22.4779 C   0  0  0  0  0  0  0  0  0  0  0  0
    8.0425  -14.3737   23.7804 C   0  0  0  0  0  0  0  0  0  0  0  0
    9.2696  -14.6186   24.0168 O   0  0  0  0  0  0  0  0  0  0  0  0
    6.7243  -11.0501   26.1198 C   0  0  0  0  0  0  0  0  0  0  0  0
    6.9803  -12.3599   26.8073 C   0  0  1  0  0  0  0  0  0  0  0  0
    5.6671  -13.0370   27.1468 C   0  0  0  0  0  0  0  0  0  0  0  0
    7.9000  -13.2696   26.0390 C   0  0  2  0  0  0  0  0  0  0  0  0
    7.3285  -13.7017   24.7809 N   0  0  0  0  0  0  0  0  0  0  0  0
    8.1112  -14.4871   26.8664 C   0  0  0  0  0  0  0  0  0  0  0  0
    7.4597  -15.5564   26.6591 O   0  0  0  0  0  0  0  0  0  0  0  0
    9.0271  -14.5305   27.9097 O   0  0  0  0  0  0  0  0  0  0  0  0
  2  1  1  6
  2  3  1  0
  4  2  1  0
  5  4  2  0
  6  4  1  0
  7  8  1  0
  7  6  1  0
  8  9  2  0
 11 10  1  6
 11 13  1  0
 12 11  1  0
 13 14  1  6
 14  8  1  0
 15 13  1  0
 16 15  2  0
 17 15  1  0
M  END
$$$$
