AGV.pdb
     RDKit          3D

 17 16  0  0  1  0  0  0  0  0999 V2000
    5.1964  -19.5152   22.4664 C   0  0  0  0  0  0  0  0  0  0  0  0
    6.5534  -19.2374   23.1048 C   0  0  2  0  0  0  0  0  0  0  0  0
    6.2980  -18.8884   24.4879 N   0  0  0  0  0  0  0  0  0  0  0  0
    7.2116  -18.0550   22.4639 C   0  0  0  0  0  0  0  0  0  0  0  0
    7.5479  -18.0625   21.2509 O   0  0  0  0  0  0  0  0  0  0  0  0
    7.4877  -16.8679   23.1960 N   0  0  0  0  0  0  0  0  0  0  0  0
    8.1557  -15.7170   22.7025 C   0  0  0  0  0  0  0  0  0  0  0  0
    8.3258  -14.5999   23.6439 C   0  0  0  0  0  0  0  0  0  0  0  0
    9.0256  -13.6241   23.2205 O   0  0  0  0  0  0  0  0  0  0  0  0
    6.8510  -11.6744   25.4421 C   0  0  0  0  0  0  0  0  0  0  0  0
    7.3372  -12.6401   26.4837 C   0  0  1  0  0  0  0  0  0  0  0  0
    6.1613  -13.3367   27.1395 C   0  0  0  0  0  0  0  0  0  0  0  0
    8.3529  -13.6205   25.9635 C   0  0  2  0  0  0  0  0  0  0  0  0
    7.8105  -14.4913   24.9420 N   0  0  0  0  0  0  0  0  0  0  0  0
    8.7606  -14.4828   27.1044 C   0  0  0  0  0  0  0  0  0  0  0  0
    8.4560  -15.7141   27.1526 O   0  0  0  0  0  0  0  0  0  0  0  0
    9.4941  -13.9995   28.1802 O   0  0  0  0  0  0  0  0  0  0  0  0
  2  1  1  6
  2  3  1  0
  4  2  1  0
  5  4  2  0
  6  4  1  0
  7  8  1  0
  7  6  1  0
  8  9  2  0
 11 10  1  6
 11 13  1  0
 12 11  1  0
 13 14  1  6
 14  8  1  0
 15 13  1  0
 16 15  2  0
 17 15  1  0
M  END
$$$$
