AGV.pdb
     RDKit          3D

 17 16  0  0  1  0  0  0  0  0999 V2000
   10.5835  -17.7575   19.1313 C   0  0  0  0  0  0  0  0  0  0  0  0
   11.2648  -17.8336   20.4937 C   0  0  2  0  0  0  0  0  0  0  0  0
   11.0379  -19.1735   20.9971 N   0  0  0  0  0  0  0  0  0  0  0  0
   10.6293  -16.8836   21.4609 C   0  0  0  0  0  0  0  0  0  0  0  0
   10.7553  -15.6368   21.3425 O   0  0  0  0  0  0  0  0  0  0  0  0
    9.8534  -17.3458   22.5590 N   0  0  0  0  0  0  0  0  0  0  0  0
    9.2020  -16.5337   23.5236 C   0  0  0  0  0  0  0  0  0  0  0  0
    9.9755  -16.1915   24.7268 C   0  0  0  0  0  0  0  0  0  0  0  0
   11.1997  -16.5417   24.7131 O   0  0  0  0  0  0  0  0  0  0  0  0
    8.4042  -14.0583   28.1172 C   0  0  0  0  0  0  0  0  0  0  0  0
    9.8337  -13.9029   27.6858 C   0  0  1  0  0  0  0  0  0  0  0  0
   10.6976  -13.5164   28.8700 C   0  0  0  0  0  0  0  0  0  0  0  0
   10.3753  -15.1066   26.9637 C   0  0  2  0  0  0  0  0  0  0  0  0
    9.5202  -15.5316   25.8755 N   0  0  0  0  0  0  0  0  0  0  0  0
   10.4274  -16.2242   27.9434 C   0  0  0  0  0  0  0  0  0  0  0  0
    9.5408  -17.1322   27.9680 O   0  0  0  0  0  0  0  0  0  0  0  0
   11.4409  -16.3440   28.8855 O   0  0  0  0  0  0  0  0  0  0  0  0
  2  1  1  6
  2  3  1  0
  4  2  1  0
  5  4  2  0
  6  4  1  0
  7  8  1  0
  7  6  1  0
  8  9  2  0
 11 10  1  1
 11 13  1  0
 12 11  1  0
 13 14  1  6
 14  8  1  0
 15 13  1  0
 16 15  2  0
 17 15  1  0
M  END
$$$$
