AGV.pdb
     RDKit          3D

 17 16  0  0  1  0  0  0  0  0999 V2000
    4.2206  -17.8054   22.0178 C   0  0  0  0  0  0  0  0  0  0  0  0
    5.6260  -18.3804   21.8760 C   0  0  2  0  0  0  0  0  0  0  0  0
    5.9924  -18.9067   23.1757 N   0  0  0  0  0  0  0  0  0  0  0  0
    6.6109  -17.3036   21.5406 C   0  0  0  0  0  0  0  0  0  0  0  0
    6.5324  -16.6461   20.4701 O   0  0  0  0  0  0  0  0  0  0  0  0
    7.6812  -16.9733   22.4162 N   0  0  0  0  0  0  0  0  0  0  0  0
    8.6424  -15.9490   22.2131 C   0  0  0  0  0  0  0  0  0  0  0  0
    8.7968  -14.9665   23.2966 C   0  0  0  0  0  0  0  0  0  0  0  0
    9.8799  -14.2971   23.2834 O   0  0  0  0  0  0  0  0  0  0  0  0
    5.7694  -13.6895   26.1436 C   0  0  0  0  0  0  0  0  0  0  0  0
    7.0152  -12.9265   25.7977 C   0  0  1  0  0  0  0  0  0  0  0  0
    7.3564  -11.9526   26.9082 C   0  0  0  0  0  0  0  0  0  0  0  0
    8.1809  -13.8107   25.4472 C   0  0  2  0  0  0  0  0  0  0  0  0
    7.8952  -14.6887   24.3321 N   0  0  0  0  0  0  0  0  0  0  0  0
    8.4523  -14.6738   26.6274 C   0  0  0  0  0  0  0  0  0  0  0  0
    8.1836  -15.9143   26.6231 O   0  0  0  0  0  0  0  0  0  0  0  0
    9.0124  -14.1812   27.7991 O   0  0  0  0  0  0  0  0  0  0  0  0
  2  1  1  1
  2  3  1  0
  4  2  1  0
  5  4  2  0
  6  4  1  0
  7  8  1  0
  7  6  1  0
  8  9  2  0
 11 10  1  1
 11 13  1  0
 12 11  1  0
 13 14  1  6
 14  8  1  0
 15 13  1  0
 16 15  2  0
 17 15  1  0
M  END
$$$$
