AGV.pdb
     RDKit          3D

 17 16  0  0  1  0  0  0  0  0999 V2000
    8.4970  -18.9846   19.2769 C   0  0  0  0  0  0  0  0  0  0  0  0
    9.2800  -17.8719   19.9660 C   0  0  2  0  0  0  0  0  0  0  0  0
   10.0160  -18.4917   21.0496 N   0  0  0  0  0  0  0  0  0  0  0  0
    8.3527  -16.8680   20.5777 C   0  0  0  0  0  0  0  0  0  0  0  0
    7.7127  -16.0440   19.8734 O   0  0  0  0  0  0  0  0  0  0  0  0
    8.1517  -16.7985   21.9834 N   0  0  0  0  0  0  0  0  0  0  0  0
    7.2146  -15.9702   22.6545 C   0  0  0  0  0  0  0  0  0  0  0  0
    7.7575  -15.0356   23.6519 C   0  0  0  0  0  0  0  0  0  0  0  0
    9.0218  -15.0618   23.8009 O   0  0  0  0  0  0  0  0  0  0  0  0
    5.5142  -12.8657   26.6414 C   0  0  0  0  0  0  0  0  0  0  0  0
    6.6771  -12.2190   25.9461 C   0  0  1  0  0  0  0  0  0  0  0  0
    7.3458  -11.2182   26.8677 C   0  0  0  0  0  0  0  0  0  0  0  0
    7.6607  -13.2067   25.3799 C   0  0  2  0  0  0  0  0  0  0  0  0
    7.0461  -14.1301   24.4495 N   0  0  0  0  0  0  0  0  0  0  0  0
    8.1839  -14.0113   26.5160 C   0  0  0  0  0  0  0  0  0  0  0  0
    7.7634  -15.1854   26.7519 O   0  0  0  0  0  0  0  0  0  0  0  0
    9.1574  -13.5327   27.3833 O   0  0  0  0  0  0  0  0  0  0  0  0
  2  1  1  1
  2  3  1  0
  4  2  1  0
  5  4  2  0
  6  4  1  0
  7  8  1  0
  7  6  1  0
  8  9  2  0
 11 10  1  1
 11 13  1  0
 12 11  1  0
 13 14  1  6
 14  8  1  0
 15 13  1  0
 16 15  2  0
 17 15  1  0
M  END
$$$$
