HPL.pdb
     RDKit          3D

 26 27  0  0  1  0  0  0  0  0999 V2000
   21.9419  -35.0323  -11.0024 N   0  0  0  0  0  0  0  0  0  0  0  0
   22.5476  -33.8929  -10.4002 C   0  0  1  0  0  0  0  0  0  0  0  0
   21.5579  -32.7709  -10.1327 C   0  0  0  0  0  0  0  0  0  0  0  0
   20.9870  -32.3261  -11.4259 C   0  0  0  0  0  0  0  0  0  0  0  0
   21.6004  -32.0572  -12.6099 C   0  0  0  0  0  0  0  0  0  0  0  0
   20.6719  -31.7080  -13.5046 N   0  0  0  0  0  0  0  0  0  0  0  0
   19.4414  -31.7460  -12.9161 C   0  0  0  0  0  0  0  0  0  0  0  0
   19.6498  -32.1262  -11.6421 N   0  0  0  0  0  0  0  0  0  0  0  0
   23.3128  -34.2079   -9.1602 C   0  0  0  0  0  0  0  0  0  0  0  0
   22.7693  -34.9580   -8.2883 O   0  0  0  0  0  0  0  0  0  0  0  0
   24.6037  -33.6740   -8.9874 N   0  0  0  0  0  0  0  0  0  0  0  0
   25.2815  -32.7188   -9.7895 C   0  0  0  0  0  0  0  0  0  0  0  0
   26.7047  -32.6349   -9.2808 C   0  0  0  0  0  0  0  0  0  0  0  0
   26.8670  -33.6832   -8.2423 C   0  0  0  0  0  0  0  0  0  0  0  0
   25.4538  -34.0777   -7.8767 C   0  0  1  0  0  0  0  0  0  0  0  0
   25.0167  -33.4319   -6.6060 C   0  0  0  0  0  0  0  0  0  0  0  0
   24.4268  -32.2863   -6.6461 O   0  0  0  0  0  0  0  0  0  0  0  0
   21.3870  -33.7343   -3.4586 C   0  0  0  0  0  0  0  0  0  0  0  0
   21.9157  -35.1344   -3.8558 C   0  0  2  0  0  0  0  0  0  0  0  0
   22.3290  -35.8098   -2.5748 C   0  0  0  0  0  0  0  0  0  0  0  0
   23.0120  -34.9584   -4.8562 C   0  0  0  0  0  0  0  0  0  0  0  0
   24.1173  -34.1131   -4.3237 C   0  0  2  0  0  0  0  0  0  0  0  0
   25.1878  -33.9570   -5.3149 N   0  0  0  0  0  0  0  0  0  0  0  0
   24.6359  -34.6389   -3.0665 C   0  0  0  0  0  0  0  0  0  0  0  0
   24.3673  -33.8547   -1.9122 O   0  0  0  0  0  0  0  0  0  0  0  0
   25.2815  -35.6888   -2.9092 O   0  0  0  0  0  0  0  0  0  0  0  0
  2  1  1  1
  3  2  1  0
  4  3  1  0
  5  4  2  0
  6  7  1  0
  6  5  1  0
  7  8  2  0
  8  4  1  0
  9  2  1  0
  9 11  1  0
 10  9  2  0
 11 12  1  0
 12 13  1  0
 14 13  1  0
 15 11  1  0
 15 14  1  0
 15 16  1  1
 16 17  2  0
 19 18  1  1
 19 20  1  0
 19 21  1  0
 22 21  1  6
 22 23  1  0
 22 24  1  0
 23 16  1  0
 24 26  2  0
 24 25  1  0
M  END
$$$$
