HPL.pdb
     RDKit          3D

 26 27  0  0  1  0  0  0  0  0999 V2000
   24.1665  -20.9275  -19.0919 N   0  0  0  0  0  0  0  0  0  0  0  0
   24.0571  -19.9398  -18.0718 C   0  0  1  0  0  0  0  0  0  0  0  0
   22.6155  -19.6258  -17.7071 C   0  0  0  0  0  0  0  0  0  0  0  0
   21.9751  -18.9437  -18.8564 C   0  0  0  0  0  0  0  0  0  0  0  0
   20.9799  -19.3639  -19.6830 C   0  0  0  0  0  0  0  0  0  0  0  0
   20.7168  -18.3955  -20.5647 N   0  0  0  0  0  0  0  0  0  0  0  0
   21.5358  -17.3310  -20.3236 C   0  0  0  0  0  0  0  0  0  0  0  0
   22.3017  -17.6812  -19.2739 N   0  0  0  0  0  0  0  0  0  0  0  0
   24.8385  -20.2601  -16.8433 C   0  0  0  0  0  0  0  0  0  0  0  0
   24.8828  -21.4700  -16.4529 O   0  0  0  0  0  0  0  0  0  0  0  0
   25.5013  -19.2271  -16.1541 N   0  0  0  0  0  0  0  0  0  0  0  0
   25.5611  -17.8453  -16.4741 C   0  0  0  0  0  0  0  0  0  0  0  0
   26.5548  -17.2080  -15.5267 C   0  0  0  0  0  0  0  0  0  0  0  0
   27.1770  -18.2998  -14.7364 C   0  0  0  0  0  0  0  0  0  0  0  0
   26.2606  -19.4854  -14.9392 C   0  0  1  0  0  0  0  0  0  0  0  0
   25.3533  -19.6815  -13.7726 C   0  0  0  0  0  0  0  0  0  0  0  0
   24.1467  -19.2302  -13.8235 O   0  0  0  0  0  0  0  0  0  0  0  0
   27.4134  -20.8260   -9.2528 C   0  0  0  0  0  0  0  0  0  0  0  0
   25.9265  -20.5165   -9.5543 C   0  0  2  0  0  0  0  0  0  0  0  0
   25.2289  -20.4519   -8.2212 C   0  0  0  0  0  0  0  0  0  0  0  0
   25.4064  -21.5627  -10.4864 C   0  0  0  0  0  0  0  0  0  0  0  0
   24.7208  -20.9627  -11.6653 C   0  0  2  0  0  0  0  0  0  0  0  0
   25.6852  -20.3295  -12.5718 N   0  0  0  0  0  0  0  0  0  0  0  0
   23.6827  -20.0224  -11.2602 C   0  0  0  0  0  0  0  0  0  0  0  0
   23.9917  -18.6471  -11.4403 O   0  0  0  0  0  0  0  0  0  0  0  0
   22.5721  -20.3025  -10.7786 O   0  0  0  0  0  0  0  0  0  0  0  0
  2  1  1  6
  3  2  1  0
  4  3  1  0
  5  4  2  0
  6  7  1  0
  6  5  1  0
  7  8  2  0
  8  4  1  0
  9  2  1  0
  9 11  1  0
 10  9  2  0
 11 12  1  0
 12 13  1  0
 14 13  1  0
 15 11  1  0
 15 14  1  0
 15 16  1  1
 16 17  2  0
 19 18  1  1
 19 20  1  0
 19 21  1  0
 22 21  1  1
 22 23  1  0
 22 24  1  0
 23 16  1  0
 24 26  2  0
 24 25  1  0
M  END
$$$$
