HPL.pdb
     RDKit          3D

 26 27  0  0  1  0  0  0  0  0999 V2000
   27.6917  -21.3102  -16.0630 N   0  0  0  0  0  0  0  0  0  0  0  0
   27.2225  -20.5465  -14.9563 C   0  0  1  0  0  0  0  0  0  0  0  0
   26.9038  -19.1071  -15.3258 C   0  0  0  0  0  0  0  0  0  0  0  0
   28.0997  -18.5068  -15.9627 C   0  0  0  0  0  0  0  0  0  0  0  0
   28.3954  -18.3245  -17.2780 C   0  0  0  0  0  0  0  0  0  0  0  0
   29.5826  -17.7193  -17.3711 N   0  0  0  0  0  0  0  0  0  0  0  0
   30.0757  -17.4980  -16.1182 C   0  0  0  0  0  0  0  0  0  0  0  0
   29.1563  -17.9859  -15.2649 N   0  0  0  0  0  0  0  0  0  0  0  0
   26.0624  -21.1639  -14.2527 C   0  0  0  0  0  0  0  0  0  0  0  0
   25.2384  -21.8529  -14.9344 O   0  0  0  0  0  0  0  0  0  0  0  0
   25.9099  -20.9721  -12.8666 N   0  0  0  0  0  0  0  0  0  0  0  0
   26.8105  -20.3652  -11.9523 C   0  0  0  0  0  0  0  0  0  0  0  0
   26.2543  -20.5855  -10.5618 C   0  0  0  0  0  0  0  0  0  0  0  0
   25.0678  -21.4679  -10.6934 C   0  0  0  0  0  0  0  0  0  0  0  0
   24.7142  -21.4125  -12.1625 C   0  0  1  0  0  0  0  0  0  0  0  0
   23.5727  -20.4877  -12.4161 C   0  0  0  0  0  0  0  0  0  0  0  0
   23.8081  -19.2691  -12.7650 O   0  0  0  0  0  0  0  0  0  0  0  0
   20.7480  -21.3887  -16.9307 C   0  0  0  0  0  0  0  0  0  0  0  0
   20.5168  -20.5261  -15.6657 C   0  0  2  0  0  0  0  0  0  0  0  0
   20.5268  -19.0916  -16.1241 C   0  0  0  0  0  0  0  0  0  0  0  0
   21.5667  -20.8725  -14.6601 C   0  0  0  0  0  0  0  0  0  0  0  0
   21.1804  -20.4446  -13.2863 C   0  0  2  0  0  0  0  0  0  0  0  0
   22.2107  -20.8128  -12.3087 N   0  0  0  0  0  0  0  0  0  0  0  0
   19.8781  -20.9781  -12.9052 C   0  0  0  0  0  0  0  0  0  0  0  0
   18.8783  -20.0125  -12.6093 O   0  0  0  0  0  0  0  0  0  0  0  0
   19.5630  -22.1766  -12.8138 O   0  0  0  0  0  0  0  0  0  0  0  0
  2  1  1  6
  3  2  1  0
  4  3  1  0
  5  4  2  0
  6  7  1  0
  6  5  1  0
  7  8  2  0
  8  4  1  0
  9  2  1  0
  9 11  1  0
 10  9  2  0
 11 12  1  0
 12 13  1  0
 14 13  1  0
 15 11  1  0
 15 14  1  0
 15 16  1  1
 16 17  2  0
 19 18  1  6
 19 20  1  0
 19 21  1  0
 22 21  1  6
 22 23  1  0
 22 24  1  0
 23 16  1  0
 24 26  2  0
 24 25  1  0
M  END
$$$$
