HPL.pdb
     RDKit          3D

 26 27  0  0  1  0  0  0  0  0999 V2000
   23.7382  -21.9714  -13.0344 N   0  0  0  0  0  0  0  0  0  0  0  0
   24.7171  -20.9867  -12.7176 C   0  0  1  0  0  0  0  0  0  0  0  0
   24.1340  -19.5870  -12.6149 C   0  0  0  0  0  0  0  0  0  0  0  0
   23.6503  -19.1771  -13.9543 C   0  0  0  0  0  0  0  0  0  0  0  0
   24.3439  -18.7663  -15.0501 C   0  0  0  0  0  0  0  0  0  0  0  0
   23.4792  -18.5227  -16.0388 N   0  0  0  0  0  0  0  0  0  0  0  0
   22.2112  -18.7726  -15.6011 C   0  0  0  0  0  0  0  0  0  0  0  0
   22.3313  -19.1728  -14.3218 N   0  0  0  0  0  0  0  0  0  0  0  0
   25.5093  -21.3030  -11.4951 C   0  0  0  0  0  0  0  0  0  0  0  0
   24.8971  -21.7660  -10.4806 O   0  0  0  0  0  0  0  0  0  0  0  0
   26.8998  -21.0847  -11.4941 N   0  0  0  0  0  0  0  0  0  0  0  0
   27.7100  -20.5311  -12.5200 C   0  0  0  0  0  0  0  0  0  0  0  0
   29.1522  -20.6959  -12.0907 C   0  0  0  0  0  0  0  0  0  0  0  0
   29.1540  -21.4952  -10.8398 C   0  0  0  0  0  0  0  0  0  0  0  0
   27.7259  -21.4327  -10.3469 C   0  0  1  0  0  0  0  0  0  0  0  0
   27.5683  -20.4338   -9.2514 C   0  0  0  0  0  0  0  0  0  0  0  0
   27.1846  -19.2361   -9.5344 O   0  0  0  0  0  0  0  0  0  0  0  0
   27.2665  -22.1105   -3.8811 C   0  0  0  0  0  0  0  0  0  0  0  0
   27.9942  -21.2272   -4.9240 C   0  0  2  0  0  0  0  0  0  0  0  0
   29.0536  -20.4677   -4.1699 C   0  0  0  0  0  0  0  0  0  0  0  0
   26.9776  -20.3741   -5.6113 C   0  0  0  0  0  0  0  0  0  0  0  0
   27.5424  -19.6995   -6.8137 C   0  0  2  0  0  0  0  0  0  0  0  0
   27.8054  -20.6651   -7.8867 N   0  0  0  0  0  0  0  0  0  0  0  0
   28.7408  -18.9362   -6.4865 C   0  0  0  0  0  0  0  0  0  0  0  0
   29.9695  -19.4974   -6.9280 O   0  0  0  0  0  0  0  0  0  0  0  0
   28.7914  -17.8602   -5.8671 O   0  0  0  0  0  0  0  0  0  0  0  0
  2  1  1  1
  3  2  1  0
  4  3  1  0
  5  4  2  0
  6  7  1  0
  6  5  1  0
  7  8  2  0
  8  4  1  0
  9  2  1  0
  9 11  1  0
 10  9  2  0
 11 12  1  0
 12 13  1  0
 14 13  1  0
 15 11  1  0
 15 14  1  0
 15 16  1  1
 16 17  2  0
 19 18  1  1
 19 20  1  0
 19 21  1  0
 22 21  1  1
 22 23  1  0
 22 24  1  0
 23 16  1  0
 24 26  2  0
 24 25  1  0
M  END
$$$$
