HPL.pdb
     RDKit          3D

 26 27  0  0  1  0  0  0  0  0999 V2000
   20.5382  -21.0545  -13.7118 N   0  0  0  0  0  0  0  0  0  0  0  0
   20.5173  -20.4970  -12.4015 C   0  0  1  0  0  0  0  0  0  0  0  0
   19.3433  -19.5578  -12.1789 C   0  0  0  0  0  0  0  0  0  0  0  0
   19.4226  -18.4590  -13.1700 C   0  0  0  0  0  0  0  0  0  0  0  0
   20.2736  -17.4000  -13.2402 C   0  0  0  0  0  0  0  0  0  0  0  0
   19.9767  -16.6821  -14.3270 N   0  0  0  0  0  0  0  0  0  0  0  0
   18.9296  -17.2643  -14.9801 C   0  0  0  0  0  0  0  0  0  0  0  0
   18.6002  -18.3523  -14.2596 N   0  0  0  0  0  0  0  0  0  0  0  0
   20.5698  -21.5180  -11.3166 C   0  0  0  0  0  0  0  0  0  0  0  0
   20.0615  -22.6628  -11.5383 O   0  0  0  0  0  0  0  0  0  0  0  0
   21.1749  -21.1935  -10.0878 N   0  0  0  0  0  0  0  0  0  0  0  0
   21.7570  -19.9630   -9.6850 C   0  0  0  0  0  0  0  0  0  0  0  0
   22.4323  -20.2015   -8.3514 C   0  0  0  0  0  0  0  0  0  0  0  0
   22.3418  -21.6548   -8.0621 C   0  0  0  0  0  0  0  0  0  0  0  0
   21.2787  -22.1650   -9.0085 C   0  0  1  0  0  0  0  0  0  0  0  0
   19.9691  -22.3394   -8.3177 C   0  0  0  0  0  0  0  0  0  0  0  0
   19.1790  -21.3287   -8.1900 O   0  0  0  0  0  0  0  0  0  0  0  0
   18.9966  -25.6246   -9.1965 C   0  0  0  0  0  0  0  0  0  0  0  0
   17.5843  -25.6732   -8.5636 C   0  0  2  0  0  0  0  0  0  0  0  0
   16.6838  -26.3132   -9.5869 C   0  0  0  0  0  0  0  0  0  0  0  0
   17.1977  -24.2854   -8.1656 C   0  0  0  0  0  0  0  0  0  0  0  0
   18.1501  -23.7073   -7.1764 C   0  0  2  0  0  0  0  0  0  0  0  0
   19.4832  -23.5353   -7.7647 N   0  0  0  0  0  0  0  0  0  0  0  0
   18.2106  -24.5081   -5.9595 C   0  0  0  0  0  0  0  0  0  0  0  0
   17.0191  -24.5461   -5.1860 O   0  0  0  0  0  0  0  0  0  0  0  0
   19.1883  -25.1491   -5.5387 O   0  0  0  0  0  0  0  0  0  0  0  0
  2  1  1  6
  3  2  1  0
  4  3  1  0
  5  4  2  0
  6  7  1  0
  6  5  1  0
  7  8  2  0
  8  4  1  0
  9  2  1  0
  9 11  1  0
 10  9  2  0
 11 12  1  0
 12 13  1  0
 14 13  1  0
 15 11  1  0
 15 14  1  0
 15 16  1  1
 16 17  2  0
 19 18  1  6
 19 20  1  0
 19 21  1  0
 22 21  1  6
 22 23  1  0
 22 24  1  0
 23 16  1  0
 24 26  2  0
 24 25  1  0
M  END
$$$$
