HPL.pdb
     RDKit          3D

 26 27  0  0  1  0  0  0  0  0999 V2000
   23.4797  -22.2834  -13.8824 N   0  0  0  0  0  0  0  0  0  0  0  0
   24.0643  -21.2074  -13.1554 C   0  0  1  0  0  0  0  0  0  0  0  0
   23.0358  -20.3673  -12.4163 C   0  0  0  0  0  0  0  0  0  0  0  0
   22.0932  -19.7952  -13.4064 C   0  0  0  0  0  0  0  0  0  0  0  0
   20.8024  -20.1248  -13.6817 C   0  0  0  0  0  0  0  0  0  0  0  0
   20.3487  -19.3160  -14.6431 N   0  0  0  0  0  0  0  0  0  0  0  0
   21.3369  -18.4480  -15.0062 C   0  0  0  0  0  0  0  0  0  0  0  0
   22.4004  -18.7534  -14.2401 N   0  0  0  0  0  0  0  0  0  0  0  0
   25.1445  -21.6343  -12.2210 C   0  0  0  0  0  0  0  0  0  0  0  0
   24.9277  -22.6310  -11.4608 O   0  0  0  0  0  0  0  0  0  0  0  0
   26.3644  -20.9323  -12.2042 N   0  0  0  0  0  0  0  0  0  0  0  0
   26.7516  -19.8110  -12.9840 C   0  0  0  0  0  0  0  0  0  0  0  0
   28.2212  -19.5650  -12.7172 C   0  0  0  0  0  0  0  0  0  0  0  0
   28.7082  -20.6750  -11.8602 C   0  0  0  0  0  0  0  0  0  0  0  0
   27.4509  -21.3120  -11.3127 C   0  0  1  0  0  0  0  0  0  0  0  0
   27.1766  -20.8689   -9.9158 C   0  0  0  0  0  0  0  0  0  0  0  0
   26.2167  -20.0385   -9.6900 O   0  0  0  0  0  0  0  0  0  0  0  0
   29.9415  -20.1466   -4.4694 C   0  0  0  0  0  0  0  0  0  0  0  0
   28.5830  -20.2906   -5.1983 C   0  0  2  0  0  0  0  0  0  0  0  0
   27.7314  -21.1825   -4.3339 C   0  0  0  0  0  0  0  0  0  0  0  0
   28.8396  -20.8090   -6.5764 C   0  0  0  0  0  0  0  0  0  0  0  0
   27.6023  -20.8121   -7.4063 C   0  0  2  0  0  0  0  0  0  0  0  0
   27.8824  -21.2728   -8.7709 N   0  0  0  0  0  0  0  0  0  0  0  0
   26.9587  -19.5039   -7.4136 C   0  0  0  0  0  0  0  0  0  0  0  0
   25.7710  -19.3962   -6.6408 O   0  0  0  0  0  0  0  0  0  0  0  0
   27.3410  -18.4902   -8.0221 O   0  0  0  0  0  0  0  0  0  0  0  0
  2  1  1  1
  3  2  1  0
  4  3  1  0
  5  4  2  0
  6  7  1  0
  6  5  1  0
  7  8  2  0
  8  4  1  0
  9  2  1  0
  9 11  1  0
 10  9  2  0
 11 12  1  0
 12 13  1  0
 14 13  1  0
 15 11  1  0
 15 14  1  0
 15 16  1  1
 16 17  2  0
 19 18  1  1
 19 20  1  0
 19 21  1  0
 22 21  1  1
 22 23  1  0
 22 24  1  0
 23 16  1  0
 24 26  2  0
 24 25  1  0
M  END
$$$$
