HPL.pdb
     RDKit          3D

 26 27  0  0  1  0  0  0  0  0999 V2000
   24.6495  -17.7643  -15.7692 N   0  0  0  0  0  0  0  0  0  0  0  0
   25.8129  -17.9753  -14.9753 C   0  0  1  0  0  0  0  0  0  0  0  0
   26.3431  -16.6938  -14.3536 C   0  0  0  0  0  0  0  0  0  0  0  0
   26.6229  -15.7231  -15.4379 C   0  0  0  0  0  0  0  0  0  0  0  0
   27.6336  -15.6908  -16.3478 C   0  0  0  0  0  0  0  0  0  0  0  0
   27.4590  -14.6340  -17.1459 N   0  0  0  0  0  0  0  0  0  0  0  0
   26.3317  -13.9644  -16.7678 C   0  0  0  0  0  0  0  0  0  0  0  0
   25.8297  -14.6432  -15.7197 N   0  0  0  0  0  0  0  0  0  0  0  0
   25.6393  -19.0202  -13.9264 C   0  0  0  0  0  0  0  0  0  0  0  0
   24.5953  -18.9811  -13.2005 O   0  0  0  0  0  0  0  0  0  0  0  0
   26.6237  -20.0138  -13.7677 N   0  0  0  0  0  0  0  0  0  0  0  0
   27.8828  -20.1240  -14.4141 C   0  0  0  0  0  0  0  0  0  0  0  0
   28.4662  -21.4680  -14.0337 C   0  0  0  0  0  0  0  0  0  0  0  0
   27.4330  -22.1954  -13.2545 C   0  0  0  0  0  0  0  0  0  0  0  0
   26.4418  -21.1281  -12.8487 C   0  0  1  0  0  0  0  0  0  0  0  0
   26.6495  -20.6967  -11.4368 C   0  0  0  0  0  0  0  0  0  0  0  0
   27.8050  -20.2579  -11.0704 O   0  0  0  0  0  0  0  0  0  0  0  0
   27.4348  -18.5558   -6.4448 C   0  0  0  0  0  0  0  0  0  0  0  0
   27.0851  -19.9570   -7.0034 C   0  0  2  0  0  0  0  0  0  0  0  0
   28.2181  -20.8659   -6.6058 C   0  0  0  0  0  0  0  0  0  0  0  0
   26.8632  -19.8357   -8.4765 C   0  0  0  0  0  0  0  0  0  0  0  0
   25.9705  -20.9112   -8.9924 C   0  0  2  0  0  0  0  0  0  0  0  0
   25.6828  -20.7203  -10.4185 N   0  0  0  0  0  0  0  0  0  0  0  0
   24.7407  -21.0057   -8.2150 C   0  0  0  0  0  0  0  0  0  0  0  0
   24.8957  -21.4117   -6.8620 O   0  0  0  0  0  0  0  0  0  0  0  0
   23.5879  -20.7710   -8.6150 O   0  0  0  0  0  0  0  0  0  0  0  0
  2  1  1  1
  3  2  1  0
  4  3  1  0
  5  4  2  0
  6  7  1  0
  6  5  1  0
  7  8  2  0
  8  4  1  0
  9  2  1  0
  9 11  1  0
 10  9  2  0
 11 12  1  0
 12 13  1  0
 14 13  1  0
 15 11  1  0
 15 14  1  0
 15 16  1  1
 16 17  2  0
 19 18  1  6
 19 20  1  0
 19 21  1  0
 22 21  1  1
 22 23  1  0
 22 24  1  0
 23 16  1  0
 24 26  2  0
 24 25  1  0
M  END
$$$$
