HPL.pdb
     RDKit          3D

 26 27  0  0  1  0  0  0  0  0999 V2000
   16.8357  -16.2840    5.9050 N   0  0  0  0  0  0  0  0  0  0  0  0
   18.1812  -16.7338    5.7812 C   0  0  1  0  0  0  0  0  0  0  0  0
   19.1095  -15.6698    5.2193 C   0  0  0  0  0  0  0  0  0  0  0  0
   18.6603  -15.3264    3.8494 C   0  0  0  0  0  0  0  0  0  0  0  0
   18.5474  -16.1072    2.7412 C   0  0  0  0  0  0  0  0  0  0  0  0
   18.0775  -15.3619    1.7372 N   0  0  0  0  0  0  0  0  0  0  0  0
   17.8766  -14.0862    2.1778 C   0  0  0  0  0  0  0  0  0  0  0  0
   18.2382  -14.0791    3.4742 N   0  0  0  0  0  0  0  0  0  0  0  0
   18.7442  -17.2899    7.0446 C   0  0  0  0  0  0  0  0  0  0  0  0
   18.5050  -16.6783    8.1341 O   0  0  0  0  0  0  0  0  0  0  0  0
   19.5172  -18.4655    7.0009 N   0  0  0  0  0  0  0  0  0  0  0  0
   19.8157  -19.2880    5.8830 C   0  0  0  0  0  0  0  0  0  0  0  0
   20.5166  -20.5223    6.4088 C   0  0  0  0  0  0  0  0  0  0  0  0
   20.4871  -20.4515    7.8913 C   0  0  0  0  0  0  0  0  0  0  0  0
   20.1449  -19.0105    8.1960 C   0  0  1  0  0  0  0  0  0  0  0  0
   21.3575  -18.2270    8.5683 C   0  0  0  0  0  0  0  0  0  0  0  0
   22.1549  -17.8135    7.6437 O   0  0  0  0  0  0  0  0  0  0  0  0
   22.5659  -14.3901    9.1661 C   0  0  0  0  0  0  0  0  0  0  0  0
   21.7655  -14.9579   10.3639 C   0  0  2  0  0  0  0  0  0  0  0  0
   21.3445  -13.7724   11.1917 C   0  0  0  0  0  0  0  0  0  0  0  0
   22.6252  -15.9503   11.0779 C   0  0  0  0  0  0  0  0  0  0  0  0
   22.9522  -17.1210   10.2163 C   0  0  2  0  0  0  0  0  0  0  0  0
   21.7433  -17.8783    9.8728 N   0  0  0  0  0  0  0  0  0  0  0  0
   23.9534  -17.9801   10.8370 C   0  0  0  0  0  0  0  0  0  0  0  0
   25.2571  -17.4261   10.9502 O   0  0  0  0  0  0  0  0  0  0  0  0
   23.7804  -19.1325   11.2682 O   0  0  0  0  0  0  0  0  0  0  0  0
  2  1  1  1
  3  2  1  0
  4  3  1  0
  5  4  2  0
  6  7  1  0
  6  5  1  0
  7  8  2  0
  8  4  1  0
  9  2  1  0
  9 11  1  0
 10  9  2  0
 11 12  1  0
 12 13  1  0
 14 13  1  0
 15 11  1  0
 15 14  1  0
 15 16  1  6
 16 17  2  0
 19 18  1  6
 19 20  1  0
 19 21  1  0
 22 21  1  1
 22 23  1  0
 22 24  1  0
 23 16  1  0
 24 26  2  0
 24 25  1  0
M  END
$$$$
