HPL.pdb
     RDKit          3D

 26 27  0  0  1  0  0  0  0  0999 V2000
   23.1834  -21.9058  -13.4240 N   0  0  0  0  0  0  0  0  0  0  0  0
   24.0076  -20.9044  -12.8358 C   0  0  1  0  0  0  0  0  0  0  0  0
   23.2084  -19.7522  -12.2496 C   0  0  0  0  0  0  0  0  0  0  0  0
   22.4677  -19.0848  -13.3460 C   0  0  0  0  0  0  0  0  0  0  0  0
   22.9292  -18.4273  -14.4438 C   0  0  0  0  0  0  0  0  0  0  0  0
   21.8848  -18.0099  -15.1646 N   0  0  0  0  0  0  0  0  0  0  0  0
   20.7292  -18.3909  -14.5470 C   0  0  0  0  0  0  0  0  0  0  0  0
   21.1018  -19.0487  -13.4336 N   0  0  0  0  0  0  0  0  0  0  0  0
   24.9613  -21.4356  -11.8206 C   0  0  0  0  0  0  0  0  0  0  0  0
   24.5245  -22.2543  -10.9504 O   0  0  0  0  0  0  0  0  0  0  0  0
   26.3067  -21.0231  -11.8505 N   0  0  0  0  0  0  0  0  0  0  0  0
   26.9442  -20.1470  -12.7678 C   0  0  0  0  0  0  0  0  0  0  0  0
   28.4281  -20.1902  -12.4721 C   0  0  0  0  0  0  0  0  0  0  0  0
   28.6443  -21.2346  -11.4395 C   0  0  0  0  0  0  0  0  0  0  0  0
   27.2698  -21.4895  -10.8633 C   0  0  1  0  0  0  0  0  0  0  0  0
   27.0836  -20.7880   -9.5611 C   0  0  0  0  0  0  0  0  0  0  0  0
   26.5127  -19.6323   -9.5382 O   0  0  0  0  0  0  0  0  0  0  0  0
   28.8779  -19.2309   -4.8789 C   0  0  0  0  0  0  0  0  0  0  0  0
   27.9842  -20.4753   -4.6542 C   0  0  2  0  0  0  0  0  0  0  0  0
   28.5464  -21.1886   -3.4529 C   0  0  0  0  0  0  0  0  0  0  0  0
   27.9700  -21.2796   -5.9138 C   0  0  0  0  0  0  0  0  0  0  0  0
   27.3480  -20.5311   -7.0419 C   0  0  2  0  0  0  0  0  0  0  0  0
   27.4824  -21.2685   -8.3032 N   0  0  0  0  0  0  0  0  0  0  0  0
   27.8952  -19.1847   -7.1579 C   0  0  0  0  0  0  0  0  0  0  0  0
   29.1562  -19.0848   -7.8054 O   0  0  0  0  0  0  0  0  0  0  0  0
   27.3749  -18.1325   -6.7502 O   0  0  0  0  0  0  0  0  0  0  0  0
  2  1  1  1
  3  2  1  0
  4  3  1  0
  5  4  2  0
  6  7  1  0
  6  5  1  0
  7  8  2  0
  8  4  1  0
  9  2  1  0
  9 11  1  0
 10  9  2  0
 11 12  1  0
 12 13  1  0
 14 13  1  0
 15 11  1  0
 15 14  1  0
 15 16  1  1
 16 17  2  0
 19 18  1  6
 19 20  1  0
 19 21  1  0
 22 21  1  1
 22 23  1  0
 22 24  1  0
 23 16  1  0
 24 26  2  0
 24 25  1  0
M  END
$$$$
