ANC.pdb
     RDKit          3D

 20 19  0  0  1  0  0  0  0  0999 V2000
   19.8949  -15.1263  -18.8339 C   0  0  0  0  0  0  0  0  0  0  0  0
   19.1782  -13.9370  -18.2383 C   0  0  2  0  0  0  0  0  0  0  0  0
   18.3754  -13.2271  -19.2129 N   0  0  0  0  0  0  0  0  0  0  0  0
   20.1609  -13.0021  -17.6754 C   0  0  0  0  0  0  0  0  0  0  0  0
   20.9126  -13.3334  -16.7305 O   0  0  0  0  0  0  0  0  0  0  0  0
   24.5321   -9.4113  -18.5526 N   0  0  0  0  0  0  0  0  0  0  0  0
   23.1324   -9.2335  -18.6115 C   0  0  0  0  0  0  0  0  0  0  0  0
   22.6891   -8.0753  -18.3777 O   0  0  0  0  0  0  0  0  0  0  0  0
   22.1382  -10.2675  -18.9193 C   0  0  0  0  0  0  0  0  0  0  0  0
   21.3659  -10.7669  -17.7212 C   0  0  2  0  0  0  0  0  0  0  0  0
   20.3210  -11.6578  -18.1696 N   0  0  0  0  0  0  0  0  0  0  0  0
   20.7773   -9.5586  -17.0366 C   0  0  0  0  0  0  0  0  0  0  0  0
   19.7585   -9.0046  -17.5149 O   0  0  0  0  0  0  0  0  0  0  0  0
   21.3279   -9.0024  -15.8525 N   0  0  0  0  0  0  0  0  0  0  0  0
   20.7349   -7.8697  -15.1692 C   0  0  1  0  0  0  0  0  0  0  0  0
   20.7492   -8.0617  -13.6680 C   0  0  0  0  0  0  0  0  0  0  0  0
   19.5506   -9.3014  -13.1385 S   0  0  0  0  0  0  0  0  0  0  0  0
   21.4422   -6.6179  -15.5640 C   0  0  0  0  0  0  0  0  0  0  0  0
   20.9994   -5.3703  -15.1451 O   0  0  0  0  0  0  0  0  0  0  0  0
   22.4669   -6.6479  -16.2919 O   0  0  0  0  0  0  0  0  0  0  0  0
  2  1  1  6
  2  4  1  0
  3  2  1  0
  4  5  2  0
  6  7  1  0
  7  9  1  0
  8  7  2  0
 10  9  1  6
 11 10  1  0
 11  4  1  0
 12 10  1  0
 12 14  1  0
 13 12  2  0
 15 14  1  0
 15 16  1  1
 17 16  1  0
 18 15  1  0
 19 18  1  0
 20 18  2  0
M  END
$$$$
