ANC.pdb
     RDKit          3D

 20 19  0  0  1  0  0  0  0  0999 V2000
   15.5021  -13.7373  -16.5139 C   0  0  0  0  0  0  0  0  0  0  0  0
   16.6220  -13.0948  -15.7291 C   0  0  2  0  0  0  0  0  0  0  0  0
   16.1850  -12.6036  -14.4383 N   0  0  0  0  0  0  0  0  0  0  0  0
   17.1742  -11.9686  -16.4927 C   0  0  0  0  0  0  0  0  0  0  0  0
   17.1201  -11.9368  -17.7432 O   0  0  0  0  0  0  0  0  0  0  0  0
   17.8377   -7.6275  -19.2313 N   0  0  0  0  0  0  0  0  0  0  0  0
   17.3843   -7.7323  -17.8980 C   0  0  0  0  0  0  0  0  0  0  0  0
   17.2396   -6.6573  -17.2531 O   0  0  0  0  0  0  0  0  0  0  0  0
   17.0632   -8.9739  -17.1854 C   0  0  0  0  0  0  0  0  0  0  0  0
   18.2576   -9.6731  -16.5808 C   0  0  2  0  0  0  0  0  0  0  0  0
   17.8070  -10.8399  -15.8581 N   0  0  0  0  0  0  0  0  0  0  0  0
   18.9211   -8.6921  -15.6466 C   0  0  0  0  0  0  0  0  0  0  0  0
   18.3336   -8.3335  -14.5979 O   0  0  0  0  0  0  0  0  0  0  0  0
   20.2047   -8.1407  -15.8973 N   0  0  0  0  0  0  0  0  0  0  0  0
   20.8918   -7.2900  -14.9455 C   0  0  1  0  0  0  0  0  0  0  0  0
   22.3399   -7.6996  -14.7844 C   0  0  0  0  0  0  0  0  0  0  0  0
   22.4952   -9.3905  -14.1755 S   0  0  0  0  0  0  0  0  0  0  0  0
   20.7737   -5.8650  -15.3682 C   0  0  0  0  0  0  0  0  0  0  0  0
   21.1127   -4.8236  -14.5146 O   0  0  0  0  0  0  0  0  0  0  0  0
   20.3622   -5.5554  -16.5152 O   0  0  0  0  0  0  0  0  0  0  0  0
  2  1  1  6
  2  4  1  0
  3  2  1  0
  4  5  2  0
  6  7  1  0
  7  9  1  0
  8  7  2  0
 10  9  1  1
 11 10  1  0
 11  4  1  0
 12 10  1  0
 12 14  1  0
 13 12  2  0
 15 14  1  0
 15 16  1  6
 17 16  1  0
 18 15  1  0
 19 18  1  0
 20 18  2  0
M  END
$$$$
