ANC.pdb
     RDKit          3D

 20 19  0  0  1  0  0  0  0  0999 V2000
   21.0237  -10.9872  -16.5292 C   0  0  0  0  0  0  0  0  0  0  0  0
   19.8548  -10.1125  -16.1397 C   0  0  2  0  0  0  0  0  0  0  0  0
   19.3996   -9.2755  -17.2309 N   0  0  0  0  0  0  0  0  0  0  0  0
   20.2412   -9.2460  -15.0188 C   0  0  0  0  0  0  0  0  0  0  0  0
   20.5660   -9.7207  -13.9067 O   0  0  0  0  0  0  0  0  0  0  0  0
   21.3846   -4.8607  -12.1025 N   0  0  0  0  0  0  0  0  0  0  0  0
   21.6015   -4.7189  -13.4907 C   0  0  0  0  0  0  0  0  0  0  0  0
   22.2092   -3.6820  -13.8753 O   0  0  0  0  0  0  0  0  0  0  0  0
   21.1879   -5.6630  -14.5348 C   0  0  0  0  0  0  0  0  0  0  0  0
   20.5646   -6.9362  -14.0135 C   0  0  2  0  0  0  0  0  0  0  0  0
   20.2708   -7.8091  -15.1263 N   0  0  0  0  0  0  0  0  0  0  0  0
   19.2977   -6.5482  -13.2928 C   0  0  0  0  0  0  0  0  0  0  0  0
   18.3121   -6.1278  -13.9451 O   0  0  0  0  0  0  0  0  0  0  0  0
   19.1586   -6.6357  -11.8830 N   0  0  0  0  0  0  0  0  0  0  0  0
   17.9241   -6.3114  -11.1956 C   0  0  1  0  0  0  0  0  0  0  0  0
   17.9464   -6.7981   -9.7626 C   0  0  0  0  0  0  0  0  0  0  0  0
   16.3663   -6.5250   -8.9365 S   0  0  0  0  0  0  0  0  0  0  0  0
   17.6799   -4.8423  -11.2671 C   0  0  0  0  0  0  0  0  0  0  0  0
   18.7267   -3.9363  -11.3741 O   0  0  0  0  0  0  0  0  0  0  0  0
   16.5149   -4.3709  -11.2330 O   0  0  0  0  0  0  0  0  0  0  0  0
  2  1  1  6
  2  4  1  0
  3  2  1  0
  4  5  2  0
  6  7  1  0
  7  9  1  0
  8  7  2  0
 10  9  1  6
 11 10  1  0
 11  4  1  0
 12 10  1  0
 12 14  1  0
 13 12  2  0
 15 14  1  0
 15 16  1  1
 17 16  1  0
 18 15  1  0
 19 18  1  0
 20 18  2  0
M  END
$$$$
