ANC.pdb
     RDKit          3D

 20 19  0  0  1  0  0  0  0  0999 V2000
   17.3104   -9.7114  -15.8516 C   0  0  0  0  0  0  0  0  0  0  0  0
   18.7349   -9.2915  -15.5735 C   0  0  2  0  0  0  0  0  0  0  0  0
   19.6659  -10.3984  -15.6537 N   0  0  0  0  0  0  0  0  0  0  0  0
   18.8217   -8.7072  -14.2291 C   0  0  0  0  0  0  0  0  0  0  0  0
   18.6734   -9.4063  -13.2010 O   0  0  0  0  0  0  0  0  0  0  0  0
   22.1844   -6.8389  -12.2810 N   0  0  0  0  0  0  0  0  0  0  0  0
   21.5266   -5.6327  -12.6071 C   0  0  0  0  0  0  0  0  0  0  0  0
   22.2415   -4.5985  -12.7160 O   0  0  0  0  0  0  0  0  0  0  0  0
   20.0869   -5.4626  -12.8330 C   0  0  0  0  0  0  0  0  0  0  0  0
   19.2800   -6.7323  -12.6991 C   0  0  2  0  0  0  0  0  0  0  0  0
   19.0804   -7.3064  -14.0096 N   0  0  0  0  0  0  0  0  0  0  0  0
   17.9588   -6.3558  -12.0765 C   0  0  0  0  0  0  0  0  0  0  0  0
   17.0842   -5.7807  -12.7678 O   0  0  0  0  0  0  0  0  0  0  0  0
   17.6456   -6.6239  -10.7184 N   0  0  0  0  0  0  0  0  0  0  0  0
   16.3535   -6.3176  -10.1367 C   0  0  1  0  0  0  0  0  0  0  0  0
   16.0735   -7.1838   -8.9275 C   0  0  0  0  0  0  0  0  0  0  0  0
   16.3564   -8.9313   -9.2739 S   0  0  0  0  0  0  0  0  0  0  0  0
   16.2875   -4.8680   -9.7940 C   0  0  0  0  0  0  0  0  0  0  0  0
   15.1050   -4.2742   -9.3731 O   0  0  0  0  0  0  0  0  0  0  0  0
   17.3025   -4.1304   -9.8743 O   0  0  0  0  0  0  0  0  0  0  0  0
  2  1  1  1
  2  4  1  0
  3  2  1  0
  4  5  2  0
  6  7  1  0
  7  9  1  0
  8  7  2  0
 10  9  1  6
 11 10  1  0
 11  4  1  0
 12 10  1  0
 12 14  1  0
 13 12  2  0
 15 14  1  0
 15 16  1  1
 17 16  1  0
 18 15  1  0
 19 18  1  0
 20 18  2  0
M  END
$$$$
