ANC.pdb
     RDKit          3D

 20 19  0  0  1  0  0  0  0  0999 V2000
   12.2776  -11.6825  -11.5058 C   0  0  0  0  0  0  0  0  0  0  0  0
   13.6153  -12.3818  -11.5737 C   0  0  2  0  0  0  0  0  0  0  0  0
   13.6715  -13.5565  -10.7281 N   0  0  0  0  0  0  0  0  0  0  0  0
   14.6757  -11.4562  -11.1550 C   0  0  0  0  0  0  0  0  0  0  0  0
   14.9339  -11.2611   -9.9455 O   0  0  0  0  0  0  0  0  0  0  0  0
   19.0993   -8.4104  -11.3314 N   0  0  0  0  0  0  0  0  0  0  0  0
   18.7683   -9.0061  -12.5682 C   0  0  0  0  0  0  0  0  0  0  0  0
   19.6093   -8.8974  -13.5027 O   0  0  0  0  0  0  0  0  0  0  0  0
   17.5371   -9.7426  -12.8751 C   0  0  0  0  0  0  0  0  0  0  0  0
   16.5816   -9.8727  -11.7126 C   0  0  2  0  0  0  0  0  0  0  0  0
   15.4783  -10.7210  -12.0998 N   0  0  0  0  0  0  0  0  0  0  0  0
   16.0943   -8.4846  -11.3803 C   0  0  0  0  0  0  0  0  0  0  0  0
   15.3879   -7.8567  -12.2052 O   0  0  0  0  0  0  0  0  0  0  0  0
   16.3996   -7.8362  -10.1552 N   0  0  0  0  0  0  0  0  0  0  0  0
   15.8667   -6.5347   -9.8030 C   0  0  1  0  0  0  0  0  0  0  0  0
   15.7514   -6.3734   -8.3026 C   0  0  0  0  0  0  0  0  0  0  0  0
   14.7961   -7.7088   -7.5554 S   0  0  0  0  0  0  0  0  0  0  0  0
   16.7160   -5.4652  -10.4011 C   0  0  0  0  0  0  0  0  0  0  0  0
   16.3290   -4.1319  -10.3773 O   0  0  0  0  0  0  0  0  0  0  0  0
   17.8151   -5.7334  -10.9495 O   0  0  0  0  0  0  0  0  0  0  0  0
  2  1  1  1
  2  4  1  0
  3  2  1  0
  4  5  2  0
  6  7  1  0
  7  9  1  0
  8  7  2  0
 10  9  1  6
 11 10  1  0
 11  4  1  0
 12 10  1  0
 12 14  1  0
 13 12  2  0
 15 14  1  0
 15 16  1  1
 17 16  1  0
 18 15  1  0
 19 18  1  0
 20 18  2  0
M  END
$$$$
