ANC.pdb
     RDKit          3D

 20 19  0  0  1  0  0  0  0  0999 V2000
   28.0357  -19.7123  -16.8033 C   0  0  0  0  0  0  0  0  0  0  0  0
   28.1841  -21.0028  -16.0316 C   0  0  2  0  0  0  0  0  0  0  0  0
   28.4009  -22.1449  -16.8959 N   0  0  0  0  0  0  0  0  0  0  0  0
   26.9719  -21.2433  -15.2383 C   0  0  0  0  0  0  0  0  0  0  0  0
   26.0561  -21.9897  -15.6528 O   0  0  0  0  0  0  0  0  0  0  0  0
   24.8966  -21.5855   -9.6247 N   0  0  0  0  0  0  0  0  0  0  0  0
   24.8163  -20.7374  -10.7509 C   0  0  0  0  0  0  0  0  0  0  0  0
   23.7135  -20.1604  -10.9594 O   0  0  0  0  0  0  0  0  0  0  0  0
   25.8939  -20.4596  -11.7071 C   0  0  0  0  0  0  0  0  0  0  0  0
   25.6133  -20.9255  -13.1161 C   0  0  2  0  0  0  0  0  0  0  0  0
   26.7614  -20.6418  -13.9457 N   0  0  0  0  0  0  0  0  0  0  0  0
   24.4045  -20.1659  -13.6030 C   0  0  0  0  0  0  0  0  0  0  0  0
   24.5314  -18.9872  -14.0133 O   0  0  0  0  0  0  0  0  0  0  0  0
   23.1010  -20.7272  -13.6219 N   0  0  0  0  0  0  0  0  0  0  0  0
   21.9909  -20.1077  -14.3188 C   0  0  1  0  0  0  0  0  0  0  0  0
   22.2136  -20.1017  -15.8158 C   0  0  0  0  0  0  0  0  0  0  0  0
   21.2096  -18.8491  -16.6386 S   0  0  0  0  0  0  0  0  0  0  0  0
   20.7216  -20.8033  -13.9607 C   0  0  0  0  0  0  0  0  0  0  0  0
   19.5132  -20.1224  -13.8968 O   0  0  0  0  0  0  0  0  0  0  0  0
   20.7006  -22.0338  -13.7035 O   0  0  0  0  0  0  0  0  0  0  0  0
  2  1  1  6
  2  4  1  0
  3  2  1  0
  4  5  2  0
  6  7  1  0
  7  9  1  0
  8  7  2  0
 10  9  1  1
 11 10  1  0
 11  4  1  0
 12 10  1  0
 12 14  1  0
 13 12  2  0
 15 14  1  0
 15 16  1  6
 17 16  1  0
 18 15  1  0
 19 18  1  0
 20 18  2  0
M  END
$$$$
