CNW.pdb
     RDKit          3D

 29 30  0  0  1  0  0  0  0  0999 V2000
   29.2685  -17.8731  -18.3003 N   0  0  0  0  0  0  0  0  0  0  0  0
   29.1565  -18.3402  -16.9424 C   0  0  1  0  0  0  0  0  0  0  0  0
   29.6355  -17.3169  -15.9361 C   0  0  0  0  0  0  0  0  0  0  0  0
   31.3411  -16.8264  -16.2316 S   0  0  0  0  0  0  0  0  0  0  0  0
   27.7807  -18.7997  -16.6490 C   0  0  0  0  0  0  0  0  0  0  0  0
   26.8670  -18.4670  -17.4428 O   0  0  0  0  0  0  0  0  0  0  0  0
   23.9168  -21.6874  -15.2081 N   0  0  0  0  0  0  0  0  0  0  0  0
   24.6800  -21.9052  -16.4045 C   0  0  0  0  0  0  0  0  0  0  0  0
   24.1910  -22.6642  -17.2553 O   0  0  0  0  0  0  0  0  0  0  0  0
   25.9620  -21.1957  -16.4785 C   0  0  0  0  0  0  0  0  0  0  0  0
   26.2791  -20.3155  -15.3250 C   0  0  2  0  0  0  0  0  0  0  0  0
   27.5243  -19.5905  -15.4987 N   0  0  0  0  0  0  0  0  0  0  0  0
   26.2984  -21.0278  -14.0214 C   0  0  0  0  0  0  0  0  0  0  0  0
   27.3125  -21.6977  -13.7164 O   0  0  0  0  0  0  0  0  0  0  0  0
   25.2281  -20.9940  -13.0921 N   0  0  0  0  0  0  0  0  0  0  0  0
   25.3568  -21.3570  -11.6832 C   0  0  1  0  0  0  0  0  0  0  0  0
   26.6258  -20.8321  -11.1088 C   0  0  0  0  0  0  0  0  0  0  0  0
   26.6315  -20.6145   -9.6619 C   0  0  0  0  0  0  0  0  0  0  0  0
   25.5257  -20.4446   -8.8325 C   0  0  0  0  0  0  0  0  0  0  0  0
   25.9535  -20.2410   -7.5743 N   0  0  0  0  0  0  0  0  0  0  0  0
   27.3123  -20.2693   -7.5319 C   0  0  0  0  0  0  0  0  0  0  0  0
   28.2210  -20.1361   -6.5211 C   0  0  0  0  0  0  0  0  0  0  0  0
   29.5534  -20.2425   -6.8419 C   0  0  0  0  0  0  0  0  0  0  0  0
   30.0098  -20.4730   -8.1118 C   0  0  0  0  0  0  0  0  0  0  0  0
   29.0825  -20.6045   -9.1218 C   0  0  0  0  0  0  0  0  0  0  0  0
   27.7293  -20.5042   -8.8455 C   0  0  0  0  0  0  0  0  0  0  0  0
   24.1312  -21.1726  -10.9074 C   0  0  0  0  0  0  0  0  0  0  0  0
   23.8891  -21.7632   -9.8184 O   0  0  0  0  0  0  0  0  0  0  0  0
   23.1573  -20.3014  -11.3607 O   0  0  0  0  0  0  0  0  0  0  0  0
  2  5  1  0
  2  1  1  6
  3  2  1  0
  4  3  1  0
  5  6  2  0
  7  8  1  0
  8 10  1  0
  9  8  2  0
 11 10  1  6
 12 11  1  0
 12  5  1  0
 13 11  1  0
 13 14  2  0
 15 13  1  0
 16 15  1  0
 16 27  1  0
 16 17  1  1
 18 17  1  0
 19 18  2  0
 20 21  1  0
 20 19  1  0
 21 26  2  0
 22 21  1  0
 22 23  2  0
 23 24  1  0
 24 25  2  0
 26 18  1  0
 26 25  1  0
 27 28  2  0
 27 29  1  0
M  END
$$$$
