CNW.pdb
     RDKit          3D

 29 30  0  0  1  0  0  0  0  0999 V2000
   23.0012  -18.4884  -16.9439 N   0  0  0  0  0  0  0  0  0  0  0  0
   22.0710  -17.6859  -16.1921 C   0  0  1  0  0  0  0  0  0  0  0  0
   20.6516  -17.8153  -16.6998 C   0  0  0  0  0  0  0  0  0  0  0  0
   20.4074  -16.9395  -18.2523 S   0  0  0  0  0  0  0  0  0  0  0  0
   22.1670  -17.9755  -14.7440 C   0  0  0  0  0  0  0  0  0  0  0  0
   21.2922  -17.4884  -13.9869 O   0  0  0  0  0  0  0  0  0  0  0  0
   21.4069  -19.9350  -10.1815 N   0  0  0  0  0  0  0  0  0  0  0  0
   21.9575  -20.7087  -11.2583 C   0  0  0  0  0  0  0  0  0  0  0  0
   22.3587  -21.8503  -10.9851 O   0  0  0  0  0  0  0  0  0  0  0  0
   21.9800  -20.0487  -12.5685 C   0  0  0  0  0  0  0  0  0  0  0  0
   23.2235  -19.3049  -12.8942 C   0  0  2  0  0  0  0  0  0  0  0  0
   23.2250  -18.7807  -14.2475 N   0  0  0  0  0  0  0  0  0  0  0  0
   24.4634  -20.0911  -12.6663 C   0  0  0  0  0  0  0  0  0  0  0  0
   24.7421  -21.0193  -13.4605 O   0  0  0  0  0  0  0  0  0  0  0  0
   25.3594  -19.8513  -11.5940 N   0  0  0  0  0  0  0  0  0  0  0  0
   26.6318  -20.5471  -11.4204 C   0  0  1  0  0  0  0  0  0  0  0  0
   27.4063  -19.9718  -10.2868 C   0  0  0  0  0  0  0  0  0  0  0  0
   26.8395  -20.1794   -8.9540 C   0  0  0  0  0  0  0  0  0  0  0  0
   25.6140  -20.7631   -8.6427 C   0  0  0  0  0  0  0  0  0  0  0  0
   25.4478  -20.7396   -7.3087 N   0  0  0  0  0  0  0  0  0  0  0  0
   26.5237  -20.1589   -6.7135 C   0  0  0  0  0  0  0  0  0  0  0  0
   26.8530  -19.9096   -5.4118 C   0  0  0  0  0  0  0  0  0  0  0  0
   28.0638  -19.3081   -5.1631 C   0  0  0  0  0  0  0  0  0  0  0  0
   28.9468  -18.9501   -6.1461 C   0  0  0  0  0  0  0  0  0  0  0  0
   28.6017  -19.2067   -7.4546 C   0  0  0  0  0  0  0  0  0  0  0  0
   27.3917  -19.8107   -7.7527 C   0  0  0  0  0  0  0  0  0  0  0  0
   26.5296  -22.0032  -11.5051 C   0  0  0  0  0  0  0  0  0  0  0  0
   25.4379  -22.6368  -11.4873 O   0  0  0  0  0  0  0  0  0  0  0  0
   27.6779  -22.7658  -11.6182 O   0  0  0  0  0  0  0  0  0  0  0  0
  2  5  1  0
  2  1  1  6
  3  2  1  0
  4  3  1  0
  5  6  2  0
  7  8  1  0
  8 10  1  0
  9  8  2  0
 11 10  1  6
 12 11  1  0
 12  5  1  0
 13 11  1  0
 13 14  2  0
 15 13  1  0
 16 15  1  0
 16 27  1  0
 16 17  1  1
 18 17  1  0
 19 18  2  0
 20 21  1  0
 20 19  1  0
 21 26  2  0
 22 21  1  0
 22 23  2  0
 23 24  1  0
 24 25  2  0
 26 18  1  0
 26 25  1  0
 27 28  2  0
 27 29  1  0
M  END
$$$$
