CNW.pdb
     RDKit          3D

 29 30  0  0  1  0  0  0  0  0999 V2000
   26.4680  -23.9037  -18.0819 N   0  0  0  0  0  0  0  0  0  0  0  0
   25.7014  -23.2254  -17.0685 C   0  0  1  0  0  0  0  0  0  0  0  0
   24.5543  -24.0650  -16.5505 C   0  0  0  0  0  0  0  0  0  0  0  0
   25.1177  -25.3741  -15.4525 S   0  0  0  0  0  0  0  0  0  0  0  0
   26.5731  -22.7468  -15.9726 C   0  0  0  0  0  0  0  0  0  0  0  0
   27.8122  -22.7245  -16.1728 O   0  0  0  0  0  0  0  0  0  0  0  0
   29.1856  -20.2323  -15.3149 N   0  0  0  0  0  0  0  0  0  0  0  0
   28.1331  -19.4426  -14.7405 C   0  0  0  0  0  0  0  0  0  0  0  0
   28.4557  -18.3606  -14.2268 O   0  0  0  0  0  0  0  0  0  0  0  0
   26.7860  -20.0169  -14.8309 C   0  0  0  0  0  0  0  0  0  0  0  0
   26.5367  -21.2121  -13.9854 C   0  0  2  0  0  0  0  0  0  0  0  0
   26.0046  -22.3317  -14.7403 N   0  0  0  0  0  0  0  0  0  0  0  0
   25.6600  -20.9413  -12.8169 C   0  0  0  0  0  0  0  0  0  0  0  0
   24.6183  -20.2666  -12.9895 O   0  0  0  0  0  0  0  0  0  0  0  0
   25.9336  -21.4056  -11.5056 N   0  0  0  0  0  0  0  0  0  0  0  0
   25.1898  -20.9902  -10.3192 C   0  0  1  0  0  0  0  0  0  0  0  0
   25.9512  -19.9780   -9.5371 C   0  0  0  0  0  0  0  0  0  0  0  0
   27.2356  -20.4220   -8.9950 C   0  0  0  0  0  0  0  0  0  0  0  0
   28.2083  -21.1759   -9.6469 C   0  0  0  0  0  0  0  0  0  0  0  0
   29.2261  -21.4000   -8.7975 N   0  0  0  0  0  0  0  0  0  0  0  0
   28.9681  -20.8197   -7.5951 C   0  0  0  0  0  0  0  0  0  0  0  0
   29.6674  -20.7387   -6.4248 C   0  0  0  0  0  0  0  0  0  0  0  0
   29.0994  -20.0363   -5.3886 C   0  0  0  0  0  0  0  0  0  0  0  0
   27.8796  -19.4203   -5.4711 C   0  0  0  0  0  0  0  0  0  0  0  0
   27.1848  -19.5107   -6.6570 C   0  0  0  0  0  0  0  0  0  0  0  0
   27.7178  -20.2085   -7.7278 C   0  0  0  0  0  0  0  0  0  0  0  0
   23.7717  -20.7333  -10.5663 C   0  0  0  0  0  0  0  0  0  0  0  0
   23.3194  -20.2396  -11.6364 O   0  0  0  0  0  0  0  0  0  0  0  0
   22.8391  -21.0425   -9.5929 O   0  0  0  0  0  0  0  0  0  0  0  0
  2  5  1  0
  2  1  1  6
  3  2  1  0
  4  3  1  0
  5  6  2  0
  7  8  1  0
  8 10  1  0
  9  8  2  0
 11 10  1  6
 12 11  1  0
 12  5  1  0
 13 11  1  0
 13 14  2  0
 15 13  1  0
 16 15  1  0
 16 27  1  0
 16 17  1  6
 18 17  1  0
 19 18  2  0
 20 21  1  0
 20 19  1  0
 21 26  2  0
 22 21  1  0
 22 23  2  0
 23 24  1  0
 24 25  2  0
 26 18  1  0
 26 25  1  0
 27 28  2  0
 27 29  1  0
M  END
$$$$
