CNW.pdb
     RDKit          3D

 29 30  0  0  1  0  0  0  0  0999 V2000
   24.2538  -17.9109  -18.4489 N   0  0  0  0  0  0  0  0  0  0  0  0
   24.3761  -18.1566  -17.0349 C   0  0  1  0  0  0  0  0  0  0  0  0
   23.0668  -18.5782  -16.4046 C   0  0  0  0  0  0  0  0  0  0  0  0
   23.1007  -18.4268  -14.6122 S   0  0  0  0  0  0  0  0  0  0  0  0
   25.4598  -19.1245  -16.7543 C   0  0  0  0  0  0  0  0  0  0  0  0
   25.5937  -20.1004  -17.5324 O   0  0  0  0  0  0  0  0  0  0  0  0
   29.1024  -16.8075  -15.8973 N   0  0  0  0  0  0  0  0  0  0  0  0
   29.1530  -18.2156  -16.1732 C   0  0  0  0  0  0  0  0  0  0  0  0
   29.5794  -18.5573  -17.2868 O   0  0  0  0  0  0  0  0  0  0  0  0
   28.6887  -19.0921  -15.0921 C   0  0  0  0  0  0  0  0  0  0  0  0
   27.4234  -19.8241  -15.3542 C   0  0  2  0  0  0  0  0  0  0  0  0
   26.3096  -18.9365  -15.6332 N   0  0  0  0  0  0  0  0  0  0  0  0
   27.0460  -20.7663  -14.2692 C   0  0  0  0  0  0  0  0  0  0  0  0
   27.8306  -21.7006  -13.9834 O   0  0  0  0  0  0  0  0  0  0  0  0
   25.8401  -20.6703  -13.5299 N   0  0  0  0  0  0  0  0  0  0  0  0
   25.4505  -21.6035  -12.4759 C   0  0  1  0  0  0  0  0  0  0  0  0
   26.5741  -21.8407  -11.5287 C   0  0  0  0  0  0  0  0  0  0  0  0
   26.4784  -21.1574  -10.2385 C   0  0  0  0  0  0  0  0  0  0  0  0
   25.3915  -20.4399   -9.7452 C   0  0  0  0  0  0  0  0  0  0  0  0
   25.7116  -19.9412   -8.5384 N   0  0  0  0  0  0  0  0  0  0  0  0
   26.9795  -20.3016   -8.2047 C   0  0  0  0  0  0  0  0  0  0  0  0
   27.7603  -20.0737   -7.1076 C   0  0  0  0  0  0  0  0  0  0  0  0
   29.0214  -20.6205   -7.0963 C   0  0  0  0  0  0  0  0  0  0  0  0
   29.5283  -21.3745   -8.1203 C   0  0  0  0  0  0  0  0  0  0  0  0
   28.7305  -21.5959   -9.2211 C   0  0  0  0  0  0  0  0  0  0  0  0
   27.4530  -21.0643   -9.2766 C   0  0  0  0  0  0  0  0  0  0  0  0
   24.1274  -21.3433  -11.9106 C   0  0  0  0  0  0  0  0  0  0  0  0
   23.5083  -22.1495  -11.1621 O   0  0  0  0  0  0  0  0  0  0  0  0
   23.4865  -20.1492  -12.1867 O   0  0  0  0  0  0  0  0  0  0  0  0
  2  5  1  0
  2  1  1  6
  3  2  1  0
  4  3  1  0
  5  6  2  0
  7  8  1  0
  8 10  1  0
  9  8  2  0
 11 10  1  1
 12 11  1  0
 12  5  1  0
 13 11  1  0
 13 14  2  0
 15 13  1  0
 16 15  1  0
 16 27  1  0
 16 17  1  1
 18 17  1  0
 19 18  2  0
 20 21  1  0
 20 19  1  0
 21 26  2  0
 22 21  1  0
 22 23  2  0
 23 24  1  0
 24 25  2  0
 26 18  1  0
 26 25  1  0
 27 28  2  0
 27 29  1  0
M  END
$$$$
