CNW.pdb
     RDKit          3D

 29 30  0  0  1  0  0  0  0  0999 V2000
   28.5858  -17.7458  -17.8171 N   0  0  0  0  0  0  0  0  0  0  0  0
   28.7126  -18.7275  -16.7708 C   0  0  1  0  0  0  0  0  0  0  0  0
   29.3064  -18.1510  -15.5042 C   0  0  0  0  0  0  0  0  0  0  0  0
   30.5447  -16.8928  -15.8507 S   0  0  0  0  0  0  0  0  0  0  0  0
   27.4214  -19.4042  -16.5160 C   0  0  0  0  0  0  0  0  0  0  0  0
   26.3724  -18.7190  -16.5925 O   0  0  0  0  0  0  0  0  0  0  0  0
   26.5778  -22.9138  -19.2658 N   0  0  0  0  0  0  0  0  0  0  0  0
   25.7277  -22.2655  -18.3075 C   0  0  0  0  0  0  0  0  0  0  0  0
   24.8889  -21.4648  -18.7481 O   0  0  0  0  0  0  0  0  0  0  0  0
   25.9555  -22.6320  -16.9052 C   0  0  0  0  0  0  0  0  0  0  0  0
   26.1492  -21.4980  -15.9659 C   0  0  2  0  0  0  0  0  0  0  0  0
   27.3931  -20.7863  -16.1950 N   0  0  0  0  0  0  0  0  0  0  0  0
   26.0585  -21.8890  -14.5354 C   0  0  0  0  0  0  0  0  0  0  0  0
   26.8837  -22.7170  -14.0842 O   0  0  0  0  0  0  0  0  0  0  0  0
   25.0853  -21.3758  -13.6413 N   0  0  0  0  0  0  0  0  0  0  0  0
   25.0690  -21.6478  -12.2063 C   0  0  1  0  0  0  0  0  0  0  0  0
   26.4278  -21.4964  -11.6172 C   0  0  0  0  0  0  0  0  0  0  0  0
   26.4843  -20.8921  -10.2859 C   0  0  0  0  0  0  0  0  0  0  0  0
   25.4237  -20.3558   -9.5598 C   0  0  0  0  0  0  0  0  0  0  0  0
   25.8938  -19.8725   -8.3967 N   0  0  0  0  0  0  0  0  0  0  0  0
   27.2372  -20.0677   -8.3179 C   0  0  0  0  0  0  0  0  0  0  0  0
   28.1708  -19.7832   -7.3626 C   0  0  0  0  0  0  0  0  0  0  0  0
   29.4721  -20.1490   -7.6121 C   0  0  0  0  0  0  0  0  0  0  0  0
   29.8744  -20.7781   -8.7595 C   0  0  0  0  0  0  0  0  0  0  0  0
   28.9227  -21.0584   -9.7149 C   0  0  0  0  0  0  0  0  0  0  0  0
   27.5992  -20.7077   -9.5070 C   0  0  0  0  0  0  0  0  0  0  0  0
   23.9477  -21.0331  -11.4972 C   0  0  0  0  0  0  0  0  0  0  0  0
   23.3844  -19.9630  -11.8594 O   0  0  0  0  0  0  0  0  0  0  0  0
   23.4429  -21.6356  -10.3592 O   0  0  0  0  0  0  0  0  0  0  0  0
  2  5  1  0
  2  1  1  6
  3  2  1  0
  4  3  1  0
  5  6  2  0
  7  8  1  0
  8 10  1  0
  9  8  2  0
 11 10  1  6
 12 11  1  0
 12  5  1  0
 13 11  1  0
 13 14  2  0
 15 13  1  0
 16 15  1  0
 16 27  1  0
 16 17  1  1
 18 17  1  0
 19 18  2  0
 20 21  1  0
 20 19  1  0
 21 26  2  0
 22 21  1  0
 22 23  2  0
 23 24  1  0
 24 25  2  0
 26 18  1  0
 26 25  1  0
 27 28  2  0
 27 29  1  0
M  END
$$$$
