CNW.pdb
     RDKit          3D

 29 30  0  0  1  0  0  0  0  0999 V2000
   17.6190   -8.0794  -22.2457 N   0  0  0  0  0  0  0  0  0  0  0  0
   18.4439   -8.8551  -21.3554 C   0  0  1  0  0  0  0  0  0  0  0  0
   19.5158   -9.6321  -22.0877 C   0  0  0  0  0  0  0  0  0  0  0  0
   18.8516  -11.0874  -22.9109 S   0  0  0  0  0  0  0  0  0  0  0  0
   19.0122   -8.0086  -20.2828 C   0  0  0  0  0  0  0  0  0  0  0  0
   20.2589   -8.0015  -20.1366 O   0  0  0  0  0  0  0  0  0  0  0  0
   19.7487   -4.2935  -17.0796 N   0  0  0  0  0  0  0  0  0  0  0  0
   18.3238   -4.2387  -17.2464 C   0  0  0  0  0  0  0  0  0  0  0  0
   17.7453   -3.2246  -16.8271 O   0  0  0  0  0  0  0  0  0  0  0  0
   17.7152   -5.4025  -17.9003 C   0  0  0  0  0  0  0  0  0  0  0  0
   18.6585   -6.4643  -18.3346 C   0  0  2  0  0  0  0  0  0  0  0  0
   18.1553   -7.2372  -19.4552 N   0  0  0  0  0  0  0  0  0  0  0  0
   19.0628   -7.3842  -17.2403 C   0  0  0  0  0  0  0  0  0  0  0  0
   18.2623   -8.2777  -16.8783 O   0  0  0  0  0  0  0  0  0  0  0  0
   20.3126   -7.3116  -16.5749 N   0  0  0  0  0  0  0  0  0  0  0  0
   20.6897   -8.1613  -15.4482 C   0  0  1  0  0  0  0  0  0  0  0  0
   22.1593   -8.3976  -15.4242 C   0  0  0  0  0  0  0  0  0  0  0  0
   22.6460   -9.2947  -14.3759 C   0  0  0  0  0  0  0  0  0  0  0  0
   23.3004  -10.5121  -14.5474 C   0  0  0  0  0  0  0  0  0  0  0  0
   23.5550  -11.0427  -13.3385 N   0  0  0  0  0  0  0  0  0  0  0  0
   23.0927  -10.2197  -12.3598 C   0  0  0  0  0  0  0  0  0  0  0  0
   23.1119  -10.2834  -10.9957 C   0  0  0  0  0  0  0  0  0  0  0  0
   22.5556   -9.2368  -10.2994 C   0  0  0  0  0  0  0  0  0  0  0  0
   21.9890   -8.1448  -10.8999 C   0  0  0  0  0  0  0  0  0  0  0  0
   21.9757   -8.0938  -12.2763 C   0  0  0  0  0  0  0  0  0  0  0  0
   22.5242   -9.1259  -13.0192 C   0  0  0  0  0  0  0  0  0  0  0  0
   20.0375   -7.8036  -14.1894 C   0  0  0  0  0  0  0  0  0  0  0  0
   20.0035   -6.6325  -13.7194 O   0  0  0  0  0  0  0  0  0  0  0  0
   19.4039   -8.7809  -13.4435 O   0  0  0  0  0  0  0  0  0  0  0  0
  2  5  1  0
  2  1  1  6
  3  2  1  0
  4  3  1  0
  5  6  2  0
  7  8  1  0
  8 10  1  0
  9  8  2  0
 11 10  1  1
 12 11  1  0
 12  5  1  0
 13 11  1  0
 13 14  2  0
 15 13  1  0
 16 15  1  0
 16 27  1  0
 16 17  1  1
 18 17  1  0
 19 18  2  0
 20 21  1  0
 20 19  1  0
 21 26  2  0
 22 21  1  0
 22 23  2  0
 23 24  1  0
 24 25  2  0
 26 18  1  0
 26 25  1  0
 27 28  2  0
 27 29  1  0
M  END
$$$$
