RFP.pdb
     RDKit          3D

 30 31  0  0  1  0  0  0  0  0999 V2000
    7.3290  -13.4274   16.1962 N   0  0  0  0  0  0  0  0  0  0  0  0
    8.5014  -14.1078   16.6280 C   0  0  0  0  0  0  0  0  0  0  0  0
    9.5966  -13.4279   16.6467 N   0  0  0  0  0  0  0  0  0  0  0  0
    8.4767  -15.4737   17.0218 N   0  0  0  0  0  0  0  0  0  0  0  0
    9.6824  -16.1118   17.4582 C   0  0  0  0  0  0  0  0  0  0  0  0
    9.4620  -16.6899   18.8112 C   0  0  0  0  0  0  0  0  0  0  0  0
   10.6456  -16.4512   19.6960 C   0  0  0  0  0  0  0  0  0  0  0  0
   10.4617  -17.1266   21.0148 C   0  0  2  0  0  0  0  0  0  0  0  0
    9.2687  -17.9516   21.0392 N   0  0  0  0  0  0  0  0  0  0  0  0
   10.3256  -16.1195   22.1241 C   0  0  0  0  0  0  0  0  0  0  0  0
   11.2589  -15.3188   22.3128 O   0  0  0  0  0  0  0  0  0  0  0  0
   10.5109  -13.8729   16.8372 N   0  0  0  0  0  0  0  0  0  0  0  0
    9.1854  -16.0473   22.9565 C   0  0  1  0  0  0  0  0  0  0  0  0
    9.1716  -15.1411   24.1564 C   0  0  0  0  0  0  0  0  0  0  0  0
    7.7748  -14.6203   24.1381 C   0  0  0  0  0  0  0  0  0  0  0  0
    7.3265  -13.6768   25.1186 C   0  0  0  0  0  0  0  0  0  0  0  0
    6.4928  -14.0474   26.1500 C   0  0  0  0  0  0  0  0  0  0  0  0
    6.0440  -13.1094   27.0880 C   0  0  0  0  0  0  0  0  0  0  0  0
    6.4275  -11.7886   27.0016 C   0  0  0  0  0  0  0  0  0  0  0  0
    7.2597  -11.4067   25.9776 C   0  0  0  0  0  0  0  0  0  0  0  0
    7.6842  -12.3346   25.0762 C   0  0  0  0  0  0  0  0  0  0  0  0
    9.5071  -16.0011   25.2933 O   0  0  0  0  0  0  0  0  0  0  0  0
    9.6681  -17.2564   25.0085 N   0  0  0  0  0  0  0  0  0  0  0  0
    9.6803  -15.6296   26.6380 C   0  0  0  0  0  0  0  0  0  0  0  0
    9.0540  -14.4991   27.2656 C   0  0  0  0  0  0  0  0  0  0  0  0
   10.0765  -14.0323   28.2565 C   0  0  0  0  0  0  0  0  0  0  0  0
   11.0994  -15.1408   28.3753 C   0  0  1  0  0  0  0  0  0  0  0  0
   10.4593  -16.2890   27.6250 C   0  0  0  0  0  0  0  0  0  0  0  0
    9.5657  -17.0282   28.6105 O   0  0  0  0  0  0  0  0  0  0  0  0
   10.1517  -17.7948   29.6026 O   0  0  0  0  0  0  0  0  0  0  0  0
  1  2  1  0
  2  3  2  0
  4  2  1  0
  4  5  1  0
  6  5  1  0
  7  8  1  0
  7  6  1  0
  8  9  1  6
 10  8  1  0
 11 10  2  0
 12 10  1  0
 13 12  1  0
 13 14  1  1
 15 14  1  0
 16 15  2  0
 17 16  1  0
 18 17  2  0
 18 19  1  0
 19 20  2  0
 20 15  1  0
 21 13  1  0
 21 23  1  0
 22 21  2  0
 23 27  1  0
 24 23  1  0
 24 25  1  0
 25 26  1  0
 27 26  1  0
 27 28  1  1
 28 29  1  0
 30 28  2  0
M  END
$$$$
