RFP.pdb
     RDKit          3D

 30 31  0  0  1  0  0  0  0  0999 V2000
    7.9301  -12.6482   17.8863 N   0  0  0  0  0  0  0  0  0  0  0  0
    8.2480  -13.7172   17.0032 C   0  0  0  0  0  0  0  0  0  0  0  0
    7.4726  -13.8842   15.9869 N   0  0  0  0  0  0  0  0  0  0  0  0
    9.3661  -14.5675   17.2231 N   0  0  0  0  0  0  0  0  0  0  0  0
    9.7486  -14.9110   18.5599 C   0  0  0  0  0  0  0  0  0  0  0  0
    8.5224  -15.1014   19.3807 C   0  0  0  0  0  0  0  0  0  0  0  0
    8.4352  -16.5035   19.8976 C   0  0  0  0  0  0  0  0  0  0  0  0
    9.6090  -16.8189   20.7647 C   0  0  2  0  0  0  0  0  0  0  0  0
    9.5534  -18.1737   21.2801 N   0  0  0  0  0  0  0  0  0  0  0  0
    9.6682  -15.8963   21.9516 C   0  0  0  0  0  0  0  0  0  0  0  0
   10.5341  -15.0031   21.9629 O   0  0  0  0  0  0  0  0  0  0  0  0
    7.6635  -14.6038   15.2685 N   0  0  0  0  0  0  0  0  0  0  0  0
    8.7837  -16.0037   23.0490 C   0  0  1  0  0  0  0  0  0  0  0  0
    8.9137  -15.0796   24.2282 C   0  0  0  0  0  0  0  0  0  0  0  0
    7.5249  -14.5562   24.3691 C   0  0  0  0  0  0  0  0  0  0  0  0
    7.1987  -13.5920   25.3773 C   0  0  0  0  0  0  0  0  0  0  0  0
    6.5130  -13.9435   26.5186 C   0  0  0  0  0  0  0  0  0  0  0  0
    6.1808  -12.9859   27.4848 C   0  0  0  0  0  0  0  0  0  0  0  0
    6.5338  -11.6644   27.3167 C   0  0  0  0  0  0  0  0  0  0  0  0
    7.2188  -11.3015   26.1827 C   0  0  0  0  0  0  0  0  0  0  0  0
    7.5316  -12.2483   25.2557 C   0  0  0  0  0  0  0  0  0  0  0  0
    9.3824  -15.9231   25.3297 O   0  0  0  0  0  0  0  0  0  0  0  0
    9.3575  -17.1993   25.0981 N   0  0  0  0  0  0  0  0  0  0  0  0
    9.8570  -15.5173   26.5892 C   0  0  0  0  0  0  0  0  0  0  0  0
    9.5017  -14.2892   27.2447 C   0  0  0  0  0  0  0  0  0  0  0  0
   10.7453  -13.9133   27.9912 C   0  0  0  0  0  0  0  0  0  0  0  0
   11.6350  -15.1371   27.9910 C   0  0  1  0  0  0  0  0  0  0  0  0
   10.7311  -16.2263   27.4547 C   0  0  0  0  0  0  0  0  0  0  0  0
    9.9668  -16.8006   28.6389 O   0  0  0  0  0  0  0  0  0  0  0  0
   10.6393  -17.5989   29.5477 O   0  0  0  0  0  0  0  0  0  0  0  0
  1  2  1  0
  2  3  2  0
  4  2  1  0
  4  5  1  0
  6  5  1  0
  7  8  1  0
  7  6  1  0
  8  9  1  1
 10  8  1  0
 11 10  2  0
 12 10  1  0
 13 12  1  0
 13 14  1  6
 15 14  1  0
 16 15  2  0
 17 16  1  0
 18 17  2  0
 18 19  1  0
 19 20  2  0
 20 15  1  0
 21 13  1  0
 21 23  1  0
 22 21  2  0
 23 27  1  0
 24 23  1  0
 24 25  1  0
 25 26  1  0
 27 26  1  0
 27 28  1  1
 28 29  1  0
 30 28  2  0
M  END
$$$$
