RFP.pdb
     RDKit          3D

 30 31  0  0  1  0  0  0  0  0999 V2000
    8.6279  -13.9544   15.3951 N   0  0  0  0  0  0  0  0  0  0  0  0
    8.6061  -13.8130   16.8105 C   0  0  0  0  0  0  0  0  0  0  0  0
    7.9491  -12.8110   17.2864 N   0  0  0  0  0  0  0  0  0  0  0  0
    9.2753  -14.7282   17.6685 N   0  0  0  0  0  0  0  0  0  0  0  0
    9.3341  -16.1168   17.3227 C   0  0  0  0  0  0  0  0  0  0  0  0
   10.1456  -16.8356   18.3416 C   0  0  0  0  0  0  0  0  0  0  0  0
   10.2787  -16.0235   19.5920 C   0  0  0  0  0  0  0  0  0  0  0  0
   10.0712  -16.8777   20.7990 C   0  0  2  0  0  0  0  0  0  0  0  0
    8.7971  -17.5702   20.7600 N   0  0  0  0  0  0  0  0  0  0  0  0
   10.0870  -16.0511   22.0558 C   0  0  0  0  0  0  0  0  0  0  0  0
   11.0776  -15.3318   22.2775 O   0  0  0  0  0  0  0  0  0  0  0  0
    7.8681  -12.6467   18.3046 N   0  0  0  0  0  0  0  0  0  0  0  0
    9.0265  -16.0593   22.9905 C   0  0  1  0  0  0  0  0  0  0  0  0
    9.0241  -15.1038   24.1516 C   0  0  0  0  0  0  0  0  0  0  0  0
    7.5963  -14.6779   24.2024 C   0  0  0  0  0  0  0  0  0  0  0  0
    7.1466  -13.7186   25.1668 C   0  0  0  0  0  0  0  0  0  0  0  0
    6.4503  -14.0975   26.2927 C   0  0  0  0  0  0  0  0  0  0  0  0
    5.9968  -13.1465   27.2152 C   0  0  0  0  0  0  0  0  0  0  0  0
    6.2377  -11.8040   27.0180 C   0  0  0  0  0  0  0  0  0  0  0  0
    6.9320  -11.4135   25.8990 C   0  0  0  0  0  0  0  0  0  0  0  0
    7.3637  -12.3544   25.0147 C   0  0  0  0  0  0  0  0  0  0  0  0
    9.4872  -15.8886   25.2980 O   0  0  0  0  0  0  0  0  0  0  0  0
    9.5324  -17.1711   25.1082 N   0  0  0  0  0  0  0  0  0  0  0  0
    9.8904  -15.4209   26.5610 C   0  0  0  0  0  0  0  0  0  0  0  0
    9.4175  -14.2136   27.1797 C   0  0  0  0  0  0  0  0  0  0  0  0
   10.6043  -13.7225   27.9516 C   0  0  0  0  0  0  0  0  0  0  0  0
   11.5903  -14.8690   28.0021 C   0  0  1  0  0  0  0  0  0  0  0  0
   10.7939  -16.0389   27.4651 C   0  0  0  0  0  0  0  0  0  0  0  0
   10.0449  -16.6508   28.6403 O   0  0  0  0  0  0  0  0  0  0  0  0
   10.7539  -17.3714   29.5855 O   0  0  0  0  0  0  0  0  0  0  0  0
  1  2  1  0
  2  3  2  0
  4  2  1  0
  4  5  1  0
  6  5  1  0
  7  8  1  0
  7  6  1  0
  8  9  1  6
 10  8  1  0
 11 10  2  0
 12 10  1  0
 13 12  1  0
 13 14  1  1
 15 14  1  0
 16 15  2  0
 17 16  1  0
 18 17  2  0
 18 19  1  0
 19 20  2  0
 20 15  1  0
 21 13  1  0
 21 23  1  0
 22 21  2  0
 23 27  1  0
 24 23  1  0
 24 25  1  0
 25 26  1  0
 27 26  1  0
 27 28  1  1
 28 29  1  0
 30 28  2  0
M  END
$$$$
