RFP.pdb
     RDKit          3D

 30 31  0  0  1  0  0  0  0  0999 V2000
    7.3978  -15.0923   17.2744 N   0  0  0  0  0  0  0  0  0  0  0  0
    8.4264  -14.3824   16.5948 C   0  0  0  0  0  0  0  0  0  0  0  0
    8.1774  -14.0104   15.3859 N   0  0  0  0  0  0  0  0  0  0  0  0
    9.6742  -14.0924   17.2115 N   0  0  0  0  0  0  0  0  0  0  0  0
   10.2009  -14.9783   18.2061 C   0  0  0  0  0  0  0  0  0  0  0  0
    9.5550  -14.6787   19.5123 C   0  0  0  0  0  0  0  0  0  0  0  0
   10.5641  -14.6589   20.6178 C   0  0  0  0  0  0  0  0  0  0  0  0
   10.2856  -15.7446   21.6042 C   0  0  2  0  0  0  0  0  0  0  0  0
    8.9992  -16.3727   21.3697 N   0  0  0  0  0  0  0  0  0  0  0  0
   10.2656  -15.2069   23.0092 C   0  0  0  0  0  0  0  0  0  0  0  0
   11.2131  -14.4919   23.3816 O   0  0  0  0  0  0  0  0  0  0  0  0
    8.8601  -13.4649   14.8321 N   0  0  0  0  0  0  0  0  0  0  0  0
    9.2185  -15.4807   23.9184 C   0  0  1  0  0  0  0  0  0  0  0  0
    9.2964  -14.9991   25.3408 C   0  0  0  0  0  0  0  0  0  0  0  0
    7.8601  -14.7803   25.6753 C   0  0  0  0  0  0  0  0  0  0  0  0
    7.3744  -13.4790   26.0262 C   0  0  0  0  0  0  0  0  0  0  0  0
    6.1109  -13.0599   25.6738 C   0  0  0  0  0  0  0  0  0  0  0  0
    5.6579  -11.7765   26.0036 C   0  0  0  0  0  0  0  0  0  0  0  0
    6.4681  -10.8992   26.6915 C   0  0  0  0  0  0  0  0  0  0  0  0
    7.7304  -11.3059   27.0494 C   0  0  0  0  0  0  0  0  0  0  0  0
    8.1511  -12.5578   26.7187 C   0  0  0  0  0  0  0  0  0  0  0  0
    9.9562  -16.0787   26.0782 O   0  0  0  0  0  0  0  0  0  0  0  0
   10.3176  -17.0976   25.3611 N   0  0  0  0  0  0  0  0  0  0  0  0
   10.2470  -16.1364   27.4524 C   0  0  0  0  0  0  0  0  0  0  0  0
    9.6195  -15.3270   28.4599 C   0  0  0  0  0  0  0  0  0  0  0  0
   10.7093  -15.1023   29.4635 C   0  0  0  0  0  0  0  0  0  0  0  0
   11.8082  -16.0892   29.1351 C   0  0  1  0  0  0  0  0  0  0  0  0
   11.1672  -16.9968   28.1073 C   0  0  0  0  0  0  0  0  0  0  0  0
   10.4325  -18.0909   28.8686 O   0  0  0  0  0  0  0  0  0  0  0  0
   11.1633  -19.1223   29.4320 O   0  0  0  0  0  0  0  0  0  0  0  0
  1  2  1  0
  2  3  2  0
  4  2  1  0
  4  5  1  0
  6  5  1  0
  7  8  1  0
  7  6  1  0
  8  9  1  6
 10  8  1  0
 11 10  2  0
 12 10  1  0
 13 12  1  0
 13 14  1  1
 15 14  1  0
 16 15  2  0
 17 16  1  0
 18 17  2  0
 18 19  1  0
 19 20  2  0
 20 15  1  0
 21 13  1  0
 21 23  1  0
 22 21  2  0
 23 27  1  0
 24 23  1  0
 24 25  1  0
 25 26  1  0
 27 26  1  0
 27 28  1  1
 28 29  1  0
 30 28  2  0
M  END
$$$$
