RFP.pdb
     RDKit          3D

 30 31  0  0  1  0  0  0  0  0999 V2000
    9.6615  -14.5592   15.7421 N   0  0  0  0  0  0  0  0  0  0  0  0
    8.5673  -13.6850   15.9922 C   0  0  0  0  0  0  0  0  0  0  0  0
    7.8531  -13.3394   14.9761 N   0  0  0  0  0  0  0  0  0  0  0  0
    8.2681  -13.2089   17.2980 N   0  0  0  0  0  0  0  0  0  0  0  0
    8.9684  -13.7405   18.4286 C   0  0  0  0  0  0  0  0  0  0  0  0
    8.9655  -15.2259   18.3455 C   0  0  0  0  0  0  0  0  0  0  0  0
    9.8827  -15.8222   19.3672 C   0  0  0  0  0  0  0  0  0  0  0  0
    9.1010  -16.4612   20.4672 C   0  0  2  0  0  0  0  0  0  0  0  0
    7.7216  -16.6971   20.0853 N   0  0  0  0  0  0  0  0  0  0  0  0
    9.0776  -15.5879   21.6920 C   0  0  0  0  0  0  0  0  0  0  0  0
    9.0728  -14.3535   21.5374 O   0  0  0  0  0  0  0  0  0  0  0  0
    7.0962  -12.6385   15.0554 N   0  0  0  0  0  0  0  0  0  0  0  0
    9.0611  -16.1115   23.0050 C   0  0  1  0  0  0  0  0  0  0  0  0
    9.0315  -15.1915   24.1940 C   0  0  0  0  0  0  0  0  0  0  0  0
    7.5895  -14.8200   24.2654 C   0  0  0  0  0  0  0  0  0  0  0  0
    7.1357  -13.7917   25.1538 C   0  0  0  0  0  0  0  0  0  0  0  0
    7.5287  -12.4807   25.0027 C   0  0  0  0  0  0  0  0  0  0  0  0
    7.0955  -11.4900   25.8926 C   0  0  0  0  0  0  0  0  0  0  0  0
    6.2622  -11.8042   26.9443 C   0  0  0  0  0  0  0  0  0  0  0  0
    5.8625  -13.1085   27.1052 C   0  0  0  0  0  0  0  0  0  0  0  0
    6.2955  -14.0561   26.2288 C   0  0  0  0  0  0  0  0  0  0  0  0
    9.5306  -15.9922   25.3140 O   0  0  0  0  0  0  0  0  0  0  0  0
    9.8480  -17.2155   25.0210 N   0  0  0  0  0  0  0  0  0  0  0  0
    9.7109  -15.5940   26.6501 C   0  0  0  0  0  0  0  0  0  0  0  0
    8.9999  -14.5229   27.2915 C   0  0  0  0  0  0  0  0  0  0  0  0
   10.0046  -13.9518   28.2454 C   0  0  0  0  0  0  0  0  0  0  0  0
   11.1322  -14.9566   28.3368 C   0  0  1  0  0  0  0  0  0  0  0  0
   10.5809  -16.1672   27.6146 C   0  0  0  0  0  0  0  0  0  0  0  0
    9.7944  -16.9796   28.6334 O   0  0  0  0  0  0  0  0  0  0  0  0
   10.4822  -17.6665   29.6184 O   0  0  0  0  0  0  0  0  0  0  0  0
  1  2  1  0
  2  3  2  0
  4  2  1  0
  4  5  1  0
  6  5  1  0
  7  8  1  0
  7  6  1  0
  8  9  1  6
 10  8  1  0
 11 10  2  0
 12 10  1  0
 13 12  1  0
 13 14  1  1
 15 14  1  0
 16 15  2  0
 17 16  1  0
 18 17  2  0
 18 19  1  0
 19 20  2  0
 20 15  1  0
 21 13  1  0
 21 23  1  0
 22 21  2  0
 23 27  1  0
 24 23  1  0
 24 25  1  0
 25 26  1  0
 27 26  1  0
 27 28  1  1
 28 29  1  0
 30 28  2  0
M  END
$$$$
