RFP.pdb
     RDKit          3D

 30 31  0  0  1  0  0  0  0  0999 V2000
   14.0716  -20.0625   18.4955 N   0  0  0  0  0  0  0  0  0  0  0  0
   13.2938  -19.8729   17.3195 C   0  0  0  0  0  0  0  0  0  0  0  0
   13.4378  -20.7424   16.3787 N   0  0  0  0  0  0  0  0  0  0  0  0
   12.3974  -18.7782   17.1788 N   0  0  0  0  0  0  0  0  0  0  0  0
   12.3226  -17.7816   18.2046 C   0  0  0  0  0  0  0  0  0  0  0  0
   11.0542  -17.9598   18.9614 C   0  0  0  0  0  0  0  0  0  0  0  0
   10.8660  -16.8603   19.9596 C   0  0  0  0  0  0  0  0  0  0  0  0
   10.4290  -17.4135   21.2759 C   0  0  2  0  0  0  0  0  0  0  0  0
    9.1348  -18.0629   21.1878 N   0  0  0  0  0  0  0  0  0  0  0  0
   10.3082  -16.3247   22.3070 C   0  0  0  0  0  0  0  0  0  0  0  0
   11.2989  -15.6043   22.5242 O   0  0  0  0  0  0  0  0  0  0  0  0
   12.8709  -20.7083   15.5139 N   0  0  0  0  0  0  0  0  0  0  0  0
    9.1199  -16.0891   23.0354 C   0  0  1  0  0  0  0  0  0  0  0  0
    9.1017  -15.1008   24.1687 C   0  0  0  0  0  0  0  0  0  0  0  0
    7.6777  -14.6596   24.1752 C   0  0  0  0  0  0  0  0  0  0  0  0
    7.2302  -13.6245   25.0589 C   0  0  0  0  0  0  0  0  0  0  0  0
    7.6063  -12.3116   24.8832 C   0  0  0  0  0  0  0  0  0  0  0  0
    7.1798  -11.3138   25.7685 C   0  0  0  0  0  0  0  0  0  0  0  0
    6.3703  -11.6228   26.8401 C   0  0  0  0  0  0  0  0  0  0  0  0
    5.9877  -12.9289   27.0256 C   0  0  0  0  0  0  0  0  0  0  0  0
    6.4138  -13.8834   26.1533 C   0  0  0  0  0  0  0  0  0  0  0  0
    9.5310  -15.8571   25.3470 O   0  0  0  0  0  0  0  0  0  0  0  0
    9.6414  -17.1378   25.1720 N   0  0  0  0  0  0  0  0  0  0  0  0
    9.8408  -15.3638   26.6265 C   0  0  0  0  0  0  0  0  0  0  0  0
    9.3141  -14.1515   27.1896 C   0  0  0  0  0  0  0  0  0  0  0  0
   10.4394  -13.6346   28.0332 C   0  0  0  0  0  0  0  0  0  0  0  0
   11.4307  -14.7692   28.1723 C   0  0  1  0  0  0  0  0  0  0  0  0
   10.6851  -15.9565   27.6019 C   0  0  0  0  0  0  0  0  0  0  0  0
    9.8621  -16.5568   28.7328 O   0  0  0  0  0  0  0  0  0  0  0  0
   10.5135  -17.2256   29.7544 O   0  0  0  0  0  0  0  0  0  0  0  0
  1  2  1  0
  2  3  2  0
  4  2  1  0
  4  5  1  0
  6  5  1  0
  7  8  1  0
  7  6  1  0
  8  9  1  6
 10  8  1  0
 11 10  2  0
 12 10  1  0
 13 12  1  0
 13 14  1  6
 15 14  1  0
 16 15  2  0
 17 16  1  0
 18 17  2  0
 18 19  1  0
 19 20  2  0
 20 15  1  0
 21 13  1  0
 21 23  1  0
 22 21  2  0
 23 27  1  0
 24 23  1  0
 24 25  1  0
 25 26  1  0
 27 26  1  0
 27 28  1  1
 28 29  1  0
 30 28  2  0
M  END
$$$$
