RFP.pdb
     RDKit          3D

 30 31  0  0  1  0  0  0  0  0999 V2000
   10.0996  -21.2589   23.6173 N   0  0  0  0  0  0  0  0  0  0  0  0
   10.7867  -21.9083   22.5543 C   0  0  0  0  0  0  0  0  0  0  0  0
   11.0847  -23.1508   22.7257 N   0  0  0  0  0  0  0  0  0  0  0  0
   11.1336  -21.2272   21.3555 N   0  0  0  0  0  0  0  0  0  0  0  0
   10.9074  -19.8172   21.2456 C   0  0  0  0  0  0  0  0  0  0  0  0
   12.1621  -19.1594   20.7917 C   0  0  0  0  0  0  0  0  0  0  0  0
   12.0170  -17.6695   20.7910 C   0  0  0  0  0  0  0  0  0  0  0  0
   10.5830  -17.2803   20.9376 C   0  0  2  0  0  0  0  0  0  0  0  0
   10.0502  -16.7051   19.7171 N   0  0  0  0  0  0  0  0  0  0  0  0
   10.4095  -16.2530   22.0230 C   0  0  0  0  0  0  0  0  0  0  0  0
   11.1855  -15.2809   22.0458 O   0  0  0  0  0  0  0  0  0  0  0  0
   11.5645  -23.7021   21.9934 N   0  0  0  0  0  0  0  0  0  0  0  0
    9.4051  -16.3481   23.0131 C   0  0  2  0  0  0  0  0  0  0  0  0
    9.3216  -15.3302   24.1168 C   0  0  0  0  0  0  0  0  0  0  0  0
    7.8911  -14.9156   24.0513 C   0  0  0  0  0  0  0  0  0  0  0  0
    7.3890  -13.8640   24.8848 C   0  0  0  0  0  0  0  0  0  0  0  0
    7.6687  -12.5407   24.6262 C   0  0  0  0  0  0  0  0  0  0  0  0
    7.1903  -11.5248   25.4628 C   0  0  0  0  0  0  0  0  0  0  0  0
    6.4248  -11.8258   26.5686 C   0  0  0  0  0  0  0  0  0  0  0  0
    6.1381  -13.1421   26.8367 C   0  0  0  0  0  0  0  0  0  0  0  0
    6.6134  -14.1143   26.0105 C   0  0  0  0  0  0  0  0  0  0  0  0
    9.7136  -16.0463   25.3326 O   0  0  0  0  0  0  0  0  0  0  0  0
    9.9217  -17.3179   25.1826 N   0  0  0  0  0  0  0  0  0  0  0  0
    9.8959  -15.5229   26.6246 C   0  0  0  0  0  0  0  0  0  0  0  0
    9.3031  -14.3077   27.1102 C   0  0  0  0  0  0  0  0  0  0  0  0
   10.3377  -13.7572   28.0439 C   0  0  0  0  0  0  0  0  0  0  0  0
   11.3264  -14.8737   28.2988 C   0  0  1  0  0  0  0  0  0  0  0  0
   10.6531  -16.0833   27.6868 C   0  0  0  0  0  0  0  0  0  0  0  0
    9.7359  -16.6732   28.7486 O   0  0  0  0  0  0  0  0  0  0  0  0
   10.2918  -17.4038   29.7842 O   0  0  0  0  0  0  0  0  0  0  0  0
  1  2  1  0
  2  3  2  0
  4  2  1  0
  4  5  1  0
  6  5  1  0
  7  8  1  0
  7  6  1  0
  8  9  1  6
 10  8  1  0
 11 10  2  0
 12 10  1  0
 13 12  1  0
 13 14  1  6
 15 14  1  0
 16 15  2  0
 17 16  1  0
 18 17  2  0
 18 19  1  0
 19 20  2  0
 20 15  1  0
 21 13  1  0
 21 23  1  0
 22 21  2  0
 23 27  1  0
 24 23  1  0
 24 25  1  0
 25 26  1  0
 27 26  1  0
 27 28  1  1
 28 29  1  0
 30 28  2  0
M  END
$$$$
