RFP.pdb
     RDKit          3D

 30 31  0  0  1  0  0  0  0  0999 V2000
    8.0829  -13.3674   19.2047 N   0  0  0  0  0  0  0  0  0  0  0  0
    8.7201  -13.8144   18.0139 C   0  0  0  0  0  0  0  0  0  0  0  0
    9.0632  -12.9101   17.1615 N   0  0  0  0  0  0  0  0  0  0  0  0
    8.9704  -15.1918   17.7660 N   0  0  0  0  0  0  0  0  0  0  0  0
    8.4348  -16.1840   18.6493 C   0  0  0  0  0  0  0  0  0  0  0  0
    9.4351  -17.2720   18.8190 C   0  0  0  0  0  0  0  0  0  0  0  0
   10.5616  -16.8325   19.7013 C   0  0  0  0  0  0  0  0  0  0  0  0
   10.4002  -17.3887   21.0775 C   0  0  2  0  0  0  0  0  0  0  0  0
    9.2480  -18.2646   21.1761 N   0  0  0  0  0  0  0  0  0  0  0  0
   10.2074  -16.2893   22.0862 C   0  0  0  0  0  0  0  0  0  0  0  0
   11.0572  -15.3824   22.1412 O   0  0  0  0  0  0  0  0  0  0  0  0
    9.4272  -13.1548   16.2245 N   0  0  0  0  0  0  0  0  0  0  0  0
    9.1047  -16.2461   22.9697 C   0  0  1  0  0  0  0  0  0  0  0  0
    9.0580  -15.2379   24.0844 C   0  0  0  0  0  0  0  0  0  0  0  0
    7.6152  -14.8631   24.1059 C   0  0  0  0  0  0  0  0  0  0  0  0
    7.1224  -13.8785   25.0225 C   0  0  0  0  0  0  0  0  0  0  0  0
    6.4412  -14.2322   26.1658 C   0  0  0  0  0  0  0  0  0  0  0  0
    5.9451  -13.2580   27.0410 C   0  0  0  0  0  0  0  0  0  0  0  0
    6.1278  -11.9175   26.7788 C   0  0  0  0  0  0  0  0  0  0  0  0
    6.8066  -11.5520   25.6418 C   0  0  0  0  0  0  0  0  0  0  0  0
    7.2803  -12.5152   24.8043 C   0  0  0  0  0  0  0  0  0  0  0  0
    9.5401  -15.9504   25.2695 O   0  0  0  0  0  0  0  0  0  0  0  0
    9.9117  -17.1763   25.0646 N   0  0  0  0  0  0  0  0  0  0  0  0
    9.6533  -15.4658   26.5843 C   0  0  0  0  0  0  0  0  0  0  0  0
    8.8877  -14.3785   27.1282 C   0  0  0  0  0  0  0  0  0  0  0  0
    9.8358  -13.7210   28.0843 C   0  0  0  0  0  0  0  0  0  0  0  0
   10.9848  -14.6850   28.2838 C   0  0  1  0  0  0  0  0  0  0  0  0
   10.4969  -15.9532   27.6171 C   0  0  0  0  0  0  0  0  0  0  0  0
    9.6899  -16.7241   28.6520 O   0  0  0  0  0  0  0  0  0  0  0  0
   10.3568  -17.3589   29.6853 O   0  0  0  0  0  0  0  0  0  0  0  0
  1  2  1  0
  2  3  2  0
  4  2  1  0
  4  5  1  0
  6  5  1  0
  7  8  1  0
  7  6  1  0
  8  9  1  6
 10  8  1  0
 11 10  2  0
 12 10  1  0
 13 12  1  0
 13 14  1  1
 15 14  1  0
 16 15  2  0
 17 16  1  0
 18 17  2  0
 18 19  1  0
 19 20  2  0
 20 15  1  0
 21 13  1  0
 21 23  1  0
 22 21  2  0
 23 27  1  0
 24 23  1  0
 24 25  1  0
 25 26  1  0
 27 26  1  0
 27 28  1  1
 28 29  1  0
 30 28  2  0
M  END
$$$$
