RFP.pdb
     RDKit          3D

 30 31  0  0  1  0  0  0  0  0999 V2000
    9.0329  -14.4332   18.4588 N   0  0  0  0  0  0  0  0  0  0  0  0
    8.1843  -15.5733   18.3964 C   0  0  0  0  0  0  0  0  0  0  0  0
    7.0201  -15.4054   17.8686 N   0  0  0  0  0  0  0  0  0  0  0  0
    8.5917  -16.8425   18.8910 N   0  0  0  0  0  0  0  0  0  0  0  0
    7.6583  -17.9283   18.9229 C   0  0  0  0  0  0  0  0  0  0  0  0
    7.1441  -18.0842   20.3102 C   0  0  0  0  0  0  0  0  0  0  0  0
    5.7275  -18.5678   20.3062 C   0  0  0  0  0  0  0  0  0  0  0  0
    5.2054  -18.6794   21.7007 C   0  0  2  0  0  0  0  0  0  0  0  0
    3.7789  -18.9414   21.7257 N   0  0  0  0  0  0  0  0  0  0  0  0
    5.4346  -17.4057   22.4676 C   0  0  0  0  0  0  0  0  0  0  0  0
    4.8207  -16.3836   22.1125 O   0  0  0  0  0  0  0  0  0  0  0  0
    6.3539  -16.1892   17.7581 N   0  0  0  0  0  0  0  0  0  0  0  0
    6.3157  -17.3243   23.5701 C   0  0  1  0  0  0  0  0  0  0  0  0
    6.6939  -15.9889   24.1489 C   0  0  0  0  0  0  0  0  0  0  0  0
    6.9496  -16.3292   25.5777 C   0  0  0  0  0  0  0  0  0  0  0  0
    7.5548  -15.3809   26.4649 C   0  0  0  0  0  0  0  0  0  0  0  0
    8.8708  -15.4932   26.8543 C   0  0  0  0  0  0  0  0  0  0  0  0
    9.4425  -14.5718   27.7404 C   0  0  0  0  0  0  0  0  0  0  0  0
    8.6996  -13.5265   28.2452 C   0  0  0  0  0  0  0  0  0  0  0  0
    7.3859  -13.4032   27.8635 C   0  0  0  0  0  0  0  0  0  0  0  0
    6.8496  -14.3102   27.0012 C   0  0  0  0  0  0  0  0  0  0  0  0
    7.8666  -15.5560   23.3861 O   0  0  0  0  0  0  0  0  0  0  0  0
    8.5499  -16.5102   22.8334 N   0  0  0  0  0  0  0  0  0  0  0  0
    8.3284  -14.2444   23.1788 C   0  0  0  0  0  0  0  0  0  0  0  0
    7.9164  -13.0981   23.9406 C   0  0  0  0  0  0  0  0  0  0  0  0
    7.9411  -11.9814   22.9418 C   0  0  0  0  0  0  0  0  0  0  0  0
    8.7003  -12.4958   21.7383 C   0  0  1  0  0  0  0  0  0  0  0  0
    9.2850  -13.8036   22.2269 C   0  0  0  0  0  0  0  0  0  0  0  0
   10.6087  -13.4795   22.9046 O   0  0  0  0  0  0  0  0  0  0  0  0
   11.7127  -13.1969   22.1194 O   0  0  0  0  0  0  0  0  0  0  0  0
  1  2  1  0
  2  3  2  0
  4  2  1  0
  4  5  1  0
  6  5  1  0
  7  8  1  0
  7  6  1  0
  8  9  1  6
 10  8  1  0
 11 10  2  0
 12 10  1  0
 13 12  1  0
 13 14  1  6
 15 14  1  0
 16 15  2  0
 17 16  1  0
 18 17  2  0
 18 19  1  0
 19 20  2  0
 20 15  1  0
 21 13  1  0
 21 23  1  0
 22 21  2  0
 23 27  1  0
 24 23  1  0
 24 25  1  0
 25 26  1  0
 27 26  1  0
 27 28  1  1
 28 29  1  0
 30 28  2  0
M  END
$$$$
