GIM.pdb
     RDKit          3D

 21 20  0  0  1  0  0  0  0  0999 V2000
    5.9295  -19.5552   22.8472 N   0  0  0  0  0  0  0  0  0  0  0  0
    5.9491  -18.6194   23.9440 C   0  0  0  0  0  0  0  0  0  0  0  0
    6.9322  -17.5547   23.6559 C   0  0  0  0  0  0  0  0  0  0  0  0
    7.7409  -17.6807   22.7101 O   0  0  0  0  0  0  0  0  0  0  0  0
    6.7863  -12.3829   26.2805 C   0  0  0  0  0  0  0  0  0  0  0  0
    7.0827  -13.7710   25.8490 C   0  0  0  0  0  0  0  0  0  0  0  0
    7.5256  -13.9686   24.4477 C   0  0  2  0  0  0  0  0  0  0  0  0
    6.5896  -13.3779   23.4252 C   0  0  0  0  0  0  0  0  0  0  0  0
    7.9592  -15.3433   24.1054 C   0  0  2  0  0  0  0  0  0  0  0  0
    6.9973  -16.3610   24.4314 N   0  0  0  0  0  0  0  0  0  0  0  0
    9.2978  -15.6827   24.7074 C   0  0  0  0  0  0  0  0  0  0  0  0
   10.2984  -14.9727   24.5287 O   0  0  0  0  0  0  0  0  0  0  0  0
    9.9759  -13.2338   29.2658 C   0  0  0  0  0  0  0  0  0  0  0  0
   10.9798  -14.5700   29.9183 S   0  0  0  0  0  0  0  0  0  0  0  0
   11.1456  -15.9588   28.7623 C   0  0  0  0  0  0  0  0  0  0  0  0
   10.2513  -15.8319   27.5776 C   0  0  0  0  0  0  0  0  0  0  0  0
   10.3980  -16.9496   26.6091 C   0  0  2  0  0  0  0  0  0  0  0  0
    9.4439  -16.8475   25.5086 N   0  0  0  0  0  0  0  0  0  0  0  0
   10.3885  -18.3083   27.1945 C   0  0  0  0  0  0  0  0  0  0  0  0
   11.2827  -18.7965   27.9055 O   0  0  0  0  0  0  0  0  0  0  0  0
    9.2531  -19.1028   26.9063 O   0  0  0  0  0  0  0  0  0  0  0  0
  2  1  1  0
  2  3  1  0
  3 10  1  0
  4  3  2  0
  6  5  1  0
  7  6  1  0
  7  8  1  6
  9  7  1  0
  9 10  1  1
 11 18  1  0
 11  9  1  0
 12 11  2  0
 14 13  1  0
 15 14  1  0
 16 15  1  0
 17 16  1  1
 17 18  1  0
 19 17  1  0
 20 19  2  0
 21 19  1  0
M  END
$$$$
