GIM.pdb
     RDKit          3D

 21 20  0  0  1  0  0  0  0  0999 V2000
   11.6655  -16.1812   17.7850 N   0  0  0  0  0  0  0  0  0  0  0  0
   10.4335  -16.2837   18.5272 C   0  0  0  0  0  0  0  0  0  0  0  0
   10.5766  -15.5601   19.8074 C   0  0  0  0  0  0  0  0  0  0  0  0
   11.2719  -14.5224   19.8722 O   0  0  0  0  0  0  0  0  0  0  0  0
    8.2816  -12.4828   19.9226 C   0  0  0  0  0  0  0  0  0  0  0  0
    8.1295  -13.9298   19.6326 C   0  0  0  0  0  0  0  0  0  0  0  0
    7.8070  -14.8223   20.7720 C   0  0  2  0  0  0  0  0  0  0  0  0
    6.5900  -14.3970   21.5520 C   0  0  0  0  0  0  0  0  0  0  0  0
    8.9512  -15.1829   21.6413 C   0  0  2  0  0  0  0  0  0  0  0  0
    9.9388  -16.0083   21.0003 N   0  0  0  0  0  0  0  0  0  0  0  0
    8.5050  -15.8164   22.9331 C   0  0  0  0  0  0  0  0  0  0  0  0
    8.2079  -17.0178   23.0084 O   0  0  0  0  0  0  0  0  0  0  0  0
    7.3330  -11.0468   27.2561 C   0  0  0  0  0  0  0  0  0  0  0  0
    6.7100  -12.3097   26.1444 S   0  0  0  0  0  0  0  0  0  0  0  0
    6.9062  -13.9895   26.8021 C   0  0  0  0  0  0  0  0  0  0  0  0
    8.2461  -14.5703   26.5079 C   0  0  0  0  0  0  0  0  0  0  0  0
    8.2154  -15.6076   25.4441 C   0  0  2  0  0  0  0  0  0  0  0  0
    8.4137  -15.0339   24.1161 N   0  0  0  0  0  0  0  0  0  0  0  0
    7.0418  -16.5080   25.4626 C   0  0  0  0  0  0  0  0  0  0  0  0
    6.0282  -16.3910   24.7538 O   0  0  0  0  0  0  0  0  0  0  0  0
    7.1005  -17.5894   26.3742 O   0  0  0  0  0  0  0  0  0  0  0  0
  2  1  1  0
  2  3  1  0
  3 10  1  0
  4  3  2  0
  6  5  1  0
  7  6  1  0
  7  8  1  1
  9  7  1  0
  9 10  1  6
 11 18  1  0
 11  9  1  0
 12 11  2  0
 14 13  1  0
 15 14  1  0
 16 15  1  0
 17 16  1  1
 17 18  1  0
 19 17  1  0
 20 19  2  0
 21 19  1  0
M  END
$$$$
