GIM.pdb
     RDKit          3D

 21 20  0  0  1  0  0  0  0  0999 V2000
    6.4454  -19.4381   19.6910 N   0  0  0  0  0  0  0  0  0  0  0  0
    6.0335  -18.4081   20.6121 C   0  0  0  0  0  0  0  0  0  0  0  0
    7.1309  -17.4316   20.7705 C   0  0  0  0  0  0  0  0  0  0  0  0
    8.2649  -17.6741   20.3017 O   0  0  0  0  0  0  0  0  0  0  0  0
    6.7689  -12.2221   19.5312 C   0  0  0  0  0  0  0  0  0  0  0  0
    7.3580  -13.5484   19.8390 C   0  0  0  0  0  0  0  0  0  0  0  0
    7.6423  -13.8534   21.2620 C   0  0  2  0  0  0  0  0  0  0  0  0
    8.5452  -12.8492   21.9304 C   0  0  0  0  0  0  0  0  0  0  0  0
    8.0289  -15.2550   21.5473 C   0  0  2  0  0  0  0  0  0  0  0  0
    6.9445  -16.1943   21.4525 N   0  0  0  0  0  0  0  0  0  0  0  0
    8.7203  -15.3934   22.8785 C   0  0  0  0  0  0  0  0  0  0  0  0
    9.7183  -14.7199   23.1744 O   0  0  0  0  0  0  0  0  0  0  0  0
    6.1981  -11.4494   26.5302 C   0  0  0  0  0  0  0  0  0  0  0  0
    7.3971  -12.6183   27.1745 S   0  0  0  0  0  0  0  0  0  0  0  0
    6.9706  -14.3432   26.8066 C   0  0  0  0  0  0  0  0  0  0  0  0
    7.2348  -14.7117   25.3875 C   0  0  0  0  0  0  0  0  0  0  0  0
    8.0080  -15.9725   25.2427 C   0  0  2  0  0  0  0  0  0  0  0  0
    8.2327  -16.3176   23.8418 N   0  0  0  0  0  0  0  0  0  0  0  0
    7.4860  -17.1331   25.9973 C   0  0  0  0  0  0  0  0  0  0  0  0
    7.4547  -17.2372   27.2349 O   0  0  0  0  0  0  0  0  0  0  0  0
    6.9839  -18.2056   25.2219 O   0  0  0  0  0  0  0  0  0  0  0  0
  2  1  1  0
  2  3  1  0
  3 10  1  0
  4  3  2  0
  6  5  1  0
  7  6  1  0
  7  8  1  6
  9  7  1  0
  9 10  1  1
 11 18  1  0
 11  9  1  0
 12 11  2  0
 14 13  1  0
 15 14  1  0
 16 15  1  0
 17 16  1  6
 17 18  1  0
 19 17  1  0
 20 19  2  0
 21 19  1  0
M  END
$$$$
