GIM.pdb
     RDKit          3D

 21 20  0  0  1  0  0  0  0  0999 V2000
    5.5616  -19.1988   23.7766 N   0  0  0  0  0  0  0  0  0  0  0  0
    6.0462  -18.4740   24.9250 C   0  0  0  0  0  0  0  0  0  0  0  0
    6.7375  -17.2501   24.4701 C   0  0  0  0  0  0  0  0  0  0  0  0
    7.1866  -17.1741   23.3051 O   0  0  0  0  0  0  0  0  0  0  0  0
    5.4660  -12.4997   26.6445 C   0  0  0  0  0  0  0  0  0  0  0  0
    5.9115  -13.4710   25.6154 C   0  0  0  0  0  0  0  0  0  0  0  0
    7.3684  -13.7235   25.5028 C   0  0  2  0  0  0  0  0  0  0  0  0
    8.1425  -12.5684   24.9223 C   0  0  0  0  0  0  0  0  0  0  0  0
    7.7439  -15.0264   24.9058 C   0  0  2  0  0  0  0  0  0  0  0  0
    6.9175  -16.1253   25.3263 N   0  0  0  0  0  0  0  0  0  0  0  0
    9.1970  -15.3551   25.1288 C   0  0  0  0  0  0  0  0  0  0  0  0
   10.0665  -14.4745   25.2045 O   0  0  0  0  0  0  0  0  0  0  0  0
   10.4585  -12.9268   28.1586 C   0  0  0  0  0  0  0  0  0  0  0  0
   10.9485  -14.4317   29.0037 S   0  0  0  0  0  0  0  0  0  0  0  0
   11.6356  -15.6809   27.8810 C   0  0  0  0  0  0  0  0  0  0  0  0
   10.6328  -16.7058   27.4769 C   0  0  0  0  0  0  0  0  0  0  0  0
   10.7605  -17.1236   26.0564 C   0  0  2  0  0  0  0  0  0  0  0  0
    9.6093  -16.7090   25.2597 N   0  0  0  0  0  0  0  0  0  0  0  0
   11.0705  -18.5533   25.8358 C   0  0  0  0  0  0  0  0  0  0  0  0
   10.3497  -19.3657   25.2326 O   0  0  0  0  0  0  0  0  0  0  0  0
   12.2996  -19.0133   26.3662 O   0  0  0  0  0  0  0  0  0  0  0  0
  2  1  1  0
  2  3  1  0
  3 10  1  0
  4  3  2  0
  6  5  1  0
  7  6  1  0
  7  8  1  6
  9  7  1  0
  9 10  1  1
 11 18  1  0
 11  9  1  0
 12 11  2  0
 14 13  1  0
 15 14  1  0
 16 15  1  0
 17 16  1  1
 17 18  1  0
 19 17  1  0
 20 19  2  0
 21 19  1  0
M  END
$$$$
