GIM.pdb
     RDKit          3D

 21 20  0  0  1  0  0  0  0  0999 V2000
    5.3441  -19.7772   23.1027 N   0  0  0  0  0  0  0  0  0  0  0  0
    5.6110  -18.5501   23.8113 C   0  0  0  0  0  0  0  0  0  0  0  0
    6.7646  -17.8703   23.1867 C   0  0  0  0  0  0  0  0  0  0  0  0
    7.5293  -18.4979   22.4213 O   0  0  0  0  0  0  0  0  0  0  0  0
    6.7234  -12.9946   20.7801 C   0  0  0  0  0  0  0  0  0  0  0  0
    7.0431  -14.3689   21.2383 C   0  0  0  0  0  0  0  0  0  0  0  0
    8.0029  -14.5067   22.3601 C   0  0  2  0  0  0  0  0  0  0  0  0
    9.2911  -13.7527   22.1541 C   0  0  0  0  0  0  0  0  0  0  0  0
    8.2164  -15.8890   22.8487 C   0  0  2  0  0  0  0  0  0  0  0  0
    7.0478  -16.4946   23.4274 N   0  0  0  0  0  0  0  0  0  0  0  0
    9.3759  -15.9799   23.8061 C   0  0  0  0  0  0  0  0  0  0  0  0
   10.3343  -15.1950   23.7548 O   0  0  0  0  0  0  0  0  0  0  0  0
    9.8911  -12.4552   27.9986 C   0  0  0  0  0  0  0  0  0  0  0  0
    9.8421  -13.9459   28.9959 S   0  0  0  0  0  0  0  0  0  0  0  0
   10.4022  -15.4178   28.0945 C   0  0  0  0  0  0  0  0  0  0  0  0
    9.6913  -15.6049   26.7988 C   0  0  0  0  0  0  0  0  0  0  0  0
   10.0965  -16.8410   26.0801 C   0  0  2  0  0  0  0  0  0  0  0  0
    9.3952  -16.9878   24.8079 N   0  0  0  0  0  0  0  0  0  0  0  0
   10.0299  -18.0905   26.8694 C   0  0  0  0  0  0  0  0  0  0  0  0
    9.2359  -19.0266   26.6774 O   0  0  0  0  0  0  0  0  0  0  0  0
   10.9603  -18.2081   27.9297 O   0  0  0  0  0  0  0  0  0  0  0  0
  2  1  1  0
  2  3  1  0
  3 10  1  0
  4  3  2  0
  6  5  1  0
  7  6  1  0
  7  8  1  6
  9  7  1  0
  9 10  1  1
 11 18  1  0
 11  9  1  0
 12 11  2  0
 14 13  1  0
 15 14  1  0
 16 15  1  0
 17 16  1  1
 17 18  1  0
 19 17  1  0
 20 19  2  0
 21 19  1  0
M  END
$$$$
