GIM.pdb
     RDKit          3D

 21 20  0  0  1  0  0  0  0  0999 V2000
    8.2585  -20.2179   19.6688 N   0  0  0  0  0  0  0  0  0  0  0  0
    7.3356  -19.3468   20.3532 C   0  0  0  0  0  0  0  0  0  0  0  0
    8.0169  -18.0764   20.6773 C   0  0  0  0  0  0  0  0  0  0  0  0
    9.2653  -18.0267   20.7380 O   0  0  0  0  0  0  0  0  0  0  0  0
    7.8639  -11.9785   20.2121 C   0  0  0  0  0  0  0  0  0  0  0  0
    8.3905  -13.2653   20.7294 C   0  0  0  0  0  0  0  0  0  0  0  0
    7.5336  -14.4650   20.5701 C   0  0  2  0  0  0  0  0  0  0  0  0
    6.0639  -14.1917   20.7591 C   0  0  0  0  0  0  0  0  0  0  0  0
    7.9921  -15.6747   21.2923 C   0  0  2  0  0  0  0  0  0  0  0  0
    7.2910  -16.8764   20.9296 N   0  0  0  0  0  0  0  0  0  0  0  0
    7.9635  -15.4884   22.7869 C   0  0  0  0  0  0  0  0  0  0  0  0
    6.9291  -15.6524   23.4505 O   0  0  0  0  0  0  0  0  0  0  0  0
   10.0065  -12.7339   28.5114 C   0  0  0  0  0  0  0  0  0  0  0  0
    8.4553  -12.6939   27.6107 S   0  0  0  0  0  0  0  0  0  0  0  0
    7.9621  -14.3223   26.9800 C   0  0  0  0  0  0  0  0  0  0  0  0
    7.9648  -14.3885   25.4917 C   0  0  0  0  0  0  0  0  0  0  0  0
    9.2127  -14.9702   24.9324 C   0  0  2  0  0  0  0  0  0  0  0  0
    9.1457  -15.1133   23.4808 N   0  0  0  0  0  0  0  0  0  0  0  0
    9.6747  -16.2238   25.5677 C   0  0  0  0  0  0  0  0  0  0  0  0
    8.9465  -17.1632   25.9295 O   0  0  0  0  0  0  0  0  0  0  0  0
   11.0705  -16.3415   25.7713 O   0  0  0  0  0  0  0  0  0  0  0  0
  2  1  1  0
  2  3  1  0
  3 10  1  0
  4  3  2  0
  6  5  1  0
  7  6  1  0
  7  8  1  1
  9  7  1  0
  9 10  1  1
 11 18  1  0
 11  9  1  0
 12 11  2  0
 14 13  1  0
 15 14  1  0
 16 15  1  0
 17 16  1  1
 17 18  1  0
 19 17  1  0
 20 19  2  0
 21 19  1  0
M  END
$$$$
