GIM.pdb
     RDKit          3D

 21 20  0  0  1  0  0  0  0  0999 V2000
    7.5223  -19.8414   19.6326 N   0  0  0  0  0  0  0  0  0  0  0  0
    7.1965  -19.1610   20.8615 C   0  0  0  0  0  0  0  0  0  0  0  0
    8.1131  -18.0160   21.0399 C   0  0  0  0  0  0  0  0  0  0  0  0
    9.3440  -18.2046   21.1578 O   0  0  0  0  0  0  0  0  0  0  0  0
    7.5633  -11.9441   20.3886 C   0  0  0  0  0  0  0  0  0  0  0  0
    8.0493  -13.1331   21.1308 C   0  0  0  0  0  0  0  0  0  0  0  0
    8.1984  -14.3969   20.3695 C   0  0  2  0  0  0  0  0  0  0  0  0
    7.0637  -14.6699   19.4164 C   0  0  0  0  0  0  0  0  0  0  0  0
    8.5734  -15.5834   21.1735 C   0  0  2  0  0  0  0  0  0  0  0  0
    7.6393  -16.6728   21.0841 N   0  0  0  0  0  0  0  0  0  0  0  0
    8.8264  -15.2341   22.6169 C   0  0  0  0  0  0  0  0  0  0  0  0
    9.7774  -14.5180   22.9633 O   0  0  0  0  0  0  0  0  0  0  0  0
    7.6703  -11.1563   27.2788 C   0  0  0  0  0  0  0  0  0  0  0  0
    6.3353  -12.3112   26.9579 S   0  0  0  0  0  0  0  0  0  0  0  0
    6.9024  -14.0305   26.8351 C   0  0  0  0  0  0  0  0  0  0  0  0
    6.8155  -14.5680   25.4484 C   0  0  0  0  0  0  0  0  0  0  0  0
    8.0367  -15.3022   25.0260 C   0  0  2  0  0  0  0  0  0  0  0  0
    7.9626  -15.7285   23.6315 N   0  0  0  0  0  0  0  0  0  0  0  0
    8.4443  -16.4227   25.9018 C   0  0  0  0  0  0  0  0  0  0  0  0
    8.4520  -17.6238   25.5845 O   0  0  0  0  0  0  0  0  0  0  0  0
    8.8572  -16.0727   27.2097 O   0  0  0  0  0  0  0  0  0  0  0  0
  2  1  1  0
  2  3  1  0
  3 10  1  0
  4  3  2  0
  6  5  1  0
  7  6  1  0
  7  8  1  1
  9  7  1  0
  9 10  1  1
 11 18  1  0
 11  9  1  0
 12 11  2  0
 14 13  1  0
 15 14  1  0
 16 15  1  0
 17 16  1  1
 17 18  1  0
 19 17  1  0
 20 19  2  0
 21 19  1  0
M  END
$$$$
