GIM.pdb
     RDKit          3D

 21 20  0  0  1  0  0  0  0  0999 V2000
   12.2830  -17.4201   18.8652 N   0  0  0  0  0  0  0  0  0  0  0  0
   11.0209  -17.7656   19.4710 C   0  0  0  0  0  0  0  0  0  0  0  0
   10.6636  -16.7361   20.4686 C   0  0  0  0  0  0  0  0  0  0  0  0
   11.5579  -16.1293   21.0984 O   0  0  0  0  0  0  0  0  0  0  0  0
    6.7347  -12.9636   19.8536 C   0  0  0  0  0  0  0  0  0  0  0  0
    7.9330  -13.7410   20.2542 C   0  0  0  0  0  0  0  0  0  0  0  0
    7.8213  -14.5878   21.4664 C   0  0  2  0  0  0  0  0  0  0  0  0
    7.3036  -13.8530   22.6757 C   0  0  0  0  0  0  0  0  0  0  0  0
    9.0036  -15.4289   21.7660 C   0  0  2  0  0  0  0  0  0  0  0  0
    9.3078  -16.3985   20.7488 N   0  0  0  0  0  0  0  0  0  0  0  0
    8.8953  -16.1025   23.1091 C   0  0  0  0  0  0  0  0  0  0  0  0
    8.6278  -17.3081   23.2206 O   0  0  0  0  0  0  0  0  0  0  0  0
   10.4400  -12.6092   28.5840 C   0  0  0  0  0  0  0  0  0  0  0  0
   10.2630  -14.2688   29.2425 S   0  0  0  0  0  0  0  0  0  0  0  0
   10.0687  -15.5256   27.9481 C   0  0  0  0  0  0  0  0  0  0  0  0
    9.7491  -14.9371   26.6173 C   0  0  0  0  0  0  0  0  0  0  0  0
    9.4957  -15.9597   25.5690 C   0  0  2  0  0  0  0  0  0  0  0  0
    9.1017  -15.3547   24.2999 N   0  0  0  0  0  0  0  0  0  0  0  0
    8.5679  -17.0479   25.9481 C   0  0  0  0  0  0  0  0  0  0  0  0
    7.3277  -16.9892   25.9061 O   0  0  0  0  0  0  0  0  0  0  0  0
    9.1670  -18.2503   26.3941 O   0  0  0  0  0  0  0  0  0  0  0  0
  2  1  1  0
  2  3  1  0
  3 10  1  0
  4  3  2  0
  6  5  1  0
  7  6  1  0
  7  8  1  1
  9  7  1  0
  9 10  1  6
 11 18  1  0
 11  9  1  0
 12 11  2  0
 14 13  1  0
 15 14  1  0
 16 15  1  0
 17 16  1  1
 17 18  1  0
 19 17  1  0
 20 19  2  0
 21 19  1  0
M  END
$$$$
