GIM.pdb
     RDKit          3D

 21 20  0  0  1  0  0  0  0  0999 V2000
    5.8948  -18.9658   19.5728 N   0  0  0  0  0  0  0  0  0  0  0  0
    5.6399  -18.1327   20.7217 C   0  0  0  0  0  0  0  0  0  0  0  0
    6.7747  -17.2054   20.9099 C   0  0  0  0  0  0  0  0  0  0  0  0
    7.9419  -17.6457   21.0013 O   0  0  0  0  0  0  0  0  0  0  0  0
    7.3398  -12.7176   18.1378 C   0  0  0  0  0  0  0  0  0  0  0  0
    7.4899  -13.9260   18.9852 C   0  0  0  0  0  0  0  0  0  0  0  0
    7.7557  -13.7165   20.4289 C   0  0  2  0  0  0  0  0  0  0  0  0
    8.9648  -12.8613   20.7066 C   0  0  0  0  0  0  0  0  0  0  0  0
    7.7081  -14.9365   21.2682 C   0  0  2  0  0  0  0  0  0  0  0  0
    6.5880  -15.7951   20.9935 N   0  0  0  0  0  0  0  0  0  0  0  0
    7.7679  -14.6164   22.7390 C   0  0  0  0  0  0  0  0  0  0  0  0
    7.2098  -13.6182   23.2181 O   0  0  0  0  0  0  0  0  0  0  0  0
    7.1082  -12.0853   28.4738 C   0  0  0  0  0  0  0  0  0  0  0  0
    6.4189  -12.9794   27.0794 S   0  0  0  0  0  0  0  0  0  0  0  0
    6.9891  -14.6998   26.9912 C   0  0  0  0  0  0  0  0  0  0  0  0
    7.0581  -15.2128   25.5943 C   0  0  0  0  0  0  0  0  0  0  0  0
    8.4472  -15.3238   25.0778 C   0  0  2  0  0  0  0  0  0  0  0  0
    8.4799  -15.4693   23.6253 N   0  0  0  0  0  0  0  0  0  0  0  0
    9.2929  -16.3463   25.7320 C   0  0  0  0  0  0  0  0  0  0  0  0
    9.7087  -17.3897   25.2010 O   0  0  0  0  0  0  0  0  0  0  0  0
    9.6465  -16.0934   27.0791 O   0  0  0  0  0  0  0  0  0  0  0  0
  2  1  1  0
  2  3  1  0
  3 10  1  0
  4  3  2  0
  6  5  1  0
  7  6  1  0
  7  8  1  6
  9  7  1  0
  9 10  1  1
 11 18  1  0
 11  9  1  0
 12 11  2  0
 14 13  1  0
 15 14  1  0
 16 15  1  0
 17 16  1  1
 17 18  1  0
 19 17  1  0
 20 19  2  0
 21 19  1  0
M  END
$$$$
