WGG.pdb
     RDKit          3D

 23 24  0  0  1  0  0  0  0  0999 V2000
    8.0317  -17.1058   22.9889 N   0  0  0  0  0  0  0  0  0  0  0  0
    8.3917  -15.9614   22.1934 C   0  0  1  0  0  0  0  0  0  0  0  0
    7.3906  -14.8574   22.4484 C   0  0  0  0  0  0  0  0  0  0  0  0
    6.9889  -14.7071   23.8496 C   0  0  0  0  0  0  0  0  0  0  0  0
    6.5632  -15.7416   24.6589 C   0  0  0  0  0  0  0  0  0  0  0  0
    6.3093  -15.2594   25.8712 N   0  0  0  0  0  0  0  0  0  0  0  0
    6.5522  -13.9315   25.8976 C   0  0  0  0  0  0  0  0  0  0  0  0
    6.4402  -12.9950   26.8903 C   0  0  0  0  0  0  0  0  0  0  0  0
    6.7450  -11.6618   26.6751 C   0  0  0  0  0  0  0  0  0  0  0  0
    7.1655  -11.3243   25.4144 C   0  0  0  0  0  0  0  0  0  0  0  0
    7.2893  -12.2507   24.3876 C   0  0  0  0  0  0  0  0  0  0  0  0
    6.9813  -13.5649   24.6309 C   0  0  0  0  0  0  0  0  0  0  0  0
    9.7018  -15.4418   22.6552 C   0  0  0  0  0  0  0  0  0  0  0  0
   10.2570  -14.5459   21.9754 O   0  0  0  0  0  0  0  0  0  0  0  0
   10.3227  -15.9537   23.8561 N   0  0  0  0  0  0  0  0  0  0  0  0
   11.3942  -16.8751   23.6485 C   0  0  0  0  0  0  0  0  0  0  0  0
   12.1417  -17.2692   24.8380 C   0  0  0  0  0  0  0  0  0  0  0  0
   13.0984  -18.0843   24.6628 O   0  0  0  0  0  0  0  0  0  0  0  0
   11.9042  -16.8326   26.1618 N   0  0  0  0  0  0  0  0  0  0  0  0
   10.8393  -17.4408   26.9595 C   0  0  0  0  0  0  0  0  0  0  0  0
   11.2854  -18.7299   27.5260 C   0  0  0  0  0  0  0  0  0  0  0  0
   12.3749  -19.2220   27.1800 O   0  0  0  0  0  0  0  0  0  0  0  0
   10.4995  -19.3959   28.4403 O   0  0  0  0  0  0  0  0  0  0  0  0
  2 13  1  0
  2  1  1  1
  3  2  1  0
  4  5  2  0
  4  3  1  0
  6  5  1  0
  7 12  2  0
  7  6  1  0
  8  7  1  0
  9 10  1  0
  9  8  2  0
 10 11  2  0
 11 12  1  0
 12  4  1  0
 13 15  1  0
 14 13  2  0
 15 16  1  0
 16 17  1  0
 17 19  1  0
 17 18  2  0
 19 20  1  0
 20 21  1  0
 21 22  2  0
 21 23  1  0
M  END
$$$$
