WGG.pdb
     RDKit          3D

 23 24  0  0  1  0  0  0  0  0999 V2000
    9.1336  -14.2015   21.7129 N   0  0  0  0  0  0  0  0  0  0  0  0
    9.4024  -15.0810   22.8204 C   0  0  1  0  0  0  0  0  0  0  0  0
    8.0895  -15.4747   23.4586 C   0  0  0  0  0  0  0  0  0  0  0  0
    7.2668  -14.3494   23.9102 C   0  0  0  0  0  0  0  0  0  0  0  0
    6.2586  -13.7671   23.1680 C   0  0  0  0  0  0  0  0  0  0  0  0
    5.7018  -12.7988   23.8885 N   0  0  0  0  0  0  0  0  0  0  0  0
    6.3080  -12.7152   25.0920 C   0  0  0  0  0  0  0  0  0  0  0  0
    6.1086  -11.8915   26.1676 C   0  0  0  0  0  0  0  0  0  0  0  0
    6.8763  -11.9897   27.3156 C   0  0  0  0  0  0  0  0  0  0  0  0
    7.8497  -12.9553   27.3221 C   0  0  0  0  0  0  0  0  0  0  0  0
    8.0757  -13.8053   26.2476 C   0  0  0  0  0  0  0  0  0  0  0  0
    7.2984  -13.6852   25.1240 C   0  0  0  0  0  0  0  0  0  0  0  0
   10.0025  -16.3369   22.3083 C   0  0  0  0  0  0  0  0  0  0  0  0
   10.2269  -16.4278   21.0777 O   0  0  0  0  0  0  0  0  0  0  0  0
   10.3202  -17.4272   23.2028 N   0  0  0  0  0  0  0  0  0  0  0  0
   11.4136  -18.2533   22.7999 C   0  0  0  0  0  0  0  0  0  0  0  0
   12.7087  -17.9394   23.3942 C   0  0  0  0  0  0  0  0  0  0  0  0
   13.6615  -18.7351   23.1313 O   0  0  0  0  0  0  0  0  0  0  0  0
   13.0035  -16.8386   24.2315 N   0  0  0  0  0  0  0  0  0  0  0  0
   14.3448  -16.6768   24.7926 C   0  0  0  0  0  0  0  0  0  0  0  0
   15.3066  -16.2944   23.7388 C   0  0  0  0  0  0  0  0  0  0  0  0
   15.3888  -16.9646   22.6933 O   0  0  0  0  0  0  0  0  0  0  0  0
   16.1187  -15.1945   23.9056 O   0  0  0  0  0  0  0  0  0  0  0  0
  2 13  1  0
  2  1  1  6
  3  2  1  0
  4  5  2  0
  4  3  1  0
  6  5  1  0
  7 12  2  0
  7  6  1  0
  8  7  1  0
  9 10  1  0
  9  8  2  0
 10 11  2  0
 11 12  1  0
 12  4  1  0
 13 15  1  0
 14 13  2  0
 15 16  1  0
 16 17  1  0
 17 19  1  0
 17 18  2  0
 19 20  1  0
 20 21  1  0
 21 22  2  0
 21 23  1  0
M  END
$$$$
