WGG.pdb
     RDKit          3D

 23 24  0  0  1  0  0  0  0  0999 V2000
    7.4710  -18.1500   23.9952 N   0  0  0  0  0  0  0  0  0  0  0  0
    7.5207  -16.8799   23.3194 C   0  0  1  0  0  0  0  0  0  0  0  0
    8.2096  -15.8776   24.2176 C   0  0  0  0  0  0  0  0  0  0  0  0
    7.3073  -15.0948   25.0663 C   0  0  0  0  0  0  0  0  0  0  0  0
    6.2840  -15.6279   25.8245 C   0  0  0  0  0  0  0  0  0  0  0  0
    5.6889  -14.6443   26.4917 N   0  0  0  0  0  0  0  0  0  0  0  0
    6.2837  -13.4673   26.2021 C   0  0  0  0  0  0  0  0  0  0  0  0
    6.0411  -12.1861   26.6201 C   0  0  0  0  0  0  0  0  0  0  0  0
    6.7946  -11.1154   26.1701 C   0  0  0  0  0  0  0  0  0  0  0  0
    7.7990  -11.4022   25.2819 C   0  0  0  0  0  0  0  0  0  0  0  0
    8.0695  -12.6903   24.8397 C   0  0  0  0  0  0  0  0  0  0  0  0
    7.3067  -13.7314   25.3040 C   0  0  0  0  0  0  0  0  0  0  0  0
    8.3748  -17.0049   22.1133 C   0  0  0  0  0  0  0  0  0  0  0  0
    8.9664  -18.0931   21.9163 O   0  0  0  0  0  0  0  0  0  0  0  0
    8.5221  -15.9027   21.1897 N   0  0  0  0  0  0  0  0  0  0  0  0
    9.1985  -16.2099   19.9698 C   0  0  0  0  0  0  0  0  0  0  0  0
   10.6543  -16.2760   20.0418 C   0  0  0  0  0  0  0  0  0  0  0  0
   11.2792  -16.2414   18.9379 O   0  0  0  0  0  0  0  0  0  0  0  0
   11.4331  -16.3744   21.2180 N   0  0  0  0  0  0  0  0  0  0  0  0
   12.8863  -16.5187   21.1308 C   0  0  0  0  0  0  0  0  0  0  0  0
   13.4914  -16.5117   22.4782 C   0  0  0  0  0  0  0  0  0  0  0  0
   12.7667  -16.5325   23.4899 O   0  0  0  0  0  0  0  0  0  0  0  0
   14.8606  -16.4821   22.6245 O   0  0  0  0  0  0  0  0  0  0  0  0
  2 13  1  0
  2  1  1  1
  3  2  1  0
  4  5  2  0
  4  3  1  0
  6  5  1  0
  7 12  2  0
  7  6  1  0
  8  7  1  0
  9 10  1  0
  9  8  2  0
 10 11  2  0
 11 12  1  0
 12  4  1  0
 13 15  1  0
 14 13  2  0
 15 16  1  0
 16 17  1  0
 17 19  1  0
 17 18  2  0
 19 20  1  0
 20 21  1  0
 21 22  2  0
 21 23  1  0
M  END
$$$$
