WGG.pdb
     RDKit          3D

 23 24  0  0  1  0  0  0  0  0999 V2000
    7.1679  -17.8363   24.2978 N   0  0  0  0  0  0  0  0  0  0  0  0
    7.1067  -16.6370   23.5040 C   0  0  1  0  0  0  0  0  0  0  0  0
    7.9540  -15.5730   24.1641 C   0  0  0  0  0  0  0  0  0  0  0  0
    7.2674  -14.8013   25.2035 C   0  0  0  0  0  0  0  0  0  0  0  0
    6.5737  -15.3541   26.2616 C   0  0  0  0  0  0  0  0  0  0  0  0
    6.1047  -14.3724   27.0251 N   0  0  0  0  0  0  0  0  0  0  0  0
    6.4637  -13.1775   26.5088 C   0  0  0  0  0  0  0  0  0  0  0  0
    6.2255  -11.8912   26.9134 C   0  0  0  0  0  0  0  0  0  0  0  0
    6.6988  -10.8018   26.2021 C   0  0  0  0  0  0  0  0  0  0  0  0
    7.4199  -11.0754   25.0685 C   0  0  0  0  0  0  0  0  0  0  0  0
    7.6782  -12.3683   24.6330 C   0  0  0  0  0  0  0  0  0  0  0  0
    7.1973  -13.4279   25.3591 C   0  0  0  0  0  0  0  0  0  0  0  0
    7.7296  -16.8966   22.1833 C   0  0  0  0  0  0  0  0  0  0  0  0
    8.4077  -17.9424   22.0432 O   0  0  0  0  0  0  0  0  0  0  0  0
    7.5605  -15.9698   21.0869 N   0  0  0  0  0  0  0  0  0  0  0  0
    8.1590  -16.3643   19.8515 C   0  0  0  0  0  0  0  0  0  0  0  0
    9.6104  -16.2371   19.7715 C   0  0  0  0  0  0  0  0  0  0  0  0
   10.0723  -15.6379   18.7528 O   0  0  0  0  0  0  0  0  0  0  0  0
   10.5483  -16.7152   20.7157 N   0  0  0  0  0  0  0  0  0  0  0  0
   11.9798  -16.4947   20.5104 C   0  0  0  0  0  0  0  0  0  0  0  0
   12.5746  -17.6132   19.7508 C   0  0  0  0  0  0  0  0  0  0  0  0
   13.1437  -18.5439   20.3499 O   0  0  0  0  0  0  0  0  0  0  0  0
   12.5038  -17.6340   18.3754 O   0  0  0  0  0  0  0  0  0  0  0  0
  2 13  1  0
  2  1  1  1
  3  2  1  0
  4  5  2  0
  4  3  1  0
  6  5  1  0
  7 12  2  0
  7  6  1  0
  8  7  1  0
  9 10  1  0
  9  8  2  0
 10 11  2  0
 11 12  1  0
 12  4  1  0
 13 15  1  0
 14 13  2  0
 15 16  1  0
 16 17  1  0
 17 19  1  0
 17 18  2  0
 19 20  1  0
 20 21  1  0
 21 22  2  0
 21 23  1  0
M  END
$$$$
