WGG.pdb
     RDKit          3D

 23 24  0  0  1  0  0  0  0  0999 V2000
    6.8432  -17.3703   25.1752 N   0  0  0  0  0  0  0  0  0  0  0  0
    6.9147  -16.1468   24.4200 C   0  0  1  0  0  0  0  0  0  0  0  0
    8.1837  -15.4162   24.7965 C   0  0  0  0  0  0  0  0  0  0  0  0
    8.0767  -14.5823   25.9967 C   0  0  0  0  0  0  0  0  0  0  0  0
    8.6779  -14.8677   27.2064 C   0  0  0  0  0  0  0  0  0  0  0  0
    8.3994  -13.8906   28.0634 N   0  0  0  0  0  0  0  0  0  0  0  0
    7.6284  -12.9588   27.4629 C   0  0  0  0  0  0  0  0  0  0  0  0
    7.0816  -11.7871   27.9137 C   0  0  0  0  0  0  0  0  0  0  0  0
    6.3021  -10.9834   27.0994 C   0  0  0  0  0  0  0  0  0  0  0  0
    6.1036  -11.4204   25.8150 C   0  0  0  0  0  0  0  0  0  0  0  0
    6.6446  -12.6031   25.3289 C   0  0  0  0  0  0  0  0  0  0  0  0
    7.4139  -13.3782   26.1587 C   0  0  0  0  0  0  0  0  0  0  0  0
    7.0412  -16.4727   22.9787 C   0  0  0  0  0  0  0  0  0  0  0  0
    7.2291  -17.6700   22.6561 O   0  0  0  0  0  0  0  0  0  0  0  0
    6.9508  -15.4388   21.9724 N   0  0  0  0  0  0  0  0  0  0  0  0
    6.9898  -15.8939   20.6191 C   0  0  0  0  0  0  0  0  0  0  0  0
    8.3161  -16.0383   20.0281 C   0  0  0  0  0  0  0  0  0  0  0  0
    8.4210  -15.7603   18.7944 O   0  0  0  0  0  0  0  0  0  0  0  0
    9.4912  -16.4563   20.6945 N   0  0  0  0  0  0  0  0  0  0  0  0
   10.7620  -16.5293   19.9736 C   0  0  0  0  0  0  0  0  0  0  0  0
   11.8346  -17.0263   20.8592 C   0  0  0  0  0  0  0  0  0  0  0  0
   11.5927  -17.2808   22.0532 O   0  0  0  0  0  0  0  0  0  0  0  0
   13.1089  -17.2115   20.3704 O   0  0  0  0  0  0  0  0  0  0  0  0
  2 13  1  0
  2  1  1  1
  3  2  1  0
  4  5  2  0
  4  3  1  0
  6  5  1  0
  7 12  2  0
  7  6  1  0
  8  7  1  0
  9 10  1  0
  9  8  2  0
 10 11  2  0
 11 12  1  0
 12  4  1  0
 13 15  1  0
 14 13  2  0
 15 16  1  0
 16 17  1  0
 17 19  1  0
 17 18  2  0
 19 20  1  0
 20 21  1  0
 21 22  2  0
 21 23  1  0
M  END
$$$$
