WGG.pdb
     RDKit          3D

 23 24  0  0  1  0  0  0  0  0999 V2000
    7.8095  -17.3307   23.8226 N   0  0  0  0  0  0  0  0  0  0  0  0
    8.9452  -16.4461   23.8278 C   0  0  1  0  0  0  0  0  0  0  0  0
    9.0701  -15.8229   25.1997 C   0  0  0  0  0  0  0  0  0  0  0  0
    7.8591  -15.1519   25.6796 C   0  0  0  0  0  0  0  0  0  0  0  0
    6.7038  -15.8010   26.0673 C   0  0  0  0  0  0  0  0  0  0  0  0
    5.8200  -14.8950   26.4732 N   0  0  0  0  0  0  0  0  0  0  0  0
    6.3495  -13.6574   26.3683 C   0  0  0  0  0  0  0  0  0  0  0  0
    5.8475  -12.4148   26.6491 C   0  0  0  0  0  0  0  0  0  0  0  0
    6.5904  -11.2639   26.4486 C   0  0  0  0  0  0  0  0  0  0  0  0
    7.8579  -11.4304   25.9528 C   0  0  0  0  0  0  0  0  0  0  0  0
    8.3948  -12.6767   25.6587 C   0  0  0  0  0  0  0  0  0  0  0  0
    7.6353  -13.7993   25.8689 C   0  0  0  0  0  0  0  0  0  0  0  0
   10.1807  -17.2411   23.6244 C   0  0  0  0  0  0  0  0  0  0  0  0
   10.2748  -18.3489   24.2047 O   0  0  0  0  0  0  0  0  0  0  0  0
   11.2479  -16.7527   22.7804 N   0  0  0  0  0  0  0  0  0  0  0  0
   12.3963  -17.5974   22.6920 C   0  0  0  0  0  0  0  0  0  0  0  0
   13.5011  -17.0964   21.8811 C   0  0  0  0  0  0  0  0  0  0  0  0
   14.5132  -17.8538   21.7711 O   0  0  0  0  0  0  0  0  0  0  0  0
   13.5527  -15.8534   21.2088 N   0  0  0  0  0  0  0  0  0  0  0  0
   14.6899  -15.5266   20.3485 C   0  0  0  0  0  0  0  0  0  0  0  0
   15.8742  -15.1811   21.1609 C   0  0  0  0  0  0  0  0  0  0  0  0
   16.6252  -14.2530   20.8096 O   0  0  0  0  0  0  0  0  0  0  0  0
   16.1555  -15.8831   22.3121 O   0  0  0  0  0  0  0  0  0  0  0  0
  2 13  1  0
  2  1  1  1
  3  2  1  0
  4  5  2  0
  4  3  1  0
  6  5  1  0
  7 12  2  0
  7  6  1  0
  8  7  1  0
  9 10  1  0
  9  8  2  0
 10 11  2  0
 11 12  1  0
 12  4  1  0
 13 15  1  0
 14 13  2  0
 15 16  1  0
 16 17  1  0
 17 19  1  0
 17 18  2  0
 19 20  1  0
 20 21  1  0
 21 22  2  0
 21 23  1  0
M  END
$$$$
