WGG.pdb
     RDKit          3D

 23 24  0  0  1  0  0  0  0  0999 V2000
    8.1982  -17.7199   23.9591 N   0  0  0  0  0  0  0  0  0  0  0  0
    7.8458  -16.6250   23.0935 C   0  0  1  0  0  0  0  0  0  0  0  0
    8.3191  -15.3348   23.7239 C   0  0  0  0  0  0  0  0  0  0  0  0
    7.4519  -14.8186   24.7863 C   0  0  0  0  0  0  0  0  0  0  0  0
    6.6521  -15.6008   25.5957 C   0  0  0  0  0  0  0  0  0  0  0  0
    6.0261  -14.8151   26.4659 N   0  0  0  0  0  0  0  0  0  0  0  0
    6.3828  -13.5288   26.2629 C   0  0  0  0  0  0  0  0  0  0  0  0
    6.0167  -12.3635   26.8818 C   0  0  0  0  0  0  0  0  0  0  0  0
    6.5195  -11.1360   26.4854 C   0  0  0  0  0  0  0  0  0  0  0  0
    7.4049  -11.1448   25.4384 C   0  0  0  0  0  0  0  0  0  0  0  0
    7.7955  -12.3094   24.7911 C   0  0  0  0  0  0  0  0  0  0  0  0
    7.2814  -13.5111   25.2069 C   0  0  0  0  0  0  0  0  0  0  0  0
    8.5907  -16.7556   21.8177 C   0  0  0  0  0  0  0  0  0  0  0  0
    9.5231  -17.5924   21.7588 O   0  0  0  0  0  0  0  0  0  0  0  0
    8.2521  -15.9406   20.6728 N   0  0  0  0  0  0  0  0  0  0  0  0
    8.9804  -16.2272   19.4780 C   0  0  0  0  0  0  0  0  0  0  0  0
   10.3674  -15.7752   19.4475 C   0  0  0  0  0  0  0  0  0  0  0  0
   10.9191  -15.7134   18.3064 O   0  0  0  0  0  0  0  0  0  0  0  0
   11.1532  -15.4011   20.5620 N   0  0  0  0  0  0  0  0  0  0  0  0
   12.5193  -14.9135   20.3713 C   0  0  0  0  0  0  0  0  0  0  0  0
   13.4923  -16.0108   20.5464 C   0  0  0  0  0  0  0  0  0  0  0  0
   13.0977  -17.1866   20.6505 O   0  0  0  0  0  0  0  0  0  0  0  0
   14.8421  -15.7409   20.5957 O   0  0  0  0  0  0  0  0  0  0  0  0
  2 13  1  0
  2  1  1  1
  3  2  1  0
  4  5  2  0
  4  3  1  0
  6  5  1  0
  7 12  2  0
  7  6  1  0
  8  7  1  0
  9 10  1  0
  9  8  2  0
 10 11  2  0
 11 12  1  0
 12  4  1  0
 13 15  1  0
 14 13  2  0
 15 16  1  0
 16 17  1  0
 17 19  1  0
 17 18  2  0
 19 20  1  0
 20 21  1  0
 21 22  2  0
 21 23  1  0
M  END
$$$$
