WGG.pdb
     RDKit          3D

 23 24  0  0  1  0  0  0  0  0999 V2000
    9.3732  -17.4525   22.6684 N   0  0  0  0  0  0  0  0  0  0  0  0
   10.4273  -16.5129   22.9483 C   0  0  1  0  0  0  0  0  0  0  0  0
    9.8086  -15.1833   23.3163 C   0  0  0  0  0  0  0  0  0  0  0  0
    8.7022  -14.7631   22.4524 C   0  0  0  0  0  0  0  0  0  0  0  0
    7.3666  -14.9815   22.7260 C   0  0  0  0  0  0  0  0  0  0  0  0
    6.6375  -14.4461   21.7521 N   0  0  0  0  0  0  0  0  0  0  0  0
    7.4459  -13.8756   20.8335 C   0  0  0  0  0  0  0  0  0  0  0  0
    7.1861  -13.2125   19.6639 C   0  0  0  0  0  0  0  0  0  0  0  0
    8.2010  -12.7120   18.8664 C   0  0  0  0  0  0  0  0  0  0  0  0
    9.4837  -12.9142   19.3068 C   0  0  0  0  0  0  0  0  0  0  0  0
    9.7789  -13.5821   20.4877 C   0  0  0  0  0  0  0  0  0  0  0  0
    8.7523  -14.0659   21.2579 C   0  0  0  0  0  0  0  0  0  0  0  0
   11.1738  -16.9640   24.1479 C   0  0  0  0  0  0  0  0  0  0  0  0
   10.6202  -16.8509   25.2676 O   0  0  0  0  0  0  0  0  0  0  0  0
   12.5034  -17.5189   24.0304 N   0  0  0  0  0  0  0  0  0  0  0  0
   13.4564  -17.0358   24.9783 C   0  0  0  0  0  0  0  0  0  0  0  0
   14.7374  -16.5970   24.4345 C   0  0  0  0  0  0  0  0  0  0  0  0
   15.6797  -16.4287   25.2675 O   0  0  0  0  0  0  0  0  0  0  0  0
   15.0290  -16.3421   23.0745 N   0  0  0  0  0  0  0  0  0  0  0  0
   16.3664  -16.6078   22.5443 C   0  0  0  0  0  0  0  0  0  0  0  0
   16.7476  -15.5790   21.5555 C   0  0  0  0  0  0  0  0  0  0  0  0
   16.6947  -15.8310   20.3379 O   0  0  0  0  0  0  0  0  0  0  0  0
   17.1641  -14.3344   21.9736 O   0  0  0  0  0  0  0  0  0  0  0  0
  2 13  1  0
  2  1  1  1
  3  2  1  0
  4  5  2  0
  4  3  1  0
  6  5  1  0
  7 12  2  0
  7  6  1  0
  8  7  1  0
  9 10  1  0
  9  8  2  0
 10 11  2  0
 11 12  1  0
 12  4  1  0
 13 15  1  0
 14 13  2  0
 15 16  1  0
 16 17  1  0
 17 19  1  0
 17 18  2  0
 19 20  1  0
 20 21  1  0
 21 22  2  0
 21 23  1  0
M  END
$$$$
