NFL.pdb
     RDKit          3D

 28 28  0  0  1  0  0  0  0  0999 V2000
   14.0488  -17.7170   18.6112 N   0  0  0  0  0  0  0  0  0  0  0  0
   12.6445  -17.6569   18.4444 C   0  0  0  0  0  0  0  0  0  0  0  0
   12.1324  -18.4767   17.6432 O   0  0  0  0  0  0  0  0  0  0  0  0
   11.7815  -16.6979   19.1531 C   0  0  0  0  0  0  0  0  0  0  0  0
   11.1171  -17.3843   20.3062 C   0  0  2  0  0  0  0  0  0  0  0  0
   10.0070  -18.1992   19.9300 N   0  0  0  0  0  0  0  0  0  0  0  0
   10.7800  -16.4357   21.4100 C   0  0  0  0  0  0  0  0  0  0  0  0
   11.6537  -15.5711   21.7307 O   0  0  0  0  0  0  0  0  0  0  0  0
    9.5399  -16.4888   22.0786 N   0  0  0  0  0  0  0  0  0  0  0  0
    9.2067  -15.5383   23.1227 C   0  0  1  0  0  0  0  0  0  0  0  0
    7.7749  -15.1925   23.0252 C   0  0  0  0  0  0  0  0  0  0  0  0
    7.2132  -14.3024   24.0248 C   0  0  0  0  0  0  0  0  0  0  0  0
    7.4435  -12.9506   23.9184 C   0  0  0  0  0  0  0  0  0  0  0  0
    6.9192  -12.0486   24.8522 C   0  0  0  0  0  0  0  0  0  0  0  0
    6.1544  -12.4906   25.9093 C   0  0  0  0  0  0  0  0  0  0  0  0
    5.9253  -13.8428   26.0142 C   0  0  0  0  0  0  0  0  0  0  0  0
    6.4435  -14.7188   25.0937 C   0  0  0  0  0  0  0  0  0  0  0  0
    9.6646  -16.0221   24.4529 C   0  0  0  0  0  0  0  0  0  0  0  0
    9.8672  -17.2532   24.5975 O   0  0  0  0  0  0  0  0  0  0  0  0
   11.3570  -13.6876   30.0438 C   0  0  0  0  0  0  0  0  0  0  0  0
   11.1132  -14.8139   29.1162 C   0  0  1  0  0  0  0  0  0  0  0  0
   10.2094  -15.8024   29.8780 C   0  0  0  0  0  0  0  0  0  0  0  0
   10.6359  -14.5642   27.7589 C   0  0  0  0  0  0  0  0  0  0  0  0
   10.4803  -15.6662   26.7979 C   0  0  2  0  0  0  0  0  0  0  0  0
    9.8769  -15.1692   25.5500 N   0  0  0  0  0  0  0  0  0  0  0  0
    9.7891  -16.8839   27.1844 C   0  0  0  0  0  0  0  0  0  0  0  0
    8.3853  -16.9440   27.1371 O   0  0  0  0  0  0  0  0  0  0  0  0
   10.3781  -17.9105   27.5665 O   0  0  0  0  0  0  0  0  0  0  0  0
  1  2  1  0
  2  3  2  0
  4  5  1  0
  4  2  1  0
  5  7  1  0
  5  6  1  6
  7  8  2  0
  9  7  1  0
 10  9  1  0
 11 12  1  0
 10 11  1  1
 12 17  2  0
 13 12  1  0
 13 14  2  0
 14 15  1  0
 15 16  2  0
 17 16  1  0
 18 10  1  0
 19 18  2  0
 21 20  1  1
 21 22  1  0
 23 21  1  0
 24 25  1  0
 24 23  1  1
 25 18  1  0
 26 24  1  0
 27 26  1  0
 28 26  2  0
M  END
$$$$
