NFL.pdb
     RDKit          3D

 28 28  0  0  1  0  0  0  0  0999 V2000
   13.0090  -18.9359   18.0810 N   0  0  0  0  0  0  0  0  0  0  0  0
   12.1235  -18.9679   19.1847 C   0  0  0  0  0  0  0  0  0  0  0  0
   11.3853  -19.9778   19.2913 O   0  0  0  0  0  0  0  0  0  0  0  0
   12.0343  -17.8938   20.1873 C   0  0  0  0  0  0  0  0  0  0  0  0
   10.6482  -17.3273   20.1874 C   0  0  2  0  0  0  0  0  0  0  0  0
   10.2717  -16.7247   18.9493 N   0  0  0  0  0  0  0  0  0  0  0  0
   10.4055  -16.4289   21.3561 C   0  0  0  0  0  0  0  0  0  0  0  0
   11.2968  -15.5665   21.6309 O   0  0  0  0  0  0  0  0  0  0  0  0
    9.2330  -16.5256   22.1331 N   0  0  0  0  0  0  0  0  0  0  0  0
    9.0175  -15.6645   23.2805 C   0  0  1  0  0  0  0  0  0  0  0  0
    7.6467  -15.1196   23.2277 C   0  0  0  0  0  0  0  0  0  0  0  0
    7.2105  -14.2504   24.3052 C   0  0  0  0  0  0  0  0  0  0  0  0
    7.5170  -12.9108   24.2465 C   0  0  0  0  0  0  0  0  0  0  0  0
    7.1144  -12.0285   25.2565 C   0  0  0  0  0  0  0  0  0  0  0  0
    6.3968  -12.4783   26.3431 C   0  0  0  0  0  0  0  0  0  0  0  0
    6.0915  -13.8182   26.4001 C   0  0  0  0  0  0  0  0  0  0  0  0
    6.4905  -14.6749   25.4051 C   0  0  0  0  0  0  0  0  0  0  0  0
    9.3894  -16.3546   24.5449 C   0  0  0  0  0  0  0  0  0  0  0  0
    8.5179  -17.0577   25.1139 O   0  0  0  0  0  0  0  0  0  0  0  0
   11.5879  -14.6794   29.3331 C   0  0  0  0  0  0  0  0  0  0  0  0
   10.4107  -14.4678   28.4626 C   0  0  1  0  0  0  0  0  0  0  0  0
    9.9576  -13.0157   28.7082 C   0  0  0  0  0  0  0  0  0  0  0  0
   10.4746  -14.7923   27.0404 C   0  0  0  0  0  0  0  0  0  0  0  0
   10.8274  -16.1467   26.5893 C   0  0  2  0  0  0  0  0  0  0  0  0
   10.6636  -16.2538   25.1299 N   0  0  0  0  0  0  0  0  0  0  0  0
   10.2084  -17.3084   27.2035 C   0  0  0  0  0  0  0  0  0  0  0  0
    8.8307  -17.5400   27.0461 O   0  0  0  0  0  0  0  0  0  0  0  0
   10.8391  -18.1389   27.8813 O   0  0  0  0  0  0  0  0  0  0  0  0
  1  2  1  0
  2  3  2  0
  4  5  1  0
  4  2  1  0
  5  7  1  0
  5  6  1  6
  7  8  2  0
  9  7  1  0
 10  9  1  0
 11 12  1  0
 10 11  1  1
 12 17  2  0
 13 12  1  0
 13 14  2  0
 14 15  1  0
 15 16  2  0
 17 16  1  0
 18 10  1  0
 19 18  2  0
 21 20  1  6
 21 22  1  0
 23 21  1  0
 24 25  1  0
 24 23  1  1
 25 18  1  0
 26 24  1  0
 27 26  1  0
 28 26  2  0
M  END
$$$$
