NFL.pdb
     RDKit          3D

 28 28  0  0  1  0  0  0  0  0999 V2000
   10.8458  -17.9593   16.7967 N   0  0  0  0  0  0  0  0  0  0  0  0
   11.5681  -17.5967   17.9586 C   0  0  0  0  0  0  0  0  0  0  0  0
   12.6738  -18.1631   18.1396 O   0  0  0  0  0  0  0  0  0  0  0  0
   11.0892  -16.6083   18.9386 C   0  0  0  0  0  0  0  0  0  0  0  0
   10.7856  -17.2977   20.2327 C   0  0  2  0  0  0  0  0  0  0  0  0
    9.8006  -18.3250   20.1213 N   0  0  0  0  0  0  0  0  0  0  0  0
   10.4794  -16.3306   21.3294 C   0  0  0  0  0  0  0  0  0  0  0  0
   11.3217  -15.4059   21.5513 O   0  0  0  0  0  0  0  0  0  0  0  0
    9.3011  -16.4309   22.0971 N   0  0  0  0  0  0  0  0  0  0  0  0
    9.0097  -15.4826   23.1557 C   0  0  1  0  0  0  0  0  0  0  0  0
    7.5631  -15.1887   23.1591 C   0  0  0  0  0  0  0  0  0  0  0  0
    7.0536  -14.2560   24.1477 C   0  0  0  0  0  0  0  0  0  0  0  0
    7.2868  -12.9112   23.9776 C   0  0  0  0  0  0  0  0  0  0  0  0
    6.8118  -11.9693   24.8984 C   0  0  0  0  0  0  0  0  0  0  0  0
    6.0941  -12.3638   26.0062 C   0  0  0  0  0  0  0  0  0  0  0  0
    5.8621  -13.7090   26.1747 C   0  0  0  0  0  0  0  0  0  0  0  0
    6.3319  -14.6243   25.2665 C   0  0  0  0  0  0  0  0  0  0  0  0
    9.5790  -15.9369   24.4529 C   0  0  0  0  0  0  0  0  0  0  0  0
    9.8417  -17.1576   24.5890 O   0  0  0  0  0  0  0  0  0  0  0  0
   10.6822  -13.7093   30.2192 C   0  0  0  0  0  0  0  0  0  0  0  0
   10.7363  -14.7797   29.1996 C   0  0  1  0  0  0  0  0  0  0  0  0
   10.0031  -15.9876   29.8139 C   0  0  0  0  0  0  0  0  0  0  0  0
   10.3115  -14.5163   27.8276 C   0  0  0  0  0  0  0  0  0  0  0  0
   10.3805  -15.5662   26.8004 C   0  0  2  0  0  0  0  0  0  0  0  0
    9.8322  -15.0675   25.5280 N   0  0  0  0  0  0  0  0  0  0  0  0
    9.8158  -16.8799   27.0557 C   0  0  0  0  0  0  0  0  0  0  0  0
    8.4351  -17.0965   26.9030 O   0  0  0  0  0  0  0  0  0  0  0  0
   10.4971  -17.8576   27.4118 O   0  0  0  0  0  0  0  0  0  0  0  0
  1  2  1  0
  2  3  2  0
  4  5  1  0
  4  2  1  0
  5  7  1  0
  5  6  1  6
  7  8  2  0
  9  7  1  0
 10  9  1  0
 11 12  1  0
 10 11  1  1
 12 17  2  0
 13 12  1  0
 13 14  2  0
 14 15  1  0
 15 16  2  0
 17 16  1  0
 18 10  1  0
 19 18  2  0
 21 20  1  1
 21 22  1  0
 23 21  1  0
 24 25  1  0
 24 23  1  1
 25 18  1  0
 26 24  1  0
 27 26  1  0
 28 26  2  0
M  END
$$$$
