NFL.pdb
     RDKit          3D

 28 28  0  0  1  0  0  0  0  0999 V2000
   11.2784  -21.2707   20.7524 N   0  0  0  0  0  0  0  0  0  0  0  0
   11.4309  -20.1616   19.8864 C   0  0  0  0  0  0  0  0  0  0  0  0
   11.3226  -20.3834   18.6554 O   0  0  0  0  0  0  0  0  0  0  0  0
   11.7043  -18.7939   20.3569 C   0  0  0  0  0  0  0  0  0  0  0  0
   10.5486  -17.9077   20.0086 C   0  0  2  0  0  0  0  0  0  0  0  0
   10.6031  -17.3842   18.6816 N   0  0  0  0  0  0  0  0  0  0  0  0
   10.3243  -16.8435   21.0328 C   0  0  0  0  0  0  0  0  0  0  0  0
   11.1613  -15.8892   21.0832 O   0  0  0  0  0  0  0  0  0  0  0  0
    9.2268  -16.8865   21.9167 N   0  0  0  0  0  0  0  0  0  0  0  0
    9.0480  -15.8777   22.9439 C   0  0  1  0  0  0  0  0  0  0  0  0
    7.6363  -15.4468   22.9603 C   0  0  0  0  0  0  0  0  0  0  0  0
    7.2400  -14.4268   23.9139 C   0  0  0  0  0  0  0  0  0  0  0  0
    6.4805  -14.7903   25.0016 C   0  0  0  0  0  0  0  0  0  0  0  0
    6.0773  -13.8465   25.9541 C   0  0  0  0  0  0  0  0  0  0  0  0
    6.4307  -12.5208   25.8290 C   0  0  0  0  0  0  0  0  0  0  0  0
    7.1899  -12.1593   24.7406 C   0  0  0  0  0  0  0  0  0  0  0  0
    7.5803  -13.0918   23.8126 C   0  0  0  0  0  0  0  0  0  0  0  0
    9.5974  -16.3380   24.2476 C   0  0  0  0  0  0  0  0  0  0  0  0
    9.3500  -17.5143   24.6120 O   0  0  0  0  0  0  0  0  0  0  0  0
   11.5735  -14.9104   29.4901 C   0  0  0  0  0  0  0  0  0  0  0  0
   10.2692  -14.7792   28.8046 C   0  0  1  0  0  0  0  0  0  0  0  0
    9.5485  -13.6004   29.4866 C   0  0  0  0  0  0  0  0  0  0  0  0
   10.2041  -14.6967   27.3481 C   0  0  0  0  0  0  0  0  0  0  0  0
   10.5655  -15.8489   26.5090 C   0  0  2  0  0  0  0  0  0  0  0  0
   10.3740  -15.5202   25.0865 N   0  0  0  0  0  0  0  0  0  0  0  0
    9.9740  -17.1519   26.7588 C   0  0  0  0  0  0  0  0  0  0  0  0
   10.7601  -18.1964   27.2761 O   0  0  0  0  0  0  0  0  0  0  0  0
    8.7779  -17.4117   26.5377 O   0  0  0  0  0  0  0  0  0  0  0  0
  1  2  1  0
  2  3  2  0
  4  5  1  0
  4  2  1  0
  5  7  1  0
  5  6  1  6
  7  8  2  0
  9  7  1  0
 10  9  1  0
 11 12  1  0
 10 11  1  1
 12 17  2  0
 13 12  1  0
 13 14  2  0
 14 15  1  0
 15 16  2  0
 17 16  1  0
 18 10  1  0
 19 18  2  0
 21 20  1  6
 21 22  1  0
 23 21  1  0
 24 25  1  0
 24 23  1  1
 25 18  1  0
 26 24  1  0
 27 26  1  0
 28 26  2  0
M  END
$$$$
