NFL.pdb
     RDKit          3D

 28 28  0  0  1  0  0  0  0  0999 V2000
   12.9518  -18.8821   19.1537 N   0  0  0  0  0  0  0  0  0  0  0  0
   12.5312  -17.5677   18.8394 C   0  0  0  0  0  0  0  0  0  0  0  0
   12.6305  -17.2116   17.6396 O   0  0  0  0  0  0  0  0  0  0  0  0
   11.9959  -16.6250   19.8351 C   0  0  0  0  0  0  0  0  0  0  0  0
   11.0960  -17.3583   20.7809 C   0  0  2  0  0  0  0  0  0  0  0  0
    9.9837  -17.9889   20.1461 N   0  0  0  0  0  0  0  0  0  0  0  0
   10.6855  -16.5112   21.9410 C   0  0  0  0  0  0  0  0  0  0  0  0
   11.5662  -15.7572   22.4603 O   0  0  0  0  0  0  0  0  0  0  0  0
    9.3709  -16.5395   22.4496 N   0  0  0  0  0  0  0  0  0  0  0  0
    9.0152  -15.8167   23.6561 C   0  0  1  0  0  0  0  0  0  0  0  0
    7.5904  -15.4362   23.5916 C   0  0  0  0  0  0  0  0  0  0  0  0
    7.0921  -14.4720   24.5554 C   0  0  0  0  0  0  0  0  0  0  0  0
    6.2675  -14.9061   25.5671 C   0  0  0  0  0  0  0  0  0  0  0  0
    5.7649  -14.0183   26.5261 C   0  0  0  0  0  0  0  0  0  0  0  0
    6.0827  -12.6785   26.4840 C   0  0  0  0  0  0  0  0  0  0  0  0
    6.9073  -12.2462   25.4715 C   0  0  0  0  0  0  0  0  0  0  0  0
    7.3948  -13.1243   24.5364 C   0  0  0  0  0  0  0  0  0  0  0  0
    9.4278  -16.5685   24.8717 C   0  0  0  0  0  0  0  0  0  0  0  0
    9.6529  -17.7991   24.7587 O   0  0  0  0  0  0  0  0  0  0  0  0
   10.2315  -13.4963   29.4713 C   0  0  0  0  0  0  0  0  0  0  0  0
   10.1208  -14.3687   28.2818 C   0  0  1  0  0  0  0  0  0  0  0  0
   10.8893  -13.6501   27.1561 C   0  0  0  0  0  0  0  0  0  0  0  0
   10.4666  -15.7848   28.3685 C   0  0  0  0  0  0  0  0  0  0  0  0
   10.1482  -16.7091   27.2701 C   0  0  2  0  0  0  0  0  0  0  0  0
    9.5738  -15.9683   26.1344 N   0  0  0  0  0  0  0  0  0  0  0  0
    9.3243  -17.8804   27.5131 C   0  0  0  0  0  0  0  0  0  0  0  0
    9.7962  -18.9165   28.3380 O   0  0  0  0  0  0  0  0  0  0  0  0
    8.1911  -18.0308   27.0230 O   0  0  0  0  0  0  0  0  0  0  0  0
  1  2  1  0
  2  3  2  0
  4  5  1  0
  4  2  1  0
  5  7  1  0
  5  6  1  6
  7  8  2  0
  9  7  1  0
 10  9  1  0
 11 12  1  0
 10 11  1  1
 12 17  2  0
 13 12  1  0
 13 14  2  0
 14 15  1  0
 15 16  2  0
 17 16  1  0
 18 10  1  0
 19 18  2  0
 21 20  1  1
 21 22  1  0
 23 21  1  0
 24 25  1  0
 24 23  1  1
 25 18  1  0
 26 24  1  0
 27 26  1  0
 28 26  2  0
M  END
$$$$
