NFL.pdb
     RDKit          3D

 28 28  0  0  1  0  0  0  0  0999 V2000
   12.5292  -17.9577   17.9278 N   0  0  0  0  0  0  0  0  0  0  0  0
   11.1729  -17.5875   18.0910 C   0  0  0  0  0  0  0  0  0  0  0  0
   10.3443  -18.1053   17.3026 O   0  0  0  0  0  0  0  0  0  0  0  0
   10.7052  -16.6447   19.1201 C   0  0  0  0  0  0  0  0  0  0  0  0
   10.5521  -17.3663   20.4232 C   0  0  2  0  0  0  0  0  0  0  0  0
    9.5903  -18.4207   20.3885 N   0  0  0  0  0  0  0  0  0  0  0  0
   10.3298  -16.4290   21.5650 C   0  0  0  0  0  0  0  0  0  0  0  0
   11.2690  -15.6256   21.8587 O   0  0  0  0  0  0  0  0  0  0  0  0
    9.1250  -16.4272   22.2974 N   0  0  0  0  0  0  0  0  0  0  0  0
    8.9513  -15.5744   23.4581 C   0  0  1  0  0  0  0  0  0  0  0  0
    7.5105  -15.3375   23.6748 C   0  0  0  0  0  0  0  0  0  0  0  0
    7.1158  -14.2124   24.5026 C   0  0  0  0  0  0  0  0  0  0  0  0
    6.3393  -14.4429   25.6143 C   0  0  0  0  0  0  0  0  0  0  0  0
    5.9367  -13.3936   26.4495 C   0  0  0  0  0  0  0  0  0  0  0  0
    6.3081  -12.0944   26.1810 C   0  0  0  0  0  0  0  0  0  0  0  0
    7.0844  -11.8659   25.0688 C   0  0  0  0  0  0  0  0  0  0  0  0
    7.4739  -12.9011   24.2565 C   0  0  0  0  0  0  0  0  0  0  0  0
    9.7014  -16.1042   24.6285 C   0  0  0  0  0  0  0  0  0  0  0  0
   10.7467  -16.7658   24.4115 O   0  0  0  0  0  0  0  0  0  0  0  0
    9.6748  -13.2598   29.3211 C   0  0  0  0  0  0  0  0  0  0  0  0
    9.9889  -14.1179   28.1578 C   0  0  1  0  0  0  0  0  0  0  0  0
   11.3633  -13.6482   27.6435 C   0  0  0  0  0  0  0  0  0  0  0  0
    9.9091  -15.5718   28.2683 C   0  0  0  0  0  0  0  0  0  0  0  0
   10.0795  -16.4299   27.0865 C   0  0  2  0  0  0  0  0  0  0  0  0
    9.2942  -15.9015   25.9586 N   0  0  0  0  0  0  0  0  0  0  0  0
    9.8397  -17.8597   27.1779 C   0  0  0  0  0  0  0  0  0  0  0  0
   10.7707  -18.6915   27.8243 O   0  0  0  0  0  0  0  0  0  0  0  0
    8.8309  -18.4135   26.7064 O   0  0  0  0  0  0  0  0  0  0  0  0
  1  2  1  0
  2  3  2  0
  4  5  1  0
  4  2  1  0
  5  7  1  0
  5  6  1  6
  7  8  2  0
  9  7  1  0
 10  9  1  0
 11 12  1  0
 10 11  1  1
 12 17  2  0
 13 12  1  0
 13 14  2  0
 14 15  1  0
 15 16  2  0
 17 16  1  0
 18 10  1  0
 19 18  2  0
 21 20  1  1
 21 22  1  0
 23 21  1  0
 24 25  1  0
 24 23  1  1
 25 18  1  0
 26 24  1  0
 27 26  1  0
 28 26  2  0
M  END
$$$$
