NFL.pdb
     RDKit          3D

 28 28  0  0  1  0  0  0  0  0999 V2000
   12.1025  -21.9922   19.1439 N   0  0  0  0  0  0  0  0  0  0  0  0
   11.0520  -21.4234   19.9030 C   0  0  0  0  0  0  0  0  0  0  0  0
   10.3284  -22.2162   20.5542 O   0  0  0  0  0  0  0  0  0  0  0  0
   10.7795  -19.9780   19.9593 C   0  0  0  0  0  0  0  0  0  0  0  0
   10.7573  -19.5312   21.3883 C   0  0  2  0  0  0  0  0  0  0  0  0
    9.8423  -20.2606   22.2061 N   0  0  0  0  0  0  0  0  0  0  0  0
   10.5821  -18.0531   21.5152 C   0  0  0  0  0  0  0  0  0  0  0  0
   11.5841  -17.3169   21.2547 O   0  0  0  0  0  0  0  0  0  0  0  0
    9.3535  -17.4844   21.9089 N   0  0  0  0  0  0  0  0  0  0  0  0
    9.2081  -16.0511   22.0795 C   0  0  1  0  0  0  0  0  0  0  0  0
    7.8769  -15.6373   21.5940 C   0  0  0  0  0  0  0  0  0  0  0  0
    7.6394  -14.2247   21.3594 C   0  0  0  0  0  0  0  0  0  0  0  0
    6.8177  -13.5351   22.2204 C   0  0  0  0  0  0  0  0  0  0  0  0
    6.5610  -12.1701   22.0426 C   0  0  0  0  0  0  0  0  0  0  0  0
    7.1260  -11.4753   20.9958 C   0  0  0  0  0  0  0  0  0  0  0  0
    7.9471  -12.1667   20.1358 C   0  0  0  0  0  0  0  0  0  0  0  0
    8.1926  -13.5044   20.3186 C   0  0  0  0  0  0  0  0  0  0  0  0
    9.5444  -15.6406   23.4693 C   0  0  0  0  0  0  0  0  0  0  0  0
   10.5932  -14.9742   23.6523 O   0  0  0  0  0  0  0  0  0  0  0  0
    6.3936  -12.6059   26.1218 C   0  0  0  0  0  0  0  0  0  0  0  0
    7.6576  -13.3101   25.8138 C   0  0  1  0  0  0  0  0  0  0  0  0
    8.7844  -12.2919   26.0741 C   0  0  0  0  0  0  0  0  0  0  0  0
    7.9429  -14.6124   26.4096 C   0  0  0  0  0  0  0  0  0  0  0  0
    9.0564  -15.4392   25.9213 C   0  0  2  0  0  0  0  0  0  0  0  0
    8.7477  -15.9652   24.5810 N   0  0  0  0  0  0  0  0  0  0  0  0
    9.5696  -16.5302   26.7314 C   0  0  0  0  0  0  0  0  0  0  0  0
    9.7321  -17.8095   26.1713 O   0  0  0  0  0  0  0  0  0  0  0  0
    9.8854  -16.4016   27.9275 O   0  0  0  0  0  0  0  0  0  0  0  0
  1  2  1  0
  2  3  2  0
  4  5  1  0
  4  2  1  0
  5  7  1  0
  5  6  1  1
  7  8  2  0
  9  7  1  0
 10  9  1  0
 11 12  1  0
 10 11  1  1
 12 17  2  0
 13 12  1  0
 13 14  2  0
 14 15  1  0
 15 16  2  0
 17 16  1  0
 18 10  1  0
 19 18  2  0
 21 20  1  1
 21 22  1  0
 23 21  1  0
 24 25  1  0
 24 23  1  1
 25 18  1  0
 26 24  1  0
 27 26  1  0
 28 26  2  0
M  END
$$$$
