NFL.pdb
     RDKit          3D

 28 28  0  0  1  0  0  0  0  0999 V2000
   10.6989  -18.0031   16.4387 N   0  0  0  0  0  0  0  0  0  0  0  0
   11.2858  -17.9026   17.7228 C   0  0  0  0  0  0  0  0  0  0  0  0
   12.1872  -18.7308   18.0014 O   0  0  0  0  0  0  0  0  0  0  0  0
   10.8933  -16.8932   18.7197 C   0  0  0  0  0  0  0  0  0  0  0  0
   10.6685  -17.5603   20.0413 C   0  0  2  0  0  0  0  0  0  0  0  0
    9.6823  -18.5918   20.0058 N   0  0  0  0  0  0  0  0  0  0  0  0
   10.4238  -16.5747   21.1369 C   0  0  0  0  0  0  0  0  0  0  0  0
   11.2955  -15.6689   21.3196 O   0  0  0  0  0  0  0  0  0  0  0  0
    9.2705  -16.6380   21.9454 N   0  0  0  0  0  0  0  0  0  0  0  0
    9.0766  -15.7211   23.0528 C   0  0  1  0  0  0  0  0  0  0  0  0
    7.6544  -15.3309   23.1164 C   0  0  0  0  0  0  0  0  0  0  0  0
    7.2560  -14.3437   24.1031 C   0  0  0  0  0  0  0  0  0  0  0  0
    7.5135  -13.0150   23.8581 C   0  0  0  0  0  0  0  0  0  0  0  0
    7.1441  -12.0224   24.7741 C   0  0  0  0  0  0  0  0  0  0  0  0
    6.5094  -12.3492   25.9524 C   0  0  0  0  0  0  0  0  0  0  0  0
    6.2530  -13.6784   26.1957 C   0  0  0  0  0  0  0  0  0  0  0  0
    6.6189  -14.6437   25.2916 C   0  0  0  0  0  0  0  0  0  0  0  0
    9.6518  -16.2709   24.3098 C   0  0  0  0  0  0  0  0  0  0  0  0
    9.3595  -17.4501   24.6284 O   0  0  0  0  0  0  0  0  0  0  0  0
   11.6924  -14.9859   29.4554 C   0  0  0  0  0  0  0  0  0  0  0  0
   10.3469  -14.8020   28.8688 C   0  0  1  0  0  0  0  0  0  0  0  0
    9.7535  -13.5550   29.5522 C   0  0  0  0  0  0  0  0  0  0  0  0
   10.1694  -14.7734   27.4197 C   0  0  0  0  0  0  0  0  0  0  0  0
   10.6492  -15.8792   26.5776 C   0  0  2  0  0  0  0  0  0  0  0  0
   10.5005  -15.5338   25.1539 N   0  0  0  0  0  0  0  0  0  0  0  0
   10.1404  -17.2253   26.7750 C   0  0  0  0  0  0  0  0  0  0  0  0
   11.0198  -18.2707   27.1067 O   0  0  0  0  0  0  0  0  0  0  0  0
    8.9375  -17.5225   26.6665 O   0  0  0  0  0  0  0  0  0  0  0  0
  1  2  1  0
  2  3  2  0
  4  5  1  0
  4  2  1  0
  5  7  1  0
  5  6  1  6
  7  8  2  0
  9  7  1  0
 10  9  1  0
 11 12  1  0
 10 11  1  1
 12 17  2  0
 13 12  1  0
 13 14  2  0
 14 15  1  0
 15 16  2  0
 17 16  1  0
 18 10  1  0
 19 18  2  0
 21 20  1  6
 21 22  1  0
 23 21  1  0
 24 25  1  0
 24 23  1  1
 25 18  1  0
 26 24  1  0
 27 26  1  0
 28 26  2  0
M  END
$$$$
