NFL.pdb
     RDKit          3D

 28 28  0  0  1  0  0  0  0  0999 V2000
   13.2212  -19.5595   19.5798 N   0  0  0  0  0  0  0  0  0  0  0  0
   13.2037  -18.1783   19.2711 C   0  0  0  0  0  0  0  0  0  0  0  0
   13.5560  -17.8512   18.1113 O   0  0  0  0  0  0  0  0  0  0  0  0
   12.7999  -17.1360   20.2288 C   0  0  0  0  0  0  0  0  0  0  0  0
   11.3288  -17.2413   20.4878 C   0  0  2  0  0  0  0  0  0  0  0  0
   10.5240  -17.0592   19.3229 N   0  0  0  0  0  0  0  0  0  0  0  0
   10.8921  -16.3750   21.6239 C   0  0  0  0  0  0  0  0  0  0  0  0
   11.5203  -15.2867   21.8098 O   0  0  0  0  0  0  0  0  0  0  0  0
    9.8224  -16.7421   22.4659 N   0  0  0  0  0  0  0  0  0  0  0  0
    9.4472  -15.9260   23.6050 C   0  0  1  0  0  0  0  0  0  0  0  0
    8.0295  -15.5355   23.4763 C   0  0  0  0  0  0  0  0  0  0  0  0
    7.4925  -14.5746   24.4224 C   0  0  0  0  0  0  0  0  0  0  0  0
    6.7644  -15.0318   25.4960 C   0  0  0  0  0  0  0  0  0  0  0  0
    6.2300  -14.1473   26.4409 C   0  0  0  0  0  0  0  0  0  0  0  0
    6.4186  -12.7878   26.3222 C   0  0  0  0  0  0  0  0  0  0  0  0
    7.1468  -12.3326   25.2479 C   0  0  0  0  0  0  0  0  0  0  0  0
    7.6665  -13.2075   24.3272 C   0  0  0  0  0  0  0  0  0  0  0  0
    9.8206  -16.5880   24.8839 C   0  0  0  0  0  0  0  0  0  0  0  0
   10.0088  -17.8298   24.8748 O   0  0  0  0  0  0  0  0  0  0  0  0
    9.7921  -13.3848   29.4715 C   0  0  0  0  0  0  0  0  0  0  0  0
   10.0495  -14.2514   28.3006 C   0  0  1  0  0  0  0  0  0  0  0  0
   11.1745  -13.5636   27.5035 C   0  0  0  0  0  0  0  0  0  0  0  0
   10.2933  -15.6802   28.4773 C   0  0  0  0  0  0  0  0  0  0  0  0
   10.4303  -16.5727   27.3168 C   0  0  2  0  0  0  0  0  0  0  0  0
    9.9689  -15.8912   26.0957 N   0  0  0  0  0  0  0  0  0  0  0  0
    9.8488  -17.9036   27.3427 C   0  0  0  0  0  0  0  0  0  0  0  0
    8.7795  -18.2234   26.4879 O   0  0  0  0  0  0  0  0  0  0  0  0
   10.2492  -18.8082   28.0966 O   0  0  0  0  0  0  0  0  0  0  0  0
  1  2  1  0
  2  3  2  0
  4  5  1  0
  4  2  1  0
  5  7  1  0
  5  6  1  6
  7  8  2  0
  9  7  1  0
 10  9  1  0
 11 12  1  0
 10 11  1  1
 12 17  2  0
 13 12  1  0
 13 14  2  0
 14 15  1  0
 15 16  2  0
 17 16  1  0
 18 10  1  0
 19 18  2  0
 21 20  1  1
 21 22  1  0
 23 21  1  0
 24 25  1  0
 24 23  1  1
 25 18  1  0
 26 24  1  0
 27 26  1  0
 28 26  2  0
M  END
$$$$
