QEM.pdb
     RDKit          3D

 27 26  0  0  1  0  0  0  0  0999 V2000
   27.6841  -11.3934  -15.7364 N   0  0  0  0  0  0  0  0  0  0  0  0
   27.6738  -12.6995  -16.2724 C   0  0  0  0  0  0  0  0  0  0  0  0
   28.5812  -13.4992  -15.9756 O   0  0  0  0  0  0  0  0  0  0  0  0
   26.5926  -13.1071  -17.1773 C   0  0  0  0  0  0  0  0  0  0  0  0
   25.5197  -12.1003  -17.3892 C   0  0  0  0  0  0  0  0  0  0  0  0
   24.1514  -12.5036  -16.9036 C   0  0  2  0  0  0  0  0  0  0  0  0
   23.7413  -13.6071  -17.7906 N   0  0  0  0  0  0  0  0  0  0  0  0
   23.2204  -11.3545  -17.0463 C   0  0  0  0  0  0  0  0  0  0  0  0
   22.9316  -10.9506  -18.2016 O   0  0  0  0  0  0  0  0  0  0  0  0
   22.6357  -10.6828  -15.9610 N   0  0  0  0  0  0  0  0  0  0  0  0
   21.7335   -9.5455  -16.2084 C   0  0  1  0  0  0  0  0  0  0  0  0
   20.4619   -9.8928  -15.4764 C   0  0  0  0  0  0  0  0  0  0  0  0
   19.6066  -10.9150  -16.1340 C   0  0  0  0  0  0  0  0  0  0  0  0
   18.4115  -11.1584  -15.2768 C   0  0  0  0  0  0  0  0  0  0  0  0
   18.2436  -10.5091  -14.2408 O   0  0  0  0  0  0  0  0  0  0  0  0
   22.3535   -8.2878  -15.7203 C   0  0  0  0  0  0  0  0  0  0  0  0
   23.0876   -8.3498  -14.7147 O   0  0  0  0  0  0  0  0  0  0  0  0
   17.5074  -12.1224  -15.6731 O   0  0  0  0  0  0  0  0  0  0  0  0
   24.4502   -0.8933  -17.0459 C   0  0  0  0  0  0  0  0  0  0  0  0
   23.4850   -2.2715  -17.7166 S   0  0  0  0  0  0  0  0  0  0  0  0
   23.4114   -3.5694  -16.4527 C   0  0  0  0  0  0  0  0  0  0  0  0
   22.7337   -4.7983  -16.9548 C   0  0  0  0  0  0  0  0  0  0  0  0
   22.6705   -5.8469  -15.8933 C   0  0  2  0  0  0  0  0  0  0  0  0
   22.0976   -7.0894  -16.3953 N   0  0  0  0  0  0  0  0  0  0  0  0
   21.8888   -5.3777  -14.7348 C   0  0  0  0  0  0  0  0  0  0  0  0
   22.2781   -4.5873  -13.8502 O   0  0  0  0  0  0  0  0  0  0  0  0
   20.5597   -5.8372  -14.5561 O   0  0  0  0  0  0  0  0  0  0  0  0
  1  2  1  0
  2  4  1  0
  2  3  2  0
  4  5  1  0
  5  6  1  0
  6  7  1  6
  8  6  1  0
  8 10  1  0
  9  8  2  0
 10 11  1  0
 11 16  1  0
 11 12  1  1
 13 12  1  0
 13 14  1  0
 14 15  2  0
 16 17  2  0
 16 24  1  0
 18 14  1  0
 19 20  1  0
 20 21  1  0
 22 21  1  0
 23 22  1  6
 23 25  1  0
 24 23  1  0
 25 26  2  0
 25 27  1  0
M  END
$$$$
