QEM.pdb
     RDKit          3D

 27 26  0  0  1  0  0  0  0  0999 V2000
   27.9566  -21.4050  -16.8478 N   0  0  0  0  0  0  0  0  0  0  0  0
   28.7917  -21.8125  -15.7848 C   0  0  0  0  0  0  0  0  0  0  0  0
   29.2877  -22.9549  -15.7883 O   0  0  0  0  0  0  0  0  0  0  0  0
   29.0701  -20.8865  -14.6809 C   0  0  0  0  0  0  0  0  0  0  0  0
   28.3658  -19.5791  -14.7472 C   0  0  0  0  0  0  0  0  0  0  0  0
   26.8781  -19.6584  -14.9736 C   0  0  2  0  0  0  0  0  0  0  0  0
   26.5728  -18.5513  -15.8975 N   0  0  0  0  0  0  0  0  0  0  0  0
   26.1727  -19.4604  -13.6810 C   0  0  0  0  0  0  0  0  0  0  0  0
   26.3146  -18.3669  -13.0765 O   0  0  0  0  0  0  0  0  0  0  0  0
   25.3483  -20.4274  -13.0843 N   0  0  0  0  0  0  0  0  0  0  0  0
   24.7100  -20.1414  -11.7884 C   0  0  1  0  0  0  0  0  0  0  0  0
   23.2801  -20.5905  -11.9527 C   0  0  0  0  0  0  0  0  0  0  0  0
   22.5438  -19.9717  -13.0858 C   0  0  0  0  0  0  0  0  0  0  0  0
   21.1523  -20.5063  -13.0977 C   0  0  0  0  0  0  0  0  0  0  0  0
   20.5971  -20.8257  -12.0427 O   0  0  0  0  0  0  0  0  0  0  0  0
   25.4186  -20.8629  -10.7012 C   0  0  0  0  0  0  0  0  0  0  0  0
   25.6389  -22.0803  -10.8543 O   0  0  0  0  0  0  0  0  0  0  0  0
   20.5100  -20.6319  -14.3123 O   0  0  0  0  0  0  0  0  0  0  0  0
   28.1915  -18.0705   -5.5882 C   0  0  0  0  0  0  0  0  0  0  0  0
   28.1943  -19.7733   -4.9704 S   0  0  0  0  0  0  0  0  0  0  0  0
   27.2950  -20.8015   -6.1625 C   0  0  0  0  0  0  0  0  0  0  0  0
   27.0007  -20.0642   -7.4240 C   0  0  0  0  0  0  0  0  0  0  0  0
   26.1917  -20.9026   -8.3583 C   0  0  2  0  0  0  0  0  0  0  0  0
   25.8111  -20.1631   -9.5551 N   0  0  0  0  0  0  0  0  0  0  0  0
   24.9812  -21.4161   -7.6918 C   0  0  0  0  0  0  0  0  0  0  0  0
   23.8186  -20.9832   -7.8325 O   0  0  0  0  0  0  0  0  0  0  0  0
   25.0879  -22.5060   -6.7917 O   0  0  0  0  0  0  0  0  0  0  0  0
  1  2  1  0
  2  4  1  0
  2  3  2  0
  4  5  1  0
  5  6  1  0
  6  7  1  6
  8  6  1  0
  8 10  1  0
  9  8  2  0
 10 11  1  0
 11 16  1  0
 11 12  1  6
 13 12  1  0
 13 14  1  0
 14 15  2  0
 16 17  2  0
 16 24  1  0
 18 14  1  0
 19 20  1  0
 20 21  1  0
 22 21  1  0
 23 22  1  1
 23 25  1  0
 24 23  1  0
 25 26  2  0
 25 27  1  0
M  END
$$$$
