QEM.pdb
     RDKit          3D

 27 26  0  0  1  0  0  0  0  0999 V2000
   27.3624  -22.5377  -16.1824 N   0  0  0  0  0  0  0  0  0  0  0  0
   28.5312  -22.6718  -16.9630 C   0  0  0  0  0  0  0  0  0  0  0  0
   29.5024  -23.3139  -16.5208 O   0  0  0  0  0  0  0  0  0  0  0  0
   28.5946  -22.0527  -18.2921 C   0  0  0  0  0  0  0  0  0  0  0  0
   27.3318  -21.4321  -18.7716 C   0  0  0  0  0  0  0  0  0  0  0  0
   27.2717  -19.9299  -18.6691 C   0  0  2  0  0  0  0  0  0  0  0  0
   28.6412  -19.5162  -18.3147 N   0  0  0  0  0  0  0  0  0  0  0  0
   26.3228  -19.5482  -17.5914 C   0  0  0  0  0  0  0  0  0  0  0  0
   26.7777  -19.0199  -16.5448 O   0  0  0  0  0  0  0  0  0  0  0  0
   24.9344  -19.7418  -17.6676 N   0  0  0  0  0  0  0  0  0  0  0  0
   24.0607  -19.1687  -16.6299 C   0  0  1  0  0  0  0  0  0  0  0  0
   22.7217  -18.9973  -17.3016 C   0  0  0  0  0  0  0  0  0  0  0  0
   21.6406  -18.4537  -16.4386 C   0  0  0  0  0  0  0  0  0  0  0  0
   20.3899  -18.3607  -17.2444 C   0  0  0  0  0  0  0  0  0  0  0  0
   19.8970  -17.2602  -17.5074 O   0  0  0  0  0  0  0  0  0  0  0  0
   24.0035  -20.0744  -15.4548 C   0  0  0  0  0  0  0  0  0  0  0  0
   23.9446  -21.3017  -15.6650 O   0  0  0  0  0  0  0  0  0  0  0  0
   19.8057  -19.5311  -17.6832 O   0  0  0  0  0  0  0  0  0  0  0  0
   25.9684  -21.3389   -8.0621 C   0  0  0  0  0  0  0  0  0  0  0  0
   25.8399  -20.0635   -9.3419 S   0  0  0  0  0  0  0  0  0  0  0  0
   24.8638  -20.7421  -10.7109 C   0  0  0  0  0  0  0  0  0  0  0  0
   24.8239  -19.8170  -11.8789 C   0  0  0  0  0  0  0  0  0  0  0  0
   24.0583  -20.4175  -13.0118 C   0  0  2  0  0  0  0  0  0  0  0  0
   24.0172  -19.5291  -14.1665 N   0  0  0  0  0  0  0  0  0  0  0  0
   22.6830  -20.7525  -12.5999 C   0  0  0  0  0  0  0  0  0  0  0  0
   21.6817  -20.0124  -12.6921 O   0  0  0  0  0  0  0  0  0  0  0  0
   22.4125  -22.0248  -12.0364 O   0  0  0  0  0  0  0  0  0  0  0  0
  1  2  1  0
  2  4  1  0
  2  3  2  0
  4  5  1  0
  5  6  1  0
  6  7  1  1
  8  6  1  0
  8 10  1  0
  9  8  2  0
 10 11  1  0
 11 16  1  0
 11 12  1  6
 13 12  1  0
 13 14  1  0
 14 15  2  0
 16 17  2  0
 16 24  1  0
 18 14  1  0
 19 20  1  0
 20 21  1  0
 22 21  1  0
 23 22  1  1
 23 25  1  0
 24 23  1  0
 25 26  2  0
 25 27  1  0
M  END
$$$$
