QEM.pdb
     RDKit          3D

 27 26  0  0  1  0  0  0  0  0999 V2000
   17.9363  -16.6955  -15.4529 N   0  0  0  0  0  0  0  0  0  0  0  0
   16.6343  -16.2023  -15.2180 C   0  0  0  0  0  0  0  0  0  0  0  0
   15.7865  -16.9277  -14.6647 O   0  0  0  0  0  0  0  0  0  0  0  0
   16.2878  -14.8365  -15.6280 C   0  0  0  0  0  0  0  0  0  0  0  0
   17.4006  -14.0386  -16.2067 C   0  0  0  0  0  0  0  0  0  0  0  0
   17.0974  -13.3671  -17.5212 C   0  0  2  0  0  0  0  0  0  0  0  0
   17.4010  -14.3810  -18.5470 N   0  0  0  0  0  0  0  0  0  0  0  0
   17.9836  -12.1860  -17.6859 C   0  0  0  0  0  0  0  0  0  0  0  0
   18.9409  -12.2573  -18.4981 O   0  0  0  0  0  0  0  0  0  0  0  0
   17.8186  -10.9811  -16.9845 N   0  0  0  0  0  0  0  0  0  0  0  0
   18.7094   -9.8438  -17.2701 C   0  0  1  0  0  0  0  0  0  0  0  0
   17.8261   -8.6256  -17.1742 C   0  0  0  0  0  0  0  0  0  0  0  0
   17.5816   -7.9130  -18.4554 C   0  0  0  0  0  0  0  0  0  0  0  0
   16.5948   -6.8224  -18.2126 C   0  0  0  0  0  0  0  0  0  0  0  0
   16.0437   -6.2567  -19.1610 O   0  0  0  0  0  0  0  0  0  0  0  0
   19.8316   -9.8190  -16.2982 C   0  0  0  0  0  0  0  0  0  0  0  0
   19.6013  -10.1875  -15.1298 O   0  0  0  0  0  0  0  0  0  0  0  0
   16.3189   -6.4681  -16.9080 O   0  0  0  0  0  0  0  0  0  0  0  0
   27.3273  -10.1603  -14.4873 C   0  0  0  0  0  0  0  0  0  0  0  0
   26.0752  -10.4631  -15.7607 S   0  0  0  0  0  0  0  0  0  0  0  0
   24.5318   -9.6769  -15.2248 C   0  0  0  0  0  0  0  0  0  0  0  0
   23.4492   -9.8265  -16.2383 C   0  0  0  0  0  0  0  0  0  0  0  0
   22.1662   -9.2460  -15.7412 C   0  0  2  0  0  0  0  0  0  0  0  0
   21.0946   -9.3886  -16.7188 N   0  0  0  0  0  0  0  0  0  0  0  0
   22.3305   -7.8223  -15.3958 C   0  0  0  0  0  0  0  0  0  0  0  0
   22.2714   -6.8573  -16.1859 O   0  0  0  0  0  0  0  0  0  0  0  0
   22.5836   -7.4542  -14.0505 O   0  0  0  0  0  0  0  0  0  0  0  0
  1  2  1  0
  2  4  1  0
  2  3  2  0
  4  5  1  0
  5  6  1  0
  6  7  1  6
  8  6  1  0
  8 10  1  0
  9  8  2  0
 10 11  1  0
 11 16  1  0
 11 12  1  1
 13 12  1  0
 13 14  1  0
 14 15  2  0
 16 17  2  0
 16 24  1  0
 18 14  1  0
 19 20  1  0
 20 21  1  0
 22 21  1  0
 23 22  1  6
 23 25  1  0
 24 23  1  0
 25 26  2  0
 25 27  1  0
M  END
$$$$
