QEM.pdb
     RDKit          3D

 27 26  0  0  1  0  0  0  0  0999 V2000
   24.3722  -20.6187   -9.9468 N   0  0  0  0  0  0  0  0  0  0  0  0
   25.6670  -20.3328   -9.4617 C   0  0  0  0  0  0  0  0  0  0  0  0
   25.8551  -20.1962   -8.2382 O   0  0  0  0  0  0  0  0  0  0  0  0
   26.7844  -20.1978  -10.4035 C   0  0  0  0  0  0  0  0  0  0  0  0
   26.4207  -20.2595  -11.8435 C   0  0  0  0  0  0  0  0  0  0  0  0
   25.5986  -21.4550  -12.2507 C   0  0  2  0  0  0  0  0  0  0  0  0
   26.5781  -22.4468  -12.7295 N   0  0  0  0  0  0  0  0  0  0  0  0
   24.6781  -21.0672  -13.3505 C   0  0  0  0  0  0  0  0  0  0  0  0
   25.0529  -21.2335  -14.5393 O   0  0  0  0  0  0  0  0  0  0  0  0
   23.4015  -20.5204  -13.1452 N   0  0  0  0  0  0  0  0  0  0  0  0
   22.5306  -20.2485  -14.3011 C   0  0  1  0  0  0  0  0  0  0  0  0
   21.1280  -20.4520  -13.7864 C   0  0  0  0  0  0  0  0  0  0  0  0
   20.7233  -21.8673  -13.5813 C   0  0  0  0  0  0  0  0  0  0  0  0
   19.2895  -21.8981  -13.1746 C   0  0  0  0  0  0  0  0  0  0  0  0
   18.9715  -21.7275  -11.9944 O   0  0  0  0  0  0  0  0  0  0  0  0
   22.7653  -18.8711  -14.8031 C   0  0  0  0  0  0  0  0  0  0  0  0
   22.9428  -17.9657  -13.9648 O   0  0  0  0  0  0  0  0  0  0  0  0
   18.3379  -22.1211  -14.1485 O   0  0  0  0  0  0  0  0  0  0  0  0
   28.9286  -16.4066  -17.4564 C   0  0  0  0  0  0  0  0  0  0  0  0
   27.8386  -17.6126  -16.6573 S   0  0  0  0  0  0  0  0  0  0  0  0
   26.1253  -17.1446  -17.0217 C   0  0  0  0  0  0  0  0  0  0  0  0
   25.1469  -18.0678  -16.3796 C   0  0  0  0  0  0  0  0  0  0  0  0
   23.7456  -17.6983  -16.7402 C   0  0  2  0  0  0  0  0  0  0  0  0
   22.7795  -18.6361  -16.1822 N   0  0  0  0  0  0  0  0  0  0  0  0
   23.5778  -17.6317  -18.2033 C   0  0  0  0  0  0  0  0  0  0  0  0
   24.0107  -16.7364  -18.9581 O   0  0  0  0  0  0  0  0  0  0  0  0
   22.8624  -18.6567  -18.8721 O   0  0  0  0  0  0  0  0  0  0  0  0
  1  2  1  0
  2  4  1  0
  2  3  2  0
  4  5  1  0
  5  6  1  0
  6  7  1  6
  8  6  1  0
  8 10  1  0
  9  8  2  0
 10 11  1  0
 11 16  1  0
 11 12  1  1
 13 12  1  0
 13 14  1  0
 14 15  2  0
 16 17  2  0
 16 24  1  0
 18 14  1  0
 19 20  1  0
 20 21  1  0
 22 21  1  0
 23 22  1  6
 23 25  1  0
 24 23  1  0
 25 26  2  0
 25 27  1  0
M  END
$$$$
