IEI.pdb
     RDKit          3D

 26 25  0  0  1  0  0  0  0  0999 V2000
   21.2033  -16.2866  -18.4542 C   0  0  0  0  0  0  0  0  0  0  0  0
   20.4700  -16.6330  -17.1863 C   0  0  0  0  0  0  0  0  0  0  0  0
   21.0004  -17.9043  -16.5556 C   0  0  2  0  0  0  0  0  0  0  0  0
   19.8039  -18.6518  -16.0037 C   0  0  0  0  0  0  0  0  0  0  0  0
   22.0057  -17.5940  -15.4609 C   0  0  2  0  0  0  0  0  0  0  0  0
   22.9736  -16.6609  -15.9619 N   0  0  0  0  0  0  0  0  0  0  0  0
   22.6886  -18.8972  -15.1520 C   0  0  0  0  0  0  0  0  0  0  0  0
   22.0220  -19.8875  -14.7469 O   0  0  0  0  0  0  0  0  0  0  0  0
   24.0845  -19.0636  -15.3009 N   0  0  0  0  0  0  0  0  0  0  0  0
   24.7941  -20.3011  -14.9331 C   0  0  1  0  0  0  0  0  0  0  0  0
   25.7701  -20.6320  -16.0240 C   0  0  0  0  0  0  0  0  0  0  0  0
   25.1312  -21.4178  -17.1204 C   0  0  0  0  0  0  0  0  0  0  0  0
   25.1517  -22.8931  -16.7425 C   0  0  0  0  0  0  0  0  0  0  0  0
   26.2154  -23.3615  -16.2780 O   0  0  0  0  0  0  0  0  0  0  0  0
   25.5391  -20.0994  -13.6627 C   0  0  0  0  0  0  0  0  0  0  0  0
   25.8925  -18.9198  -13.3900 O   0  0  0  0  0  0  0  0  0  0  0  0
   24.0386  -23.6986  -16.9025 O   0  0  0  0  0  0  0  0  0  0  0  0
   26.1045  -18.8667   -8.3578 C   0  0  0  0  0  0  0  0  0  0  0  0
   26.8417  -19.7574   -9.3288 C   0  0  0  0  0  0  0  0  0  0  0  0
   25.9750  -19.9830  -10.5403 C   0  0  2  0  0  0  0  0  0  0  0  0
   24.6442  -20.4953   -9.9550 C   0  0  0  0  0  0  0  0  0  0  0  0
   26.5396  -21.0223  -11.4942 C   0  0  2  0  0  0  0  0  0  0  0  0
   25.8681  -21.1260  -12.7508 N   0  0  0  0  0  0  0  0  0  0  0  0
   26.7564  -22.3393  -10.9084 C   0  0  0  0  0  0  0  0  0  0  0  0
   25.9853  -23.2994  -11.2070 O   0  0  0  0  0  0  0  0  0  0  0  0
   27.7735  -22.6521  -10.0153 O   0  0  0  0  0  0  0  0  0  0  0  0
  2  3  1  0
  2  1  1  0
  3  4  1  1
  5  6  1  6
  5  3  1  0
  7  5  1  0
  8  7  2  0
  9  7  1  0
 10  9  1  0
 11 12  1  0
 10 11  1  6
 12 13  1  0
 13 14  2  0
 15 16  2  0
 15 10  1  0
 17 13  1  0
 18 19  1  0
 19 20  1  0
 20 22  1  0
 20 21  1  1
 22 23  1  6
 23 15  1  0
 24 22  1  0
 25 24  2  0
 26 24  1  0
M  END
$$$$
