IEI.pdb
     RDKit          3D

 26 25  0  0  1  0  0  0  0  0999 V2000
   27.6244  -15.2159  -17.7954 C   0  0  0  0  0  0  0  0  0  0  0  0
   27.2901  -16.6720  -17.9771 C   0  0  0  0  0  0  0  0  0  0  0  0
   26.6466  -17.2631  -16.7393 C   0  0  2  0  0  0  0  0  0  0  0  0
   27.5035  -18.4398  -16.3196 C   0  0  0  0  0  0  0  0  0  0  0  0
   25.2187  -17.6966  -17.0189 C   0  0  2  0  0  0  0  0  0  0  0  0
   24.5066  -16.6080  -17.6241 N   0  0  0  0  0  0  0  0  0  0  0  0
   24.6132  -17.9984  -15.6764 C   0  0  0  0  0  0  0  0  0  0  0  0
   24.6489  -17.1418  -14.7522 O   0  0  0  0  0  0  0  0  0  0  0  0
   23.9884  -19.2358  -15.3991 N   0  0  0  0  0  0  0  0  0  0  0  0
   23.4363  -19.5838  -14.0783 C   0  0  1  0  0  0  0  0  0  0  0  0
   22.2150  -20.4319  -14.2815 C   0  0  0  0  0  0  0  0  0  0  0  0
   21.6243  -20.8738  -12.9840 C   0  0  0  0  0  0  0  0  0  0  0  0
   20.3618  -21.6770  -13.2684 C   0  0  0  0  0  0  0  0  0  0  0  0
   20.4348  -22.9242  -13.1939 O   0  0  0  0  0  0  0  0  0  0  0  0
   24.4378  -20.3574  -13.2984 C   0  0  0  0  0  0  0  0  0  0  0  0
   24.9724  -21.3431  -13.8758 O   0  0  0  0  0  0  0  0  0  0  0  0
   19.1686  -21.0601  -13.5990 O   0  0  0  0  0  0  0  0  0  0  0  0
   29.2001  -19.9413  -12.5824 C   0  0  0  0  0  0  0  0  0  0  0  0
   27.8075  -20.5247  -12.5761 C   0  0  0  0  0  0  0  0  0  0  0  0
   27.1906  -20.3030  -11.2196 C   0  0  2  0  0  0  0  0  0  0  0  0
   28.0579  -21.1560  -10.2729 C   0  0  0  0  0  0  0  0  0  0  0  0
   25.7463  -20.7679  -11.1364 C   0  0  2  0  0  0  0  0  0  0  0  0
   24.8290  -20.0627  -11.9741 N   0  0  0  0  0  0  0  0  0  0  0  0
   25.2213  -20.9001   -9.7831 C   0  0  0  0  0  0  0  0  0  0  0  0
   25.4216  -21.9662   -9.1281 O   0  0  0  0  0  0  0  0  0  0  0  0
   24.4907  -19.9241   -9.1171 O   0  0  0  0  0  0  0  0  0  0  0  0
  2  3  1  0
  2  1  1  0
  3  4  1  6
  5  6  1  1
  5  3  1  0
  7  5  1  0
  8  7  2  0
  9  7  1  0
 10  9  1  0
 11 12  1  0
 10 11  1  6
 12 13  1  0
 13 14  2  0
 15 16  2  0
 15 10  1  0
 17 13  1  0
 18 19  1  0
 19 20  1  0
 20 22  1  0
 20 21  1  1
 22 23  1  6
 23 15  1  0
 24 22  1  0
 25 24  2  0
 26 24  1  0
M  END
$$$$
