IEI.pdb
     RDKit          3D

 26 25  0  0  1  0  0  0  0  0999 V2000
   28.6000  -15.7709  -18.3280 C   0  0  0  0  0  0  0  0  0  0  0  0
   28.2250  -17.2270  -18.2614 C   0  0  0  0  0  0  0  0  0  0  0  0
   27.3873  -17.5397  -17.0383 C   0  0  2  0  0  0  0  0  0  0  0  0
   28.2005  -18.4878  -16.1811 C   0  0  0  0  0  0  0  0  0  0  0  0
   26.0571  -18.1582  -17.4297 C   0  0  2  0  0  0  0  0  0  0  0  0
   25.3111  -17.2141  -18.2110 N   0  0  0  0  0  0  0  0  0  0  0  0
   25.3308  -18.4156  -16.1388 C   0  0  0  0  0  0  0  0  0  0  0  0
   24.9385  -17.4544  -15.4238 O   0  0  0  0  0  0  0  0  0  0  0  0
   25.0619  -19.7256  -15.6806 N   0  0  0  0  0  0  0  0  0  0  0  0
   24.3085  -20.0111  -14.4471 C   0  0  1  0  0  0  0  0  0  0  0  0
   23.1878  -20.9516  -14.7811 C   0  0  0  0  0  0  0  0  0  0  0  0
   22.3791  -21.3009  -13.5762 C   0  0  0  0  0  0  0  0  0  0  0  0
   21.1218  -20.4414  -13.5636 C   0  0  0  0  0  0  0  0  0  0  0  0
   20.7109  -20.0249  -12.4572 O   0  0  0  0  0  0  0  0  0  0  0  0
   25.1994  -20.6562  -13.4472 C   0  0  0  0  0  0  0  0  0  0  0  0
   25.9578  -21.5726  -13.8664 O   0  0  0  0  0  0  0  0  0  0  0  0
   20.4477  -20.1250  -14.7294 O   0  0  0  0  0  0  0  0  0  0  0  0
   29.0516  -20.0433   -8.9373 C   0  0  0  0  0  0  0  0  0  0  0  0
   27.8717  -20.8852   -9.3601 C   0  0  0  0  0  0  0  0  0  0  0  0
   27.0650  -20.1209  -10.3773 C   0  0  2  0  0  0  0  0  0  0  0  0
   26.4210  -18.9825   -9.5615 C   0  0  0  0  0  0  0  0  0  0  0  0
   25.9738  -20.9565  -11.0254 C   0  0  2  0  0  0  0  0  0  0  0  0
   25.2561  -20.3120  -12.0790 N   0  0  0  0  0  0  0  0  0  0  0  0
   25.0605  -21.6037  -10.0919 C   0  0  0  0  0  0  0  0  0  0  0  0
   25.4694  -22.5580   -9.3654 O   0  0  0  0  0  0  0  0  0  0  0  0
   23.7267  -21.2562   -9.9178 O   0  0  0  0  0  0  0  0  0  0  0  0
  2  3  1  0
  2  1  1  0
  3  4  1  1
  5  6  1  6
  5  3  1  0
  7  5  1  0
  8  7  2  0
  9  7  1  0
 10  9  1  0
 11 12  1  0
 10 11  1  6
 12 13  1  0
 13 14  2  0
 15 16  2  0
 15 10  1  0
 17 13  1  0
 18 19  1  0
 19 20  1  0
 20 22  1  0
 20 21  1  1
 22 23  1  6
 23 15  1  0
 24 22  1  0
 25 24  2  0
 26 24  1  0
M  END
$$$$
