IEI.pdb
     RDKit          3D

 26 25  0  0  1  0  0  0  0  0999 V2000
   15.6525  -14.4488  -18.4184 C   0  0  0  0  0  0  0  0  0  0  0  0
   15.8485  -13.7133  -17.1199 C   0  0  0  0  0  0  0  0  0  0  0  0
   16.6988  -12.4718  -17.2961 C   0  0  2  0  0  0  0  0  0  0  0  0
   18.0370  -12.9306  -17.8380 C   0  0  0  0  0  0  0  0  0  0  0  0
   16.8645  -11.7310  -15.9812 C   0  0  2  0  0  0  0  0  0  0  0  0
   15.5702  -11.3702  -15.4783 N   0  0  0  0  0  0  0  0  0  0  0  0
   17.6333  -10.4817  -16.3104 C   0  0  0  0  0  0  0  0  0  0  0  0
   18.6039  -10.5218  -17.1137 O   0  0  0  0  0  0  0  0  0  0  0  0
   17.3047   -9.2299  -15.7415 N   0  0  0  0  0  0  0  0  0  0  0  0
   18.0789   -8.0015  -15.9905 C   0  0  1  0  0  0  0  0  0  0  0  0
   17.1685   -6.8215  -15.8144 C   0  0  0  0  0  0  0  0  0  0  0  0
   16.1210   -6.7657  -16.8763 C   0  0  0  0  0  0  0  0  0  0  0  0
   14.7816   -6.4426  -16.2270 C   0  0  0  0  0  0  0  0  0  0  0  0
   14.7720   -6.1997  -14.9993 O   0  0  0  0  0  0  0  0  0  0  0  0
   19.1959   -7.9002  -15.0150 C   0  0  0  0  0  0  0  0  0  0  0  0
   18.9596   -8.2808  -13.8360 O   0  0  0  0  0  0  0  0  0  0  0  0
   13.6083   -6.4154  -16.9592 O   0  0  0  0  0  0  0  0  0  0  0  0
   23.1987  -10.7845  -14.7121 C   0  0  0  0  0  0  0  0  0  0  0  0
   22.0975   -9.7790  -14.4754 C   0  0  0  0  0  0  0  0  0  0  0  0
   22.6673   -8.3903  -14.6047 C   0  0  2  0  0  0  0  0  0  0  0  0
   23.6763   -8.2931  -13.4435 C   0  0  0  0  0  0  0  0  0  0  0  0
   21.6209   -7.2985  -14.4562 C   0  0  2  0  0  0  0  0  0  0  0  0
   20.4879   -7.4178  -15.3179 N   0  0  0  0  0  0  0  0  0  0  0  0
   22.1464   -5.9390  -14.4704 C   0  0  0  0  0  0  0  0  0  0  0  0
   22.1394   -5.2692  -15.5460 O   0  0  0  0  0  0  0  0  0  0  0  0
   22.6765   -5.2822  -13.3670 O   0  0  0  0  0  0  0  0  0  0  0  0
  2  3  1  0
  2  1  1  0
  3  4  1  1
  5  6  1  6
  5  3  1  0
  7  5  1  0
  8  7  2  0
  9  7  1  0
 10  9  1  0
 11 12  1  0
 10 11  1  1
 12 13  1  0
 13 14  2  0
 15 16  2  0
 15 10  1  0
 17 13  1  0
 18 19  1  0
 19 20  1  0
 20 22  1  0
 20 21  1  1
 22 23  1  6
 23 15  1  0
 24 22  1  0
 25 24  2  0
 26 24  1  0
M  END
$$$$
