IEI.pdb
     RDKit          3D

 26 25  0  0  1  0  0  0  0  0999 V2000
   20.7449  -21.0914  -14.5138 C   0  0  0  0  0  0  0  0  0  0  0  0
   20.5012  -20.7371  -13.0715 C   0  0  0  0  0  0  0  0  0  0  0  0
   21.6307  -21.2038  -12.1760 C   0  0  2  0  0  0  0  0  0  0  0  0
   21.0516  -22.2560  -11.2527 C   0  0  0  0  0  0  0  0  0  0  0  0
   22.2182  -20.0465  -11.3882 C   0  0  2  0  0  0  0  0  0  0  0  0
   22.6316  -19.0186  -12.2999 N   0  0  0  0  0  0  0  0  0  0  0  0
   23.4269  -20.6014  -10.6871 C   0  0  0  0  0  0  0  0  0  0  0  0
   23.3159  -21.5801   -9.9005 O   0  0  0  0  0  0  0  0  0  0  0  0
   24.7175  -20.0572  -10.8782 N   0  0  0  0  0  0  0  0  0  0  0  0
   25.9352  -20.6402  -10.2885 C   0  0  1  0  0  0  0  0  0  0  0  0
   27.0532  -20.5113  -11.2812 C   0  0  0  0  0  0  0  0  0  0  0  0
   27.1574  -21.7142  -12.1587 C   0  0  0  0  0  0  0  0  0  0  0  0
   27.7948  -21.3037  -13.4797 C   0  0  0  0  0  0  0  0  0  0  0  0
   28.1725  -20.1166  -13.6011 O   0  0  0  0  0  0  0  0  0  0  0  0
   26.3010  -19.9039   -9.0501 C   0  0  0  0  0  0  0  0  0  0  0  0
   25.8583  -18.7286   -8.9337 O   0  0  0  0  0  0  0  0  0  0  0  0
   27.9563  -22.2035  -14.5179 O   0  0  0  0  0  0  0  0  0  0  0  0
   27.6967  -22.5299   -4.1856 C   0  0  0  0  0  0  0  0  0  0  0  0
   27.0472  -21.5584   -5.1416 C   0  0  0  0  0  0  0  0  0  0  0  0
   28.1127  -20.6825   -5.7477 C   0  0  2  0  0  0  0  0  0  0  0  0
   28.6125  -19.8319   -4.5634 C   0  0  0  0  0  0  0  0  0  0  0  0
   27.5844  -19.7665   -6.8390 C   0  0  2  0  0  0  0  0  0  0  0  0
   27.0957  -20.4277   -8.0072 N   0  0  0  0  0  0  0  0  0  0  0  0
   28.4679  -18.6632   -7.1950 C   0  0  0  0  0  0  0  0  0  0  0  0
   29.3303  -18.8136   -8.1111 O   0  0  0  0  0  0  0  0  0  0  0  0
   28.4509  -17.4092   -6.5975 O   0  0  0  0  0  0  0  0  0  0  0  0
  2  3  1  0
  2  1  1  0
  3  4  1  1
  5  6  1  6
  5  3  1  0
  7  5  1  0
  8  7  2  0
  9  7  1  0
 10  9  1  0
 11 12  1  0
 10 11  1  6
 12 13  1  0
 13 14  2  0
 15 16  2  0
 15 10  1  0
 17 13  1  0
 18 19  1  0
 19 20  1  0
 20 22  1  0
 20 21  1  1
 22 23  1  6
 23 15  1  0
 24 22  1  0
 25 24  2  0
 26 24  1  0
M  END
$$$$
