IEI.pdb
     RDKit          3D

 26 25  0  0  1  0  0  0  0  0999 V2000
   27.6787  -14.6280  -18.1753 C   0  0  0  0  0  0  0  0  0  0  0  0
   27.4393  -16.1129  -18.1186 C   0  0  0  0  0  0  0  0  0  0  0  0
   26.6787  -16.5158  -16.8718 C   0  0  2  0  0  0  0  0  0  0  0  0
   27.5772  -17.4566  -16.0955 C   0  0  0  0  0  0  0  0  0  0  0  0
   25.3616  -17.1829  -17.2259 C   0  0  2  0  0  0  0  0  0  0  0  0
   24.5115  -16.2287  -17.8781 N   0  0  0  0  0  0  0  0  0  0  0  0
   24.7418  -17.5839  -15.9163 C   0  0  0  0  0  0  0  0  0  0  0  0
   24.2512  -16.7129  -15.1483 O   0  0  0  0  0  0  0  0  0  0  0  0
   24.6843  -18.9331  -15.4984 N   0  0  0  0  0  0  0  0  0  0  0  0
   24.0353  -19.3644  -14.2481 C   0  0  1  0  0  0  0  0  0  0  0  0
   22.8896  -20.2697  -14.5944 C   0  0  0  0  0  0  0  0  0  0  0  0
   22.2645  -20.8642  -13.3764 C   0  0  0  0  0  0  0  0  0  0  0  0
   20.9196  -20.1905  -13.1370 C   0  0  0  0  0  0  0  0  0  0  0  0
   20.1179  -20.1314  -14.0963 O   0  0  0  0  0  0  0  0  0  0  0  0
   25.0052  -20.1125  -13.4059 C   0  0  0  0  0  0  0  0  0  0  0  0
   25.7799  -20.9106  -14.0005 O   0  0  0  0  0  0  0  0  0  0  0  0
   20.5840  -19.6580  -11.9052 O   0  0  0  0  0  0  0  0  0  0  0  0
   26.7701  -17.9278   -8.6216 C   0  0  0  0  0  0  0  0  0  0  0  0
   26.9547  -18.7155   -9.8965 C   0  0  0  0  0  0  0  0  0  0  0  0
   26.2229  -20.0264   -9.7717 C   0  0  2  0  0  0  0  0  0  0  0  0
   27.1693  -20.9013   -8.9262 C   0  0  0  0  0  0  0  0  0  0  0  0
   25.9732  -20.7015  -11.1100 C   0  0  2  0  0  0  0  0  0  0  0  0
   25.1186  -19.9867  -12.0041 N   0  0  0  0  0  0  0  0  0  0  0  0
   25.5851  -22.1040  -11.0268 C   0  0  0  0  0  0  0  0  0  0  0  0
   24.3595  -22.4185  -10.9591 O   0  0  0  0  0  0  0  0  0  0  0  0
   26.4725  -23.1729  -11.0145 O   0  0  0  0  0  0  0  0  0  0  0  0
  2  3  1  0
  2  1  1  0
  3  4  1  6
  5  6  1  1
  5  3  1  0
  7  5  1  0
  8  7  2  0
  9  7  1  0
 10  9  1  0
 11 12  1  0
 10 11  1  6
 12 13  1  0
 13 14  2  0
 15 16  2  0
 15 10  1  0
 17 13  1  0
 18 19  1  0
 19 20  1  0
 20 22  1  0
 20 21  1  1
 22 23  1  1
 23 15  1  0
 24 22  1  0
 25 24  2  0
 26 24  1  0
M  END
$$$$
