IEI.pdb
     RDKit          3D

 26 25  0  0  1  0  0  0  0  0999 V2000
   26.8331  -18.6861  -18.6936 C   0  0  0  0  0  0  0  0  0  0  0  0
   26.8959  -19.6413  -17.5322 C   0  0  0  0  0  0  0  0  0  0  0  0
   28.0999  -19.3806  -16.6502 C   0  0  2  0  0  0  0  0  0  0  0  0
   29.3212  -19.4527  -17.5437 C   0  0  0  0  0  0  0  0  0  0  0  0
   28.1835  -20.3958  -15.5243 C   0  0  2  0  0  0  0  0  0  0  0  0
   27.8244  -21.6896  -16.0300 N   0  0  0  0  0  0  0  0  0  0  0  0
   27.1651  -19.9622  -14.5069 C   0  0  0  0  0  0  0  0  0  0  0  0
   27.3136  -18.8819  -13.8746 O   0  0  0  0  0  0  0  0  0  0  0  0
   26.0168  -20.7358  -14.2219 N   0  0  0  0  0  0  0  0  0  0  0  0
   25.0331  -20.3705  -13.1877 C   0  0  1  0  0  0  0  0  0  0  0  0
   23.6959  -20.9223  -13.5870 C   0  0  0  0  0  0  0  0  0  0  0  0
   22.6314  -20.5619  -12.6047 C   0  0  0  0  0  0  0  0  0  0  0  0
   21.3193  -21.1946  -13.0496 C   0  0  0  0  0  0  0  0  0  0  0  0
   20.2889  -20.9240  -12.3927 O   0  0  0  0  0  0  0  0  0  0  0  0
   25.4289  -20.9597  -11.8816 C   0  0  0  0  0  0  0  0  0  0  0  0
   25.9753  -22.0961  -11.9107 O   0  0  0  0  0  0  0  0  0  0  0  0
   21.2558  -22.0417  -14.1414 O   0  0  0  0  0  0  0  0  0  0  0  0
   28.3875  -19.9324   -6.8377 C   0  0  0  0  0  0  0  0  0  0  0  0
   27.1982  -20.6944   -7.3714 C   0  0  0  0  0  0  0  0  0  0  0  0
   26.7716  -20.0811   -8.6797 C   0  0  2  0  0  0  0  0  0  0  0  0
   26.3278  -18.6559   -8.2948 C   0  0  0  0  0  0  0  0  0  0  0  0
   25.6100  -20.8119   -9.3320 C   0  0  2  0  0  0  0  0  0  0  0  0
   25.2410  -20.3377  -10.6280 N   0  0  0  0  0  0  0  0  0  0  0  0
   24.4363  -20.9792   -8.4840 C   0  0  0  0  0  0  0  0  0  0  0  0
   23.3423  -20.4240   -8.8012 O   0  0  0  0  0  0  0  0  0  0  0  0
   24.4051  -21.7224   -7.3108 O   0  0  0  0  0  0  0  0  0  0  0  0
  2  3  1  0
  2  1  1  0
  3  4  1  6
  5  6  1  6
  5  3  1  0
  7  5  1  0
  8  7  2  0
  9  7  1  0
 10  9  1  0
 11 12  1  0
 10 11  1  6
 12 13  1  0
 13 14  2  0
 15 16  2  0
 15 10  1  0
 17 13  1  0
 18 19  1  0
 19 20  1  0
 20 22  1  0
 20 21  1  1
 22 23  1  6
 23 15  1  0
 24 22  1  0
 25 24  2  0
 26 24  1  0
M  END
$$$$
