WAW.pdb
     RDKit          3D

 34 37  0  0  1  0  0  0  0  0999 V2000
    6.6552  -18.5438   23.0573 N   0  0  0  0  0  0  0  0  0  0  0  0
    7.4716  -17.3482   23.1946 C   0  0  1  0  0  0  0  0  0  0  0  0
    7.7661  -17.0653   24.6512 C   0  0  0  0  0  0  0  0  0  0  0  0
    6.9217  -16.0083   25.2079 C   0  0  0  0  0  0  0  0  0  0  0  0
    5.9103  -16.1903   26.1312 C   0  0  0  0  0  0  0  0  0  0  0  0
    5.3270  -15.0157   26.4117 N   0  0  0  0  0  0  0  0  0  0  0  0
    5.9598  -14.0566   25.6653 C   0  0  0  0  0  0  0  0  0  0  0  0
    5.7522  -12.7042   25.5734 C   0  0  0  0  0  0  0  0  0  0  0  0
    6.5313  -11.9407   24.7331 C   0  0  0  0  0  0  0  0  0  0  0  0
    7.5225  -12.5223   23.9795 C   0  0  0  0  0  0  0  0  0  0  0  0
    7.7373  -13.8807   24.0683 C   0  0  0  0  0  0  0  0  0  0  0  0
    6.9649  -14.6754   24.9077 C   0  0  0  0  0  0  0  0  0  0  0  0
    8.7852  -17.7260   22.5573 C   0  0  0  0  0  0  0  0  0  0  0  0
    9.1234  -18.9396   22.4541 O   0  0  0  0  0  0  0  0  0  0  0  0
   11.4313  -15.8558   20.6180 C   0  0  0  0  0  0  0  0  0  0  0  0
   10.9454  -17.0213   21.4620 C   0  0  2  0  0  0  0  0  0  0  0  0
    9.6758  -16.7612   22.0578 N   0  0  0  0  0  0  0  0  0  0  0  0
   11.9438  -17.1553   22.5706 C   0  0  0  0  0  0  0  0  0  0  0  0
   13.1639  -17.3026   22.3031 O   0  0  0  0  0  0  0  0  0  0  0  0
   11.5109  -17.1157   23.9211 N   0  0  0  0  0  0  0  0  0  0  0  0
   12.4054  -17.4331   24.9820 C   0  0  1  0  0  0  0  0  0  0  0  0
   11.7906  -17.6697   26.3178 C   0  0  0  0  0  0  0  0  0  0  0  0
   10.7625  -16.6141   26.6085 C   0  0  0  0  0  0  0  0  0  0  0  0
    9.4887  -16.5208   26.0763 C   0  0  0  0  0  0  0  0  0  0  0  0
    8.8712  -15.4323   26.5814 N   0  0  0  0  0  0  0  0  0  0  0  0
    9.7250  -14.8365   27.4185 C   0  0  0  0  0  0  0  0  0  0  0  0
    9.5296  -13.6779   28.1709 C   0  0  0  0  0  0  0  0  0  0  0  0
   10.5581  -13.2541   28.9630 C   0  0  0  0  0  0  0  0  0  0  0  0
   11.7455  -13.9482   29.0154 C   0  0  0  0  0  0  0  0  0  0  0  0
   11.9378  -15.0928   28.2720 C   0  0  0  0  0  0  0  0  0  0  0  0
   10.9199  -15.5461   27.4631 C   0  0  0  0  0  0  0  0  0  0  0  0
   13.4403  -18.4455   24.6648 C   0  0  0  0  0  0  0  0  0  0  0  0
   14.6372  -18.2849   24.8204 O   0  0  0  0  0  0  0  0  0  0  0  0
   12.9618  -19.6660   24.1477 O   0  0  0  0  0  0  0  0  0  0  0  0
  2  1  1  1
  2  3  1  0
  4  3  1  0
  5  4  2  0
  6  5  1  0
  7  6  1  0
  7 12  2  0
  8  9  2  0
  8  7  1  0
  9 10  1  0
 10 11  2  0
 12 11  1  0
 12  4  1  0
 13  2  1  0
 13 14  2  0
 16 15  1  6
 16 17  1  0
 17 13  1  0
 18 16  1  0
 19 18  2  0
 20 18  1  0
 21 22  1  1
 21 20  1  0
 22 23  1  0
 23 31  1  0
 24 25  1  0
 24 23  2  0
 25 26  1  0
 26 31  2  0
 26 27  1  0
 27 28  2  0
 28 29  1  0
 30 29  2  0
 31 30  1  0
 32 34  1  0
 32 21  1  0
 33 32  2  0
M  END
$$$$
