WAW.pdb
     RDKit          3D

 34 37  0  0  1  0  0  0  0  0999 V2000
   14.6335  -16.1153   22.4701 N   0  0  0  0  0  0  0  0  0  0  0  0
   13.9844  -16.7315   23.6162 C   0  0  1  0  0  0  0  0  0  0  0  0
   14.3951  -16.0423   24.8987 C   0  0  0  0  0  0  0  0  0  0  0  0
   13.8622  -16.6979   26.0931 C   0  0  0  0  0  0  0  0  0  0  0  0
   14.2261  -17.9486   26.5533 C   0  0  0  0  0  0  0  0  0  0  0  0
   13.5321  -18.2510   27.6604 N   0  0  0  0  0  0  0  0  0  0  0  0
   12.7058  -17.1911   27.9269 C   0  0  0  0  0  0  0  0  0  0  0  0
   11.7932  -16.9905   28.9307 C   0  0  0  0  0  0  0  0  0  0  0  0
   11.0680  -15.8210   28.9822 C   0  0  0  0  0  0  0  0  0  0  0  0
   11.2493  -14.8446   28.0323 C   0  0  0  0  0  0  0  0  0  0  0  0
   12.1659  -15.0393   27.0218 C   0  0  0  0  0  0  0  0  0  0  0  0
   12.9107  -16.2106   26.9451 C   0  0  0  0  0  0  0  0  0  0  0  0
   12.5208  -16.4272   23.4160 C   0  0  0  0  0  0  0  0  0  0  0  0
   12.0626  -15.2779   23.6746 O   0  0  0  0  0  0  0  0  0  0  0  0
    9.5782  -18.2172   21.8748 C   0  0  0  0  0  0  0  0  0  0  0  0
   10.2003  -17.2490   22.8660 C   0  0  2  0  0  0  0  0  0  0  0  0
   11.6175  -17.3922   22.9401 N   0  0  0  0  0  0  0  0  0  0  0  0
    9.6391  -17.6294   24.2018 C   0  0  0  0  0  0  0  0  0  0  0  0
   10.1010  -18.6243   24.8171 O   0  0  0  0  0  0  0  0  0  0  0  0
    8.5869  -16.8663   24.7703 N   0  0  0  0  0  0  0  0  0  0  0  0
    8.0762  -17.1792   26.0618 C   0  0  1  0  0  0  0  0  0  0  0  0
    7.6939  -16.0236   26.9202 C   0  0  0  0  0  0  0  0  0  0  0  0
    6.5662  -15.2597   26.2873 C   0  0  0  0  0  0  0  0  0  0  0  0
    5.2336  -15.6286   26.2362 C   0  0  0  0  0  0  0  0  0  0  0  0
    4.5316  -14.6806   25.5805 N   0  0  0  0  0  0  0  0  0  0  0  0
    5.3893  -13.7234   25.2162 C   0  0  0  0  0  0  0  0  0  0  0  0
    5.1230  -12.5468   24.5152 C   0  0  0  0  0  0  0  0  0  0  0  0
    6.1719  -11.7122   24.2537 C   0  0  0  0  0  0  0  0  0  0  0  0
    7.4467  -12.0238   24.6687 C   0  0  0  0  0  0  0  0  0  0  0  0
    7.7090  -13.1862   25.3613 C   0  0  0  0  0  0  0  0  0  0  0  0
    6.6728  -14.0489   25.6405 C   0  0  0  0  0  0  0  0  0  0  0  0
    7.0594  -18.2566   26.1037 C   0  0  0  0  0  0  0  0  0  0  0  0
    6.4450  -18.6674   25.1360 O   0  0  0  0  0  0  0  0  0  0  0  0
    6.8164  -18.8173   27.3735 O   0  0  0  0  0  0  0  0  0  0  0  0
  2  1  1  6
  2  3  1  0
  4  3  1  0
  5  4  2  0
  6  5  1  0
  7  6  1  0
  7 12  2  0
  8  9  2  0
  8  7  1  0
  9 10  1  0
 10 11  2  0
 12 11  1  0
 12  4  1  0
 13  2  1  0
 13 14  2  0
 16 15  1  6
 16 17  1  0
 17 13  1  0
 18 16  1  0
 19 18  2  0
 20 18  1  0
 21 22  1  6
 21 20  1  0
 22 23  1  0
 23 31  1  0
 24 25  1  0
 24 23  2  0
 25 26  1  0
 26 31  2  0
 26 27  1  0
 27 28  2  0
 28 29  1  0
 30 29  2  0
 31 30  1  0
 32 34  1  0
 32 21  1  0
 33 32  2  0
M  END
$$$$
