WAW.pdb
     RDKit          3D

 34 37  0  0  1  0  0  0  0  0999 V2000
    9.6731  -16.7875   20.3123 N   0  0  0  0  0  0  0  0  0  0  0  0
    9.0323  -15.7013   21.0364 C   0  0  1  0  0  0  0  0  0  0  0  0
    8.0854  -14.9415   20.1339 C   0  0  0  0  0  0  0  0  0  0  0  0
    8.7767  -14.0307   19.2213 C   0  0  0  0  0  0  0  0  0  0  0  0
    8.1743  -13.2602   18.2457 C   0  0  0  0  0  0  0  0  0  0  0  0
    9.1006  -12.5563   17.5786 N   0  0  0  0  0  0  0  0  0  0  0  0
   10.3198  -12.8689   18.1201 C   0  0  0  0  0  0  0  0  0  0  0  0
   11.5826  -12.4359   17.8063 C   0  0  0  0  0  0  0  0  0  0  0  0
   12.6696  -12.9088   18.5069 C   0  0  0  0  0  0  0  0  0  0  0  0
   12.5029  -13.8167   19.5251 C   0  0  0  0  0  0  0  0  0  0  0  0
   11.2364  -14.2548   19.8464 C   0  0  0  0  0  0  0  0  0  0  0  0
   10.1215  -13.7947   19.1549 C   0  0  0  0  0  0  0  0  0  0  0  0
    8.1771  -16.3999   22.0637 C   0  0  0  0  0  0  0  0  0  0  0  0
    7.1860  -15.8110   22.5819 O   0  0  0  0  0  0  0  0  0  0  0  0
    8.4008  -19.7648   23.8129 C   0  0  0  0  0  0  0  0  0  0  0  0
    7.7836  -18.4031   23.5453 C   0  0  2  0  0  0  0  0  0  0  0  0
    8.4401  -17.7149   22.4823 N   0  0  0  0  0  0  0  0  0  0  0  0
    8.0040  -17.6116   24.7978 C   0  0  0  0  0  0  0  0  0  0  0  0
    7.2369  -16.6557   25.0801 O   0  0  0  0  0  0  0  0  0  0  0  0
    9.0783  -17.9418   25.6635 N   0  0  0  0  0  0  0  0  0  0  0  0
    9.4391  -17.0800   26.7376 C   0  0  1  0  0  0  0  0  0  0  0  0
    8.3164  -16.4825   27.5127 C   0  0  0  0  0  0  0  0  0  0  0  0
    7.6543  -15.3980   26.7118 C   0  0  0  0  0  0  0  0  0  0  0  0
    6.4377  -15.4691   26.0564 C   0  0  0  0  0  0  0  0  0  0  0  0
    6.1882  -14.2909   25.4472 N   0  0  0  0  0  0  0  0  0  0  0  0
    7.2181  -13.4791   25.7018 C   0  0  0  0  0  0  0  0  0  0  0  0
    7.4044  -12.1624   25.2796 C   0  0  0  0  0  0  0  0  0  0  0  0
    8.5492  -11.5271   25.6677 C   0  0  0  0  0  0  0  0  0  0  0  0
    9.4854  -12.1663   26.4485 C   0  0  0  0  0  0  0  0  0  0  0  0
    9.3006  -13.4670   26.8653 C   0  0  0  0  0  0  0  0  0  0  0  0
    8.1565  -14.1353   26.4906 C   0  0  0  0  0  0  0  0  0  0  0  0
   10.5162  -17.5798   27.6245 C   0  0  0  0  0  0  0  0  0  0  0  0
   11.0378  -18.6761   27.5309 O   0  0  0  0  0  0  0  0  0  0  0  0
   10.9357  -16.6918   28.6351 O   0  0  0  0  0  0  0  0  0  0  0  0
  2  1  1  6
  2  3  1  0
  4  3  1  0
  5  4  2  0
  6  5  1  0
  7  6  1  0
  7 12  2  0
  8  9  2  0
  8  7  1  0
  9 10  1  0
 10 11  2  0
 12 11  1  0
 12  4  1  0
 13  2  1  0
 13 14  2  0
 16 15  1  1
 16 17  1  0
 17 13  1  0
 18 16  1  0
 19 18  2  0
 20 18  1  0
 21 22  1  1
 21 20  1  0
 22 23  1  0
 23 31  1  0
 24 25  1  0
 24 23  2  0
 25 26  1  0
 26 31  2  0
 26 27  1  0
 27 28  2  0
 28 29  1  0
 30 29  2  0
 31 30  1  0
 32 34  1  0
 32 21  1  0
 33 32  2  0
M  END
$$$$
