WAW.pdb
     RDKit          3D

 34 37  0  0  1  0  0  0  0  0999 V2000
    7.6702  -18.7059   23.0389 N   0  0  0  0  0  0  0  0  0  0  0  0
    8.4643  -17.4945   22.9100 C   0  0  1  0  0  0  0  0  0  0  0  0
    7.8871  -16.3830   23.7584 C   0  0  0  0  0  0  0  0  0  0  0  0
    7.2988  -15.3059   22.9621 C   0  0  0  0  0  0  0  0  0  0  0  0
    5.9861  -14.8808   23.0304 C   0  0  0  0  0  0  0  0  0  0  0  0
    5.7778  -13.8888   22.1522 N   0  0  0  0  0  0  0  0  0  0  0  0
    6.9626  -13.6629   21.5023 C   0  0  0  0  0  0  0  0  0  0  0  0
    7.2927  -12.7698   20.5154 C   0  0  0  0  0  0  0  0  0  0  0  0
    8.5741  -12.7377   20.0122 C   0  0  0  0  0  0  0  0  0  0  0  0
    9.5340  -13.5968   20.4912 C   0  0  0  0  0  0  0  0  0  0  0  0
    9.2092  -14.4959   21.4839 C   0  0  0  0  0  0  0  0  0  0  0  0
    7.9232  -14.5505   22.0091 C   0  0  0  0  0  0  0  0  0  0  0  0
    9.7916  -17.8589   23.5264 C   0  0  0  0  0  0  0  0  0  0  0  0
    9.8787  -18.8215   24.3409 O   0  0  0  0  0  0  0  0  0  0  0  0
   13.3518  -16.6467   23.0161 C   0  0  0  0  0  0  0  0  0  0  0  0
   12.2767  -17.4661   23.7085 C   0  0  2  0  0  0  0  0  0  0  0  0
   10.9705  -17.1562   23.2263 N   0  0  0  0  0  0  0  0  0  0  0  0
   12.3320  -17.0613   25.1497 C   0  0  0  0  0  0  0  0  0  0  0  0
   13.3834  -17.2470   25.8146 O   0  0  0  0  0  0  0  0  0  0  0  0
   11.1976  -16.4691   25.7622 N   0  0  0  0  0  0  0  0  0  0  0  0
   11.2577  -15.9980   27.1043 C   0  0  1  0  0  0  0  0  0  0  0  0
   10.6368  -14.6701   27.3680 C   0  0  0  0  0  0  0  0  0  0  0  0
    9.1730  -14.7079   27.0340 C   0  0  0  0  0  0  0  0  0  0  0  0
    8.3005  -15.7647   27.2251 C   0  0  0  0  0  0  0  0  0  0  0  0
    7.0701  -15.4122   26.7967 N   0  0  0  0  0  0  0  0  0  0  0  0
    7.1458  -14.1593   26.3395 C   0  0  0  0  0  0  0  0  0  0  0  0
    6.1274  -13.3755   25.7962 C   0  0  0  0  0  0  0  0  0  0  0  0
    6.4465  -12.1108   25.3916 C   0  0  0  0  0  0  0  0  0  0  0  0
    7.7297  -11.6287   25.5169 C   0  0  0  0  0  0  0  0  0  0  0  0
    8.7352  -12.4034   26.0539 C   0  0  0  0  0  0  0  0  0  0  0  0
    8.4457  -13.6833   26.4711 C   0  0  0  0  0  0  0  0  0  0  0  0
   10.9014  -16.9895   28.1467 C   0  0  0  0  0  0  0  0  0  0  0  0
   10.4211  -18.0861   27.9245 O   0  0  0  0  0  0  0  0  0  0  0  0
   11.1519  -16.5941   29.4759 O   0  0  0  0  0  0  0  0  0  0  0  0
  2  1  1  1
  2  3  1  0
  4  3  1  0
  5  4  2  0
  6  5  1  0
  7  6  1  0
  7 12  2  0
  8  9  2  0
  8  7  1  0
  9 10  1  0
 10 11  2  0
 12 11  1  0
 12  4  1  0
 13  2  1  0
 13 14  2  0
 16 15  1  6
 16 17  1  0
 17 13  1  0
 18 16  1  0
 19 18  2  0
 20 18  1  0
 21 22  1  6
 21 20  1  0
 22 23  1  0
 23 31  1  0
 24 25  1  0
 24 23  2  0
 25 26  1  0
 26 31  2  0
 26 27  1  0
 27 28  2  0
 28 29  1  0
 30 29  2  0
 31 30  1  0
 32 34  1  0
 32 21  1  0
 33 32  2  0
M  END
$$$$
