WAW.pdb
     RDKit          3D

 34 37  0  0  1  0  0  0  0  0999 V2000
    8.6863  -18.7367   21.5888 N   0  0  0  0  0  0  0  0  0  0  0  0
    9.1749  -17.4047   21.9078 C   0  0  1  0  0  0  0  0  0  0  0  0
    8.1433  -16.6313   22.6990 C   0  0  0  0  0  0  0  0  0  0  0  0
    7.2482  -15.8441   21.8509 C   0  0  0  0  0  0  0  0  0  0  0  0
    5.9086  -16.1050   21.6364 C   0  0  0  0  0  0  0  0  0  0  0  0
    5.3933  -15.1992   20.7922 N   0  0  0  0  0  0  0  0  0  0  0  0
    6.4031  -14.3390   20.4495 C   0  0  0  0  0  0  0  0  0  0  0  0
    6.4139  -13.2476   19.6192 C   0  0  0  0  0  0  0  0  0  0  0  0
    7.5764  -12.5339   19.4304 C   0  0  0  0  0  0  0  0  0  0  0  0
    8.7351  -12.9051   20.0693 C   0  0  0  0  0  0  0  0  0  0  0  0
    8.7307  -14.0001   20.9062 C   0  0  0  0  0  0  0  0  0  0  0  0
    7.5717  -14.7391   21.1141 C   0  0  0  0  0  0  0  0  0  0  0  0
   10.3332  -17.6530   22.8413 C   0  0  0  0  0  0  0  0  0  0  0  0
   10.4425  -18.7554   23.4499 O   0  0  0  0  0  0  0  0  0  0  0  0
   13.6133  -15.9023   23.4279 C   0  0  0  0  0  0  0  0  0  0  0  0
   12.5166  -16.8714   23.8336 C   0  0  2  0  0  0  0  0  0  0  0  0
   11.3257  -16.6856   23.0708 N   0  0  0  0  0  0  0  0  0  0  0  0
   12.1953  -16.5374   25.2581 C   0  0  0  0  0  0  0  0  0  0  0  0
   12.7833  -15.5826   25.8276 O   0  0  0  0  0  0  0  0  0  0  0  0
   11.2278  -17.2994   25.9624 N   0  0  0  0  0  0  0  0  0  0  0  0
   10.8768  -16.9708   27.3023 C   0  0  1  0  0  0  0  0  0  0  0  0
   10.4880  -15.5557   27.5566 C   0  0  0  0  0  0  0  0  0  0  0  0
    9.0439  -15.3442   27.2018 C   0  0  0  0  0  0  0  0  0  0  0  0
    8.1297  -16.3083   26.8154 C   0  0  0  0  0  0  0  0  0  0  0  0
    6.9361  -15.7242   26.5798 N   0  0  0  0  0  0  0  0  0  0  0  0
    7.0756  -14.4154   26.8074 C   0  0  0  0  0  0  0  0  0  0  0  0
    6.1132  -13.4117   26.6929 C   0  0  0  0  0  0  0  0  0  0  0  0
    6.4932  -12.1318   26.9798 C   0  0  0  0  0  0  0  0  0  0  0  0
    7.7820  -11.8448   27.3684 C   0  0  0  0  0  0  0  0  0  0  0  0
    8.7322  -12.8367   27.4816 C   0  0  0  0  0  0  0  0  0  0  0  0
    8.3806  -14.1377   27.1990 C   0  0  0  0  0  0  0  0  0  0  0  0
    9.9623  -17.9229   27.9758 C   0  0  0  0  0  0  0  0  0  0  0  0
    9.3554  -18.8162   27.4133 O   0  0  0  0  0  0  0  0  0  0  0  0
    9.8125  -17.7457   29.3658 O   0  0  0  0  0  0  0  0  0  0  0  0
  2  1  1  1
  2  3  1  0
  4  3  1  0
  5  4  2  0
  6  5  1  0
  7  6  1  0
  7 12  2  0
  8  9  2  0
  8  7  1  0
  9 10  1  0
 10 11  2  0
 12 11  1  0
 12  4  1  0
 13  2  1  0
 13 14  2  0
 16 15  1  6
 16 17  1  0
 17 13  1  0
 18 16  1  0
 19 18  2  0
 20 18  1  0
 21 22  1  6
 21 20  1  0
 22 23  1  0
 23 31  1  0
 24 25  1  0
 24 23  2  0
 25 26  1  0
 26 31  2  0
 26 27  1  0
 27 28  2  0
 28 29  1  0
 30 29  2  0
 31 30  1  0
 32 34  1  0
 32 21  1  0
 33 32  2  0
M  END
$$$$
