WAW.pdb
     RDKit          3D

 34 37  0  0  1  0  0  0  0  0999 V2000
    7.0393  -17.4070   22.1014 N   0  0  0  0  0  0  0  0  0  0  0  0
    7.6042  -18.0049   20.9022 C   0  0  1  0  0  0  0  0  0  0  0  0
    7.0100  -17.3779   19.6604 C   0  0  0  0  0  0  0  0  0  0  0  0
    7.6187  -16.0903   19.3257 C   0  0  0  0  0  0  0  0  0  0  0  0
    8.2827  -15.7966   18.1504 C   0  0  0  0  0  0  0  0  0  0  0  0
    8.7313  -14.5330   18.1793 N   0  0  0  0  0  0  0  0  0  0  0  0
    8.3599  -13.9949   19.3833 C   0  0  0  0  0  0  0  0  0  0  0  0
    8.5699  -12.7490   19.9163 C   0  0  0  0  0  0  0  0  0  0  0  0
    8.0924  -12.4445   21.1716 C   0  0  0  0  0  0  0  0  0  0  0  0
    7.4021  -13.3816   21.9023 C   0  0  0  0  0  0  0  0  0  0  0  0
    7.1864  -14.6352   21.3718 C   0  0  0  0  0  0  0  0  0  0  0  0
    7.6582  -14.9698   20.1076 C   0  0  0  0  0  0  0  0  0  0  0  0
    9.0552  -17.5949   20.9369 C   0  0  0  0  0  0  0  0  0  0  0  0
    9.8789  -18.0777   20.1085 O   0  0  0  0  0  0  0  0  0  0  0  0
   11.2704  -14.9422   21.7873 C   0  0  0  0  0  0  0  0  0  0  0  0
   10.9208  -16.3813   22.1242 C   0  0  2  0  0  0  0  0  0  0  0  0
    9.5468  -16.6729   21.8759 N   0  0  0  0  0  0  0  0  0  0  0  0
   11.1496  -16.5133   23.5987 C   0  0  0  0  0  0  0  0  0  0  0  0
   12.2538  -16.1741   24.0960 O   0  0  0  0  0  0  0  0  0  0  0  0
   10.1196  -17.0212   24.4317 N   0  0  0  0  0  0  0  0  0  0  0  0
   10.2510  -16.9969   25.8490 C   0  0  1  0  0  0  0  0  0  0  0  0
    9.9685  -15.6963   26.5176 C   0  0  0  0  0  0  0  0  0  0  0  0
    8.5116  -15.3545   26.3898 C   0  0  0  0  0  0  0  0  0  0  0  0
    7.4643  -16.2326   26.1734 C   0  0  0  0  0  0  0  0  0  0  0  0
    6.3061  -15.5421   26.1156 N   0  0  0  0  0  0  0  0  0  0  0  0
    6.5977  -14.2502   26.2895 C   0  0  0  0  0  0  0  0  0  0  0  0
    5.7240  -13.1625   26.3056 C   0  0  0  0  0  0  0  0  0  0  0  0
    6.2587  -11.9212   26.5009 C   0  0  0  0  0  0  0  0  0  0  0  0
    7.6135  -11.7520   26.6754 C   0  0  0  0  0  0  0  0  0  0  0  0
    8.4761  -12.8269   26.6596 C   0  0  0  0  0  0  0  0  0  0  0  0
    7.9680  -14.0918   26.4647 C   0  0  0  0  0  0  0  0  0  0  0  0
    9.6282  -18.1330   26.5687 C   0  0  0  0  0  0  0  0  0  0  0  0
    8.9187  -18.9760   26.0505 O   0  0  0  0  0  0  0  0  0  0  0  0
    9.9018  -18.2044   27.9492 O   0  0  0  0  0  0  0  0  0  0  0  0
  2  1  1  1
  2  3  1  0
  4  3  1  0
  5  4  2  0
  6  5  1  0
  7  6  1  0
  7 12  2  0
  8  9  2  0
  8  7  1  0
  9 10  1  0
 10 11  2  0
 12 11  1  0
 12  4  1  0
 13  2  1  0
 13 14  2  0
 16 15  1  1
 16 17  1  0
 17 13  1  0
 18 16  1  0
 19 18  2  0
 20 18  1  0
 21 22  1  1
 21 20  1  0
 22 23  1  0
 23 31  1  0
 24 25  1  0
 24 23  2  0
 25 26  1  0
 26 31  2  0
 26 27  1  0
 27 28  2  0
 28 29  1  0
 30 29  2  0
 31 30  1  0
 32 34  1  0
 32 21  1  0
 33 32  2  0
M  END
$$$$
