WAW.pdb
     RDKit          3D

 34 37  0  0  1  0  0  0  0  0999 V2000
    8.2644  -18.9503   18.4410 N   0  0  0  0  0  0  0  0  0  0  0  0
    8.7723  -17.6991   18.9806 C   0  0  1  0  0  0  0  0  0  0  0  0
    7.6338  -16.7931   19.3944 C   0  0  0  0  0  0  0  0  0  0  0  0
    8.0642  -15.4182   19.6490 C   0  0  0  0  0  0  0  0  0  0  0  0
    8.8839  -14.6677   18.8284 C   0  0  0  0  0  0  0  0  0  0  0  0
    9.0929  -13.4584   19.3692 N   0  0  0  0  0  0  0  0  0  0  0  0
    8.4061  -13.4163   20.5541 C   0  0  0  0  0  0  0  0  0  0  0  0
    8.2893  -12.4236   21.4928 C   0  0  0  0  0  0  0  0  0  0  0  0
    7.5305  -12.6273   22.6238 C   0  0  0  0  0  0  0  0  0  0  0  0
    6.8835  -13.8229   22.8245 C   0  0  0  0  0  0  0  0  0  0  0  0
    6.9956  -14.8243   21.8842 C   0  0  0  0  0  0  0  0  0  0  0  0
    7.7558  -14.6460   20.7340 C   0  0  0  0  0  0  0  0  0  0  0  0
    9.4784  -18.1070   20.2494 C   0  0  0  0  0  0  0  0  0  0  0  0
    9.1762  -19.1862   20.8339 O   0  0  0  0  0  0  0  0  0  0  0  0
   12.6305  -16.9349   21.9378 C   0  0  0  0  0  0  0  0  0  0  0  0
   11.3120  -17.6888   21.9304 C   0  0  2  0  0  0  0  0  0  0  0  0
   10.4871  -17.3182   20.8274 N   0  0  0  0  0  0  0  0  0  0  0  0
   10.6048  -17.2690   23.1824 C   0  0  0  0  0  0  0  0  0  0  0  0
   11.0576  -16.3193   23.8715 O   0  0  0  0  0  0  0  0  0  0  0  0
    9.4249  -17.9440   23.5886 N   0  0  0  0  0  0  0  0  0  0  0  0
    8.4694  -17.3007   24.4251 C   0  0  1  0  0  0  0  0  0  0  0  0
    8.0959  -15.9075   24.0535 C   0  0  0  0  0  0  0  0  0  0  0  0
    8.3450  -14.9797   25.2080 C   0  0  0  0  0  0  0  0  0  0  0  0
    9.4038  -15.0203   26.0978 C   0  0  0  0  0  0  0  0  0  0  0  0
    9.2730  -14.0206   26.9950 N   0  0  0  0  0  0  0  0  0  0  0  0
    8.1570  -13.3513   26.6931 C   0  0  0  0  0  0  0  0  0  0  0  0
    7.6133  -12.2422   27.3419 C   0  0  0  0  0  0  0  0  0  0  0  0
    6.4505  -11.7242   26.8475 C   0  0  0  0  0  0  0  0  0  0  0  0
    5.8382  -12.2793   25.7467 C   0  0  0  0  0  0  0  0  0  0  0  0
    6.3760  -13.3748   25.1062 C   0  0  0  0  0  0  0  0  0  0  0  0
    7.5478  -13.9207   25.5804 C   0  0  0  0  0  0  0  0  0  0  0  0
    7.2821  -18.1128   24.7818 C   0  0  0  0  0  0  0  0  0  0  0  0
    6.5163  -17.8570   25.6933 O   0  0  0  0  0  0  0  0  0  0  0  0
    7.0612  -19.2537   23.9848 O   0  0  0  0  0  0  0  0  0  0  0  0
  2  1  1  1
  2  3  1  0
  4  3  1  0
  5  4  2  0
  6  5  1  0
  7  6  1  0
  7 12  2  0
  8  9  2  0
  8  7  1  0
  9 10  1  0
 10 11  2  0
 12 11  1  0
 12  4  1  0
 13  2  1  0
 13 14  2  0
 16 15  1  6
 16 17  1  0
 17 13  1  0
 18 16  1  0
 19 18  2  0
 20 18  1  0
 21 22  1  6
 21 20  1  0
 22 23  1  0
 23 31  1  0
 24 25  1  0
 24 23  2  0
 25 26  1  0
 26 31  2  0
 26 27  1  0
 27 28  2  0
 28 29  1  0
 30 29  2  0
 31 30  1  0
 32 34  1  0
 32 21  1  0
 33 32  2  0
M  END
$$$$
