WAW.pdb
     RDKit          3D

 34 37  0  0  1  0  0  0  0  0999 V2000
    6.6551  -17.7333   21.6781 N   0  0  0  0  0  0  0  0  0  0  0  0
    7.4472  -16.7706   22.4268 C   0  0  1  0  0  0  0  0  0  0  0  0
    7.3943  -17.0707   23.9086 C   0  0  0  0  0  0  0  0  0  0  0  0
    6.4583  -16.2090   24.6308 C   0  0  0  0  0  0  0  0  0  0  0  0
    5.2629  -16.6139   25.1925 C   0  0  0  0  0  0  0  0  0  0  0  0
    4.6448  -15.5685   25.7615 N   0  0  0  0  0  0  0  0  0  0  0  0
    5.4404  -14.4696   25.5699 C   0  0  0  0  0  0  0  0  0  0  0  0
    5.2743  -13.1609   25.9445 C   0  0  0  0  0  0  0  0  0  0  0  0
    6.2315  -12.2237   25.6254 C   0  0  0  0  0  0  0  0  0  0  0  0
    7.3603  -12.5870   24.9309 C   0  0  0  0  0  0  0  0  0  0  0  0
    7.5340  -13.9009   24.5528 C   0  0  0  0  0  0  0  0  0  0  0  0
    6.5833  -14.8673   24.8608 C   0  0  0  0  0  0  0  0  0  0  0  0
    8.8641  -17.0395   21.9855 C   0  0  0  0  0  0  0  0  0  0  0  0
    9.1990  -18.1826   21.5625 O   0  0  0  0  0  0  0  0  0  0  0  0
   11.8325  -14.8440   21.2322 C   0  0  0  0  0  0  0  0  0  0  0  0
   11.1988  -16.1851   21.5585 C   0  0  2  0  0  0  0  0  0  0  0  0
    9.8576  -16.0469   22.0239 N   0  0  0  0  0  0  0  0  0  0  0  0
   12.0104  -16.7469   22.6852 C   0  0  0  0  0  0  0  0  0  0  0  0
   13.2354  -16.9806   22.5217 O   0  0  0  0  0  0  0  0  0  0  0  0
   11.3953  -17.0146   23.9353 N   0  0  0  0  0  0  0  0  0  0  0  0
   12.0978  -17.7129   24.9577 C   0  0  1  0  0  0  0  0  0  0  0  0
   11.4956  -17.6745   26.3194 C   0  0  0  0  0  0  0  0  0  0  0  0
   10.7920  -16.3656   26.5372 C   0  0  0  0  0  0  0  0  0  0  0  0
    9.6174  -15.9405   25.9420 C   0  0  0  0  0  0  0  0  0  0  0  0
    9.3082  -14.7066   26.3931 N   0  0  0  0  0  0  0  0  0  0  0  0
   10.2596  -14.3431   27.2575 C   0  0  0  0  0  0  0  0  0  0  0  0
   10.3648  -13.1508   27.9744 C   0  0  0  0  0  0  0  0  0  0  0  0
   11.4377  -13.0025   28.8062 C   0  0  0  0  0  0  0  0  0  0  0  0
   12.3812  -13.9969   28.9309 C   0  0  0  0  0  0  0  0  0  0  0  0
   12.2766  -15.1746   28.2226 C   0  0  0  0  0  0  0  0  0  0  0  0
   11.2063  -15.3547   27.3752 C   0  0  0  0  0  0  0  0  0  0  0  0
   12.5628  -19.0738   24.5993 C   0  0  0  0  0  0  0  0  0  0  0  0
   12.2545  -19.6652   23.5806 O   0  0  0  0  0  0  0  0  0  0  0  0
   13.4202  -19.6911   25.5319 O   0  0  0  0  0  0  0  0  0  0  0  0
  2  1  1  6
  2  3  1  0
  4  3  1  0
  5  4  2  0
  6  5  1  0
  7  6  1  0
  7 12  2  0
  8  9  2  0
  8  7  1  0
  9 10  1  0
 10 11  2  0
 12 11  1  0
 12  4  1  0
 13  2  1  0
 13 14  2  0
 16 15  1  1
 16 17  1  0
 17 13  1  0
 18 16  1  0
 19 18  2  0
 20 18  1  0
 21 22  1  1
 21 20  1  0
 22 23  1  0
 23 31  1  0
 24 25  1  0
 24 23  2  0
 25 26  1  0
 26 31  2  0
 26 27  1  0
 27 28  2  0
 28 29  1  0
 30 29  2  0
 31 30  1  0
 32 34  1  0
 32 21  1  0
 33 32  2  0
M  END
$$$$
