WAW.pdb
     RDKit          3D

 34 37  0  0  1  0  0  0  0  0999 V2000
    8.5579  -18.1037   20.8514 N   0  0  0  0  0  0  0  0  0  0  0  0
    9.0462  -17.1715   21.8550 C   0  0  1  0  0  0  0  0  0  0  0  0
    7.8945  -16.5467   22.6109 C   0  0  0  0  0  0  0  0  0  0  0  0
    7.1444  -15.5804   21.8085 C   0  0  0  0  0  0  0  0  0  0  0  0
    5.8247  -15.7099   21.4210 C   0  0  0  0  0  0  0  0  0  0  0  0
    5.4576  -14.6544   20.6794 N   0  0  0  0  0  0  0  0  0  0  0  0
    6.5454  -13.8274   20.5789 C   0  0  0  0  0  0  0  0  0  0  0  0
    6.7090  -12.6286   19.9335 C   0  0  0  0  0  0  0  0  0  0  0  0
    7.9230  -11.9800   19.9770 C   0  0  0  0  0  0  0  0  0  0  0  0
    8.9809  -12.5238   20.6652 C   0  0  0  0  0  0  0  0  0  0  0  0
    8.8227  -13.7276   21.3172 C   0  0  0  0  0  0  0  0  0  0  0  0
    7.6086  -14.4044   21.2888 C   0  0  0  0  0  0  0  0  0  0  0  0
    9.7815  -18.0455   22.8401 C   0  0  0  0  0  0  0  0  0  0  0  0
    9.9305  -19.2805   22.6162 O   0  0  0  0  0  0  0  0  0  0  0  0
   12.5233  -16.6468   23.4339 C   0  0  0  0  0  0  0  0  0  0  0  0
   11.7076  -17.5119   24.3789 C   0  0  2  0  0  0  0  0  0  0  0  0
   10.3248  -17.5330   24.0300 N   0  0  0  0  0  0  0  0  0  0  0  0
   11.8232  -16.8563   25.7208 C   0  0  0  0  0  0  0  0  0  0  0  0
   12.9507  -16.7309   26.2638 O   0  0  0  0  0  0  0  0  0  0  0  0
   10.6599  -16.3781   26.3770 N   0  0  0  0  0  0  0  0  0  0  0  0
   10.6590  -16.1480   27.7819 C   0  0  1  0  0  0  0  0  0  0  0  0
    9.7633  -15.0649   28.2747 C   0  0  0  0  0  0  0  0  0  0  0  0
    8.5679  -14.9327   27.3750 C   0  0  0  0  0  0  0  0  0  0  0  0
    7.7398  -15.9492   26.9328 C   0  0  0  0  0  0  0  0  0  0  0  0
    6.7792  -15.4305   26.1392 N   0  0  0  0  0  0  0  0  0  0  0  0
    6.9820  -14.1120   26.0697 C   0  0  0  0  0  0  0  0  0  0  0  0
    6.2432  -13.1608   25.3653 C   0  0  0  0  0  0  0  0  0  0  0  0
    6.6457  -11.8583   25.4441 C   0  0  0  0  0  0  0  0  0  0  0  0
    7.7429  -11.4991   26.1936 C   0  0  0  0  0  0  0  0  0  0  0  0
    8.4721  -12.4391   26.8894 C   0  0  0  0  0  0  0  0  0  0  0  0
    8.0921  -13.7612   26.8300 C   0  0  0  0  0  0  0  0  0  0  0  0
   10.5738  -17.3614   28.6287 C   0  0  0  0  0  0  0  0  0  0  0  0
   10.2933  -18.4734   28.2195 O   0  0  0  0  0  0  0  0  0  0  0  0
   10.8427  -17.1696   29.9986 O   0  0  0  0  0  0  0  0  0  0  0  0
  2  1  1  6
  2  3  1  0
  4  3  1  0
  5  4  2  0
  6  5  1  0
  7  6  1  0
  7 12  2  0
  8  9  2  0
  8  7  1  0
  9 10  1  0
 10 11  2  0
 12 11  1  0
 12  4  1  0
 13  2  1  0
 13 14  2  0
 16 15  1  6
 16 17  1  0
 17 13  1  0
 18 16  1  0
 19 18  2  0
 20 18  1  0
 21 22  1  6
 21 20  1  0
 22 23  1  0
 23 31  1  0
 24 25  1  0
 24 23  2  0
 25 26  1  0
 26 31  2  0
 26 27  1  0
 27 28  2  0
 28 29  1  0
 30 29  2  0
 31 30  1  0
 32 34  1  0
 32 21  1  0
 33 32  2  0
M  END
$$$$
