WAW.pdb
     RDKit          3D

 34 37  0  0  1  0  0  0  0  0999 V2000
    6.5778  -17.4920   22.9884 N   0  0  0  0  0  0  0  0  0  0  0  0
    7.7231  -16.6129   23.1616 C   0  0  1  0  0  0  0  0  0  0  0  0
    8.0955  -16.5003   24.6234 C   0  0  0  0  0  0  0  0  0  0  0  0
    7.1795  -15.6465   25.3800 C   0  0  0  0  0  0  0  0  0  0  0  0
    6.2579  -16.0838   26.3116 C   0  0  0  0  0  0  0  0  0  0  0  0
    5.5696  -15.0421   26.8014 N   0  0  0  0  0  0  0  0  0  0  0  0
    6.0426  -13.9136   26.1849 C   0  0  0  0  0  0  0  0  0  0  0  0
    5.6826  -12.5969   26.3169 C   0  0  0  0  0  0  0  0  0  0  0  0
    6.3159  -11.6288   25.5698 C   0  0  0  0  0  0  0  0  0  0  0  0
    7.3123  -11.9690   24.6866 C   0  0  0  0  0  0  0  0  0  0  0  0
    7.6798  -13.2902   24.5502 C   0  0  0  0  0  0  0  0  0  0  0  0
    7.0566  -14.2880   25.2911 C   0  0  0  0  0  0  0  0  0  0  0  0
    8.8543  -17.3474   22.4866 C   0  0  0  0  0  0  0  0  0  0  0  0
    8.6159  -18.2625   21.6479 O   0  0  0  0  0  0  0  0  0  0  0  0
   11.1730  -16.0847   20.7320 C   0  0  0  0  0  0  0  0  0  0  0  0
   11.2792  -17.1332   21.8257 C   0  0  2  0  0  0  0  0  0  0  0  0
   10.2009  -17.0509   22.7558 N   0  0  0  0  0  0  0  0  0  0  0  0
   12.5395  -16.8097   22.5681 C   0  0  0  0  0  0  0  0  0  0  0  0
   13.5458  -16.3867   21.9434 O   0  0  0  0  0  0  0  0  0  0  0  0
   12.5955  -16.9813   23.9752 N   0  0  0  0  0  0  0  0  0  0  0  0
   13.7900  -16.6989   24.6962 C   0  0  1  0  0  0  0  0  0  0  0  0
   13.6758  -15.7117   25.8056 C   0  0  0  0  0  0  0  0  0  0  0  0
   12.4219  -15.9618   26.5937 C   0  0  0  0  0  0  0  0  0  0  0  0
   11.8070  -17.1808   26.8188 C   0  0  0  0  0  0  0  0  0  0  0  0
   10.7020  -16.9925   27.5705 N   0  0  0  0  0  0  0  0  0  0  0  0
   10.6048  -15.6845   27.8240 C   0  0  0  0  0  0  0  0  0  0  0  0
    9.6248  -15.0185   28.5607 C   0  0  0  0  0  0  0  0  0  0  0  0
    9.7348  -13.6629   28.6840 C   0  0  0  0  0  0  0  0  0  0  0  0
   10.7777  -12.9799   28.1005 C   0  0  0  0  0  0  0  0  0  0  0  0
   11.7455  -13.6385   27.3731 C   0  0  0  0  0  0  0  0  0  0  0  0
   11.6628  -15.0055   27.2300 C   0  0  0  0  0  0  0  0  0  0  0  0
   14.5936  -17.8801   25.0905 C   0  0  0  0  0  0  0  0  0  0  0  0
   15.6981  -17.8277   25.6003 O   0  0  0  0  0  0  0  0  0  0  0  0
   14.0002  -19.1333   24.8390 O   0  0  0  0  0  0  0  0  0  0  0  0
  2  1  1  1
  2  3  1  0
  4  3  1  0
  5  4  2  0
  6  5  1  0
  7  6  1  0
  7 12  2  0
  8  9  2  0
  8  7  1  0
  9 10  1  0
 10 11  2  0
 12 11  1  0
 12  4  1  0
 13  2  1  0
 13 14  2  0
 16 15  1  6
 16 17  1  0
 17 13  1  0
 18 16  1  0
 19 18  2  0
 20 18  1  0
 21 22  1  1
 21 20  1  0
 22 23  1  0
 23 31  1  0
 24 25  1  0
 24 23  2  0
 25 26  1  0
 26 31  2  0
 26 27  1  0
 27 28  2  0
 28 29  1  0
 30 29  2  0
 31 30  1  0
 32 34  1  0
 32 21  1  0
 33 32  2  0
M  END
$$$$
