WAW.pdb
     RDKit          3D

 34 37  0  0  1  0  0  0  0  0999 V2000
    6.1759  -18.0520   22.0198 N   0  0  0  0  0  0  0  0  0  0  0  0
    7.3916  -17.2610   21.9154 C   0  0  1  0  0  0  0  0  0  0  0  0
    7.1426  -15.8357   22.3570 C   0  0  0  0  0  0  0  0  0  0  0  0
    7.1446  -14.8863   21.2439 C   0  0  0  0  0  0  0  0  0  0  0  0
    6.0544  -14.5676   20.4576 C   0  0  0  0  0  0  0  0  0  0  0  0
    6.4092  -13.6783   19.5184 N   0  0  0  0  0  0  0  0  0  0  0  0
    7.7426  -13.4133   19.6894 C   0  0  0  0  0  0  0  0  0  0  0  0
    8.5925  -12.5871   18.9999 C   0  0  0  0  0  0  0  0  0  0  0  0
    9.9160  -12.4934   19.3685 C   0  0  0  0  0  0  0  0  0  0  0  0
   10.3992  -13.2236   20.4277 C   0  0  0  0  0  0  0  0  0  0  0  0
    9.5499  -14.0548   21.1258 C   0  0  0  0  0  0  0  0  0  0  0  0
    8.2097  -14.1693   20.7746 C   0  0  0  0  0  0  0  0  0  0  0  0
    8.3153  -17.8717   22.9394 C   0  0  0  0  0  0  0  0  0  0  0  0
    7.8761  -18.2249   24.0708 O   0  0  0  0  0  0  0  0  0  0  0  0
   11.9854  -18.8467   22.9479 C   0  0  0  0  0  0  0  0  0  0  0  0
   10.6378  -18.5988   23.6030 C   0  0  2  0  0  0  0  0  0  0  0  0
    9.6822  -18.0721   22.6843 N   0  0  0  0  0  0  0  0  0  0  0  0
   10.8864  -17.5508   24.6440 C   0  0  0  0  0  0  0  0  0  0  0  0
   11.5592  -16.5275   24.3573 O   0  0  0  0  0  0  0  0  0  0  0  0
   10.3622  -17.7146   25.9521 N   0  0  0  0  0  0  0  0  0  0  0  0
   10.6088  -16.7424   26.9623 C   0  0  1  0  0  0  0  0  0  0  0  0
   10.4159  -15.3182   26.5715 C   0  0  0  0  0  0  0  0  0  0  0  0
    8.9734  -15.0636   26.2397 C   0  0  0  0  0  0  0  0  0  0  0  0
    7.9986  -16.0093   25.9748 C   0  0  0  0  0  0  0  0  0  0  0  0
    6.8290  -15.3866   25.7183 N   0  0  0  0  0  0  0  0  0  0  0  0
    7.0428  -14.0714   25.8141 C   0  0  0  0  0  0  0  0  0  0  0  0
    6.1295  -13.0327   25.6307 C   0  0  0  0  0  0  0  0  0  0  0  0
    6.5839  -11.7537   25.7814 C   0  0  0  0  0  0  0  0  0  0  0  0
    7.8981  -11.5011   26.1031 C   0  0  0  0  0  0  0  0  0  0  0  0
    8.7997  -12.5278   26.2843 C   0  0  0  0  0  0  0  0  0  0  0  0
    8.3728  -13.8288   26.1392 C   0  0  0  0  0  0  0  0  0  0  0  0
   10.0168  -17.0346   28.2893 C   0  0  0  0  0  0  0  0  0  0  0  0
    9.2117  -17.9213   28.5086 O   0  0  0  0  0  0  0  0  0  0  0  0
   10.4426  -16.2026   29.3440 O   0  0  0  0  0  0  0  0  0  0  0  0
  2  1  1  1
  2  3  1  0
  4  3  1  0
  5  4  2  0
  6  5  1  0
  7  6  1  0
  7 12  2  0
  8  9  2  0
  8  7  1  0
  9 10  1  0
 10 11  2  0
 12 11  1  0
 12  4  1  0
 13  2  1  0
 13 14  2  0
 16 15  1  6
 16 17  1  0
 17 13  1  0
 18 16  1  0
 19 18  2  0
 20 18  1  0
 21 22  1  6
 21 20  1  0
 22 23  1  0
 23 31  1  0
 24 25  1  0
 24 23  2  0
 25 26  1  0
 26 31  2  0
 26 27  1  0
 27 28  2  0
 28 29  1  0
 30 29  2  0
 31 30  1  0
 32 34  1  0
 32 21  1  0
 33 32  2  0
M  END
$$$$
