GMY.pdb
     RDKit          3D

 25 25  0  0  1  0  0  0  0  0999 V2000
   28.0677  -21.8420  -15.6623 N   0  0  0  0  0  0  0  0  0  0  0  0
   27.9112  -20.7949  -14.6712 C   0  0  0  0  0  0  0  0  0  0  0  0
   27.0637  -21.3076  -13.5569 C   0  0  0  0  0  0  0  0  0  0  0  0
   26.0933  -22.0894  -13.8116 O   0  0  0  0  0  0  0  0  0  0  0  0
   27.5624  -19.3737   -6.8107 C   0  0  0  0  0  0  0  0  0  0  0  0
   26.5706  -20.8940   -7.0875 S   0  0  0  0  0  0  0  0  0  0  0  0
   25.8070  -20.8451   -8.7060 C   0  0  0  0  0  0  0  0  0  0  0  0
   26.7413  -20.7294   -9.8587 C   0  0  0  0  0  0  0  0  0  0  0  0
   26.1943  -21.0662  -11.1993 C   0  0  2  0  0  0  0  0  0  0  0  0
   27.2862  -20.9628  -12.1995 N   0  0  0  0  0  0  0  0  0  0  0  0
   25.0313  -20.2787  -11.6614 C   0  0  0  0  0  0  0  0  0  0  0  0
   25.2481  -19.2026  -12.3069 O   0  0  0  0  0  0  0  0  0  0  0  0
   18.2844  -18.9163  -16.9060 O   0  0  0  0  0  0  0  0  0  0  0  0
   19.3772  -19.2810  -16.1152 C   0  0  0  0  0  0  0  0  0  0  0  0
   20.1086  -18.3192  -15.4461 C   0  0  0  0  0  0  0  0  0  0  0  0
   21.1895  -18.6764  -14.6636 C   0  0  0  0  0  0  0  0  0  0  0  0
   21.5815  -20.0076  -14.5194 C   0  0  0  0  0  0  0  0  0  0  0  0
   22.7371  -20.3821  -13.6839 C   0  0  0  0  0  0  0  0  0  0  0  0
   22.5292  -20.3599  -12.2219 C   0  0  2  0  0  0  0  0  0  0  0  0
   23.6905  -20.6521  -11.4375 N   0  0  0  0  0  0  0  0  0  0  0  0
   21.2553  -20.9360  -11.7526 C   0  0  0  0  0  0  0  0  0  0  0  0
   21.0633  -22.3246  -11.6695 O   0  0  0  0  0  0  0  0  0  0  0  0
   20.8434  -20.9619  -15.1926 C   0  0  0  0  0  0  0  0  0  0  0  0
   19.7633  -20.5953  -15.9734 C   0  0  0  0  0  0  0  0  0  0  0  0
   20.2754  -20.2420  -11.4050 O   0  0  0  0  0  0  0  0  0  0  0  0
  2  1  1  0
  3  2  1  0
  4  3  2  0
  5  6  1  0
  6  7  1  0
  7  8  1  0
  9  8  1  1
  9 11  1  0
  9 10  1  0
 10  3  1  0
 11 20  1  0
 12 11  2  0
 14 24  2  0
 14 13  1  0
 15 14  1  0
 16 17  1  0
 16 15  2  0
 17 23  2  0
 18 17  1  0
 19 18  1  6
 20 19  1  0
 21 22  1  0
 21 19  1  0
 23 24  1  0
 25 21  2  0
M  END
$$$$
