GMY.pdb
     RDKit          3D

 25 25  0  0  1  0  0  0  0  0999 V2000
   25.9802  -25.6598  -16.0165 N   0  0  0  0  0  0  0  0  0  0  0  0
   26.1771  -24.2269  -16.1215 C   0  0  0  0  0  0  0  0  0  0  0  0
   25.3913  -23.5517  -15.0493 C   0  0  0  0  0  0  0  0  0  0  0  0
   24.1738  -23.8703  -14.8650 O   0  0  0  0  0  0  0  0  0  0  0  0
   25.2649  -20.5181   -7.9227 C   0  0  0  0  0  0  0  0  0  0  0  0
   26.2610  -20.6348   -9.4608 S   0  0  0  0  0  0  0  0  0  0  0  0
   25.2138  -21.0896  -10.8398 C   0  0  0  0  0  0  0  0  0  0  0  0
   25.9108  -21.3098  -12.1361 C   0  0  0  0  0  0  0  0  0  0  0  0
   25.0778  -21.7882  -13.2705 C   0  0  2  0  0  0  0  0  0  0  0  0
   25.9402  -22.5521  -14.2065 N   0  0  0  0  0  0  0  0  0  0  0  0
   24.3263  -20.7621  -14.0246 C   0  0  0  0  0  0  0  0  0  0  0  0
   24.8120  -20.3443  -15.1252 O   0  0  0  0  0  0  0  0  0  0  0  0
   16.4713  -23.6188  -16.1870 O   0  0  0  0  0  0  0  0  0  0  0  0
   17.7130  -23.2294  -15.6778 C   0  0  0  0  0  0  0  0  0  0  0  0
   18.0206  -23.4389  -14.3477 C   0  0  0  0  0  0  0  0  0  0  0  0
   19.2470  -23.0551  -13.8411 C   0  0  0  0  0  0  0  0  0  0  0  0
   20.2133  -22.4473  -14.6434 C   0  0  0  0  0  0  0  0  0  0  0  0
   21.5199  -22.0387  -14.0963 C   0  0  0  0  0  0  0  0  0  0  0  0
   21.7672  -20.5863  -13.9932 C   0  0  2  0  0  0  0  0  0  0  0  0
   23.0950  -20.2211  -13.6021 N   0  0  0  0  0  0  0  0  0  0  0  0
   20.6677  -19.7946  -13.4104 C   0  0  0  0  0  0  0  0  0  0  0  0
   19.9826  -18.8251  -14.1606 O   0  0  0  0  0  0  0  0  0  0  0  0
   19.8959  -22.2424  -15.9723 C   0  0  0  0  0  0  0  0  0  0  0  0
   18.6661  -22.6297  -16.4705 C   0  0  0  0  0  0  0  0  0  0  0  0
   20.2778  -19.9271  -12.2301 O   0  0  0  0  0  0  0  0  0  0  0  0
  2  1  1  0
  3  2  1  0
  4  3  2  0
  5  6  1  0
  6  7  1  0
  7  8  1  0
  9  8  1  1
  9 11  1  0
  9 10  1  0
 10  3  1  0
 11 20  1  0
 12 11  2  0
 14 24  2  0
 14 13  1  0
 15 14  1  0
 16 17  1  0
 16 15  2  0
 17 23  2  0
 18 17  1  0
 19 18  1  1
 20 19  1  0
 21 22  1  0
 21 19  1  0
 23 24  1  0
 25 21  2  0
M  END
$$$$
