GMY.pdb
     RDKit          3D

 25 25  0  0  1  0  0  0  0  0999 V2000
   28.5718  -20.5240  -16.0625 N   0  0  0  0  0  0  0  0  0  0  0  0
   27.5697  -21.4752  -15.6221 C   0  0  0  0  0  0  0  0  0  0  0  0
   26.8233  -20.8918  -14.4709 C   0  0  0  0  0  0  0  0  0  0  0  0
   27.2360  -19.8159  -13.9325 O   0  0  0  0  0  0  0  0  0  0  0  0
   20.7365  -22.8294  -12.5053 C   0  0  0  0  0  0  0  0  0  0  0  0
   20.8617  -21.0696  -11.9967 S   0  0  0  0  0  0  0  0  0  0  0  0
   22.5802  -20.5780  -11.8973 C   0  0  0  0  0  0  0  0  0  0  0  0
   23.4850  -21.1800  -12.9141 C   0  0  0  0  0  0  0  0  0  0  0  0
   24.9305  -20.8516  -12.8011 C   0  0  2  0  0  0  0  0  0  0  0  0
   25.6531  -21.4849  -13.9325 N   0  0  0  0  0  0  0  0  0  0  0  0
   25.5981  -21.2108  -11.5317 C   0  0  0  0  0  0  0  0  0  0  0  0
   25.9479  -22.4225  -11.3546 O   0  0  0  0  0  0  0  0  0  0  0  0
   29.3250  -20.0822   -3.4217 O   0  0  0  0  0  0  0  0  0  0  0  0
   28.8878  -19.9788   -4.7449 C   0  0  0  0  0  0  0  0  0  0  0  0
   27.8674  -19.1097   -5.0787 C   0  0  0  0  0  0  0  0  0  0  0  0
   27.4327  -19.0051   -6.3857 C   0  0  0  0  0  0  0  0  0  0  0  0
   28.0003  -19.7643   -7.4094 C   0  0  0  0  0  0  0  0  0  0  0  0
   27.5308  -19.6491   -8.8022 C   0  0  0  0  0  0  0  0  0  0  0  0
   26.4118  -20.5285   -9.1964 C   0  0  2  0  0  0  0  0  0  0  0  0
   25.8802  -20.2883  -10.5037 N   0  0  0  0  0  0  0  0  0  0  0  0
   25.4349  -20.8287   -8.1330 C   0  0  0  0  0  0  0  0  0  0  0  0
   25.7156  -21.7580   -7.1184 O   0  0  0  0  0  0  0  0  0  0  0  0
   29.0201  -20.6304   -7.0652 C   0  0  0  0  0  0  0  0  0  0  0  0
   29.4486  -20.7285   -5.7547 C   0  0  0  0  0  0  0  0  0  0  0  0
   24.3095  -20.2889   -8.0633 O   0  0  0  0  0  0  0  0  0  0  0  0
  2  1  1  0
  3  2  1  0
  4  3  2  0
  5  6  1  0
  6  7  1  0
  7  8  1  0
  9  8  1  1
  9 11  1  0
  9 10  1  0
 10  3  1  0
 11 20  1  0
 12 11  2  0
 14 24  2  0
 14 13  1  0
 15 14  1  0
 16 17  1  0
 16 15  2  0
 17 23  2  0
 18 17  1  0
 19 18  1  1
 20 19  1  0
 21 22  1  0
 21 19  1  0
 23 24  1  0
 25 21  2  0
M  END
$$$$
