GMY.pdb
     RDKit          3D

 25 25  0  0  1  0  0  0  0  0999 V2000
   24.0256  -13.9206  -19.3525 N   0  0  0  0  0  0  0  0  0  0  0  0
   23.9688  -12.5083  -19.6772 C   0  0  0  0  0  0  0  0  0  0  0  0
   24.2403  -11.7177  -18.4427 C   0  0  0  0  0  0  0  0  0  0  0  0
   23.6022  -11.9792  -17.3740 O   0  0  0  0  0  0  0  0  0  0  0  0
   28.7382  -12.6922  -14.9095 C   0  0  0  0  0  0  0  0  0  0  0  0
   27.3909  -11.4882  -15.2358 S   0  0  0  0  0  0  0  0  0  0  0  0
   27.7471  -10.5527  -16.7201 C   0  0  0  0  0  0  0  0  0  0  0  0
   26.7878   -9.4616  -17.0427 C   0  0  0  0  0  0  0  0  0  0  0  0
   25.3573   -9.8450  -17.1708 C   0  0  2  0  0  0  0  0  0  0  0  0
   25.1920  -10.6675  -18.3954 N   0  0  0  0  0  0  0  0  0  0  0  0
   24.3709   -8.7436  -17.1844 C   0  0  0  0  0  0  0  0  0  0  0  0
   24.3013   -8.0074  -18.2211 O   0  0  0  0  0  0  0  0  0  0  0  0
   18.3834  -12.5306  -17.2065 O   0  0  0  0  0  0  0  0  0  0  0  0
   19.1289  -11.3488  -17.1998 C   0  0  0  0  0  0  0  0  0  0  0  0
   18.7214  -10.2688  -16.4413 C   0  0  0  0  0  0  0  0  0  0  0  0
   19.4560   -9.0989  -16.4326 C   0  0  0  0  0  0  0  0  0  0  0  0
   20.6256   -8.9628  -17.1810 C   0  0  0  0  0  0  0  0  0  0  0  0
   21.4043   -7.7110  -17.1685 C   0  0  0  0  0  0  0  0  0  0  0  0
   22.3858   -7.5552  -16.0761 C   0  0  2  0  0  0  0  0  0  0  0  0
   23.4926   -8.4622  -16.1183 N   0  0  0  0  0  0  0  0  0  0  0  0
   21.8157   -7.2731  -14.7455 C   0  0  0  0  0  0  0  0  0  0  0  0
   20.8698   -6.2533  -14.5526 O   0  0  0  0  0  0  0  0  0  0  0  0
   21.0246  -10.0487  -17.9361 C   0  0  0  0  0  0  0  0  0  0  0  0
   20.2833  -11.2153  -17.9388 C   0  0  0  0  0  0  0  0  0  0  0  0
   22.1303   -7.9084  -13.7158 O   0  0  0  0  0  0  0  0  0  0  0  0
  2  1  1  0
  3  2  1  0
  4  3  2  0
  5  6  1  0
  6  7  1  0
  7  8  1  0
  9  8  1  6
  9 11  1  0
  9 10  1  0
 10  3  1  0
 11 20  1  0
 12 11  2  0
 14 24  2  0
 14 13  1  0
 15 14  1  0
 16 17  1  0
 16 15  2  0
 17 23  2  0
 18 17  1  0
 19 18  1  6
 20 19  1  0
 21 22  1  0
 21 19  1  0
 23 24  1  0
 25 21  2  0
M  END
$$$$
