GMY.pdb
     RDKit          3D

 25 25  0  0  1  0  0  0  0  0999 V2000
   27.9226  -20.4393  -15.8444 N   0  0  0  0  0  0  0  0  0  0  0  0
   26.8100  -20.4135  -16.7742 C   0  0  0  0  0  0  0  0  0  0  0  0
   25.5698  -20.0455  -16.0330 C   0  0  0  0  0  0  0  0  0  0  0  0
   25.6213  -19.8478  -14.7777 O   0  0  0  0  0  0  0  0  0  0  0  0
   22.0159  -18.2310  -20.0149 C   0  0  0  0  0  0  0  0  0  0  0  0
   23.0885  -17.0495  -19.1067 S   0  0  0  0  0  0  0  0  0  0  0  0
   22.8552  -17.2373  -17.3417 C   0  0  0  0  0  0  0  0  0  0  0  0
   22.3196  -18.5526  -16.8964 C   0  0  0  0  0  0  0  0  0  0  0  0
   23.1528  -19.3236  -15.9366 C   0  0  2  0  0  0  0  0  0  0  0  0
   24.3092  -19.9015  -16.6662 N   0  0  0  0  0  0  0  0  0  0  0  0
   22.4731  -20.3915  -15.1726 C   0  0  0  0  0  0  0  0  0  0  0  0
   22.4282  -21.5602  -15.6765 O   0  0  0  0  0  0  0  0  0  0  0  0
   27.2967  -21.9087  -10.9972 O   0  0  0  0  0  0  0  0  0  0  0  0
   25.9202  -21.7333  -11.1618 C   0  0  0  0  0  0  0  0  0  0  0  0
   25.2014  -22.5753  -11.9877 C   0  0  0  0  0  0  0  0  0  0  0  0
   23.8406  -22.4046  -12.1528 C   0  0  0  0  0  0  0  0  0  0  0  0
   23.1455  -21.3865  -11.4995 C   0  0  0  0  0  0  0  0  0  0  0  0
   21.6932  -21.2087  -11.6810 C   0  0  0  0  0  0  0  0  0  0  0  0
   21.2052  -21.1444  -13.0734 C   0  0  2  0  0  0  0  0  0  0  0  0
   21.8762  -20.1966  -13.9105 N   0  0  0  0  0  0  0  0  0  0  0  0
   19.7436  -21.2514  -13.2397 C   0  0  0  0  0  0  0  0  0  0  0  0
   19.0457  -22.4137  -12.8739 O   0  0  0  0  0  0  0  0  0  0  0  0
   23.8735  -20.5498  -10.6757 C   0  0  0  0  0  0  0  0  0  0  0  0
   25.2349  -20.7281  -10.5165 C   0  0  0  0  0  0  0  0  0  0  0  0
   19.0379  -20.3335  -13.7111 O   0  0  0  0  0  0  0  0  0  0  0  0
  2  1  1  0
  3  2  1  0
  4  3  2  0
  5  6  1  0
  6  7  1  0
  7  8  1  0
  9  8  1  6
  9 11  1  0
  9 10  1  0
 10  3  1  0
 11 20  1  0
 12 11  2  0
 14 24  2  0
 14 13  1  0
 15 14  1  0
 16 17  1  0
 16 15  2  0
 17 23  2  0
 18 17  1  0
 19 18  1  1
 20 19  1  0
 21 22  1  0
 21 19  1  0
 23 24  1  0
 25 21  2  0
M  END
$$$$
