GMY.pdb
     RDKit          3D

 25 25  0  0  1  0  0  0  0  0999 V2000
   28.2173  -21.5095  -15.8362 N   0  0  0  0  0  0  0  0  0  0  0  0
   27.8989  -20.4557  -14.8922 C   0  0  0  0  0  0  0  0  0  0  0  0
   27.0377  -21.0181  -13.8130 C   0  0  0  0  0  0  0  0  0  0  0  0
   26.1900  -21.9245  -14.0916 O   0  0  0  0  0  0  0  0  0  0  0  0
   27.9272  -19.9379   -7.4432 C   0  0  0  0  0  0  0  0  0  0  0  0
   26.1780  -20.4908   -7.3667 S   0  0  0  0  0  0  0  0  0  0  0  0
   25.6009  -20.9365   -9.0017 C   0  0  0  0  0  0  0  0  0  0  0  0
   26.5085  -20.5825  -10.1268 C   0  0  0  0  0  0  0  0  0  0  0  0
   26.0401  -20.9219  -11.4961 C   0  0  2  0  0  0  0  0  0  0  0  0
   27.1145  -20.5873  -12.4642 N   0  0  0  0  0  0  0  0  0  0  0  0
   24.7723  -20.3033  -11.9391 C   0  0  0  0  0  0  0  0  0  0  0  0
   24.7824  -19.0727  -12.2667 O   0  0  0  0  0  0  0  0  0  0  0  0
   23.1661  -21.9576  -18.7916 O   0  0  0  0  0  0  0  0  0  0  0  0
   22.9730  -21.3799  -17.5340 C   0  0  0  0  0  0  0  0  0  0  0  0
   21.7798  -21.5532  -16.8602 C   0  0  0  0  0  0  0  0  0  0  0  0
   21.5855  -20.9834  -15.6169 C   0  0  0  0  0  0  0  0  0  0  0  0
   22.5754  -20.2187  -14.9989 C   0  0  0  0  0  0  0  0  0  0  0  0
   22.3613  -19.6119  -13.6723 C   0  0  0  0  0  0  0  0  0  0  0  0
   22.2863  -20.5404  -12.5263 C   0  0  2  0  0  0  0  0  0  0  0  0
   23.5488  -20.9975  -12.0296 N   0  0  0  0  0  0  0  0  0  0  0  0
   21.2020  -21.5383  -12.5872 C   0  0  0  0  0  0  0  0  0  0  0  0
   19.8556  -21.1546  -12.6955 O   0  0  0  0  0  0  0  0  0  0  0  0
   23.7651  -20.0514  -15.6810 C   0  0  0  0  0  0  0  0  0  0  0  0
   23.9506  -20.6253  -16.9246 C   0  0  0  0  0  0  0  0  0  0  0  0
   21.4018  -22.7716  -12.5451 O   0  0  0  0  0  0  0  0  0  0  0  0
  2  1  1  0
  3  2  1  0
  4  3  2  0
  5  6  1  0
  6  7  1  0
  7  8  1  0
  9  8  1  1
  9 11  1  0
  9 10  1  0
 10  3  1  0
 11 20  1  0
 12 11  2  0
 14 24  2  0
 14 13  1  0
 15 14  1  0
 16 17  1  0
 16 15  2  0
 17 23  2  0
 18 17  1  0
 19 18  1  6
 20 19  1  0
 21 22  1  0
 21 19  1  0
 23 24  1  0
 25 21  2  0
M  END
$$$$
