GMY.pdb
     RDKit          3D

 25 25  0  0  1  0  0  0  0  0999 V2000
   27.0526  -22.5954  -17.2511 N   0  0  0  0  0  0  0  0  0  0  0  0
   27.0731  -21.3628  -16.4873 C   0  0  0  0  0  0  0  0  0  0  0  0
   26.2786  -21.5543  -15.2404 C   0  0  0  0  0  0  0  0  0  0  0  0
   25.2556  -22.3099  -15.2549 O   0  0  0  0  0  0  0  0  0  0  0  0
   24.5720  -21.3358   -7.8392 C   0  0  0  0  0  0  0  0  0  0  0  0
   25.6699  -21.6106   -9.2851 S   0  0  0  0  0  0  0  0  0  0  0  0
   25.5194  -20.2509  -10.4399 C   0  0  0  0  0  0  0  0  0  0  0  0
   26.3329  -20.3634  -11.6811 C   0  0  0  0  0  0  0  0  0  0  0  0
   25.6499  -20.9155  -12.8805 C   0  0  2  0  0  0  0  0  0  0  0  0
   26.6092  -20.9254  -14.0132 N   0  0  0  0  0  0  0  0  0  0  0  0
   24.4009  -20.2464  -13.3030 C   0  0  0  0  0  0  0  0  0  0  0  0
   24.4880  -19.1227  -13.8959 O   0  0  0  0  0  0  0  0  0  0  0  0
   19.3516  -23.0103  -18.8971 O   0  0  0  0  0  0  0  0  0  0  0  0
   19.9607  -22.2129  -17.9247 C   0  0  0  0  0  0  0  0  0  0  0  0
   21.3315  -22.2384  -17.7571 C   0  0  0  0  0  0  0  0  0  0  0  0
   21.9368  -21.4515  -16.7966 C   0  0  0  0  0  0  0  0  0  0  0  0
   21.1965  -20.6090  -15.9667 C   0  0  0  0  0  0  0  0  0  0  0  0
   21.8485  -19.7726  -14.9425 C   0  0  0  0  0  0  0  0  0  0  0  0
   21.8492  -20.2995  -13.5628 C   0  0  2  0  0  0  0  0  0  0  0  0
   23.1136  -20.7824  -13.0963 N   0  0  0  0  0  0  0  0  0  0  0  0
   20.6622  -21.0882  -13.1834 C   0  0  0  0  0  0  0  0  0  0  0  0
   19.4264  -20.4755  -12.9198 O   0  0  0  0  0  0  0  0  0  0  0  0
   19.8263  -20.5907  -16.1424 C   0  0  0  0  0  0  0  0  0  0  0  0
   19.2291  -21.3816  -17.1060 C   0  0  0  0  0  0  0  0  0  0  0  0
   20.6734  -22.3331  -13.0700 O   0  0  0  0  0  0  0  0  0  0  0  0
  2  1  1  0
  3  2  1  0
  4  3  2  0
  5  6  1  0
  6  7  1  0
  7  8  1  0
  9  8  1  1
  9 11  1  0
  9 10  1  0
 10  3  1  0
 11 20  1  0
 12 11  2  0
 14 24  2  0
 14 13  1  0
 15 14  1  0
 16 17  1  0
 16 15  2  0
 17 23  2  0
 18 17  1  0
 19 18  1  6
 20 19  1  0
 21 22  1  0
 21 19  1  0
 23 24  1  0
 25 21  2  0
M  END
$$$$
