GMY.pdb
     RDKit          3D

 25 25  0  0  1  0  0  0  0  0999 V2000
   19.8516  -11.8707  -16.4937 N   0  0  0  0  0  0  0  0  0  0  0  0
   18.9336  -11.0335  -15.7458 C   0  0  0  0  0  0  0  0  0  0  0  0
   19.1486   -9.6112  -16.1377 C   0  0  0  0  0  0  0  0  0  0  0  0
   20.2019   -9.2847  -16.7715 O   0  0  0  0  0  0  0  0  0  0  0  0
   14.7603   -5.2189  -18.4229 C   0  0  0  0  0  0  0  0  0  0  0  0
   15.7738   -4.2358  -17.2490 S   0  0  0  0  0  0  0  0  0  0  0  0
   17.3322   -5.0609  -16.9401 C   0  0  0  0  0  0  0  0  0  0  0  0
   17.2367   -6.4775  -16.4939 C   0  0  0  0  0  0  0  0  0  0  0  0
   18.5156   -7.1679  -16.1815 C   0  0  2  0  0  0  0  0  0  0  0  0
   18.2223   -8.5811  -15.8350 N   0  0  0  0  0  0  0  0  0  0  0  0
   19.3548   -6.5684  -15.1220 C   0  0  0  0  0  0  0  0  0  0  0  0
   18.9843   -6.6999  -13.9107 O   0  0  0  0  0  0  0  0  0  0  0  0
   23.5801  -11.2920  -15.1150 O   0  0  0  0  0  0  0  0  0  0  0  0
   23.3961   -9.9157  -14.9580 C   0  0  0  0  0  0  0  0  0  0  0  0
   22.9165   -9.4052  -13.7675 C   0  0  0  0  0  0  0  0  0  0  0  0
   22.7335   -8.0453  -13.6090 C   0  0  0  0  0  0  0  0  0  0  0  0
   23.0222   -7.1429  -14.6332 C   0  0  0  0  0  0  0  0  0  0  0  0
   22.8232   -5.6926  -14.4582 C   0  0  0  0  0  0  0  0  0  0  0  0
   21.4257   -5.2154  -14.4422 C   0  0  2  0  0  0  0  0  0  0  0  0
   20.5503   -5.8641  -15.3709 N   0  0  0  0  0  0  0  0  0  0  0  0
   21.2535   -3.7595  -14.2814 C   0  0  0  0  0  0  0  0  0  0  0  0
   21.9059   -3.0509  -13.2596 O   0  0  0  0  0  0  0  0  0  0  0  0
   23.5014   -7.6636  -15.8198 C   0  0  0  0  0  0  0  0  0  0  0  0
   23.6815   -9.0258  -15.9695 C   0  0  0  0  0  0  0  0  0  0  0  0
   20.5269   -3.0682  -15.0278 O   0  0  0  0  0  0  0  0  0  0  0  0
  2  1  1  0
  3  2  1  0
  4  3  2  0
  5  6  1  0
  6  7  1  0
  7  8  1  0
  9  8  1  1
  9 11  1  0
  9 10  1  0
 10  3  1  0
 11 20  1  0
 12 11  2  0
 14 24  2  0
 14 13  1  0
 15 14  1  0
 16 17  1  0
 16 15  2  0
 17 23  2  0
 18 17  1  0
 19 18  1  6
 20 19  1  0
 21 22  1  0
 21 19  1  0
 23 24  1  0
 25 21  2  0
M  END
$$$$
