FWM.pdb
     RDKit          3D

 34 36  0  0  1  0  0  0  0  0999 V2000
    7.5136  -17.9482   21.2025 N   0  0  0  0  0  0  0  0  0  0  0  0
    7.7452  -16.5564   20.9385 C   0  0  1  0  0  0  0  0  0  0  0  0
    6.3853  -15.8709   20.8247 C   0  0  0  0  0  0  0  0  0  0  0  0
    6.6646  -14.4523   20.4707 C   0  0  0  0  0  0  0  0  0  0  0  0
    6.8840  -14.0619   19.1679 C   0  0  0  0  0  0  0  0  0  0  0  0
    7.1463  -12.7318   18.8454 C   0  0  0  0  0  0  0  0  0  0  0  0
    7.1979  -11.7537   19.8126 C   0  0  0  0  0  0  0  0  0  0  0  0
    6.9780  -12.1431   21.1223 C   0  0  0  0  0  0  0  0  0  0  0  0
    6.7192  -13.4616   21.4280 C   0  0  0  0  0  0  0  0  0  0  0  0
    8.5934  -15.8958   21.9817 C   0  0  0  0  0  0  0  0  0  0  0  0
    8.9677  -14.7037   21.8394 O   0  0  0  0  0  0  0  0  0  0  0  0
    8.9499  -16.6593   23.1168 N   0  0  0  0  0  0  0  0  0  0  0  0
    9.8859  -16.2449   24.1461 C   0  0  1  0  0  0  0  0  0  0  0  0
    9.3200  -16.3055   25.5135 C   0  0  0  0  0  0  0  0  0  0  0  0
    8.1330  -15.4791   25.7232 C   0  0  0  0  0  0  0  0  0  0  0  0
    6.8027  -15.8992   25.6733 C   0  0  0  0  0  0  0  0  0  0  0  0
    5.9847  -14.8760   25.8816 N   0  0  0  0  0  0  0  0  0  0  0  0
    6.7351  -13.7763   26.0715 C   0  0  0  0  0  0  0  0  0  0  0  0
    6.3012  -12.4978   26.3341 C   0  0  0  0  0  0  0  0  0  0  0  0
    7.2642  -11.4990   26.5163 C   0  0  0  0  0  0  0  0  0  0  0  0
    8.5961  -11.8204   26.4295 C   0  0  0  0  0  0  0  0  0  0  0  0
    8.9964  -13.1117   26.1650 C   0  0  0  0  0  0  0  0  0  0  0  0
    8.0651  -14.1133   25.9807 C   0  0  0  0  0  0  0  0  0  0  0  0
   11.2227  -16.8129   23.9552 C   0  0  0  0  0  0  0  0  0  0  0  0
   11.4806  -18.0435   24.0123 O   0  0  0  0  0  0  0  0  0  0  0  0
   15.3503  -14.4999   19.0260 C   0  0  0  0  0  0  0  0  0  0  0  0
   14.7443  -13.7874   20.5794 S   0  0  0  0  0  0  0  0  0  0  0  0
   13.6941  -14.9632   21.4753 C   0  0  0  0  0  0  0  0  0  0  0  0
   14.4854  -15.5516   22.5987 C   0  0  0  0  0  0  0  0  0  0  0  0
   13.6812  -16.4939   23.4252 C   0  0  2  0  0  0  0  0  0  0  0  0
   12.3477  -15.9733   23.6830 N   0  0  0  0  0  0  0  0  0  0  0  0
   14.2974  -16.9117   24.6876 C   0  0  0  0  0  0  0  0  0  0  0  0
   13.7848  -16.6598   25.8258 O   0  0  0  0  0  0  0  0  0  0  0  0
   15.4813  -17.6125   24.6989 O   0  0  0  0  0  0  0  0  0  0  0  0
  2  1  1  1
  3  2  1  0
  4  3  1  0
  4  5  2  0
  6  5  1  0
  7  6  2  0
  8  9  2  0
  8  7  1  0
  9  4  1  0
 10 11  2  0
 10  2  1  0
 12 10  1  0
 13 12  1  0
 13 14  1  1
 15 23  1  0
 15 14  1  0
 16 15  2  0
 17 16  1  0
 17 18  1  0
 18 23  2  0
 19 18  1  0
 19 20  2  0
 20 21  1  0
 21 22  2  0
 23 22  1  0
 24 25  2  0
 24 13  1  0
 26 27  1  0
 28 27  1  0
 28 29  1  0
 30 29  1  1
 30 31  1  0
 31 24  1  0
 32 30  1  0
 33 32  2  0
 34 32  1  0
M  END
$$$$
