FWM.pdb
     RDKit          3D

 34 36  0  0  1  0  0  0  0  0999 V2000
    9.7001  -16.1757   17.8706 N   0  0  0  0  0  0  0  0  0  0  0  0
   10.4726  -16.5213   19.0300 C   0  0  1  0  0  0  0  0  0  0  0  0
   11.9216  -16.1214   18.7609 C   0  0  0  0  0  0  0  0  0  0  0  0
   12.4332  -17.0783   17.7419 C   0  0  0  0  0  0  0  0  0  0  0  0
   12.8422  -18.3486   18.0839 C   0  0  0  0  0  0  0  0  0  0  0  0
   13.3214  -19.2378   17.1238 C   0  0  0  0  0  0  0  0  0  0  0  0
   13.4068  -18.8853   15.7959 C   0  0  0  0  0  0  0  0  0  0  0  0
   12.9968  -17.6097   15.4495 C   0  0  0  0  0  0  0  0  0  0  0  0
   12.5245  -16.7401   16.4084 C   0  0  0  0  0  0  0  0  0  0  0  0
    9.9635  -15.8809   20.2849 C   0  0  0  0  0  0  0  0  0  0  0  0
    9.8434  -14.6314   20.3609 O   0  0  0  0  0  0  0  0  0  0  0  0
    9.6286  -16.7296   21.3647 N   0  0  0  0  0  0  0  0  0  0  0  0
    9.1533  -16.2872   22.6631 C   0  0  1  0  0  0  0  0  0  0  0  0
    7.7995  -16.7879   22.9950 C   0  0  0  0  0  0  0  0  0  0  0  0
    7.1062  -16.0358   24.0387 C   0  0  0  0  0  0  0  0  0  0  0  0
    6.0794  -16.5010   24.8622 C   0  0  0  0  0  0  0  0  0  0  0  0
    5.6639  -15.5384   25.6748 N   0  0  0  0  0  0  0  0  0  0  0  0
    6.3891  -14.4355   25.4171 C   0  0  0  0  0  0  0  0  0  0  0  0
    6.3026  -13.2096   26.0347 C   0  0  0  0  0  0  0  0  0  0  0  0
    7.1741  -12.1977   25.6167 C   0  0  0  0  0  0  0  0  0  0  0  0
    8.0783  -12.4550   24.6161 C   0  0  0  0  0  0  0  0  0  0  0  0
    8.1381  -13.6948   24.0185 C   0  0  0  0  0  0  0  0  0  0  0  0
    7.2883  -14.7081   24.4132 C   0  0  0  0  0  0  0  0  0  0  0  0
   10.1761  -16.3978   23.7062 C   0  0  0  0  0  0  0  0  0  0  0  0
   11.0393  -17.3126   23.7530 O   0  0  0  0  0  0  0  0  0  0  0  0
    9.1259  -13.3048   29.4333 C   0  0  0  0  0  0  0  0  0  0  0  0
   10.8911  -13.7057   29.5415 S   0  0  0  0  0  0  0  0  0  0  0  0
   11.3489  -14.9836   28.3393 C   0  0  0  0  0  0  0  0  0  0  0  0
   10.6579  -14.6933   27.0460 C   0  0  0  0  0  0  0  0  0  0  0  0
   11.0316  -15.6584   25.9751 C   0  0  2  0  0  0  0  0  0  0  0  0
   10.2548  -15.4400   24.7650 N   0  0  0  0  0  0  0  0  0  0  0  0
   10.9691  -17.0739   26.3498 C   0  0  0  0  0  0  0  0  0  0  0  0
   11.9974  -17.7503   26.6767 O   0  0  0  0  0  0  0  0  0  0  0  0
    9.7702  -17.7484   26.3683 O   0  0  0  0  0  0  0  0  0  0  0  0
  2  1  1  6
  3  2  1  0
  4  3  1  0
  4  5  2  0
  6  5  1  0
  7  6  2  0
  8  9  2  0
  8  7  1  0
  9  4  1  0
 10 11  2  0
 10  2  1  0
 12 10  1  0
 13 12  1  0
 13 14  1  1
 15 23  1  0
 15 14  1  0
 16 15  2  0
 17 16  1  0
 17 18  1  0
 18 23  2  0
 19 18  1  0
 19 20  2  0
 20 21  1  0
 21 22  2  0
 23 22  1  0
 24 25  2  0
 24 13  1  0
 26 27  1  0
 28 27  1  0
 28 29  1  0
 30 29  1  1
 30 31  1  0
 31 24  1  0
 32 30  1  0
 33 32  2  0
 34 32  1  0
M  END
$$$$
