FWM.pdb
     RDKit          3D

 34 36  0  0  1  0  0  0  0  0999 V2000
   10.8526  -16.9058   18.5052 N   0  0  0  0  0  0  0  0  0  0  0  0
   10.6835  -17.6220   19.7376 C   0  0  1  0  0  0  0  0  0  0  0  0
   11.9319  -18.4738   19.9568 C   0  0  0  0  0  0  0  0  0  0  0  0
   11.9863  -19.4303   18.8176 C   0  0  0  0  0  0  0  0  0  0  0  0
   12.8727  -19.2647   17.7760 C   0  0  0  0  0  0  0  0  0  0  0  0
   12.9160  -20.1641   16.7125 C   0  0  0  0  0  0  0  0  0  0  0  0
   12.0766  -21.2536   16.6571 C   0  0  0  0  0  0  0  0  0  0  0  0
   11.1850  -21.4225   17.7021 C   0  0  0  0  0  0  0  0  0  0  0  0
   11.1524  -20.5261   18.7481 C   0  0  0  0  0  0  0  0  0  0  0  0
   10.4360  -16.7216   20.9089 C   0  0  0  0  0  0  0  0  0  0  0  0
   11.2294  -15.7818   21.1709 O   0  0  0  0  0  0  0  0  0  0  0  0
    9.2882  -16.9701   21.6958 N   0  0  0  0  0  0  0  0  0  0  0  0
    8.9335  -16.2581   22.9102 C   0  0  1  0  0  0  0  0  0  0  0  0
    7.5451  -16.5150   23.3575 C   0  0  0  0  0  0  0  0  0  0  0  0
    7.0916  -15.6743   24.4636 C   0  0  0  0  0  0  0  0  0  0  0  0
    6.4766  -16.1027   25.6413 C   0  0  0  0  0  0  0  0  0  0  0  0
    6.1717  -15.0652   26.4096 N   0  0  0  0  0  0  0  0  0  0  0  0
    6.5688  -13.9478   25.7753 C   0  0  0  0  0  0  0  0  0  0  0  0
    6.4621  -12.6489   26.2150 C   0  0  0  0  0  0  0  0  0  0  0  0
    6.9616  -11.6317   25.3940 C   0  0  0  0  0  0  0  0  0  0  0  0
    7.5364  -11.9558   24.1901 C   0  0  0  0  0  0  0  0  0  0  0  0
    7.6270  -13.2678   23.7799 C   0  0  0  0  0  0  0  0  0  0  0  0
    7.1407  -14.2880   24.5720 C   0  0  0  0  0  0  0  0  0  0  0  0
    9.9827  -16.3248   23.9305 C   0  0  0  0  0  0  0  0  0  0  0  0
   10.8627  -15.4402   24.0956 O   0  0  0  0  0  0  0  0  0  0  0  0
    9.0272  -14.1072   29.2097 C   0  0  0  0  0  0  0  0  0  0  0  0
   10.2857  -13.7907   27.9431 S   0  0  0  0  0  0  0  0  0  0  0  0
   11.1386  -15.3188   27.4686 C   0  0  0  0  0  0  0  0  0  0  0  0
   10.1235  -16.3012   26.9799 C   0  0  0  0  0  0  0  0  0  0  0  0
   10.7261  -17.3591   26.1223 C   0  0  2  0  0  0  0  0  0  0  0  0
   10.0685  -17.4352   24.8272 N   0  0  0  0  0  0  0  0  0  0  0  0
   10.7909  -18.6960   26.7192 C   0  0  0  0  0  0  0  0  0  0  0  0
   10.0170  -19.6469   26.3750 O   0  0  0  0  0  0  0  0  0  0  0  0
   11.7130  -18.9901   27.6971 O   0  0  0  0  0  0  0  0  0  0  0  0
  2  1  1  6
  3  2  1  0
  4  3  1  0
  4  5  2  0
  6  5  1  0
  7  6  2  0
  8  9  2  0
  8  7  1  0
  9  4  1  0
 10 11  2  0
 10  2  1  0
 12 10  1  0
 13 12  1  0
 13 14  1  1
 15 23  1  0
 15 14  1  0
 16 15  2  0
 17 16  1  0
 17 18  1  0
 18 23  2  0
 19 18  1  0
 19 20  2  0
 20 21  1  0
 21 22  2  0
 23 22  1  0
 24 25  2  0
 24 13  1  0
 26 27  1  0
 28 27  1  0
 28 29  1  0
 30 29  1  1
 30 31  1  0
 31 24  1  0
 32 30  1  0
 33 32  2  0
 34 32  1  0
M  END
$$$$
