FWM.pdb
     RDKit          3D

 34 36  0  0  1  0  0  0  0  0999 V2000
    8.4906  -16.2606   20.1355 N   0  0  0  0  0  0  0  0  0  0  0  0
    8.3590  -14.8979   20.5669 C   0  0  1  0  0  0  0  0  0  0  0  0
    7.0761  -14.3376   19.9568 C   0  0  0  0  0  0  0  0  0  0  0  0
    7.4214  -13.9300   18.5674 C   0  0  0  0  0  0  0  0  0  0  0  0
    7.0412  -14.6822   17.4776 C   0  0  0  0  0  0  0  0  0  0  0  0
    7.3700  -14.2942   16.1802 C   0  0  0  0  0  0  0  0  0  0  0  0
    8.0875  -13.1457   15.9328 C   0  0  0  0  0  0  0  0  0  0  0  0
    8.4709  -12.3882   17.0258 C   0  0  0  0  0  0  0  0  0  0  0  0
    8.1391  -12.7828   18.3037 C   0  0  0  0  0  0  0  0  0  0  0  0
    8.3515  -14.7539   22.0580 C   0  0  0  0  0  0  0  0  0  0  0  0
    8.1162  -13.6394   22.5907 O   0  0  0  0  0  0  0  0  0  0  0  0
    8.6164  -15.9085   22.8294 N   0  0  0  0  0  0  0  0  0  0  0  0
    9.4497  -15.9505   24.0174 C   0  0  1  0  0  0  0  0  0  0  0  0
    8.6961  -16.2671   25.2526 C   0  0  0  0  0  0  0  0  0  0  0  0
    7.4753  -15.4867   25.4433 C   0  0  0  0  0  0  0  0  0  0  0  0
    6.1653  -15.9690   25.4364 C   0  0  0  0  0  0  0  0  0  0  0  0
    5.3039  -14.9753   25.6099 N   0  0  0  0  0  0  0  0  0  0  0  0
    6.0053  -13.8346   25.7343 C   0  0  0  0  0  0  0  0  0  0  0  0
    5.5164  -12.5661   25.9433 C   0  0  0  0  0  0  0  0  0  0  0  0
    6.4346  -11.5167   26.0612 C   0  0  0  0  0  0  0  0  0  0  0  0
    7.7786  -11.7807   25.9667 C   0  0  0  0  0  0  0  0  0  0  0  0
    8.2344  -13.0637   25.7570 C   0  0  0  0  0  0  0  0  0  0  0  0
    7.3479  -14.1146   25.6366 C   0  0  0  0  0  0  0  0  0  0  0  0
   10.7046  -16.6750   23.8013 C   0  0  0  0  0  0  0  0  0  0  0  0
   10.7917  -17.7624   23.1735 O   0  0  0  0  0  0  0  0  0  0  0  0
   10.7073  -13.2821   28.2618 C   0  0  0  0  0  0  0  0  0  0  0  0
   10.7671  -14.9012   29.0760 S   0  0  0  0  0  0  0  0  0  0  0  0
   11.6600  -16.1123   28.0643 C   0  0  0  0  0  0  0  0  0  0  0  0
   11.2726  -15.9189   26.6336 C   0  0  0  0  0  0  0  0  0  0  0  0
   12.3543  -16.3249   25.6940 C   0  0  2  0  0  0  0  0  0  0  0  0
   11.9429  -16.1703   24.3075 N   0  0  0  0  0  0  0  0  0  0  0  0
   12.8965  -17.6711   25.8979 C   0  0  0  0  0  0  0  0  0  0  0  0
   14.1419  -17.9048   26.0247 O   0  0  0  0  0  0  0  0  0  0  0  0
   12.0655  -18.7655   25.9660 O   0  0  0  0  0  0  0  0  0  0  0  0
  2  1  1  1
  3  2  1  0
  4  3  1  0
  4  5  2  0
  6  5  1  0
  7  6  2  0
  8  9  2  0
  8  7  1  0
  9  4  1  0
 10 11  2  0
 10  2  1  0
 12 10  1  0
 13 12  1  0
 13 14  1  1
 15 23  1  0
 15 14  1  0
 16 15  2  0
 17 16  1  0
 17 18  1  0
 18 23  2  0
 19 18  1  0
 19 20  2  0
 20 21  1  0
 21 22  2  0
 23 22  1  0
 24 25  2  0
 24 13  1  0
 26 27  1  0
 28 27  1  0
 28 29  1  0
 30 29  1  1
 30 31  1  0
 31 24  1  0
 32 30  1  0
 33 32  2  0
 34 32  1  0
M  END
$$$$
