FWM.pdb
     RDKit          3D

 34 36  0  0  1  0  0  0  0  0999 V2000
    8.7990  -20.2755   20.1822 N   0  0  0  0  0  0  0  0  0  0  0  0
    8.1092  -19.3849   21.0717 C   0  0  1  0  0  0  0  0  0  0  0  0
    7.7585  -20.1673   22.3354 C   0  0  0  0  0  0  0  0  0  0  0  0
    9.0215  -20.8127   22.7871 C   0  0  0  0  0  0  0  0  0  0  0  0
    9.4301  -20.7607   24.1018 C   0  0  0  0  0  0  0  0  0  0  0  0
   10.6148  -21.3664   24.5160 C   0  0  0  0  0  0  0  0  0  0  0  0
   11.4257  -22.0406   23.6311 C   0  0  0  0  0  0  0  0  0  0  0  0
   11.0177  -22.0943   22.3098 C   0  0  0  0  0  0  0  0  0  0  0  0
    9.8438  -21.4914   21.9131 C   0  0  0  0  0  0  0  0  0  0  0  0
    8.9022  -18.1579   21.4030 C   0  0  0  0  0  0  0  0  0  0  0  0
   10.1376  -18.1145   21.1722 O   0  0  0  0  0  0  0  0  0  0  0  0
    8.2118  -17.0666   21.9781 N   0  0  0  0  0  0  0  0  0  0  0  0
    8.7654  -15.7413   22.1894 C   0  0  1  0  0  0  0  0  0  0  0  0
    7.7325  -14.6930   22.3561 C   0  0  0  0  0  0  0  0  0  0  0  0
    7.1658  -14.5985   23.6998 C   0  0  0  0  0  0  0  0  0  0  0  0
    6.6762  -15.6502   24.4763 C   0  0  0  0  0  0  0  0  0  0  0  0
    6.2090  -15.1958   25.6316 N   0  0  0  0  0  0  0  0  0  0  0  0
    6.3741  -13.8613   25.6504 C   0  0  0  0  0  0  0  0  0  0  0  0
    6.0436  -12.9877   26.6601 C   0  0  0  0  0  0  0  0  0  0  0  0
    6.3221  -11.6291   26.4741 C   0  0  0  0  0  0  0  0  0  0  0  0
    6.9098  -11.2135   25.3050 C   0  0  0  0  0  0  0  0  0  0  0  0
    7.2279  -12.1155   24.3136 C   0  0  0  0  0  0  0  0  0  0  0  0
    6.9620  -13.4603   24.4739 C   0  0  0  0  0  0  0  0  0  0  0  0
    9.8742  -15.7388   23.1468 C   0  0  0  0  0  0  0  0  0  0  0  0
   10.9037  -15.0239   23.0315 O   0  0  0  0  0  0  0  0  0  0  0  0
   11.2967  -14.3063   30.4189 C   0  0  0  0  0  0  0  0  0  0  0  0
   10.3192  -14.4307   28.8967 S   0  0  0  0  0  0  0  0  0  0  0  0
   10.9862  -15.7031   27.7903 C   0  0  0  0  0  0  0  0  0  0  0  0
   10.0720  -15.8428   26.6159 C   0  0  0  0  0  0  0  0  0  0  0  0
   10.7631  -16.4091   25.4244 C   0  0  2  0  0  0  0  0  0  0  0  0
    9.8483  -16.5757   24.3059 N   0  0  0  0  0  0  0  0  0  0  0  0
   11.4931  -17.6593   25.6519 C   0  0  0  0  0  0  0  0  0  0  0  0
   10.9161  -18.7900   25.7538 O   0  0  0  0  0  0  0  0  0  0  0  0
   12.8642  -17.6673   25.7650 O   0  0  0  0  0  0  0  0  0  0  0  0
  2  1  1  6
  3  2  1  0
  4  3  1  0
  4  5  2  0
  6  5  1  0
  7  6  2  0
  8  9  2  0
  8  7  1  0
  9  4  1  0
 10 11  2  0
 10  2  1  0
 12 10  1  0
 13 12  1  0
 13 14  1  1
 15 23  1  0
 15 14  1  0
 16 15  2  0
 17 16  1  0
 17 18  1  0
 18 23  2  0
 19 18  1  0
 19 20  2  0
 20 21  1  0
 21 22  2  0
 23 22  1  0
 24 25  2  0
 24 13  1  0
 26 27  1  0
 28 27  1  0
 28 29  1  0
 30 29  1  1
 30 31  1  0
 31 24  1  0
 32 30  1  0
 33 32  2  0
 34 32  1  0
M  END
$$$$
