FWM.pdb
     RDKit          3D

 34 36  0  0  1  0  0  0  0  0999 V2000
    9.4494  -15.6308   19.2516 N   0  0  0  0  0  0  0  0  0  0  0  0
    9.9716  -14.4669   19.9095 C   0  0  1  0  0  0  0  0  0  0  0  0
    9.1735  -13.2591   19.4233 C   0  0  0  0  0  0  0  0  0  0  0  0
    8.7442  -13.5779   18.0342 C   0  0  0  0  0  0  0  0  0  0  0  0
    7.5688  -14.2489   17.7767 C   0  0  0  0  0  0  0  0  0  0  0  0
    7.1751  -14.5448   16.4731 C   0  0  0  0  0  0  0  0  0  0  0  0
    7.9421  -14.1805   15.3897 C   0  0  0  0  0  0  0  0  0  0  0  0
    9.1234  -13.5064   15.6454 C   0  0  0  0  0  0  0  0  0  0  0  0
    9.5013  -13.2196   16.9392 C   0  0  0  0  0  0  0  0  0  0  0  0
    9.9308  -14.5709   21.4034 C   0  0  0  0  0  0  0  0  0  0  0  0
   10.5330  -13.7301   22.1187 O   0  0  0  0  0  0  0  0  0  0  0  0
    9.1965  -15.6397   21.9663 N   0  0  0  0  0  0  0  0  0  0  0  0
    8.8791  -15.7891   23.3750 C   0  0  1  0  0  0  0  0  0  0  0  0
    7.5015  -16.2757   23.6183 C   0  0  0  0  0  0  0  0  0  0  0  0
    6.7293  -15.4802   24.5705 C   0  0  0  0  0  0  0  0  0  0  0  0
    5.6961  -15.9323   25.3931 C   0  0  0  0  0  0  0  0  0  0  0  0
    5.1993  -14.9310   26.1073 N   0  0  0  0  0  0  0  0  0  0  0  0
    5.8761  -13.8146   25.7842 C   0  0  0  0  0  0  0  0  0  0  0  0
    5.7019  -12.5491   26.2939 C   0  0  0  0  0  0  0  0  0  0  0  0
    6.5358  -11.5284   25.8239 C   0  0  0  0  0  0  0  0  0  0  0  0
    7.4911  -11.8164   24.8809 C   0  0  0  0  0  0  0  0  0  0  0  0
    7.6387  -13.0956   24.3913 C   0  0  0  0  0  0  0  0  0  0  0  0
    6.8275  -14.1184   24.8390 C   0  0  0  0  0  0  0  0  0  0  0  0
    9.9547  -16.4361   24.1304 C   0  0  0  0  0  0  0  0  0  0  0  0
   10.7254  -17.3091   23.6527 O   0  0  0  0  0  0  0  0  0  0  0  0
   10.3945  -15.1164   30.2756 C   0  0  0  0  0  0  0  0  0  0  0  0
   10.1144  -14.0154   28.8622 S   0  0  0  0  0  0  0  0  0  0  0  0
   11.1578  -14.4775   27.4532 C   0  0  0  0  0  0  0  0  0  0  0  0
   11.4858  -15.9321   27.5575 C   0  0  0  0  0  0  0  0  0  0  0  0
   11.3092  -16.6468   26.2629 C   0  0  2  0  0  0  0  0  0  0  0  0
   10.1988  -16.1003   25.4987 N   0  0  0  0  0  0  0  0  0  0  0  0
   11.1700  -18.1026   26.3584 C   0  0  0  0  0  0  0  0  0  0  0  0
   12.0914  -18.8590   26.8063 O   0  0  0  0  0  0  0  0  0  0  0  0
   10.0112  -18.7298   25.9627 O   0  0  0  0  0  0  0  0  0  0  0  0
  2  1  1  6
  3  2  1  0
  4  3  1  0
  4  5  2  0
  6  5  1  0
  7  6  2  0
  8  9  2  0
  8  7  1  0
  9  4  1  0
 10 11  2  0
 10  2  1  0
 12 10  1  0
 13 12  1  0
 13 14  1  6
 15 23  1  0
 15 14  1  0
 16 15  2  0
 17 16  1  0
 17 18  1  0
 18 23  2  0
 19 18  1  0
 19 20  2  0
 20 21  1  0
 21 22  2  0
 23 22  1  0
 24 25  2  0
 24 13  1  0
 26 27  1  0
 28 27  1  0
 28 29  1  0
 30 29  1  1
 30 31  1  0
 31 24  1  0
 32 30  1  0
 33 32  2  0
 34 32  1  0
M  END
$$$$
