GLR.pdb
     RDKit          3D

 24 23  0  0  1  0  0  0  0  0999 V2000
    7.4678  -14.5092   20.2748 N   0  0  0  0  0  0  0  0  0  0  0  0
    6.5895  -14.5273   21.4020 C   0  0  0  0  0  0  0  0  0  0  0  0
    7.3290  -14.6131   22.7107 C   0  0  0  0  0  0  0  0  0  0  0  0
    8.4793  -15.0846   22.6673 O   0  0  0  0  0  0  0  0  0  0  0  0
    6.0451  -10.9490   26.7968 C   0  0  0  0  0  0  0  0  0  0  0  0
    6.7961  -11.8150   25.8155 C   0  0  1  0  0  0  0  0  0  0  0  0
    8.2029  -11.3905   25.5556 C   0  0  0  0  0  0  0  0  0  0  0  0
    6.7244  -13.2748   26.1440 C   0  0  0  0  0  0  0  0  0  0  0  0
    7.3237  -14.1993   25.1574 C   0  0  2  0  0  0  0  0  0  0  0  0
    6.6717  -14.1571   23.8822 N   0  0  0  0  0  0  0  0  0  0  0  0
    7.3633  -15.6152   25.6255 C   0  0  0  0  0  0  0  0  0  0  0  0
    6.2901  -16.2389   25.8111 O   0  0  0  0  0  0  0  0  0  0  0  0
    4.4276  -21.1074   21.4657 N   0  0  0  0  0  0  0  0  0  0  0  0
    5.0090  -21.3297   22.7369 C   0  0  0  0  0  0  0  0  0  0  0  0
    5.1286  -22.5085   23.1821 N   0  0  0  0  0  0  0  0  0  0  0  0
    5.4533  -20.2326   23.5075 N   0  0  0  0  0  0  0  0  0  0  0  0
    6.8970  -19.8759   23.3895 C   0  0  0  0  0  0  0  0  0  0  0  0
    7.2986  -19.4469   24.7449 C   0  0  0  0  0  0  0  0  0  0  0  0
    8.2818  -18.4040   24.9319 C   0  0  0  0  0  0  0  0  0  0  0  0
    8.5234  -17.7626   26.2479 C   0  0  2  0  0  0  0  0  0  0  0  0
    8.5559  -16.2965   25.8722 N   0  0  0  0  0  0  0  0  0  0  0  0
    9.8141  -17.9831   26.9028 C   0  0  0  0  0  0  0  0  0  0  0  0
   10.8495  -17.2821   26.7377 O   0  0  0  0  0  0  0  0  0  0  0  0
    9.9242  -19.0754   27.8044 O   0  0  0  0  0  0  0  0  0  0  0  0
  1  2  1  0
  3  2  1  0
  3  4  2  0
  6  5  1  1
  6  8  1  0
  7  6  1  0
  9  8  1  1
  9 10  1  0
 10  3  1  0
 11  9  1  0
 12 11  2  0
 13 14  1  0
 14 15  2  0
 16 14  1  0
 16 17  1  0
 17 18  1  0
 20 19  1  6
 19 18  1  0
 20 21  1  0
 21 11  1  0
 22 20  1  0
 23 22  2  0
 24 22  1  0
M  END
$$$$
