GLR.pdb
     RDKit          3D

 24 23  0  0  1  0  0  0  0  0999 V2000
    5.4877  -16.9051   21.3468 N   0  0  0  0  0  0  0  0  0  0  0  0
    5.3640  -16.4666   22.7014 C   0  0  0  0  0  0  0  0  0  0  0  0
    6.6440  -15.8861   23.2411 C   0  0  0  0  0  0  0  0  0  0  0  0
    7.6532  -16.0076   22.5240 O   0  0  0  0  0  0  0  0  0  0  0  0
    6.4321  -11.6674   26.9244 C   0  0  0  0  0  0  0  0  0  0  0  0
    6.9408  -12.4942   25.7692 C   0  0  1  0  0  0  0  0  0  0  0  0
    7.8301  -11.7625   24.8201 C   0  0  0  0  0  0  0  0  0  0  0  0
    7.5589  -13.7891   26.1993 C   0  0  0  0  0  0  0  0  0  0  0  0
    7.8107  -14.7819   25.1325 C   0  0  2  0  0  0  0  0  0  0  0  0
    6.6089  -15.2516   24.5093 N   0  0  0  0  0  0  0  0  0  0  0  0
    8.5973  -15.9607   25.5989 C   0  0  0  0  0  0  0  0  0  0  0  0
    8.0401  -16.8440   26.2949 O   0  0  0  0  0  0  0  0  0  0  0  0
   14.3400  -18.9538   20.4563 N   0  0  0  0  0  0  0  0  0  0  0  0
   13.9777  -19.5206   21.7017 C   0  0  0  0  0  0  0  0  0  0  0  0
   14.8343  -20.1584   22.3812 N   0  0  0  0  0  0  0  0  0  0  0  0
   12.6579  -19.3741   22.1827 N   0  0  0  0  0  0  0  0  0  0  0  0
   12.4151  -19.7791   23.5978 C   0  0  0  0  0  0  0  0  0  0  0  0
   12.6302  -18.5515   24.3908 C   0  0  0  0  0  0  0  0  0  0  0  0
   11.6133  -17.5267   24.4620 C   0  0  0  0  0  0  0  0  0  0  0  0
   10.6130  -17.4705   25.5564 C   0  0  2  0  0  0  0  0  0  0  0  0
    9.9479  -16.1360   25.2948 N   0  0  0  0  0  0  0  0  0  0  0  0
   11.0948  -17.3557   26.9340 C   0  0  0  0  0  0  0  0  0  0  0  0
   11.2248  -16.2790   27.5781 O   0  0  0  0  0  0  0  0  0  0  0  0
   11.4488  -18.5502   27.6164 O   0  0  0  0  0  0  0  0  0  0  0  0
  1  2  1  0
  3  2  1  0
  3  4  2  0
  6  5  1  1
  6  8  1  0
  7  6  1  0
  9  8  1  1
  9 10  1  0
 10  3  1  0
 11  9  1  0
 12 11  2  0
 13 14  1  0
 14 15  2  0
 16 14  1  0
 16 17  1  0
 17 18  1  0
 20 19  1  6
 19 18  1  0
 20 21  1  0
 21 11  1  0
 22 20  1  0
 23 22  2  0
 24 22  1  0
M  END
$$$$
