GLR.pdb
     RDKit          3D

 24 23  0  0  1  0  0  0  0  0999 V2000
    8.0304  -19.4509   19.1175 N   0  0  0  0  0  0  0  0  0  0  0  0
    7.1746  -18.5265   19.7926 C   0  0  0  0  0  0  0  0  0  0  0  0
    7.9404  -17.4510   20.5161 C   0  0  0  0  0  0  0  0  0  0  0  0
    9.1252  -17.7069   20.7956 O   0  0  0  0  0  0  0  0  0  0  0  0
    6.6739  -12.0596   19.8853 C   0  0  0  0  0  0  0  0  0  0  0  0
    7.4486  -13.3398   20.0800 C   0  0  1  0  0  0  0  0  0  0  0  0
    8.8770  -13.2777   19.6525 C   0  0  0  0  0  0  0  0  0  0  0  0
    7.3228  -13.8991   21.4639 C   0  0  0  0  0  0  0  0  0  0  0  0
    7.8684  -15.2575   21.6743 C   0  0  2  0  0  0  0  0  0  0  0  0
    7.2669  -16.2408   20.8231 N   0  0  0  0  0  0  0  0  0  0  0  0
    7.7622  -15.7224   23.0879 C   0  0  0  0  0  0  0  0  0  0  0  0
    6.6471  -16.0724   23.5452 O   0  0  0  0  0  0  0  0  0  0  0  0
    5.4335  -21.7387   25.2973 N   0  0  0  0  0  0  0  0  0  0  0  0
    6.3074  -21.7292   26.4107 C   0  0  0  0  0  0  0  0  0  0  0  0
    5.9075  -22.1531   27.5343 N   0  0  0  0  0  0  0  0  0  0  0  0
    7.6257  -21.2439   26.2647 N   0  0  0  0  0  0  0  0  0  0  0  0
    7.8945  -20.3930   25.0692 C   0  0  0  0  0  0  0  0  0  0  0  0
    8.1499  -19.0419   25.6091 C   0  0  0  0  0  0  0  0  0  0  0  0
    8.4977  -17.9463   24.7326 C   0  0  0  0  0  0  0  0  0  0  0  0
    8.7635  -16.5760   25.2357 C   0  0  2  0  0  0  0  0  0  0  0  0
    8.8609  -15.7900   23.9456 N   0  0  0  0  0  0  0  0  0  0  0  0
   10.0415  -16.3146   25.9003 C   0  0  0  0  0  0  0  0  0  0  0  0
   11.0850  -15.8821   25.3391 O   0  0  0  0  0  0  0  0  0  0  0  0
   10.1284  -16.5639   27.2961 O   0  0  0  0  0  0  0  0  0  0  0  0
  1  2  1  0
  3  2  1  0
  3  4  2  0
  6  5  1  1
  6  8  1  0
  7  6  1  0
  9  8  1  1
  9 10  1  0
 10  3  1  0
 11  9  1  0
 12 11  2  0
 13 14  1  0
 14 15  2  0
 16 14  1  0
 16 17  1  0
 17 18  1  0
 20 19  1  6
 19 18  1  0
 20 21  1  0
 21 11  1  0
 22 20  1  0
 23 22  2  0
 24 22  1  0
M  END
$$$$
