YLF.pdb
     RDKit          3D

 32 33  0  0  1  0  0  0  0  0999 V2000
   30.6251  -15.6035  -18.5753 O   0  0  0  0  0  0  0  0  0  0  0  0
   29.8346  -16.0478  -17.5104 C   0  0  0  0  0  0  0  0  0  0  0  0
   29.8959  -17.3620  -17.1115 C   0  0  0  0  0  0  0  0  0  0  0  0
   29.1272  -17.8042  -16.0723 C   0  0  0  0  0  0  0  0  0  0  0  0
   28.2903  -16.9554  -15.4145 C   0  0  0  0  0  0  0  0  0  0  0  0
   27.4513  -17.4062  -14.2930 C   0  0  0  0  0  0  0  0  0  0  0  0
   26.6657  -18.6549  -14.6790 C   0  0  2  0  0  0  0  0  0  0  0  0
   25.7050  -18.2215  -15.6936 N   0  0  0  0  0  0  0  0  0  0  0  0
   25.9674  -19.1872  -13.4906 C   0  0  0  0  0  0  0  0  0  0  0  0
   25.1255  -18.4613  -12.9028 O   0  0  0  0  0  0  0  0  0  0  0  0
   28.1915  -15.6178  -15.7780 C   0  0  0  0  0  0  0  0  0  0  0  0
   28.9765  -15.1876  -16.8314 C   0  0  0  0  0  0  0  0  0  0  0  0
   23.9576  -23.8971  -13.6634 C   0  0  0  0  0  0  0  0  0  0  0  0
   24.2866  -22.4255  -13.3550 C   0  0  1  0  0  0  0  0  0  0  0  0
   22.9992  -21.6952  -12.9962 C   0  0  0  0  0  0  0  0  0  0  0  0
   25.1832  -22.4549  -12.1586 C   0  0  0  0  0  0  0  0  0  0  0  0
   25.5385  -21.0067  -11.7952 C   0  0  2  0  0  0  0  0  0  0  0  0
   26.1890  -20.4681  -12.9745 N   0  0  0  0  0  0  0  0  0  0  0  0
   26.4215  -21.0987  -10.6256 C   0  0  0  0  0  0  0  0  0  0  0  0
   27.4257  -21.8254  -10.6541 O   0  0  0  0  0  0  0  0  0  0  0  0
   26.1118  -20.3441   -9.4721 N   0  0  0  0  0  0  0  0  0  0  0  0
   26.7669  -20.5385   -8.1892 C   0  0  1  0  0  0  0  0  0  0  0  0
   27.5486  -19.3019   -7.8036 C   0  0  0  0  0  0  0  0  0  0  0  0
   28.1022  -19.4777   -6.4501 C   0  0  0  0  0  0  0  0  0  0  0  0
   29.1302  -20.3624   -6.1463 C   0  0  0  0  0  0  0  0  0  0  0  0
   29.6242  -20.4913   -4.8886 C   0  0  0  0  0  0  0  0  0  0  0  0
   29.1244  -19.7358   -3.8253 C   0  0  0  0  0  0  0  0  0  0  0  0
   28.1021  -18.8517   -4.1077 C   0  0  0  0  0  0  0  0  0  0  0  0
   27.6075  -18.7269   -5.3771 C   0  0  0  0  0  0  0  0  0  0  0  0
   25.8915  -20.9872   -7.1368 C   0  0  0  0  0  0  0  0  0  0  0  0
   24.6270  -20.8069   -7.2550 O   0  0  0  0  0  0  0  0  0  0  0  0
   26.2674  -21.6165   -5.9671 O   0  0  0  0  0  0  0  0  0  0  0  0
  2  3  2  0
  2  1  1  0
  4  3  1  0
  5 11  1  0
  5  4  2  0
  6  7  1  0
  6  5  1  0
  7  9  1  0
  7  8  1  6
  9 10  2  0
 11 12  2  0
 12  2  1  0
 14 13  1  1
 15 14  1  0
 16 14  1  0
 17 16  1  6
 18 17  1  0
 18  9  1  0
 19 20  2  0
 19 17  1  0
 21 19  1  0
 22 21  1  0
 22 23  1  1
 23 24  1  0
 24 25  2  0
 25 26  1  0
 27 26  2  0
 28 27  1  0
 29 24  1  0
 29 28  2  0
 30 22  1  0
 31 30  2  0
 32 30  1  0
M  END
$$$$
