YLF.pdb
     RDKit          3D

 32 33  0  0  1  0  0  0  0  0999 V2000
   15.1205   -9.6924  -21.1111 O   0  0  0  0  0  0  0  0  0  0  0  0
   15.4206   -9.7675  -19.7471 C   0  0  0  0  0  0  0  0  0  0  0  0
   15.8328   -8.6432  -19.0719 C   0  0  0  0  0  0  0  0  0  0  0  0
   16.1279   -8.7078  -17.7395 C   0  0  0  0  0  0  0  0  0  0  0  0
   16.0189   -9.8815  -17.0582 C   0  0  0  0  0  0  0  0  0  0  0  0
   16.3313   -9.9784  -15.6236 C   0  0  0  0  0  0  0  0  0  0  0  0
   17.8176   -9.7388  -15.3810 C   0  0  2  0  0  0  0  0  0  0  0  0
   18.4671  -11.0335  -15.5872 N   0  0  0  0  0  0  0  0  0  0  0  0
   18.0229   -9.2650  -13.9965 C   0  0  0  0  0  0  0  0  0  0  0  0
   17.8544  -10.0706  -13.0457 O   0  0  0  0  0  0  0  0  0  0  0  0
   15.6062  -11.0463  -17.6938 C   0  0  0  0  0  0  0  0  0  0  0  0
   15.3118  -10.9625  -19.0418 C   0  0  0  0  0  0  0  0  0  0  0  0
   21.7944   -5.6171  -13.2002 C   0  0  0  0  0  0  0  0  0  0  0  0
   20.8654   -6.8338  -13.0399 C   0  0  1  0  0  0  0  0  0  0  0  0
   21.4862   -7.8025  -12.0420 C   0  0  0  0  0  0  0  0  0  0  0  0
   19.5906   -6.2958  -12.4729 C   0  0  0  0  0  0  0  0  0  0  0  0
   18.6049   -7.4634  -12.3280 C   0  0  2  0  0  0  0  0  0  0  0  0
   18.3999   -7.9567  -13.6765 N   0  0  0  0  0  0  0  0  0  0  0  0
   17.3979   -6.8878  -11.7214 C   0  0  0  0  0  0  0  0  0  0  0  0
   16.6489   -6.1580  -12.3875 O   0  0  0  0  0  0  0  0  0  0  0  0
   17.1021   -7.1821  -10.3717 N   0  0  0  0  0  0  0  0  0  0  0  0
   15.9254   -6.6790   -9.6825 C   0  0  1  0  0  0  0  0  0  0  0  0
   15.6522   -7.4972   -8.4396 C   0  0  0  0  0  0  0  0  0  0  0  0
   14.4103   -7.0218   -7.8064 C   0  0  0  0  0  0  0  0  0  0  0  0
   13.1441   -7.4767   -8.1547 C   0  0  0  0  0  0  0  0  0  0  0  0
   12.0203   -7.0244   -7.5423 C   0  0  0  0  0  0  0  0  0  0  0  0
   12.0760   -6.0729   -6.5212 C   0  0  0  0  0  0  0  0  0  0  0  0
   13.3256   -5.6084   -6.1618 C   0  0  0  0  0  0  0  0  0  0  0  0
   14.4547   -6.0671   -6.7835 C   0  0  0  0  0  0  0  0  0  0  0  0
   15.9527   -5.2637   -9.4155 C   0  0  0  0  0  0  0  0  0  0  0  0
   17.0473   -4.7216   -9.0240 O   0  0  0  0  0  0  0  0  0  0  0  0
   14.8964   -4.3835   -9.5375 O   0  0  0  0  0  0  0  0  0  0  0  0
  2  3  2  0
  2  1  1  0
  4  3  1  0
  5 11  1  0
  5  4  2  0
  6  7  1  0
  6  5  1  0
  7  9  1  0
  7  8  1  1
  9 10  2  0
 11 12  2  0
 12  2  1  0
 14 13  1  1
 15 14  1  0
 16 14  1  0
 17 16  1  6
 18 17  1  0
 18  9  1  0
 19 20  2  0
 19 17  1  0
 21 19  1  0
 22 21  1  0
 22 23  1  1
 23 24  1  0
 24 25  2  0
 25 26  1  0
 27 26  2  0
 28 27  1  0
 29 24  1  0
 29 28  2  0
 30 22  1  0
 31 30  2  0
 32 30  1  0
M  END
$$$$
