YLF.pdb
     RDKit          3D

 32 33  0  0  1  0  0  0  0  0999 V2000
   16.1227  -24.7310  -14.7645 O   0  0  0  0  0  0  0  0  0  0  0  0
   17.1914  -23.8317  -14.6918 C   0  0  0  0  0  0  0  0  0  0  0  0
   16.9499  -22.4785  -14.6732 C   0  0  0  0  0  0  0  0  0  0  0  0
   17.9881  -21.5931  -14.6022 C   0  0  0  0  0  0  0  0  0  0  0  0
   19.2756  -22.0325  -14.5482 C   0  0  0  0  0  0  0  0  0  0  0  0
   20.4115  -21.1004  -14.4722 C   0  0  0  0  0  0  0  0  0  0  0  0
   21.1351  -21.2443  -13.1377 C   0  0  2  0  0  0  0  0  0  0  0  0
   20.2092  -20.7329  -12.1270 N   0  0  0  0  0  0  0  0  0  0  0  0
   22.3783  -20.4460  -13.1603 C   0  0  0  0  0  0  0  0  0  0  0  0
   22.2963  -19.1912  -13.1678 O   0  0  0  0  0  0  0  0  0  0  0  0
   19.5734  -23.3897  -14.5637 C   0  0  0  0  0  0  0  0  0  0  0  0
   18.5110  -24.2710  -14.6356 C   0  0  0  0  0  0  0  0  0  0  0  0
   26.5251  -22.1252  -10.4029 C   0  0  0  0  0  0  0  0  0  0  0  0
   25.4773  -21.2317  -11.0905 C   0  0  1  0  0  0  0  0  0  0  0  0
   25.4848  -19.8604  -10.4281 C   0  0  0  0  0  0  0  0  0  0  0  0
   25.9331  -21.0938  -12.5081 C   0  0  0  0  0  0  0  0  0  0  0  0
   24.8926  -20.2546  -13.2622 C   0  0  2  0  0  0  0  0  0  0  0  0
   23.6579  -21.0105  -13.1725 N   0  0  0  0  0  0  0  0  0  0  0  0
   25.4066  -20.1264  -14.6317 C   0  0  0  0  0  0  0  0  0  0  0  0
   25.3401  -21.0827  -15.4181 O   0  0  0  0  0  0  0  0  0  0  0  0
   25.9723  -18.8976  -15.0392 N   0  0  0  0  0  0  0  0  0  0  0  0
   26.5167  -18.6689  -16.3674 C   0  0  1  0  0  0  0  0  0  0  0  0
   26.5681  -17.1871  -16.6682 C   0  0  0  0  0  0  0  0  0  0  0  0
   27.0539  -16.9857  -18.0439 C   0  0  0  0  0  0  0  0  0  0  0  0
   26.2639  -17.1600  -19.1740 C   0  0  0  0  0  0  0  0  0  0  0  0
   26.7416  -16.9549  -20.4279 C   0  0  0  0  0  0  0  0  0  0  0  0
   28.0606  -16.5534  -20.6518 C   0  0  0  0  0  0  0  0  0  0  0  0
   28.8611  -16.3758  -19.5409 C   0  0  0  0  0  0  0  0  0  0  0  0
   28.3744  -16.5850  -18.2796 C   0  0  0  0  0  0  0  0  0  0  0  0
   27.7750  -19.3253  -16.6151 C   0  0  0  0  0  0  0  0  0  0  0  0
   28.6772  -19.3134  -15.7035 O   0  0  0  0  0  0  0  0  0  0  0  0
   28.1401  -19.9956  -17.7652 O   0  0  0  0  0  0  0  0  0  0  0  0
  2  3  2  0
  2  1  1  0
  4  3  1  0
  5 11  1  0
  5  4  2  0
  6  7  1  0
  6  5  1  0
  7  9  1  0
  7  8  1  1
  9 10  2  0
 11 12  2  0
 12  2  1  0
 14 13  1  1
 15 14  1  0
 16 14  1  0
 17 16  1  1
 18 17  1  0
 18  9  1  0
 19 20  2  0
 19 17  1  0
 21 19  1  0
 22 21  1  0
 22 23  1  1
 23 24  1  0
 24 25  2  0
 25 26  1  0
 27 26  2  0
 28 27  1  0
 29 24  1  0
 29 28  2  0
 30 22  1  0
 31 30  2  0
 32 30  1  0
M  END
$$$$
