YLF.pdb
     RDKit          3D

 32 33  0  0  1  0  0  0  0  0999 V2000
   29.8212  -15.2909  -19.7727 O   0  0  0  0  0  0  0  0  0  0  0  0
   29.0350  -16.1912  -19.0462 C   0  0  0  0  0  0  0  0  0  0  0  0
   28.6649  -15.8936  -17.7561 C   0  0  0  0  0  0  0  0  0  0  0  0
   27.8971  -16.7673  -17.0394 C   0  0  0  0  0  0  0  0  0  0  0  0
   27.4851  -17.9436  -17.5873 C   0  0  0  0  0  0  0  0  0  0  0  0
   26.6586  -18.9022  -16.8371 C   0  0  0  0  0  0  0  0  0  0  0  0
   27.5382  -19.8827  -16.0689 C   0  0  2  0  0  0  0  0  0  0  0  0
   28.1277  -20.7622  -17.0786 N   0  0  0  0  0  0  0  0  0  0  0  0
   26.7077  -20.6558  -15.1223 C   0  0  0  0  0  0  0  0  0  0  0  0
   25.9437  -21.5483  -15.5706 O   0  0  0  0  0  0  0  0  0  0  0  0
   27.8314  -18.2916  -18.8873 C   0  0  0  0  0  0  0  0  0  0  0  0
   28.6084  -17.3959  -19.5977 C   0  0  0  0  0  0  0  0  0  0  0  0
   25.3334  -22.3110  -10.3285 C   0  0  0  0  0  0  0  0  0  0  0  0
   25.0683  -20.8005  -10.4589 C   0  0  1  0  0  0  0  0  0  0  0  0
   25.3453  -20.1318   -9.1189 C   0  0  0  0  0  0  0  0  0  0  0  0
   26.0540  -20.3038  -11.4678 C   0  0  0  0  0  0  0  0  0  0  0  0
   25.7068  -20.9358  -12.8226 C   0  0  2  0  0  0  0  0  0  0  0  0
   26.7220  -20.4520  -13.7386 N   0  0  0  0  0  0  0  0  0  0  0  0
   24.3529  -20.4654  -13.1420 C   0  0  0  0  0  0  0  0  0  0  0  0
   24.0918  -19.2533  -13.1309 O   0  0  0  0  0  0  0  0  0  0  0  0
   23.3566  -21.4133  -13.4658 N   0  0  0  0  0  0  0  0  0  0  0  0
   21.9775  -21.0571  -13.7556 C   0  0  1  0  0  0  0  0  0  0  0  0
   21.6715  -21.2815  -15.2201 C   0  0  0  0  0  0  0  0  0  0  0  0
   20.2860  -20.8662  -15.4977 C   0  0  0  0  0  0  0  0  0  0  0  0
   19.9178  -19.5601  -15.7977 C   0  0  0  0  0  0  0  0  0  0  0  0
   18.6315  -19.2141  -16.0592 C   0  0  0  0  0  0  0  0  0  0  0  0
   17.6022  -20.1582  -16.0427 C   0  0  0  0  0  0  0  0  0  0  0  0
   17.9486  -21.4613  -15.7459 C   0  0  0  0  0  0  0  0  0  0  0  0
   19.2466  -21.8039  -15.4820 C   0  0  0  0  0  0  0  0  0  0  0  0
   21.0087  -21.6781  -12.8889 C   0  0  0  0  0  0  0  0  0  0  0  0
   20.1391  -20.9453  -12.2956 O   0  0  0  0  0  0  0  0  0  0  0  0
   20.8990  -23.0257  -12.6105 O   0  0  0  0  0  0  0  0  0  0  0  0
  2  3  2  0
  2  1  1  0
  4  3  1  0
  5 11  1  0
  5  4  2  0
  6  7  1  0
  6  5  1  0
  7  9  1  0
  7  8  1  6
  9 10  2  0
 11 12  2  0
 12  2  1  0
 14 13  1  1
 15 14  1  0
 16 14  1  0
 17 16  1  1
 18 17  1  0
 18  9  1  0
 19 20  2  0
 19 17  1  0
 21 19  1  0
 22 21  1  0
 22 23  1  6
 23 24  1  0
 24 25  2  0
 25 26  1  0
 27 26  2  0
 28 27  1  0
 29 24  1  0
 29 28  2  0
 30 22  1  0
 31 30  2  0
 32 30  1  0
M  END
$$$$
