YLF.pdb
     RDKit          3D

 32 33  0  0  1  0  0  0  0  0999 V2000
   18.4738  -17.3476  -15.5634 O   0  0  0  0  0  0  0  0  0  0  0  0
   19.4885  -18.1087  -14.9739 C   0  0  0  0  0  0  0  0  0  0  0  0
   19.4745  -19.4785  -15.0895 C   0  0  0  0  0  0  0  0  0  0  0  0
   20.4618  -20.2295  -14.5168 C   0  0  0  0  0  0  0  0  0  0  0  0
   21.4740  -19.6379  -13.8245 C   0  0  0  0  0  0  0  0  0  0  0  0
   22.5486  -20.4234  -13.1976 C   0  0  0  0  0  0  0  0  0  0  0  0
   23.8997  -20.0667  -13.8080 C   0  0  2  0  0  0  0  0  0  0  0  0
   23.7706  -20.3327  -15.2409 N   0  0  0  0  0  0  0  0  0  0  0  0
   24.9519  -20.9152  -13.2111 C   0  0  0  0  0  0  0  0  0  0  0  0
   24.7825  -22.1607  -13.1751 O   0  0  0  0  0  0  0  0  0  0  0  0
   21.5346  -18.2573  -13.6788 C   0  0  0  0  0  0  0  0  0  0  0  0
   20.5277  -17.5133  -14.2648 C   0  0  0  0  0  0  0  0  0  0  0  0
   29.7665  -19.2394  -14.0416 C   0  0  0  0  0  0  0  0  0  0  0  0
   28.4355  -19.9735  -13.7996 C   0  0  1  0  0  0  0  0  0  0  0  0
   28.3528  -21.1705  -14.7376 C   0  0  0  0  0  0  0  0  0  0  0  0
   28.4948  -20.4608  -12.3871 C   0  0  0  0  0  0  0  0  0  0  0  0
   27.1927  -21.2173  -12.0904 C   0  0  2  0  0  0  0  0  0  0  0  0
   26.1416  -20.4087  -12.6778 N   0  0  0  0  0  0  0  0  0  0  0  0
   27.1157  -21.3111  -10.6270 C   0  0  0  0  0  0  0  0  0  0  0  0
   27.8812  -22.0633  -10.0061 O   0  0  0  0  0  0  0  0  0  0  0  0
   26.1611  -20.5288   -9.9395 N   0  0  0  0  0  0  0  0  0  0  0  0
   25.9638  -20.5894   -8.5007 C   0  0  1  0  0  0  0  0  0  0  0  0
   26.3191  -19.2640   -7.8635 C   0  0  0  0  0  0  0  0  0  0  0  0
   27.3509  -19.4789   -6.8346 C   0  0  0  0  0  0  0  0  0  0  0  0
   27.4209  -20.6159   -6.0384 C   0  0  0  0  0  0  0  0  0  0  0  0
   28.3928  -20.7861   -5.1062 C   0  0  0  0  0  0  0  0  0  0  0  0
   29.3824  -19.8228   -4.8967 C   0  0  0  0  0  0  0  0  0  0  0  0
   29.3288  -18.6858   -5.6781 C   0  0  0  0  0  0  0  0  0  0  0  0
   28.3461  -18.5192   -6.6152 C   0  0  0  0  0  0  0  0  0  0  0  0
   24.6643  -21.0633   -8.0983 C   0  0  0  0  0  0  0  0  0  0  0  0
   23.7215  -21.1175   -8.9664 O   0  0  0  0  0  0  0  0  0  0  0  0
   24.2976  -21.4856   -6.8364 O   0  0  0  0  0  0  0  0  0  0  0  0
  2  3  2  0
  2  1  1  0
  4  3  1  0
  5 11  1  0
  5  4  2  0
  6  7  1  0
  6  5  1  0
  7  9  1  0
  7  8  1  6
  9 10  2  0
 11 12  2  0
 12  2  1  0
 14 13  1  6
 15 14  1  0
 16 14  1  0
 17 16  1  1
 18 17  1  0
 18  9  1  0
 19 20  2  0
 19 17  1  0
 21 19  1  0
 22 21  1  0
 22 23  1  6
 23 24  1  0
 24 25  2  0
 25 26  1  0
 27 26  2  0
 28 27  1  0
 29 24  1  0
 29 28  2  0
 30 22  1  0
 31 30  2  0
 32 30  1  0
M  END
$$$$
