YLF.pdb
     RDKit          3D

 32 33  0  0  1  0  0  0  0  0999 V2000
   21.0947  -13.9494  -24.9840 O   0  0  0  0  0  0  0  0  0  0  0  0
   21.3059  -14.6674  -23.8024 C   0  0  0  0  0  0  0  0  0  0  0  0
   21.0712  -16.0216  -23.7707 C   0  0  0  0  0  0  0  0  0  0  0  0
   21.2750  -16.7305  -22.6207 C   0  0  0  0  0  0  0  0  0  0  0  0
   21.7132  -16.1120  -21.4897 C   0  0  0  0  0  0  0  0  0  0  0  0
   21.9397  -16.8519  -20.2382 C   0  0  0  0  0  0  0  0  0  0  0  0
   23.4320  -16.9680  -19.9465 C   0  0  2  0  0  0  0  0  0  0  0  0
   23.9699  -17.8564  -20.9770 N   0  0  0  0  0  0  0  0  0  0  0  0
   23.6296  -17.5469  -18.6014 C   0  0  0  0  0  0  0  0  0  0  0  0
   23.5480  -18.7933  -18.4567 O   0  0  0  0  0  0  0  0  0  0  0  0
   21.9656  -14.7457  -21.4691 C   0  0  0  0  0  0  0  0  0  0  0  0
   21.7542  -14.0443  -22.6413 C   0  0  0  0  0  0  0  0  0  0  0  0
   26.7042  -14.6411  -15.4762 C   0  0  0  0  0  0  0  0  0  0  0  0
   26.0308  -15.7965  -16.2381 C   0  0  1  0  0  0  0  0  0  0  0  0
   27.0240  -16.9427  -16.3776 C   0  0  0  0  0  0  0  0  0  0  0  0
   24.8911  -16.2376  -15.3762 C   0  0  0  0  0  0  0  0  0  0  0  0
   24.1136  -17.3218  -16.1349 C   0  0  2  0  0  0  0  0  0  0  0  0
   23.9071  -16.7807  -17.4647 N   0  0  0  0  0  0  0  0  0  0  0  0
   22.8701  -17.5175  -15.3789 C   0  0  0  0  0  0  0  0  0  0  0  0
   22.3570  -16.5727  -14.7611 O   0  0  0  0  0  0  0  0  0  0  0  0
   22.2667  -18.7949  -15.3708 N   0  0  0  0  0  0  0  0  0  0  0  0
   20.8285  -19.0006  -15.4139 C   0  0  1  0  0  0  0  0  0  0  0  0
   20.2177  -18.2172  -16.5550 C   0  0  0  0  0  0  0  0  0  0  0  0
   18.7551  -18.3890  -16.5363 C   0  0  0  0  0  0  0  0  0  0  0  0
   18.0943  -19.4420  -17.1577 C   0  0  0  0  0  0  0  0  0  0  0  0
   16.7443  -19.5757  -17.1112 C   0  0  0  0  0  0  0  0  0  0  0  0
   15.9412  -18.6576  -16.4305 C   0  0  0  0  0  0  0  0  0  0  0  0
   16.5799  -17.6040  -15.8073 C   0  0  0  0  0  0  0  0  0  0  0  0
   17.9409  -17.4738  -15.8586 C   0  0  0  0  0  0  0  0  0  0  0  0
   20.4258  -20.3838  -15.4177 C   0  0  0  0  0  0  0  0  0  0  0  0
   19.4613  -20.7569  -14.6589 O   0  0  0  0  0  0  0  0  0  0  0  0
   20.9767  -21.3984  -16.1743 O   0  0  0  0  0  0  0  0  0  0  0  0
  2  3  2  0
  2  1  1  0
  4  3  1  0
  5 11  1  0
  5  4  2  0
  6  7  1  0
  6  5  1  0
  7  9  1  0
  7  8  1  6
  9 10  2  0
 11 12  2  0
 12  2  1  0
 14 13  1  1
 15 14  1  0
 16 14  1  0
 17 16  1  1
 18 17  1  0
 18  9  1  0
 19 20  2  0
 19 17  1  0
 21 19  1  0
 22 21  1  0
 22 23  1  6
 23 24  1  0
 24 25  2  0
 25 26  1  0
 27 26  2  0
 28 27  1  0
 29 24  1  0
 29 28  2  0
 30 22  1  0
 31 30  2  0
 32 30  1  0
M  END
$$$$
