CWQ.pdb
     RDKit          3D

 30 31  0  0  1  0  0  0  0  0999 V2000
    7.0335  -14.7029   19.9210 N   0  0  0  0  0  0  0  0  0  0  0  0
    7.3396  -15.8850   20.6920 C   0  0  1  0  0  0  0  0  0  0  0  0
    7.8199  -16.9829   19.8031 C   0  0  0  0  0  0  0  0  0  0  0  0
    6.3904  -17.5444   18.8111 S   0  0  0  0  0  0  0  0  0  0  0  0
    8.2591  -15.5869   21.8208 C   0  0  0  0  0  0  0  0  0  0  0  0
    9.0694  -14.6289   21.7267 O   0  0  0  0  0  0  0  0  0  0  0  0
    8.2775  -16.3345   23.0229 N   0  0  0  0  0  0  0  0  0  0  0  0
    9.0620  -16.0470   24.1818 C   0  0  1  0  0  0  0  0  0  0  0  0
    8.2872  -16.1329   25.4692 C   0  0  0  0  0  0  0  0  0  0  0  0
    7.2484  -15.1038   25.6034 C   0  0  0  0  0  0  0  0  0  0  0  0
    5.8879  -15.2522   25.4623 C   0  0  0  0  0  0  0  0  0  0  0  0
    5.2873  -14.0763   25.6625 N   0  0  0  0  0  0  0  0  0  0  0  0
    6.2340  -13.1557   25.9335 C   0  0  0  0  0  0  0  0  0  0  0  0
    6.1895  -11.8100   26.2149 C   0  0  0  0  0  0  0  0  0  0  0  0
    7.3396  -11.0762   26.4633 C   0  0  0  0  0  0  0  0  0  0  0  0
    8.5677  -11.6879   26.4330 C   0  0  0  0  0  0  0  0  0  0  0  0
    8.6070  -13.0443   26.1488 C   0  0  0  0  0  0  0  0  0  0  0  0
    7.4632  -13.7777   25.9011 C   0  0  0  0  0  0  0  0  0  0  0  0
   10.1750  -17.0278   24.2605 C   0  0  0  0  0  0  0  0  0  0  0  0
    9.9827  -18.2172   23.9365 O   0  0  0  0  0  0  0  0  0  0  0  0
   14.7068  -15.0141   22.1558 N   0  0  0  0  0  0  0  0  0  0  0  0
   15.2382  -16.3044   22.3688 C   0  0  0  0  0  0  0  0  0  0  0  0
   16.3620  -16.6321   21.8392 O   0  0  0  0  0  0  0  0  0  0  0  0
   14.5959  -17.3433   23.1809 C   0  0  0  0  0  0  0  0  0  0  0  0
   13.7923  -16.8891   24.3343 C   0  0  0  0  0  0  0  0  0  0  0  0
   12.5704  -17.6698   24.6880 C   0  0  2  0  0  0  0  0  0  0  0  0
   11.4744  -16.6725   24.6950 N   0  0  0  0  0  0  0  0  0  0  0  0
   12.5776  -18.4046   25.9529 C   0  0  0  0  0  0  0  0  0  0  0  0
   13.2998  -19.5582   26.2215 O   0  0  0  0  0  0  0  0  0  0  0  0
   11.8627  -17.9717   26.9031 O   0  0  0  0  0  0  0  0  0  0  0  0
  2  1  1  6
  2  5  1  0
  3  2  1  0
  4  3  1  0
  5  7  1  0
  6  5  2  0
  7  8  1  0
  8 19  1  0
  8  9  1  1
  9 10  1  0
 10 18  1  0
 11 10  2  0
 11 12  1  0
 12 13  1  0
 13 14  1  0
 14 15  2  0
 16 15  1  0
 17 16  2  0
 18 13  2  0
 18 17  1  0
 19 27  1  0
 20 19  2  0
 21 22  1  0
 22 24  1  0
 22 23  2  0
 24 25  1  0
 26 25  1  1
 26 28  1  0
 27 26  1  0
 28 30  2  0
 28 29  1  0
M  END
$$$$
