CWQ.pdb
     RDKit          3D

 30 31  0  0  1  0  0  0  0  0999 V2000
    6.0006  -14.7304   20.4377 N   0  0  0  0  0  0  0  0  0  0  0  0
    6.9423  -15.7477   20.8422 C   0  0  1  0  0  0  0  0  0  0  0  0
    7.6211  -16.3391   19.6522 C   0  0  0  0  0  0  0  0  0  0  0  0
    8.6279  -17.7460   20.2435 S   0  0  0  0  0  0  0  0  0  0  0  0
    7.8837  -15.2500   21.8789 C   0  0  0  0  0  0  0  0  0  0  0  0
    8.2772  -14.0555   21.8397 O   0  0  0  0  0  0  0  0  0  0  0  0
    8.3749  -16.0591   22.9316 N   0  0  0  0  0  0  0  0  0  0  0  0
    9.3629  -15.6829   23.8926 C   0  0  1  0  0  0  0  0  0  0  0  0
    8.8966  -15.8137   25.3175 C   0  0  0  0  0  0  0  0  0  0  0  0
    7.7141  -15.0008   25.6292 C   0  0  0  0  0  0  0  0  0  0  0  0
    6.3979  -15.3999   25.6601 C   0  0  0  0  0  0  0  0  0  0  0  0
    5.6239  -14.3615   25.9865 N   0  0  0  0  0  0  0  0  0  0  0  0
    6.4130  -13.2842   26.1707 C   0  0  0  0  0  0  0  0  0  0  0  0
    6.1603  -11.9760   26.5124 C   0  0  0  0  0  0  0  0  0  0  0  0
    7.1785  -11.0434   26.6399 C   0  0  0  0  0  0  0  0  0  0  0  0
    8.4825  -11.4126   26.4242 C   0  0  0  0  0  0  0  0  0  0  0  0
    8.7318  -12.7324   26.0801 C   0  0  0  0  0  0  0  0  0  0  0  0
    7.7196  -13.6633   25.9524 C   0  0  0  0  0  0  0  0  0  0  0  0
   10.5501  -16.5602   23.7256 C   0  0  0  0  0  0  0  0  0  0  0  0
   10.4043  -17.7954   23.6264 O   0  0  0  0  0  0  0  0  0  0  0  0
   15.7187  -14.5042   20.9757 N   0  0  0  0  0  0  0  0  0  0  0  0
   14.4068  -14.8388   20.5761 C   0  0  0  0  0  0  0  0  0  0  0  0
   13.9826  -14.4971   19.4125 O   0  0  0  0  0  0  0  0  0  0  0  0
   13.4495  -15.5787   21.4052 C   0  0  0  0  0  0  0  0  0  0  0  0
   13.9770  -16.2150   22.6296 C   0  0  0  0  0  0  0  0  0  0  0  0
   13.0225  -16.9685   23.4949 C   0  0  2  0  0  0  0  0  0  0  0  0
   11.8706  -16.0534   23.6719 N   0  0  0  0  0  0  0  0  0  0  0  0
   13.5016  -17.4180   24.8019 C   0  0  0  0  0  0  0  0  0  0  0  0
   14.4219  -18.4311   25.0287 O   0  0  0  0  0  0  0  0  0  0  0  0
   13.0451  -16.8504   25.8367 O   0  0  0  0  0  0  0  0  0  0  0  0
  2  1  1  6
  2  5  1  0
  3  2  1  0
  4  3  1  0
  5  7  1  0
  6  5  2  0
  7  8  1  0
  8 19  1  0
  8  9  1  1
  9 10  1  0
 10 18  1  0
 11 10  2  0
 11 12  1  0
 12 13  1  0
 13 14  1  0
 14 15  2  0
 16 15  1  0
 17 16  2  0
 18 13  2  0
 18 17  1  0
 19 27  1  0
 20 19  2  0
 21 22  1  0
 22 24  1  0
 22 23  2  0
 24 25  1  0
 26 25  1  1
 26 28  1  0
 27 26  1  0
 28 30  2  0
 28 29  1  0
M  END
$$$$
