CWQ.pdb
     RDKit          3D

 30 31  0  0  1  0  0  0  0  0999 V2000
    7.4798  -16.3332   19.7452 N   0  0  0  0  0  0  0  0  0  0  0  0
    7.4025  -16.9705   21.0388 C   0  0  1  0  0  0  0  0  0  0  0  0
    7.4187  -18.4556   20.8952 C   0  0  0  0  0  0  0  0  0  0  0  0
    9.0335  -18.9145   20.1710 S   0  0  0  0  0  0  0  0  0  0  0  0
    8.4338  -16.4511   21.9743 C   0  0  0  0  0  0  0  0  0  0  0  0
    9.4339  -15.8378   21.5195 O   0  0  0  0  0  0  0  0  0  0  0  0
    8.3553  -16.6093   23.3789 N   0  0  0  0  0  0  0  0  0  0  0  0
    9.3323  -16.1839   24.3306 C   0  0  1  0  0  0  0  0  0  0  0  0
    8.7798  -15.9984   25.7181 C   0  0  0  0  0  0  0  0  0  0  0  0
    7.5827  -15.1495   25.7687 C   0  0  0  0  0  0  0  0  0  0  0  0
    6.2661  -15.5381   25.6770 C   0  0  0  0  0  0  0  0  0  0  0  0
    5.4764  -14.4648   25.7672 N   0  0  0  0  0  0  0  0  0  0  0  0
    6.2554  -13.3749   25.9170 C   0  0  0  0  0  0  0  0  0  0  0  0
    5.9856  -12.0333   26.0567 C   0  0  0  0  0  0  0  0  0  0  0  0
    6.9965  -11.0948   26.1987 C   0  0  0  0  0  0  0  0  0  0  0  0
    8.3101  -11.4917   26.2030 C   0  0  0  0  0  0  0  0  0  0  0  0
    8.5766  -12.8450   26.0619 C   0  0  0  0  0  0  0  0  0  0  0  0
    7.5719  -13.7820   25.9203 C   0  0  0  0  0  0  0  0  0  0  0  0
   10.4035  -17.2104   24.4066 C   0  0  0  0  0  0  0  0  0  0  0  0
   10.1110  -18.4224   24.3596 O   0  0  0  0  0  0  0  0  0  0  0  0
   14.3465  -15.4591   20.7722 N   0  0  0  0  0  0  0  0  0  0  0  0
   14.8071  -15.7354   22.0775 C   0  0  0  0  0  0  0  0  0  0  0  0
   16.0629  -15.6739   22.3424 O   0  0  0  0  0  0  0  0  0  0  0  0
   13.9408  -16.0946   23.2052 C   0  0  0  0  0  0  0  0  0  0  0  0
   13.7818  -17.5347   23.4942 C   0  0  0  0  0  0  0  0  0  0  0  0
   12.8094  -17.9336   24.5539 C   0  0  2  0  0  0  0  0  0  0  0  0
   11.7729  -16.8749   24.5328 N   0  0  0  0  0  0  0  0  0  0  0  0
   13.3194  -18.0983   25.9151 C   0  0  0  0  0  0  0  0  0  0  0  0
   12.9047  -17.3886   27.0326 O   0  0  0  0  0  0  0  0  0  0  0  0
   14.2272  -18.9567   26.1165 O   0  0  0  0  0  0  0  0  0  0  0  0
  2  1  1  6
  2  5  1  0
  3  2  1  0
  4  3  1  0
  5  7  1  0
  6  5  2  0
  7  8  1  0
  8 19  1  0
  8  9  1  1
  9 10  1  0
 10 18  1  0
 11 10  2  0
 11 12  1  0
 12 13  1  0
 13 14  1  0
 14 15  2  0
 16 15  1  0
 17 16  2  0
 18 13  2  0
 18 17  1  0
 19 27  1  0
 20 19  2  0
 21 22  1  0
 22 24  1  0
 22 23  2  0
 24 25  1  0
 26 25  1  6
 26 28  1  0
 27 26  1  0
 28 30  2  0
 28 29  1  0
M  END
$$$$
