CWQ.pdb
     RDKit          3D

 30 31  0  0  1  0  0  0  0  0999 V2000
    9.1641  -18.3989   19.7352 N   0  0  0  0  0  0  0  0  0  0  0  0
   10.4764  -17.8368   19.9532 C   0  0  1  0  0  0  0  0  0  0  0  0
   10.9967  -17.2147   18.7007 C   0  0  0  0  0  0  0  0  0  0  0  0
   10.3952  -18.2253   17.3009 S   0  0  0  0  0  0  0  0  0  0  0  0
   10.4998  -16.9242   21.1260 C   0  0  0  0  0  0  0  0  0  0  0  0
   11.5918  -16.4278   21.5061 O   0  0  0  0  0  0  0  0  0  0  0  0
    9.3397  -16.5728   21.8571 N   0  0  0  0  0  0  0  0  0  0  0  0
    9.2897  -15.7079   22.9932 C   0  0  1  0  0  0  0  0  0  0  0  0
    8.1179  -14.7636   22.9794 C   0  0  0  0  0  0  0  0  0  0  0  0
    7.4613  -14.6176   24.2847 C   0  0  0  0  0  0  0  0  0  0  0  0
    6.8273  -15.5881   25.0255 C   0  0  0  0  0  0  0  0  0  0  0  0
    6.3596  -15.0526   26.1561 N   0  0  0  0  0  0  0  0  0  0  0  0
    6.6771  -13.7426   26.1694 C   0  0  0  0  0  0  0  0  0  0  0  0
    6.4526  -12.7256   27.0680 C   0  0  0  0  0  0  0  0  0  0  0  0
    6.8969  -11.4328   26.8356 C   0  0  0  0  0  0  0  0  0  0  0  0
    7.5820  -11.1357   25.6843 C   0  0  0  0  0  0  0  0  0  0  0  0
    7.8057  -12.1643   24.7819 C   0  0  0  0  0  0  0  0  0  0  0  0
    7.3643  -13.4528   25.0107 C   0  0  0  0  0  0  0  0  0  0  0  0
    9.1840  -16.5377   24.2209 C   0  0  0  0  0  0  0  0  0  0  0  0
    8.2853  -17.3978   24.3174 O   0  0  0  0  0  0  0  0  0  0  0  0
   14.4031  -18.6968   24.1312 N   0  0  0  0  0  0  0  0  0  0  0  0
   13.8714  -19.4205   25.2203 C   0  0  0  0  0  0  0  0  0  0  0  0
   14.5202  -20.4165   25.7081 O   0  0  0  0  0  0  0  0  0  0  0  0
   12.5940  -19.1176   25.8743 C   0  0  0  0  0  0  0  0  0  0  0  0
   11.8285  -17.9693   25.3471 C   0  0  0  0  0  0  0  0  0  0  0  0
   10.5632  -17.5918   26.0429 C   0  0  2  0  0  0  0  0  0  0  0  0
   10.0731  -16.3987   25.3135 N   0  0  0  0  0  0  0  0  0  0  0  0
   10.6375  -17.2996   27.4744 C   0  0  0  0  0  0  0  0  0  0  0  0
   10.3584  -16.0797   28.0730 O   0  0  0  0  0  0  0  0  0  0  0  0
   10.9926  -18.2268   28.2589 O   0  0  0  0  0  0  0  0  0  0  0  0
  2  1  1  6
  2  5  1  0
  3  2  1  0
  4  3  1  0
  5  7  1  0
  6  5  2  0
  7  8  1  0
  8 19  1  0
  8  9  1  6
  9 10  1  0
 10 18  1  0
 11 10  2  0
 11 12  1  0
 12 13  1  0
 13 14  1  0
 14 15  2  0
 16 15  1  0
 17 16  2  0
 18 13  2  0
 18 17  1  0
 19 27  1  0
 20 19  2  0
 21 22  1  0
 22 24  1  0
 22 23  2  0
 24 25  1  0
 26 25  1  6
 26 28  1  0
 27 26  1  0
 28 30  2  0
 28 29  1  0
M  END
$$$$
