CWQ.pdb
     RDKit          3D

 30 31  0  0  1  0  0  0  0  0999 V2000
    7.2028  -17.4610   20.7503 N   0  0  0  0  0  0  0  0  0  0  0  0
    7.8372  -16.1824   20.5305 C   0  0  1  0  0  0  0  0  0  0  0  0
    6.8282  -15.1548   20.1402 C   0  0  0  0  0  0  0  0  0  0  0  0
    5.6371  -15.0105   21.5198 S   0  0  0  0  0  0  0  0  0  0  0  0
    8.6834  -15.7788   21.6836 C   0  0  0  0  0  0  0  0  0  0  0  0
    9.4523  -14.7888   21.5745 O   0  0  0  0  0  0  0  0  0  0  0  0
    8.6750  -16.4580   22.9257 N   0  0  0  0  0  0  0  0  0  0  0  0
    9.4320  -16.1041   24.0845 C   0  0  1  0  0  0  0  0  0  0  0  0
    8.7187  -16.3881   25.3789 C   0  0  0  0  0  0  0  0  0  0  0  0
    7.5501  -15.5296   25.6102 C   0  0  0  0  0  0  0  0  0  0  0  0
    6.2206  -15.8809   25.5651 C   0  0  0  0  0  0  0  0  0  0  0  0
    5.4669  -14.8115   25.8335 N   0  0  0  0  0  0  0  0  0  0  0  0
    6.2822  -13.7610   26.0546 C   0  0  0  0  0  0  0  0  0  0  0  0
    6.0572  -12.4405   26.3673 C   0  0  0  0  0  0  0  0  0  0  0  0
    7.0994  -11.5436   26.5470 C   0  0  0  0  0  0  0  0  0  0  0  0
    8.3996  -11.9619   26.4145 C   0  0  0  0  0  0  0  0  0  0  0  0
    8.6209  -13.2938   26.0994 C   0  0  0  0  0  0  0  0  0  0  0  0
    7.5849  -14.1894   25.9197 C   0  0  0  0  0  0  0  0  0  0  0  0
   10.6955  -16.8855   24.0865 C   0  0  0  0  0  0  0  0  0  0  0  0
   10.6699  -18.1140   23.8702 O   0  0  0  0  0  0  0  0  0  0  0  0
   17.7373  -15.4259   22.9918 N   0  0  0  0  0  0  0  0  0  0  0  0
   16.4319  -15.7184   22.5412 C   0  0  0  0  0  0  0  0  0  0  0  0
   15.9770  -15.1546   21.4801 O   0  0  0  0  0  0  0  0  0  0  0  0
   15.5152  -16.6532   23.2022 C   0  0  0  0  0  0  0  0  0  0  0  0
   14.1294  -16.1898   23.4196 C   0  0  0  0  0  0  0  0  0  0  0  0
   13.2027  -17.0819   24.1765 C   0  0  2  0  0  0  0  0  0  0  0  0
   11.9579  -16.2923   24.3272 N   0  0  0  0  0  0  0  0  0  0  0  0
   13.6435  -17.5638   25.4856 C   0  0  0  0  0  0  0  0  0  0  0  0
   14.5402  -18.5973   25.7143 O   0  0  0  0  0  0  0  0  0  0  0  0
   13.1733  -17.0069   26.5201 O   0  0  0  0  0  0  0  0  0  0  0  0
  2  1  1  1
  2  5  1  0
  3  2  1  0
  4  3  1  0
  5  7  1  0
  6  5  2  0
  7  8  1  0
  8 19  1  0
  8  9  1  1
  9 10  1  0
 10 18  1  0
 11 10  2  0
 11 12  1  0
 12 13  1  0
 13 14  1  0
 14 15  2  0
 16 15  1  0
 17 16  2  0
 18 13  2  0
 18 17  1  0
 19 27  1  0
 20 19  2  0
 21 22  1  0
 22 24  1  0
 22 23  2  0
 24 25  1  0
 26 25  1  1
 26 28  1  0
 27 26  1  0
 28 30  2  0
 28 29  1  0
M  END
$$$$
