CWQ.pdb
     RDKit          3D

 30 31  0  0  1  0  0  0  0  0999 V2000
    8.0672  -12.7107   17.6984 N   0  0  0  0  0  0  0  0  0  0  0  0
    7.4207  -13.7591   18.4523 C   0  0  1  0  0  0  0  0  0  0  0  0
    7.5060  -15.0592   17.7250 C   0  0  0  0  0  0  0  0  0  0  0  0
    9.2760  -15.5019   17.6081 S   0  0  0  0  0  0  0  0  0  0  0  0
    7.9206  -13.8246   19.8503 C   0  0  0  0  0  0  0  0  0  0  0  0
    9.0436  -13.3325   20.1331 O   0  0  0  0  0  0  0  0  0  0  0  0
    7.1910  -14.4216   20.9065 N   0  0  0  0  0  0  0  0  0  0  0  0
    7.6257  -14.5541   22.2610 C   0  0  1  0  0  0  0  0  0  0  0  0
    6.5239  -14.9380   23.2116 C   0  0  0  0  0  0  0  0  0  0  0  0
    6.9162  -14.8797   24.6254 C   0  0  0  0  0  0  0  0  0  0  0  0
    7.4457  -15.8873   25.3982 C   0  0  0  0  0  0  0  0  0  0  0  0
    7.6662  -15.4329   26.6346 N   0  0  0  0  0  0  0  0  0  0  0  0
    7.2889  -14.1398   26.6861 C   0  0  0  0  0  0  0  0  0  0  0  0
    7.2922  -13.1942   27.6852 C   0  0  0  0  0  0  0  0  0  0  0  0
    6.8384  -11.9016   27.4705 C   0  0  0  0  0  0  0  0  0  0  0  0
    6.3685  -11.5322   26.2352 C   0  0  0  0  0  0  0  0  0  0  0  0
    6.3673  -12.4889   25.2318 C   0  0  0  0  0  0  0  0  0  0  0  0
    6.8186  -13.7771   25.4427 C   0  0  0  0  0  0  0  0  0  0  0  0
    8.6659  -15.6127   22.3274 C   0  0  0  0  0  0  0  0  0  0  0  0
    8.5094  -16.6815   21.7030 O   0  0  0  0  0  0  0  0  0  0  0  0
   13.7708  -14.1737   20.1678 N   0  0  0  0  0  0  0  0  0  0  0  0
   14.1088  -15.4178   20.7426 C   0  0  0  0  0  0  0  0  0  0  0  0
   15.2736  -15.9223   20.5438 O   0  0  0  0  0  0  0  0  0  0  0  0
   13.2116  -16.2137   21.5870 C   0  0  0  0  0  0  0  0  0  0  0  0
   11.9198  -15.5989   21.9554 C   0  0  0  0  0  0  0  0  0  0  0  0
   11.0082  -16.3682   22.8526 C   0  0  2  0  0  0  0  0  0  0  0  0
    9.8548  -15.4664   23.0815 N   0  0  0  0  0  0  0  0  0  0  0  0
   11.5435  -16.8211   24.1365 C   0  0  0  0  0  0  0  0  0  0  0  0
   11.5670  -16.0882   25.3141 O   0  0  0  0  0  0  0  0  0  0  0  0
   12.0422  -17.9822   24.2033 O   0  0  0  0  0  0  0  0  0  0  0  0
  2  1  1  6
  2  5  1  0
  3  2  1  0
  4  3  1  0
  5  7  1  0
  6  5  2  0
  7  8  1  0
  8 19  1  0
  8  9  1  1
  9 10  1  0
 10 18  1  0
 11 10  2  0
 11 12  1  0
 12 13  1  0
 13 14  1  0
 14 15  2  0
 16 15  1  0
 17 16  2  0
 18 13  2  0
 18 17  1  0
 19 27  1  0
 20 19  2  0
 21 22  1  0
 22 24  1  0
 22 23  2  0
 24 25  1  0
 26 25  1  1
 26 28  1  0
 27 26  1  0
 28 30  2  0
 28 29  1  0
M  END
$$$$
