CWQ.pdb
     RDKit          3D

 30 31  0  0  1  0  0  0  0  0999 V2000
    8.7544  -15.3057   20.0256 N   0  0  0  0  0  0  0  0  0  0  0  0
    8.3176  -16.0756   21.1667 C   0  0  1  0  0  0  0  0  0  0  0  0
    8.2053  -17.5211   20.8141 C   0  0  0  0  0  0  0  0  0  0  0  0
    6.8735  -17.6760   19.5712 S   0  0  0  0  0  0  0  0  0  0  0  0
    9.1600  -15.8179   22.3636 C   0  0  0  0  0  0  0  0  0  0  0  0
   10.2017  -15.1209   22.2528 O   0  0  0  0  0  0  0  0  0  0  0  0
    8.8524  -16.3220   23.6502 N   0  0  0  0  0  0  0  0  0  0  0  0
    9.5760  -16.0582   24.8536 C   0  0  1  0  0  0  0  0  0  0  0  0
    8.7173  -16.0814   26.0893 C   0  0  0  0  0  0  0  0  0  0  0  0
    7.5334  -15.2171   26.0024 C   0  0  0  0  0  0  0  0  0  0  0  0
    6.2252  -15.5928   25.8017 C   0  0  0  0  0  0  0  0  0  0  0  0
    5.4466  -14.5078   25.7847 N   0  0  0  0  0  0  0  0  0  0  0  0
    6.2247  -13.4229   25.9714 C   0  0  0  0  0  0  0  0  0  0  0  0
    5.9632  -12.0744   26.0432 C   0  0  0  0  0  0  0  0  0  0  0  0
    6.9706  -11.1438   26.2484 C   0  0  0  0  0  0  0  0  0  0  0  0
    8.2722  -11.5560   26.3864 C   0  0  0  0  0  0  0  0  0  0  0  0
    8.5304  -12.9162   26.3133 C   0  0  0  0  0  0  0  0  0  0  0  0
    7.5291  -13.8453   26.1091 C   0  0  0  0  0  0  0  0  0  0  0  0
   10.6265  -17.0961   25.0164 C   0  0  0  0  0  0  0  0  0  0  0  0
   11.2793  -17.1622   26.0775 O   0  0  0  0  0  0  0  0  0  0  0  0
   14.2019  -19.2073   20.3461 N   0  0  0  0  0  0  0  0  0  0  0  0
   14.5790  -19.9868   21.4609 C   0  0  0  0  0  0  0  0  0  0  0  0
   15.6126  -20.7470   21.3935 O   0  0  0  0  0  0  0  0  0  0  0  0
   13.8684  -19.9995   22.7439 C   0  0  0  0  0  0  0  0  0  0  0  0
   12.7063  -19.0966   22.8738 C   0  0  0  0  0  0  0  0  0  0  0  0
   12.0182  -19.0256   24.1963 C   0  0  2  0  0  0  0  0  0  0  0  0
   10.9316  -18.0368   24.0037 N   0  0  0  0  0  0  0  0  0  0  0  0
   12.8229  -18.6548   25.3604 C   0  0  0  0  0  0  0  0  0  0  0  0
   13.3531  -17.3991   25.6184 O   0  0  0  0  0  0  0  0  0  0  0  0
   13.0778  -19.5453   26.2226 O   0  0  0  0  0  0  0  0  0  0  0  0
  2  1  1  6
  2  5  1  0
  3  2  1  0
  4  3  1  0
  5  7  1  0
  6  5  2  0
  7  8  1  0
  8 19  1  0
  8  9  1  1
  9 10  1  0
 10 18  1  0
 11 10  2  0
 11 12  1  0
 12 13  1  0
 13 14  1  0
 14 15  2  0
 16 15  1  0
 17 16  2  0
 18 13  2  0
 18 17  1  0
 19 27  1  0
 20 19  2  0
 21 22  1  0
 22 24  1  0
 22 23  2  0
 24 25  1  0
 26 25  1  6
 26 28  1  0
 27 26  1  0
 28 30  2  0
 28 29  1  0
M  END
$$$$
