CWQ.pdb
     RDKit          3D

 30 31  0  0  1  0  0  0  0  0999 V2000
   10.1409  -15.3837   19.3367 N   0  0  0  0  0  0  0  0  0  0  0  0
   10.0053  -16.5655   20.1555 C   0  0  1  0  0  0  0  0  0  0  0  0
   10.9446  -17.6316   19.7000 C   0  0  0  0  0  0  0  0  0  0  0  0
   10.6350  -19.1074   20.7337 S   0  0  0  0  0  0  0  0  0  0  0  0
   10.1176  -16.2514   21.6038 C   0  0  0  0  0  0  0  0  0  0  0  0
   10.9855  -15.4295   21.9965 O   0  0  0  0  0  0  0  0  0  0  0  0
    9.2867  -16.8360   22.5897 N   0  0  0  0  0  0  0  0  0  0  0  0
    9.3327  -16.5740   23.9934 C   0  0  1  0  0  0  0  0  0  0  0  0
    7.9746  -16.5153   24.6392 C   0  0  0  0  0  0  0  0  0  0  0  0
    7.3133  -15.2109   24.5070 C   0  0  0  0  0  0  0  0  0  0  0  0
    6.4200  -14.8098   23.5407 C   0  0  0  0  0  0  0  0  0  0  0  0
    6.0486  -13.5480   23.7719 N   0  0  0  0  0  0  0  0  0  0  0  0
    6.6855  -13.1129   24.8775 C   0  0  0  0  0  0  0  0  0  0  0  0
    6.6810  -11.9197   25.5619 C   0  0  0  0  0  0  0  0  0  0  0  0
    7.4472  -11.7273   26.7015 C   0  0  0  0  0  0  0  0  0  0  0  0
    8.2398  -12.7408   27.1787 C   0  0  0  0  0  0  0  0  0  0  0  0
    8.2407  -13.9414   26.4852 C   0  0  0  0  0  0  0  0  0  0  0  0
    7.4786  -14.1359   25.3499 C   0  0  0  0  0  0  0  0  0  0  0  0
   10.0997  -17.6595   24.6571 C   0  0  0  0  0  0  0  0  0  0  0  0
   10.1383  -18.7977   24.1476 O   0  0  0  0  0  0  0  0  0  0  0  0
   13.4572  -16.9069   30.1248 N   0  0  0  0  0  0  0  0  0  0  0  0
   13.3990  -18.2970   29.8868 C   0  0  0  0  0  0  0  0  0  0  0  0
   13.9559  -19.1134   30.7078 O   0  0  0  0  0  0  0  0  0  0  0  0
   12.7246  -18.9157   28.7407 C   0  0  0  0  0  0  0  0  0  0  0  0
   12.1046  -18.0040   27.7574 C   0  0  0  0  0  0  0  0  0  0  0  0
   11.4404  -18.6066   26.5644 C   0  0  2  0  0  0  0  0  0  0  0  0
   10.8062  -17.4629   25.8678 N   0  0  0  0  0  0  0  0  0  0  0  0
   10.4471  -19.6548   26.7985 C   0  0  0  0  0  0  0  0  0  0  0  0
   10.6803  -21.0219   26.7614 O   0  0  0  0  0  0  0  0  0  0  0  0
    9.2572  -19.3084   27.0542 O   0  0  0  0  0  0  0  0  0  0  0  0
  2  1  1  6
  2  5  1  0
  3  2  1  0
  4  3  1  0
  5  7  1  0
  6  5  2  0
  7  8  1  0
  8 19  1  0
  8  9  1  1
  9 10  1  0
 10 18  1  0
 11 10  2  0
 11 12  1  0
 12 13  1  0
 13 14  1  0
 14 15  2  0
 16 15  1  0
 17 16  2  0
 18 13  2  0
 18 17  1  0
 19 27  1  0
 20 19  2  0
 21 22  1  0
 22 24  1  0
 22 23  2  0
 24 25  1  0
 26 25  1  1
 26 28  1  0
 27 26  1  0
 28 30  2  0
 28 29  1  0
M  END
$$$$
