CCP.pdb
     RDKit          3D

 20 20  0  0  1  0  0  0  0  0999 V2000
   28.0098  -27.2020  -20.3383 N   0  0  0  0  0  0  0  0  0  0  0  0
   28.8032  -27.4049  -19.1533 C   0  0  1  0  0  0  0  0  0  0  0  0
   28.2341  -26.6781  -17.9616 C   0  0  0  0  0  0  0  0  0  0  0  0
   28.4104  -24.8866  -18.1081 S   0  0  0  0  0  0  0  0  0  0  0  0
   28.9392  -28.8317  -18.7973 C   0  0  0  0  0  0  0  0  0  0  0  0
   27.9851  -29.5996  -19.0831 O   0  0  0  0  0  0  0  0  0  0  0  0
   30.0626  -29.3866  -18.1613 N   0  0  0  0  0  0  0  0  0  0  0  0
   30.1705  -30.8325  -17.8515 C   0  0  1  0  0  0  0  0  0  0  0  0
   31.6786  -30.9901  -17.5853 C   0  0  0  0  0  0  0  0  0  0  0  0
   32.0263  -32.6078  -16.8899 S   0  0  0  0  0  0  0  0  0  0  0  0
   29.3598  -31.1515  -16.6667 C   0  0  0  0  0  0  0  0  0  0  0  0
   29.5350  -30.3609  -15.6603 O   0  0  0  0  0  0  0  0  0  0  0  0
   28.4438  -32.2179  -16.5675 N   0  0  0  0  0  0  0  0  0  0  0  0
   28.1336  -33.1312  -17.6728 C   0  0  0  0  0  0  0  0  0  0  0  0
   26.6383  -33.3338  -17.4231 C   0  0  0  0  0  0  0  0  0  0  0  0
   26.6739  -33.6600  -15.9447 C   0  0  0  0  0  0  0  0  0  0  0  0
   27.6679  -32.6110  -15.4290 C   0  0  1  0  0  0  0  0  0  0  0  0
   28.5602  -33.2562  -14.4160 C   0  0  0  0  0  0  0  0  0  0  0  0
   29.8141  -33.6941  -14.7753 O   0  0  0  0  0  0  0  0  0  0  0  0
   28.1299  -33.3813  -13.2456 O   0  0  0  0  0  0  0  0  0  0  0  0
  2  5  1  0
  2  1  1  6
  3  2  1  0
  4  3  1  0
  5  6  2  0
  7  8  1  0
  7  5  1  0
  8  9  1  1
 10  9  1  0
 11 13  1  0
 11  8  1  0
 12 11  2  0
 13 17  1  0
 14 13  1  0
 14 15  1  0
 15 16  1  0
 17 18  1  1
 17 16  1  0
 18 20  2  0
 18 19  1  0
M  END
$$$$
