CCP.pdb
     RDKit          3D

 20 20  0  0  1  0  0  0  0  0999 V2000
   24.6348  -16.5433  -16.8762 N   0  0  0  0  0  0  0  0  0  0  0  0
   24.6692  -15.3958  -16.0063 C   0  0  1  0  0  0  0  0  0  0  0  0
   26.0799  -14.9767  -15.6801 C   0  0  0  0  0  0  0  0  0  0  0  0
   26.9426  -16.2084  -14.6798 S   0  0  0  0  0  0  0  0  0  0  0  0
   23.9651  -14.2291  -16.5757 C   0  0  0  0  0  0  0  0  0  0  0  0
   24.1304  -13.9854  -17.7984 O   0  0  0  0  0  0  0  0  0  0  0  0
   23.1242  -13.3750  -15.8425 N   0  0  0  0  0  0  0  0  0  0  0  0
   22.3438  -12.2860  -16.4776 C   0  0  1  0  0  0  0  0  0  0  0  0
   20.9932  -12.9750  -16.7443 C   0  0  0  0  0  0  0  0  0  0  0  0
   19.7240  -11.7535  -17.0884 S   0  0  0  0  0  0  0  0  0  0  0  0
   22.2171  -11.1540  -15.5473 C   0  0  0  0  0  0  0  0  0  0  0  0
   22.0348  -11.4845  -14.3119 O   0  0  0  0  0  0  0  0  0  0  0  0
   22.2813   -9.7924  -15.9052 N   0  0  0  0  0  0  0  0  0  0  0  0
   22.5559   -9.3196  -17.2664 C   0  0  0  0  0  0  0  0  0  0  0  0
   23.4082   -8.0916  -16.9419 C   0  0  0  0  0  0  0  0  0  0  0  0
   22.5193   -7.4379  -15.9046 C   0  0  0  0  0  0  0  0  0  0  0  0
   22.1009   -8.6491  -15.0607 C   0  0  1  0  0  0  0  0  0  0  0  0
   20.6525   -8.5104  -14.7118 C   0  0  0  0  0  0  0  0  0  0  0  0
   20.2677   -7.7294  -13.6464 O   0  0  0  0  0  0  0  0  0  0  0  0
   19.8152   -9.1226  -15.4151 O   0  0  0  0  0  0  0  0  0  0  0  0
  2  5  1  0
  2  1  1  6
  3  2  1  0
  4  3  1  0
  5  6  2  0
  7  8  1  0
  7  5  1  0
  8  9  1  1
 10  9  1  0
 11 13  1  0
 11  8  1  0
 12 11  2  0
 13 17  1  0
 14 13  1  0
 14 15  1  0
 15 16  1  0
 17 18  1  6
 17 16  1  0
 18 20  2  0
 18 19  1  0
M  END
$$$$
