CCP.pdb
     RDKit          3D

 20 20  0  0  1  0  0  0  0  0999 V2000
   20.3414  -11.6800  -16.2183 N   0  0  0  0  0  0  0  0  0  0  0  0
   21.0568  -10.5420  -16.7360 C   0  0  1  0  0  0  0  0  0  0  0  0
   20.8118  -10.3442  -18.2101 C   0  0  0  0  0  0  0  0  0  0  0  0
   21.7549  -11.5075  -19.2198 S   0  0  0  0  0  0  0  0  0  0  0  0
   20.7074   -9.2865  -16.0413 C   0  0  0  0  0  0  0  0  0  0  0  0
   19.4991   -9.0963  -15.7488 O   0  0  0  0  0  0  0  0  0  0  0  0
   21.6347   -8.2923  -15.6864 N   0  0  0  0  0  0  0  0  0  0  0  0
   21.2353   -7.0329  -15.0133 C   0  0  1  0  0  0  0  0  0  0  0  0
   22.2502   -6.9526  -13.8586 C   0  0  0  0  0  0  0  0  0  0  0  0
   22.0830   -5.3936  -12.9850 S   0  0  0  0  0  0  0  0  0  0  0  0
   21.3646   -5.9045  -15.9476 C   0  0  0  0  0  0  0  0  0  0  0  0
   22.4074   -5.9467  -16.7087 O   0  0  0  0  0  0  0  0  0  0  0  0
   20.4600   -4.8295  -16.0591 N   0  0  0  0  0  0  0  0  0  0  0  0
   19.2359   -4.7083  -15.2598 C   0  0  0  0  0  0  0  0  0  0  0  0
   18.3048   -4.1025  -16.3113 C   0  0  0  0  0  0  0  0  0  0  0  0
   19.1899   -2.9801  -16.8116 C   0  0  0  0  0  0  0  0  0  0  0  0
   20.5434   -3.6933  -16.9278 C   0  0  1  0  0  0  0  0  0  0  0  0
   21.6136   -2.7690  -16.4388 C   0  0  0  0  0  0  0  0  0  0  0  0
   22.0518   -1.7341  -17.2324 O   0  0  0  0  0  0  0  0  0  0  0  0
   22.0891   -2.9691  -15.2967 O   0  0  0  0  0  0  0  0  0  0  0  0
  2  5  1  0
  2  1  1  1
  3  2  1  0
  4  3  1  0
  5  6  2  0
  7  8  1  0
  7  5  1  0
  8  9  1  1
 10  9  1  0
 11 13  1  0
 11  8  1  0
 12 11  2  0
 13 17  1  0
 14 13  1  0
 14 15  1  0
 15 16  1  0
 17 18  1  1
 17 16  1  0
 18 20  2  0
 18 19  1  0
M  END
$$$$
