CCP.pdb
     RDKit          3D

 20 20  0  0  1  0  0  0  0  0999 V2000
   29.0616  -21.2304  -16.3687 N   0  0  0  0  0  0  0  0  0  0  0  0
   28.2387  -20.4241  -15.5042 C   0  0  1  0  0  0  0  0  0  0  0  0
   27.6787  -19.2209  -16.2190 C   0  0  0  0  0  0  0  0  0  0  0  0
   28.9761  -18.1906  -16.9382 S   0  0  0  0  0  0  0  0  0  0  0  0
   27.1092  -21.1802  -14.9266 C   0  0  0  0  0  0  0  0  0  0  0  0
   26.6108  -22.1060  -15.6167 O   0  0  0  0  0  0  0  0  0  0  0  0
   26.5558  -20.9336  -13.6588 N   0  0  0  0  0  0  0  0  0  0  0  0
   25.3951  -21.6923  -13.1339 C   0  0  1  0  0  0  0  0  0  0  0  0
   25.6664  -21.6827  -11.6186 C   0  0  0  0  0  0  0  0  0  0  0  0
   25.3001  -20.0676  -10.9268 S   0  0  0  0  0  0  0  0  0  0  0  0
   24.1461  -20.9973  -13.4802 C   0  0  0  0  0  0  0  0  0  0  0  0
   24.2302  -19.7085  -13.5019 O   0  0  0  0  0  0  0  0  0  0  0  0
   22.9192  -21.6236  -13.7779 N   0  0  0  0  0  0  0  0  0  0  0  0
   22.7282  -23.0780  -13.7891 C   0  0  0  0  0  0  0  0  0  0  0  0
   21.7635  -23.1985  -14.9700 C   0  0  0  0  0  0  0  0  0  0  0  0
   20.7524  -22.1425  -14.5752 C   0  0  0  0  0  0  0  0  0  0  0  0
   21.6713  -21.0042  -14.1124 C   0  0  1  0  0  0  0  0  0  0  0  0
   21.0796  -20.3810  -12.8875 C   0  0  0  0  0  0  0  0  0  0  0  0
   21.5789  -20.6885  -11.6430 O   0  0  0  0  0  0  0  0  0  0  0  0
   20.1266  -19.5805  -13.0348 O   0  0  0  0  0  0  0  0  0  0  0  0
  2  5  1  0
  2  1  1  6
  3  2  1  0
  4  3  1  0
  5  6  2  0
  7  8  1  0
  7  5  1  0
  8  9  1  1
 10  9  1  0
 11 13  1  0
 11  8  1  0
 12 11  2  0
 13 17  1  0
 14 13  1  0
 14 15  1  0
 15 16  1  0
 17 18  1  1
 17 16  1  0
 18 20  2  0
 18 19  1  0
M  END
$$$$
