CCP.pdb
     RDKit          3D

 20 20  0  0  1  0  0  0  0  0999 V2000
   25.4097  -13.0996  -17.5930 N   0  0  0  0  0  0  0  0  0  0  0  0
   25.5907  -11.9723  -16.7147 C   0  0  1  0  0  0  0  0  0  0  0  0
   27.0078  -11.4589  -16.7400 C   0  0  0  0  0  0  0  0  0  0  0  0
   28.0701  -12.3327  -15.5696 S   0  0  0  0  0  0  0  0  0  0  0  0
   24.6905  -10.8477  -17.0399 C   0  0  0  0  0  0  0  0  0  0  0  0
   24.7194  -10.3952  -18.2129 O   0  0  0  0  0  0  0  0  0  0  0  0
   23.8052  -10.2511  -16.1262 N   0  0  0  0  0  0  0  0  0  0  0  0
   22.8303   -9.2077  -16.5256 C   0  0  1  0  0  0  0  0  0  0  0  0
   21.4880   -9.9396  -16.3454 C   0  0  0  0  0  0  0  0  0  0  0  0
   20.1274   -8.7693  -16.3758 S   0  0  0  0  0  0  0  0  0  0  0  0
   22.9530   -8.0428  -15.6363 C   0  0  0  0  0  0  0  0  0  0  0  0
   23.2002   -8.3269  -14.4006 O   0  0  0  0  0  0  0  0  0  0  0  0
   22.8247   -6.6965  -16.0326 N   0  0  0  0  0  0  0  0  0  0  0  0
   22.5528   -6.2751  -17.4111 C   0  0  0  0  0  0  0  0  0  0  0  0
   23.4149   -5.0127  -17.4657 C   0  0  0  0  0  0  0  0  0  0  0  0
   22.9515   -4.3387  -16.1911 C   0  0  0  0  0  0  0  0  0  0  0  0
   22.9266   -5.5234  -15.2163 C   0  0  1  0  0  0  0  0  0  0  0  0
   21.7084   -5.4075  -14.3552 C   0  0  0  0  0  0  0  0  0  0  0  0
   21.7171   -4.5908  -13.2480 O   0  0  0  0  0  0  0  0  0  0  0  0
   20.6950   -6.0719  -14.6748 O   0  0  0  0  0  0  0  0  0  0  0  0
  2  5  1  0
  2  1  1  6
  3  2  1  0
  4  3  1  0
  5  6  2  0
  7  8  1  0
  7  5  1  0
  8  9  1  1
 10  9  1  0
 11 13  1  0
 11  8  1  0
 12 11  2  0
 13 17  1  0
 14 13  1  0
 14 15  1  0
 15 16  1  0
 17 18  1  1
 17 16  1  0
 18 20  2  0
 18 19  1  0
M  END
$$$$
