CCP.pdb
     RDKit          3D

 20 20  0  0  1  0  0  0  0  0999 V2000
   19.6260  -12.3440  -16.0220 N   0  0  0  0  0  0  0  0  0  0  0  0
   19.7238  -11.1171  -16.7704 C   0  0  1  0  0  0  0  0  0  0  0  0
   18.6304  -10.9959  -17.8009 C   0  0  0  0  0  0  0  0  0  0  0  0
   18.7061   -9.4275  -18.6934 S   0  0  0  0  0  0  0  0  0  0  0  0
   19.6747   -9.9194  -15.9078 C   0  0  0  0  0  0  0  0  0  0  0  0
   18.7116   -9.8148  -15.1058 O   0  0  0  0  0  0  0  0  0  0  0  0
   20.6318   -8.8907  -15.9242 N   0  0  0  0  0  0  0  0  0  0  0  0
   20.5039   -7.6690  -15.0940 C   0  0  1  0  0  0  0  0  0  0  0  0
   21.8060   -7.7030  -14.2735 C   0  0  0  0  0  0  0  0  0  0  0  0
   21.9013   -6.2751  -13.1902 S   0  0  0  0  0  0  0  0  0  0  0  0
   20.4223   -6.4829  -15.9598 C   0  0  0  0  0  0  0  0  0  0  0  0
   21.1995   -6.5094  -16.9913 O   0  0  0  0  0  0  0  0  0  0  0  0
   19.5845   -5.3705  -15.7433 N   0  0  0  0  0  0  0  0  0  0  0  0
   18.6239   -5.2765  -14.6387 C   0  0  0  0  0  0  0  0  0  0  0  0
   17.4852   -4.5471  -15.3535 C   0  0  0  0  0  0  0  0  0  0  0  0
   18.2707   -3.4173  -15.9860 C   0  0  0  0  0  0  0  0  0  0  0  0
   19.5018   -4.1656  -16.5141 C   0  0  1  0  0  0  0  0  0  0  0  0
   20.7150   -3.3272  -16.2610 C   0  0  0  0  0  0  0  0  0  0  0  0
   20.9130   -2.1631  -16.9670 O   0  0  0  0  0  0  0  0  0  0  0  0
   21.5320   -3.7186  -15.3950 O   0  0  0  0  0  0  0  0  0  0  0  0
  2  5  1  0
  2  1  1  1
  3  2  1  0
  4  3  1  0
  5  6  2  0
  7  8  1  0
  7  5  1  0
  8  9  1  1
 10  9  1  0
 11 13  1  0
 11  8  1  0
 12 11  2  0
 13 17  1  0
 14 13  1  0
 14 15  1  0
 15 16  1  0
 17 18  1  1
 17 16  1  0
 18 20  2  0
 18 19  1  0
M  END
$$$$
