RNM.pdb
     RDKit          3D

 28 27  0  0  1  0  0  0  0  0999 V2000
    8.0699  -12.9036   17.7507 N   0  0  0  0  0  0  0  0  0  0  0  0
    8.3481  -12.7827   19.1334 C   0  0  0  0  0  0  0  0  0  0  0  0
    8.5029  -11.6186   19.6469 N   0  0  0  0  0  0  0  0  0  0  0  0
    8.4461  -13.9654   19.9071 N   0  0  0  0  0  0  0  0  0  0  0  0
    8.6467  -15.2593   19.2951 C   0  0  0  0  0  0  0  0  0  0  0  0
    7.5180  -16.2020   19.5854 C   0  0  0  0  0  0  0  0  0  0  0  0
    7.9607  -17.6289   19.6931 C   0  0  0  0  0  0  0  0  0  0  0  0
    8.4839  -17.9214   21.0593 C   0  0  2  0  0  0  0  0  0  0  0  0
    8.8094  -19.3137   21.1607 N   0  0  0  0  0  0  0  0  0  0  0  0
    7.5615  -17.4724   22.1365 C   0  0  0  0  0  0  0  0  0  0  0  0
    6.3149  -17.5849   22.0234 O   0  0  0  0  0  0  0  0  0  0  0  0
    8.7097  -11.4452   20.6339 N   0  0  0  0  0  0  0  0  0  0  0  0
    7.7231  -19.5221   27.1370 C   0  0  0  0  0  0  0  0  0  0  0  0
    6.8619  -19.1086   26.0991 O   0  0  0  0  0  0  0  0  0  0  0  0
    5.6236  -19.1293   26.3393 C   0  0  0  0  0  0  0  0  0  0  0  0
    7.4487  -18.6875   24.8269 C   0  0  2  0  0  0  0  0  0  0  0  0
    7.4365  -17.1941   24.6131 N   0  0  0  0  0  0  0  0  0  0  0  0
    8.0232  -16.8933   23.3502 C   0  0  0  0  0  0  0  0  0  0  0  0
    7.9952  -16.4889   25.7509 O   0  0  0  0  0  0  0  0  0  0  0  0
    7.3670  -16.2849   26.8115 C   0  0  0  0  0  0  0  0  0  0  0  0
    5.7825  -12.1512   26.7096 S   0  0  0  0  0  0  0  0  0  0  0  0
    7.4014  -11.9452   27.4411 C   0  0  0  0  0  0  0  0  0  0  0  0
    8.6681  -12.9813   26.7235 C   0  0  0  0  0  0  0  0  0  0  0  0
    8.7936  -14.3299   27.3760 C   0  0  2  0  0  0  0  0  0  0  0  0
    9.8653  -15.1907   26.7409 N   0  0  0  0  0  0  0  0  0  0  0  0
    9.3214  -15.9981   25.6740 C   0  0  0  0  0  0  0  0  0  0  0  0
   10.3795  -16.0931   27.7888 O   0  0  0  0  0  0  0  0  0  0  0  0
   11.1932  -15.6406   28.8088 O   0  0  0  0  0  0  0  0  0  0  0  0
  1  2  1  0
  2  4  1  0
  3  2  2  0
  4  5  1  0
  5  6  1  0
  6  7  1  0
  8 10  1  0
  8  9  1  6
  8  7  1  0
 10 11  2  0
 13 12  1  0
 13 15  1  0
 14 13  2  0
 16 15  1  6
 16 18  1  0
 17 16  1  0
 17 10  1  0
 18 19  2  0
 18 25  1  0
 20 21  1  0
 21 22  1  0
 22 23  1  0
 24 23  1  6
 24 26  1  0
 25 24  1  0
 26 28  2  0
 26 27  1  0
M  END
$$$$
