RNM.pdb
     RDKit          3D

 28 27  0  0  1  0  0  0  0  0999 V2000
   10.1714  -12.8066   19.8541 N   0  0  0  0  0  0  0  0  0  0  0  0
    9.1457  -12.5584   18.9107 C   0  0  0  0  0  0  0  0  0  0  0  0
    8.4855  -11.4614   18.9696 N   0  0  0  0  0  0  0  0  0  0  0  0
    8.8838  -13.5421   17.9254 N   0  0  0  0  0  0  0  0  0  0  0  0
    8.7485  -14.9404   18.2648 C   0  0  0  0  0  0  0  0  0  0  0  0
    7.3297  -15.3108   18.5762 C   0  0  0  0  0  0  0  0  0  0  0  0
    7.1756  -16.7434   18.9854 C   0  0  0  0  0  0  0  0  0  0  0  0
    8.4086  -17.2378   19.6644 C   0  0  2  0  0  0  0  0  0  0  0  0
    8.8730  -18.4260   19.0107 N   0  0  0  0  0  0  0  0  0  0  0  0
    8.2218  -17.4290   21.1277 C   0  0  0  0  0  0  0  0  0  0  0  0
    7.2348  -16.9409   21.7336 O   0  0  0  0  0  0  0  0  0  0  0  0
    7.7717  -11.1794   18.2928 N   0  0  0  0  0  0  0  0  0  0  0  0
   10.9094  -19.9489   26.0181 C   0  0  0  0  0  0  0  0  0  0  0  0
    9.7446  -19.6359   25.2865 O   0  0  0  0  0  0  0  0  0  0  0  0
    8.6611  -19.5799   25.9302 C   0  0  0  0  0  0  0  0  0  0  0  0
    9.8628  -19.3989   23.8477 C   0  0  2  0  0  0  0  0  0  0  0  0
    9.0117  -18.2594   23.3443 N   0  0  0  0  0  0  0  0  0  0  0  0
    9.1360  -18.1674   21.9281 C   0  0  0  0  0  0  0  0  0  0  0  0
    9.2704  -17.0363   24.0800 O   0  0  0  0  0  0  0  0  0  0  0  0
   10.3647  -16.4341   24.0526 C   0  0  0  0  0  0  0  0  0  0  0  0
    8.7056  -11.3834   27.1745 S   0  0  0  0  0  0  0  0  0  0  0  0
    7.1878  -11.7751   26.3137 C   0  0  0  0  0  0  0  0  0  0  0  0
    7.3080  -13.1805   25.2168 C   0  0  0  0  0  0  0  0  0  0  0  0
    7.2497  -14.5082   25.9195 C   0  0  2  0  0  0  0  0  0  0  0  0
    8.5022  -15.3345   25.7159 N   0  0  0  0  0  0  0  0  0  0  0  0
    8.2402  -16.4807   24.8771 C   0  0  0  0  0  0  0  0  0  0  0  0
    8.9271  -15.8192   27.0431 O   0  0  0  0  0  0  0  0  0  0  0  0
    9.7825  -15.0924   27.8477 O   0  0  0  0  0  0  0  0  0  0  0  0
  1  2  1  0
  2  4  1  0
  3  2  2  0
  4  5  1  0
  5  6  1  0
  6  7  1  0
  8 10  1  0
  8  9  1  6
  8  7  1  0
 10 11  2  0
 13 12  1  0
 13 15  1  0
 14 13  2  0
 16 15  1  6
 16 18  1  0
 17 16  1  0
 17 10  1  0
 18 19  2  0
 18 25  1  0
 20 21  1  0
 21 22  1  0
 22 23  1  0
 24 23  1  6
 24 26  1  0
 25 24  1  0
 26 28  2  0
 26 27  1  0
M  END
$$$$
