RNM.pdb
     RDKit          3D

 28 27  0  0  1  0  0  0  0  0999 V2000
    8.1735  -12.0273   17.4580 N   0  0  0  0  0  0  0  0  0  0  0  0
    7.6610  -13.1605   18.1339 C   0  0  0  0  0  0  0  0  0  0  0  0
    7.5675  -14.2776   17.5126 N   0  0  0  0  0  0  0  0  0  0  0  0
    7.2659  -13.0167   19.4869 N   0  0  0  0  0  0  0  0  0  0  0  0
    6.9164  -14.1580   20.3019 C   0  0  0  0  0  0  0  0  0  0  0  0
    7.9881  -15.2060   20.2946 C   0  0  0  0  0  0  0  0  0  0  0  0
    7.6741  -16.3698   21.1838 C   0  0  0  0  0  0  0  0  0  0  0  0
    8.8283  -17.3126   21.2526 C   0  0  2  0  0  0  0  0  0  0  0  0
    8.4821  -18.5433   20.6043 N   0  0  0  0  0  0  0  0  0  0  0  0
    9.3200  -17.5192   22.6412 C   0  0  0  0  0  0  0  0  0  0  0  0
    8.5261  -17.6734   23.6033 O   0  0  0  0  0  0  0  0  0  0  0  0
    7.1889  -15.1361   17.9210 N   0  0  0  0  0  0  0  0  0  0  0  0
   13.4062  -20.0499   22.8384 C   0  0  0  0  0  0  0  0  0  0  0  0
   12.5867  -19.6693   23.9216 O   0  0  0  0  0  0  0  0  0  0  0  0
   11.9266  -20.5822   24.4896 C   0  0  0  0  0  0  0  0  0  0  0  0
   12.5529  -18.2604   24.3141 C   0  0  2  0  0  0  0  0  0  0  0  0
   11.1696  -17.6581   24.3104 N   0  0  0  0  0  0  0  0  0  0  0  0
   10.7032  -17.5555   22.9682 C   0  0  0  0  0  0  0  0  0  0  0  0
   11.1191  -16.4358   25.0898 O   0  0  0  0  0  0  0  0  0  0  0  0
   11.7871  -15.4160   24.8162 C   0  0  0  0  0  0  0  0  0  0  0  0
    7.3577  -10.5874   26.8031 S   0  0  0  0  0  0  0  0  0  0  0  0
    7.1459  -12.3269   27.1602 C   0  0  0  0  0  0  0  0  0  0  0  0
    8.6691  -13.1966   27.5019 C   0  0  0  0  0  0  0  0  0  0  0  0
    8.8472  -14.4527   26.6954 C   0  0  1  0  0  0  0  0  0  0  0  0
   10.1569  -15.1550   26.9861 N   0  0  0  0  0  0  0  0  0  0  0  0
   10.2739  -16.3765   26.2245 C   0  0  0  0  0  0  0  0  0  0  0  0
   10.1585  -15.5013   28.4203 O   0  0  0  0  0  0  0  0  0  0  0  0
   10.3857  -14.5556   29.4007 O   0  0  0  0  0  0  0  0  0  0  0  0
  1  2  1  0
  2  4  1  0
  3  2  2  0
  4  5  1  0
  5  6  1  0
  6  7  1  0
  8 10  1  0
  8  9  1  1
  8  7  1  0
 10 11  2  0
 13 12  1  0
 13 15  1  0
 14 13  2  0
 16 15  1  1
 16 18  1  0
 17 16  1  0
 17 10  1  0
 18 19  2  0
 18 25  1  0
 20 21  1  0
 21 22  1  0
 22 23  1  0
 24 23  1  6
 24 26  1  0
 25 24  1  0
 26 28  2  0
 26 27  1  0
M  END
$$$$
