RNM.pdb
     RDKit          3D

 28 27  0  0  1  0  0  0  0  0999 V2000
    8.2530  -12.2905   18.7866 N   0  0  0  0  0  0  0  0  0  0  0  0
    7.6459  -13.3767   18.1118 C   0  0  0  0  0  0  0  0  0  0  0  0
    6.3691  -13.4890   18.1164 N   0  0  0  0  0  0  0  0  0  0  0  0
    8.4809  -14.3099   17.4491 N   0  0  0  0  0  0  0  0  0  0  0  0
    9.8659  -14.4885   17.8212 C   0  0  0  0  0  0  0  0  0  0  0  0
   10.0350  -15.5343   18.8817 C   0  0  0  0  0  0  0  0  0  0  0  0
   10.8246  -15.0510   20.0592 C   0  0  0  0  0  0  0  0  0  0  0  0
   10.8920  -16.0980   21.1198 C   0  0  2  0  0  0  0  0  0  0  0  0
   10.9377  -17.3952   20.5116 N   0  0  0  0  0  0  0  0  0  0  0  0
    9.7965  -15.9759   22.1187 C   0  0  0  0  0  0  0  0  0  0  0  0
    9.4905  -14.8676   22.6262 O   0  0  0  0  0  0  0  0  0  0  0  0
    5.8509  -14.2134   17.6127 N   0  0  0  0  0  0  0  0  0  0  0  0
    5.7576  -17.0569   25.1434 C   0  0  0  0  0  0  0  0  0  0  0  0
    6.1124  -18.2763   24.5294 O   0  0  0  0  0  0  0  0  0  0  0  0
    5.4300  -19.2922   24.8356 C   0  0  0  0  0  0  0  0  0  0  0  0
    7.2332  -18.2879   23.5891 C   0  0  1  0  0  0  0  0  0  0  0  0
    7.9347  -16.9587   23.4584 N   0  0  0  0  0  0  0  0  0  0  0  0
    9.0325  -17.0908   22.5600 C   0  0  0  0  0  0  0  0  0  0  0  0
    8.2479  -16.3921   24.7564 O   0  0  0  0  0  0  0  0  0  0  0  0
    7.4079  -15.8100   25.4751 C   0  0  0  0  0  0  0  0  0  0  0  0
    7.6123  -10.7943   26.2180 S   0  0  0  0  0  0  0  0  0  0  0  0
    7.6260  -12.4101   26.9842 C   0  0  0  0  0  0  0  0  0  0  0  0
    8.9158  -13.4938   26.3884 C   0  0  0  0  0  0  0  0  0  0  0  0
    8.8416  -14.8900   26.9409 C   0  0  2  0  0  0  0  0  0  0  0  0
    9.9628  -15.7777   26.4429 N   0  0  0  0  0  0  0  0  0  0  0  0
    9.5706  -16.4944   25.2519 C   0  0  0  0  0  0  0  0  0  0  0  0
   10.2452  -16.7627   27.5044 O   0  0  0  0  0  0  0  0  0  0  0  0
   10.8916  -16.4128   28.6736 O   0  0  0  0  0  0  0  0  0  0  0  0
  1  2  1  0
  2  4  1  0
  3  2  2  0
  4  5  1  0
  5  6  1  0
  6  7  1  0
  8 10  1  0
  8  9  1  6
  8  7  1  0
 10 11  2  0
 13 12  1  0
 13 15  1  0
 14 13  2  0
 16 15  1  6
 16 18  1  0
 17 16  1  0
 17 10  1  0
 18 19  2  0
 18 25  1  0
 20 21  1  0
 21 22  1  0
 22 23  1  0
 24 23  1  6
 24 26  1  0
 25 24  1  0
 26 28  2  0
 26 27  1  0
M  END
$$$$
