RNM.pdb
     RDKit          3D

 28 27  0  0  1  0  0  0  0  0999 V2000
  -47.4003  -74.1670   15.4794 N   0  0  0  0  0  0  0  0  0  0  0  0
  -48.3264  -73.4674   14.6691 C   0  0  0  0  0  0  0  0  0  0  0  0
  -49.0790  -72.5744   15.1972 N   0  0  0  0  0  0  0  0  0  0  0  0
  -48.3879  -73.7833   13.2894 N   0  0  0  0  0  0  0  0  0  0  0  0
  -47.3236  -74.5018   12.6262 C   0  0  0  0  0  0  0  0  0  0  0  0
  -47.7684  -75.8489   12.1420 C   0  0  0  0  0  0  0  0  0  0  0  0
  -48.5771  -75.7803   10.8830 C   0  0  0  0  0  0  0  0  0  0  0  0
  -50.0125  -75.5108   11.1875 C   0  0  2  0  0  0  0  0  0  0  0  0
  -50.2922  -75.8768   12.5449 N   0  0  0  0  0  0  0  0  0  0  0  0
  -50.9372  -76.1608   10.2205 C   0  0  0  0  0  0  0  0  0  0  0  0
  -51.3120  -75.5746    9.1739 O   0  0  0  0  0  0  0  0  0  0  0  0
  -49.6746  -71.9333   14.6667 N   0  0  0  0  0  0  0  0  0  0  0  0
  -52.1878  -80.7450   10.7990 C   0  0  0  0  0  0  0  0  0  0  0  0
  -53.4403  -80.1151   10.6432 O   0  0  0  0  0  0  0  0  0  0  0  0
  -54.4354  -80.8617   10.4340 C   0  0  0  0  0  0  0  0  0  0  0  0
  -53.5075  -78.6564   10.7325 C   0  0  2  0  0  0  0  0  0  0  0  0
  -52.6185  -77.9422    9.7446 N   0  0  0  0  0  0  0  0  0  0  0  0
  -51.4520  -77.4720   10.4136 C   0  0  0  0  0  0  0  0  0  0  0  0
  -53.3548  -76.9473    8.9883 O   0  0  0  0  0  0  0  0  0  0  0  0
  -53.3290  -75.7256    9.2485 C   0  0  0  0  0  0  0  0  0  0  0  0
  -50.4584  -77.1550    4.0910 S   0  0  0  0  0  0  0  0  0  0  0  0
  -51.1068  -78.5817    4.9525 C   0  0  0  0  0  0  0  0  0  0  0  0
  -52.6076  -78.2658    5.8695 C   0  0  0  0  0  0  0  0  0  0  0  0
  -53.1126  -76.8554    5.7436 C   0  0  1  0  0  0  0  0  0  0  0  0
  -54.2424  -76.5495    6.7043 N   0  0  0  0  0  0  0  0  0  0  0  0
  -54.1507  -77.3640    7.8935 C   0  0  0  0  0  0  0  0  0  0  0  0
  -55.5044  -76.8779    6.0142 O   0  0  0  0  0  0  0  0  0  0  0  0
  -55.5871  -76.9530    4.6376 O   0  0  0  0  0  0  0  0  0  0  0  0
  1  2  1  0
  2  4  1  0
  3  2  2  0
  4  5  1  0
  5  6  1  0
  6  7  1  0
  8 10  1  0
  8  9  1  1
  8  7  1  0
 10 11  2  0
 13 12  1  0
 13 15  1  0
 14 13  2  0
 16 15  1  6
 16 18  1  0
 17 16  1  0
 17 10  1  0
 18 19  2  0
 18 25  1  0
 20 21  1  0
 21 22  1  0
 22 23  1  0
 24 23  1  1
 24 26  1  0
 25 24  1  0
 26 28  2  0
 26 27  1  0
M  END
$$$$
