RNM.pdb
     RDKit          3D

 28 27  0  0  1  0  0  0  0  0999 V2000
    8.6252  -12.7897   19.6805 N   0  0  0  0  0  0  0  0  0  0  0  0
    8.4293  -13.2638   18.3611 C   0  0  0  0  0  0  0  0  0  0  0  0
    8.4985  -12.4437   17.3786 N   0  0  0  0  0  0  0  0  0  0  0  0
    8.1613  -14.6422   18.1732 N   0  0  0  0  0  0  0  0  0  0  0  0
    8.2557  -15.5898   19.2604 C   0  0  0  0  0  0  0  0  0  0  0  0
    6.9893  -15.6603   20.0592 C   0  0  0  0  0  0  0  0  0  0  0  0
    7.2315  -15.8738   21.5219 C   0  0  0  0  0  0  0  0  0  0  0  0
    7.9957  -17.1335   21.7557 C   0  0  2  0  0  0  0  0  0  0  0  0
    7.2108  -18.2564   21.3343 N   0  0  0  0  0  0  0  0  0  0  0  0
    8.4709  -17.2656   23.1591 C   0  0  0  0  0  0  0  0  0  0  0  0
    7.7920  -16.8369   24.1259 O   0  0  0  0  0  0  0  0  0  0  0  0
    8.4063  -12.7109   16.3952 N   0  0  0  0  0  0  0  0  0  0  0  0
    9.9774  -20.3000   23.4500 C   0  0  0  0  0  0  0  0  0  0  0  0
   11.1700  -20.1274   24.1833 O   0  0  0  0  0  0  0  0  0  0  0  0
   11.9917  -21.0846   24.1751 C   0  0  0  0  0  0  0  0  0  0  0  0
   11.3777  -18.8678   24.8978 C   0  0  2  0  0  0  0  0  0  0  0  0
   10.2003  -17.9268   24.8321 N   0  0  0  0  0  0  0  0  0  0  0  0
    9.7092  -17.8779   23.4957 C   0  0  0  0  0  0  0  0  0  0  0  0
   10.5090  -16.6449   25.4368 O   0  0  0  0  0  0  0  0  0  0  0  0
   11.3241  -15.8322   24.9510 C   0  0  0  0  0  0  0  0  0  0  0  0
    6.4325  -12.1362   26.2784 S   0  0  0  0  0  0  0  0  0  0  0  0
    7.8872  -11.4877   27.0918 C   0  0  0  0  0  0  0  0  0  0  0  0
    9.0233  -12.7394   27.6710 C   0  0  0  0  0  0  0  0  0  0  0  0
    8.9259  -14.0418   26.9265 C   0  0  1  0  0  0  0  0  0  0  0  0
   10.0821  -14.9738   27.2222 N   0  0  0  0  0  0  0  0  0  0  0  0
    9.8621  -16.2780   26.6420 C   0  0  0  0  0  0  0  0  0  0  0  0
   10.1577  -15.1257   28.6879 O   0  0  0  0  0  0  0  0  0  0  0  0
   10.6415  -14.1213   29.5031 O   0  0  0  0  0  0  0  0  0  0  0  0
  1  2  1  0
  2  4  1  0
  3  2  2  0
  4  5  1  0
  5  6  1  0
  6  7  1  0
  8 10  1  0
  8  9  1  1
  8  7  1  0
 10 11  2  0
 13 12  1  0
 13 15  1  0
 14 13  2  0
 16 15  1  1
 16 18  1  0
 17 16  1  0
 17 10  1  0
 18 19  2  0
 18 25  1  0
 20 21  1  0
 21 22  1  0
 22 23  1  0
 24 23  1  6
 24 26  1  0
 25 24  1  0
 26 28  2  0
 26 27  1  0
M  END
$$$$
