RNM.pdb
     RDKit          3D

 28 27  0  0  1  0  0  0  0  0999 V2000
    1.7653  -19.3606   21.0614 N   0  0  0  0  0  0  0  0  0  0  0  0
    2.2281  -20.3715   20.1853 C   0  0  0  0  0  0  0  0  0  0  0  0
    1.5456  -21.4474   20.0459 N   0  0  0  0  0  0  0  0  0  0  0  0
    3.4417  -20.1546   19.4872 N   0  0  0  0  0  0  0  0  0  0  0  0
    4.4475  -19.2400   19.9777 C   0  0  0  0  0  0  0  0  0  0  0  0
    5.1267  -19.7561   21.2103 C   0  0  0  0  0  0  0  0  0  0  0  0
    6.2655  -18.8912   21.6562 C   0  0  0  0  0  0  0  0  0  0  0  0
    7.0031  -18.3375   20.4836 C   0  0  2  0  0  0  0  0  0  0  0  0
    7.7264  -19.3891   19.8313 N   0  0  0  0  0  0  0  0  0  0  0  0
    7.8734  -17.1860   20.8434 C   0  0  0  0  0  0  0  0  0  0  0  0
    9.0394  -17.3550   21.2812 O   0  0  0  0  0  0  0  0  0  0  0  0
    1.8172  -22.2303   19.4457 N   0  0  0  0  0  0  0  0  0  0  0  0
    7.2220  -13.1168   18.3257 C   0  0  0  0  0  0  0  0  0  0  0  0
    8.1846  -13.3576   19.3284 O   0  0  0  0  0  0  0  0  0  0  0  0
    9.3844  -13.4718   18.9558 C   0  0  0  0  0  0  0  0  0  0  0  0
    7.7391  -13.4586   20.7183 C   0  0  2  0  0  0  0  0  0  0  0  0
    8.1070  -14.7613   21.3846 N   0  0  0  0  0  0  0  0  0  0  0  0
    7.4494  -15.8347   20.7176 C   0  0  0  0  0  0  0  0  0  0  0  0
    7.9120  -14.6983   22.8206 O   0  0  0  0  0  0  0  0  0  0  0  0
    6.8334  -14.9843   23.3828 C   0  0  0  0  0  0  0  0  0  0  0  0
    7.8402  -10.8072   26.8891 S   0  0  0  0  0  0  0  0  0  0  0  0
    6.7819  -12.0987   27.5295 C   0  0  0  0  0  0  0  0  0  0  0  0
    7.1577  -13.7312   26.9076 C   0  0  0  0  0  0  0  0  0  0  0  0
    7.4006  -13.7769   25.4247 C   0  0  1  0  0  0  0  0  0  0  0  0
    8.8161  -14.1856   25.0750 N   0  0  0  0  0  0  0  0  0  0  0  0
    8.9897  -14.2932   23.6452 C   0  0  0  0  0  0  0  0  0  0  0  0
    9.0474  -15.5152   25.6711 O   0  0  0  0  0  0  0  0  0  0  0  0
    9.2118  -15.6882   27.0314 O   0  0  0  0  0  0  0  0  0  0  0  0
  1  2  1  0
  2  4  1  0
  3  2  2  0
  4  5  1  0
  5  6  1  0
  6  7  1  0
  8 10  1  0
  8  9  1  1
  8  7  1  0
 10 11  2  0
 13 12  1  0
 13 15  1  0
 14 13  2  0
 16 15  1  6
 16 18  1  0
 17 16  1  0
 17 10  1  0
 18 19  2  0
 18 25  1  0
 20 21  1  0
 21 22  1  0
 22 23  1  0
 24 23  1  6
 24 26  1  0
 25 24  1  0
 26 28  2  0
 26 27  1  0
M  END
$$$$
