RNM.pdb
     RDKit          3D

 28 27  0  0  1  0  0  0  0  0999 V2000
    7.9676  -13.7506   17.4696 N   0  0  0  0  0  0  0  0  0  0  0  0
    8.1480  -12.6903   18.3899 C   0  0  0  0  0  0  0  0  0  0  0  0
    8.9489  -11.7324   18.1008 N   0  0  0  0  0  0  0  0  0  0  0  0
    7.4287  -12.7273   19.6100 N   0  0  0  0  0  0  0  0  0  0  0  0
    7.0555  -13.9761   20.2345 C   0  0  0  0  0  0  0  0  0  0  0  0
    7.7908  -15.1428   19.6470 C   0  0  0  0  0  0  0  0  0  0  0  0
    7.4207  -16.4477   20.2826 C   0  0  0  0  0  0  0  0  0  0  0  0
    8.5668  -17.0051   21.0581 C   0  0  2  0  0  0  0  0  0  0  0  0
    8.8491  -18.3362   20.6075 N   0  0  0  0  0  0  0  0  0  0  0  0
    8.3545  -16.9348   22.5287 C   0  0  0  0  0  0  0  0  0  0  0  0
    7.6861  -16.0083   23.0526 O   0  0  0  0  0  0  0  0  0  0  0  0
    9.2400  -11.0042   18.7580 N   0  0  0  0  0  0  0  0  0  0  0  0
   11.3420  -18.6637   25.2695 C   0  0  0  0  0  0  0  0  0  0  0  0
   10.3147  -19.5664   25.6155 O   0  0  0  0  0  0  0  0  0  0  0  0
   10.6672  -20.7060   26.0260 C   0  0  0  0  0  0  0  0  0  0  0  0
    8.9243  -19.1323   25.4790 C   0  0  1  0  0  0  0  0  0  0  0  0
    8.7683  -17.7736   24.8421 N   0  0  0  0  0  0  0  0  0  0  0  0
    8.8868  -17.8988   23.4279 C   0  0  0  0  0  0  0  0  0  0  0  0
    9.6375  -16.7919   25.4624 O   0  0  0  0  0  0  0  0  0  0  0  0
   10.7217  -16.4197   24.9655 C   0  0  0  0  0  0  0  0  0  0  0  0
    5.9368  -11.6765   25.9307 S   0  0  0  0  0  0  0  0  0  0  0  0
    7.0301  -12.2806   27.2105 C   0  0  0  0  0  0  0  0  0  0  0  0
    8.1842  -13.5291   26.6607 C   0  0  0  0  0  0  0  0  0  0  0  0
    9.1201  -14.0086   27.7349 C   0  0  2  0  0  0  0  0  0  0  0  0
   10.0216  -15.1323   27.2681 N   0  0  0  0  0  0  0  0  0  0  0  0
    9.2536  -16.2139   26.6969 C   0  0  0  0  0  0  0  0  0  0  0  0
   10.7319  -15.6451   28.4553 O   0  0  0  0  0  0  0  0  0  0  0  0
   11.7259  -14.9199   29.0825 O   0  0  0  0  0  0  0  0  0  0  0  0
  1  2  1  0
  2  4  1  0
  3  2  2  0
  4  5  1  0
  5  6  1  0
  6  7  1  0
  8 10  1  0
  8  9  1  6
  8  7  1  0
 10 11  2  0
 13 12  1  0
 13 15  1  0
 14 13  2  0
 16 15  1  6
 16 18  1  0
 17 16  1  0
 17 10  1  0
 18 19  2  0
 18 25  1  0
 20 21  1  0
 21 22  1  0
 22 23  1  0
 24 23  1  6
 24 26  1  0
 25 24  1  0
 26 28  2  0
 26 27  1  0
M  END
$$$$
