RNM.pdb
     RDKit          3D

 28 27  0  0  1  0  0  0  0  0999 V2000
    8.4877  -12.5702   15.4974 N   0  0  0  0  0  0  0  0  0  0  0  0
    8.1799  -13.9186   15.1961 C   0  0  0  0  0  0  0  0  0  0  0  0
    7.7951  -14.2294   14.0137 N   0  0  0  0  0  0  0  0  0  0  0  0
    8.3098  -14.8854   16.2235 N   0  0  0  0  0  0  0  0  0  0  0  0
    8.5569  -14.5068   17.5963 C   0  0  0  0  0  0  0  0  0  0  0  0
    7.3200  -14.5979   18.4382 C   0  0  0  0  0  0  0  0  0  0  0  0
    7.6125  -14.6209   19.9070 C   0  0  0  0  0  0  0  0  0  0  0  0
    8.0036  -15.9909   20.3495 C   0  0  2  0  0  0  0  0  0  0  0  0
    7.3917  -16.9647   19.4940 N   0  0  0  0  0  0  0  0  0  0  0  0
    7.7143  -16.2349   21.7881 C   0  0  0  0  0  0  0  0  0  0  0  0
    6.6541  -15.8247   22.3240 O   0  0  0  0  0  0  0  0  0  0  0  0
    7.5847  -15.1825   13.7063 N   0  0  0  0  0  0  0  0  0  0  0  0
    6.6650  -20.1893   25.3788 C   0  0  0  0  0  0  0  0  0  0  0  0
    6.8988  -19.1789   24.4227 O   0  0  0  0  0  0  0  0  0  0  0  0
    5.9053  -18.7804   23.7551 C   0  0  0  0  0  0  0  0  0  0  0  0
    8.2587  -18.6626   24.2663 C   0  0  2  0  0  0  0  0  0  0  0  0
    8.3230  -17.1760   24.0176 N   0  0  0  0  0  0  0  0  0  0  0  0
    8.6068  -16.9395   22.6417 C   0  0  0  0  0  0  0  0  0  0  0  0
    9.2014  -16.5154   24.9643 O   0  0  0  0  0  0  0  0  0  0  0  0
   10.4327  -16.3922   24.7919 C   0  0  0  0  0  0  0  0  0  0  0  0
    5.9189  -11.0119   26.6361 S   0  0  0  0  0  0  0  0  0  0  0  0
    6.9183  -12.0065   27.7362 C   0  0  0  0  0  0  0  0  0  0  0  0
    8.0437  -13.1166   26.9031 C   0  0  0  0  0  0  0  0  0  0  0  0
    8.6317  -14.1721   27.7976 C   0  0  2  0  0  0  0  0  0  0  0  0
    9.4690  -15.1817   27.0409 N   0  0  0  0  0  0  0  0  0  0  0  0
    8.6522  -15.9756   26.1528 C   0  0  0  0  0  0  0  0  0  0  0  0
   10.0773  -16.0817   28.0393 O   0  0  0  0  0  0  0  0  0  0  0  0
   11.0885  -15.6627   28.8815 O   0  0  0  0  0  0  0  0  0  0  0  0
  1  2  1  0
  2  4  1  0
  3  2  2  0
  4  5  1  0
  5  6  1  0
  6  7  1  0
  8 10  1  0
  8  9  1  6
  8  7  1  0
 10 11  2  0
 13 12  1  0
 13 15  1  0
 14 13  2  0
 16 15  1  6
 16 18  1  0
 17 16  1  0
 17 10  1  0
 18 19  2  0
 18 25  1  0
 20 21  1  0
 21 22  1  0
 22 23  1  0
 24 23  1  6
 24 26  1  0
 25 24  1  0
 26 28  2  0
 26 27  1  0
M  END
$$$$
