RNM.pdb
     RDKit          3D

 28 27  0  0  1  0  0  0  0  0999 V2000
    7.7533  -12.0068   19.9537 N   0  0  0  0  0  0  0  0  0  0  0  0
    8.7880  -12.8006   19.4032 C   0  0  0  0  0  0  0  0  0  0  0  0
    9.7512  -12.2352   18.7745 N   0  0  0  0  0  0  0  0  0  0  0  0
    8.7202  -14.2059   19.5694 N   0  0  0  0  0  0  0  0  0  0  0  0
    7.5054  -14.9442   19.3086 C   0  0  0  0  0  0  0  0  0  0  0  0
    6.6705  -15.1111   20.5423 C   0  0  0  0  0  0  0  0  0  0  0  0
    6.4452  -16.5465   20.9065 C   0  0  0  0  0  0  0  0  0  0  0  0
    7.1787  -16.8989   22.1569 C   0  0  2  0  0  0  0  0  0  0  0  0
    7.3083  -15.7339   22.9819 N   0  0  0  0  0  0  0  0  0  0  0  0
    8.4862  -17.5564   21.8907 C   0  0  0  0  0  0  0  0  0  0  0  0
    8.7853  -17.9855   20.7479 O   0  0  0  0  0  0  0  0  0  0  0  0
   10.4979  -12.7382   18.2882 N   0  0  0  0  0  0  0  0  0  0  0  0
   12.6537  -16.8451   20.8372 C   0  0  0  0  0  0  0  0  0  0  0  0
   11.9621  -15.7161   21.3241 O   0  0  0  0  0  0  0  0  0  0  0  0
   12.5499  -14.6032   21.2392 C   0  0  0  0  0  0  0  0  0  0  0  0
   10.6256  -15.9024   21.8891 C   0  0  2  0  0  0  0  0  0  0  0  0
   10.5824  -16.8619   23.0526 N   0  0  0  0  0  0  0  0  0  0  0  0
    9.4718  -17.7408   22.8986 C   0  0  0  0  0  0  0  0  0  0  0  0
   10.6618  -16.1637   24.3216 O   0  0  0  0  0  0  0  0  0  0  0  0
   11.6657  -15.5184   24.6915 C   0  0  0  0  0  0  0  0  0  0  0  0
    6.6000  -11.1375   25.6147 S   0  0  0  0  0  0  0  0  0  0  0  0
    6.8715  -12.5828   26.6323 C   0  0  0  0  0  0  0  0  0  0  0  0
    8.0950  -13.7146   25.9880 C   0  0  0  0  0  0  0  0  0  0  0  0
    8.3669  -14.8915   26.8828 C   0  0  2  0  0  0  0  0  0  0  0  0
    9.6428  -15.6217   26.5194 N   0  0  0  0  0  0  0  0  0  0  0  0
    9.5526  -16.2046   25.2011 C   0  0  0  0  0  0  0  0  0  0  0  0
    9.8163  -16.7126   27.4974 O   0  0  0  0  0  0  0  0  0  0  0  0
   10.2975  -16.4830   28.7714 O   0  0  0  0  0  0  0  0  0  0  0  0
  1  2  1  0
  2  4  1  0
  3  2  2  0
  4  5  1  0
  5  6  1  0
  6  7  1  0
  8 10  1  0
  8  9  1  6
  8  7  1  0
 10 11  2  0
 13 12  1  0
 13 15  1  0
 14 13  2  0
 16 15  1  6
 16 18  1  0
 17 16  1  0
 17 10  1  0
 18 19  2  0
 18 25  1  0
 20 21  1  0
 21 22  1  0
 22 23  1  0
 24 23  1  6
 24 26  1  0
 25 24  1  0
 26 28  2  0
 26 27  1  0
M  END
$$$$
