SIA.pdb
     RDKit          3D

 20 19  0  0  1  0  0  0  0  0999 V2000
    7.6536  -17.7819   21.3438 O   0  0  0  0  0  0  0  0  0  0  0  0
    6.6362  -16.8782   21.0554 C   0  0  0  0  0  0  0  0  0  0  0  0
    7.2367  -15.4800   20.8502 C   0  0  2  0  0  0  0  0  0  0  0  0
    8.0971  -15.5758   19.6882 N   0  0  0  0  0  0  0  0  0  0  0  0
    8.0040  -15.0935   22.0701 C   0  0  0  0  0  0  0  0  0  0  0  0
    9.2712  -15.1330   21.9771 O   0  0  0  0  0  0  0  0  0  0  0  0
    7.5340  -12.0100   27.3889 C   0  0  0  0  0  0  0  0  0  0  0  0
    8.2294  -13.0188   26.5355 C   0  0  0  0  0  0  0  0  0  0  0  0
    7.3840  -13.3532   25.2850 C   0  0  2  0  0  0  0  0  0  0  0  0
    6.1463  -14.0406   25.8079 C   0  0  0  0  0  0  0  0  0  0  0  0
    8.1792  -14.3450   24.4590 C   0  0  2  0  0  0  0  0  0  0  0  0
    7.3864  -14.7024   23.2721 N   0  0  0  0  0  0  0  0  0  0  0  0
    8.4927  -15.5563   25.2300 C   0  0  0  0  0  0  0  0  0  0  0  0
    7.4952  -16.3190   25.5193 O   0  0  0  0  0  0  0  0  0  0  0  0
   11.1350  -17.9250   25.7250 C   0  0  0  0  0  0  0  0  0  0  0  0
    9.9153  -17.2819   26.3436 C   0  0  2  0  0  0  0  0  0  0  0  0
    9.7332  -15.9993   25.6926 N   0  0  0  0  0  0  0  0  0  0  0  0
   10.0280  -17.1570   27.8095 C   0  0  0  0  0  0  0  0  0  0  0  0
   10.0964  -16.0182   28.3159 O   0  0  0  0  0  0  0  0  0  0  0  0
   10.0599  -18.2568   28.6361 O   0  0  0  0  0  0  0  0  0  0  0  0
  2  1  1  0
  2  3  1  0
  3  4  1  6
  5  6  2  0
  5  3  1  0
  8  7  1  0
  8  9  1  0
  9 11  1  0
  9 10  1  1
 11 12  1  6
 11 13  1  0
 12  5  1  0
 13 17  1  0
 14 13  2  0
 16 15  1  6
 16 18  1  0
 17 16  1  0
 18 19  2  0
 18 20  1  0
M  END
$$$$
