SIA.pdb
     RDKit          3D

 20 19  0  0  1  0  0  0  0  0999 V2000
    7.2405  -17.1341   20.4360 O   0  0  0  0  0  0  0  0  0  0  0  0
    6.6928  -16.4416   21.5109 C   0  0  0  0  0  0  0  0  0  0  0  0
    7.0856  -14.9602   21.4189 C   0  0  2  0  0  0  0  0  0  0  0  0
    7.9384  -14.8394   20.2536 N   0  0  0  0  0  0  0  0  0  0  0  0
    7.8031  -14.5661   22.6664 C   0  0  0  0  0  0  0  0  0  0  0  0
    9.0703  -14.4970   22.5921 O   0  0  0  0  0  0  0  0  0  0  0  0
    5.5091  -11.1764   26.1261 C   0  0  0  0  0  0  0  0  0  0  0  0
    6.5343  -11.9080   25.3240 C   0  0  0  0  0  0  0  0  0  0  0  0
    6.9626  -13.2094   26.0404 C   0  0  2  0  0  0  0  0  0  0  0  0
    7.7544  -12.7636   27.2454 C   0  0  0  0  0  0  0  0  0  0  0  0
    7.8878  -13.9550   25.0989 C   0  0  2  0  0  0  0  0  0  0  0  0
    7.1404  -14.2805   23.8740 N   0  0  0  0  0  0  0  0  0  0  0  0
    8.3974  -15.1894   25.7127 C   0  0  0  0  0  0  0  0  0  0  0  0
    9.1040  -15.0427   26.7802 O   0  0  0  0  0  0  0  0  0  0  0  0
    7.9456  -18.8559   25.6062 C   0  0  0  0  0  0  0  0  0  0  0  0
    8.7395  -17.6431   26.0339 C   0  0  2  0  0  0  0  0  0  0  0  0
    8.2167  -16.5097   25.2965 N   0  0  0  0  0  0  0  0  0  0  0  0
   10.1905  -17.8221   25.8347 C   0  0  0  0  0  0  0  0  0  0  0  0
   10.7818  -17.0955   25.0099 O   0  0  0  0  0  0  0  0  0  0  0  0
   10.9126  -18.7651   26.5300 O   0  0  0  0  0  0  0  0  0  0  0  0
  2  1  1  0
  2  3  1  0
  3  4  1  6
  5  6  2  0
  5  3  1  0
  8  7  1  0
  8  9  1  0
  9 11  1  0
  9 10  1  1
 11 12  1  6
 11 13  1  0
 12  5  1  0
 13 17  1  0
 14 13  2  0
 16 15  1  6
 16 18  1  0
 17 16  1  0
 18 19  2  0
 18 20  1  0
M  END
$$$$
