SIA.pdb
     RDKit          3D

 20 19  0  0  1  0  0  0  0  0999 V2000
    7.4840  -16.9600   21.4743 O   0  0  0  0  0  0  0  0  0  0  0  0
    6.4065  -16.1366   21.1642 C   0  0  0  0  0  0  0  0  0  0  0  0
    6.8580  -14.6695   21.1953 C   0  0  2  0  0  0  0  0  0  0  0  0
    7.6066  -14.4506   19.9740 N   0  0  0  0  0  0  0  0  0  0  0  0
    7.7030  -14.4434   22.4041 C   0  0  0  0  0  0  0  0  0  0  0  0
    8.9604  -14.4190   22.2185 O   0  0  0  0  0  0  0  0  0  0  0  0
    5.9185  -11.4113   26.4478 C   0  0  0  0  0  0  0  0  0  0  0  0
    6.8823  -12.0564   25.5073 C   0  0  0  0  0  0  0  0  0  0  0  0
    7.2408  -13.4826   25.9845 C   0  0  2  0  0  0  0  0  0  0  0  0
    8.1446  -13.2923   27.1781 C   0  0  0  0  0  0  0  0  0  0  0  0
    8.0347  -14.1403   24.8731 C   0  0  2  0  0  0  0  0  0  0  0  0
    7.1661  -14.2638   23.6919 N   0  0  0  0  0  0  0  0  0  0  0  0
    8.5203  -15.4684   25.2735 C   0  0  0  0  0  0  0  0  0  0  0  0
    7.6160  -16.3486   25.5339 O   0  0  0  0  0  0  0  0  0  0  0  0
   11.3575  -17.7062   25.0302 C   0  0  0  0  0  0  0  0  0  0  0  0
   10.1728  -17.2509   25.8507 C   0  0  2  0  0  0  0  0  0  0  0  0
    9.8373  -15.9117   25.4083 N   0  0  0  0  0  0  0  0  0  0  0  0
   10.4358  -17.3142   27.3012 C   0  0  0  0  0  0  0  0  0  0  0  0
   10.5197  -16.2497   27.9475 O   0  0  0  0  0  0  0  0  0  0  0  0
   10.5915  -18.5101   27.9641 O   0  0  0  0  0  0  0  0  0  0  0  0
  2  1  1  0
  2  3  1  0
  3  4  1  6
  5  6  2  0
  5  3  1  0
  8  7  1  0
  8  9  1  0
  9 11  1  0
  9 10  1  1
 11 12  1  6
 11 13  1  0
 12  5  1  0
 13 17  1  0
 14 13  2  0
 16 15  1  6
 16 18  1  0
 17 16  1  0
 18 19  2  0
 18 20  1  0
M  END
$$$$
