SIA.pdb
     RDKit          3D

 20 19  0  0  1  0  0  0  0  0999 V2000
    7.9700  -20.1670   17.7291 O   0  0  0  0  0  0  0  0  0  0  0  0
    8.8981  -19.4119   18.4387 C   0  0  0  0  0  0  0  0  0  0  0  0
    9.0264  -18.0233   17.7963 C   0  0  2  0  0  0  0  0  0  0  0  0
    9.9894  -18.1617   16.7224 N   0  0  0  0  0  0  0  0  0  0  0  0
    9.4905  -17.0489   18.8265 C   0  0  0  0  0  0  0  0  0  0  0  0
   10.7482  -16.9430   18.9787 O   0  0  0  0  0  0  0  0  0  0  0  0
    6.8700  -12.4122   19.9532 C   0  0  0  0  0  0  0  0  0  0  0  0
    7.9728  -13.4040   19.7806 C   0  0  0  0  0  0  0  0  0  0  0  0
    8.0324  -14.3707   20.9856 C   0  0  2  0  0  0  0  0  0  0  0  0
    8.4903  -13.5310   22.1531 C   0  0  0  0  0  0  0  0  0  0  0  0
    9.1005  -15.4022   20.6797 C   0  0  2  0  0  0  0  0  0  0  0  0
    8.6082  -16.2755   19.6027 N   0  0  0  0  0  0  0  0  0  0  0  0
    9.4229  -16.2090   21.8650 C   0  0  0  0  0  0  0  0  0  0  0  0
    8.4796  -16.9653   22.3106 O   0  0  0  0  0  0  0  0  0  0  0  0
   12.3009  -17.5611   23.6694 C   0  0  0  0  0  0  0  0  0  0  0  0
   10.8345  -17.1955   23.6749 C   0  0  2  0  0  0  0  0  0  0  0  0
   10.6215  -16.2715   22.5781 N   0  0  0  0  0  0  0  0  0  0  0  0
   10.3984  -16.6399   24.9704 C   0  0  0  0  0  0  0  0  0  0  0  0
   10.0519  -15.4423   25.0288 O   0  0  0  0  0  0  0  0  0  0  0  0
   10.3615  -17.4010   26.1165 O   0  0  0  0  0  0  0  0  0  0  0  0
  2  1  1  0
  2  3  1  0
  3  4  1  6
  5  6  2  0
  5  3  1  0
  8  7  1  0
  8  9  1  0
  9 11  1  0
  9 10  1  1
 11 12  1  6
 11 13  1  0
 12  5  1  0
 13 17  1  0
 14 13  2  0
 16 15  1  1
 16 18  1  0
 17 16  1  0
 18 19  2  0
 18 20  1  0
M  END
$$$$
