SIA.pdb
     RDKit          3D

 20 19  0  0  1  0  0  0  0  0999 V2000
    8.2435  -19.3717   19.2460 O   0  0  0  0  0  0  0  0  0  0  0  0
    8.8918  -19.3221   18.0162 C   0  0  0  0  0  0  0  0  0  0  0  0
    8.8172  -17.8947   17.4556 C   0  0  2  0  0  0  0  0  0  0  0  0
    9.6297  -17.8882   16.2558 N   0  0  0  0  0  0  0  0  0  0  0  0
    9.3397  -16.9403   18.4766 C   0  0  0  0  0  0  0  0  0  0  0  0
   10.6042  -16.8568   18.5776 O   0  0  0  0  0  0  0  0  0  0  0  0
    6.8523  -12.2757   19.6419 C   0  0  0  0  0  0  0  0  0  0  0  0
    7.9347  -13.2864   19.4511 C   0  0  0  0  0  0  0  0  0  0  0  0
    8.0273  -14.2263   20.6752 C   0  0  2  0  0  0  0  0  0  0  0  0
    8.5580  -13.3712   21.7999 C   0  0  0  0  0  0  0  0  0  0  0  0
    9.0558  -15.2902   20.3459 C   0  0  2  0  0  0  0  0  0  0  0  0
    8.5032  -16.1620   19.2973 N   0  0  0  0  0  0  0  0  0  0  0  0
    9.3969  -16.0919   21.5296 C   0  0  0  0  0  0  0  0  0  0  0  0
    8.4600  -16.8447   21.9944 O   0  0  0  0  0  0  0  0  0  0  0  0
   12.3483  -17.2824   23.3918 C   0  0  0  0  0  0  0  0  0  0  0  0
   10.8513  -17.1000   23.2929 C   0  0  2  0  0  0  0  0  0  0  0  0
   10.6071  -16.1527   22.2229 N   0  0  0  0  0  0  0  0  0  0  0  0
   10.2516  -16.6711   24.5710 C   0  0  0  0  0  0  0  0  0  0  0  0
    9.8334  -15.5001   24.6798 O   0  0  0  0  0  0  0  0  0  0  0  0
   10.1385  -17.5217   25.6469 O   0  0  0  0  0  0  0  0  0  0  0  0
  2  1  1  0
  2  3  1  0
  3  4  1  6
  5  6  2  0
  5  3  1  0
  8  7  1  0
  8  9  1  0
  9 11  1  0
  9 10  1  1
 11 12  1  6
 11 13  1  0
 12  5  1  0
 13 17  1  0
 14 13  2  0
 16 15  1  1
 16 18  1  0
 17 16  1  0
 18 19  2  0
 18 20  1  0
M  END
$$$$
