ALW.pdb
     RDKit          3D

 28 29  0  0  1  0  0  0  0  0999 V2000
    9.4395  -19.8587   21.3510 C   0  0  0  0  0  0  0  0  0  0  0  0
    9.0944  -18.8880   20.2224 C   0  0  2  0  0  0  0  0  0  0  0  0
    9.9351  -19.2130   19.0931 N   0  0  0  0  0  0  0  0  0  0  0  0
    9.3417  -17.4860   20.6385 C   0  0  0  0  0  0  0  0  0  0  0  0
   10.5024  -17.0088   20.4831 O   0  0  0  0  0  0  0  0  0  0  0  0
    9.0070  -13.0142   19.8499 C   0  0  0  0  0  0  0  0  0  0  0  0
    7.6270  -13.6465   19.8420 C   0  0  2  0  0  0  0  0  0  0  0  0
    6.5322  -12.8017   19.3460 C   0  0  0  0  0  0  0  0  0  0  0  0
    7.4540  -14.4185   21.0805 C   0  0  0  0  0  0  0  0  0  0  0  0
    8.5426  -15.2904   21.5757 C   0  0  2  0  0  0  0  0  0  0  0  0
    8.3014  -16.6939   21.1980 N   0  0  0  0  0  0  0  0  0  0  0  0
    8.7982  -15.2104   23.0403 C   0  0  0  0  0  0  0  0  0  0  0  0
    8.0698  -14.5378   23.8134 O   0  0  0  0  0  0  0  0  0  0  0  0
    9.8795  -15.8900   23.6559 N   0  0  0  0  0  0  0  0  0  0  0  0
    9.9884  -16.0572   25.1019 C   0  0  1  0  0  0  0  0  0  0  0  0
    8.7381  -16.5880   25.6862 C   0  0  0  0  0  0  0  0  0  0  0  0
    7.6834  -15.5706   25.7882 C   0  0  0  0  0  0  0  0  0  0  0  0
    6.3593  -15.6694   25.3299 C   0  0  0  0  0  0  0  0  0  0  0  0
    5.6869  -14.5463   25.5539 N   0  0  0  0  0  0  0  0  0  0  0  0
    6.5123  -13.6926   26.1491 C   0  0  0  0  0  0  0  0  0  0  0  0
    6.2455  -12.3973   26.5920 C   0  0  0  0  0  0  0  0  0  0  0  0
    7.2433  -11.6793   27.2137 C   0  0  0  0  0  0  0  0  0  0  0  0
    8.4691  -12.2763   27.3716 C   0  0  0  0  0  0  0  0  0  0  0  0
    8.7320  -13.5551   26.9333 C   0  0  0  0  0  0  0  0  0  0  0  0
    7.7482  -14.2814   26.3122 C   0  0  0  0  0  0  0  0  0  0  0  0
   11.1864  -16.7649   25.4904 C   0  0  0  0  0  0  0  0  0  0  0  0
   12.0099  -17.2450   24.4501 O   0  0  0  0  0  0  0  0  0  0  0  0
   11.5508  -16.9859   26.6698 O   0  0  0  0  0  0  0  0  0  0  0  0
  2  1  1  1
  2  3  1  0
  4  2  1  0
  5  4  2  0
  7  6  1  1
  7  8  1  0
  9  7  1  0
 10  9  1  1
 10 11  1  0
 11  4  1  0
 12 14  1  0
 12 10  1  0
 13 12  2  0
 15 14  1  0
 15 16  1  6
 16 17  1  0
 17 18  2  0
 18 19  1  0
 20 19  1  0
 21 20  2  0
 22 21  1  0
 23 24  1  0
 23 22  2  0
 24 25  2  0
 25 17  1  0
 25 20  1  0
 26 15  1  0
 27 26  1  0
 28 26  2  0
M  END
$$$$
