ALW.pdb
     RDKit          3D

 28 29  0  0  1  0  0  0  0  0999 V2000
    7.8332  -19.1363   21.6630 C   0  0  0  0  0  0  0  0  0  0  0  0
    7.0978  -17.8863   21.1817 C   0  0  2  0  0  0  0  0  0  0  0  0
    7.2447  -17.8174   19.7460 N   0  0  0  0  0  0  0  0  0  0  0  0
    7.6721  -16.6660   21.7990 C   0  0  0  0  0  0  0  0  0  0  0  0
    8.5879  -16.0529   21.1789 O   0  0  0  0  0  0  0  0  0  0  0  0
    6.1727  -12.9773   26.5140 C   0  0  0  0  0  0  0  0  0  0  0  0
    7.1553  -13.1644   25.3721 C   0  0  2  0  0  0  0  0  0  0  0  0
    7.4944  -11.9569   24.6073 C   0  0  0  0  0  0  0  0  0  0  0  0
    6.8274  -14.4112   24.6664 C   0  0  0  0  0  0  0  0  0  0  0  0
    7.7497  -14.9566   23.6454 C   0  0  2  0  0  0  0  0  0  0  0  0
    7.2065  -16.1931   23.0569 N   0  0  0  0  0  0  0  0  0  0  0  0
    9.1395  -15.2044   24.1186 C   0  0  0  0  0  0  0  0  0  0  0  0
    9.9266  -14.2683   24.4102 O   0  0  0  0  0  0  0  0  0  0  0  0
    9.6625  -16.5132   24.2718 N   0  0  0  0  0  0  0  0  0  0  0  0
   11.0382  -16.7720   24.6858 C   0  0  1  0  0  0  0  0  0  0  0  0
   11.0993  -17.7309   25.8097 C   0  0  0  0  0  0  0  0  0  0  0  0
   10.3582  -17.2682   26.9907 C   0  0  0  0  0  0  0  0  0  0  0  0
    9.2174  -17.8550   27.5624 C   0  0  0  0  0  0  0  0  0  0  0  0
    8.7840  -17.1522   28.6026 N   0  0  0  0  0  0  0  0  0  0  0  0
    9.5946  -16.1108   28.7530 C   0  0  0  0  0  0  0  0  0  0  0  0
    9.5464  -15.1098   29.7231 C   0  0  0  0  0  0  0  0  0  0  0  0
   10.5063  -14.1218   29.7193 C   0  0  0  0  0  0  0  0  0  0  0  0
   11.4781  -14.1660   28.7511 C   0  0  0  0  0  0  0  0  0  0  0  0
   11.5245  -15.1542   27.7931 C   0  0  0  0  0  0  0  0  0  0  0  0
   10.5752  -16.1440   27.7843 C   0  0  0  0  0  0  0  0  0  0  0  0
   11.9030  -17.0880   23.5726 C   0  0  0  0  0  0  0  0  0  0  0  0
   11.2895  -17.2420   22.3113 O   0  0  0  0  0  0  0  0  0  0  0  0
   13.1466  -17.2360   23.6365 O   0  0  0  0  0  0  0  0  0  0  0  0
  2  1  1  1
  2  3  1  0
  4  2  1  0
  5  4  2  0
  7  6  1  6
  7  8  1  0
  9  7  1  0
 10  9  1  1
 10 11  1  0
 11  4  1  0
 12 14  1  0
 12 10  1  0
 13 12  2  0
 15 14  1  0
 15 16  1  1
 16 17  1  0
 17 18  2  0
 18 19  1  0
 20 19  1  0
 21 20  2  0
 22 21  1  0
 23 24  1  0
 23 22  2  0
 24 25  2  0
 25 17  1  0
 25 20  1  0
 26 15  1  0
 27 26  1  0
 28 26  2  0
M  END
$$$$
