ALW.pdb
     RDKit          3D

 28 29  0  0  1  0  0  0  0  0999 V2000
    7.7534  -19.1980   19.1781 C   0  0  0  0  0  0  0  0  0  0  0  0
    8.0142  -18.8603   20.6454 C   0  0  2  0  0  0  0  0  0  0  0  0
    6.7564  -18.4591   21.2325 N   0  0  0  0  0  0  0  0  0  0  0  0
    8.9941  -17.7534   20.7657 C   0  0  0  0  0  0  0  0  0  0  0  0
   10.1883  -17.9664   20.4085 O   0  0  0  0  0  0  0  0  0  0  0  0
    7.6171  -12.5089   20.0130 C   0  0  0  0  0  0  0  0  0  0  0  0
    7.9438  -13.9790   20.2034 C   0  0  2  0  0  0  0  0  0  0  0  0
    6.7945  -14.8884   20.3040 C   0  0  0  0  0  0  0  0  0  0  0  0
    9.0568  -14.0960   21.1560 C   0  0  0  0  0  0  0  0  0  0  0  0
    9.6039  -15.4259   21.5062 C   0  0  2  0  0  0  0  0  0  0  0  0
    8.6041  -16.4818   21.2693 N   0  0  0  0  0  0  0  0  0  0  0  0
   10.1294  -15.5464   22.8940 C   0  0  0  0  0  0  0  0  0  0  0  0
   11.0357  -14.7955   23.3365 O   0  0  0  0  0  0  0  0  0  0  0  0
    9.6391  -16.5154   23.8053 N   0  0  0  0  0  0  0  0  0  0  0  0
   10.0857  -16.5940   25.1928 C   0  0  1  0  0  0  0  0  0  0  0  0
    9.8005  -15.3445   25.9302 C   0  0  0  0  0  0  0  0  0  0  0  0
    8.3712  -15.0055   25.9398 C   0  0  0  0  0  0  0  0  0  0  0  0
    7.2909  -15.8686   25.6929 C   0  0  0  0  0  0  0  0  0  0  0  0
    6.1336  -15.2194   25.7465 N   0  0  0  0  0  0  0  0  0  0  0  0
    6.3961  -13.9469   26.0224 C   0  0  0  0  0  0  0  0  0  0  0  0
    5.4961  -12.8956   26.1957 C   0  0  0  0  0  0  0  0  0  0  0  0
    5.9763  -11.6421   26.5048 C   0  0  0  0  0  0  0  0  0  0  0  0
    7.3335  -11.4808   26.6299 C   0  0  0  0  0  0  0  0  0  0  0  0
    8.2217  -12.5191   26.4578 C   0  0  0  0  0  0  0  0  0  0  0  0
    7.7578  -13.7724   26.1493 C   0  0  0  0  0  0  0  0  0  0  0  0
    9.6415  -17.8006   25.8516 C   0  0  0  0  0  0  0  0  0  0  0  0
   10.2058  -18.0838   27.1134 O   0  0  0  0  0  0  0  0  0  0  0  0
    8.8007  -18.6114   25.3951 O   0  0  0  0  0  0  0  0  0  0  0  0
  2  1  1  6
  2  3  1  0
  4  2  1  0
  5  4  2  0
  7  6  1  1
  7  8  1  0
  9  7  1  0
 10  9  1  1
 10 11  1  0
 11  4  1  0
 12 14  1  0
 12 10  1  0
 13 12  2  0
 15 14  1  0
 15 16  1  1
 16 17  1  0
 17 18  2  0
 18 19  1  0
 20 19  1  0
 21 20  2  0
 22 21  1  0
 23 24  1  0
 23 22  2  0
 24 25  2  0
 25 17  1  0
 25 20  1  0
 26 15  1  0
 27 26  1  0
 28 26  2  0
M  END
$$$$
