ALW.pdb
     RDKit          3D

 28 29  0  0  1  0  0  0  0  0999 V2000
   11.3083  -19.2804   19.1642 C   0  0  0  0  0  0  0  0  0  0  0  0
   11.2032  -17.8093   18.7642 C   0  0  2  0  0  0  0  0  0  0  0  0
   12.4879  -17.4052   18.2407 N   0  0  0  0  0  0  0  0  0  0  0  0
   10.8570  -16.9677   19.9354 C   0  0  0  0  0  0  0  0  0  0  0  0
   11.7931  -16.5673   20.6855 O   0  0  0  0  0  0  0  0  0  0  0  0
    8.5389  -13.0871   20.1679 C   0  0  0  0  0  0  0  0  0  0  0  0
    7.5193  -14.2103   20.1090 C   0  0  2  0  0  0  0  0  0  0  0  0
    6.1314  -13.8094   19.8419 C   0  0  0  0  0  0  0  0  0  0  0  0
    7.8114  -15.1702   21.1827 C   0  0  0  0  0  0  0  0  0  0  0  0
    9.1742  -15.7265   21.3372 C   0  0  2  0  0  0  0  0  0  0  0  0
    9.5067  -16.6165   20.2112 N   0  0  0  0  0  0  0  0  0  0  0  0
    9.4227  -16.4400   22.6202 C   0  0  0  0  0  0  0  0  0  0  0  0
    9.4899  -17.6936   22.6893 O   0  0  0  0  0  0  0  0  0  0  0  0
    9.6010  -15.7496   23.8455 N   0  0  0  0  0  0  0  0  0  0  0  0
    9.7125  -16.4338   25.1301 C   0  0  1  0  0  0  0  0  0  0  0  0
    9.5352  -15.5007   26.2633 C   0  0  0  0  0  0  0  0  0  0  0  0
    8.2439  -14.8013   26.2251 C   0  0  0  0  0  0  0  0  0  0  0  0
    6.9748  -15.3692   26.0257 C   0  0  0  0  0  0  0  0  0  0  0  0
    6.0273  -14.4387   26.0127 N   0  0  0  0  0  0  0  0  0  0  0  0
    6.6140  -13.2615   26.1977 C   0  0  0  0  0  0  0  0  0  0  0  0
    6.0202  -12.0020   26.2783 C   0  0  0  0  0  0  0  0  0  0  0  0
    6.8122  -10.8973   26.5014 C   0  0  0  0  0  0  0  0  0  0  0  0
    8.1650  -11.0862   26.6357 C   0  0  0  0  0  0  0  0  0  0  0  0
    8.7507  -12.3300   26.5551 C   0  0  0  0  0  0  0  0  0  0  0  0
    7.9745  -13.4387   26.3330 C   0  0  0  0  0  0  0  0  0  0  0  0
    8.9009  -17.6272   25.1959 C   0  0  0  0  0  0  0  0  0  0  0  0
    9.3066  -18.6257   26.1066 O   0  0  0  0  0  0  0  0  0  0  0  0
    7.8721  -17.8460   24.5130 O   0  0  0  0  0  0  0  0  0  0  0  0
  2  1  1  1
  2  3  1  0
  4  2  1  0
  5  4  2  0
  7  6  1  1
  7  8  1  0
  9  7  1  0
 10  9  1  6
 10 11  1  0
 11  4  1  0
 12 14  1  0
 12 10  1  0
 13 12  2  0
 15 14  1  0
 15 16  1  1
 16 17  1  0
 17 18  2  0
 18 19  1  0
 20 19  1  0
 21 20  2  0
 22 21  1  0
 23 24  1  0
 23 22  2  0
 24 25  2  0
 25 17  1  0
 25 20  1  0
 26 15  1  0
 27 26  1  0
 28 26  2  0
M  END
$$$$
