ALW.pdb
     RDKit          3D

 28 29  0  0  1  0  0  0  0  0999 V2000
    8.8503  -19.1754   18.6471 C   0  0  0  0  0  0  0  0  0  0  0  0
    8.9399  -18.9614   20.1575 C   0  0  2  0  0  0  0  0  0  0  0  0
    7.6072  -19.0979   20.6988 N   0  0  0  0  0  0  0  0  0  0  0  0
    9.4664  -17.6101   20.4684 C   0  0  0  0  0  0  0  0  0  0  0  0
   10.6568  -17.3385   20.1394 O   0  0  0  0  0  0  0  0  0  0  0  0
    9.0218  -13.3892   19.3446 C   0  0  0  0  0  0  0  0  0  0  0  0
    7.7771  -13.7367   20.1411 C   0  0  2  0  0  0  0  0  0  0  0  0
    6.6697  -12.7747   20.0614 C   0  0  0  0  0  0  0  0  0  0  0  0
    8.1863  -14.2773   21.4450 C   0  0  0  0  0  0  0  0  0  0  0  0
    9.2147  -15.3388   21.5244 C   0  0  2  0  0  0  0  0  0  0  0  0
    8.6553  -16.6403   21.1198 N   0  0  0  0  0  0  0  0  0  0  0  0
    9.8775  -15.4772   22.8504 C   0  0  0  0  0  0  0  0  0  0  0  0
   10.7817  -14.6926   23.2343 O   0  0  0  0  0  0  0  0  0  0  0  0
    9.5288  -16.5028   23.7650 N   0  0  0  0  0  0  0  0  0  0  0  0
   10.1732  -16.6553   25.0659 C   0  0  1  0  0  0  0  0  0  0  0  0
    9.9469  -15.4763   25.9292 C   0  0  0  0  0  0  0  0  0  0  0  0
    8.5295  -15.0997   26.0144 C   0  0  0  0  0  0  0  0  0  0  0  0
    7.4153  -15.9273   25.7987 C   0  0  0  0  0  0  0  0  0  0  0  0
    6.2803  -15.2491   25.9223 N   0  0  0  0  0  0  0  0  0  0  0  0
    6.5907  -13.9913   26.2154 C   0  0  0  0  0  0  0  0  0  0  0  0
    5.7292  -12.9210   26.4558 C   0  0  0  0  0  0  0  0  0  0  0  0
    6.2580  -11.6888   26.7714 C   0  0  0  0  0  0  0  0  0  0  0  0
    7.6235  -11.5669   26.8359 C   0  0  0  0  0  0  0  0  0  0  0  0
    8.4735  -12.6239   26.5975 C   0  0  0  0  0  0  0  0  0  0  0  0
    7.9611  -13.8563   26.2818 C   0  0  0  0  0  0  0  0  0  0  0  0
    9.8774  -17.9258   25.6866 C   0  0  0  0  0  0  0  0  0  0  0  0
    9.0524  -18.8130   24.9632 O   0  0  0  0  0  0  0  0  0  0  0  0
   10.2917  -18.3012   26.8091 O   0  0  0  0  0  0  0  0  0  0  0  0
  2  1  1  6
  2  3  1  0
  4  2  1  0
  5  4  2  0
  7  6  1  1
  7  8  1  0
  9  7  1  0
 10  9  1  1
 10 11  1  0
 11  4  1  0
 12 14  1  0
 12 10  1  0
 13 12  2  0
 15 14  1  0
 15 16  1  1
 16 17  1  0
 17 18  2  0
 18 19  1  0
 20 19  1  0
 21 20  2  0
 22 21  1  0
 23 24  1  0
 23 22  2  0
 24 25  2  0
 25 17  1  0
 25 20  1  0
 26 15  1  0
 27 26  1  0
 28 26  2  0
M  END
$$$$
