ALW.pdb
     RDKit          3D

 28 29  0  0  1  0  0  0  0  0999 V2000
    6.8339  -19.9388   24.1176 C   0  0  0  0  0  0  0  0  0  0  0  0
    6.0064  -18.7447   23.6437 C   0  0  2  0  0  0  0  0  0  0  0  0
    5.5485  -19.0335   22.3041 N   0  0  0  0  0  0  0  0  0  0  0  0
    6.8241  -17.5073   23.6332 C   0  0  0  0  0  0  0  0  0  0  0  0
    7.5233  -17.2576   22.6095 O   0  0  0  0  0  0  0  0  0  0  0  0
    7.1673  -12.4490   24.5068 C   0  0  0  0  0  0  0  0  0  0  0  0
    6.4474  -13.2726   25.5593 C   0  0  2  0  0  0  0  0  0  0  0  0
    5.8523  -12.5207   26.6723 C   0  0  0  0  0  0  0  0  0  0  0  0
    7.2340  -14.4841   25.8306 C   0  0  0  0  0  0  0  0  0  0  0  0
    7.6256  -15.3842   24.7229 C   0  0  2  0  0  0  0  0  0  0  0  0
    6.8238  -16.6200   24.7447 N   0  0  0  0  0  0  0  0  0  0  0  0
    9.0718  -15.7350   24.6764 C   0  0  0  0  0  0  0  0  0  0  0  0
    9.9567  -14.8965   24.3686 O   0  0  0  0  0  0  0  0  0  0  0  0
    9.5425  -17.0378   24.9783 N   0  0  0  0  0  0  0  0  0  0  0  0
   10.9474  -17.4175   24.8645 C   0  0  1  0  0  0  0  0  0  0  0  0
   11.8217  -16.5175   25.6468 C   0  0  0  0  0  0  0  0  0  0  0  0
   11.5026  -16.5225   27.0807 C   0  0  0  0  0  0  0  0  0  0  0  0
   11.4968  -17.6283   27.9468 C   0  0  0  0  0  0  0  0  0  0  0  0
   11.1243  -17.2783   29.1725 N   0  0  0  0  0  0  0  0  0  0  0  0
   10.8792  -15.9729   29.1634 C   0  0  0  0  0  0  0  0  0  0  0  0
   10.4813  -15.1598   30.2246 C   0  0  0  0  0  0  0  0  0  0  0  0
   10.3026  -13.8111   30.0091 C   0  0  0  0  0  0  0  0  0  0  0  0
   10.5260  -13.3213   28.7466 C   0  0  0  0  0  0  0  0  0  0  0  0
   10.9181  -14.1248   27.6992 C   0  0  0  0  0  0  0  0  0  0  0  0
   11.0994  -15.4695   27.8989 C   0  0  0  0  0  0  0  0  0  0  0  0
   11.1627  -18.8264   25.1005 C   0  0  0  0  0  0  0  0  0  0  0  0
   10.0421  -19.5854   25.4995 O   0  0  0  0  0  0  0  0  0  0  0  0
   12.2580  -19.4252   24.9804 O   0  0  0  0  0  0  0  0  0  0  0  0
  2  1  1  6
  2  3  1  0
  4  2  1  0
  5  4  2  0
  7  6  1  1
  7  8  1  0
  9  7  1  0
 10  9  1  1
 10 11  1  0
 11  4  1  0
 12 14  1  0
 12 10  1  0
 13 12  2  0
 15 14  1  0
 15 16  1  1
 16 17  1  0
 17 18  2  0
 18 19  1  0
 20 19  1  0
 21 20  2  0
 22 21  1  0
 23 24  1  0
 23 22  2  0
 24 25  2  0
 25 17  1  0
 25 20  1  0
 26 15  1  0
 27 26  1  0
 28 26  2  0
M  END
$$$$
