ALW.pdb
     RDKit          3D

 28 29  0  0  1  0  0  0  0  0999 V2000
    5.8661  -19.8391   22.7468 C   0  0  0  0  0  0  0  0  0  0  0  0
    6.0825  -19.3545   21.3138 C   0  0  2  0  0  0  0  0  0  0  0  0
    6.5717  -20.4739   20.5423 N   0  0  0  0  0  0  0  0  0  0  0  0
    7.0743  -18.2524   21.2740 C   0  0  0  0  0  0  0  0  0  0  0  0
    8.3028  -18.5504   21.2375 O   0  0  0  0  0  0  0  0  0  0  0  0
    7.1292  -12.2481   19.9927 C   0  0  0  0  0  0  0  0  0  0  0  0
    7.9855  -13.4490   20.3518 C   0  0  2  0  0  0  0  0  0  0  0  0
    9.1848  -13.6564   19.5290 C   0  0  0  0  0  0  0  0  0  0  0  0
    7.1030  -14.5830   20.6603 C   0  0  0  0  0  0  0  0  0  0  0  0
    7.6479  -15.8013   21.3002 C   0  0  2  0  0  0  0  0  0  0  0  0
    6.6583  -16.8924   21.2756 N   0  0  0  0  0  0  0  0  0  0  0  0
    8.1430  -15.6154   22.6920 C   0  0  0  0  0  0  0  0  0  0  0  0
    7.4130  -15.1612   23.6094 O   0  0  0  0  0  0  0  0  0  0  0  0
    9.4698  -15.9408   23.0709 N   0  0  0  0  0  0  0  0  0  0  0  0
   10.0149  -15.6302   24.3889 C   0  0  1  0  0  0  0  0  0  0  0  0
    9.1772  -16.1882   25.4720 C   0  0  0  0  0  0  0  0  0  0  0  0
    7.9162  -15.4557   25.6481 C   0  0  0  0  0  0  0  0  0  0  0  0
    6.6148  -15.9396   25.4354 C   0  0  0  0  0  0  0  0  0  0  0  0
    5.7077  -14.9948   25.6548 N   0  0  0  0  0  0  0  0  0  0  0  0
    6.3528  -13.8893   26.0095 C   0  0  0  0  0  0  0  0  0  0  0  0
    5.8178  -12.6488   26.3565 C   0  0  0  0  0  0  0  0  0  0  0  0
    6.6670  -11.6276   26.7216 C   0  0  0  0  0  0  0  0  0  0  0  0
    8.0165  -11.8779   26.7280 C   0  0  0  0  0  0  0  0  0  0  0  0
    8.5441  -13.1028   26.3845 C   0  0  0  0  0  0  0  0  0  0  0  0
    7.7106  -14.1285   26.0184 C   0  0  0  0  0  0  0  0  0  0  0  0
   11.4229  -15.9362   24.4936 C   0  0  0  0  0  0  0  0  0  0  0  0
   12.0529  -15.6322   25.7190 O   0  0  0  0  0  0  0  0  0  0  0  0
   12.1258  -16.4466   23.5891 O   0  0  0  0  0  0  0  0  0  0  0  0
  2  1  1  1
  2  3  1  0
  4  2  1  0
  5  4  2  0
  7  6  1  6
  7  8  1  0
  9  7  1  0
 10  9  1  1
 10 11  1  0
 11  4  1  0
 12 14  1  0
 12 10  1  0
 13 12  2  0
 15 14  1  0
 15 16  1  1
 16 17  1  0
 17 18  2  0
 18 19  1  0
 20 19  1  0
 21 20  2  0
 22 21  1  0
 23 24  1  0
 23 22  2  0
 24 25  2  0
 25 17  1  0
 25 20  1  0
 26 15  1  0
 27 26  1  0
 28 26  2  0
M  END
$$$$
