QRW.pdb
     RDKit          3D

 35 36  0  0  1  0  0  0  0  0999 V2000
    8.1568  -12.0219   19.3320 N   0  0  0  0  0  0  0  0  0  0  0  0
    8.2062  -12.8319   18.1772 C   0  0  0  0  0  0  0  0  0  0  0  0
    8.1398  -12.2748   17.0490 O   0  0  0  0  0  0  0  0  0  0  0  0
    8.3298  -14.3097   18.2295 C   0  0  0  0  0  0  0  0  0  0  0  0
    8.3737  -14.8235   19.6438 C   0  0  0  0  0  0  0  0  0  0  0  0
    8.6525  -16.2782   19.6473 C   0  0  2  0  0  0  0  0  0  0  0  0
    7.7447  -16.9889   18.7845 N   0  0  0  0  0  0  0  0  0  0  0  0
    8.5888  -16.8897   21.0014 C   0  0  0  0  0  0  0  0  0  0  0  0
    7.7869  -17.8512   21.2506 O   0  0  0  0  0  0  0  0  0  0  0  0
   15.5361  -20.7170   21.6587 N   0  0  0  0  0  0  0  0  0  0  0  0
   14.5203  -21.4885   22.2780 C   0  0  0  0  0  0  0  0  0  0  0  0
   14.6084  -22.7681   22.3454 N   0  0  0  0  0  0  0  0  0  0  0  0
   13.3535  -20.8933   22.8693 N   0  0  0  0  0  0  0  0  0  0  0  0
   13.2175  -19.4848   22.8151 C   0  0  0  0  0  0  0  0  0  0  0  0
   11.9757  -18.8771   23.3488 C   0  0  0  0  0  0  0  0  0  0  0  0
   11.2902  -17.9658   22.3584 C   0  0  0  0  0  0  0  0  0  0  0  0
   10.0599  -17.3417   22.9960 C   0  0  2  0  0  0  0  0  0  0  0  0
    9.3985  -16.4492   22.0809 N   0  0  0  0  0  0  0  0  0  0  0  0
   10.5191  -16.5919   24.2455 C   0  0  0  0  0  0  0  0  0  0  0  0
   11.5750  -15.9738   24.1932 O   0  0  0  0  0  0  0  0  0  0  0  0
   13.8623  -23.3359   22.8074 N   0  0  0  0  0  0  0  0  0  0  0  0
    9.6997  -16.6438   25.3878 C   0  0  2  0  0  0  0  0  0  0  0  0
    9.9486  -16.1813   26.7211 C   0  0  0  0  0  0  0  0  0  0  0  0
    8.6069  -16.1313   27.4657 C   0  0  0  0  0  0  0  0  0  0  0  0
    7.5679  -15.5644   26.6233 C   0  0  0  0  0  0  0  0  0  0  0  0
    6.5990  -16.1031   25.8700 N   0  0  0  0  0  0  0  0  0  0  0  0
    5.8767  -15.2035   25.2038 C   0  0  0  0  0  0  0  0  0  0  0  0
    6.3913  -14.0084   25.5299 C   0  0  0  0  0  0  0  0  0  0  0  0
    6.0402  -12.7285   25.1587 C   0  0  0  0  0  0  0  0  0  0  0  0
    6.6983  -11.6246   25.6344 C   0  0  0  0  0  0  0  0  0  0  0  0
    7.7402  -11.8078   26.5096 C   0  0  0  0  0  0  0  0  0  0  0  0
    8.1064  -13.0747   26.8903 C   0  0  0  0  0  0  0  0  0  0  0  0
    7.4497  -14.1676   26.4135 C   0  0  0  0  0  0  0  0  0  0  0  0
   10.9262  -16.9070   27.4810 O   0  0  0  0  0  0  0  0  0  0  0  0
   11.4070  -16.4671   28.7470 O   0  0  0  0  0  0  0  0  0  0  0  0
  2  3  2  0
  2  1  1  0
  4  2  1  0
  5  6  1  0
  5  4  1  0
  6  8  1  0
  6  7  1  6
  8  9  2  0
 10 11  1  0
 11 13  1  0
 11 12  2  0
 13 14  1  0
 14 15  1  0
 16 15  1  0
 17 16  1  6
 17 19  1  0
 18 17  1  0
 18  8  1  0
 19 20  2  0
 19 21  1  0
 21 22  1  0
 22 33  1  0
 22 23  1  6
 24 23  1  0
 24 25  2  0
 26 25  1  0
 27 26  1  0
 28 27  2  0
 29 28  1  0
 30 29  2  0
 30 31  1  0
 31 32  2  0
 32 27  1  0
 32 24  1  0
 33 35  2  0
 33 34  1  0
M  END
$$$$
