QRW.pdb
     RDKit          3D

 35 36  0  0  1  0  0  0  0  0999 V2000
    8.3053  -13.1044   16.6037 N   0  0  0  0  0  0  0  0  0  0  0  0
    8.4261  -12.6956   17.9493 C   0  0  0  0  0  0  0  0  0  0  0  0
    9.5646  -12.3671   18.3777 O   0  0  0  0  0  0  0  0  0  0  0  0
    7.2753  -12.6374   18.8842 C   0  0  0  0  0  0  0  0  0  0  0  0
    7.5114  -13.4593   20.1231 C   0  0  0  0  0  0  0  0  0  0  0  0
    7.7077  -14.8817   19.7591 C   0  0  2  0  0  0  0  0  0  0  0  0
    6.5562  -15.4130   19.0770 N   0  0  0  0  0  0  0  0  0  0  0  0
    8.0071  -15.7549   20.9250 C   0  0  0  0  0  0  0  0  0  0  0  0
    7.0786  -16.1421   21.7110 O   0  0  0  0  0  0  0  0  0  0  0  0
   14.3667  -21.7353   22.1380 N   0  0  0  0  0  0  0  0  0  0  0  0
   13.1769  -22.2047   22.7499 C   0  0  0  0  0  0  0  0  0  0  0  0
   13.0484  -23.4363   23.0906 N   0  0  0  0  0  0  0  0  0  0  0  0
   12.0634  -21.3409   23.0324 N   0  0  0  0  0  0  0  0  0  0  0  0
   12.1564  -19.9798   22.6531 C   0  0  0  0  0  0  0  0  0  0  0  0
   11.0116  -19.0869   22.9507 C   0  0  0  0  0  0  0  0  0  0  0  0
   10.7533  -18.0732   21.8612 C   0  0  0  0  0  0  0  0  0  0  0  0
    9.6130  -17.1552   22.2693 C   0  0  2  0  0  0  0  0  0  0  0  0
    9.3190  -16.2018   21.2320 N   0  0  0  0  0  0  0  0  0  0  0  0
   10.0324  -16.4435   23.5546 C   0  0  0  0  0  0  0  0  0  0  0  0
   10.8732  -15.5567   23.4761 O   0  0  0  0  0  0  0  0  0  0  0  0
   12.1725  -23.7810   23.5452 N   0  0  0  0  0  0  0  0  0  0  0  0
    9.4234  -16.8386   24.7596 C   0  0  2  0  0  0  0  0  0  0  0  0
    9.7171  -16.4547   26.1086 C   0  0  0  0  0  0  0  0  0  0  0  0
    8.4053  -16.4769   26.9060 C   0  0  0  0  0  0  0  0  0  0  0  0
    7.4559  -15.5179   26.3678 C   0  0  0  0  0  0  0  0  0  0  0  0
    6.4207  -15.6239   25.5229 N   0  0  0  0  0  0  0  0  0  0  0  0
    5.8316  -14.4606   25.2501 C   0  0  0  0  0  0  0  0  0  0  0  0
    6.5088  -13.5362   25.9475 C   0  0  0  0  0  0  0  0  0  0  0  0
    6.3405  -12.1735   26.0652 C   0  0  0  0  0  0  0  0  0  0  0  0
    7.1470  -11.4052   26.8635 C   0  0  0  0  0  0  0  0  0  0  0  0
    8.1531  -12.0206   27.5664 C   0  0  0  0  0  0  0  0  0  0  0  0
    8.3382  -13.3766   27.4613 C   0  0  0  0  0  0  0  0  0  0  0  0
    7.5346  -14.1345   26.6658 C   0  0  0  0  0  0  0  0  0  0  0  0
   10.7362  -17.2069   26.7834 O   0  0  0  0  0  0  0  0  0  0  0  0
   11.2590  -16.8371   28.0553 O   0  0  0  0  0  0  0  0  0  0  0  0
  2  3  2  0
  2  1  1  0
  4  2  1  0
  5  6  1  0
  5  4  1  0
  6  8  1  0
  6  7  1  1
  8  9  2  0
 10 11  1  0
 11 13  1  0
 11 12  2  0
 13 14  1  0
 14 15  1  0
 16 15  1  0
 17 16  1  6
 17 19  1  0
 18 17  1  0
 18  8  1  0
 19 20  2  0
 19 21  1  0
 21 22  1  0
 22 33  1  0
 22 23  1  6
 24 23  1  0
 24 25  2  0
 26 25  1  0
 27 26  1  0
 28 27  2  0
 29 28  1  0
 30 29  2  0
 30 31  1  0
 31 32  2  0
 32 27  1  0
 32 24  1  0
 33 35  2  0
 33 34  1  0
M  END
$$$$
