QRW.pdb
     RDKit          3D

 35 36  0  0  1  0  0  0  0  0999 V2000
    8.3965  -20.5644   27.9944 N   0  0  0  0  0  0  0  0  0  0  0  0
    7.1295  -21.1179   27.7104 C   0  0  0  0  0  0  0  0  0  0  0  0
    6.5566  -21.7975   28.6034 O   0  0  0  0  0  0  0  0  0  0  0  0
    6.4416  -20.9393   26.4078 C   0  0  0  0  0  0  0  0  0  0  0  0
    7.2390  -20.0834   25.4602 C   0  0  0  0  0  0  0  0  0  0  0  0
    6.5567  -20.0077   24.1476 C   0  0  2  0  0  0  0  0  0  0  0  0
    6.3089  -21.3195   23.6080 N   0  0  0  0  0  0  0  0  0  0  0  0
    7.3070  -19.2178   23.1354 C   0  0  0  0  0  0  0  0  0  0  0  0
    8.4867  -19.5545   22.7824 O   0  0  0  0  0  0  0  0  0  0  0  0
    7.1154  -14.1402   16.2791 N   0  0  0  0  0  0  0  0  0  0  0  0
    7.9703  -13.3577   17.0960 C   0  0  0  0  0  0  0  0  0  0  0  0
    8.5262  -12.2920   16.6434 N   0  0  0  0  0  0  0  0  0  0  0  0
    8.2532  -13.6983   18.4633 N   0  0  0  0  0  0  0  0  0  0  0  0
    7.3913  -14.6096   19.1204 C   0  0  0  0  0  0  0  0  0  0  0  0
    7.7396  -15.0410   20.4947 C   0  0  0  0  0  0  0  0  0  0  0  0
    6.8365  -16.1323   21.0189 C   0  0  0  0  0  0  0  0  0  0  0  0
    7.5706  -16.9511   22.0678 C   0  0  2  0  0  0  0  0  0  0  0  0
    6.7694  -18.0610   22.5125 N   0  0  0  0  0  0  0  0  0  0  0  0
    7.8975  -16.0192   23.2335 C   0  0  0  0  0  0  0  0  0  0  0  0
    7.3630  -14.9177   23.2603 O   0  0  0  0  0  0  0  0  0  0  0  0
    9.2128  -11.7556   17.2209 N   0  0  0  0  0  0  0  0  0  0  0  0
    8.7888  -16.4795   24.2198 C   0  0  1  0  0  0  0  0  0  0  0  0
    9.7993  -15.7726   24.9497 C   0  0  0  0  0  0  0  0  0  0  0  0
    9.3078  -15.5959   26.3934 C   0  0  0  0  0  0  0  0  0  0  0  0
    7.9767  -15.0144   26.4198 C   0  0  0  0  0  0  0  0  0  0  0  0
    6.7436  -15.5397   26.4169 N   0  0  0  0  0  0  0  0  0  0  0  0
    5.7734  -14.6270   26.3976 C   0  0  0  0  0  0  0  0  0  0  0  0
    6.3921  -13.4369   26.3867 C   0  0  0  0  0  0  0  0  0  0  0  0
    5.9003  -12.1495   26.3821 C   0  0  0  0  0  0  0  0  0  0  0  0
    6.7236  -11.0541   26.3927 C   0  0  0  0  0  0  0  0  0  0  0  0
    8.0819  -11.2537   26.4088 C   0  0  0  0  0  0  0  0  0  0  0  0
    8.5916  -12.5281   26.4118 C   0  0  0  0  0  0  0  0  0  0  0  0
    7.7688  -13.6125   26.4001 C   0  0  0  0  0  0  0  0  0  0  0  0
   11.1201  -16.3336   24.9262 O   0  0  0  0  0  0  0  0  0  0  0  0
   12.2609  -15.6530   25.4391 O   0  0  0  0  0  0  0  0  0  0  0  0
  2  3  2  0
  2  1  1  0
  4  2  1  0
  5  6  1  0
  5  4  1  0
  6  8  1  0
  6  7  1  6
  8  9  2  0
 10 11  1  0
 11 13  1  0
 11 12  2  0
 13 14  1  0
 14 15  1  0
 16 15  1  0
 17 16  1  6
 17 19  1  0
 18 17  1  0
 18  8  1  0
 19 20  2  0
 19 21  1  0
 21 22  1  0
 22 33  1  0
 22 23  1  1
 24 23  1  0
 24 25  2  0
 26 25  1  0
 27 26  1  0
 28 27  2  0
 29 28  1  0
 30 29  2  0
 30 31  1  0
 31 32  2  0
 32 27  1  0
 32 24  1  0
 33 35  2  0
 33 34  1  0
M  END
$$$$
