QRW.pdb
     RDKit          3D

 35 36  0  0  1  0  0  0  0  0999 V2000
    9.6766  -22.5171   22.9251 N   0  0  0  0  0  0  0  0  0  0  0  0
    8.5972  -22.8221   22.0683 C   0  0  0  0  0  0  0  0  0  0  0  0
    7.9897  -23.9137   22.2320 O   0  0  0  0  0  0  0  0  0  0  0  0
    8.1462  -21.9184   20.9812 C   0  0  0  0  0  0  0  0  0  0  0  0
    9.0203  -20.6987   20.8610 C   0  0  0  0  0  0  0  0  0  0  0  0
    8.5274  -19.6299   21.7604 C   0  0  2  0  0  0  0  0  0  0  0  0
    7.1788  -19.2471   21.4313 N   0  0  0  0  0  0  0  0  0  0  0  0
    9.3775  -18.4097   21.7508 C   0  0  0  0  0  0  0  0  0  0  0  0
   10.6014  -18.4650   21.3922 O   0  0  0  0  0  0  0  0  0  0  0  0
    7.3595  -12.4721   18.9459 N   0  0  0  0  0  0  0  0  0  0  0  0
    8.0171  -13.4794   18.1953 C   0  0  0  0  0  0  0  0  0  0  0  0
    8.2005  -13.3500   16.9307 N   0  0  0  0  0  0  0  0  0  0  0  0
    8.5209  -14.6833   18.7972 N   0  0  0  0  0  0  0  0  0  0  0  0
    7.6486  -15.4406   19.6162 C   0  0  0  0  0  0  0  0  0  0  0  0
    7.6438  -15.1736   21.0739 C   0  0  0  0  0  0  0  0  0  0  0  0
    8.9947  -14.7532   21.6027 C   0  0  0  0  0  0  0  0  0  0  0  0
    9.7132  -15.9531   22.1972 C   0  0  2  0  0  0  0  0  0  0  0  0
    8.8908  -17.1327   22.1345 N   0  0  0  0  0  0  0  0  0  0  0  0
   10.0588  -15.6117   23.6458 C   0  0  0  0  0  0  0  0  0  0  0  0
   10.7594  -14.6297   23.8567 O   0  0  0  0  0  0  0  0  0  0  0  0
    8.6743  -14.0983   16.3756 N   0  0  0  0  0  0  0  0  0  0  0  0
    9.5460  -16.4386   24.6618 C   0  0  1  0  0  0  0  0  0  0  0  0
    9.8961  -16.5174   26.0491 C   0  0  0  0  0  0  0  0  0  0  0  0
    8.6076  -16.7416   26.8532 C   0  0  0  0  0  0  0  0  0  0  0  0
    7.5573  -15.8409   26.4100 C   0  0  0  0  0  0  0  0  0  0  0  0
    6.4292  -16.0185   25.7082 N   0  0  0  0  0  0  0  0  0  0  0  0
    5.7608  -14.8898   25.4755 C   0  0  0  0  0  0  0  0  0  0  0  0
    6.4802  -13.9144   26.0503 C   0  0  0  0  0  0  0  0  0  0  0  0
    6.2697  -12.5558   26.1443 C   0  0  0  0  0  0  0  0  0  0  0  0
    7.1367  -11.7274   26.8077 C   0  0  0  0  0  0  0  0  0  0  0  0
    8.2492  -12.2767   27.3957 C   0  0  0  0  0  0  0  0  0  0  0  0
    8.4777  -13.6275   27.3118 C   0  0  0  0  0  0  0  0  0  0  0  0
    7.6134  -14.4452   26.6505 C   0  0  0  0  0  0  0  0  0  0  0  0
   10.8942  -17.4849   26.4061 O   0  0  0  0  0  0  0  0  0  0  0  0
   11.4086  -17.6169   27.7273 O   0  0  0  0  0  0  0  0  0  0  0  0
  2  3  2  0
  2  1  1  0
  4  2  1  0
  5  6  1  0
  5  4  1  0
  6  8  1  0
  6  7  1  6
  8  9  2  0
 10 11  1  0
 11 13  1  0
 11 12  2  0
 13 14  1  0
 14 15  1  0
 16 15  1  0
 17 16  1  1
 17 19  1  0
 18 17  1  0
 18  8  1  0
 19 20  2  0
 19 21  1  0
 21 22  1  0
 22 33  1  0
 22 23  1  1
 24 23  1  0
 24 25  2  0
 26 25  1  0
 27 26  1  0
 28 27  2  0
 29 28  1  0
 30 29  2  0
 30 31  1  0
 31 32  2  0
 32 27  1  0
 32 24  1  0
 33 35  2  0
 33 34  1  0
M  END
$$$$
