QRW.pdb
     RDKit          3D

 35 36  0  0  1  0  0  0  0  0999 V2000
   12.1239  -13.4894   19.9330 N   0  0  0  0  0  0  0  0  0  0  0  0
   11.4561  -13.2064   18.7221 C   0  0  0  0  0  0  0  0  0  0  0  0
   12.0231  -13.5084   17.6382 O   0  0  0  0  0  0  0  0  0  0  0  0
   10.1184  -12.5668   18.6657 C   0  0  0  0  0  0  0  0  0  0  0  0
    9.0696  -13.3869   19.3684 C   0  0  0  0  0  0  0  0  0  0  0  0
    8.7729  -14.6096   18.5866 C   0  0  2  0  0  0  0  0  0  0  0  0
    7.6523  -14.4100   17.7047 N   0  0  0  0  0  0  0  0  0  0  0  0
    8.4978  -15.8009   19.4331 C   0  0  0  0  0  0  0  0  0  0  0  0
    7.3426  -15.9924   19.9416 O   0  0  0  0  0  0  0  0  0  0  0  0
   11.8200  -18.7277   16.3513 N   0  0  0  0  0  0  0  0  0  0  0  0
   13.0667  -19.1064   16.9106 C   0  0  0  0  0  0  0  0  0  0  0  0
   14.1627  -18.9351   16.2633 N   0  0  0  0  0  0  0  0  0  0  0  0
   13.1789  -19.6857   18.2211 N   0  0  0  0  0  0  0  0  0  0  0  0
   11.9934  -19.8934   18.9672 C   0  0  0  0  0  0  0  0  0  0  0  0
   11.2601  -18.7067   19.4673 C   0  0  0  0  0  0  0  0  0  0  0  0
   10.0794  -19.0648   20.3386 C   0  0  0  0  0  0  0  0  0  0  0  0
    9.3174  -17.8062   20.7191 C   0  0  2  0  0  0  0  0  0  0  0  0
    9.4842  -16.7791   19.7248 N   0  0  0  0  0  0  0  0  0  0  0  0
    9.8480  -17.3386   22.0734 C   0  0  0  0  0  0  0  0  0  0  0  0
   11.0386  -17.4953   22.3131 O   0  0  0  0  0  0  0  0  0  0  0  0
   15.0818  -19.2108   16.6776 N   0  0  0  0  0  0  0  0  0  0  0  0
    8.9420  -16.7440   22.9704 C   0  0  1  0  0  0  0  0  0  0  0  0
    9.1665  -16.1855   24.2709 C   0  0  0  0  0  0  0  0  0  0  0  0
    7.8566  -15.5395   24.7440 C   0  0  0  0  0  0  0  0  0  0  0  0
    8.0374  -14.8814   26.0265 C   0  0  0  0  0  0  0  0  0  0  0  0
    8.5193  -15.2885   27.2092 N   0  0  0  0  0  0  0  0  0  0  0  0
    8.4600  -14.3574   28.1601 C   0  0  0  0  0  0  0  0  0  0  0  0
    7.9115  -13.2789   27.5812 C   0  0  0  0  0  0  0  0  0  0  0  0
    7.6232  -12.0237   28.0718 C   0  0  0  0  0  0  0  0  0  0  0  0
    7.0719  -11.0434   27.2889 C   0  0  0  0  0  0  0  0  0  0  0  0
    6.8011  -11.3285   25.9734 C   0  0  0  0  0  0  0  0  0  0  0  0
    7.0792  -12.5732   25.4662 C   0  0  0  0  0  0  0  0  0  0  0  0
    7.6258  -13.5434   26.2491 C   0  0  0  0  0  0  0  0  0  0  0  0
    9.6865  -17.0741   25.2708 O   0  0  0  0  0  0  0  0  0  0  0  0
   10.6390  -16.6687   26.2486 O   0  0  0  0  0  0  0  0  0  0  0  0
  2  3  2  0
  2  1  1  0
  4  2  1  0
  5  6  1  0
  5  4  1  0
  6  8  1  0
  6  7  1  1
  8  9  2  0
 10 11  1  0
 11 13  1  0
 11 12  2  0
 13 14  1  0
 14 15  1  0
 16 15  1  0
 17 16  1  6
 17 19  1  0
 18 17  1  0
 18  8  1  0
 19 20  2  0
 19 21  1  0
 21 22  1  0
 22 33  1  0
 22 23  1  1
 24 23  1  0
 24 25  2  0
 26 25  1  0
 27 26  1  0
 28 27  2  0
 29 28  1  0
 30 29  2  0
 30 31  1  0
 31 32  2  0
 32 27  1  0
 32 24  1  0
 33 35  2  0
 33 34  1  0
M  END
$$$$
