TMG.pdb
     RDKit          3D

 20 19  0  0  1  0  0  0  0  0999 V2000
    7.2630  -16.0271   20.0647 C   0  0  0  0  0  0  0  0  0  0  0  0
    7.9029  -14.7967   19.4406 C   0  0  1  0  0  0  0  0  0  0  0  0
    7.4646  -14.7038   18.1447 O   0  0  0  0  0  0  0  0  0  0  0  0
    7.5027  -13.6182   20.2922 C   0  0  2  0  0  0  0  0  0  0  0  0
    7.8717  -12.4024   19.6062 N   0  0  0  0  0  0  0  0  0  0  0  0
    8.1728  -13.6516   21.6295 C   0  0  0  0  0  0  0  0  0  0  0  0
    9.3592  -13.2661   21.7733 O   0  0  0  0  0  0  0  0  0  0  0  0
    6.9832  -12.2865   27.9913 C   0  0  0  0  0  0  0  0  0  0  0  0
    6.2292  -11.4760   26.5295 S   0  0  0  0  0  0  0  0  0  0  0  0
    6.9577  -12.2042   25.0619 C   0  0  0  0  0  0  0  0  0  0  0  0
    7.4348  -13.6169   25.2277 C   0  0  0  0  0  0  0  0  0  0  0  0
    8.0958  -14.2451   24.0919 C   0  0  2  0  0  0  0  0  0  0  0  0
    7.5108  -14.1155   22.7942 N   0  0  0  0  0  0  0  0  0  0  0  0
    8.5456  -15.6215   24.3376 C   0  0  0  0  0  0  0  0  0  0  0  0
    7.7479  -16.5963   24.3433 O   0  0  0  0  0  0  0  0  0  0  0  0
    9.9251  -15.9376   24.5976 N   0  0  0  0  0  0  0  0  0  0  0  0
   10.4599  -17.2452   24.8026 C   0  0  0  0  0  0  0  0  0  0  0  0
   10.5553  -17.7515   26.1564 C   0  0  0  0  0  0  0  0  0  0  0  0
   10.1139  -17.1840   27.1603 O   0  0  0  0  0  0  0  0  0  0  0  0
   11.1978  -18.9827   26.3552 O   0  0  0  0  0  0  0  0  0  0  0  0
  2  1  1  1
  3  2  1  0
  4  5  1  6
  4  2  1  0
  6  4  1  0
  6  7  2  0
  9  8  1  0
  9 10  1  0
 10 11  1  0
 12 11  1  1
 12 13  1  0
 12 14  1  0
 13  6  1  0
 14 16  1  0
 14 15  2  0
 16 17  1  0
 18 17  1  0
 18 20  1  0
 19 18  2  0
M  END
$$$$
