TMG.pdb
     RDKit          3D

 20 19  0  0  1  0  0  0  0  0999 V2000
    6.7872  -19.4590   24.1377 C   0  0  0  0  0  0  0  0  0  0  0  0
    7.4463  -19.4644   22.7671 C   0  0  1  0  0  0  0  0  0  0  0  0
    6.9455  -20.5281   22.0616 O   0  0  0  0  0  0  0  0  0  0  0  0
    7.1424  -18.1306   22.1323 C   0  0  2  0  0  0  0  0  0  0  0  0
    7.6263  -18.1422   20.7720 N   0  0  0  0  0  0  0  0  0  0  0  0
    7.7907  -17.0057   22.8759 C   0  0  0  0  0  0  0  0  0  0  0  0
    8.9541  -16.6250   22.5959 O   0  0  0  0  0  0  0  0  0  0  0  0
    7.0372  -10.7430   27.7297 C   0  0  0  0  0  0  0  0  0  0  0  0
    6.1354  -11.9544   26.6897 S   0  0  0  0  0  0  0  0  0  0  0  0
    7.3326  -13.1243   26.0472 C   0  0  0  0  0  0  0  0  0  0  0  0
    6.7590  -14.1984   25.1709 C   0  0  0  0  0  0  0  0  0  0  0  0
    7.6686  -15.2193   24.6691 C   0  0  2  0  0  0  0  0  0  0  0  0
    7.1330  -16.3164   23.9256 N   0  0  0  0  0  0  0  0  0  0  0  0
    8.6664  -15.6752   25.6457 C   0  0  0  0  0  0  0  0  0  0  0  0
    9.4048  -14.8714   26.2743 O   0  0  0  0  0  0  0  0  0  0  0  0
    8.8676  -17.0703   25.9352 N   0  0  0  0  0  0  0  0  0  0  0  0
    9.6603  -17.5987   26.9983 C   0  0  0  0  0  0  0  0  0  0  0  0
   11.0345  -17.9650   26.7233 C   0  0  0  0  0  0  0  0  0  0  0  0
   11.6086  -17.8097   25.6412 O   0  0  0  0  0  0  0  0  0  0  0  0
   11.7822  -18.5427   27.7603 O   0  0  0  0  0  0  0  0  0  0  0  0
  2  1  1  1
  3  2  1  0
  4  5  1  6
  4  2  1  0
  6  4  1  0
  6  7  2  0
  9  8  1  0
  9 10  1  0
 10 11  1  0
 12 11  1  1
 12 13  1  0
 12 14  1  0
 13  6  1  0
 14 16  1  0
 14 15  2  0
 16 17  1  0
 18 17  1  0
 18 20  1  0
 19 18  2  0
M  END
$$$$
