TMG.pdb
     RDKit          3D

 20 19  0  0  1  0  0  0  0  0999 V2000
    7.8874  -19.3814   24.1123 C   0  0  0  0  0  0  0  0  0  0  0  0
    7.2860  -19.2968   22.7180 C   0  0  1  0  0  0  0  0  0  0  0  0
    6.8039  -20.5377   22.3897 O   0  0  0  0  0  0  0  0  0  0  0  0
    6.2164  -18.2349   22.7687 C   0  0  2  0  0  0  0  0  0  0  0  0
    5.4529  -18.2853   21.5442 N   0  0  0  0  0  0  0  0  0  0  0  0
    6.8039  -16.8679   22.9265 C   0  0  0  0  0  0  0  0  0  0  0  0
    7.3312  -16.2697   21.9565 O   0  0  0  0  0  0  0  0  0  0  0  0
    7.0607  -11.6995   28.2900 C   0  0  0  0  0  0  0  0  0  0  0  0
    6.0732  -11.6523   26.7458 S   0  0  0  0  0  0  0  0  0  0  0  0
    6.9619  -12.5837   25.4977 C   0  0  0  0  0  0  0  0  0  0  0  0
    6.4876  -13.9939   25.3046 C   0  0  0  0  0  0  0  0  0  0  0  0
    7.2334  -14.8376   24.3809 C   0  0  2  0  0  0  0  0  0  0  0  0
    6.7967  -16.1818   24.1671 N   0  0  0  0  0  0  0  0  0  0  0  0
    8.6918  -14.7715   24.5420 C   0  0  0  0  0  0  0  0  0  0  0  0
    9.3109  -13.6759   24.5978 O   0  0  0  0  0  0  0  0  0  0  0  0
    9.5029  -15.9563   24.6352 N   0  0  0  0  0  0  0  0  0  0  0  0
   10.9161  -15.9898   24.8338 C   0  0  0  0  0  0  0  0  0  0  0  0
   11.5757  -17.2773   24.9109 C   0  0  0  0  0  0  0  0  0  0  0  0
   11.0182  -18.3707   24.7762 O   0  0  0  0  0  0  0  0  0  0  0  0
   12.9566  -17.2959   25.1575 O   0  0  0  0  0  0  0  0  0  0  0  0
  2  1  1  1
  3  2  1  0
  4  5  1  6
  4  2  1  0
  6  4  1  0
  6  7  2  0
  9  8  1  0
  9 10  1  0
 10 11  1  0
 12 11  1  1
 12 13  1  0
 12 14  1  0
 13  6  1  0
 14 16  1  0
 14 15  2  0
 16 17  1  0
 18 17  1  0
 18 20  1  0
 19 18  2  0
M  END
$$$$
