TMG.pdb
     RDKit          3D

 20 19  0  0  1  0  0  0  0  0999 V2000
    7.4025  -16.1597   19.7720 C   0  0  0  0  0  0  0  0  0  0  0  0
    8.1073  -14.9071   19.2750 C   0  0  1  0  0  0  0  0  0  0  0  0
    7.7671  -14.7245   17.9594 O   0  0  0  0  0  0  0  0  0  0  0  0
    7.6657  -13.7753   20.1686 C   0  0  2  0  0  0  0  0  0  0  0  0
    8.0484  -12.5242   19.5576 N   0  0  0  0  0  0  0  0  0  0  0  0
    8.2869  -13.8703   21.5264 C   0  0  0  0  0  0  0  0  0  0  0  0
    9.4809  -13.5338   21.7213 O   0  0  0  0  0  0  0  0  0  0  0  0
    7.2494  -11.2827   27.4897 C   0  0  0  0  0  0  0  0  0  0  0  0
    5.9308  -12.2265   26.6338 S   0  0  0  0  0  0  0  0  0  0  0  0
    6.5910  -12.7925   25.0658 C   0  0  0  0  0  0  0  0  0  0  0  0
    7.2743  -14.1273   25.1128 C   0  0  0  0  0  0  0  0  0  0  0  0
    8.0965  -14.5066   23.9719 C   0  0  2  0  0  0  0  0  0  0  0  0
    7.5680  -14.3406   22.6542 N   0  0  0  0  0  0  0  0  0  0  0  0
    8.7707  -15.8037   24.1151 C   0  0  0  0  0  0  0  0  0  0  0  0
    8.1816  -16.8937   23.8884 O   0  0  0  0  0  0  0  0  0  0  0  0
   10.1434  -15.9070   24.5339 N   0  0  0  0  0  0  0  0  0  0  0  0
   10.9011  -17.1131   24.6284 C   0  0  0  0  0  0  0  0  0  0  0  0
   10.8096  -17.8968   25.8432 C   0  0  0  0  0  0  0  0  0  0  0  0
    9.7672  -18.3676   26.3084 O   0  0  0  0  0  0  0  0  0  0  0  0
   11.9917  -18.1472   26.5559 O   0  0  0  0  0  0  0  0  0  0  0  0
  2  1  1  1
  3  2  1  0
  4  5  1  6
  4  2  1  0
  6  4  1  0
  6  7  2  0
  9  8  1  0
  9 10  1  0
 10 11  1  0
 12 11  1  1
 12 13  1  0
 12 14  1  0
 13  6  1  0
 14 16  1  0
 14 15  2  0
 16 17  1  0
 18 17  1  0
 18 20  1  0
 19 18  2  0
M  END
$$$$
