TMG.pdb
     RDKit          3D

 20 19  0  0  1  0  0  0  0  0999 V2000
    7.7898  -16.1782   19.7153 C   0  0  0  0  0  0  0  0  0  0  0  0
    8.4075  -14.9252   19.1142 C   0  0  1  0  0  0  0  0  0  0  0  0
    8.1414  -14.9265   17.7691 O   0  0  0  0  0  0  0  0  0  0  0  0
    7.8035  -13.7500   19.8412 C   0  0  2  0  0  0  0  0  0  0  0  0
    8.1404  -12.5399   19.1291 N   0  0  0  0  0  0  0  0  0  0  0  0
    8.3094  -13.6516   21.2458 C   0  0  0  0  0  0  0  0  0  0  0  0
    9.4669  -13.2321   21.4932 O   0  0  0  0  0  0  0  0  0  0  0  0
    7.1405  -10.7702   27.4449 C   0  0  0  0  0  0  0  0  0  0  0  0
    6.4266  -12.4490   27.2607 S   0  0  0  0  0  0  0  0  0  0  0  0
    7.4825  -13.3748   26.1459 C   0  0  0  0  0  0  0  0  0  0  0  0
    7.0315  -13.3900   24.7151 C   0  0  0  0  0  0  0  0  0  0  0  0
    7.9281  -13.9786   23.7296 C   0  0  2  0  0  0  0  0  0  0  0  0
    7.5172  -14.0228   22.3613 N   0  0  0  0  0  0  0  0  0  0  0  0
    8.5336  -15.2508   24.1445 C   0  0  0  0  0  0  0  0  0  0  0  0
    7.9515  -16.3555   23.9791 O   0  0  0  0  0  0  0  0  0  0  0  0
    9.8255  -15.3102   24.7755 N   0  0  0  0  0  0  0  0  0  0  0  0
   10.8821  -16.2082   24.4365 C   0  0  0  0  0  0  0  0  0  0  0  0
   10.7893  -17.5858   24.8747 C   0  0  0  0  0  0  0  0  0  0  0  0
   11.3496  -18.0542   25.8704 O   0  0  0  0  0  0  0  0  0  0  0  0
   10.0041  -18.4667   24.1161 O   0  0  0  0  0  0  0  0  0  0  0  0
  2  1  1  1
  3  2  1  0
  4  5  1  6
  4  2  1  0
  6  4  1  0
  6  7  2  0
  9  8  1  0
  9 10  1  0
 10 11  1  0
 12 11  1  1
 12 13  1  0
 12 14  1  0
 13  6  1  0
 14 16  1  0
 14 15  2  0
 16 17  1  0
 18 17  1  0
 18 20  1  0
 19 18  2  0
M  END
$$$$
