TMG.pdb
     RDKit          3D

 20 19  0  0  1  0  0  0  0  0999 V2000
    8.1776  -12.3118   19.6209 C   0  0  0  0  0  0  0  0  0  0  0  0
    7.3859  -13.6102   19.6008 C   0  0  1  0  0  0  0  0  0  0  0  0
    7.1148  -13.9197   18.2928 O   0  0  0  0  0  0  0  0  0  0  0  0
    8.2317  -14.6469   20.2967 C   0  0  2  0  0  0  0  0  0  0  0  0
    7.5701  -15.9268   20.2015 N   0  0  0  0  0  0  0  0  0  0  0  0
    8.4434  -14.3083   21.7386 C   0  0  0  0  0  0  0  0  0  0  0  0
    9.2330  -13.3949   22.0839 O   0  0  0  0  0  0  0  0  0  0  0  0
    7.3972  -11.5342   28.1708 C   0  0  0  0  0  0  0  0  0  0  0  0
    7.0737  -11.7976   26.3853 S   0  0  0  0  0  0  0  0  0  0  0  0
    6.6616  -13.5269   26.1518 C   0  0  0  0  0  0  0  0  0  0  0  0
    6.5978  -13.9737   24.7210 C   0  0  0  0  0  0  0  0  0  0  0  0
    7.7752  -14.6242   24.1625 C   0  0  2  0  0  0  0  0  0  0  0  0
    7.7706  -14.9933   22.7816 N   0  0  0  0  0  0  0  0  0  0  0  0
    8.3282  -15.6980   24.9983 C   0  0  0  0  0  0  0  0  0  0  0  0
    7.6048  -16.3978   25.7556 O   0  0  0  0  0  0  0  0  0  0  0  0
    9.7333  -16.0079   25.0099 N   0  0  0  0  0  0  0  0  0  0  0  0
   10.3534  -17.0547   25.7563 C   0  0  0  0  0  0  0  0  0  0  0  0
   11.7847  -17.2408   25.6334 C   0  0  0  0  0  0  0  0  0  0  0  0
   12.5263  -16.5831   24.8971 O   0  0  0  0  0  0  0  0  0  0  0  0
   12.3871  -18.2444   26.4068 O   0  0  0  0  0  0  0  0  0  0  0  0
  2  1  1  6
  3  2  1  0
  4  5  1  1
  4  2  1  0
  6  4  1  0
  6  7  2  0
  9  8  1  0
  9 10  1  0
 10 11  1  0
 12 11  1  1
 12 13  1  0
 12 14  1  0
 13  6  1  0
 14 16  1  0
 14 15  2  0
 16 17  1  0
 18 17  1  0
 18 20  1  0
 19 18  2  0
M  END
$$$$
