HSC.pdb
     RDKit          3D

 23 23  0  0  1  0  0  0  0  0999 V2000
   18.1980  -12.7501  -15.1799 N   0  0  0  0  0  0  0  0  0  0  0  0
   18.4685  -11.7214  -16.1602 C   0  0  1  0  0  0  0  0  0  0  0  0
   17.2504  -11.6055  -17.0735 C   0  0  0  0  0  0  0  0  0  0  0  0
   17.1327  -12.8414  -17.8985 C   0  0  0  0  0  0  0  0  0  0  0  0
   17.9556  -13.2653  -18.8996 C   0  0  0  0  0  0  0  0  0  0  0  0
   17.4676  -14.4314  -19.3645 N   0  0  0  0  0  0  0  0  0  0  0  0
   16.3625  -14.7592  -18.6901 C   0  0  0  0  0  0  0  0  0  0  0  0
   16.1644  -13.7673  -17.7846 N   0  0  0  0  0  0  0  0  0  0  0  0
   18.6485  -10.4349  -15.4437 C   0  0  0  0  0  0  0  0  0  0  0  0
   17.6620   -9.8462  -14.9747 O   0  0  0  0  0  0  0  0  0  0  0  0
   22.3735   -8.4811  -15.2698 O   0  0  0  0  0  0  0  0  0  0  0  0
   21.4357   -8.1621  -14.3009 C   0  0  0  0  0  0  0  0  0  0  0  0
   20.0398   -8.5382  -14.7034 C   0  0  2  0  0  0  0  0  0  0  0  0
   19.9160   -9.8388  -15.2678 N   0  0  0  0  0  0  0  0  0  0  0  0
   19.5807   -7.5479  -15.7110 C   0  0  0  0  0  0  0  0  0  0  0  0
   19.5527   -7.7746  -16.9478 O   0  0  0  0  0  0  0  0  0  0  0  0
   19.1435   -6.2652  -15.2782 N   0  0  0  0  0  0  0  0  0  0  0  0
   18.8003   -5.2216  -16.1898 C   0  0  1  0  0  0  0  0  0  0  0  0
   17.3406   -5.3330  -16.6514 C   0  0  0  0  0  0  0  0  0  0  0  0
   16.9071   -3.8649  -17.6080 S   0  0  0  0  0  0  0  0  0  0  0  0
   19.0367   -3.8686  -15.6541 C   0  0  0  0  0  0  0  0  0  0  0  0
   19.0449   -3.6923  -14.4182 O   0  0  0  0  0  0  0  0  0  0  0  0
   19.2502   -2.7862  -16.4793 O   0  0  0  0  0  0  0  0  0  0  0  0
  2  9  1  0
  2  1  1  1
  3  2  1  0
  4  5  2  0
  4  3  1  0
  6  5  1  0
  7  8  2  0
  7  6  1  0
  8  4  1  0
  9 10  2  0
 11 12  1  0
 13 12  1  6
 14 13  1  0
 14  9  1  0
 15 17  1  0
 15 13  1  0
 16 15  2  0
 18 17  1  0
 18 19  1  1
 20 19  1  0
 21 18  1  0
 22 21  2  0
 23 21  1  0
M  END
$$$$
