HSC.pdb
     RDKit          3D

 23 23  0  0  1  0  0  0  0  0999 V2000
   19.0993  -13.3680  -16.1716 N   0  0  0  0  0  0  0  0  0  0  0  0
   18.3824  -12.1124  -16.2158 C   0  0  1  0  0  0  0  0  0  0  0  0
   17.6902  -11.9149  -14.8693 C   0  0  0  0  0  0  0  0  0  0  0  0
   16.4876  -12.7929  -14.7989 C   0  0  0  0  0  0  0  0  0  0  0  0
   16.0304  -13.6690  -15.7384 C   0  0  0  0  0  0  0  0  0  0  0  0
   14.9154  -14.2465  -15.2513 N   0  0  0  0  0  0  0  0  0  0  0  0
   14.6522  -13.7643  -14.0340 C   0  0  0  0  0  0  0  0  0  0  0  0
   15.6324  -12.8648  -13.7639 N   0  0  0  0  0  0  0  0  0  0  0  0
   19.3699  -11.0219  -16.4062 C   0  0  0  0  0  0  0  0  0  0  0  0
   20.4830  -11.0952  -15.8628 O   0  0  0  0  0  0  0  0  0  0  0  0
   18.6115   -7.4801  -18.6796 O   0  0  0  0  0  0  0  0  0  0  0  0
   19.8795   -8.0353  -18.6172 C   0  0  0  0  0  0  0  0  0  0  0  0
   20.0813   -8.8755  -17.3903 C   0  0  2  0  0  0  0  0  0  0  0  0
   19.0951   -9.8824  -17.1929 N   0  0  0  0  0  0  0  0  0  0  0  0
   20.0605   -7.9670  -16.2152 C   0  0  0  0  0  0  0  0  0  0  0  0
   19.0464   -7.7840  -15.4942 O   0  0  0  0  0  0  0  0  0  0  0  0
   21.2404   -7.2532  -15.8654 N   0  0  0  0  0  0  0  0  0  0  0  0
   21.2996   -6.3647  -14.7497 C   0  0  1  0  0  0  0  0  0  0  0  0
   22.6808   -6.3901  -14.0808 C   0  0  0  0  0  0  0  0  0  0  0  0
   22.6473   -5.3438  -12.6102 S   0  0  0  0  0  0  0  0  0  0  0  0
   20.9494   -4.9724  -15.0848 C   0  0  0  0  0  0  0  0  0  0  0  0
   21.3475   -4.4833  -16.1622 O   0  0  0  0  0  0  0  0  0  0  0  0
   20.1922   -4.1892  -14.2413 O   0  0  0  0  0  0  0  0  0  0  0  0
  2  9  1  0
  2  1  1  1
  3  2  1  0
  4  5  2  0
  4  3  1  0
  6  5  1  0
  7  8  2  0
  7  6  1  0
  8  4  1  0
  9 10  2  0
 11 12  1  0
 13 12  1  6
 14 13  1  0
 14  9  1  0
 15 17  1  0
 15 13  1  0
 16 15  2  0
 18 17  1  0
 18 19  1  6
 20 19  1  0
 21 18  1  0
 22 21  2  0
 23 21  1  0
M  END
$$$$
