HSC.pdb
     RDKit          3D

 23 23  0  0  1  0  0  0  0  0999 V2000
   24.2935  -12.1038  -19.4657 N   0  0  0  0  0  0  0  0  0  0  0  0
   23.5415  -10.9508  -19.9100 C   0  0  1  0  0  0  0  0  0  0  0  0
   22.0574  -11.3061  -19.8616 C   0  0  0  0  0  0  0  0  0  0  0  0
   21.7514  -12.2954  -20.9339 C   0  0  0  0  0  0  0  0  0  0  0  0
   21.5004  -12.0551  -22.2524 C   0  0  0  0  0  0  0  0  0  0  0  0
   21.2755  -13.2414  -22.8491 N   0  0  0  0  0  0  0  0  0  0  0  0
   21.3760  -14.2247  -21.9509 C   0  0  0  0  0  0  0  0  0  0  0  0
   21.6711  -13.6273  -20.7682 N   0  0  0  0  0  0  0  0  0  0  0  0
   23.7945   -9.8392  -18.9608 C   0  0  0  0  0  0  0  0  0  0  0  0
   23.8496  -10.0682  -17.7425 O   0  0  0  0  0  0  0  0  0  0  0  0
   26.2260   -6.5049  -19.6056 O   0  0  0  0  0  0  0  0  0  0  0  0
   24.9586   -6.2682  -19.0979 C   0  0  0  0  0  0  0  0  0  0  0  0
   24.3525   -7.4881  -18.4682 C   0  0  2  0  0  0  0  0  0  0  0  0
   23.9790   -8.5068  -19.3892 N   0  0  0  0  0  0  0  0  0  0  0  0
   23.1361   -7.0568  -17.7327 C   0  0  0  0  0  0  0  0  0  0  0  0
   21.9946   -6.9855  -18.2558 O   0  0  0  0  0  0  0  0  0  0  0  0
   23.2422   -6.6995  -16.3597 N   0  0  0  0  0  0  0  0  0  0  0  0
   22.1213   -6.2679  -15.5885 C   0  0  1  0  0  0  0  0  0  0  0  0
   22.1013   -6.9289  -14.2033 C   0  0  0  0  0  0  0  0  0  0  0  0
   22.1702   -8.7219  -14.4005 S   0  0  0  0  0  0  0  0  0  0  0  0
   22.0437   -4.8044  -15.4278 C   0  0  0  0  0  0  0  0  0  0  0  0
   22.9991   -4.0955  -15.8061 O   0  0  0  0  0  0  0  0  0  0  0  0
   20.9435   -4.1908  -14.8699 O   0  0  0  0  0  0  0  0  0  0  0  0
  2  9  1  0
  2  1  1  1
  3  2  1  0
  4  5  2  0
  4  3  1  0
  6  5  1  0
  7  8  2  0
  7  6  1  0
  8  4  1  0
  9 10  2  0
 11 12  1  0
 13 12  1  6
 14 13  1  0
 14  9  1  0
 15 17  1  0
 15 13  1  0
 16 15  2  0
 18 17  1  0
 18 19  1  1
 20 19  1  0
 21 18  1  0
 22 21  2  0
 23 21  1  0
M  END
$$$$
