HSC.pdb
     RDKit          3D

 23 23  0  0  1  0  0  0  0  0999 V2000
   17.8424  -12.0235  -16.2544 N   0  0  0  0  0  0  0  0  0  0  0  0
   19.1381  -11.3813  -16.2200 C   0  0  1  0  0  0  0  0  0  0  0  0
   19.9069  -11.7986  -17.4714 C   0  0  0  0  0  0  0  0  0  0  0  0
   20.2051  -13.2575  -17.4040 C   0  0  0  0  0  0  0  0  0  0  0  0
   21.3289  -13.8646  -16.9267 C   0  0  0  0  0  0  0  0  0  0  0  0
   21.1643  -15.1946  -17.0613 N   0  0  0  0  0  0  0  0  0  0  0  0
   19.9727  -15.4489  -17.6083 C   0  0  0  0  0  0  0  0  0  0  0  0
   19.3872  -14.2419  -17.8163 N   0  0  0  0  0  0  0  0  0  0  0  0
   18.9283   -9.9132  -16.2594 C   0  0  0  0  0  0  0  0  0  0  0  0
   18.0932   -9.4297  -17.0395 O   0  0  0  0  0  0  0  0  0  0  0  0
   17.8653   -5.8544  -14.9035 O   0  0  0  0  0  0  0  0  0  0  0  0
   18.0569   -7.2268  -14.8974 C   0  0  0  0  0  0  0  0  0  0  0  0
   19.3889   -7.6255  -15.4622 C   0  0  2  0  0  0  0  0  0  0  0  0
   19.6498   -9.0243  -15.4336 N   0  0  0  0  0  0  0  0  0  0  0  0
   20.4383   -6.9399  -14.6651 C   0  0  0  0  0  0  0  0  0  0  0  0
   20.7574   -7.2780  -13.4965 O   0  0  0  0  0  0  0  0  0  0  0  0
   21.1354   -5.8373  -15.2328 N   0  0  0  0  0  0  0  0  0  0  0  0
   22.1946   -5.1643  -14.5526 C   0  0  1  0  0  0  0  0  0  0  0  0
   23.2559   -4.6466  -15.5332 C   0  0  0  0  0  0  0  0  0  0  0  0
   23.7856   -6.0003  -16.6034 S   0  0  0  0  0  0  0  0  0  0  0  0
   21.7364   -4.0504  -13.7025 C   0  0  0  0  0  0  0  0  0  0  0  0
   20.5942   -3.5775  -13.8763 O   0  0  0  0  0  0  0  0  0  0  0  0
   22.5336   -3.5116  -12.7165 O   0  0  0  0  0  0  0  0  0  0  0  0
  2  9  1  0
  2  1  1  6
  3  2  1  0
  4  5  2  0
  4  3  1  0
  6  5  1  0
  7  8  2  0
  7  6  1  0
  8  4  1  0
  9 10  2  0
 11 12  1  0
 13 12  1  1
 14 13  1  0
 14  9  1  0
 15 17  1  0
 15 13  1  0
 16 15  2  0
 18 17  1  0
 18 19  1  6
 20 19  1  0
 21 18  1  0
 22 21  2  0
 23 21  1  0
M  END
$$$$
