HSC.pdb
     RDKit          3D

 23 23  0  0  1  0  0  0  0  0999 V2000
   18.8186  -13.9743  -17.9356 N   0  0  0  0  0  0  0  0  0  0  0  0
   19.1211  -13.1848  -16.7619 C   0  0  1  0  0  0  0  0  0  0  0  0
   20.3647  -13.7753  -16.1016 C   0  0  0  0  0  0  0  0  0  0  0  0
   20.0465  -15.1331  -15.5752 C   0  0  0  0  0  0  0  0  0  0  0  0
   19.3736  -15.4557  -14.4340 C   0  0  0  0  0  0  0  0  0  0  0  0
   19.3195  -16.7992  -14.3566 N   0  0  0  0  0  0  0  0  0  0  0  0
   19.9364  -17.3373  -15.4119 C   0  0  0  0  0  0  0  0  0  0  0  0
   20.3828  -16.2962  -16.1600 N   0  0  0  0  0  0  0  0  0  0  0  0
   19.4284  -11.8015  -17.2011 C   0  0  0  0  0  0  0  0  0  0  0  0
   20.1230  -11.6147  -18.2122 O   0  0  0  0  0  0  0  0  0  0  0  0
   16.8346   -8.7777  -16.9603 O   0  0  0  0  0  0  0  0  0  0  0  0
   17.9822   -8.7705  -17.7368 C   0  0  0  0  0  0  0  0  0  0  0  0
   19.1653   -9.3560  -17.0229 C   0  0  2  0  0  0  0  0  0  0  0  0
   18.9572  -10.6660  -16.5071 N   0  0  0  0  0  0  0  0  0  0  0  0
   19.4957   -8.4561  -15.8881 C   0  0  0  0  0  0  0  0  0  0  0  0
   18.9670   -8.5468  -14.7505 O   0  0  0  0  0  0  0  0  0  0  0  0
   20.4603   -7.4269  -16.0731 N   0  0  0  0  0  0  0  0  0  0  0  0
   20.8555   -6.5453  -15.0223 C   0  0  1  0  0  0  0  0  0  0  0  0
   22.1743   -5.8317  -15.3504 C   0  0  0  0  0  0  0  0  0  0  0  0
   23.4352   -7.0640  -15.7379 S   0  0  0  0  0  0  0  0  0  0  0  0
   19.8332   -5.5398  -14.6797 C   0  0  0  0  0  0  0  0  0  0  0  0
   20.0113   -4.7979  -13.6916 O   0  0  0  0  0  0  0  0  0  0  0  0
   18.6806   -5.3922  -15.4198 O   0  0  0  0  0  0  0  0  0  0  0  0
  2  9  1  0
  2  1  1  6
  3  2  1  0
  4  5  2  0
  4  3  1  0
  6  5  1  0
  7  8  2  0
  7  6  1  0
  8  4  1  0
  9 10  2  0
 11 12  1  0
 13 12  1  1
 14 13  1  0
 14  9  1  0
 15 17  1  0
 15 13  1  0
 16 15  2  0
 18 17  1  0
 18 19  1  6
 20 19  1  0
 21 18  1  0
 22 21  2  0
 23 21  1  0
M  END
$$$$
