HSC.pdb
     RDKit          3D

 23 23  0  0  1  0  0  0  0  0999 V2000
   22.6914  -12.6538  -17.8521 N   0  0  0  0  0  0  0  0  0  0  0  0
   23.0875  -11.8259  -16.7341 C   0  0  1  0  0  0  0  0  0  0  0  0
   24.5484  -11.4293  -16.9327 C   0  0  0  0  0  0  0  0  0  0  0  0
   25.4121  -12.6349  -16.7826 C   0  0  0  0  0  0  0  0  0  0  0  0
   26.1717  -13.2485  -17.7342 C   0  0  0  0  0  0  0  0  0  0  0  0
   26.7842  -14.2988  -17.1546 N   0  0  0  0  0  0  0  0  0  0  0  0
   26.4367  -14.3697  -15.8670 C   0  0  0  0  0  0  0  0  0  0  0  0
   25.5866  -13.3344  -15.6476 N   0  0  0  0  0  0  0  0  0  0  0  0
   22.2558  -10.5975  -16.7502 C   0  0  0  0  0  0  0  0  0  0  0  0
   22.2495   -9.8694  -17.7549 O   0  0  0  0  0  0  0  0  0  0  0  0
   19.8670   -9.4293  -13.4742 O   0  0  0  0  0  0  0  0  0  0  0  0
   19.5107   -9.0084  -14.7454 C   0  0  0  0  0  0  0  0  0  0  0  0
   20.6646   -9.0303  -15.7047 C   0  0  2  0  0  0  0  0  0  0  0  0
   21.4558  -10.2121  -15.6528 N   0  0  0  0  0  0  0  0  0  0  0  0
   21.5371   -7.8716  -15.3842 C   0  0  0  0  0  0  0  0  0  0  0  0
   22.6260   -7.9705  -14.7627 O   0  0  0  0  0  0  0  0  0  0  0  0
   21.1412   -6.5675  -15.7922 N   0  0  0  0  0  0  0  0  0  0  0  0
   21.9127   -5.4026  -15.4997 C   0  0  1  0  0  0  0  0  0  0  0  0
   21.6053   -4.2615  -16.4791 C   0  0  0  0  0  0  0  0  0  0  0  0
   22.5846   -2.8134  -16.0292 S   0  0  0  0  0  0  0  0  0  0  0  0
   21.7439   -4.9143  -14.1189 C   0  0  0  0  0  0  0  0  0  0  0  0
   20.6017   -4.8831  -13.6160 O   0  0  0  0  0  0  0  0  0  0  0  0
   22.8132   -4.4887  -13.3616 O   0  0  0  0  0  0  0  0  0  0  0  0
  2  9  1  0
  2  1  1  6
  3  2  1  0
  4  5  2  0
  4  3  1  0
  6  5  1  0
  7  8  2  0
  7  6  1  0
  8  4  1  0
  9 10  2  0
 11 12  1  0
 13 12  1  1
 14 13  1  0
 14  9  1  0
 15 17  1  0
 15 13  1  0
 16 15  2  0
 18 17  1  0
 18 19  1  6
 20 19  1  0
 21 18  1  0
 22 21  2  0
 23 21  1  0
M  END
$$$$
