NGG.pdb
     RDKit          3D

 17 16  0  0  1  0  0  0  0  0999 V2000
    1.1342  -19.2288   19.9068 N   0  0  0  0  0  0  0  0  0  0  0  0
    1.0153  -19.4328   21.2967 C   0  0  0  0  0  0  0  0  0  0  0  0
   -0.0450  -19.8418   21.7791 O   0  0  0  0  0  0  0  0  0  0  0  0
    2.1760  -19.1511   22.1730 C   0  0  0  0  0  0  0  0  0  0  0  0
    3.3653  -20.0019   21.7723 C   0  0  2  0  0  0  0  0  0  0  0  0
    3.0583  -21.3731   22.1042 N   0  0  0  0  0  0  0  0  0  0  0  0
    4.5688  -19.5838   22.5213 C   0  0  0  0  0  0  0  0  0  0  0  0
    5.1430  -20.3620   23.3358 O   0  0  0  0  0  0  0  0  0  0  0  0
    5.1094  -18.2674   22.3299 N   0  0  0  0  0  0  0  0  0  0  0  0
    6.4222  -17.9789   22.8416 C   0  0  0  0  0  0  0  0  0  0  0  0
    6.3520  -17.8145   24.3131 C   0  0  0  0  0  0  0  0  0  0  0  0
    5.5583  -16.9764   24.8595 O   0  0  0  0  0  0  0  0  0  0  0  0
    7.1615  -18.5775   25.2063 N   0  0  0  0  0  0  0  0  0  0  0  0
    7.1714  -18.2932   26.6157 C   0  0  0  0  0  0  0  0  0  0  0  0
    8.5693  -18.3662   27.1007 C   0  0  0  0  0  0  0  0  0  0  0  0
    8.8826  -18.2392   28.4596 O   0  0  0  0  0  0  0  0  0  0  0  0
    9.5258  -18.5434   26.3247 O   0  0  0  0  0  0  0  0  0  0  0  0
  1  2  1  0
  2  3  2  0
  4  2  1  0
  5  4  1  0
  5  6  1  1
  7  8  2  0
  7  5  1  0
  9  7  1  0
 10 11  1  0
 10  9  1  0
 11 13  1  0
 12 11  2  0
 13 14  1  0
 14 15  1  0
 15 16  1  0
 17 15  2  0
M  END
$$$$
