NGG.pdb
     RDKit          3D

 17 16  0  0  1  0  0  0  0  0999 V2000
    6.6813  -12.5219   18.9706 N   0  0  0  0  0  0  0  0  0  0  0  0
    7.6285  -13.3460   18.3293 C   0  0  0  0  0  0  0  0  0  0  0  0
    7.3052  -14.0223   17.3483 O   0  0  0  0  0  0  0  0  0  0  0  0
    9.0166  -13.3924   18.8448 C   0  0  0  0  0  0  0  0  0  0  0  0
    9.6030  -14.7799   18.6732 C   0  0  2  0  0  0  0  0  0  0  0  0
    8.8918  -15.6717   19.5583 N   0  0  0  0  0  0  0  0  0  0  0  0
   11.0346  -14.7791   19.0400 C   0  0  0  0  0  0  0  0  0  0  0  0
   11.9197  -14.3520   18.2445 O   0  0  0  0  0  0  0  0  0  0  0  0
   11.4443  -15.2712   20.3252 N   0  0  0  0  0  0  0  0  0  0  0  0
   12.8160  -15.1037   20.7236 C   0  0  0  0  0  0  0  0  0  0  0  0
   12.9779  -15.5451   22.1294 C   0  0  0  0  0  0  0  0  0  0  0  0
   14.1206  -15.5725   22.6989 O   0  0  0  0  0  0  0  0  0  0  0  0
   11.8741  -15.9646   22.9301 N   0  0  0  0  0  0  0  0  0  0  0  0
   12.0658  -16.3582   24.2996 C   0  0  0  0  0  0  0  0  0  0  0  0
   12.1938  -17.8331   24.3520 C   0  0  0  0  0  0  0  0  0  0  0  0
   11.7739  -18.5675   25.4679 O   0  0  0  0  0  0  0  0  0  0  0  0
   12.6787  -18.4847   23.4091 O   0  0  0  0  0  0  0  0  0  0  0  0
  1  2  1  0
  2  3  2  0
  4  2  1  0
  5  4  1  0
  5  6  1  1
  7  8  2  0
  7  5  1  0
  9  7  1  0
 10 11  1  0
 10  9  1  0
 11 13  1  0
 12 11  2  0
 13 14  1  0
 14 15  1  0
 15 16  1  0
 17 15  2  0
M  END
$$$$
