NGG.pdb
     RDKit          3D

 17 16  0  0  1  0  0  0  0  0999 V2000
    8.5124  -26.9235   31.2458 N   0  0  0  0  0  0  0  0  0  0  0  0
    7.7158  -25.9665   30.5846 C   0  0  0  0  0  0  0  0  0  0  0  0
    6.6445  -26.2961   30.0671 O   0  0  0  0  0  0  0  0  0  0  0  0
    8.1776  -24.5605   30.5170 C   0  0  0  0  0  0  0  0  0  0  0  0
    9.5124  -24.4035   31.2186 C   0  0  2  0  0  0  0  0  0  0  0  0
    9.2682  -23.7752   32.4954 N   0  0  0  0  0  0  0  0  0  0  0  0
   10.4105  -23.5412   30.4223 C   0  0  0  0  0  0  0  0  0  0  0  0
   11.0004  -23.9756   29.3919 O   0  0  0  0  0  0  0  0  0  0  0  0
   10.6273  -22.1773   30.8156 N   0  0  0  0  0  0  0  0  0  0  0  0
   11.5124  -21.3634   30.0266 C   0  0  0  0  0  0  0  0  0  0  0  0
   12.6638  -20.9393   30.8582 C   0  0  0  0  0  0  0  0  0  0  0  0
   13.4835  -20.0422   30.4654 O   0  0  0  0  0  0  0  0  0  0  0  0
   12.9274  -21.5028   32.1420 N   0  0  0  0  0  0  0  0  0  0  0  0
   14.0472  -21.0568   32.9258 C   0  0  0  0  0  0  0  0  0  0  0  0
   15.2457  -21.8234   32.5131 C   0  0  0  0  0  0  0  0  0  0  0  0
   16.4611  -21.7121   33.1997 O   0  0  0  0  0  0  0  0  0  0  0  0
   15.2269  -22.5992   31.5402 O   0  0  0  0  0  0  0  0  0  0  0  0
  1  2  1  0
  2  3  2  0
  4  2  1  0
  5  4  1  0
  5  6  1  1
  7  8  2  0
  7  5  1  0
  9  7  1  0
 10 11  1  0
 10  9  1  0
 11 13  1  0
 12 11  2  0
 13 14  1  0
 14 15  1  0
 15 16  1  0
 17 15  2  0
M  END
$$$$
