NGG.pdb
     RDKit          3D

 17 16  0  0  1  0  0  0  0  0999 V2000
    6.6299  -12.6105   17.6551 N   0  0  0  0  0  0  0  0  0  0  0  0
    7.4765  -13.6041   18.1878 C   0  0  0  0  0  0  0  0  0  0  0  0
    8.0653  -14.3895   17.4391 O   0  0  0  0  0  0  0  0  0  0  0  0
    7.6524  -13.6962   19.6558 C   0  0  0  0  0  0  0  0  0  0  0  0
    7.8530  -15.1381   20.0792 C   0  0  2  0  0  0  0  0  0  0  0  0
    6.6121  -15.8408   19.8530 N   0  0  0  0  0  0  0  0  0  0  0  0
    8.1894  -15.2070   21.5167 C   0  0  0  0  0  0  0  0  0  0  0  0
    7.3168  -15.0057   22.4093 O   0  0  0  0  0  0  0  0  0  0  0  0
    9.5330  -15.5085   21.9236 N   0  0  0  0  0  0  0  0  0  0  0  0
    9.8363  -15.5494   23.3288 C   0  0  0  0  0  0  0  0  0  0  0  0
   11.2401  -15.9866   23.5171 C   0  0  0  0  0  0  0  0  0  0  0  0
   12.0875  -15.9586   22.5622 O   0  0  0  0  0  0  0  0  0  0  0  0
   11.7300  -16.4634   24.7693 N   0  0  0  0  0  0  0  0  0  0  0  0
   13.1151  -16.3113   25.1237 C   0  0  0  0  0  0  0  0  0  0  0  0
   13.7819  -17.6276   24.9923 C   0  0  0  0  0  0  0  0  0  0  0  0
   14.3596  -18.2714   26.0935 O   0  0  0  0  0  0  0  0  0  0  0  0
   13.8585  -18.2193   23.9002 O   0  0  0  0  0  0  0  0  0  0  0  0
  1  2  1  0
  2  3  2  0
  4  2  1  0
  5  4  1  0
  5  6  1  1
  7  8  2  0
  7  5  1  0
  9  7  1  0
 10 11  1  0
 10  9  1  0
 11 13  1  0
 12 11  2  0
 13 14  1  0
 14 15  1  0
 15 16  1  0
 17 15  2  0
M  END
$$$$
