NGG.pdb
     RDKit          3D

 17 16  0  0  1  0  0  0  0  0999 V2000
    6.8030  -22.4844   24.3272 N   0  0  0  0  0  0  0  0  0  0  0  0
    5.6954  -21.8187   23.7635 C   0  0  0  0  0  0  0  0  0  0  0  0
    4.5965  -22.3778   23.7011 O   0  0  0  0  0  0  0  0  0  0  0  0
    5.8637  -20.4407   23.2463 C   0  0  0  0  0  0  0  0  0  0  0  0
    7.3002  -19.9830   23.4063 C   0  0  2  0  0  0  0  0  0  0  0  0
    7.3839  -19.2103   24.6230 N   0  0  0  0  0  0  0  0  0  0  0  0
    7.6949  -19.1292   22.2664 C   0  0  0  0  0  0  0  0  0  0  0  0
    7.9961  -19.6254   21.1431 O   0  0  0  0  0  0  0  0  0  0  0  0
    7.7417  -17.7027   22.4232 N   0  0  0  0  0  0  0  0  0  0  0  0
    8.1606  -16.8986   21.3068 C   0  0  0  0  0  0  0  0  0  0  0  0
    9.3531  -16.1062   21.6908 C   0  0  0  0  0  0  0  0  0  0  0  0
    9.8508  -15.2210   20.9164 O   0  0  0  0  0  0  0  0  0  0  0  0
   10.0160  -16.2812   22.9419 N   0  0  0  0  0  0  0  0  0  0  0  0
   11.2306  -15.5708   23.2370 C   0  0  0  0  0  0  0  0  0  0  0  0
   12.1273  -16.4688   24.0012 C   0  0  0  0  0  0  0  0  0  0  0  0
   13.4462  -16.7081   23.5960 O   0  0  0  0  0  0  0  0  0  0  0  0
   11.7503  -17.0495   25.0352 O   0  0  0  0  0  0  0  0  0  0  0  0
  1  2  1  0
  2  3  2  0
  4  2  1  0
  5  4  1  0
  5  6  1  1
  7  8  2  0
  7  5  1  0
  9  7  1  0
 10 11  1  0
 10  9  1  0
 11 13  1  0
 12 11  2  0
 13 14  1  0
 14 15  1  0
 15 16  1  0
 17 15  2  0
M  END
$$$$
