NGG.pdb
     RDKit          3D

 17 16  0  0  1  0  0  0  0  0999 V2000
    5.8033  -11.5758   26.6588 N   0  0  0  0  0  0  0  0  0  0  0  0
    6.9094  -12.4482   26.7144 C   0  0  0  0  0  0  0  0  0  0  0  0
    7.4830  -12.6614   27.7866 O   0  0  0  0  0  0  0  0  0  0  0  0
    7.3768  -13.1068   25.4725 C   0  0  0  0  0  0  0  0  0  0  0  0
    6.6436  -14.4158   25.2548 C   0  0  2  0  0  0  0  0  0  0  0  0
    6.9495  -15.2829   26.3679 N   0  0  0  0  0  0  0  0  0  0  0  0
    7.1026  -15.0575   24.0052 C   0  0  0  0  0  0  0  0  0  0  0  0
    7.8281  -16.0929   24.0226 O   0  0  0  0  0  0  0  0  0  0  0  0
    6.7239  -14.5041   22.7355 N   0  0  0  0  0  0  0  0  0  0  0  0
    7.1371  -15.1815   21.5360 C   0  0  0  0  0  0  0  0  0  0  0  0
    8.6172  -15.1804   21.4547 C   0  0  0  0  0  0  0  0  0  0  0  0
    9.3176  -14.2337   21.9488 O   0  0  0  0  0  0  0  0  0  0  0  0
    9.3482  -16.2303   20.8234 N   0  0  0  0  0  0  0  0  0  0  0  0
   10.7860  -16.2337   20.8308 C   0  0  0  0  0  0  0  0  0  0  0  0
   11.2577  -17.4161   20.0731 C   0  0  0  0  0  0  0  0  0  0  0  0
   12.2802  -17.3183   19.1213 O   0  0  0  0  0  0  0  0  0  0  0  0
   10.7683  -18.5468   20.2479 O   0  0  0  0  0  0  0  0  0  0  0  0
  1  2  1  0
  2  3  2  0
  4  2  1  0
  5  4  1  0
  5  6  1  1
  7  8  2  0
  7  5  1  0
  9  7  1  0
 10 11  1  0
 10  9  1  0
 11 13  1  0
 12 11  2  0
 13 14  1  0
 14 15  1  0
 15 16  1  0
 17 15  2  0
M  END
$$$$
