NGG.pdb
     RDKit          3D

 17 16  0  0  1  0  0  0  0  0999 V2000
   -1.3752  -25.8025   26.6803 N   0  0  0  0  0  0  0  0  0  0  0  0
   -2.3880  -25.4915   25.7500 C   0  0  0  0  0  0  0  0  0  0  0  0
   -2.3035  -25.8813   24.5817 O   0  0  0  0  0  0  0  0  0  0  0  0
   -3.5551  -24.6917   26.1889 C   0  0  0  0  0  0  0  0  0  0  0  0
   -3.4574  -24.3734   27.6680 C   0  0  2  0  0  0  0  0  0  0  0  0
   -3.9337  -25.5238   28.3990 N   0  0  0  0  0  0  0  0  0  0  0  0
   -4.3059  -23.2092   27.9979 C   0  0  0  0  0  0  0  0  0  0  0  0
   -3.9682  -22.0339   27.6763 O   0  0  0  0  0  0  0  0  0  0  0  0
   -5.5442  -23.4018   28.6986 N   0  0  0  0  0  0  0  0  0  0  0  0
   -6.3281  -22.2470   29.0458 C   0  0  0  0  0  0  0  0  0  0  0  0
   -7.5815  -22.6831   29.7063 C   0  0  0  0  0  0  0  0  0  0  0  0
   -8.4305  -21.8438   30.1597 O   0  0  0  0  0  0  0  0  0  0  0  0
   -7.9163  -24.0594   29.8762 N   0  0  0  0  0  0  0  0  0  0  0  0
   -9.1527  -24.4444   30.5011 C   0  0  0  0  0  0  0  0  0  0  0  0
   -8.9020  -24.6644   31.9445 C   0  0  0  0  0  0  0  0  0  0  0  0
   -7.6901  -24.2990   32.5434 O   0  0  0  0  0  0  0  0  0  0  0  0
   -9.7549  -25.1822   32.6882 O   0  0  0  0  0  0  0  0  0  0  0  0
  1  2  1  0
  2  3  2  0
  4  2  1  0
  5  4  1  0
  5  6  1  1
  7  8  2  0
  7  5  1  0
  9  7  1  0
 10 11  1  0
 10  9  1  0
 11 13  1  0
 12 11  2  0
 13 14  1  0
 14 15  1  0
 15 16  1  0
 17 15  2  0
M  END
$$$$
