NGG.pdb
     RDKit          3D

 17 16  0  0  1  0  0  0  0  0999 V2000
    3.3330  -20.6027   21.2308 N   0  0  0  0  0  0  0  0  0  0  0  0
    2.6967  -19.3503   21.1114 C   0  0  0  0  0  0  0  0  0  0  0  0
    1.5399  -19.2758   20.6866 O   0  0  0  0  0  0  0  0  0  0  0  0
    3.4307  -18.1239   21.5010 C   0  0  0  0  0  0  0  0  0  0  0  0
    4.8350  -18.4658   21.9588 C   0  0  2  0  0  0  0  0  0  0  0  0
    4.7253  -19.3099   23.1250 N   0  0  0  0  0  0  0  0  0  0  0  0
    5.5681  -17.2354   22.3231 C   0  0  0  0  0  0  0  0  0  0  0  0
    5.9606  -16.4160   21.4438 O   0  0  0  0  0  0  0  0  0  0  0  0
    5.8477  -16.9508   23.7024 N   0  0  0  0  0  0  0  0  0  0  0  0
    6.5242  -15.7249   24.0312 C   0  0  0  0  0  0  0  0  0  0  0  0
    7.9486  -16.0119   24.3245 C   0  0  0  0  0  0  0  0  0  0  0  0
    8.3032  -16.6703   25.3598 O   0  0  0  0  0  0  0  0  0  0  0  0
    9.0068  -15.5736   23.4740 N   0  0  0  0  0  0  0  0  0  0  0  0
   10.3746  -15.6258   23.9143 C   0  0  0  0  0  0  0  0  0  0  0  0
   11.0897  -16.6433   23.1092 C   0  0  0  0  0  0  0  0  0  0  0  0
   12.4599  -16.8803   23.2745 O   0  0  0  0  0  0  0  0  0  0  0  0
   10.5067  -17.3318   22.2521 O   0  0  0  0  0  0  0  0  0  0  0  0
  1  2  1  0
  2  3  2  0
  4  2  1  0
  5  4  1  0
  5  6  1  1
  7  8  2  0
  7  5  1  0
  9  7  1  0
 10 11  1  0
 10  9  1  0
 11 13  1  0
 12 11  2  0
 13 14  1  0
 14 15  1  0
 15 16  1  0
 17 15  2  0
M  END
$$$$
