VWQ.pdb
     RDKit          3D

 31 32  0  0  1  0  0  0  0  0999 V2000
   25.4193  -19.4695   -9.6744 C   0  0  0  0  0  0  0  0  0  0  0  0
   26.0747  -20.4104  -10.6599 C   0  0  1  0  0  0  0  0  0  0  0  0
   27.1563  -21.1683   -9.9350 C   0  0  0  0  0  0  0  0  0  0  0  0
   25.0096  -21.3254  -11.2139 C   0  0  2  0  0  0  0  0  0  0  0  0
   25.6633  -22.3965  -11.9464 N   0  0  0  0  0  0  0  0  0  0  0  0
   24.0415  -20.5927  -12.0691 C   0  0  0  0  0  0  0  0  0  0  0  0
   23.3359  -19.6955  -11.5872 O   0  0  0  0  0  0  0  0  0  0  0  0
   23.9270  -20.9185  -13.4259 N   0  0  0  0  0  0  0  0  0  0  0  0
   23.0446  -20.2545  -14.3585 C   0  0  1  0  0  0  0  0  0  0  0  0
   23.0352  -20.8985  -15.7180 C   0  0  0  0  0  0  0  0  0  0  0  0
   22.2860  -20.1348  -16.7320 C   0  0  0  0  0  0  0  0  0  0  0  0
   22.2572  -18.7444  -16.7674 C   0  0  0  0  0  0  0  0  0  0  0  0
   21.4808  -18.4308  -17.8185 N   0  0  0  0  0  0  0  0  0  0  0  0
   21.0360  -19.5446  -18.4244 C   0  0  0  0  0  0  0  0  0  0  0  0
   20.2204  -19.6910  -19.5313 C   0  0  0  0  0  0  0  0  0  0  0  0
   19.9285  -20.9849  -19.9318 C   0  0  0  0  0  0  0  0  0  0  0  0
   20.4274  -22.0870  -19.2587 C   0  0  0  0  0  0  0  0  0  0  0  0
   21.2346  -21.9322  -18.1631 C   0  0  0  0  0  0  0  0  0  0  0  0
   21.5292  -20.6470  -17.7590 C   0  0  0  0  0  0  0  0  0  0  0  0
   21.6661  -20.3884  -13.8214 C   0  0  0  0  0  0  0  0  0  0  0  0
   21.3337  -21.4306  -13.2420 O   0  0  0  0  0  0  0  0  0  0  0  0
   15.1687  -17.0665  -13.2392 N   0  0  0  0  0  0  0  0  0  0  0  0
   16.5682  -16.9644  -13.0848 C   0  0  0  0  0  0  0  0  0  0  0  0
   17.1704  -15.9201  -13.3527 O   0  0  0  0  0  0  0  0  0  0  0  0
   17.3802  -18.1326  -12.5850 C   0  0  0  0  0  0  0  0  0  0  0  0
   18.7464  -18.1079  -13.1979 C   0  0  0  0  0  0  0  0  0  0  0  0
   19.3664  -19.4531  -13.3342 C   0  0  2  0  0  0  0  0  0  0  0  0
   20.6942  -19.3641  -13.9413 N   0  0  0  0  0  0  0  0  0  0  0  0
   18.5293  -20.3273  -14.1837 C   0  0  0  0  0  0  0  0  0  0  0  0
   18.6117  -20.2407  -15.4619 O   0  0  0  0  0  0  0  0  0  0  0  0
   17.6297  -21.2710  -13.7353 O   0  0  0  0  0  0  0  0  0  0  0  0
  2  1  1  1
  2  3  1  0
  4  2  1  0
  4  5  1  6
  6  7  2  0
  6  4  1  0
  8  6  1  0
  9  8  1  0
  9 10  1  6
 11 19  1  0
 11 10  1  0
 12 11  2  0
 13 12  1  0
 13 14  1  0
 14 15  1  0
 14 19  2  0
 15 16  2  0
 16 17  1  0
 18 17  2  0
 19 18  1  0
 20  9  1  0
 21 20  2  0
 23 22  1  0
 24 23  2  0
 25 23  1  0
 26 25  1  0
 27 26  1  6
 27 28  1  0
 28 20  1  0
 29 27  1  0
 30 29  2  0
 31 29  1  0
M  END
$$$$
