VWQ.pdb
     RDKit          3D

 31 32  0  0  1  0  0  0  0  0999 V2000
   27.1400  -18.3574  -14.1599 C   0  0  0  0  0  0  0  0  0  0  0  0
   27.2917  -19.5285  -15.1043 C   0  0  1  0  0  0  0  0  0  0  0  0
   28.0841  -19.0663  -16.2994 C   0  0  0  0  0  0  0  0  0  0  0  0
   27.9814  -20.6454  -14.3592 C   0  0  2  0  0  0  0  0  0  0  0  0
   28.1484  -21.7663  -15.2684 N   0  0  0  0  0  0  0  0  0  0  0  0
   27.2327  -21.0409  -13.1391 C   0  0  0  0  0  0  0  0  0  0  0  0
   26.1844  -21.6946  -13.2333 O   0  0  0  0  0  0  0  0  0  0  0  0
   27.7151  -20.6726  -11.8774 N   0  0  0  0  0  0  0  0  0  0  0  0
   27.0174  -20.9015  -10.6323 C   0  0  1  0  0  0  0  0  0  0  0  0
   27.7961  -20.4419   -9.4300 C   0  0  0  0  0  0  0  0  0  0  0  0
   27.0294  -20.4895   -8.1719 C   0  0  0  0  0  0  0  0  0  0  0  0
   25.7226  -20.9604   -8.0965 C   0  0  0  0  0  0  0  0  0  0  0  0
   25.3764  -20.8447   -6.8031 N   0  0  0  0  0  0  0  0  0  0  0  0
   26.3921  -20.3328   -6.0876 C   0  0  0  0  0  0  0  0  0  0  0  0
   26.4752  -20.0480   -4.7371 C   0  0  0  0  0  0  0  0  0  0  0  0
   27.6703  -19.5185   -4.2776 C   0  0  0  0  0  0  0  0  0  0  0  0
   28.7380  -19.2825   -5.1268 C   0  0  0  0  0  0  0  0  0  0  0  0
   28.6464  -19.5678   -6.4632 C   0  0  0  0  0  0  0  0  0  0  0  0
   27.4596  -20.0950   -6.9273 C   0  0  0  0  0  0  0  0  0  0  0  0
   25.7809  -20.0793  -10.6708 C   0  0  0  0  0  0  0  0  0  0  0  0
   25.8675  -18.8447  -10.6927 O   0  0  0  0  0  0  0  0  0  0  0  0
   22.8426  -20.2368  -15.9852 N   0  0  0  0  0  0  0  0  0  0  0  0
   23.0762  -19.5332  -14.7838 C   0  0  0  0  0  0  0  0  0  0  0  0
   23.3365  -18.3261  -14.7855 O   0  0  0  0  0  0  0  0  0  0  0  0
   23.0153  -20.2347  -13.4503 C   0  0  0  0  0  0  0  0  0  0  0  0
   23.3568  -19.2774  -12.3506 C   0  0  0  0  0  0  0  0  0  0  0  0
   23.2795  -19.8748  -10.9906 C   0  0  2  0  0  0  0  0  0  0  0  0
   24.4828  -20.6477  -10.6836 N   0  0  0  0  0  0  0  0  0  0  0  0
   22.1130  -20.7775  -10.8851 C   0  0  0  0  0  0  0  0  0  0  0  0
   22.2847  -22.0484  -10.9410 O   0  0  0  0  0  0  0  0  0  0  0  0
   20.8002  -20.3883  -10.7235 O   0  0  0  0  0  0  0  0  0  0  0  0
  2  1  1  1
  2  3  1  0
  4  2  1  0
  4  5  1  6
  6  7  2  0
  6  4  1  0
  8  6  1  0
  9  8  1  0
  9 10  1  1
 11 19  1  0
 11 10  1  0
 12 11  2  0
 13 12  1  0
 13 14  1  0
 14 15  1  0
 14 19  2  0
 15 16  2  0
 16 17  1  0
 18 17  2  0
 19 18  1  0
 20  9  1  0
 21 20  2  0
 23 22  1  0
 24 23  2  0
 25 23  1  0
 26 25  1  0
 27 26  1  6
 27 28  1  0
 28 20  1  0
 29 27  1  0
 30 29  2  0
 31 29  1  0
M  END
$$$$
