VWQ.pdb
     RDKit          3D

 31 32  0  0  1  0  0  0  0  0999 V2000
   28.2246  -19.3115  -15.9613 C   0  0  0  0  0  0  0  0  0  0  0  0
   27.2806  -19.6189  -14.8209 C   0  0  1  0  0  0  0  0  0  0  0  0
   25.8714  -19.5569  -15.3502 C   0  0  0  0  0  0  0  0  0  0  0  0
   27.6277  -20.9848  -14.2802 C   0  0  2  0  0  0  0  0  0  0  0  0
   27.3016  -21.9737  -15.2935 N   0  0  0  0  0  0  0  0  0  0  0  0
   26.9295  -21.2663  -13.0000 C   0  0  0  0  0  0  0  0  0  0  0  0
   25.8736  -21.9147  -12.9932 O   0  0  0  0  0  0  0  0  0  0  0  0
   27.4682  -20.7964  -11.7962 N   0  0  0  0  0  0  0  0  0  0  0  0
   26.8708  -20.9966  -10.4953 C   0  0  1  0  0  0  0  0  0  0  0  0
   27.8193  -20.7097   -9.3634 C   0  0  0  0  0  0  0  0  0  0  0  0
   27.1795  -20.7184   -8.0355 C   0  0  0  0  0  0  0  0  0  0  0  0
   25.9215  -21.2646   -7.8023 C   0  0  0  0  0  0  0  0  0  0  0  0
   25.6912  -21.0815   -6.4910 N   0  0  0  0  0  0  0  0  0  0  0  0
   26.7315  -20.4580   -5.9126 C   0  0  0  0  0  0  0  0  0  0  0  0
   26.9211  -20.0754   -4.5975 C   0  0  0  0  0  0  0  0  0  0  0  0
   28.1144  -19.4409   -4.2921 C   0  0  0  0  0  0  0  0  0  0  0  0
   29.0786  -19.1974   -5.2553 C   0  0  0  0  0  0  0  0  0  0  0  0
   28.8818  -19.5799   -6.5556 C   0  0  0  0  0  0  0  0  0  0  0  0
   27.6963  -20.2120   -6.8665 C   0  0  0  0  0  0  0  0  0  0  0  0
   25.7618  -20.0162  -10.3720 C   0  0  0  0  0  0  0  0  0  0  0  0
   25.9992  -18.8065  -10.4847 O   0  0  0  0  0  0  0  0  0  0  0  0
   22.4492  -22.0667  -14.1381 N   0  0  0  0  0  0  0  0  0  0  0  0
   21.8970  -20.7682  -14.1810 C   0  0  0  0  0  0  0  0  0  0  0  0
   21.0251  -20.4668  -15.0019 O   0  0  0  0  0  0  0  0  0  0  0  0
   22.3549  -19.6990  -13.2212 C   0  0  0  0  0  0  0  0  0  0  0  0
   23.4582  -20.2246  -12.3556 C   0  0  0  0  0  0  0  0  0  0  0  0
   23.2929  -19.9028  -10.9129 C   0  0  2  0  0  0  0  0  0  0  0  0
   24.4207  -20.4030  -10.1271 N   0  0  0  0  0  0  0  0  0  0  0  0
   22.0551  -20.5142  -10.3827 C   0  0  0  0  0  0  0  0  0  0  0  0
   22.0780  -21.7213   -9.9464 O   0  0  0  0  0  0  0  0  0  0  0  0
   20.8221  -19.9031  -10.2986 O   0  0  0  0  0  0  0  0  0  0  0  0
  2  1  1  6
  2  3  1  0
  4  2  1  0
  4  5  1  6
  6  7  2  0
  6  4  1  0
  8  6  1  0
  9  8  1  0
  9 10  1  1
 11 19  1  0
 11 10  1  0
 12 11  2  0
 13 12  1  0
 13 14  1  0
 14 15  1  0
 14 19  2  0
 15 16  2  0
 16 17  1  0
 18 17  2  0
 19 18  1  0
 20  9  1  0
 21 20  2  0
 23 22  1  0
 24 23  2  0
 25 23  1  0
 26 25  1  0
 27 26  1  6
 27 28  1  0
 28 20  1  0
 29 27  1  0
 30 29  2  0
 31 29  1  0
M  END
$$$$
