VWQ.pdb
     RDKit          3D

 31 32  0  0  1  0  0  0  0  0999 V2000
   28.7953  -17.9930  -15.4499 C   0  0  0  0  0  0  0  0  0  0  0  0
   27.6561  -18.8047  -14.8759 C   0  0  1  0  0  0  0  0  0  0  0  0
   26.7636  -19.2283  -16.0134 C   0  0  0  0  0  0  0  0  0  0  0  0
   28.2447  -19.9851  -14.1420 C   0  0  2  0  0  0  0  0  0  0  0  0
   28.8926  -20.8501  -15.1131 N   0  0  0  0  0  0  0  0  0  0  0  0
   27.2168  -20.7184  -13.3601 C   0  0  0  0  0  0  0  0  0  0  0  0
   26.6403  -21.6994  -13.8504 O   0  0  0  0  0  0  0  0  0  0  0  0
   26.8989  -20.2979  -12.0630 N   0  0  0  0  0  0  0  0  0  0  0  0
   25.9685  -20.9718  -11.1859 C   0  0  1  0  0  0  0  0  0  0  0  0
   26.0325  -20.4737   -9.7678 C   0  0  0  0  0  0  0  0  0  0  0  0
   27.2828  -20.8251   -9.0706 C   0  0  0  0  0  0  0  0  0  0  0  0
   28.2511  -21.6581   -9.6216 C   0  0  0  0  0  0  0  0  0  0  0  0
   29.2229  -21.7352   -8.6965 N   0  0  0  0  0  0  0  0  0  0  0  0
   28.9052  -21.0004   -7.6173 C   0  0  0  0  0  0  0  0  0  0  0  0
   29.6055  -20.7941   -6.4430 C   0  0  0  0  0  0  0  0  0  0  0  0
   29.0173  -19.9723   -5.4952 C   0  0  0  0  0  0  0  0  0  0  0  0
   27.7838  -19.3805   -5.7074 C   0  0  0  0  0  0  0  0  0  0  0  0
   27.0975  -19.5907   -6.8738 C   0  0  0  0  0  0  0  0  0  0  0  0
   27.6771  -20.4077   -7.8215 C   0  0  0  0  0  0  0  0  0  0  0  0
   24.6029  -20.6584  -11.6793 C   0  0  0  0  0  0  0  0  0  0  0  0
   24.2838  -19.4812  -11.8903 O   0  0  0  0  0  0  0  0  0  0  0  0
   19.8614  -22.1026  -15.5446 N   0  0  0  0  0  0  0  0  0  0  0  0
   19.7019  -22.9854  -14.4546 C   0  0  0  0  0  0  0  0  0  0  0  0
   19.1034  -24.0585  -14.5783 O   0  0  0  0  0  0  0  0  0  0  0  0
   20.2597  -22.6472  -13.0951 C   0  0  0  0  0  0  0  0  0  0  0  0
   21.7561  -22.6205  -13.1463 C   0  0  0  0  0  0  0  0  0  0  0  0
   22.3528  -21.3795  -12.5839 C   0  0  2  0  0  0  0  0  0  0  0  0
   23.6288  -21.6579  -11.9252 N   0  0  0  0  0  0  0  0  0  0  0  0
   21.4441  -20.7708  -11.5887 C   0  0  0  0  0  0  0  0  0  0  0  0
   21.6563  -20.9557  -10.3362 O   0  0  0  0  0  0  0  0  0  0  0  0
   20.3441  -19.9881  -11.8689 O   0  0  0  0  0  0  0  0  0  0  0  0
  2  1  1  6
  2  3  1  0
  4  2  1  0
  4  5  1  6
  6  7  2  0
  6  4  1  0
  8  6  1  0
  9  8  1  0
  9 10  1  1
 11 19  1  0
 11 10  1  0
 12 11  2  0
 13 12  1  0
 13 14  1  0
 14 15  1  0
 14 19  2  0
 15 16  2  0
 16 17  1  0
 18 17  2  0
 19 18  1  0
 20  9  1  0
 21 20  2  0
 23 22  1  0
 24 23  2  0
 25 23  1  0
 26 25  1  0
 27 26  1  1
 27 28  1  0
 28 20  1  0
 29 27  1  0
 30 29  2  0
 31 29  1  0
M  END
$$$$
