VWQ.pdb
     RDKit          3D

 31 32  0  0  1  0  0  0  0  0999 V2000
   28.0829  -22.2298  -15.6248 C   0  0  0  0  0  0  0  0  0  0  0  0
   28.4497  -20.9485  -14.9107 C   0  0  1  0  0  0  0  0  0  0  0  0
   29.4446  -20.2055  -15.7638 C   0  0  0  0  0  0  0  0  0  0  0  0
   27.1840  -20.1565  -14.6889 C   0  0  2  0  0  0  0  0  0  0  0  0
   27.5496  -18.8385  -14.1988 N   0  0  0  0  0  0  0  0  0  0  0  0
   26.2566  -20.8462  -13.7563 C   0  0  0  0  0  0  0  0  0  0  0  0
   25.6840  -21.8894  -14.1015 O   0  0  0  0  0  0  0  0  0  0  0  0
   26.0294  -20.3140  -12.4813 N   0  0  0  0  0  0  0  0  0  0  0  0
   25.0753  -20.8381  -11.5305 C   0  0  1  0  0  0  0  0  0  0  0  0
   25.3199  -20.3556  -10.1267 C   0  0  0  0  0  0  0  0  0  0  0  0
   26.6910  -20.6013   -9.6445 C   0  0  0  0  0  0  0  0  0  0  0  0
   27.6064  -21.3935  -10.3300 C   0  0  0  0  0  0  0  0  0  0  0  0
   28.7237  -21.3739   -9.5834 N   0  0  0  0  0  0  0  0  0  0  0  0
   28.5441  -20.6187   -8.4866 C   0  0  0  0  0  0  0  0  0  0  0  0
   29.4173  -20.3236   -7.4559 C   0  0  0  0  0  0  0  0  0  0  0  0
   28.9436  -19.5034   -6.4447 C   0  0  0  0  0  0  0  0  0  0  0  0
   27.6548  -18.9980   -6.4587 C   0  0  0  0  0  0  0  0  0  0  0  0
   26.7969  -19.2959   -7.4839 C   0  0  0  0  0  0  0  0  0  0  0  0
   27.2618  -20.1117   -8.4937 C   0  0  0  0  0  0  0  0  0  0  0  0
   23.7404  -20.3200  -11.9255 C   0  0  0  0  0  0  0  0  0  0  0  0
   23.6445  -19.1884  -12.4181 O   0  0  0  0  0  0  0  0  0  0  0  0
   22.6826  -20.7998  -16.1912 N   0  0  0  0  0  0  0  0  0  0  0  0
   21.8372  -21.8639  -15.8092 C   0  0  0  0  0  0  0  0  0  0  0  0
   21.7258  -22.8783  -16.5045 O   0  0  0  0  0  0  0  0  0  0  0  0
   21.0371  -21.7984  -14.5327 C   0  0  0  0  0  0  0  0  0  0  0  0
   21.3375  -20.5253  -13.8034 C   0  0  0  0  0  0  0  0  0  0  0  0
   21.2638  -20.6511  -12.3231 C   0  0  2  0  0  0  0  0  0  0  0  0
   22.5487  -21.0698  -11.7636 N   0  0  0  0  0  0  0  0  0  0  0  0
   20.2454  -21.6513  -11.9367 C   0  0  0  0  0  0  0  0  0  0  0  0
   19.0095  -21.4401  -12.2122 O   0  0  0  0  0  0  0  0  0  0  0  0
   20.4867  -22.8421  -11.2851 O   0  0  0  0  0  0  0  0  0  0  0  0
  2  1  1  6
  2  3  1  0
  4  2  1  0
  4  5  1  1
  6  7  2  0
  6  4  1  0
  8  6  1  0
  9  8  1  0
  9 10  1  1
 11 19  1  0
 11 10  1  0
 12 11  2  0
 13 12  1  0
 13 14  1  0
 14 15  1  0
 14 19  2  0
 15 16  2  0
 16 17  1  0
 18 17  2  0
 19 18  1  0
 20  9  1  0
 21 20  2  0
 23 22  1  0
 24 23  2  0
 25 23  1  0
 26 25  1  0
 27 26  1  6
 27 28  1  0
 28 20  1  0
 29 27  1  0
 30 29  2  0
 31 29  1  0
M  END
$$$$
