VWQ.pdb
     RDKit          3D

 31 32  0  0  1  0  0  0  0  0999 V2000
   28.5840  -17.8943  -16.6845 C   0  0  0  0  0  0  0  0  0  0  0  0
   27.6683  -18.5693  -15.6884 C   0  0  1  0  0  0  0  0  0  0  0  0
   26.3352  -18.7915  -16.3542 C   0  0  0  0  0  0  0  0  0  0  0  0
   28.3150  -19.8641  -15.2596 C   0  0  2  0  0  0  0  0  0  0  0  0
   28.4295  -20.7253  -16.4242 N   0  0  0  0  0  0  0  0  0  0  0  0
   27.5576  -20.5247  -14.1663 C   0  0  0  0  0  0  0  0  0  0  0  0
   26.6508  -21.3268  -14.4299 O   0  0  0  0  0  0  0  0  0  0  0  0
   27.8711  -20.2389  -12.8320 N   0  0  0  0  0  0  0  0  0  0  0  0
   27.2246  -20.8426  -11.6888 C   0  0  1  0  0  0  0  0  0  0  0  0
   27.9532  -20.5844  -10.3982 C   0  0  0  0  0  0  0  0  0  0  0  0
   27.1014  -20.7031   -9.2010 C   0  0  0  0  0  0  0  0  0  0  0  0
   25.8143  -21.2297   -9.2342 C   0  0  0  0  0  0  0  0  0  0  0  0
   25.3718  -21.1690   -7.9667 N   0  0  0  0  0  0  0  0  0  0  0  0
   26.3105  -20.6382   -7.1651 C   0  0  0  0  0  0  0  0  0  0  0  0
   26.2844  -20.3927   -5.8046 C   0  0  0  0  0  0  0  0  0  0  0  0
   27.4195  -19.8289   -5.2446 C   0  0  0  0  0  0  0  0  0  0  0  0
   28.5339  -19.5225   -6.0068 C   0  0  0  0  0  0  0  0  0  0  0  0
   28.5505  -19.7693   -7.3538 C   0  0  0  0  0  0  0  0  0  0  0  0
   27.4240  -20.3303   -7.9177 C   0  0  0  0  0  0  0  0  0  0  0  0
   25.8925  -20.1996  -11.5544 C   0  0  0  0  0  0  0  0  0  0  0  0
   25.8195  -18.9847  -11.3283 O   0  0  0  0  0  0  0  0  0  0  0  0
   21.0901  -19.1413  -14.7655 N   0  0  0  0  0  0  0  0  0  0  0  0
   22.4602  -19.2472  -15.0888 C   0  0  0  0  0  0  0  0  0  0  0  0
   22.9280  -18.7024  -16.0934 O   0  0  0  0  0  0  0  0  0  0  0  0
   23.4045  -20.0329  -14.2142 C   0  0  0  0  0  0  0  0  0  0  0  0
   22.6784  -20.5528  -13.0121 C   0  0  0  0  0  0  0  0  0  0  0  0
   23.3692  -20.2693  -11.7257 C   0  0  2  0  0  0  0  0  0  0  0  0
   24.6781  -20.9202  -11.6739 N   0  0  0  0  0  0  0  0  0  0  0  0
   22.5656  -20.7598  -10.5853 C   0  0  0  0  0  0  0  0  0  0  0  0
   22.8172  -21.9121  -10.0784 O   0  0  0  0  0  0  0  0  0  0  0  0
   21.5292  -20.0851   -9.9757 O   0  0  0  0  0  0  0  0  0  0  0  0
  2  1  1  6
  2  3  1  0
  4  2  1  0
  4  5  1  6
  6  7  2  0
  6  4  1  0
  8  6  1  0
  9  8  1  0
  9 10  1  1
 11 19  1  0
 11 10  1  0
 12 11  2  0
 13 12  1  0
 13 14  1  0
 14 15  1  0
 14 19  2  0
 15 16  2  0
 16 17  1  0
 18 17  2  0
 19 18  1  0
 20  9  1  0
 21 20  2  0
 23 22  1  0
 24 23  2  0
 25 23  1  0
 26 25  1  0
 27 26  1  6
 27 28  1  0
 28 20  1  0
 29 27  1  0
 30 29  2  0
 31 29  1  0
M  END
$$$$
