VWQ.pdb
     RDKit          3D

 31 32  0  0  1  0  0  0  0  0999 V2000
   10.6283  -11.5771  -13.1713 C   0  0  0  0  0  0  0  0  0  0  0  0
   11.7046  -10.8217  -12.4251 C   0  0  1  0  0  0  0  0  0  0  0  0
   11.8256  -11.4185  -11.0471 C   0  0  0  0  0  0  0  0  0  0  0  0
   12.9882  -10.9355  -13.2113 C   0  0  2  0  0  0  0  0  0  0  0  0
   13.3289  -12.3431  -13.3285 N   0  0  0  0  0  0  0  0  0  0  0  0
   14.0894  -10.1589  -12.5871 C   0  0  0  0  0  0  0  0  0  0  0  0
   14.7807  -10.6636  -11.6912 O   0  0  0  0  0  0  0  0  0  0  0  0
   14.3466   -8.8506  -13.0143 N   0  0  0  0  0  0  0  0  0  0  0  0
   15.3705   -7.9926  -12.4623 C   0  0  1  0  0  0  0  0  0  0  0  0
   16.3989   -7.5772  -13.4787 C   0  0  0  0  0  0  0  0  0  0  0  0
   17.3367   -8.6526  -13.8486 C   0  0  0  0  0  0  0  0  0  0  0  0
   18.3299   -9.1209  -12.9945 C   0  0  0  0  0  0  0  0  0  0  0  0
   18.9659  -10.0845  -13.6824 N   0  0  0  0  0  0  0  0  0  0  0  0
   18.4206  -10.2309  -14.9017 C   0  0  0  0  0  0  0  0  0  0  0  0
   18.7540  -11.0952  -15.9283 C   0  0  0  0  0  0  0  0  0  0  0  0
   18.0000  -11.0158  -17.0880 C   0  0  0  0  0  0  0  0  0  0  0  0
   16.9580  -10.1140  -17.2205 C   0  0  0  0  0  0  0  0  0  0  0  0
   16.6352   -9.2617  -16.1982 C   0  0  0  0  0  0  0  0  0  0  0  0
   17.3815   -9.3353  -15.0410 C   0  0  0  0  0  0  0  0  0  0  0  0
   14.6969   -6.7470  -12.0140 C   0  0  0  0  0  0  0  0  0  0  0  0
   13.9939   -6.1109  -12.8100 O   0  0  0  0  0  0  0  0  0  0  0  0
   14.6556   -4.4023   -6.0824 N   0  0  0  0  0  0  0  0  0  0  0  0
   13.7712   -3.5323   -6.7562 C   0  0  0  0  0  0  0  0  0  0  0  0
   13.1674   -2.6376   -6.1562 O   0  0  0  0  0  0  0  0  0  0  0  0
   13.5321   -3.6660   -8.2391 C   0  0  0  0  0  0  0  0  0  0  0  0
   14.2885   -4.8411   -8.7771 C   0  0  0  0  0  0  0  0  0  0  0  0
   14.1510   -5.0201  -10.2473 C   0  0  2  0  0  0  0  0  0  0  0  0
   14.8209   -6.2404  -10.6962 N   0  0  0  0  0  0  0  0  0  0  0  0
   14.7481   -3.8752  -10.9682 C   0  0  0  0  0  0  0  0  0  0  0  0
   16.0230   -3.8001  -11.0983 O   0  0  0  0  0  0  0  0  0  0  0  0
   14.0558   -2.8318  -11.5451 O   0  0  0  0  0  0  0  0  0  0  0  0
  2  1  1  6
  2  3  1  0
  4  2  1  0
  4  5  1  1
  6  7  2  0
  6  4  1  0
  8  6  1  0
  9  8  1  0
  9 10  1  6
 11 19  1  0
 11 10  1  0
 12 11  2  0
 13 12  1  0
 13 14  1  0
 14 15  1  0
 14 19  2  0
 15 16  2  0
 16 17  1  0
 18 17  2  0
 19 18  1  0
 20  9  1  0
 21 20  2  0
 23 22  1  0
 24 23  2  0
 25 23  1  0
 26 25  1  0
 27 26  1  1
 27 28  1  0
 28 20  1  0
 29 27  1  0
 30 29  2  0
 31 29  1  0
M  END
$$$$
