VWQ.pdb
     RDKit          3D

 31 32  0  0  1  0  0  0  0  0999 V2000
   28.9666  -21.0197  -14.3327 C   0  0  0  0  0  0  0  0  0  0  0  0
   28.4268  -21.4392  -12.9841 C   0  0  1  0  0  0  0  0  0  0  0  0
   29.1295  -20.6289  -11.9261 C   0  0  0  0  0  0  0  0  0  0  0  0
   26.9352  -21.2078  -12.9836 C   0  0  2  0  0  0  0  0  0  0  0  0
   26.6898  -19.8084  -13.2877 N   0  0  0  0  0  0  0  0  0  0  0  0
   26.3152  -21.6012  -11.6927 C   0  0  0  0  0  0  0  0  0  0  0  0
   26.2261  -22.7970  -11.3807 O   0  0  0  0  0  0  0  0  0  0  0  0
   25.8298  -20.6152  -10.8253 N   0  0  0  0  0  0  0  0  0  0  0  0
   25.2167  -20.8785   -9.5431 C   0  0  1  0  0  0  0  0  0  0  0  0
   25.5766  -19.8564   -8.4995 C   0  0  0  0  0  0  0  0  0  0  0  0
   26.9107  -20.0577   -7.9058 C   0  0  0  0  0  0  0  0  0  0  0  0
   28.0501  -20.3042   -8.6649 C   0  0  0  0  0  0  0  0  0  0  0  0
   29.0501  -20.4296   -7.7758 N   0  0  0  0  0  0  0  0  0  0  0  0
   28.5889  -20.2744   -6.5233 C   0  0  0  0  0  0  0  0  0  0  0  0
   29.2598  -20.3219   -5.3152 C   0  0  0  0  0  0  0  0  0  0  0  0
   28.5078  -20.1206   -4.1690 C   0  0  0  0  0  0  0  0  0  0  0  0
   27.1451  -19.8820   -4.2230 C   0  0  0  0  0  0  0  0  0  0  0  0
   26.4891  -19.8369   -5.4244 C   0  0  0  0  0  0  0  0  0  0  0  0
   27.2316  -20.0364   -6.5693 C   0  0  0  0  0  0  0  0  0  0  0  0
   23.7473  -20.7807   -9.7369 C   0  0  0  0  0  0  0  0  0  0  0  0
   23.2872  -19.9286  -10.5080 O   0  0  0  0  0  0  0  0  0  0  0  0
   20.0922  -25.0583  -10.0592 N   0  0  0  0  0  0  0  0  0  0  0  0
   19.0436  -24.1424   -9.8262 C   0  0  0  0  0  0  0  0  0  0  0  0
   17.9162  -24.3218  -10.2970 O   0  0  0  0  0  0  0  0  0  0  0  0
   19.2649  -22.9072   -8.9899 C   0  0  0  0  0  0  0  0  0  0  0  0
   20.7177  -22.7678   -8.6545 C   0  0  0  0  0  0  0  0  0  0  0  0
   21.4126  -21.7060   -9.4305 C   0  0  2  0  0  0  0  0  0  0  0  0
   22.8284  -21.6294   -9.0710 N   0  0  0  0  0  0  0  0  0  0  0  0
   20.7991  -20.3860   -9.1696 C   0  0  0  0  0  0  0  0  0  0  0  0
   21.2628  -19.6431   -8.2310 O   0  0  0  0  0  0  0  0  0  0  0  0
   19.7364  -19.8375   -9.8557 O   0  0  0  0  0  0  0  0  0  0  0  0
  2  1  1  6
  2  3  1  0
  4  2  1  0
  4  5  1  1
  6  7  2  0
  6  4  1  0
  8  6  1  0
  9  8  1  0
  9 10  1  1
 11 19  1  0
 11 10  1  0
 12 11  2  0
 13 12  1  0
 13 14  1  0
 14 15  1  0
 14 19  2  0
 15 16  2  0
 16 17  1  0
 18 17  2  0
 19 18  1  0
 20  9  1  0
 21 20  2  0
 23 22  1  0
 24 23  2  0
 25 23  1  0
 26 25  1  0
 27 26  1  1
 27 28  1  0
 28 20  1  0
 29 27  1  0
 30 29  2  0
 31 29  1  0
M  END
$$$$
