VWQ.pdb
     RDKit          3D

 31 32  0  0  1  0  0  0  0  0999 V2000
   22.9012  -22.5323  -12.7829 C   0  0  0  0  0  0  0  0  0  0  0  0
   21.8724  -21.5945  -12.1927 C   0  0  1  0  0  0  0  0  0  0  0  0
   20.5337  -22.2846  -12.2308 C   0  0  0  0  0  0  0  0  0  0  0  0
   22.2999  -21.2554  -10.7853 C   0  0  2  0  0  0  0  0  0  0  0  0
   21.2134  -20.5407  -10.1374 N   0  0  0  0  0  0  0  0  0  0  0  0
   23.5586  -20.4674  -10.7647 C   0  0  0  0  0  0  0  0  0  0  0  0
   23.5458  -19.2612  -11.0476 O   0  0  0  0  0  0  0  0  0  0  0  0
   24.7644  -21.0919  -10.4237 N   0  0  0  0  0  0  0  0  0  0  0  0
   26.0530  -20.4374  -10.4089 C   0  0  1  0  0  0  0  0  0  0  0  0
   27.0030  -21.0340   -9.4065 C   0  0  0  0  0  0  0  0  0  0  0  0
   26.6691  -20.7127   -8.0072 C   0  0  0  0  0  0  0  0  0  0  0  0
   25.3654  -20.6972   -7.5220 C   0  0  0  0  0  0  0  0  0  0  0  0
   25.4723  -20.3649   -6.2242 N   0  0  0  0  0  0  0  0  0  0  0  0
   26.7604  -20.1776   -5.8905 C   0  0  0  0  0  0  0  0  0  0  0  0
   27.3243  -19.8302   -4.6768 C   0  0  0  0  0  0  0  0  0  0  0  0
   28.7039  -19.7091   -4.6351 C   0  0  0  0  0  0  0  0  0  0  0  0
   29.4894  -19.9248   -5.7546 C   0  0  0  0  0  0  0  0  0  0  0  0
   28.9218  -20.2685   -6.9527 C   0  0  0  0  0  0  0  0  0  0  0  0
   27.5491  -20.3908   -7.0013 C   0  0  0  0  0  0  0  0  0  0  0  0
   26.6640  -20.6528  -11.7456 C   0  0  0  0  0  0  0  0  0  0  0  0
   27.0488  -21.7845  -12.0673 O   0  0  0  0  0  0  0  0  0  0  0  0
   22.9072  -21.2914  -15.2246 N   0  0  0  0  0  0  0  0  0  0  0  0
   23.8585  -21.1513  -16.2582 C   0  0  0  0  0  0  0  0  0  0  0  0
   23.5866  -21.4440  -17.4267 O   0  0  0  0  0  0  0  0  0  0  0  0
   25.2464  -20.6369  -15.9698 C   0  0  0  0  0  0  0  0  0  0  0  0
   25.3987  -20.3640  -14.5053 C   0  0  0  0  0  0  0  0  0  0  0  0
   26.7310  -19.8176  -14.1329 C   0  0  2  0  0  0  0  0  0  0  0  0
   26.8318  -19.6084  -12.6887 N   0  0  0  0  0  0  0  0  0  0  0  0
   26.9667  -18.5209  -14.8036 C   0  0  0  0  0  0  0  0  0  0  0  0
   26.6297  -17.4302  -14.2164 O   0  0  0  0  0  0  0  0  0  0  0  0
   27.5368  -18.3441  -16.0464 O   0  0  0  0  0  0  0  0  0  0  0  0
  2  1  1  1
  2  3  1  0
  4  2  1  0
  4  5  1  6
  6  7  2  0
  6  4  1  0
  8  6  1  0
  9  8  1  0
  9 10  1  1
 11 19  1  0
 11 10  1  0
 12 11  2  0
 13 12  1  0
 13 14  1  0
 14 15  1  0
 14 19  2  0
 15 16  2  0
 16 17  1  0
 18 17  2  0
 19 18  1  0
 20  9  1  0
 21 20  2  0
 23 22  1  0
 24 23  2  0
 25 23  1  0
 26 25  1  0
 27 26  1  1
 27 28  1  0
 28 20  1  0
 29 27  1  0
 30 29  2  0
 31 29  1  0
M  END
$$$$
