TVL.pdb
     RDKit          3D

 23 22  0  0  1  0  0  0  0  0999 V2000
   10.8295   -8.7432  -10.9274 C   0  0  0  0  0  0  0  0  0  0  0  0
    9.7389   -8.6536   -9.8792 C   0  0  1  0  0  0  0  0  0  0  0  0
    9.4880  -10.0025   -9.5134 O   0  0  0  0  0  0  0  0  0  0  0  0
   10.2121   -7.9499   -8.6222 C   0  0  2  0  0  0  0  0  0  0  0  0
    9.0091   -7.8931   -7.7646 N   0  0  0  0  0  0  0  0  0  0  0  0
   10.6212   -6.5524   -8.8336 C   0  0  0  0  0  0  0  0  0  0  0  0
    9.8235   -5.6997   -9.3607 O   0  0  0  0  0  0  0  0  0  0  0  0
   13.5140   -4.2526   -6.6847 C   0  0  0  0  0  0  0  0  0  0  0  0
   12.4145   -3.7772   -7.6001 C   0  0  2  0  0  0  0  0  0  0  0  0
   11.1107   -3.7038   -6.8775 C   0  0  0  0  0  0  0  0  0  0  0  0
   12.2754   -4.6620   -8.8258 C   0  0  2  0  0  0  0  0  0  0  0  0
   11.8972   -6.0008   -8.4909 N   0  0  0  0  0  0  0  0  0  0  0  0
   13.5245   -4.5196   -9.5914 C   0  0  0  0  0  0  0  0  0  0  0  0
   14.1764   -5.6136   -9.7387 O   0  0  0  0  0  0  0  0  0  0  0  0
   17.3406   -4.5034  -12.3397 C   0  0  0  0  0  0  0  0  0  0  0  0
   16.0288   -4.5951  -13.1428 C   0  0  2  0  0  0  0  0  0  0  0  0
   16.1280   -3.4493  -14.1418 C   0  0  0  0  0  0  0  0  0  0  0  0
   14.9274   -4.4416  -12.1551 C   0  0  0  0  0  0  0  0  0  0  0  0
   15.1424   -3.4019  -11.0922 C   0  0  2  0  0  0  0  0  0  0  0  0
   14.0450   -3.3502  -10.1502 N   0  0  0  0  0  0  0  0  0  0  0  0
   15.4943   -2.0684  -11.5861 C   0  0  0  0  0  0  0  0  0  0  0  0
   14.6532   -1.2161  -11.9655 O   0  0  0  0  0  0  0  0  0  0  0  0
   16.8446   -1.6709  -11.6594 O   0  0  0  0  0  0  0  0  0  0  0  0
  2  1  1  6
  3  2  1  0
  4  2  1  0
  4  6  1  0
  4  5  1  1
  6  7  2  0
  9  8  1  1
 10  9  1  0
 11 13  1  0
 11  9  1  0
 12  6  1  0
 11 12  1  1
 13 14  2  0
 16 18  1  0
 16 15  1  1
 17 16  1  0
 19 18  1  6
 19 21  1  0
 20 19  1  0
 20 13  1  0
 21 22  2  0
 21 23  1  0
M  END
$$$$
