TVL.pdb
     RDKit          3D

 23 22  0  0  1  0  0  0  0  0999 V2000
   29.4437  -19.0102  -13.8802 C   0  0  0  0  0  0  0  0  0  0  0  0
   28.4398  -18.5167  -14.9024 C   0  0  1  0  0  0  0  0  0  0  0  0
   29.0438  -18.7984  -16.1562 O   0  0  0  0  0  0  0  0  0  0  0  0
   27.1477  -19.3091  -14.8618 C   0  0  2  0  0  0  0  0  0  0  0  0
   26.3152  -18.6984  -15.9200 N   0  0  0  0  0  0  0  0  0  0  0  0
   26.3866  -19.1540  -13.6121 C   0  0  0  0  0  0  0  0  0  0  0  0
   25.9050  -18.0188  -13.2648 O   0  0  0  0  0  0  0  0  0  0  0  0
   24.1801  -22.1520  -11.5567 C   0  0  0  0  0  0  0  0  0  0  0  0
   24.0594  -20.6569  -11.4046 C   0  0  2  0  0  0  0  0  0  0  0  0
   23.1689  -20.0822  -12.4554 C   0  0  0  0  0  0  0  0  0  0  0  0
   25.4136  -19.9720  -11.4455 C   0  0  2  0  0  0  0  0  0  0  0  0
   26.1029  -20.2016  -12.6782 N   0  0  0  0  0  0  0  0  0  0  0  0
   26.1279  -20.3789  -10.2245 C   0  0  0  0  0  0  0  0  0  0  0  0
   26.6859  -21.5305  -10.3030 O   0  0  0  0  0  0  0  0  0  0  0  0
   28.5447  -18.5586   -4.9081 C   0  0  0  0  0  0  0  0  0  0  0  0
   28.0717  -19.7899   -5.7047 C   0  0  2  0  0  0  0  0  0  0  0  0
   29.3277  -20.6401   -5.8483 C   0  0  0  0  0  0  0  0  0  0  0  0
   27.5432  -19.2704   -6.9943 C   0  0  0  0  0  0  0  0  0  0  0  0
   26.8132  -20.2659   -7.8503 C   0  0  2  0  0  0  0  0  0  0  0  0
   26.2497  -19.6562   -9.0357 N   0  0  0  0  0  0  0  0  0  0  0  0
   25.8281  -21.0905   -7.1462 C   0  0  0  0  0  0  0  0  0  0  0  0
   24.5951  -20.8512   -7.1309 O   0  0  0  0  0  0  0  0  0  0  0  0
   26.2394  -22.2312   -6.4277 O   0  0  0  0  0  0  0  0  0  0  0  0
  2  1  1  1
  3  2  1  0
  4  2  1  0
  4  6  1  0
  4  5  1  6
  6  7  2  0
  9  8  1  6
 10  9  1  0
 11 13  1  0
 11  9  1  0
 12  6  1  0
 11 12  1  6
 13 14  2  0
 16 18  1  0
 16 15  1  1
 17 16  1  0
 19 18  1  1
 19 21  1  0
 20 19  1  0
 20 13  1  0
 21 22  2  0
 21 23  1  0
M  END
$$$$
