TVL.pdb
     RDKit          3D

 23 22  0  0  1  0  0  0  0  0999 V2000
   22.5389  -20.8340  -11.9371 C   0  0  0  0  0  0  0  0  0  0  0  0
   23.0372  -20.6503  -10.5178 C   0  0  1  0  0  0  0  0  0  0  0  0
   22.2867  -21.5842   -9.7557 O   0  0  0  0  0  0  0  0  0  0  0  0
   24.4930  -21.0472  -10.3685 C   0  0  2  0  0  0  0  0  0  0  0  0
   24.7772  -20.8462   -8.9316 N   0  0  0  0  0  0  0  0  0  0  0  0
   25.4313  -20.1729  -11.0898 C   0  0  0  0  0  0  0  0  0  0  0  0
   25.8151  -19.0567  -10.5918 O   0  0  0  0  0  0  0  0  0  0  0  0
   27.6492  -21.2882  -14.6546 C   0  0  0  0  0  0  0  0  0  0  0  0
   28.0635  -20.2154  -13.6797 C   0  0  2  0  0  0  0  0  0  0  0  0
   28.9469  -20.7729  -12.6138 C   0  0  0  0  0  0  0  0  0  0  0  0
   26.8651  -19.5291  -13.0493 C   0  0  2  0  0  0  0  0  0  0  0  0
   26.0041  -20.4499  -12.3725 N   0  0  0  0  0  0  0  0  0  0  0  0
   26.2374  -18.7219  -14.1082 C   0  0  0  0  0  0  0  0  0  0  0  0
   25.2725  -19.3105  -14.7132 O   0  0  0  0  0  0  0  0  0  0  0  0
   25.2792  -12.9721  -15.9125 C   0  0  0  0  0  0  0  0  0  0  0  0
   25.0285  -14.4481  -16.2767 C   0  0  2  0  0  0  0  0  0  0  0  0
   23.5117  -14.5846  -16.2367 C   0  0  0  0  0  0  0  0  0  0  0  0
   25.7349  -15.2544  -15.2456 C   0  0  0  0  0  0  0  0  0  0  0  0
   25.8194  -16.7300  -15.5142 C   0  0  2  0  0  0  0  0  0  0  0  0
   26.5813  -17.4261  -14.4996 N   0  0  0  0  0  0  0  0  0  0  0  0
   26.2570  -17.0945  -16.8639 C   0  0  0  0  0  0  0  0  0  0  0  0
   27.4608  -17.1934  -17.2085 O   0  0  0  0  0  0  0  0  0  0  0  0
   25.3079  -17.3590  -17.8718 O   0  0  0  0  0  0  0  0  0  0  0  0
  2  1  1  6
  3  2  1  0
  4  2  1  0
  4  6  1  0
  4  5  1  1
  6  7  2  0
  9  8  1  6
 10  9  1  0
 11 13  1  0
 11  9  1  0
 12  6  1  0
 11 12  1  6
 13 14  2  0
 16 18  1  0
 16 15  1  1
 17 16  1  0
 19 18  1  1
 19 21  1  0
 20 19  1  0
 20 13  1  0
 21 22  2  0
 21 23  1  0
M  END
$$$$
