TVL.pdb
     RDKit          3D

 23 22  0  0  1  0  0  0  0  0999 V2000
   25.2764  -13.2417  -15.8519 C   0  0  0  0  0  0  0  0  0  0  0  0
   24.2763  -12.2662  -16.4387 C   0  0  1  0  0  0  0  0  0  0  0  0
   24.4077  -12.4270  -17.8434 O   0  0  0  0  0  0  0  0  0  0  0  0
   22.8471  -12.6395  -16.0968 C   0  0  2  0  0  0  0  0  0  0  0  0
   22.5644  -13.8113  -16.9528 N   0  0  0  0  0  0  0  0  0  0  0  0
   21.8539  -11.6201  -16.4703 C   0  0  0  0  0  0  0  0  0  0  0  0
   21.5874  -11.3716  -17.6985 O   0  0  0  0  0  0  0  0  0  0  0  0
   18.4480  -10.3933  -14.3690 C   0  0  0  0  0  0  0  0  0  0  0  0
   18.7848  -10.0549  -15.7991 C   0  0  2  0  0  0  0  0  0  0  0  0
   18.3874  -11.1611  -16.7187 C   0  0  0  0  0  0  0  0  0  0  0  0
   20.2599   -9.7428  -15.9753 C   0  0  2  0  0  0  0  0  0  0  0  0
   21.0990  -10.8218  -15.5521 N   0  0  0  0  0  0  0  0  0  0  0  0
   20.4976   -8.4478  -15.3171 C   0  0  0  0  0  0  0  0  0  0  0  0
   21.3839   -8.4853  -14.3916 O   0  0  0  0  0  0  0  0  0  0  0  0
   22.2069   -3.5323  -16.5763 C   0  0  0  0  0  0  0  0  0  0  0  0
   22.5658   -4.5521  -15.4783 C   0  0  2  0  0  0  0  0  0  0  0  0
   24.0831   -4.6618  -15.5596 C   0  0  0  0  0  0  0  0  0  0  0  0
   21.8496   -5.8074  -15.8295 C   0  0  0  0  0  0  0  0  0  0  0  0
   20.4877   -5.9761  -15.2184 C   0  0  2  0  0  0  0  0  0  0  0  0
   19.8724   -7.2304  -15.5958 N   0  0  0  0  0  0  0  0  0  0  0  0
   19.5741   -4.8469  -15.4090 C   0  0  0  0  0  0  0  0  0  0  0  0
   18.7110   -4.7885  -16.3197 O   0  0  0  0  0  0  0  0  0  0  0  0
   19.6284   -3.7348  -14.5446 O   0  0  0  0  0  0  0  0  0  0  0  0
  2  1  1  1
  3  2  1  0
  4  2  1  0
  4  6  1  0
  4  5  1  6
  6  7  2  0
  9  8  1  1
 10  9  1  0
 11 13  1  0
 11  9  1  0
 12  6  1  0
 11 12  1  1
 13 14  2  0
 16 18  1  0
 16 15  1  6
 17 16  1  0
 19 18  1  6
 19 21  1  0
 20 19  1  0
 20 13  1  0
 21 22  2  0
 21 23  1  0
M  END
$$$$
