TVL.pdb
     RDKit          3D

 23 22  0  0  1  0  0  0  0  0999 V2000
   25.0277   -8.5720  -20.1623 C   0  0  0  0  0  0  0  0  0  0  0  0
   24.8850  -10.0558  -20.4347 C   0  0  1  0  0  0  0  0  0  0  0  0
   26.0965  -10.4146  -21.0826 O   0  0  0  0  0  0  0  0  0  0  0  0
   24.8268  -10.8677  -19.1555 C   0  0  2  0  0  0  0  0  0  0  0  0
   24.6499  -12.2606  -19.6186 N   0  0  0  0  0  0  0  0  0  0  0  0
   23.6589  -10.5740  -18.3099 C   0  0  0  0  0  0  0  0  0  0  0  0
   22.4660  -10.7648  -18.7362 O   0  0  0  0  0  0  0  0  0  0  0  0
   23.4792  -10.5209  -14.0349 C   0  0  0  0  0  0  0  0  0  0  0  0
   22.3468  -10.6513  -15.0216 C   0  0  2  0  0  0  0  0  0  0  0  0
   22.1915  -12.0648  -15.4745 C   0  0  0  0  0  0  0  0  0  0  0  0
   22.5346   -9.7426  -16.2231 C   0  0  2  0  0  0  0  0  0  0  0  0
   23.7100  -10.0664  -16.9721 N   0  0  0  0  0  0  0  0  0  0  0  0
   22.4519   -8.3608  -15.7226 C   0  0  0  0  0  0  0  0  0  0  0  0
   23.5870   -7.8389  -15.4349 O   0  0  0  0  0  0  0  0  0  0  0  0
   22.3465   -3.7177  -14.8368 C   0  0  0  0  0  0  0  0  0  0  0  0
   22.3953   -4.0469  -16.3413 C   0  0  2  0  0  0  0  0  0  0  0  0
   21.2420   -3.2451  -16.9311 C   0  0  0  0  0  0  0  0  0  0  0  0
   22.2235   -5.5204  -16.4483 C   0  0  0  0  0  0  0  0  0  0  0  0
   21.3766   -6.1589  -15.3844 C   0  0  2  0  0  0  0  0  0  0  0  0
   21.2980   -7.5956  -15.5394 N   0  0  0  0  0  0  0  0  0  0  0  0
   20.0517   -5.5618  -15.1997 C   0  0  0  0  0  0  0  0  0  0  0  0
   19.0657   -5.7988  -15.9410 O   0  0  0  0  0  0  0  0  0  0  0  0
   19.8194   -4.6605  -14.1412 O   0  0  0  0  0  0  0  0  0  0  0  0
  2  1  1  1
  3  2  1  0
  4  2  1  0
  4  6  1  0
  4  5  1  6
  6  7  2  0
  9  8  1  1
 10  9  1  0
 11 13  1  0
 11  9  1  0
 12  6  1  0
 11 12  1  1
 13 14  2  0
 16 18  1  0
 16 15  1  1
 17 16  1  0
 19 18  1  6
 19 21  1  0
 20 19  1  0
 20 13  1  0
 21 22  2  0
 21 23  1  0
M  END
$$$$
