TVL.pdb
     RDKit          3D

 23 22  0  0  1  0  0  0  0  0999 V2000
   24.1825  -11.5121  -21.2711 C   0  0  0  0  0  0  0  0  0  0  0  0
   23.1483  -10.9887  -20.2949 C   0  0  1  0  0  0  0  0  0  0  0  0
   21.9167  -11.5119  -20.7699 O   0  0  0  0  0  0  0  0  0  0  0  0
   23.3436  -11.5517  -18.9007 C   0  0  2  0  0  0  0  0  0  0  0  0
   23.0837  -12.9990  -19.0552 N   0  0  0  0  0  0  0  0  0  0  0  0
   22.3626  -11.0702  -17.9153 C   0  0  0  0  0  0  0  0  0  0  0  0
   21.1669  -11.5296  -17.8899 O   0  0  0  0  0  0  0  0  0  0  0  0
   23.2685   -8.7740  -14.3230 C   0  0  0  0  0  0  0  0  0  0  0  0
   22.0912   -9.6881  -14.5498 C   0  0  2  0  0  0  0  0  0  0  0  0
   22.4226  -11.0923  -14.1679 C   0  0  0  0  0  0  0  0  0  0  0  0
   21.6093   -9.6453  -15.9887 C   0  0  2  0  0  0  0  0  0  0  0  0
   22.6123  -10.0798  -16.9120 N   0  0  0  0  0  0  0  0  0  0  0  0
   21.0725   -8.2931  -16.2125 C   0  0  0  0  0  0  0  0  0  0  0  0
   21.9314   -7.4569  -16.6669 O   0  0  0  0  0  0  0  0  0  0  0  0
   16.8027   -5.0093  -18.5726 C   0  0  0  0  0  0  0  0  0  0  0  0
   18.0138   -4.9077  -17.6253 C   0  0  2  0  0  0  0  0  0  0  0  0
   19.0492   -4.1357  -18.4331 C   0  0  0  0  0  0  0  0  0  0  0  0
   18.4122   -6.3060  -17.3116 C   0  0  0  0  0  0  0  0  0  0  0  0
   19.4021   -6.4686  -16.1935 C   0  0  2  0  0  0  0  0  0  0  0  0
   19.7665   -7.8536  -15.9850 N   0  0  0  0  0  0  0  0  0  0  0  0
   19.0373   -5.8105  -14.9365 C   0  0  0  0  0  0  0  0  0  0  0  0
   18.8979   -4.5686  -14.8094 O   0  0  0  0  0  0  0  0  0  0  0  0
   18.8197   -6.5735  -13.7716 O   0  0  0  0  0  0  0  0  0  0  0  0
  2  1  1  6
  3  2  1  0
  4  2  1  0
  4  6  1  0
  4  5  1  6
  6  7  2  0
  9  8  1  6
 10  9  1  0
 11 13  1  0
 11  9  1  0
 12  6  1  0
 11 12  1  6
 13 14  2  0
 16 18  1  0
 16 15  1  6
 17 16  1  0
 19 18  1  6
 19 21  1  0
 20 19  1  0
 20 13  1  0
 21 22  2  0
 21 23  1  0
M  END
$$$$
