RQP.pdb
     RDKit          3D

 28 28  0  0  1  0  0  0  0  0999 V2000
   28.1270  -17.4959  -18.3769 N   0  0  0  0  0  0  0  0  0  0  0  0
   28.9515  -18.4821  -17.7644 C   0  0  0  0  0  0  0  0  0  0  0  0
   29.7105  -19.1925  -18.5307 N   0  0  0  0  0  0  0  0  0  0  0  0
   28.9581  -18.6959  -16.3660 N   0  0  0  0  0  0  0  0  0  0  0  0
   27.8981  -19.5180  -15.7325 C   0  0  0  0  0  0  0  0  0  0  0  0
   26.6160  -19.3343  -16.4668 C   0  0  0  0  0  0  0  0  0  0  0  0
   25.3905  -19.0990  -15.6950 C   0  0  0  0  0  0  0  0  0  0  0  0
   24.2352  -20.0020  -15.7924 C   0  0  2  0  0  0  0  0  0  0  0  0
   23.8674  -19.8825  -17.2787 N   0  0  0  0  0  0  0  0  0  0  0  0
   23.0118  -19.5078  -15.1047 C   0  0  0  0  0  0  0  0  0  0  0  0
   22.5228  -18.3782  -15.3458 O   0  0  0  0  0  0  0  0  0  0  0  0
   30.3987  -19.8915  -18.2408 N   0  0  0  0  0  0  0  0  0  0  0  0
   19.7974  -16.7892  -15.0275 C   0  0  0  0  0  0  0  0  0  0  0  0
   18.6886  -17.5965  -14.7414 O   0  0  0  0  0  0  0  0  0  0  0  0
   17.5609  -17.0766  -14.6381 C   0  0  0  0  0  0  0  0  0  0  0  0
   18.8314  -19.0517  -14.5591 C   0  0  0  0  0  0  0  0  0  0  0  0
   20.1817  -19.6054  -14.7144 C   0  0  2  0  0  0  0  0  0  0  0  0
   21.0703  -19.7584  -13.5235 N   0  0  0  0  0  0  0  0  0  0  0  0
   22.3277  -20.2798  -14.1395 C   0  0  0  0  0  0  0  0  0  0  0  0
   20.5951  -20.7845  -12.5411 O   0  0  0  0  0  0  0  0  0  0  0  0
   19.8664  -21.6684  -13.0581 N   0  0  0  0  0  0  0  0  0  0  0  0
   20.8762  -20.8475  -11.1826 C   0  0  0  0  0  0  0  0  0  0  0  0
   21.9229  -20.0537  -10.4592 C   0  0  0  0  0  0  0  0  0  0  0  0
   21.1048  -19.4855   -9.3345 C   0  0  0  0  0  0  0  0  0  0  0  0
   19.8999  -20.4263   -9.1877 C   0  0  2  0  0  0  0  0  0  0  0  0
   20.3480  -21.5918  -10.0837 C   0  0  0  0  0  0  0  0  0  0  0  0
   19.3476  -22.5943  -10.2397 O   0  0  0  0  0  0  0  0  0  0  0  0
   18.5336  -22.4713  -11.2377 O   0  0  0  0  0  0  0  0  0  0  0  0
  2  1  1  0
  3  2  2  0
  4  2  1  0
  5  4  1  0
  6  5  1  0
  7  6  1  0
  8  7  1  0
  8  9  1  6
 10 18  1  0
 10  8  1  0
 11 10  2  0
 13 14  2  0
 13 12  1  0
 15 13  1  0
 16 15  1  0
 17 16  1  6
 17 18  1  0
 19 17  1  0
 20 19  2  0
 21 22  1  0
 21 19  1  0
 23 22  1  0
 24 23  1  0
 24 25  1  0
 25 21  1  0
 26 28  1  0
 25 26  1  6
 27 26  2  0
M  END
$$$$
