RQP.pdb
     RDKit          3D

 28 28  0  0  1  0  0  0  0  0999 V2000
   13.7327  -13.8550  -14.4568 N   0  0  0  0  0  0  0  0  0  0  0  0
   14.3668  -13.2047  -15.5534 C   0  0  0  0  0  0  0  0  0  0  0  0
   13.8478  -13.3580  -16.7259 N   0  0  0  0  0  0  0  0  0  0  0  0
   15.5267  -12.4112  -15.3904 N   0  0  0  0  0  0  0  0  0  0  0  0
   15.5339  -11.2927  -14.4160 C   0  0  0  0  0  0  0  0  0  0  0  0
   16.8787  -10.6539  -14.3970 C   0  0  0  0  0  0  0  0  0  0  0  0
   17.1585   -9.5744  -15.3505 C   0  0  0  0  0  0  0  0  0  0  0  0
   18.4754   -8.9253  -15.4124 C   0  0  2  0  0  0  0  0  0  0  0  0
   19.4226  -10.1152  -15.1994 N   0  0  0  0  0  0  0  0  0  0  0  0
   18.7793   -8.0444  -14.2524 C   0  0  0  0  0  0  0  0  0  0  0  0
   19.0463   -8.5066  -13.1173 O   0  0  0  0  0  0  0  0  0  0  0  0
   14.2641  -13.0988  -17.6236 N   0  0  0  0  0  0  0  0  0  0  0  0
   22.3982   -7.1213  -11.8414 C   0  0  0  0  0  0  0  0  0  0  0  0
   22.1238   -5.8040  -12.2317 O   0  0  0  0  0  0  0  0  0  0  0  0
   22.3475   -4.8693  -11.4386 C   0  0  0  0  0  0  0  0  0  0  0  0
   21.5737   -5.5024  -13.5650 C   0  0  0  0  0  0  0  0  0  0  0  0
   20.2094   -4.9629  -13.6078 C   0  0  2  0  0  0  0  0  0  0  0  0
   19.0585   -5.7988  -13.1518 N   0  0  0  0  0  0  0  0  0  0  0  0
   18.7855   -6.6358  -14.3589 C   0  0  0  0  0  0  0  0  0  0  0  0
   17.8164   -5.0131  -12.8625 O   0  0  0  0  0  0  0  0  0  0  0  0
   17.4443   -4.2977  -13.8266 N   0  0  0  0  0  0  0  0  0  0  0  0
   17.0743   -5.0075  -11.6888 C   0  0  0  0  0  0  0  0  0  0  0  0
   17.0776   -6.0759  -10.6363 C   0  0  0  0  0  0  0  0  0  0  0  0
   17.3258   -5.2473   -9.4080 C   0  0  0  0  0  0  0  0  0  0  0  0
   16.8686   -3.8271   -9.7720 C   0  0  2  0  0  0  0  0  0  0  0  0
   16.1413   -4.1017  -11.0977 C   0  0  0  0  0  0  0  0  0  0  0  0
   15.6986   -2.9146  -11.7494 O   0  0  0  0  0  0  0  0  0  0  0  0
   16.5225   -2.3429  -12.5667 O   0  0  0  0  0  0  0  0  0  0  0  0
  2  1  1  0
  3  2  2  0
  4  2  1  0
  5  4  1  0
  6  5  1  0
  7  6  1  0
  8  7  1  0
  8  9  1  1
 10 18  1  0
 10  8  1  0
 11 10  2  0
 13 14  2  0
 13 12  1  0
 15 13  1  0
 16 15  1  0
 17 16  1  1
 17 18  1  0
 19 17  1  0
 20 19  2  0
 21 22  1  0
 21 19  1  0
 23 22  1  0
 24 23  1  0
 24 25  1  0
 25 21  1  0
 26 28  1  0
 25 26  1  1
 27 26  2  0
M  END
$$$$
