RQP.pdb
     RDKit          3D

 28 28  0  0  1  0  0  0  0  0999 V2000
   25.0067  -24.6496  -15.7375 N   0  0  0  0  0  0  0  0  0  0  0  0
   26.1433  -25.4671  -15.9975 C   0  0  0  0  0  0  0  0  0  0  0  0
   25.9488  -26.7328  -16.1644 N   0  0  0  0  0  0  0  0  0  0  0  0
   27.4518  -24.9351  -16.0759 N   0  0  0  0  0  0  0  0  0  0  0  0
   27.6656  -23.4686  -16.0096 C   0  0  0  0  0  0  0  0  0  0  0  0
   28.2731  -22.9930  -17.2830 C   0  0  0  0  0  0  0  0  0  0  0  0
   28.4106  -21.5486  -17.5007 C   0  0  0  0  0  0  0  0  0  0  0  0
   27.2459  -20.7002  -17.7893 C   0  0  2  0  0  0  0  0  0  0  0  0
   27.8992  -19.4938  -18.4795 N   0  0  0  0  0  0  0  0  0  0  0  0
   26.6153  -20.0951  -16.5851 C   0  0  0  0  0  0  0  0  0  0  0  0
   27.1440  -19.1420  -15.9645 O   0  0  0  0  0  0  0  0  0  0  0  0
   26.6619  -27.4552  -16.2912 N   0  0  0  0  0  0  0  0  0  0  0  0
   20.7917  -19.2384  -15.6691 C   0  0  0  0  0  0  0  0  0  0  0  0
   21.4384  -18.5168  -14.6572 O   0  0  0  0  0  0  0  0  0  0  0  0
   20.8046  -18.1892  -13.6356 C   0  0  0  0  0  0  0  0  0  0  0  0
   22.8567  -18.1364  -14.7788 C   0  0  0  0  0  0  0  0  0  0  0  0
   23.7108  -19.0252  -15.5757 C   0  0  2  0  0  0  0  0  0  0  0  0
   24.7549  -19.8584  -14.9073 N   0  0  0  0  0  0  0  0  0  0  0  0
   25.3844  -20.5571  -16.0682 C   0  0  0  0  0  0  0  0  0  0  0  0
   24.1992  -20.9122  -13.9993 O   0  0  0  0  0  0  0  0  0  0  0  0
   23.3758  -21.6738  -14.5663 N   0  0  0  0  0  0  0  0  0  0  0  0
   24.4994  -21.1167  -12.6589 C   0  0  0  0  0  0  0  0  0  0  0  0
   25.8730  -21.1697  -12.0593 C   0  0  0  0  0  0  0  0  0  0  0  0
   25.7163  -20.1881  -10.9328 C   0  0  0  0  0  0  0  0  0  0  0  0
   24.2088  -20.1301  -10.6460 C   0  0  2  0  0  0  0  0  0  0  0  0
   23.7223  -21.3266  -11.4789 C   0  0  0  0  0  0  0  0  0  0  0  0
   22.3033  -21.4529  -11.5011 O   0  0  0  0  0  0  0  0  0  0  0  0
   21.6337  -20.5277  -12.1088 O   0  0  0  0  0  0  0  0  0  0  0  0
  2  1  1  0
  3  2  2  0
  4  2  1  0
  5  4  1  0
  6  5  1  0
  7  6  1  0
  8  7  1  0
  8  9  1  6
 10 18  1  0
 10  8  1  0
 11 10  2  0
 13 14  2  0
 13 12  1  0
 15 13  1  0
 16 15  1  0
 17 16  1  6
 17 18  1  0
 19 17  1  0
 20 19  2  0
 21 22  1  0
 21 19  1  0
 23 22  1  0
 24 23  1  0
 24 25  1  0
 25 21  1  0
 26 28  1  0
 25 26  1  6
 27 26  2  0
M  END
$$$$
