RQP.pdb
     RDKit          3D

 28 28  0  0  1  0  0  0  0  0999 V2000
   30.8760  -22.1345  -10.5719 N   0  0  0  0  0  0  0  0  0  0  0  0
   29.8808  -21.7867   -9.6146 C   0  0  0  0  0  0  0  0  0  0  0  0
   30.2714  -21.4988   -8.4179 N   0  0  0  0  0  0  0  0  0  0  0  0
   28.5042  -21.7497   -9.9386 N   0  0  0  0  0  0  0  0  0  0  0  0
   28.0668  -21.8786  -11.3502 C   0  0  0  0  0  0  0  0  0  0  0  0
   27.9109  -20.5255  -11.9516 C   0  0  0  0  0  0  0  0  0  0  0  0
   26.8414  -20.3104  -12.9328 C   0  0  0  0  0  0  0  0  0  0  0  0
   25.4277  -20.5128  -12.5860 C   0  0  2  0  0  0  0  0  0  0  0  0
   25.3836  -22.0239  -12.3158 N   0  0  0  0  0  0  0  0  0  0  0  0
   24.4875  -20.3498  -13.7276 C   0  0  0  0  0  0  0  0  0  0  0  0
   24.3267  -19.2484  -14.3057 O   0  0  0  0  0  0  0  0  0  0  0  0
   29.6886  -21.1888   -7.6364 N   0  0  0  0  0  0  0  0  0  0  0  0
   25.2388  -24.3473  -15.4749 C   0  0  0  0  0  0  0  0  0  0  0  0
   25.4882  -23.4975  -16.5606 O   0  0  0  0  0  0  0  0  0  0  0  0
   26.5823  -23.5635  -17.1533 C   0  0  0  0  0  0  0  0  0  0  0  0
   24.4792  -22.5247  -17.0152 C   0  0  0  0  0  0  0  0  0  0  0  0
   23.2303  -22.4636  -16.2466 C   0  0  2  0  0  0  0  0  0  0  0  0
   22.8938  -21.2391  -15.4600 N   0  0  0  0  0  0  0  0  0  0  0  0
   23.7197  -21.4245  -14.2289 C   0  0  0  0  0  0  0  0  0  0  0  0
   21.4604  -21.1702  -15.0303 O   0  0  0  0  0  0  0  0  0  0  0  0
   21.0735  -22.1993  -14.4214 N   0  0  0  0  0  0  0  0  0  0  0  0
   20.5681  -20.1248  -15.2288 C   0  0  0  0  0  0  0  0  0  0  0  0
   20.9264  -18.7135  -15.5878 C   0  0  0  0  0  0  0  0  0  0  0  0
   20.0284  -18.4977  -16.7727 C   0  0  0  0  0  0  0  0  0  0  0  0
   18.8898  -19.5161  -16.6154 C   0  0  2  0  0  0  0  0  0  0  0  0
   19.1462  -19.9982  -15.1787 C   0  0  0  0  0  0  0  0  0  0  0  0
   18.2891  -21.0663  -14.7856 O   0  0  0  0  0  0  0  0  0  0  0  0
   18.4544  -22.2075  -15.3722 O   0  0  0  0  0  0  0  0  0  0  0  0
  2  1  1  0
  3  2  2  0
  4  2  1  0
  5  4  1  0
  6  5  1  0
  7  6  1  0
  8  7  1  0
  8  9  1  6
 10 18  1  0
 10  8  1  0
 11 10  2  0
 13 14  2  0
 13 12  1  0
 15 13  1  0
 16 15  1  0
 17 16  1  6
 17 18  1  0
 19 17  1  0
 20 19  2  0
 21 22  1  0
 21 19  1  0
 23 22  1  0
 24 23  1  0
 24 25  1  0
 25 21  1  0
 26 28  1  0
 25 26  1  6
 27 26  2  0
M  END
$$$$
