RQP.pdb
     RDKit          3D

 28 28  0  0  1  0  0  0  0  0999 V2000
   19.8154  -22.3788  -21.0687 N   0  0  0  0  0  0  0  0  0  0  0  0
   21.2387  -22.4182  -21.0552 C   0  0  0  0  0  0  0  0  0  0  0  0
   21.8309  -23.0924  -21.9838 N   0  0  0  0  0  0  0  0  0  0  0  0
   22.0015  -21.7493  -20.0693 N   0  0  0  0  0  0  0  0  0  0  0  0
   21.3265  -20.9289  -19.0339 C   0  0  0  0  0  0  0  0  0  0  0  0
   20.9446  -19.6103  -19.6103 C   0  0  0  0  0  0  0  0  0  0  0  0
   21.4939  -18.3920  -19.0048 C   0  0  0  0  0  0  0  0  0  0  0  0
   21.2205  -18.0383  -17.6049 C   0  0  2  0  0  0  0  0  0  0  0  0
   21.0715  -16.5122  -17.6896 N   0  0  0  0  0  0  0  0  0  0  0  0
   22.3823  -18.2105  -16.6914 C   0  0  0  0  0  0  0  0  0  0  0  0
   23.3238  -17.3828  -16.6484 O   0  0  0  0  0  0  0  0  0  0  0  0
   22.8377  -23.2338  -22.0972 N   0  0  0  0  0  0  0  0  0  0  0  0
   21.9961  -22.0683  -11.8445 C   0  0  0  0  0  0  0  0  0  0  0  0
   21.6322  -20.7157  -11.8132 O   0  0  0  0  0  0  0  0  0  0  0  0
   20.8021  -20.3225  -10.9712 C   0  0  0  0  0  0  0  0  0  0  0  0
   22.2133  -19.7474  -12.7598 C   0  0  0  0  0  0  0  0  0  0  0  0
   23.0958  -20.2909  -13.7989 C   0  0  2  0  0  0  0  0  0  0  0  0
   23.6411  -19.3951  -14.8627 N   0  0  0  0  0  0  0  0  0  0  0  0
   22.4955  -19.3153  -15.8184 C   0  0  0  0  0  0  0  0  0  0  0  0
   24.8040  -19.9764  -15.6066 O   0  0  0  0  0  0  0  0  0  0  0  0
   24.5301  -21.0519  -16.1964 N   0  0  0  0  0  0  0  0  0  0  0  0
   26.0892  -19.4591  -15.7031 C   0  0  0  0  0  0  0  0  0  0  0  0
   26.4589  -18.0057  -15.7042 C   0  0  0  0  0  0  0  0  0  0  0  0
   27.5158  -17.9928  -14.6367 C   0  0  0  0  0  0  0  0  0  0  0  0
   28.0395  -19.4344  -14.5605 C   0  0  2  0  0  0  0  0  0  0  0  0
   27.3929  -20.0308  -15.8208 C   0  0  0  0  0  0  0  0  0  0  0  0
   27.6126  -21.4323  -15.9526 O   0  0  0  0  0  0  0  0  0  0  0  0
   26.5962  -22.2125  -15.7744 O   0  0  0  0  0  0  0  0  0  0  0  0
  2  1  1  0
  3  2  2  0
  4  2  1  0
  5  4  1  0
  6  5  1  0
  7  6  1  0
  8  7  1  0
  8  9  1  6
 10 18  1  0
 10  8  1  0
 11 10  2  0
 13 14  2  0
 13 12  1  0
 15 13  1  0
 16 15  1  0
 17 16  1  1
 17 18  1  0
 19 17  1  0
 20 19  2  0
 21 22  1  0
 21 19  1  0
 23 22  1  0
 24 23  1  0
 24 25  1  0
 25 21  1  0
 26 28  1  0
 25 26  1  1
 27 26  2  0
M  END
$$$$
