RQP.pdb
     RDKit          3D

 28 28  0  0  1  0  0  0  0  0999 V2000
   27.1099  -20.4306  -16.8015 N   0  0  0  0  0  0  0  0  0  0  0  0
   27.3454  -21.6244  -16.0620 C   0  0  0  0  0  0  0  0  0  0  0  0
   28.4642  -22.2403  -16.2537 N   0  0  0  0  0  0  0  0  0  0  0  0
   26.4021  -22.1390  -15.1418 N   0  0  0  0  0  0  0  0  0  0  0  0
   25.7139  -21.2300  -14.1927 C   0  0  0  0  0  0  0  0  0  0  0  0
   24.4393  -20.7500  -14.7941 C   0  0  0  0  0  0  0  0  0  0  0  0
   23.3171  -21.6884  -14.9069 C   0  0  0  0  0  0  0  0  0  0  0  0
   23.0797  -22.7282  -13.8960 C   0  0  2  0  0  0  0  0  0  0  0  0
   23.7310  -23.9561  -14.5491 N   0  0  0  0  0  0  0  0  0  0  0  0
   21.6556  -23.1376  -13.7609 C   0  0  0  0  0  0  0  0  0  0  0  0
   21.0831  -23.8495  -14.6204 O   0  0  0  0  0  0  0  0  0  0  0  0
   28.7442  -23.1455  -15.8680 N   0  0  0  0  0  0  0  0  0  0  0  0
   19.2991  -24.2718   -8.3052 C   0  0  0  0  0  0  0  0  0  0  0  0
   18.1653  -24.5055   -9.0944 O   0  0  0  0  0  0  0  0  0  0  0  0
   17.1342  -24.9652   -8.5669 C   0  0  0  0  0  0  0  0  0  0  0  0
   18.1694  -24.2179  -10.5395 C   0  0  0  0  0  0  0  0  0  0  0  0
   19.3745  -23.5778  -11.0801 C   0  0  2  0  0  0  0  0  0  0  0  0
   19.4609  -23.2513  -12.5352 N   0  0  0  0  0  0  0  0  0  0  0  0
   20.8628  -22.7497  -12.6579 C   0  0  0  0  0  0  0  0  0  0  0  0
   18.5501  -22.1413  -12.9619 O   0  0  0  0  0  0  0  0  0  0  0  0
   18.5917  -21.1427  -12.1999 N   0  0  0  0  0  0  0  0  0  0  0  0
   17.7113  -22.1147  -14.0684 C   0  0  0  0  0  0  0  0  0  0  0  0
   17.7906  -23.0226  -15.2593 C   0  0  0  0  0  0  0  0  0  0  0  0
   16.3681  -23.5000  -15.3331 C   0  0  0  0  0  0  0  0  0  0  0  0
   15.5386  -22.4313  -14.6062 C   0  0  2  0  0  0  0  0  0  0  0  0
   16.5895  -21.3199  -14.4562 C   0  0  0  0  0  0  0  0  0  0  0  0
   16.1264  -20.2116  -13.6899 O   0  0  0  0  0  0  0  0  0  0  0  0
   16.3221  -20.2498  -12.4116 O   0  0  0  0  0  0  0  0  0  0  0  0
  2  1  1  0
  3  2  2  0
  4  2  1  0
  5  4  1  0
  6  5  1  0
  7  6  1  0
  8  7  1  0
  8  9  1  6
 10 18  1  0
 10  8  1  0
 11 10  2  0
 13 14  2  0
 13 12  1  0
 15 13  1  0
 16 15  1  0
 17 16  1  6
 17 18  1  0
 19 17  1  0
 20 19  2  0
 21 22  1  0
 21 19  1  0
 23 22  1  0
 24 23  1  0
 24 25  1  0
 25 21  1  0
 26 28  1  0
 25 26  1  1
 27 26  2  0
M  END
$$$$
