KRE.pdb
     RDKit          3D

 30 29  0  0  1  0  0  0  0  0999 V2000
   24.6224  -23.7619  -16.7023 N   0  0  0  0  0  0  0  0  0  0  0  0
   24.0802  -22.4441  -16.4542 C   0  0  1  0  0  0  0  0  0  0  0  0
   23.2793  -22.0408  -17.6782 C   0  0  0  0  0  0  0  0  0  0  0  0
   24.2888  -21.8403  -18.7875 C   0  0  0  0  0  0  0  0  0  0  0  0
   24.1202  -20.5297  -19.5006 C   0  0  0  0  0  0  0  0  0  0  0  0
   25.0892  -20.3269  -20.6174 C   0  0  0  0  0  0  0  0  0  0  0  0
   26.1695  -19.4865  -20.1238 N   0  0  0  0  0  0  0  0  0  0  0  0
   23.2920  -22.4273  -15.2127 C   0  0  0  0  0  0  0  0  0  0  0  0
   22.4784  -23.3302  -14.8944 O   0  0  0  0  0  0  0  0  0  0  0  0
   27.6231  -20.5278  -12.4868 N   0  0  0  0  0  0  0  0  0  0  0  0
   27.7980  -21.0334  -11.1797 C   0  0  0  0  0  0  0  0  0  0  0  0
   28.9010  -21.6299  -10.8930 N   0  0  0  0  0  0  0  0  0  0  0  0
   26.7563  -20.8719  -10.2147 N   0  0  0  0  0  0  0  0  0  0  0  0
   25.4869  -20.3185  -10.5639 C   0  0  0  0  0  0  0  0  0  0  0  0
   24.7123  -21.1748  -11.5574 C   0  0  0  0  0  0  0  0  0  0  0  0
   23.5469  -20.4476  -12.1205 C   0  0  0  0  0  0  0  0  0  0  0  0
   22.6771  -21.1983  -13.0746 C   0  0  2  0  0  0  0  0  0  0  0  0
   23.4562  -21.3331  -14.3227 N   0  0  0  0  0  0  0  0  0  0  0  0
   21.4011  -20.5616  -13.4247 C   0  0  0  0  0  0  0  0  0  0  0  0
   21.4072  -19.4898  -14.0824 O   0  0  0  0  0  0  0  0  0  0  0  0
   29.0373  -22.0487   -9.9657 N   0  0  0  0  0  0  0  0  0  0  0  0
   20.1203  -21.0646  -13.0799 C   0  0  2  0  0  0  0  0  0  0  0  0
   18.8883  -20.3852  -13.5305 C   0  0  0  0  0  0  0  0  0  0  0  0
   17.7701  -21.3679  -13.6229 C   0  0  0  0  0  0  0  0  0  0  0  0
   17.9206  -22.4292  -14.6573 C   0  0  0  0  0  0  0  0  0  0  0  0
   16.8576  -23.4460  -14.6787 O   0  0  0  0  0  0  0  0  0  0  0  0
   15.9548  -23.4370  -13.8302 C   0  0  0  0  0  0  0  0  0  0  0  0
   18.6066  -19.2747  -12.5994 O   0  0  0  0  0  0  0  0  0  0  0  0
   17.6807  -18.2797  -12.8559 O   0  0  0  0  0  0  0  0  0  0  0  0
   16.8675  -24.4194  -15.6546 O   0  0  0  0  0  0  0  0  0  0  0  0
  2  1  1  6
  3  4  1  0
  3  2  1  0
  4  5  1  0
  6  5  1  0
  7  6  1  0
  8  2  1  0
  8  9  2  0
 10 11  1  0
 11 13  1  0
 12 11  2  0
 13 14  1  0
 14 15  1  0
 16 15  1  0
 17 16  1  1
 17 18  1  0
 18  8  1  0
 19 20  2  0
 19 17  1  0
 21 19  1  0
 22 21  1  0
 22 23  1  6
 23 24  1  0
 24 25  1  0
 25 26  2  0
 25 29  1  0
 27 22  1  0
 28 27  1  0
 30 27  2  0
M  END
$$$$
