KRE.pdb
     RDKit          3D

 30 29  0  0  1  0  0  0  0  0999 V2000
   26.2200  -23.0300  -17.4038 N   0  0  0  0  0  0  0  0  0  0  0  0
   26.1112  -21.7949  -16.6590 C   0  0  1  0  0  0  0  0  0  0  0  0
   25.3034  -20.8234  -17.4991 C   0  0  0  0  0  0  0  0  0  0  0  0
   26.3050  -19.8610  -18.0993 C   0  0  0  0  0  0  0  0  0  0  0  0
   27.5639  -20.5390  -18.5577 C   0  0  0  0  0  0  0  0  0  0  0  0
   28.5733  -19.6019  -19.1326 C   0  0  0  0  0  0  0  0  0  0  0  0
   29.7391  -20.3827  -19.5171 N   0  0  0  0  0  0  0  0  0  0  0  0
   25.5309  -22.0347  -15.3291 C   0  0  0  0  0  0  0  0  0  0  0  0
   24.5048  -22.7331  -15.1347 O   0  0  0  0  0  0  0  0  0  0  0  0
   30.0534  -20.7326   -8.1590 N   0  0  0  0  0  0  0  0  0  0  0  0
   29.9706  -21.4151   -9.3927 C   0  0  0  0  0  0  0  0  0  0  0  0
   31.0334  -21.9653   -9.8642 N   0  0  0  0  0  0  0  0  0  0  0  0
   28.7203  -21.4789  -10.0821 N   0  0  0  0  0  0  0  0  0  0  0  0
   27.5587  -20.8047   -9.5966 C   0  0  0  0  0  0  0  0  0  0  0  0
   26.3279  -21.0294  -10.4656 C   0  0  0  0  0  0  0  0  0  0  0  0
   26.6820  -21.1503  -11.9022 C   0  0  0  0  0  0  0  0  0  0  0  0
   25.5779  -21.5016  -12.8444 C   0  0  2  0  0  0  0  0  0  0  0  0
   26.1613  -21.4466  -14.2007 N   0  0  0  0  0  0  0  0  0  0  0  0
   24.4118  -20.6093  -12.8357 C   0  0  0  0  0  0  0  0  0  0  0  0
   24.5223  -19.4463  -13.3012 O   0  0  0  0  0  0  0  0  0  0  0  0
   30.9957  -22.4964  -10.7419 N   0  0  0  0  0  0  0  0  0  0  0  0
   23.1291  -20.9530  -12.3368 C   0  0  1  0  0  0  0  0  0  0  0  0
   21.9366  -20.1537  -12.6854 C   0  0  0  0  0  0  0  0  0  0  0  0
   21.6769  -20.2405  -14.1516 C   0  0  0  0  0  0  0  0  0  0  0  0
   20.4089  -19.6188  -14.6257 C   0  0  0  0  0  0  0  0  0  0  0  0
   20.1314  -19.7667  -16.0628 O   0  0  0  0  0  0  0  0  0  0  0  0
   19.7695  -18.7956  -16.7417 C   0  0  0  0  0  0  0  0  0  0  0  0
   20.8044  -20.6330  -11.8683 O   0  0  0  0  0  0  0  0  0  0  0  0
   19.6682  -19.8832  -11.6237 O   0  0  0  0  0  0  0  0  0  0  0  0
   20.2761  -21.0009  -16.6596 O   0  0  0  0  0  0  0  0  0  0  0  0
  2  1  1  6
  3  4  1  0
  3  2  1  0
  4  5  1  0
  6  5  1  0
  7  6  1  0
  8  2  1  0
  8  9  2  0
 10 11  1  0
 11 13  1  0
 12 11  2  0
 13 14  1  0
 14 15  1  0
 16 15  1  0
 17 16  1  1
 17 18  1  0
 18  8  1  0
 19 20  2  0
 19 17  1  0
 21 19  1  0
 22 21  1  0
 22 23  1  1
 23 24  1  0
 24 25  1  0
 25 26  2  0
 25 29  1  0
 27 22  1  0
 28 27  1  0
 30 27  2  0
M  END
$$$$
