KRE.pdb
     RDKit          3D

 30 29  0  0  1  0  0  0  0  0999 V2000
   26.4730  -22.7951  -16.2480 N   0  0  0  0  0  0  0  0  0  0  0  0
   25.4464  -23.8049  -16.1135 C   0  0  1  0  0  0  0  0  0  0  0  0
   26.1130  -25.0710  -15.6085 C   0  0  0  0  0  0  0  0  0  0  0  0
   27.0554  -25.5108  -16.7077 C   0  0  0  0  0  0  0  0  0  0  0  0
   27.7675  -26.7935  -16.3877 C   0  0  0  0  0  0  0  0  0  0  0  0
   28.7606  -27.2014  -17.4244 C   0  0  0  0  0  0  0  0  0  0  0  0
   29.4853  -28.3570  -16.9179 N   0  0  0  0  0  0  0  0  0  0  0  0
   24.3591  -23.3338  -15.2424 C   0  0  0  0  0  0  0  0  0  0  0  0
   23.7604  -24.0700  -14.4191 O   0  0  0  0  0  0  0  0  0  0  0  0
   26.1240  -21.5509  -11.1009 N   0  0  0  0  0  0  0  0  0  0  0  0
   25.3330  -20.9927  -10.0726 C   0  0  0  0  0  0  0  0  0  0  0  0
   25.7631  -21.0562   -8.8620 N   0  0  0  0  0  0  0  0  0  0  0  0
   24.0855  -20.3756  -10.3971 N   0  0  0  0  0  0  0  0  0  0  0  0
   23.4625  -20.5622  -11.6686 C   0  0  0  0  0  0  0  0  0  0  0  0
   24.1812  -19.8393  -12.8005 C   0  0  0  0  0  0  0  0  0  0  0  0
   23.4758  -20.0053  -14.0962 C   0  0  0  0  0  0  0  0  0  0  0  0
   22.9681  -21.3718  -14.4204 C   0  0  2  0  0  0  0  0  0  0  0  0
   23.9613  -21.9737  -15.3338 N   0  0  0  0  0  0  0  0  0  0  0  0
   21.6642  -21.4347  -15.0927 C   0  0  0  0  0  0  0  0  0  0  0  0
   21.5072  -20.8402  -16.1897 O   0  0  0  0  0  0  0  0  0  0  0  0
   25.1902  -20.6972   -8.0895 N   0  0  0  0  0  0  0  0  0  0  0  0
   20.5297  -22.1311  -14.6024 C   0  0  2  0  0  0  0  0  0  0  0  0
   19.2273  -22.0490  -15.2949 C   0  0  0  0  0  0  0  0  0  0  0  0
   18.2963  -23.0797  -14.7513 C   0  0  0  0  0  0  0  0  0  0  0  0
   16.9167  -23.0713  -15.3131 C   0  0  0  0  0  0  0  0  0  0  0  0
   15.9805  -24.0285  -14.7038 O   0  0  0  0  0  0  0  0  0  0  0  0
   16.0549  -24.3086  -13.4992 C   0  0  0  0  0  0  0  0  0  0  0  0
   18.7137  -20.6724  -15.1507 O   0  0  0  0  0  0  0  0  0  0  0  0
   18.0244  -20.0066  -16.1479 O   0  0  0  0  0  0  0  0  0  0  0  0
   15.0096  -24.6200  -15.4833 O   0  0  0  0  0  0  0  0  0  0  0  0
  2  1  1  1
  3  4  1  0
  3  2  1  0
  4  5  1  0
  6  5  1  0
  7  6  1  0
  8  2  1  0
  8  9  2  0
 10 11  1  0
 11 13  1  0
 12 11  2  0
 13 14  1  0
 14 15  1  0
 16 15  1  0
 17 16  1  6
 17 18  1  0
 18  8  1  0
 19 20  2  0
 19 17  1  0
 21 19  1  0
 22 21  1  0
 22 23  1  6
 23 24  1  0
 24 25  1  0
 25 26  2  0
 25 29  1  0
 27 22  1  0
 28 27  1  0
 30 27  2  0
M  END
$$$$
