KRE.pdb
     RDKit          3D

 30 29  0  0  1  0  0  0  0  0999 V2000
   28.6820  -22.1124  -18.1245 N   0  0  0  0  0  0  0  0  0  0  0  0
   27.4396  -22.8436  -18.2417 C   0  0  1  0  0  0  0  0  0  0  0  0
   27.7760  -24.2441  -18.7188 C   0  0  0  0  0  0  0  0  0  0  0  0
   29.2701  -24.3980  -18.5343 C   0  0  0  0  0  0  0  0  0  0  0  0
   29.6435  -25.6702  -17.8297 C   0  0  0  0  0  0  0  0  0  0  0  0
   31.1147  -25.9153  -17.7763 C   0  0  0  0  0  0  0  0  0  0  0  0
   31.3358  -27.1429  -17.0274 N   0  0  0  0  0  0  0  0  0  0  0  0
   26.6990  -22.8249  -16.9713 C   0  0  0  0  0  0  0  0  0  0  0  0
   26.0140  -23.7913  -16.5525 O   0  0  0  0  0  0  0  0  0  0  0  0
   26.3292  -20.4607   -8.8952 N   0  0  0  0  0  0  0  0  0  0  0  0
   25.1016  -20.7668   -9.5229 C   0  0  0  0  0  0  0  0  0  0  0  0
   24.0193  -20.6797   -8.8334 N   0  0  0  0  0  0  0  0  0  0  0  0
   25.0897  -21.1617  -10.8964 N   0  0  0  0  0  0  0  0  0  0  0  0
   26.2741  -21.1440  -11.6942 C   0  0  0  0  0  0  0  0  0  0  0  0
   26.2388  -20.0935  -12.7968 C   0  0  0  0  0  0  0  0  0  0  0  0
   26.8608  -20.5891  -14.0504 C   0  0  0  0  0  0  0  0  0  0  0  0
   26.0548  -21.5357  -14.8778 C   0  0  2  0  0  0  0  0  0  0  0  0
   26.7584  -21.6530  -16.1716 N   0  0  0  0  0  0  0  0  0  0  0  0
   24.6747  -21.1270  -15.1683 C   0  0  0  0  0  0  0  0  0  0  0  0
   24.4698  -20.1280  -15.9042 O   0  0  0  0  0  0  0  0  0  0  0  0
   23.1098  -20.8662   -9.2715 N   0  0  0  0  0  0  0  0  0  0  0  0
   23.5137  -21.7805  -14.6810 C   0  0  2  0  0  0  0  0  0  0  0  0
   22.1649  -21.2468  -14.9605 C   0  0  0  0  0  0  0  0  0  0  0  0
   21.1292  -22.2267  -14.5226 C   0  0  0  0  0  0  0  0  0  0  0  0
   19.7134  -21.7915  -14.6811 C   0  0  0  0  0  0  0  0  0  0  0  0
   18.7000  -22.7802  -14.2816 O   0  0  0  0  0  0  0  0  0  0  0  0
   18.7845  -23.9596  -14.6516 C   0  0  0  0  0  0  0  0  0  0  0  0
   22.0396  -19.9360  -14.2930 O   0  0  0  0  0  0  0  0  0  0  0  0
   21.5447  -18.8056  -14.9176 O   0  0  0  0  0  0  0  0  0  0  0  0
   17.6444  -22.3883  -13.4863 O   0  0  0  0  0  0  0  0  0  0  0  0
  2  1  1  1
  3  4  1  0
  3  2  1  0
  4  5  1  0
  6  5  1  0
  7  6  1  0
  8  2  1  0
  8  9  2  0
 10 11  1  0
 11 13  1  0
 12 11  2  0
 13 14  1  0
 14 15  1  0
 16 15  1  0
 17 16  1  1
 17 18  1  0
 18  8  1  0
 19 20  2  0
 19 17  1  0
 21 19  1  0
 22 21  1  0
 22 23  1  1
 23 24  1  0
 24 25  1  0
 25 26  2  0
 25 29  1  0
 27 22  1  0
 28 27  1  0
 30 27  2  0
M  END
$$$$
