KRE.pdb
     RDKit          3D

 30 29  0  0  1  0  0  0  0  0999 V2000
   19.1790  -12.6646  -15.1456 N   0  0  0  0  0  0  0  0  0  0  0  0
   18.9851  -11.5145  -16.0010 C   0  0  1  0  0  0  0  0  0  0  0  0
   17.4970  -11.3895  -16.2696 C   0  0  0  0  0  0  0  0  0  0  0  0
   17.0768  -12.7008  -16.8970 C   0  0  0  0  0  0  0  0  0  0  0  0
   15.5954  -12.7908  -17.1250 C   0  0  0  0  0  0  0  0  0  0  0  0
   15.1765  -14.0202  -17.8603 C   0  0  0  0  0  0  0  0  0  0  0  0
   13.7326  -13.9678  -18.0311 N   0  0  0  0  0  0  0  0  0  0  0  0
   19.5697  -10.3079  -15.3967 C   0  0  0  0  0  0  0  0  0  0  0  0
   19.0966   -9.7415  -14.3799 O   0  0  0  0  0  0  0  0  0  0  0  0
   27.8518  -10.1744  -16.1463 N   0  0  0  0  0  0  0  0  0  0  0  0
   27.1495  -11.1346  -15.3850 C   0  0  0  0  0  0  0  0  0  0  0  0
   27.8094  -12.1049  -14.8582 N   0  0  0  0  0  0  0  0  0  0  0  0
   25.7358  -11.0072  -15.2182 N   0  0  0  0  0  0  0  0  0  0  0  0
   25.0171   -9.8821  -15.7252 C   0  0  0  0  0  0  0  0  0  0  0  0
   23.5357   -9.9077  -15.3714 C   0  0  0  0  0  0  0  0  0  0  0  0
   22.8417   -8.6726  -15.8150 C   0  0  0  0  0  0  0  0  0  0  0  0
   21.3972   -8.5426  -15.4586 C   0  0  2  0  0  0  0  0  0  0  0  0
   20.7318   -9.7493  -15.9915 N   0  0  0  0  0  0  0  0  0  0  0  0
   20.6964   -7.3779  -16.0139 C   0  0  0  0  0  0  0  0  0  0  0  0
   20.4307   -7.3467  -17.2427 O   0  0  0  0  0  0  0  0  0  0  0  0
   27.3163  -12.8624  -14.3716 N   0  0  0  0  0  0  0  0  0  0  0  0
   20.2748   -6.2496  -15.2645 C   0  0  2  0  0  0  0  0  0  0  0  0
   19.5630   -5.1281  -15.9110 C   0  0  0  0  0  0  0  0  0  0  0  0
   18.4845   -4.6244  -15.0122 C   0  0  0  0  0  0  0  0  0  0  0  0
   17.6976   -3.4681  -15.5248 C   0  0  0  0  0  0  0  0  0  0  0  0
   16.6631   -2.9543  -14.6138 O   0  0  0  0  0  0  0  0  0  0  0  0
   16.5042   -3.4516  -13.4901 C   0  0  0  0  0  0  0  0  0  0  0  0
   20.5547   -4.0922  -16.2610 O   0  0  0  0  0  0  0  0  0  0  0  0
   21.8785   -4.1372  -15.8627 O   0  0  0  0  0  0  0  0  0  0  0  0
   15.8618   -1.9074  -15.0164 O   0  0  0  0  0  0  0  0  0  0  0  0
  2  1  1  1
  3  4  1  0
  3  2  1  0
  4  5  1  0
  6  5  1  0
  7  6  1  0
  8  2  1  0
  8  9  2  0
 10 11  1  0
 11 13  1  0
 12 11  2  0
 13 14  1  0
 14 15  1  0
 16 15  1  0
 17 16  1  6
 17 18  1  0
 18  8  1  0
 19 20  2  0
 19 17  1  0
 21 19  1  0
 22 21  1  0
 22 23  1  6
 23 24  1  0
 24 25  1  0
 25 26  2  0
 25 29  1  0
 27 22  1  0
 28 27  1  0
 30 27  2  0
M  END
$$$$
