KRE.pdb
     RDKit          3D

 30 29  0  0  1  0  0  0  0  0999 V2000
   18.2257  -18.7189  -15.1860 N   0  0  0  0  0  0  0  0  0  0  0  0
   19.1514  -18.4556  -16.2658 C   0  0  1  0  0  0  0  0  0  0  0  0
   18.6283  -17.2568  -17.0350 C   0  0  0  0  0  0  0  0  0  0  0  0
   17.2612  -17.6558  -17.5463 C   0  0  0  0  0  0  0  0  0  0  0  0
   16.6131  -16.5858  -18.3768 C   0  0  0  0  0  0  0  0  0  0  0  0
   15.2391  -16.9380  -18.8408 C   0  0  0  0  0  0  0  0  0  0  0  0
   14.7139  -15.8023  -19.5831 N   0  0  0  0  0  0  0  0  0  0  0  0
   20.5159  -18.2653  -15.7513 C   0  0  0  0  0  0  0  0  0  0  0  0
   20.8926  -17.2294  -15.1485 O   0  0  0  0  0  0  0  0  0  0  0  0
   25.8333  -22.6554  -11.7318 N   0  0  0  0  0  0  0  0  0  0  0  0
   26.6062  -21.5313  -12.0977 C   0  0  0  0  0  0  0  0  0  0  0  0
   27.8769  -21.6761  -12.2345 N   0  0  0  0  0  0  0  0  0  0  0  0
   25.9651  -20.2711  -12.3062 N   0  0  0  0  0  0  0  0  0  0  0  0
   24.5726  -20.1766  -12.6086 C   0  0  0  0  0  0  0  0  0  0  0  0
   24.1937  -20.8673  -13.9123 C   0  0  0  0  0  0  0  0  0  0  0  0
   22.8539  -20.4439  -14.3913 C   0  0  0  0  0  0  0  0  0  0  0  0
   22.8062  -19.2841  -15.3309 C   0  0  2  0  0  0  0  0  0  0  0  0
   21.4621  -19.3064  -15.9441 N   0  0  0  0  0  0  0  0  0  0  0  0
   23.7844  -19.2982  -16.4258 C   0  0  0  0  0  0  0  0  0  0  0  0
   23.6637  -20.1434  -17.3492 O   0  0  0  0  0  0  0  0  0  0  0  0
   28.4678  -20.8699  -12.4680 N   0  0  0  0  0  0  0  0  0  0  0  0
   24.8872  -18.4134  -16.5420 C   0  0  2  0  0  0  0  0  0  0  0  0
   25.8376  -18.5240  -17.6676 C   0  0  0  0  0  0  0  0  0  0  0  0
   26.4773  -17.2015  -17.9250 C   0  0  0  0  0  0  0  0  0  0  0  0
   27.5204  -17.1793  -18.9883 C   0  0  0  0  0  0  0  0  0  0  0  0
   28.1690  -15.8776  -19.2100 O   0  0  0  0  0  0  0  0  0  0  0  0
   27.8225  -14.8786  -18.5643 C   0  0  0  0  0  0  0  0  0  0  0  0
   26.8124  -19.5850  -17.3463 O   0  0  0  0  0  0  0  0  0  0  0  0
   26.9939  -20.0948  -16.0734 O   0  0  0  0  0  0  0  0  0  0  0  0
   29.1739  -15.7697  -20.1474 O   0  0  0  0  0  0  0  0  0  0  0  0
  2  1  1  1
  3  4  1  0
  3  2  1  0
  4  5  1  0
  6  5  1  0
  7  6  1  0
  8  2  1  0
  8  9  2  0
 10 11  1  0
 11 13  1  0
 12 11  2  0
 13 14  1  0
 14 15  1  0
 16 15  1  0
 17 16  1  1
 17 18  1  0
 18  8  1  0
 19 20  2  0
 19 17  1  0
 21 19  1  0
 22 21  1  0
 22 23  1  1
 23 24  1  0
 24 25  1  0
 25 26  2  0
 25 29  1  0
 27 22  1  0
 28 27  1  0
 30 27  2  0
M  END
$$$$
