KRE.pdb
     RDKit          3D

 30 29  0  0  1  0  0  0  0  0999 V2000
   29.2555  -24.2756  -16.4470 N   0  0  0  0  0  0  0  0  0  0  0  0
   28.1143  -23.6943  -17.1191 C   0  0  1  0  0  0  0  0  0  0  0  0
   27.1809  -24.8283  -17.4999 C   0  0  0  0  0  0  0  0  0  0  0  0
   28.0293  -25.8289  -18.2541 C   0  0  0  0  0  0  0  0  0  0  0  0
   27.2171  -26.9155  -18.8979 C   0  0  0  0  0  0  0  0  0  0  0  0
   28.0133  -27.8105  -19.7880 C   0  0  0  0  0  0  0  0  0  0  0  0
   27.1127  -28.8162  -20.3306 N   0  0  0  0  0  0  0  0  0  0  0  0
   27.4742  -22.6733  -16.2761 C   0  0  0  0  0  0  0  0  0  0  0  0
   27.4557  -22.7210  -15.0208 O   0  0  0  0  0  0  0  0  0  0  0  0
   25.9380  -15.0829  -17.5827 N   0  0  0  0  0  0  0  0  0  0  0  0
   26.5755  -14.7091  -16.3791 C   0  0  0  0  0  0  0  0  0  0  0  0
   26.2569  -13.5873  -15.8364 N   0  0  0  0  0  0  0  0  0  0  0  0
   27.5499  -15.5775  -15.7968 N   0  0  0  0  0  0  0  0  0  0  0  0
   27.8486  -16.8563  -16.3579 C   0  0  0  0  0  0  0  0  0  0  0  0
   26.8093  -17.9173  -16.0196 C   0  0  0  0  0  0  0  0  0  0  0  0
   27.1819  -19.2472  -16.5640 C   0  0  0  0  0  0  0  0  0  0  0  0
   26.3307  -20.4063  -16.1612 C   0  0  2  0  0  0  0  0  0  0  0  0
   26.8414  -21.5722  -16.9114 N   0  0  0  0  0  0  0  0  0  0  0  0
   24.8976  -20.2907  -16.4592 C   0  0  0  0  0  0  0  0  0  0  0  0
   24.5189  -20.2476  -17.6576 O   0  0  0  0  0  0  0  0  0  0  0  0
   26.7354  -13.2692  -14.9858 N   0  0  0  0  0  0  0  0  0  0  0  0
   23.8677  -20.2247  -15.4859 C   0  0  2  0  0  0  0  0  0  0  0  0
   22.4513  -20.0882  -15.8832 C   0  0  0  0  0  0  0  0  0  0  0  0
   21.5749  -20.7610  -14.8813 C   0  0  0  0  0  0  0  0  0  0  0  0
   21.3961  -22.2296  -15.0554 C   0  0  0  0  0  0  0  0  0  0  0  0
   20.4470  -22.8649  -14.1282 O   0  0  0  0  0  0  0  0  0  0  0  0
   20.1281  -24.0544  -14.2639 C   0  0  0  0  0  0  0  0  0  0  0  0
   22.1523  -18.6511  -16.0404 O   0  0  0  0  0  0  0  0  0  0  0  0
   21.1108  -18.1681  -16.8116 O   0  0  0  0  0  0  0  0  0  0  0  0
   19.9069  -22.1269  -13.0968 O   0  0  0  0  0  0  0  0  0  0  0  0
  2  1  1  1
  3  4  1  0
  3  2  1  0
  4  5  1  0
  6  5  1  0
  7  6  1  0
  8  2  1  0
  8  9  2  0
 10 11  1  0
 11 13  1  0
 12 11  2  0
 13 14  1  0
 14 15  1  0
 16 15  1  0
 17 16  1  6
 17 18  1  0
 18  8  1  0
 19 20  2  0
 19 17  1  0
 21 19  1  0
 22 21  1  0
 22 23  1  1
 23 24  1  0
 24 25  1  0
 25 26  2  0
 25 29  1  0
 27 22  1  0
 28 27  1  0
 30 27  2  0
M  END
$$$$
