NMT.pdb
     RDKit          3D

 24 23  0  0  1  0  0  0  0  0999 V2000
   18.9392  -21.7114  -10.9609 N   0  0  0  0  0  0  0  0  0  0  0  0
   19.3168  -20.5560  -11.7002 C   0  0  0  0  0  0  0  0  0  0  0  0
   18.4484  -19.9707  -12.3691 O   0  0  0  0  0  0  0  0  0  0  0  0
   20.7247  -20.1151  -11.6312 C   0  0  0  0  0  0  0  0  0  0  0  0
   21.5680  -21.0894  -10.8510 C   0  0  2  0  0  0  0  0  0  0  0  0
   21.0918  -21.1831   -9.4815 N   0  0  0  0  0  0  0  0  0  0  0  0
   22.9724  -20.5700  -10.8893 C   0  0  0  0  0  0  0  0  0  0  0  0
   23.2579  -19.7892  -11.8315 O   0  0  0  0  0  0  0  0  0  0  0  0
   27.1527  -18.8077   -6.1052 C   0  0  0  0  0  0  0  0  0  0  0  0
   28.0172  -20.1443   -6.9587 S   0  0  0  0  0  0  0  0  0  0  0  0
   27.3527  -20.2443   -8.6491 C   0  0  0  0  0  0  0  0  0  0  0  0
   25.9263  -20.6625   -8.6756 C   0  0  0  0  0  0  0  0  0  0  0  0
   25.2802  -20.4618  -10.0177 C   0  0  2  0  0  0  0  0  0  0  0  0
   23.9002  -20.9508   -9.9126 N   0  0  0  0  0  0  0  0  0  0  0  0
   25.9613  -21.2633  -11.0514 C   0  0  0  0  0  0  0  0  0  0  0  0
   26.2438  -22.4913  -10.9068 O   0  0  0  0  0  0  0  0  0  0  0  0
   25.1169  -23.1396  -13.3881 C   0  0  0  0  0  0  0  0  0  0  0  0
   25.8513  -22.0658  -14.1611 C   0  0  1  0  0  0  0  0  0  0  0  0
   24.9666  -21.0425  -14.5404 O   0  0  0  0  0  0  0  0  0  0  0  0
   26.9479  -21.4531  -13.3154 C   0  0  2  0  0  0  0  0  0  0  0  0
   26.3305  -20.6553  -12.2784 N   0  0  0  0  0  0  0  0  0  0  0  0
   27.8286  -20.6207  -14.1399 C   0  0  0  0  0  0  0  0  0  0  0  0
   27.7705  -19.2397  -14.0064 O   0  0  0  0  0  0  0  0  0  0  0  0
   28.6502  -21.1065  -14.9786 O   0  0  0  0  0  0  0  0  0  0  0  0
  1  2  1  0
  2  3  2  0
  4  2  1  0
  5  7  1  0
  5  4  1  0
  5  6  1  1
  7  8  2  0
  9 10  1  0
 10 11  1  0
 11 12  1  0
 13 12  1  1
 14  7  1  0
 14 13  1  0
 15 21  1  0
 15 13  1  0
 16 15  2  0
 18 17  1  1
 18 19  1  0
 20 22  1  0
 20 18  1  0
 20 21  1  1
 22 23  1  0
 24 22  2  0
M  END
$$$$
