NMT.pdb
     RDKit          3D

 24 23  0  0  1  0  0  0  0  0999 V2000
   16.4392  -11.1271  -19.2240 N   0  0  0  0  0  0  0  0  0  0  0  0
   16.7194  -11.8611  -18.0380 C   0  0  0  0  0  0  0  0  0  0  0  0
   16.0546  -12.8846  -17.8038 O   0  0  0  0  0  0  0  0  0  0  0  0
   17.7882  -11.3643  -17.1481 C   0  0  0  0  0  0  0  0  0  0  0  0
   18.4458  -10.1326  -17.7138 C   0  0  2  0  0  0  0  0  0  0  0  0
   19.4112  -10.5014  -18.7350 N   0  0  0  0  0  0  0  0  0  0  0  0
   19.1224   -9.4419  -16.5696 C   0  0  0  0  0  0  0  0  0  0  0  0
   18.3789   -9.0167  -15.6502 O   0  0  0  0  0  0  0  0  0  0  0  0
   23.7726  -13.2156  -13.9894 C   0  0  0  0  0  0  0  0  0  0  0  0
   24.0287  -11.5325  -14.5929 S   0  0  0  0  0  0  0  0  0  0  0  0
   22.3993  -10.7334  -14.7159 C   0  0  0  0  0  0  0  0  0  0  0  0
   22.4887   -9.3314  -15.2023 C   0  0  0  0  0  0  0  0  0  0  0  0
   21.1441   -8.6819  -15.3729 C   0  0  2  0  0  0  0  0  0  0  0  0
   20.5140   -9.2912  -16.5503 N   0  0  0  0  0  0  0  0  0  0  0  0
   21.2901   -7.2389  -15.6402 C   0  0  0  0  0  0  0  0  0  0  0  0
   21.5250   -6.7643  -16.7928 O   0  0  0  0  0  0  0  0  0  0  0  0
   20.1859   -2.7037  -14.6429 C   0  0  0  0  0  0  0  0  0  0  0  0
   20.0152   -4.2070  -14.6171 C   0  0  1  0  0  0  0  0  0  0  0  0
   19.1407   -4.6189  -15.6365 O   0  0  0  0  0  0  0  0  0  0  0  0
   21.3453   -4.9001  -14.8266 C   0  0  2  0  0  0  0  0  0  0  0  0
   21.1667   -6.3131  -14.5729 N   0  0  0  0  0  0  0  0  0  0  0  0
   22.3608   -4.3468  -13.9261 C   0  0  0  0  0  0  0  0  0  0  0  0
   23.0244   -3.1831  -14.2920 O   0  0  0  0  0  0  0  0  0  0  0  0
   22.6660   -4.8858  -12.8167 O   0  0  0  0  0  0  0  0  0  0  0  0
  1  2  1  0
  2  3  2  0
  4  2  1  0
  5  7  1  0
  5  4  1  0
  5  6  1  6
  7  8  2  0
  9 10  1  0
 10 11  1  0
 11 12  1  0
 13 12  1  6
 14  7  1  0
 14 13  1  0
 15 21  1  0
 15 13  1  0
 16 15  2  0
 18 17  1  6
 18 19  1  0
 20 22  1  0
 20 18  1  0
 20 21  1  1
 22 23  1  0
 24 22  2  0
M  END
$$$$
