NMT.pdb
     RDKit          3D

 24 23  0  0  1  0  0  0  0  0999 V2000
   28.2170  -11.8768  -20.2110 N   0  0  0  0  0  0  0  0  0  0  0  0
   28.3738  -12.3491  -18.8782 C   0  0  0  0  0  0  0  0  0  0  0  0
   27.8538  -13.4346  -18.5693 O   0  0  0  0  0  0  0  0  0  0  0  0
   29.1485  -11.5201  -17.9327 C   0  0  0  0  0  0  0  0  0  0  0  0
   29.6584  -10.2654  -18.5923 C   0  0  2  0  0  0  0  0  0  0  0  0
   30.6801  -10.5916  -19.5726 N   0  0  0  0  0  0  0  0  0  0  0  0
   30.2239   -9.4060  -17.5035 C   0  0  0  0  0  0  0  0  0  0  0  0
   29.4176   -9.0058  -16.6268 O   0  0  0  0  0  0  0  0  0  0  0  0
   36.4670   -9.2475  -16.2325 C   0  0  0  0  0  0  0  0  0  0  0  0
   35.8890   -8.3425  -14.7801 S   0  0  0  0  0  0  0  0  0  0  0  0
   34.1768   -7.8176  -15.0986 C   0  0  0  0  0  0  0  0  0  0  0  0
   33.5138   -8.6429  -16.1425 C   0  0  0  0  0  0  0  0  0  0  0  0
   32.0955   -8.2237  -16.4098 C   0  0  2  0  0  0  0  0  0  0  0  0
   31.5852   -9.0802  -17.4870 N   0  0  0  0  0  0  0  0  0  0  0  0
   32.0430   -6.8285  -16.8848 C   0  0  0  0  0  0  0  0  0  0  0  0
   32.3678   -5.8352  -16.1660 O   0  0  0  0  0  0  0  0  0  0  0  0
   33.7340   -5.6151  -20.0393 C   0  0  0  0  0  0  0  0  0  0  0  0
   32.2704   -5.2359  -20.1020 C   0  0  1  0  0  0  0  0  0  0  0  0
   31.5539   -6.1706  -20.8680 O   0  0  0  0  0  0  0  0  0  0  0  0
   31.6669   -5.2008  -18.7135 C   0  0  2  0  0  0  0  0  0  0  0  0
   31.6109   -6.5550  -18.2077 N   0  0  0  0  0  0  0  0  0  0  0  0
   30.3229   -4.6170  -18.7517 C   0  0  0  0  0  0  0  0  0  0  0  0
   29.2253   -5.4357  -18.5206 O   0  0  0  0  0  0  0  0  0  0  0  0
   30.1122   -3.3865  -18.9883 O   0  0  0  0  0  0  0  0  0  0  0  0
  1  2  1  0
  2  3  2  0
  4  2  1  0
  5  7  1  0
  5  4  1  0
  5  6  1  6
  7  8  2  0
  9 10  1  0
 10 11  1  0
 11 12  1  0
 13 12  1  6
 14  7  1  0
 14 13  1  0
 15 21  1  0
 15 13  1  0
 16 15  2  0
 18 17  1  1
 18 19  1  0
 20 22  1  0
 20 18  1  0
 20 21  1  6
 22 23  1  0
 24 22  2  0
M  END
$$$$
