NMT.pdb
     RDKit          3D

 24 23  0  0  1  0  0  0  0  0999 V2000
   28.9004  -16.9913  -17.1941 N   0  0  0  0  0  0  0  0  0  0  0  0
   27.4818  -16.8834  -17.1968 C   0  0  0  0  0  0  0  0  0  0  0  0
   26.9620  -15.9209  -17.7865 O   0  0  0  0  0  0  0  0  0  0  0  0
   26.7033  -17.9247  -16.4963 C   0  0  0  0  0  0  0  0  0  0  0  0
   27.6052  -18.9455  -15.8529 C   0  0  2  0  0  0  0  0  0  0  0  0
   28.2538  -19.7560  -16.8695 N   0  0  0  0  0  0  0  0  0  0  0  0
   26.7377  -19.7928  -14.9735 C   0  0  0  0  0  0  0  0  0  0  0  0
   26.1754  -20.7760  -15.5174 O   0  0  0  0  0  0  0  0  0  0  0  0
   24.6284  -21.4296   -7.5850 C   0  0  0  0  0  0  0  0  0  0  0  0
   25.6619  -20.3987   -8.6489 S   0  0  0  0  0  0  0  0  0  0  0  0
   25.2636  -20.8094  -10.3756 C   0  0  0  0  0  0  0  0  0  0  0  0
   26.1094  -20.0663  -11.3466 C   0  0  0  0  0  0  0  0  0  0  0  0
   25.7686  -20.3734  -12.7778 C   0  0  2  0  0  0  0  0  0  0  0  0
   26.5787  -19.4828  -13.6176 N   0  0  0  0  0  0  0  0  0  0  0  0
   24.3499  -20.0792  -13.0526 C   0  0  0  0  0  0  0  0  0  0  0  0
   23.8974  -18.9029  -13.1959 O   0  0  0  0  0  0  0  0  0  0  0  0
   20.1726  -21.5106  -14.9913 C   0  0  0  0  0  0  0  0  0  0  0  0
   21.6524  -21.6512  -14.7079 C   0  0  1  0  0  0  0  0  0  0  0  0
   22.4070  -21.1690  -15.7903 O   0  0  0  0  0  0  0  0  0  0  0  0
   22.0381  -20.8622  -13.4741 C   0  0  2  0  0  0  0  0  0  0  0  0
   23.4229  -21.1465  -13.1670 N   0  0  0  0  0  0  0  0  0  0  0  0
   21.1816  -21.2270  -12.3420 C   0  0  0  0  0  0  0  0  0  0  0  0
   19.9658  -20.5760  -12.1790 O   0  0  0  0  0  0  0  0  0  0  0  0
   21.5011  -22.1185  -11.4948 O   0  0  0  0  0  0  0  0  0  0  0  0
  1  2  1  0
  2  3  2  0
  4  2  1  0
  5  7  1  0
  5  4  1  0
  5  6  1  6
  7  8  2  0
  9 10  1  0
 10 11  1  0
 11 12  1  0
 13 12  1  1
 14  7  1  0
 14 13  1  0
 15 21  1  0
 15 13  1  0
 16 15  2  0
 18 17  1  6
 18 19  1  0
 20 22  1  0
 20 18  1  0
 20 21  1  1
 22 23  1  0
 24 22  2  0
M  END
$$$$
