NMT.pdb
     RDKit          3D

 24 23  0  0  1  0  0  0  0  0999 V2000
   20.2864  -23.0576  -10.8888 N   0  0  0  0  0  0  0  0  0  0  0  0
   19.8208  -21.7264  -10.7015 C   0  0  0  0  0  0  0  0  0  0  0  0
   18.8183  -21.3548  -11.3348 O   0  0  0  0  0  0  0  0  0  0  0  0
   20.5573  -20.8573   -9.7616 C   0  0  0  0  0  0  0  0  0  0  0  0
   21.7262  -21.5807   -9.1453 C   0  0  2  0  0  0  0  0  0  0  0  0
   21.6541  -21.5103   -7.6958 N   0  0  0  0  0  0  0  0  0  0  0  0
   22.9646  -20.9041   -9.6477 C   0  0  0  0  0  0  0  0  0  0  0  0
   22.8524  -19.6960   -9.9744 O   0  0  0  0  0  0  0  0  0  0  0  0
   27.7213  -18.7073   -5.8609 C   0  0  0  0  0  0  0  0  0  0  0  0
   27.7912  -20.1327   -6.9682 S   0  0  0  0  0  0  0  0  0  0  0  0
   26.4989  -19.9186   -8.2302 C   0  0  0  0  0  0  0  0  0  0  0  0
   26.4330  -21.0633   -9.1767 C   0  0  0  0  0  0  0  0  0  0  0  0
   25.3660  -20.9002  -10.2225 C   0  0  2  0  0  0  0  0  0  0  0  0
   24.1728  -21.6052   -9.7389 N   0  0  0  0  0  0  0  0  0  0  0  0
   25.7754  -21.5318  -11.4907 C   0  0  0  0  0  0  0  0  0  0  0  0
   26.0607  -22.7632  -11.5953 O   0  0  0  0  0  0  0  0  0  0  0  0
   23.9171  -21.3607  -14.8475 C   0  0  0  0  0  0  0  0  0  0  0  0
   25.3239  -20.8262  -15.0060 C   0  0  1  0  0  0  0  0  0  0  0  0
   25.3287  -19.4241  -14.9182 O   0  0  0  0  0  0  0  0  0  0  0  0
   26.2286  -21.3708  -13.9205 C   0  0  2  0  0  0  0  0  0  0  0  0
   25.8632  -20.7458  -12.6680 N   0  0  0  0  0  0  0  0  0  0  0  0
   27.6332  -21.0945  -14.2352 C   0  0  0  0  0  0  0  0  0  0  0  0
   28.2299  -21.7610  -15.2973 O   0  0  0  0  0  0  0  0  0  0  0  0
   28.3374  -20.2667  -13.5769 O   0  0  0  0  0  0  0  0  0  0  0  0
  1  2  1  0
  2  3  2  0
  4  2  1  0
  5  7  1  0
  5  4  1  0
  5  6  1  1
  7  8  2  0
  9 10  1  0
 10 11  1  0
 11 12  1  0
 13 12  1  1
 14  7  1  0
 14 13  1  0
 15 21  1  0
 15 13  1  0
 16 15  2  0
 18 17  1  1
 18 19  1  0
 20 22  1  0
 20 18  1  0
 20 21  1  1
 22 23  1  0
 24 22  2  0
M  END
$$$$
