NMT.pdb
     RDKit          3D

 24 23  0  0  1  0  0  0  0  0999 V2000
   33.4535  -17.1636  -18.3911 N   0  0  0  0  0  0  0  0  0  0  0  0
   32.4064  -16.3825  -18.9544 C   0  0  0  0  0  0  0  0  0  0  0  0
   31.7804  -16.8422  -19.9245 O   0  0  0  0  0  0  0  0  0  0  0  0
   32.1205  -15.0643  -18.3528 C   0  0  0  0  0  0  0  0  0  0  0  0
   31.7080  -14.0611  -19.3982 C   0  0  2  0  0  0  0  0  0  0  0  0
   32.8192  -13.7782  -20.2905 N   0  0  0  0  0  0  0  0  0  0  0  0
   31.2884  -12.8238  -18.6655 C   0  0  0  0  0  0  0  0  0  0  0  0
   30.2863  -12.9273  -17.9145 O   0  0  0  0  0  0  0  0  0  0  0  0
   33.7217   -6.5264  -14.9563 C   0  0  0  0  0  0  0  0  0  0  0  0
   34.1500   -8.0245  -15.8702 S   0  0  0  0  0  0  0  0  0  0  0  0
   32.6299   -8.6554  -16.6447 C   0  0  0  0  0  0  0  0  0  0  0  0
   32.8482   -9.9384  -17.3636 C   0  0  0  0  0  0  0  0  0  0  0  0
   31.6037  -10.4599  -18.0255 C   0  0  2  0  0  0  0  0  0  0  0  0
   31.9943  -11.6258  -18.8271 N   0  0  0  0  0  0  0  0  0  0  0  0
   31.0391   -9.4541  -18.9445 C   0  0  0  0  0  0  0  0  0  0  0  0
   31.5503   -9.1755  -20.0714 O   0  0  0  0  0  0  0  0  0  0  0  0
   27.1950   -6.7007  -20.2169 C   0  0  0  0  0  0  0  0  0  0  0  0
   27.8178   -7.8325  -19.4289 C   0  0  1  0  0  0  0  0  0  0  0  0
   27.4443   -9.0727  -19.9730 O   0  0  0  0  0  0  0  0  0  0  0  0
   29.3289   -7.7383  -19.4606 C   0  0  2  0  0  0  0  0  0  0  0  0
   29.8662   -8.7477  -18.5745 N   0  0  0  0  0  0  0  0  0  0  0  0
   29.7699   -6.4056  -19.0390 C   0  0  0  0  0  0  0  0  0  0  0  0
   29.8433   -5.3897  -19.9829 O   0  0  0  0  0  0  0  0  0  0  0  0
   30.0912   -6.1328  -17.8403 O   0  0  0  0  0  0  0  0  0  0  0  0
  1  2  1  0
  2  3  2  0
  4  2  1  0
  5  7  1  0
  5  4  1  0
  5  6  1  6
  7  8  2  0
  9 10  1  0
 10 11  1  0
 11 12  1  0
 13 12  1  6
 14  7  1  0
 14 13  1  0
 15 21  1  0
 15 13  1  0
 16 15  2  0
 18 17  1  6
 18 19  1  0
 20 22  1  0
 20 18  1  0
 20 21  1  1
 22 23  1  0
 24 22  2  0
M  END
$$$$
