NMT.pdb
     RDKit          3D

 24 23  0  0  1  0  0  0  0  0999 V2000
   17.1465  -13.6243  -18.0076 N   0  0  0  0  0  0  0  0  0  0  0  0
   18.5045  -13.2071  -18.0843 C   0  0  0  0  0  0  0  0  0  0  0  0
   19.2192  -13.6786  -18.9850 O   0  0  0  0  0  0  0  0  0  0  0  0
   18.9909  -12.2336  -17.0858 C   0  0  0  0  0  0  0  0  0  0  0  0
   20.4645  -12.4050  -16.8238 C   0  0  2  0  0  0  0  0  0  0  0  0
   20.6989  -13.5980  -16.0284 N   0  0  0  0  0  0  0  0  0  0  0  0
   20.9161  -11.1806  -16.0885 C   0  0  0  0  0  0  0  0  0  0  0  0
   20.5079  -11.0514  -14.9071 O   0  0  0  0  0  0  0  0  0  0  0  0
   26.8647  -11.3303  -14.4707 C   0  0  0  0  0  0  0  0  0  0  0  0
   26.1670   -9.9546  -15.4106 S   0  0  0  0  0  0  0  0  0  0  0  0
   24.3554  -10.0589  -15.2845 C   0  0  0  0  0  0  0  0  0  0  0  0
   23.6694   -8.9807  -16.0444 C   0  0  0  0  0  0  0  0  0  0  0  0
   22.1713   -9.0586  -15.9519 C   0  0  2  0  0  0  0  0  0  0  0  0
   21.7506  -10.2436  -16.7091 N   0  0  0  0  0  0  0  0  0  0  0  0
   21.5463   -7.8804  -16.5812 C   0  0  0  0  0  0  0  0  0  0  0  0
   21.7971   -7.5093  -17.7678 O   0  0  0  0  0  0  0  0  0  0  0  0
   17.8988   -7.2255  -17.0610 C   0  0  0  0  0  0  0  0  0  0  0  0
   18.4770   -6.0884  -16.2470 C   0  0  1  0  0  0  0  0  0  0  0  0
   18.2574   -6.3052  -14.8764 O   0  0  0  0  0  0  0  0  0  0  0  0
   19.9698   -5.9730  -16.4740 C   0  0  2  0  0  0  0  0  0  0  0  0
   20.6143   -7.1052  -15.8450 N   0  0  0  0  0  0  0  0  0  0  0  0
   20.4802   -4.7201  -15.9100 C   0  0  0  0  0  0  0  0  0  0  0  0
   21.3713   -4.7732  -14.8462 O   0  0  0  0  0  0  0  0  0  0  0  0
   20.1434   -3.5774  -16.3517 O   0  0  0  0  0  0  0  0  0  0  0  0
  1  2  1  0
  2  3  2  0
  4  2  1  0
  5  7  1  0
  5  4  1  0
  5  6  1  1
  7  8  2  0
  9 10  1  0
 10 11  1  0
 11 12  1  0
 13 12  1  6
 14  7  1  0
 14 13  1  0
 15 21  1  0
 15 13  1  0
 16 15  2  0
 18 17  1  6
 18 19  1  0
 20 22  1  0
 20 18  1  0
 20 21  1  1
 22 23  1  0
 24 22  2  0
M  END
$$$$
