NMT.pdb
     RDKit          3D

 24 23  0  0  1  0  0  0  0  0999 V2000
   15.3232  -10.0401  -19.2006 N   0  0  0  0  0  0  0  0  0  0  0  0
   16.6669  -10.5053  -19.1555 C   0  0  0  0  0  0  0  0  0  0  0  0
   17.0722  -11.2357  -20.0757 O   0  0  0  0  0  0  0  0  0  0  0  0
   17.5082  -10.0930  -18.0139 C   0  0  0  0  0  0  0  0  0  0  0  0
   18.4447  -11.1961  -17.5948 C   0  0  2  0  0  0  0  0  0  0  0  0
   17.7007  -12.2798  -16.9756 N   0  0  0  0  0  0  0  0  0  0  0  0
   19.4115  -10.5936  -16.6221 C   0  0  0  0  0  0  0  0  0  0  0  0
   18.9674  -10.3331  -15.4758 O   0  0  0  0  0  0  0  0  0  0  0  0
   26.7577   -9.9502  -14.2385 C   0  0  0  0  0  0  0  0  0  0  0  0
   25.6335  -10.6438  -15.4703 S   0  0  0  0  0  0  0  0  0  0  0  0
   24.0132   -9.8459  -15.2542 C   0  0  0  0  0  0  0  0  0  0  0  0
   22.9849  -10.3860  -16.1823 C   0  0  0  0  0  0  0  0  0  0  0  0
   21.6440   -9.7264  -16.0216 C   0  0  2  0  0  0  0  0  0  0  0  0
   20.7369  -10.3437  -16.9966 N   0  0  0  0  0  0  0  0  0  0  0  0
   21.7274   -8.2880  -16.3364 C   0  0  0  0  0  0  0  0  0  0  0  0
   22.0087   -7.8427  -17.4902 O   0  0  0  0  0  0  0  0  0  0  0  0
   20.1740   -3.8361  -15.4636 C   0  0  0  0  0  0  0  0  0  0  0  0
   20.1389   -5.3483  -15.4207 C   0  0  1  0  0  0  0  0  0  0  0  0
   19.2982   -5.8482  -16.4291 O   0  0  0  0  0  0  0  0  0  0  0  0
   21.5243   -5.9218  -15.6330 C   0  0  2  0  0  0  0  0  0  0  0  0
   21.4859   -7.3328  -15.3162 N   0  0  0  0  0  0  0  0  0  0  0  0
   22.5005   -5.2365  -14.7810 C   0  0  0  0  0  0  0  0  0  0  0  0
   22.7822   -5.7572  -13.5249 O   0  0  0  0  0  0  0  0  0  0  0  0
   23.1069   -4.1792  -15.1400 O   0  0  0  0  0  0  0  0  0  0  0  0
  1  2  1  0
  2  3  2  0
  4  2  1  0
  5  7  1  0
  5  4  1  0
  5  6  1  1
  7  8  2  0
  9 10  1  0
 10 11  1  0
 11 12  1  0
 13 12  1  6
 14  7  1  0
 14 13  1  0
 15 21  1  0
 15 13  1  0
 16 15  2  0
 18 17  1  6
 18 19  1  0
 20 22  1  0
 20 18  1  0
 20 21  1  1
 22 23  1  0
 24 22  2  0
M  END
$$$$
