NMT.pdb
     RDKit          3D

 24 23  0  0  1  0  0  0  0  0999 V2000
   21.9105  -28.3985  -15.7859 N   0  0  0  0  0  0  0  0  0  0  0  0
   21.7880  -29.0979  -14.5531 C   0  0  0  0  0  0  0  0  0  0  0  0
   22.3877  -30.1785  -14.4229 O   0  0  0  0  0  0  0  0  0  0  0  0
   20.9521  -28.4988  -13.4931 C   0  0  0  0  0  0  0  0  0  0  0  0
   20.4688  -27.1267  -13.8842 C   0  0  2  0  0  0  0  0  0  0  0  0
   21.5084  -26.1400  -13.6460 N   0  0  0  0  0  0  0  0  0  0  0  0
   19.2628  -26.8393  -13.0435 C   0  0  0  0  0  0  0  0  0  0  0  0
   18.2671  -27.5864  -13.2143 O   0  0  0  0  0  0  0  0  0  0  0  0
   19.1427  -25.7732   -6.8428 C   0  0  0  0  0  0  0  0  0  0  0  0
   18.0136  -24.4484   -7.3248 S   0  0  0  0  0  0  0  0  0  0  0  0
   17.4333  -24.8007   -9.0124 C   0  0  0  0  0  0  0  0  0  0  0  0
   18.5496  -25.1069   -9.9454 C   0  0  0  0  0  0  0  0  0  0  0  0
   18.0770  -25.5541  -11.3002 C   0  0  2  0  0  0  0  0  0  0  0  0
   19.2711  -25.7857  -12.1219 N   0  0  0  0  0  0  0  0  0  0  0  0
   17.2831  -24.4964  -11.9528 C   0  0  0  0  0  0  0  0  0  0  0  0
   17.7718  -23.3850  -12.3200 O   0  0  0  0  0  0  0  0  0  0  0  0
   14.5465  -25.2511  -14.7803 C   0  0  0  0  0  0  0  0  0  0  0  0
   14.0111  -24.4079  -13.6436 C   0  0  1  0  0  0  0  0  0  0  0  0
   13.3249  -25.2115  -12.7177 O   0  0  0  0  0  0  0  0  0  0  0  0
   15.1415  -23.7097  -12.9169 C   0  0  2  0  0  0  0  0  0  0  0  0
   15.9013  -24.7060  -12.1938 N   0  0  0  0  0  0  0  0  0  0  0  0
   14.6136  -22.7031  -11.9914 C   0  0  0  0  0  0  0  0  0  0  0  0
   14.0384  -21.5491  -12.5069 O   0  0  0  0  0  0  0  0  0  0  0  0
   14.6574  -22.8371  -10.7287 O   0  0  0  0  0  0  0  0  0  0  0  0
  1  2  1  0
  2  3  2  0
  4  2  1  0
  5  7  1  0
  5  4  1  0
  5  6  1  1
  7  8  2  0
  9 10  1  0
 10 11  1  0
 11 12  1  0
 13 12  1  1
 14  7  1  0
 14 13  1  0
 15 21  1  0
 15 13  1  0
 16 15  2  0
 18 17  1  6
 18 19  1  0
 20 22  1  0
 20 18  1  0
 20 21  1  1
 22 23  1  0
 24 22  2  0
M  END
$$$$
