NMT.pdb
     RDKit          3D

 24 23  0  0  1  0  0  0  0  0999 V2000
   17.9618  -13.1219  -14.2737 N   0  0  0  0  0  0  0  0  0  0  0  0
   18.4003  -11.7693  -14.3207 C   0  0  0  0  0  0  0  0  0  0  0  0
   19.5465  -11.5323  -14.7382 O   0  0  0  0  0  0  0  0  0  0  0  0
   17.4656  -10.7186  -13.8694 C   0  0  0  0  0  0  0  0  0  0  0  0
   16.2029  -11.3131  -13.3023 C   0  0  2  0  0  0  0  0  0  0  0  0
   15.4260  -11.9433  -14.3560 N   0  0  0  0  0  0  0  0  0  0  0  0
   15.4372  -10.1852  -12.6816 C   0  0  0  0  0  0  0  0  0  0  0  0
   14.7804   -9.4535  -13.4640 O   0  0  0  0  0  0  0  0  0  0  0  0
   11.3343  -10.5395   -8.2720 C   0  0  0  0  0  0  0  0  0  0  0  0
   11.9624   -8.9500   -7.6876 S   0  0  0  0  0  0  0  0  0  0  0  0
   13.0756   -8.2896   -8.9657 C   0  0  0  0  0  0  0  0  0  0  0  0
   13.8857   -9.3518   -9.6183 C   0  0  0  0  0  0  0  0  0  0  0  0
   14.7458   -8.8315  -10.7357 C   0  0  2  0  0  0  0  0  0  0  0  0
   15.4687   -9.9789  -11.2974 N   0  0  0  0  0  0  0  0  0  0  0  0
   15.7480   -7.8782  -10.2242 C   0  0  0  0  0  0  0  0  0  0  0  0
   16.7324   -8.2228   -9.5024 O   0  0  0  0  0  0  0  0  0  0  0  0
   17.3953   -3.2106  -10.2189 C   0  0  0  0  0  0  0  0  0  0  0  0
   16.4120   -4.2394  -10.7332 C   0  0  1  0  0  0  0  0  0  0  0  0
   16.6045   -4.4578  -12.1076 O   0  0  0  0  0  0  0  0  0  0  0  0
   16.5945   -5.5599  -10.0147 C   0  0  2  0  0  0  0  0  0  0  0  0
   15.6290   -6.5006  -10.5398 N   0  0  0  0  0  0  0  0  0  0  0  0
   16.4051   -5.3902   -8.5712 C   0  0  0  0  0  0  0  0  0  0  0  0
   17.5142   -5.4286   -7.7365 O   0  0  0  0  0  0  0  0  0  0  0  0
   15.2643   -5.2080   -8.0422 O   0  0  0  0  0  0  0  0  0  0  0  0
  1  2  1  0
  2  3  2  0
  4  2  1  0
  5  7  1  0
  5  4  1  0
  5  6  1  6
  7  8  2  0
  9 10  1  0
 10 11  1  0
 11 12  1  0
 13 12  1  1
 14  7  1  0
 14 13  1  0
 15 21  1  0
 15 13  1  0
 16 15  2  0
 18 17  1  1
 18 19  1  0
 20 22  1  0
 20 18  1  0
 20 21  1  6
 22 23  1  0
 24 22  2  0
M  END
$$$$
