HCY.pdb
     RDKit          3D

 29 30  0  0  1  0  0  0  0  0999 V2000
   14.3120  -14.8657   15.1532 N   0  0  0  0  0  0  0  0  0  0  0  0
   13.2155  -15.5349   15.8230 C   0  0  1  0  0  0  0  0  0  0  0  0
   13.5418  -17.0239   15.8842 C   0  0  0  0  0  0  0  0  0  0  0  0
   13.4024  -17.5977   14.5196 C   0  0  0  0  0  0  0  0  0  0  0  0
   14.4219  -18.1053   13.7507 C   0  0  0  0  0  0  0  0  0  0  0  0
   13.9095  -18.5334   12.5603 N   0  0  0  0  0  0  0  0  0  0  0  0
   12.5942  -18.2940   12.5929 C   0  0  0  0  0  0  0  0  0  0  0  0
   12.2903  -17.7219   13.7931 N   0  0  0  0  0  0  0  0  0  0  0  0
   13.0307  -14.9579   17.1513 C   0  0  0  0  0  0  0  0  0  0  0  0
   14.0433  -14.6364   17.8359 O   0  0  0  0  0  0  0  0  0  0  0  0
   11.7482  -14.7248   17.7429 N   0  0  0  0  0  0  0  0  0  0  0  0
   11.6471  -14.3608   19.1187 C   0  0  1  0  0  0  0  0  0  0  0  0
   10.2109  -13.8172   19.3239 C   0  0  0  0  0  0  0  0  0  0  0  0
    9.0925  -15.2037   19.0077 S   0  0  0  0  0  0  0  0  0  0  0  0
   11.9197  -15.4262   20.0864 C   0  0  0  0  0  0  0  0  0  0  0  0
   11.8358  -16.6546   19.7362 O   0  0  0  0  0  0  0  0  0  0  0  0
   18.3743  -14.3428   20.5133 O   0  0  0  0  0  0  0  0  0  0  0  0
   17.2182  -15.0746   20.8166 C   0  0  0  0  0  0  0  0  0  0  0  0
   17.0056  -16.3380   20.3116 C   0  0  0  0  0  0  0  0  0  0  0  0
   15.8604  -17.0349   20.6261 C   0  0  0  0  0  0  0  0  0  0  0  0
   14.8772  -16.4915   21.4634 C   0  0  0  0  0  0  0  0  0  0  0  0
   13.6386  -17.2262   21.7843 C   0  0  0  0  0  0  0  0  0  0  0  0
   12.5990  -16.3166   22.3362 C   0  0  2  0  0  0  0  0  0  0  0  0
   12.2846  -15.2230   21.4282 N   0  0  0  0  0  0  0  0  0  0  0  0
   12.9718  -15.7446   23.6348 C   0  0  0  0  0  0  0  0  0  0  0  0
   13.0440  -14.4998   23.7675 O   0  0  0  0  0  0  0  0  0  0  0  0
   15.0861  -15.2208   21.9741 C   0  0  0  0  0  0  0  0  0  0  0  0
   16.2423  -14.5553   21.6377 C   0  0  0  0  0  0  0  0  0  0  0  0
   13.2606  -16.4817   24.7725 O   0  0  0  0  0  0  0  0  0  0  0  0
  2  3  1  0
  2  1  1  1
  4  3  1  0
  4  8  1  0
  5  4  2  0
  6  5  1  0
  6  7  1  0
  7  8  2  0
  9  2  1  0
 10  9  2  0
 11  9  1  0
 12 11  1  0
 12 13  1  6
 14 13  1  0
 15 24  1  0
 15 12  1  0
 16 15  2  0
 18 17  1  0
 19 18  2  0
 20 19  1  0
 21 20  2  0
 21 27  1  0
 22 21  1  0
 23 22  1  6
 23 24  1  0
 25 23  1  0
 25 29  1  0
 26 25  2  0
 27 28  2  0
 28 18  1  0
M  END
$$$$
