HCY.pdb
     RDKit          3D

 29 30  0  0  1  0  0  0  0  0999 V2000
    9.6749  -15.6019   20.2589 N   0  0  0  0  0  0  0  0  0  0  0  0
    8.5874  -14.9831   20.9890 C   0  0  1  0  0  0  0  0  0  0  0  0
    7.3260  -15.0986   20.1387 C   0  0  0  0  0  0  0  0  0  0  0  0
    7.6213  -14.5799   18.7769 C   0  0  0  0  0  0  0  0  0  0  0  0
    8.2629  -13.4003   18.4853 C   0  0  0  0  0  0  0  0  0  0  0  0
    8.3449  -13.2628   17.1298 N   0  0  0  0  0  0  0  0  0  0  0  0
    7.7631  -14.3402   16.5923 C   0  0  0  0  0  0  0  0  0  0  0  0
    7.3227  -15.1417   17.6041 N   0  0  0  0  0  0  0  0  0  0  0  0
    8.4372  -15.6360   22.2861 C   0  0  0  0  0  0  0  0  0  0  0  0
    7.4582  -15.3323   23.0255 O   0  0  0  0  0  0  0  0  0  0  0  0
    9.3458  -16.6222   22.7870 N   0  0  0  0  0  0  0  0  0  0  0  0
    9.1208  -17.2258   24.0600 C   0  0  1  0  0  0  0  0  0  0  0  0
    9.6891  -18.6642   23.9698 C   0  0  0  0  0  0  0  0  0  0  0  0
   11.4578  -18.4918   23.6309 S   0  0  0  0  0  0  0  0  0  0  0  0
    9.7022  -16.5316   25.2116 C   0  0  0  0  0  0  0  0  0  0  0  0
   10.7268  -15.7789   25.0627 O   0  0  0  0  0  0  0  0  0  0  0  0
    6.2471  -11.1856   25.2312 O   0  0  0  0  0  0  0  0  0  0  0  0
    6.8686  -12.1712   26.0100 C   0  0  0  0  0  0  0  0  0  0  0  0
    6.2629  -13.3806   26.2688 C   0  0  0  0  0  0  0  0  0  0  0  0
    6.8964  -14.3314   27.0374 C   0  0  0  0  0  0  0  0  0  0  0  0
    8.1685  -14.1078   27.5804 C   0  0  0  0  0  0  0  0  0  0  0  0
    8.8406  -15.1152   28.4231 C   0  0  0  0  0  0  0  0  0  0  0  0
    9.8338  -15.8982   27.6400 C   0  0  2  0  0  0  0  0  0  0  0  0
    9.2210  -16.6126   26.5293 N   0  0  0  0  0  0  0  0  0  0  0  0
   10.5720  -16.8660   28.4592 C   0  0  0  0  0  0  0  0  0  0  0  0
   10.4209  -18.0941   28.2568 O   0  0  0  0  0  0  0  0  0  0  0  0
    8.7822  -12.8927   27.3232 C   0  0  0  0  0  0  0  0  0  0  0  0
    8.1183  -11.9675   26.5510 C   0  0  0  0  0  0  0  0  0  0  0  0
   11.4565  -16.5348   29.4735 O   0  0  0  0  0  0  0  0  0  0  0  0
  2  3  1  0
  2  1  1  6
  4  3  1  0
  4  8  1  0
  5  4  2  0
  6  5  1  0
  6  7  1  0
  7  8  2  0
  9  2  1  0
 10  9  2  0
 11  9  1  0
 12 11  1  0
 12 13  1  6
 14 13  1  0
 15 24  1  0
 15 12  1  0
 16 15  2  0
 18 17  1  0
 19 18  2  0
 20 19  1  0
 21 20  2  0
 21 27  1  0
 22 21  1  0
 23 22  1  1
 23 24  1  0
 25 23  1  0
 25 29  1  0
 26 25  2  0
 27 28  2  0
 28 18  1  0
M  END
$$$$
