HCY.pdb
     RDKit          3D

 29 30  0  0  1  0  0  0  0  0999 V2000
    9.2777  -15.7819   19.8269 N   0  0  0  0  0  0  0  0  0  0  0  0
    8.1285  -15.9622   20.6904 C   0  0  1  0  0  0  0  0  0  0  0  0
    7.9026  -17.4609   20.8637 C   0  0  0  0  0  0  0  0  0  0  0  0
    7.3456  -18.0074   19.5980 C   0  0  0  0  0  0  0  0  0  0  0  0
    6.0219  -18.2828   19.3526 C   0  0  0  0  0  0  0  0  0  0  0  0
    5.8984  -18.7759   18.0859 N   0  0  0  0  0  0  0  0  0  0  0  0
    7.1263  -18.8048   17.5569 C   0  0  0  0  0  0  0  0  0  0  0  0
    8.0066  -18.3338   18.4860 N   0  0  0  0  0  0  0  0  0  0  0  0
    8.3664  -15.2915   21.9651 C   0  0  0  0  0  0  0  0  0  0  0  0
    9.5055  -15.3718   22.5069 O   0  0  0  0  0  0  0  0  0  0  0  0
    7.3722  -14.5290   22.6574 N   0  0  0  0  0  0  0  0  0  0  0  0
    7.6773  -13.9211   23.9115 C   0  0  1  0  0  0  0  0  0  0  0  0
    6.3967  -13.1725   24.3588 C   0  0  0  0  0  0  0  0  0  0  0  0
    6.7820  -12.4156   25.9563 S   0  0  0  0  0  0  0  0  0  0  0  0
    8.1213  -14.8274   24.9732 C   0  0  0  0  0  0  0  0  0  0  0  0
    7.4888  -15.9172   25.1992 O   0  0  0  0  0  0  0  0  0  0  0  0
   12.3014  -19.3488   31.1838 O   0  0  0  0  0  0  0  0  0  0  0  0
   11.9398  -18.5873   30.0642 C   0  0  0  0  0  0  0  0  0  0  0  0
   12.3234  -17.2719   29.9265 C   0  0  0  0  0  0  0  0  0  0  0  0
   11.9541  -16.5467   28.8157 C   0  0  0  0  0  0  0  0  0  0  0  0
   11.1817  -17.1129   27.7931 C   0  0  0  0  0  0  0  0  0  0  0  0
   10.7650  -16.3324   26.6124 C   0  0  0  0  0  0  0  0  0  0  0  0
    9.5739  -15.4935   26.9128 C   0  0  2  0  0  0  0  0  0  0  0  0
    9.2297  -14.6090   25.8089 N   0  0  0  0  0  0  0  0  0  0  0  0
    9.7394  -14.6788   28.1217 C   0  0  0  0  0  0  0  0  0  0  0  0
    9.7171  -15.2281   29.2486 O   0  0  0  0  0  0  0  0  0  0  0  0
   10.7930  -18.4359   27.9267 C   0  0  0  0  0  0  0  0  0  0  0  0
   11.1811  -19.1284   29.0505 C   0  0  0  0  0  0  0  0  0  0  0  0
    9.9274  -13.3057   28.1330 O   0  0  0  0  0  0  0  0  0  0  0  0
  2  3  1  0
  2  1  1  6
  4  3  1  0
  4  8  1  0
  5  4  2  0
  6  5  1  0
  6  7  1  0
  7  8  2  0
  9  2  1  0
 10  9  2  0
 11  9  1  0
 12 11  1  0
 12 13  1  1
 14 13  1  0
 15 24  1  0
 15 12  1  0
 16 15  2  0
 18 17  1  0
 19 18  2  0
 20 19  1  0
 21 20  2  0
 21 27  1  0
 22 21  1  0
 23 22  1  6
 23 24  1  0
 25 23  1  0
 25 29  1  0
 26 25  2  0
 27 28  2  0
 28 18  1  0
M  END
$$$$
