HCY.pdb
     RDKit          3D

 29 30  0  0  1  0  0  0  0  0999 V2000
    7.0961  -18.0475   17.8737 N   0  0  0  0  0  0  0  0  0  0  0  0
    7.5310  -16.8233   18.5148 C   0  0  1  0  0  0  0  0  0  0  0  0
    6.5395  -15.7236   18.1473 C   0  0  0  0  0  0  0  0  0  0  0  0
    7.3010  -14.5034   17.7703 C   0  0  0  0  0  0  0  0  0  0  0  0
    6.7581  -13.3034   17.3789 C   0  0  0  0  0  0  0  0  0  0  0  0
    7.7681  -12.4261   17.1087 N   0  0  0  0  0  0  0  0  0  0  0  0
    8.9171  -13.0737   17.3294 C   0  0  0  0  0  0  0  0  0  0  0  0
    8.6250  -14.3431   17.7336 N   0  0  0  0  0  0  0  0  0  0  0  0
    7.6116  -17.0306   19.9576 C   0  0  0  0  0  0  0  0  0  0  0  0
    6.5631  -17.3116   20.6050 O   0  0  0  0  0  0  0  0  0  0  0  0
    8.8288  -16.9365   20.7052 N   0  0  0  0  0  0  0  0  0  0  0  0
    8.8102  -17.0586   22.1265 C   0  0  1  0  0  0  0  0  0  0  0  0
    8.2602  -18.4732   22.4378 C   0  0  0  0  0  0  0  0  0  0  0  0
    9.5387  -19.6419   21.9158 S   0  0  0  0  0  0  0  0  0  0  0  0
   10.0938  -16.8626   22.8047 C   0  0  0  0  0  0  0  0  0  0  0  0
   10.8972  -15.9453   22.4151 O   0  0  0  0  0  0  0  0  0  0  0  0
   10.8637  -13.8821   30.7445 O   0  0  0  0  0  0  0  0  0  0  0  0
   10.5715  -14.4903   29.5162 C   0  0  0  0  0  0  0  0  0  0  0  0
   10.8753  -15.8106   29.2696 C   0  0  0  0  0  0  0  0  0  0  0  0
   10.5769  -16.3832   28.0534 C   0  0  0  0  0  0  0  0  0  0  0  0
    9.9590  -15.6524   27.0301 C   0  0  0  0  0  0  0  0  0  0  0  0
    9.6583  -16.2562   25.7179 C   0  0  0  0  0  0  0  0  0  0  0  0
   10.8155  -17.0379   25.2055 C   0  0  2  0  0  0  0  0  0  0  0  0
   10.5527  -17.6187   23.8966 N   0  0  0  0  0  0  0  0  0  0  0  0
   11.2242  -18.1151   26.1140 C   0  0  0  0  0  0  0  0  0  0  0  0
   10.4773  -19.1094   26.2740 O   0  0  0  0  0  0  0  0  0  0  0  0
    9.6512  -14.3237   27.2729 C   0  0  0  0  0  0  0  0  0  0  0  0
    9.9646  -13.7865   28.5002 C   0  0  0  0  0  0  0  0  0  0  0  0
   12.4060  -18.1364   26.8377 O   0  0  0  0  0  0  0  0  0  0  0  0
  2  3  1  0
  2  1  1  6
  4  3  1  0
  4  8  1  0
  5  4  2  0
  6  5  1  0
  6  7  1  0
  7  8  2  0
  9  2  1  0
 10  9  2  0
 11  9  1  0
 12 11  1  0
 12 13  1  6
 14 13  1  0
 15 24  1  0
 15 12  1  0
 16 15  2  0
 18 17  1  0
 19 18  2  0
 20 19  1  0
 21 20  2  0
 21 27  1  0
 22 21  1  0
 23 22  1  1
 23 24  1  0
 25 23  1  0
 25 29  1  0
 26 25  2  0
 27 28  2  0
 28 18  1  0
M  END
$$$$
