HCY.pdb
     RDKit          3D

 29 30  0  0  1  0  0  0  0  0999 V2000
    8.0847  -17.3891   16.8281 N   0  0  0  0  0  0  0  0  0  0  0  0
    8.7527  -16.3567   17.5940 C   0  0  1  0  0  0  0  0  0  0  0  0
    7.8870  -15.1015   17.5444 C   0  0  0  0  0  0  0  0  0  0  0  0
    8.0297  -14.4782   16.2021 C   0  0  0  0  0  0  0  0  0  0  0  0
    8.8238  -14.9389   15.1798 C   0  0  0  0  0  0  0  0  0  0  0  0
    8.6978  -14.1029   14.1083 N   0  0  0  0  0  0  0  0  0  0  0  0
    7.8396  -13.1406   14.4628 C   0  0  0  0  0  0  0  0  0  0  0  0
    7.4346  -13.3754   15.7439 N   0  0  0  0  0  0  0  0  0  0  0  0
    8.9651  -16.8239   18.9607 C   0  0  0  0  0  0  0  0  0  0  0  0
    7.9684  -17.1296   19.6753 O   0  0  0  0  0  0  0  0  0  0  0  0
   10.2582  -16.9640   19.5587 N   0  0  0  0  0  0  0  0  0  0  0  0
   10.3803  -17.3908   20.9146 C   0  0  1  0  0  0  0  0  0  0  0  0
   11.8187  -17.9443   21.0721 C   0  0  0  0  0  0  0  0  0  0  0  0
   11.7935  -19.6240   20.4004 S   0  0  0  0  0  0  0  0  0  0  0  0
   10.1244  -16.3706   21.9343 C   0  0  0  0  0  0  0  0  0  0  0  0
   10.5421  -15.1720   21.7685 O   0  0  0  0  0  0  0  0  0  0  0  0
    6.3897  -11.1497   27.8683 O   0  0  0  0  0  0  0  0  0  0  0  0
    6.7232  -12.1138   26.9074 C   0  0  0  0  0  0  0  0  0  0  0  0
    7.4523  -11.7962   25.7832 C   0  0  0  0  0  0  0  0  0  0  0  0
    7.7661  -12.7635   24.8549 C   0  0  0  0  0  0  0  0  0  0  0  0
    7.3601  -14.0948   25.0162 C   0  0  0  0  0  0  0  0  0  0  0  0
    7.6751  -15.1292   24.0125 C   0  0  0  0  0  0  0  0  0  0  0  0
    9.1100  -15.5174   24.0693 C   0  0  2  0  0  0  0  0  0  0  0  0
    9.4291  -16.5880   23.1359 N   0  0  0  0  0  0  0  0  0  0  0  0
    9.5366  -15.9327   25.4103 C   0  0  0  0  0  0  0  0  0  0  0  0
    9.5905  -15.0871   26.3346 O   0  0  0  0  0  0  0  0  0  0  0  0
    6.6263  -14.4197   26.1454 C   0  0  0  0  0  0  0  0  0  0  0  0
    6.3320  -13.4263   27.0507 C   0  0  0  0  0  0  0  0  0  0  0  0
    9.8973  -17.2235   25.7634 O   0  0  0  0  0  0  0  0  0  0  0  0
  2  3  1  0
  2  1  1  6
  4  3  1  0
  4  8  1  0
  5  4  2  0
  6  5  1  0
  6  7  1  0
  7  8  2  0
  9  2  1  0
 10  9  2  0
 11  9  1  0
 12 11  1  0
 12 13  1  6
 14 13  1  0
 15 24  1  0
 15 12  1  0
 16 15  2  0
 18 17  1  0
 19 18  2  0
 20 19  1  0
 21 20  2  0
 21 27  1  0
 22 21  1  0
 23 22  1  1
 23 24  1  0
 25 23  1  0
 25 29  1  0
 26 25  2  0
 27 28  2  0
 28 18  1  0
M  END
$$$$
