HCY.pdb
     RDKit          3D

 29 30  0  0  1  0  0  0  0  0999 V2000
    7.7754  -17.0532   19.3023 N   0  0  0  0  0  0  0  0  0  0  0  0
    8.1977  -16.1146   20.3219 C   0  0  1  0  0  0  0  0  0  0  0  0
    7.2560  -14.9153   20.2742 C   0  0  0  0  0  0  0  0  0  0  0  0
    7.5767  -14.1064   19.0685 C   0  0  0  0  0  0  0  0  0  0  0  0
    6.6791  -13.3817   18.3220 C   0  0  0  0  0  0  0  0  0  0  0  0
    7.3424  -12.7787   17.2927 N   0  0  0  0  0  0  0  0  0  0  0  0
    8.6293  -13.1252   17.4014 C   0  0  0  0  0  0  0  0  0  0  0  0
    8.7663  -13.9370   18.4887 N   0  0  0  0  0  0  0  0  0  0  0  0
    8.1844  -16.7720   21.6253 C   0  0  0  0  0  0  0  0  0  0  0  0
    7.1462  -17.3872   22.0010 O   0  0  0  0  0  0  0  0  0  0  0  0
    9.2965  -16.7676   22.5267 N   0  0  0  0  0  0  0  0  0  0  0  0
    9.2021  -17.4289   23.7873 C   0  0  1  0  0  0  0  0  0  0  0  0
    9.9599  -18.7717   23.6357 C   0  0  0  0  0  0  0  0  0  0  0  0
   11.6440  -18.3504   23.1263 S   0  0  0  0  0  0  0  0  0  0  0  0
    9.7226  -16.6903   24.9404 C   0  0  0  0  0  0  0  0  0  0  0  0
   10.6481  -15.8196   24.7860 O   0  0  0  0  0  0  0  0  0  0  0  0
    6.3408  -11.2296   25.2973 O   0  0  0  0  0  0  0  0  0  0  0  0
    6.9428  -12.2801   26.0030 C   0  0  0  0  0  0  0  0  0  0  0  0
    6.3559  -13.5223   26.0959 C   0  0  0  0  0  0  0  0  0  0  0  0
    6.9697  -14.5369   26.7958 C   0  0  0  0  0  0  0  0  0  0  0  0
    8.2024  -14.3469   27.4341 C   0  0  0  0  0  0  0  0  0  0  0  0
    8.8520  -15.4249   28.2040 C   0  0  0  0  0  0  0  0  0  0  0  0
    9.8736  -16.1322   27.3860 C   0  0  2  0  0  0  0  0  0  0  0  0
    9.2828  -16.8497   26.2655 N   0  0  0  0  0  0  0  0  0  0  0  0
   10.6757  -17.0794   28.1684 C   0  0  0  0  0  0  0  0  0  0  0  0
   10.6331  -18.3025   27.8959 O   0  0  0  0  0  0  0  0  0  0  0  0
    8.7971  -13.0990   27.3439 C   0  0  0  0  0  0  0  0  0  0  0  0
    8.1539  -12.1100   26.6359 C   0  0  0  0  0  0  0  0  0  0  0  0
   11.5097  -16.7330   29.2198 O   0  0  0  0  0  0  0  0  0  0  0  0
  2  3  1  0
  2  1  1  6
  4  3  1  0
  4  8  1  0
  5  4  2  0
  6  5  1  0
  6  7  1  0
  7  8  2  0
  9  2  1  0
 10  9  2  0
 11  9  1  0
 12 11  1  0
 12 13  1  6
 14 13  1  0
 15 24  1  0
 15 12  1  0
 16 15  2  0
 18 17  1  0
 19 18  2  0
 20 19  1  0
 21 20  2  0
 21 27  1  0
 22 21  1  0
 23 22  1  1
 23 24  1  0
 25 23  1  0
 25 29  1  0
 26 25  2  0
 27 28  2  0
 28 18  1  0
M  END
$$$$
