HCY.pdb
     RDKit          3D

 29 30  0  0  1  0  0  0  0  0999 V2000
    9.7399  -18.6010   19.0218 N   0  0  0  0  0  0  0  0  0  0  0  0
   10.9254  -17.9400   19.5283 C   0  0  1  0  0  0  0  0  0  0  0  0
   11.7407  -17.4578   18.3324 C   0  0  0  0  0  0  0  0  0  0  0  0
   12.0076  -18.6169   17.4403 C   0  0  0  0  0  0  0  0  0  0  0  0
   12.0532  -19.9356   17.8240 C   0  0  0  0  0  0  0  0  0  0  0  0
   12.3291  -20.7065   16.7319 N   0  0  0  0  0  0  0  0  0  0  0  0
   12.4520  -19.8774   15.6899 C   0  0  0  0  0  0  0  0  0  0  0  0
   12.2545  -18.6014   16.1292 N   0  0  0  0  0  0  0  0  0  0  0  0
   10.5336  -16.8407   20.4053 C   0  0  0  0  0  0  0  0  0  0  0  0
   11.4193  -16.0629   20.8613 O   0  0  0  0  0  0  0  0  0  0  0  0
    9.1801  -16.5777   20.7905 N   0  0  0  0  0  0  0  0  0  0  0  0
    8.8919  -15.5737   21.7623 C   0  0  1  0  0  0  0  0  0  0  0  0
    7.4890  -15.0163   21.4139 C   0  0  0  0  0  0  0  0  0  0  0  0
    7.0947  -13.7971   22.6910 S   0  0  0  0  0  0  0  0  0  0  0  0
    8.9228  -16.0067   23.1614 C   0  0  0  0  0  0  0  0  0  0  0  0
    8.2539  -17.0319   23.5357 O   0  0  0  0  0  0  0  0  0  0  0  0
    5.2747  -11.0596   26.2497 O   0  0  0  0  0  0  0  0  0  0  0  0
    5.9967  -12.2597   26.2001 C   0  0  0  0  0  0  0  0  0  0  0  0
    7.3352  -12.3152   26.5191 C   0  0  0  0  0  0  0  0  0  0  0  0
    8.0204  -13.5082   26.4619 C   0  0  0  0  0  0  0  0  0  0  0  0
    7.3892  -14.6996   26.0809 C   0  0  0  0  0  0  0  0  0  0  0  0
    8.1255  -15.9754   25.9967 C   0  0  0  0  0  0  0  0  0  0  0  0
    9.5382  -15.7571   25.5852 C   0  0  2  0  0  0  0  0  0  0  0  0
    9.6524  -15.3774   24.1844 N   0  0  0  0  0  0  0  0  0  0  0  0
   10.3878  -16.9310   25.8152 C   0  0  0  0  0  0  0  0  0  0  0  0
   10.4594  -17.4306   26.9630 O   0  0  0  0  0  0  0  0  0  0  0  0
    6.0428  -14.6493   25.7588 C   0  0  0  0  0  0  0  0  0  0  0  0
    5.3916  -13.4392   25.8277 C   0  0  0  0  0  0  0  0  0  0  0  0
   11.1460  -17.5639   24.8427 O   0  0  0  0  0  0  0  0  0  0  0  0
  2  3  1  0
  2  1  1  6
  4  3  1  0
  4  8  1  0
  5  4  2  0
  6  5  1  0
  6  7  1  0
  7  8  2  0
  9  2  1  0
 10  9  2  0
 11  9  1  0
 12 11  1  0
 12 13  1  6
 14 13  1  0
 15 24  1  0
 15 12  1  0
 16 15  2  0
 18 17  1  0
 19 18  2  0
 20 19  1  0
 21 20  2  0
 21 27  1  0
 22 21  1  0
 23 22  1  6
 23 24  1  0
 25 23  1  0
 25 29  1  0
 26 25  2  0
 27 28  2  0
 28 18  1  0
M  END
$$$$
