HCY.pdb
     RDKit          3D

 29 30  0  0  1  0  0  0  0  0999 V2000
    9.8558  -18.1132   17.8647 N   0  0  0  0  0  0  0  0  0  0  0  0
    8.6935  -17.7830   18.6638 C   0  0  1  0  0  0  0  0  0  0  0  0
    8.1452  -19.0793   19.2524 C   0  0  0  0  0  0  0  0  0  0  0  0
    7.3464  -19.7749   18.2088 C   0  0  0  0  0  0  0  0  0  0  0  0
    7.1460  -19.3370   16.9219 C   0  0  0  0  0  0  0  0  0  0  0  0
    6.3565  -20.2357   16.2649 N   0  0  0  0  0  0  0  0  0  0  0  0
    6.0733  -21.2136   17.1320 C   0  0  0  0  0  0  0  0  0  0  0  0
    6.6812  -20.9262   18.3186 N   0  0  0  0  0  0  0  0  0  0  0  0
    9.0700  -16.8255   19.6996 C   0  0  0  0  0  0  0  0  0  0  0  0
   10.2013  -16.9227   20.2546 O   0  0  0  0  0  0  0  0  0  0  0  0
    8.2235  -15.7572   20.1371 N   0  0  0  0  0  0  0  0  0  0  0  0
    8.6096  -14.9410   21.2417 C   0  0  1  0  0  0  0  0  0  0  0  0
    7.5876  -13.7783   21.3059 C   0  0  0  0  0  0  0  0  0  0  0  0
    8.2880  -12.5474   22.4318 S   0  0  0  0  0  0  0  0  0  0  0  0
    8.6829  -15.6125   22.5416 C   0  0  0  0  0  0  0  0  0  0  0  0
    7.9081  -16.5968   22.8052 O   0  0  0  0  0  0  0  0  0  0  0  0
    6.3523  -10.8347   27.3397 O   0  0  0  0  0  0  0  0  0  0  0  0
    6.7526  -12.0881   26.8573 C   0  0  0  0  0  0  0  0  0  0  0  0
    5.8392  -13.0647   26.5285 C   0  0  0  0  0  0  0  0  0  0  0  0
    6.2602  -14.2878   26.0565 C   0  0  0  0  0  0  0  0  0  0  0  0
    7.6201  -14.5833   25.8942 C   0  0  0  0  0  0  0  0  0  0  0  0
    8.0757  -15.9005   25.4103 C   0  0  0  0  0  0  0  0  0  0  0  0
    9.4770  -15.8386   24.9151 C   0  0  2  0  0  0  0  0  0  0  0  0
    9.5652  -15.2669   23.5792 N   0  0  0  0  0  0  0  0  0  0  0  0
   10.1357  -17.1496   24.8998 C   0  0  0  0  0  0  0  0  0  0  0  0
   10.1602  -17.8445   25.9432 O   0  0  0  0  0  0  0  0  0  0  0  0
    8.5432  -13.6044   26.2236 C   0  0  0  0  0  0  0  0  0  0  0  0
    8.0848  -12.3946   26.6920 C   0  0  0  0  0  0  0  0  0  0  0  0
   10.7552  -17.7129   23.7953 O   0  0  0  0  0  0  0  0  0  0  0  0
  2  3  1  0
  2  1  1  1
  4  3  1  0
  4  8  1  0
  5  4  2  0
  6  5  1  0
  6  7  1  0
  7  8  2  0
  9  2  1  0
 10  9  2  0
 11  9  1  0
 12 11  1  0
 12 13  1  1
 14 13  1  0
 15 24  1  0
 15 12  1  0
 16 15  2  0
 18 17  1  0
 19 18  2  0
 20 19  1  0
 21 20  2  0
 21 27  1  0
 22 21  1  0
 23 22  1  6
 23 24  1  0
 25 23  1  0
 25 29  1  0
 26 25  2  0
 27 28  2  0
 28 18  1  0
M  END
$$$$
