ECR.pdb
     RDKit          3D

 27 26  0  0  1  0  0  0  0  0999 V2000
    6.7648  -18.6705   17.5400 N   0  0  0  0  0  0  0  0  0  0  0  0
    8.1815  -18.3547   17.3403 C   0  0  1  0  0  0  0  0  0  0  0  0
    8.4489  -18.1279   15.8773 C   0  0  0  0  0  0  0  0  0  0  0  0
    9.9112  -18.0220   15.5801 C   0  0  0  0  0  0  0  0  0  0  0  0
   10.1614  -17.7723   14.1302 C   0  0  0  0  0  0  0  0  0  0  0  0
    9.5396  -18.4114   13.2644 O   0  0  0  0  0  0  0  0  0  0  0  0
    8.6314  -17.2982   18.2445 C   0  0  0  0  0  0  0  0  0  0  0  0
    9.8606  -17.0370   18.3194 O   0  0  0  0  0  0  0  0  0  0  0  0
   11.0877  -16.8273   13.7640 O   0  0  0  0  0  0  0  0  0  0  0  0
    7.7326  -16.5352   19.0605 N   0  0  0  0  0  0  0  0  0  0  0  0
    8.2531  -15.5870   19.9770 C   0  0  1  0  0  0  0  0  0  0  0  0
    7.1158  -14.6672   20.3945 C   0  0  0  0  0  0  0  0  0  0  0  0
    5.8657  -15.6196   21.3010 S   0  0  0  0  0  0  0  0  0  0  0  0
    8.7829  -16.2029   21.2258 C   0  0  0  0  0  0  0  0  0  0  0  0
    8.4468  -17.3613   21.5901 O   0  0  0  0  0  0  0  0  0  0  0  0
   17.1450  -16.2825   23.6841 N   0  0  0  0  0  0  0  0  0  0  0  0
   16.4176  -17.1695   24.5234 C   0  0  0  0  0  0  0  0  0  0  0  0
   17.0201  -18.0862   25.1991 N   0  0  0  0  0  0  0  0  0  0  0  0
   14.9988  -17.0671   24.6386 N   0  0  0  0  0  0  0  0  0  0  0  0
   14.2010  -16.3937   23.6572 C   0  0  0  0  0  0  0  0  0  0  0  0
   12.7255  -16.5737   24.0377 C   0  0  0  0  0  0  0  0  0  0  0  0
   11.9116  -15.9636   22.9365 C   0  0  0  0  0  0  0  0  0  0  0  0
   10.4255  -16.1576   23.1373 C   0  0  2  0  0  0  0  0  0  0  0  0
    9.6955  -15.5094   22.0674 N   0  0  0  0  0  0  0  0  0  0  0  0
    9.9641  -15.6500   24.4408 C   0  0  0  0  0  0  0  0  0  0  0  0
    9.3659  -14.5479   24.4865 O   0  0  0  0  0  0  0  0  0  0  0  0
   10.1561  -16.3293   25.6316 O   0  0  0  0  0  0  0  0  0  0  0  0
  2  1  1  6
  2  3  1  0
  4  3  1  0
  5  4  1  0
  5  6  2  0
  7  2  1  0
  8  7  2  0
  9  5  1  0
 10  7  1  0
 11 12  1  1
 11 10  1  0
 12 13  1  0
 14 11  1  0
 14 15  2  0
 16 17  1  0
 17 18  2  0
 19 17  1  0
 20 19  1  0
 21 22  1  0
 21 20  1  0
 23 22  1  6
 23 24  1  0
 24 14  1  0
 25 23  1  0
 25 27  1  0
 26 25  2  0
M  END
$$$$
