ECR.pdb
     RDKit          3D

 27 26  0  0  1  0  0  0  0  0999 V2000
    9.2932  -16.6048   15.5034 N   0  0  0  0  0  0  0  0  0  0  0  0
    8.4000  -16.7400   16.6570 C   0  0  1  0  0  0  0  0  0  0  0  0
    8.0230  -18.1849   16.8395 C   0  0  0  0  0  0  0  0  0  0  0  0
    7.0038  -18.6333   15.8404 C   0  0  0  0  0  0  0  0  0  0  0  0
    6.1951  -19.7772   16.3547 C   0  0  0  0  0  0  0  0  0  0  0  0
    5.2283  -19.5762   17.1095 O   0  0  0  0  0  0  0  0  0  0  0  0
    8.9366  -16.0646   17.8369 C   0  0  0  0  0  0  0  0  0  0  0  0
   10.1468  -16.2306   18.1415 O   0  0  0  0  0  0  0  0  0  0  0  0
    6.5323  -21.0554   15.9838 O   0  0  0  0  0  0  0  0  0  0  0  0
    8.1448  -15.2124   18.6751 N   0  0  0  0  0  0  0  0  0  0  0  0
    8.7146  -14.6619   19.8508 C   0  0  1  0  0  0  0  0  0  0  0  0
    7.7492  -13.6195   20.3942 C   0  0  0  0  0  0  0  0  0  0  0  0
    7.5789  -12.2664   19.1976 S   0  0  0  0  0  0  0  0  0  0  0  0
    8.9135  -15.6641   20.9349 C   0  0  0  0  0  0  0  0  0  0  0  0
    8.0622  -16.5614   21.1751 O   0  0  0  0  0  0  0  0  0  0  0  0
   14.3553  -20.9989   21.5055 N   0  0  0  0  0  0  0  0  0  0  0  0
   14.2533  -20.3070   20.2682 C   0  0  0  0  0  0  0  0  0  0  0  0
   14.5311  -20.8943   19.1556 N   0  0  0  0  0  0  0  0  0  0  0  0
   13.8403  -18.9415   20.2270 N   0  0  0  0  0  0  0  0  0  0  0  0
   13.5480  -18.1974   21.4160 C   0  0  0  0  0  0  0  0  0  0  0  0
   12.0483  -17.8730   21.4185 C   0  0  0  0  0  0  0  0  0  0  0  0
   11.7645  -17.1226   22.6849 C   0  0  0  0  0  0  0  0  0  0  0  0
   10.3302  -16.6516   22.7713 C   0  0  2  0  0  0  0  0  0  0  0  0
   10.0775  -15.6544   21.7518 N   0  0  0  0  0  0  0  0  0  0  0  0
    9.9964  -16.1092   24.0994 C   0  0  0  0  0  0  0  0  0  0  0  0
    9.7820  -14.8785   24.2167 O   0  0  0  0  0  0  0  0  0  0  0  0
    9.9050  -16.8912   25.2381 O   0  0  0  0  0  0  0  0  0  0  0  0
  2  1  1  6
  2  3  1  0
  4  3  1  0
  5  4  1  0
  5  6  2  0
  7  2  1  0
  8  7  2  0
  9  5  1  0
 10  7  1  0
 11 12  1  1
 11 10  1  0
 12 13  1  0
 14 11  1  0
 14 15  2  0
 16 17  1  0
 17 18  2  0
 19 17  1  0
 20 19  1  0
 21 22  1  0
 21 20  1  0
 23 22  1  1
 23 24  1  0
 24 14  1  0
 25 23  1  0
 25 27  1  0
 26 25  2  0
M  END
$$$$
