ECR.pdb
     RDKit          3D

 27 26  0  0  1  0  0  0  0  0999 V2000
    8.1408  -14.5856   20.6184 N   0  0  0  0  0  0  0  0  0  0  0  0
    7.2045  -14.5881   21.7454 C   0  0  1  0  0  0  0  0  0  0  0  0
    6.3701  -15.8394   21.7083 C   0  0  0  0  0  0  0  0  0  0  0  0
    7.1522  -17.0519   22.1031 C   0  0  0  0  0  0  0  0  0  0  0  0
    6.3363  -18.2958   21.9847 C   0  0  0  0  0  0  0  0  0  0  0  0
    5.2918  -18.4293   22.6450 O   0  0  0  0  0  0  0  0  0  0  0  0
    7.8815  -14.3076   23.0099 C   0  0  0  0  0  0  0  0  0  0  0  0
    9.0262  -14.7905   23.2133 O   0  0  0  0  0  0  0  0  0  0  0  0
    6.7537  -19.2918   21.1368 O   0  0  0  0  0  0  0  0  0  0  0  0
    7.3008  -13.5006   24.0430 N   0  0  0  0  0  0  0  0  0  0  0  0
    7.9853  -13.3406   25.2742 C   0  0  1  0  0  0  0  0  0  0  0  0
    7.1969  -12.3546   26.1228 C   0  0  0  0  0  0  0  0  0  0  0  0
    5.4707  -12.9002   26.2423 S   0  0  0  0  0  0  0  0  0  0  0  0
    8.0811  -14.6003   26.0638 C   0  0  0  0  0  0  0  0  0  0  0  0
    7.2983  -15.5682   25.8690 O   0  0  0  0  0  0  0  0  0  0  0  0
    9.1085  -22.3059   25.6375 N   0  0  0  0  0  0  0  0  0  0  0  0
    8.2002  -21.2513   25.9254 C   0  0  0  0  0  0  0  0  0  0  0  0
    6.9742  -21.3069   25.5334 N   0  0  0  0  0  0  0  0  0  0  0  0
    8.6243  -20.1017   26.6572 N   0  0  0  0  0  0  0  0  0  0  0  0
    9.8804  -19.4595   26.4069 C   0  0  0  0  0  0  0  0  0  0  0  0
   10.0821  -18.3753   27.4737 C   0  0  0  0  0  0  0  0  0  0  0  0
    9.8219  -17.0556   26.8118 C   0  0  0  0  0  0  0  0  0  0  0  0
    9.2704  -16.0243   27.7703 C   0  0  2  0  0  0  0  0  0  0  0  0
    9.0639  -14.7692   27.0776 N   0  0  0  0  0  0  0  0  0  0  0  0
   10.1456  -15.8171   28.9368 C   0  0  0  0  0  0  0  0  0  0  0  0
   10.5963  -14.6679   29.1617 O   0  0  0  0  0  0  0  0  0  0  0  0
   10.5023  -16.8317   29.8084 O   0  0  0  0  0  0  0  0  0  0  0  0
  2  1  1  6
  2  3  1  0
  4  3  1  0
  5  4  1  0
  5  6  2  0
  7  2  1  0
  8  7  2  0
  9  5  1  0
 10  7  1  0
 11 12  1  1
 11 10  1  0
 12 13  1  0
 14 11  1  0
 14 15  2  0
 16 17  1  0
 17 18  2  0
 19 17  1  0
 20 19  1  0
 21 22  1  0
 21 20  1  0
 23 22  1  6
 23 24  1  0
 24 14  1  0
 25 23  1  0
 25 27  1  0
 26 25  2  0
M  END
$$$$
