ECR.pdb
     RDKit          3D

 27 26  0  0  1  0  0  0  0  0999 V2000
    4.8536  -19.0165   21.8205 N   0  0  0  0  0  0  0  0  0  0  0  0
    5.6736  -18.8391   23.0217 C   0  0  1  0  0  0  0  0  0  0  0  0
    6.2991  -20.1520   23.4066 C   0  0  0  0  0  0  0  0  0  0  0  0
    6.9637  -20.8230   22.2463 C   0  0  0  0  0  0  0  0  0  0  0  0
    8.2565  -21.4543   22.6423 C   0  0  0  0  0  0  0  0  0  0  0  0
    8.6446  -21.4087   23.8222 O   0  0  0  0  0  0  0  0  0  0  0  0
    6.5899  -17.7085   22.8874 C   0  0  0  0  0  0  0  0  0  0  0  0
    6.9651  -17.3560   21.7385 O   0  0  0  0  0  0  0  0  0  0  0  0
    9.0129  -22.0866   21.6867 O   0  0  0  0  0  0  0  0  0  0  0  0
    7.0892  -16.9717   24.0115 N   0  0  0  0  0  0  0  0  0  0  0  0
    8.0204  -15.9231   23.8033 C   0  0  1  0  0  0  0  0  0  0  0  0
    7.8664  -14.9279   24.9433 C   0  0  0  0  0  0  0  0  0  0  0  0
    7.7295  -15.8220   26.5161 S   0  0  0  0  0  0  0  0  0  0  0  0
    9.4382  -16.3802   23.8259 C   0  0  0  0  0  0  0  0  0  0  0  0
    9.7705  -17.4918   24.3172 O   0  0  0  0  0  0  0  0  0  0  0  0
   15.0125  -12.9607   17.7572 N   0  0  0  0  0  0  0  0  0  0  0  0
   15.4998  -14.2570   18.0772 C   0  0  0  0  0  0  0  0  0  0  0  0
   16.5255  -14.7477   17.4714 N   0  0  0  0  0  0  0  0  0  0  0  0
   14.8636  -15.0493   19.0794 N   0  0  0  0  0  0  0  0  0  0  0  0
   13.7278  -14.5792   19.8155 C   0  0  0  0  0  0  0  0  0  0  0  0
   13.2950  -15.6884   20.7834 C   0  0  0  0  0  0  0  0  0  0  0  0
   12.1027  -15.1750   21.5331 C   0  0  0  0  0  0  0  0  0  0  0  0
   11.6244  -16.1405   22.5941 C   0  0  2  0  0  0  0  0  0  0  0  0
   10.4856  -15.5802   23.2920 N   0  0  0  0  0  0  0  0  0  0  0  0
   12.6840  -16.4869   23.5568 C   0  0  0  0  0  0  0  0  0  0  0  0
   13.6916  -17.1152   23.1513 O   0  0  0  0  0  0  0  0  0  0  0  0
   12.6290  -16.1537   24.8992 O   0  0  0  0  0  0  0  0  0  0  0  0
  2  1  1  6
  2  3  1  0
  4  3  1  0
  5  4  1  0
  5  6  2  0
  7  2  1  0
  8  7  2  0
  9  5  1  0
 10  7  1  0
 11 12  1  1
 11 10  1  0
 12 13  1  0
 14 11  1  0
 14 15  2  0
 16 17  1  0
 17 18  2  0
 19 17  1  0
 20 19  1  0
 21 22  1  0
 21 20  1  0
 23 22  1  6
 23 24  1  0
 24 14  1  0
 25 23  1  0
 25 27  1  0
 26 25  2  0
M  END
$$$$
