ECR.pdb
     RDKit          3D

 27 26  0  0  1  0  0  0  0  0999 V2000
    7.4053  -12.6242   19.3349 N   0  0  0  0  0  0  0  0  0  0  0  0
    7.3743  -13.7211   20.3058 C   0  0  1  0  0  0  0  0  0  0  0  0
    7.9848  -14.9540   19.6972 C   0  0  0  0  0  0  0  0  0  0  0  0
    7.2335  -15.4196   18.4902 C   0  0  0  0  0  0  0  0  0  0  0  0
    7.8691  -16.6222   17.8764 C   0  0  0  0  0  0  0  0  0  0  0  0
    7.7470  -16.8478   16.6602 O   0  0  0  0  0  0  0  0  0  0  0  0
    7.9151  -13.3113   21.6003 C   0  0  0  0  0  0  0  0  0  0  0  0
    8.9704  -12.6256   21.6350 O   0  0  0  0  0  0  0  0  0  0  0  0
    8.5908  -17.4774   18.6721 O   0  0  0  0  0  0  0  0  0  0  0  0
    7.2972  -13.6550   22.8476 N   0  0  0  0  0  0  0  0  0  0  0  0
    8.1081  -13.9561   23.9709 C   0  0  1  0  0  0  0  0  0  0  0  0
    7.5210  -13.2389   25.1770 C   0  0  0  0  0  0  0  0  0  0  0  0
    5.7708  -12.8705   24.8724 S   0  0  0  0  0  0  0  0  0  0  0  0
    8.1328  -15.4069   24.3087 C   0  0  0  0  0  0  0  0  0  0  0  0
    7.2450  -16.2005   23.8969 O   0  0  0  0  0  0  0  0  0  0  0  0
   15.5895  -14.4811   20.9049 N   0  0  0  0  0  0  0  0  0  0  0  0
   15.3655  -15.7984   21.3894 C   0  0  0  0  0  0  0  0  0  0  0  0
   16.0539  -16.7934   20.9466 N   0  0  0  0  0  0  0  0  0  0  0  0
   14.3701  -16.0527   22.3800 N   0  0  0  0  0  0  0  0  0  0  0  0
   13.0112  -15.6267   22.2221 C   0  0  0  0  0  0  0  0  0  0  0  0
   12.1033  -16.6807   22.8694 C   0  0  0  0  0  0  0  0  0  0  0  0
   10.9379  -15.9492   23.4645 C   0  0  0  0  0  0  0  0  0  0  0  0
   10.2603  -16.7343   24.5649 C   0  0  2  0  0  0  0  0  0  0  0  0
    9.1630  -15.9651   25.1144 N   0  0  0  0  0  0  0  0  0  0  0  0
   11.1938  -17.1169   25.6382 C   0  0  0  0  0  0  0  0  0  0  0  0
   11.2327  -16.4254   26.6845 O   0  0  0  0  0  0  0  0  0  0  0  0
   12.0397  -18.2094   25.5553 O   0  0  0  0  0  0  0  0  0  0  0  0
  2  1  1  6
  2  3  1  0
  4  3  1  0
  5  4  1  0
  5  6  2  0
  7  2  1  0
  8  7  2  0
  9  5  1  0
 10  7  1  0
 11 12  1  1
 11 10  1  0
 12 13  1  0
 14 11  1  0
 14 15  2  0
 16 17  1  0
 17 18  2  0
 19 17  1  0
 20 19  1  0
 21 22  1  0
 21 20  1  0
 23 22  1  6
 23 24  1  0
 24 14  1  0
 25 23  1  0
 25 27  1  0
 26 25  2  0
M  END
$$$$
