ECR.pdb
     RDKit          3D

 27 26  0  0  1  0  0  0  0  0999 V2000
    6.9241  -19.9758   20.0169 N   0  0  0  0  0  0  0  0  0  0  0  0
    6.3422  -18.7509   20.5716 C   0  0  1  0  0  0  0  0  0  0  0  0
    5.7773  -19.0315   21.9374 C   0  0  0  0  0  0  0  0  0  0  0  0
    6.8367  -19.4283   22.9163 C   0  0  0  0  0  0  0  0  0  0  0  0
    6.2801  -19.5989   24.2904 C   0  0  0  0  0  0  0  0  0  0  0  0
    5.6367  -20.6201   24.5871 O   0  0  0  0  0  0  0  0  0  0  0  0
    7.2691  -17.6244   20.4814 C   0  0  0  0  0  0  0  0  0  0  0  0
    8.5080  -17.8481   20.4783 O   0  0  0  0  0  0  0  0  0  0  0  0
    6.4876  -18.6134   25.2236 O   0  0  0  0  0  0  0  0  0  0  0  0
    6.8334  -16.2612   20.3952 N   0  0  0  0  0  0  0  0  0  0  0  0
    7.7943  -15.2188   20.3821 C   0  0  1  0  0  0  0  0  0  0  0  0
    7.0522  -13.9008   20.2208 C   0  0  0  0  0  0  0  0  0  0  0  0
    8.2456  -12.5361   20.1502 S   0  0  0  0  0  0  0  0  0  0  0  0
    8.5717  -15.1173   21.6490 C   0  0  0  0  0  0  0  0  0  0  0  0
    8.0454  -14.7174   22.7217 O   0  0  0  0  0  0  0  0  0  0  0  0
   10.4625  -16.5076   29.3444 N   0  0  0  0  0  0  0  0  0  0  0  0
   10.1163  -15.2992   28.6810 C   0  0  0  0  0  0  0  0  0  0  0  0
    9.9133  -14.2136   29.3445 N   0  0  0  0  0  0  0  0  0  0  0  0
    9.9842  -15.2579   27.2605 N   0  0  0  0  0  0  0  0  0  0  0  0
   10.0549  -16.4399   26.4538 C   0  0  0  0  0  0  0  0  0  0  0  0
   10.9767  -16.1489   25.2622 C   0  0  0  0  0  0  0  0  0  0  0  0
   10.1107  -16.1029   24.0394 C   0  0  0  0  0  0  0  0  0  0  0  0
   10.7458  -15.3274   22.9073 C   0  0  2  0  0  0  0  0  0  0  0  0
    9.9486  -15.4681   21.7063 N   0  0  0  0  0  0  0  0  0  0  0  0
   12.1315  -15.7518   22.6440 C   0  0  0  0  0  0  0  0  0  0  0  0
   12.3929  -16.3381   21.5658 O   0  0  0  0  0  0  0  0  0  0  0  0
   13.1730  -15.5371   23.5302 O   0  0  0  0  0  0  0  0  0  0  0  0
  2  1  1  1
  2  3  1  0
  4  3  1  0
  5  4  1  0
  5  6  2  0
  7  2  1  0
  8  7  2  0
  9  5  1  0
 10  7  1  0
 11 12  1  1
 11 10  1  0
 12 13  1  0
 14 11  1  0
 14 15  2  0
 16 17  1  0
 17 18  2  0
 19 17  1  0
 20 19  1  0
 21 22  1  0
 21 20  1  0
 23 22  1  1
 23 24  1  0
 24 14  1  0
 25 23  1  0
 25 27  1  0
 26 25  2  0
M  END
$$$$
