ECR.pdb
     RDKit          3D

 27 26  0  0  1  0  0  0  0  0999 V2000
    7.7244  -18.0970   17.6362 N   0  0  0  0  0  0  0  0  0  0  0  0
    8.8937  -17.2168   17.5673 C   0  0  1  0  0  0  0  0  0  0  0  0
    8.8842  -16.4626   16.2656 C   0  0  0  0  0  0  0  0  0  0  0  0
    8.9904  -17.3740   15.0840 C   0  0  0  0  0  0  0  0  0  0  0  0
   10.3679  -17.3730   14.5102 C   0  0  0  0  0  0  0  0  0  0  0  0
   11.2577  -16.6628   15.0091 O   0  0  0  0  0  0  0  0  0  0  0  0
    9.0306  -16.4061   18.7757 C   0  0  0  0  0  0  0  0  0  0  0  0
   10.1049  -15.7813   18.9769 O   0  0  0  0  0  0  0  0  0  0  0  0
   10.6409  -18.1666   13.4236 O   0  0  0  0  0  0  0  0  0  0  0  0
    7.9908  -16.2851   19.7554 N   0  0  0  0  0  0  0  0  0  0  0  0
    8.2358  -15.5628   20.9505 C   0  0  1  0  0  0  0  0  0  0  0  0
    6.9083  -15.3896   21.6727 C   0  0  0  0  0  0  0  0  0  0  0  0
    7.1957  -14.6476   23.3032 S   0  0  0  0  0  0  0  0  0  0  0  0
    9.1439  -16.2737   21.8937 C   0  0  0  0  0  0  0  0  0  0  0  0
    8.9583  -17.4778   22.2149 O   0  0  0  0  0  0  0  0  0  0  0  0
   18.1348  -15.7606   21.9372 N   0  0  0  0  0  0  0  0  0  0  0  0
   16.8136  -15.4141   21.5440 C   0  0  0  0  0  0  0  0  0  0  0  0
   16.5998  -14.4508   20.7157 N   0  0  0  0  0  0  0  0  0  0  0  0
   15.6885  -16.1259   22.0581 N   0  0  0  0  0  0  0  0  0  0  0  0
   15.0387  -15.7464   23.2774 C   0  0  0  0  0  0  0  0  0  0  0  0
   13.7764  -16.6049   23.4317 C   0  0  0  0  0  0  0  0  0  0  0  0
   12.6614  -15.8711   22.7492 C   0  0  0  0  0  0  0  0  0  0  0  0
   11.2965  -16.3365   23.2040 C   0  0  2  0  0  0  0  0  0  0  0  0
   10.2661  -15.6238   22.4772 N   0  0  0  0  0  0  0  0  0  0  0  0
   11.0993  -16.1659   24.6537 C   0  0  0  0  0  0  0  0  0  0  0  0
   11.8348  -16.8028   25.4460 O   0  0  0  0  0  0  0  0  0  0  0  0
   10.1365  -15.3322   25.1963 O   0  0  0  0  0  0  0  0  0  0  0  0
  2  1  1  1
  2  3  1  0
  4  3  1  0
  5  4  1  0
  5  6  2  0
  7  2  1  0
  8  7  2  0
  9  5  1  0
 10  7  1  0
 11 12  1  1
 11 10  1  0
 12 13  1  0
 14 11  1  0
 14 15  2  0
 16 17  1  0
 17 18  2  0
 19 17  1  0
 20 19  1  0
 21 22  1  0
 21 20  1  0
 23 22  1  6
 23 24  1  0
 24 14  1  0
 25 23  1  0
 25 27  1  0
 26 25  2  0
M  END
$$$$
