CRW.pdb
     RDKit          3D

 32 33  0  0  1  0  0  0  0  0999 V2000
   28.0176  -21.5415  -22.5362 N   0  0  0  0  0  0  0  0  0  0  0  0
   28.1096  -20.8271  -21.2842 C   0  0  1  0  0  0  0  0  0  0  0  0
   27.2986  -19.5746  -21.2916 C   0  0  0  0  0  0  0  0  0  0  0  0
   25.6745  -19.7429  -20.5556 S   0  0  0  0  0  0  0  0  0  0  0  0
   27.8117  -21.7196  -20.1342 C   0  0  0  0  0  0  0  0  0  0  0  0
   27.1446  -22.7720  -20.2429 O   0  0  0  0  0  0  0  0  0  0  0  0
   32.3643  -26.3418  -17.5060 N   0  0  0  0  0  0  0  0  0  0  0  0
   31.8170  -25.7073  -16.3524 C   0  0  0  0  0  0  0  0  0  0  0  0
   32.6459  -25.3916  -15.4184 N   0  0  0  0  0  0  0  0  0  0  0  0
   30.4343  -25.4223  -16.2055 N   0  0  0  0  0  0  0  0  0  0  0  0
   29.6820  -24.6731  -17.1580 C   0  0  0  0  0  0  0  0  0  0  0  0
   30.2203  -23.2755  -17.3750 C   0  0  0  0  0  0  0  0  0  0  0  0
   29.2332  -22.2943  -16.8233 C   0  0  0  0  0  0  0  0  0  0  0  0
   28.0012  -22.0978  -17.6410 C   0  0  2  0  0  0  0  0  0  0  0  0
   28.2976  -21.3753  -18.8574 N   0  0  0  0  0  0  0  0  0  0  0  0
   27.0517  -21.3023  -16.7798 C   0  0  0  0  0  0  0  0  0  0  0  0
   27.0973  -20.0480  -16.7577 O   0  0  0  0  0  0  0  0  0  0  0  0
   33.6433  -25.6105  -15.4160 N   0  0  0  0  0  0  0  0  0  0  0  0
   26.1030  -21.9768  -15.9913 C   0  0  2  0  0  0  0  0  0  0  0  0
   25.3457  -21.2882  -14.9433 C   0  0  0  0  0  0  0  0  0  0  0  0
   24.7387  -22.3691  -14.0381 C   0  0  0  0  0  0  0  0  0  0  0  0
   24.1062  -21.7174  -12.8426 C   0  0  0  0  0  0  0  0  0  0  0  0
   22.7943  -21.3380  -12.6612 N   0  0  0  0  0  0  0  0  0  0  0  0
   22.6716  -20.7943  -11.4445 C   0  0  0  0  0  0  0  0  0  0  0  0
   23.8494  -20.7948  -10.8043 C   0  0  0  0  0  0  0  0  0  0  0  0
   24.2364  -20.3542   -9.5548 C   0  0  0  0  0  0  0  0  0  0  0  0
   25.5681  -20.5171   -9.2156 C   0  0  0  0  0  0  0  0  0  0  0  0
   26.4806  -21.0838  -10.0569 C   0  0  0  0  0  0  0  0  0  0  0  0
   26.0765  -21.5134  -11.2898 C   0  0  0  0  0  0  0  0  0  0  0  0
   24.7583  -21.3699  -11.6672 C   0  0  0  0  0  0  0  0  0  0  0  0
   26.2397  -20.4248  -14.1410 O   0  0  0  0  0  0  0  0  0  0  0  0
   27.4043  -20.7971  -13.8073 O   0  0  0  0  0  0  0  0  0  0  0  0
  2  1  1  6
  3  2  1  0
  4  3  1  0
  5  6  2  0
  5  2  1  0
  7  8  1  0
  8  9  2  0
 10 11  1  0
 10  8  1  0
 11 12  1  0
 12 13  1  0
 14 13  1  1
 14 15  1  0
 15  5  1  0
 16 14  1  0
 17 16  2  0
 18 16  1  0
 19 30  1  0
 19 18  1  0
 19 20  1  6
 21 22  2  0
 21 20  1  0
 23 22  1  0
 24 29  2  0
 24 23  1  0
 25 24  1  0
 26 27  1  0
 26 25  2  0
 27 28  2  0
 28 29  1  0
 29 21  1  0
 30 32  1  0
 31 30  2  0
M  END
$$$$
