CRW.pdb
     RDKit          3D

 32 33  0  0  1  0  0  0  0  0999 V2000
   27.9099  -22.1066  -15.9330 N   0  0  0  0  0  0  0  0  0  0  0  0
   28.1481  -21.0979  -14.9269 C   0  0  1  0  0  0  0  0  0  0  0  0
   28.9275  -19.9438  -15.4625 C   0  0  0  0  0  0  0  0  0  0  0  0
   29.1186  -18.5849  -14.3114 S   0  0  0  0  0  0  0  0  0  0  0  0
   26.8832  -20.6995  -14.2568 C   0  0  0  0  0  0  0  0  0  0  0  0
   26.1175  -19.8217  -14.7125 O   0  0  0  0  0  0  0  0  0  0  0  0
   24.5785  -24.8599  -15.3722 N   0  0  0  0  0  0  0  0  0  0  0  0
   23.3558  -25.0085  -14.6539 C   0  0  0  0  0  0  0  0  0  0  0  0
   22.8547  -26.1940  -14.6049 N   0  0  0  0  0  0  0  0  0  0  0  0
   22.6956  -23.9279  -14.0130 N   0  0  0  0  0  0  0  0  0  0  0  0
   22.6936  -22.5958  -14.5232 C   0  0  0  0  0  0  0  0  0  0  0  0
   23.9728  -21.8434  -14.2271 C   0  0  0  0  0  0  0  0  0  0  0  0
   24.1630  -21.7933  -12.7430 C   0  0  0  0  0  0  0  0  0  0  0  0
   25.3431  -21.0098  -12.2753 C   0  0  2  0  0  0  0  0  0  0  0  0
   26.5187  -21.3323  -13.0520 N   0  0  0  0  0  0  0  0  0  0  0  0
   25.5511  -21.3917  -10.8306 C   0  0  0  0  0  0  0  0  0  0  0  0
   25.7789  -22.5823  -10.5044 O   0  0  0  0  0  0  0  0  0  0  0  0
   21.9946  -26.4514  -14.1181 N   0  0  0  0  0  0  0  0  0  0  0  0
   25.4885  -20.3989   -9.8370 C   0  0  1  0  0  0  0  0  0  0  0  0
   25.4741  -20.7380   -8.4120 C   0  0  0  0  0  0  0  0  0  0  0  0
   26.0477  -19.5331   -7.6536 C   0  0  0  0  0  0  0  0  0  0  0  0
   27.5207  -19.7337   -7.4442 C   0  0  0  0  0  0  0  0  0  0  0  0
   28.4653  -20.1828   -8.3408 N   0  0  0  0  0  0  0  0  0  0  0  0
   29.6556  -20.2084   -7.7296 C   0  0  0  0  0  0  0  0  0  0  0  0
   29.5451  -19.7942   -6.4595 C   0  0  0  0  0  0  0  0  0  0  0  0
   30.4635  -19.6443   -5.4399 C   0  0  0  0  0  0  0  0  0  0  0  0
   29.9854  -19.1819   -4.2264 C   0  0  0  0  0  0  0  0  0  0  0  0
   28.6715  -18.8794   -4.0171 C   0  0  0  0  0  0  0  0  0  0  0  0
   27.7786  -19.0349   -5.0401 C   0  0  0  0  0  0  0  0  0  0  0  0
   28.2136  -19.4932   -6.2653 C   0  0  0  0  0  0  0  0  0  0  0  0
   24.0902  -20.9898   -7.9538 O   0  0  0  0  0  0  0  0  0  0  0  0
   23.0852  -20.6438   -8.6441 O   0  0  0  0  0  0  0  0  0  0  0  0
  2  1  1  6
  3  2  1  0
  4  3  1  0
  5  6  2  0
  5  2  1  0
  7  8  1  0
  8  9  2  0
 10 11  1  0
 10  8  1  0
 11 12  1  0
 12 13  1  0
 14 13  1  6
 14 15  1  0
 15  5  1  0
 16 14  1  0
 17 16  2  0
 18 16  1  0
 19 30  1  0
 19 18  1  0
 19 20  1  1
 21 22  2  0
 21 20  1  0
 23 22  1  0
 24 29  2  0
 24 23  1  0
 25 24  1  0
 26 27  1  0
 26 25  2  0
 27 28  2  0
 28 29  1  0
 29 21  1  0
 30 32  1  0
 31 30  2  0
M  END
$$$$
