CRW.pdb
     RDKit          3D

 32 33  0  0  1  0  0  0  0  0999 V2000
   29.7564  -20.1493  -18.9747 N   0  0  0  0  0  0  0  0  0  0  0  0
   28.7238  -20.8926  -18.2909 C   0  0  1  0  0  0  0  0  0  0  0  0
   29.1079  -22.3180  -18.0742 C   0  0  0  0  0  0  0  0  0  0  0  0
   29.5009  -22.7261  -16.3751 S   0  0  0  0  0  0  0  0  0  0  0  0
   28.2962  -20.1982  -17.0488 C   0  0  0  0  0  0  0  0  0  0  0  0
   29.0269  -19.3913  -16.4328 O   0  0  0  0  0  0  0  0  0  0  0  0
   21.2805  -17.7451  -14.3104 N   0  0  0  0  0  0  0  0  0  0  0  0
   21.6841  -17.1530  -15.5432 C   0  0  0  0  0  0  0  0  0  0  0  0
   21.2321  -15.9730  -15.7929 N   0  0  0  0  0  0  0  0  0  0  0  0
   22.5390  -17.8010  -16.4725 N   0  0  0  0  0  0  0  0  0  0  0  0
   23.0324  -19.1272  -16.2924 C   0  0  0  0  0  0  0  0  0  0  0  0
   24.4539  -19.3046  -16.7799 C   0  0  0  0  0  0  0  0  0  0  0  0
   25.3874  -18.8634  -15.6958 C   0  0  0  0  0  0  0  0  0  0  0  0
   26.4640  -19.8343  -15.3442 C   0  0  2  0  0  0  0  0  0  0  0  0
   27.0108  -20.4523  -16.5311 N   0  0  0  0  0  0  0  0  0  0  0  0
   25.8159  -20.8752  -14.4652 C   0  0  0  0  0  0  0  0  0  0  0  0
   25.2478  -21.8776  -14.9636 O   0  0  0  0  0  0  0  0  0  0  0  0
   21.4169  -15.4381  -16.6429 N   0  0  0  0  0  0  0  0  0  0  0  0
   25.8495  -20.7188  -13.0684 C   0  0  2  0  0  0  0  0  0  0  0  0
   25.1906  -21.6722  -12.1725 C   0  0  0  0  0  0  0  0  0  0  0  0
   26.2255  -22.0955  -11.1208 C   0  0  0  0  0  0  0  0  0  0  0  0
   26.2948  -21.0514  -10.0443 C   0  0  0  0  0  0  0  0  0  0  0  0
   25.3611  -20.0953   -9.7095 N   0  0  0  0  0  0  0  0  0  0  0  0
   25.8366  -19.3738   -8.6876 C   0  0  0  0  0  0  0  0  0  0  0  0
   27.0516  -19.8092   -8.3250 C   0  0  0  0  0  0  0  0  0  0  0  0
   27.9384  -19.4043   -7.3479 C   0  0  0  0  0  0  0  0  0  0  0  0
   29.1320  -20.0985   -7.2557 C   0  0  0  0  0  0  0  0  0  0  0  0
   29.4459  -21.1402   -8.0791 C   0  0  0  0  0  0  0  0  0  0  0  0
   28.5535  -21.5251   -9.0400 C   0  0  0  0  0  0  0  0  0  0  0  0
   27.3526  -20.8599   -9.1656 C   0  0  0  0  0  0  0  0  0  0  0  0
   24.0390  -21.0361  -11.4960 O   0  0  0  0  0  0  0  0  0  0  0  0
   23.9421  -19.7774  -11.3849 O   0  0  0  0  0  0  0  0  0  0  0  0
  2  1  1  1
  3  2  1  0
  4  3  1  0
  5  6  2  0
  5  2  1  0
  7  8  1  0
  8  9  2  0
 10 11  1  0
 10  8  1  0
 11 12  1  0
 12 13  1  0
 14 13  1  6
 14 15  1  0
 15  5  1  0
 16 14  1  0
 17 16  2  0
 18 16  1  0
 19 30  1  0
 19 18  1  0
 19 20  1  6
 21 22  2  0
 21 20  1  0
 23 22  1  0
 24 29  2  0
 24 23  1  0
 25 24  1  0
 26 27  1  0
 26 25  2  0
 27 28  2  0
 28 29  1  0
 29 21  1  0
 30 32  1  0
 31 30  2  0
M  END
$$$$
