CRW.pdb
     RDKit          3D

 32 33  0  0  1  0  0  0  0  0999 V2000
   26.8179  -16.2203  -18.1426 N   0  0  0  0  0  0  0  0  0  0  0  0
   26.0164  -16.4362  -16.9605 C   0  0  1  0  0  0  0  0  0  0  0  0
   25.5436  -15.1544  -16.3608 C   0  0  0  0  0  0  0  0  0  0  0  0
   26.7571  -14.3281  -15.3349 S   0  0  0  0  0  0  0  0  0  0  0  0
   24.9224  -17.4066  -17.2241 C   0  0  0  0  0  0  0  0  0  0  0  0
   24.0725  -17.2469  -18.1278 O   0  0  0  0  0  0  0  0  0  0  0  0
   25.5010  -24.2324  -15.1766 N   0  0  0  0  0  0  0  0  0  0  0  0
   26.3096  -23.8390  -16.2833 C   0  0  0  0  0  0  0  0  0  0  0  0
   27.5264  -24.2613  -16.2890 N   0  0  0  0  0  0  0  0  0  0  0  0
   25.8322  -23.0242  -17.3428 N   0  0  0  0  0  0  0  0  0  0  0  0
   24.4745  -23.0216  -17.7802 C   0  0  0  0  0  0  0  0  0  0  0  0
   23.8678  -21.6361  -17.8291 C   0  0  0  0  0  0  0  0  0  0  0  0
   24.2433  -20.9076  -16.5762 C   0  0  0  0  0  0  0  0  0  0  0  0
   23.7349  -19.5090  -16.4727 C   0  0  2  0  0  0  0  0  0  0  0  0
   24.8275  -18.5637  -16.4260 N   0  0  0  0  0  0  0  0  0  0  0  0
   22.9378  -19.4488  -15.1932 C   0  0  0  0  0  0  0  0  0  0  0  0
   23.5110  -19.3799  -14.0785 O   0  0  0  0  0  0  0  0  0  0  0  0
   28.2170  -24.0610  -17.0140 N   0  0  0  0  0  0  0  0  0  0  0  0
   21.5332  -19.4703  -15.2519 C   0  0  1  0  0  0  0  0  0  0  0  0
   20.7121  -19.3694  -14.0430 C   0  0  0  0  0  0  0  0  0  0  0  0
   20.5219  -17.8752  -13.7477 C   0  0  0  0  0  0  0  0  0  0  0  0
   20.0050  -17.1879  -14.9782 C   0  0  0  0  0  0  0  0  0  0  0  0
   18.9130  -17.5131  -15.7526 N   0  0  0  0  0  0  0  0  0  0  0  0
   18.8215  -16.6298  -16.7538 C   0  0  0  0  0  0  0  0  0  0  0  0
   19.8090  -15.7262  -16.6802 C   0  0  0  0  0  0  0  0  0  0  0  0
   20.1429  -14.6380  -17.4610 C   0  0  0  0  0  0  0  0  0  0  0  0
   21.2563  -13.9095  -17.0806 C   0  0  0  0  0  0  0  0  0  0  0  0
   22.0095  -14.2280  -15.9885 C   0  0  0  0  0  0  0  0  0  0  0  0
   21.6615  -15.3096  -15.2288 C   0  0  0  0  0  0  0  0  0  0  0  0
   20.5590  -16.0623  -15.5731 C   0  0  0  0  0  0  0  0  0  0  0  0
   19.3900  -19.9962  -14.2614 O   0  0  0  0  0  0  0  0  0  0  0  0
   18.5436  -20.1124  -13.3252 O   0  0  0  0  0  0  0  0  0  0  0  0
  2  1  1  6
  3  2  1  0
  4  3  1  0
  5  6  2  0
  5  2  1  0
  7  8  1  0
  8  9  2  0
 10 11  1  0
 10  8  1  0
 11 12  1  0
 12 13  1  0
 14 13  1  1
 14 15  1  0
 15  5  1  0
 16 14  1  0
 17 16  2  0
 18 16  1  0
 19 30  1  0
 19 18  1  0
 19 20  1  1
 21 22  2  0
 21 20  1  0
 23 22  1  0
 24 29  2  0
 24 23  1  0
 25 24  1  0
 26 27  1  0
 26 25  2  0
 27 28  2  0
 28 29  1  0
 29 21  1  0
 30 32  1  0
 31 30  2  0
M  END
$$$$
