CRW.pdb
     RDKit          3D

 32 33  0  0  1  0  0  0  0  0999 V2000
   29.3627  -20.4338  -15.7711 N   0  0  0  0  0  0  0  0  0  0  0  0
   28.7998  -21.2017  -14.6848 C   0  0  1  0  0  0  0  0  0  0  0  0
   29.8540  -21.8034  -13.8172 C   0  0  0  0  0  0  0  0  0  0  0  0
   30.7665  -20.6166  -12.8341 S   0  0  0  0  0  0  0  0  0  0  0  0
   27.7938  -20.4083  -13.9321 C   0  0  0  0  0  0  0  0  0  0  0  0
   27.8887  -19.1729  -13.7617 O   0  0  0  0  0  0  0  0  0  0  0  0
   20.2348  -21.3325  -11.0227 N   0  0  0  0  0  0  0  0  0  0  0  0
   19.9826  -20.0769  -11.6496 C   0  0  0  0  0  0  0  0  0  0  0  0
   18.9998  -19.3860  -11.1851 N   0  0  0  0  0  0  0  0  0  0  0  0
   20.7541  -19.5812  -12.7330 N   0  0  0  0  0  0  0  0  0  0  0  0
   21.8866  -20.2643  -13.2672 C   0  0  0  0  0  0  0  0  0  0  0  0
   23.1515  -20.0340  -12.4691 C   0  0  0  0  0  0  0  0  0  0  0  0
   24.3025  -20.6289  -13.2193 C   0  0  0  0  0  0  0  0  0  0  0  0
   25.6442  -20.4233  -12.6004 C   0  0  2  0  0  0  0  0  0  0  0  0
   26.6773  -21.0668  -13.3800 N   0  0  0  0  0  0  0  0  0  0  0  0
   25.5679  -21.0394  -11.2254 C   0  0  0  0  0  0  0  0  0  0  0  0
   25.5293  -22.2855  -11.0779 O   0  0  0  0  0  0  0  0  0  0  0  0
   18.6927  -18.4810  -11.5449 N   0  0  0  0  0  0  0  0  0  0  0  0
   25.5395  -20.2049  -10.0943 C   0  0  2  0  0  0  0  0  0  0  0  0
   25.3125  -20.7404   -8.7498 C   0  0  0  0  0  0  0  0  0  0  0  0
   25.9762  -19.7741   -7.7590 C   0  0  0  0  0  0  0  0  0  0  0  0
   27.4133  -20.1655   -7.5709 C   0  0  0  0  0  0  0  0  0  0  0  0
   28.2275  -20.8877   -8.4156 N   0  0  0  0  0  0  0  0  0  0  0  0
   29.4348  -21.0027   -7.8497 C   0  0  0  0  0  0  0  0  0  0  0  0
   29.4609  -20.3861   -6.6596 C   0  0  0  0  0  0  0  0  0  0  0  0
   30.4493  -20.2252   -5.7097 C   0  0  0  0  0  0  0  0  0  0  0  0
   30.1163  -19.5134   -4.5706 C   0  0  0  0  0  0  0  0  0  0  0  0
   28.8759  -18.9828   -4.3675 C   0  0  0  0  0  0  0  0  0  0  0  0
   27.9115  -19.1538   -5.3208 C   0  0  0  0  0  0  0  0  0  0  0  0
   28.2018  -19.8567   -6.4707 C   0  0  0  0  0  0  0  0  0  0  0  0
   23.8637  -20.8172   -8.4610 O   0  0  0  0  0  0  0  0  0  0  0  0
   23.0145  -20.1506   -9.1249 O   0  0  0  0  0  0  0  0  0  0  0  0
  2  1  1  6
  3  2  1  0
  4  3  1  0
  5  6  2  0
  5  2  1  0
  7  8  1  0
  8  9  2  0
 10 11  1  0
 10  8  1  0
 11 12  1  0
 12 13  1  0
 14 13  1  6
 14 15  1  0
 15  5  1  0
 16 14  1  0
 17 16  2  0
 18 16  1  0
 19 30  1  0
 19 18  1  0
 19 20  1  6
 21 22  2  0
 21 20  1  0
 23 22  1  0
 24 29  2  0
 24 23  1  0
 25 24  1  0
 26 27  1  0
 26 25  2  0
 27 28  2  0
 28 29  1  0
 29 21  1  0
 30 32  1  0
 31 30  2  0
M  END
$$$$
