CRW.pdb
     RDKit          3D

 32 33  0  0  1  0  0  0  0  0999 V2000
   23.9303  -16.9938  -17.4476 N   0  0  0  0  0  0  0  0  0  0  0  0
   23.2608  -16.4730  -16.2784 C   0  0  1  0  0  0  0  0  0  0  0  0
   22.1097  -15.5933  -16.6357 C   0  0  0  0  0  0  0  0  0  0  0  0
   22.5634  -14.1159  -17.5408 S   0  0  0  0  0  0  0  0  0  0  0  0
   22.9032  -17.5635  -15.3347 C   0  0  0  0  0  0  0  0  0  0  0  0
   22.4200  -17.3525  -14.2005 O   0  0  0  0  0  0  0  0  0  0  0  0
   21.3614  -25.6530  -13.9024 N   0  0  0  0  0  0  0  0  0  0  0  0
   20.7303  -24.6801  -13.0728 C   0  0  0  0  0  0  0  0  0  0  0  0
   20.3956  -25.0601  -11.8885 N   0  0  0  0  0  0  0  0  0  0  0  0
   20.4680  -23.3511  -13.4964 N   0  0  0  0  0  0  0  0  0  0  0  0
   20.8487  -22.8453  -14.7746 C   0  0  0  0  0  0  0  0  0  0  0  0
   22.3193  -22.5001  -14.8642 C   0  0  0  0  0  0  0  0  0  0  0  0
   22.4637  -21.2312  -15.6454 C   0  0  0  0  0  0  0  0  0  0  0  0
   22.9271  -20.0480  -14.8640 C   0  0  2  0  0  0  0  0  0  0  0  0
   23.1135  -18.9012  -15.7239 N   0  0  0  0  0  0  0  0  0  0  0  0
   24.2398  -20.4499  -14.2382 C   0  0  0  0  0  0  0  0  0  0  0  0
   25.2026  -20.8317  -14.9475 O   0  0  0  0  0  0  0  0  0  0  0  0
   20.0005  -24.4573  -11.1650 N   0  0  0  0  0  0  0  0  0  0  0  0
   24.3850  -20.3957  -12.8408 C   0  0  2  0  0  0  0  0  0  0  0  0
   25.5945  -20.8844  -12.1745 C   0  0  0  0  0  0  0  0  0  0  0  0
   26.1694  -19.7147  -11.3637 C   0  0  0  0  0  0  0  0  0  0  0  0
   27.3911  -20.1769  -10.6236 C   0  0  0  0  0  0  0  0  0  0  0  0
   28.5237  -20.7821  -11.1226 N   0  0  0  0  0  0  0  0  0  0  0  0
   29.3611  -21.0239  -10.1072 C   0  0  0  0  0  0  0  0  0  0  0  0
   28.8340  -20.6045   -8.9481 C   0  0  0  0  0  0  0  0  0  0  0  0
   29.2944  -20.6277   -7.6471 C   0  0  0  0  0  0  0  0  0  0  0  0
   28.4638  -20.0947   -6.6769 C   0  0  0  0  0  0  0  0  0  0  0  0
   27.2401  -19.5635   -6.9629 C   0  0  0  0  0  0  0  0  0  0  0  0
   26.8031  -19.5505   -8.2578 C   0  0  0  0  0  0  0  0  0  0  0  0
   27.5999  -20.0715   -9.2550 C   0  0  0  0  0  0  0  0  0  0  0  0
   25.2667  -21.9990  -11.2588 O   0  0  0  0  0  0  0  0  0  0  0  0
   26.0871  -22.9372  -11.0287 O   0  0  0  0  0  0  0  0  0  0  0  0
  2  1  1  6
  3  2  1  0
  4  3  1  0
  5  6  2  0
  5  2  1  0
  7  8  1  0
  8  9  2  0
 10 11  1  0
 10  8  1  0
 11 12  1  0
 12 13  1  0
 14 13  1  6
 14 15  1  0
 15  5  1  0
 16 14  1  0
 17 16  2  0
 18 16  1  0
 19 30  1  0
 19 18  1  0
 19 20  1  1
 21 22  2  0
 21 20  1  0
 23 22  1  0
 24 29  2  0
 24 23  1  0
 25 24  1  0
 26 27  1  0
 26 25  2  0
 27 28  2  0
 28 29  1  0
 29 21  1  0
 30 32  1  0
 31 30  2  0
M  END
$$$$
