CRW.pdb
     RDKit          3D

 32 33  0  0  1  0  0  0  0  0999 V2000
   27.3024  -19.0156  -17.4456 N   0  0  0  0  0  0  0  0  0  0  0  0
   27.6633  -19.1709  -16.0557 C   0  0  1  0  0  0  0  0  0  0  0  0
   28.7831  -18.2668  -15.6619 C   0  0  0  0  0  0  0  0  0  0  0  0
   29.0731  -18.1771  -13.8968 S   0  0  0  0  0  0  0  0  0  0  0  0
   26.4713  -19.0563  -15.1760 C   0  0  0  0  0  0  0  0  0  0  0  0
   25.5627  -18.2177  -15.3647 O   0  0  0  0  0  0  0  0  0  0  0  0
   24.1383  -25.1405  -14.7763 N   0  0  0  0  0  0  0  0  0  0  0  0
   22.9750  -24.6910  -14.0852 C   0  0  0  0  0  0  0  0  0  0  0  0
   22.4691  -25.4989  -13.2190 N   0  0  0  0  0  0  0  0  0  0  0  0
   22.3769  -23.4243  -14.3138 N   0  0  0  0  0  0  0  0  0  0  0  0
   23.0107  -22.3783  -15.0478 C   0  0  0  0  0  0  0  0  0  0  0  0
   24.2988  -21.9016  -14.4125 C   0  0  0  0  0  0  0  0  0  0  0  0
   24.0422  -20.5860  -13.7455 C   0  0  0  0  0  0  0  0  0  0  0  0
   25.2396  -19.9280  -13.1467 C   0  0  2  0  0  0  0  0  0  0  0  0
   26.3475  -19.9268  -14.0751 N   0  0  0  0  0  0  0  0  0  0  0  0
   25.5879  -20.7336  -11.9196 C   0  0  0  0  0  0  0  0  0  0  0  0
   25.9294  -21.9379  -12.0138 O   0  0  0  0  0  0  0  0  0  0  0  0
   22.8043  -26.4444  -13.0277 N   0  0  0  0  0  0  0  0  0  0  0  0
   25.5285  -20.1254  -10.6533 C   0  0  1  0  0  0  0  0  0  0  0  0
   25.7739  -20.8840   -9.4244 C   0  0  0  0  0  0  0  0  0  0  0  0
   27.1142  -20.4006   -8.8534 C   0  0  0  0  0  0  0  0  0  0  0  0
   27.1600  -20.6905   -7.3811 C   0  0  0  0  0  0  0  0  0  0  0  0
   26.6245  -21.7591   -6.6960 N   0  0  0  0  0  0  0  0  0  0  0  0
   26.9029  -21.6148   -5.3950 C   0  0  0  0  0  0  0  0  0  0  0  0
   27.6036  -20.4919   -5.1821 C   0  0  0  0  0  0  0  0  0  0  0  0
   28.1179  -19.9112   -4.0404 C   0  0  0  0  0  0  0  0  0  0  0  0
   28.8043  -18.7197   -4.1959 C   0  0  0  0  0  0  0  0  0  0  0  0
   28.9808  -18.1220   -5.4096 C   0  0  0  0  0  0  0  0  0  0  0  0
   28.4634  -18.7137   -6.5277 C   0  0  0  0  0  0  0  0  0  0  0  0
   27.7727  -19.9016   -6.4167 C   0  0  0  0  0  0  0  0  0  0  0  0
   24.7023  -20.6302   -8.4367 O   0  0  0  0  0  0  0  0  0  0  0  0
   23.9211  -19.6375   -8.5395 O   0  0  0  0  0  0  0  0  0  0  0  0
  2  1  1  6
  3  2  1  0
  4  3  1  0
  5  6  2  0
  5  2  1  0
  7  8  1  0
  8  9  2  0
 10 11  1  0
 10  8  1  0
 11 12  1  0
 12 13  1  0
 14 13  1  6
 14 15  1  0
 15  5  1  0
 16 14  1  0
 17 16  2  0
 18 16  1  0
 19 30  1  0
 19 18  1  0
 19 20  1  1
 21 22  2  0
 21 20  1  0
 23 22  1  0
 24 29  2  0
 24 23  1  0
 25 24  1  0
 26 27  1  0
 26 25  2  0
 27 28  2  0
 28 29  1  0
 29 21  1  0
 30 32  1  0
 31 30  2  0
M  END
$$$$
