CRW.pdb
     RDKit          3D

 32 33  0  0  1  0  0  0  0  0999 V2000
   17.9514  -32.5966   -7.6823 N   0  0  0  0  0  0  0  0  0  0  0  0
   16.8699  -31.6544   -7.8526 C   0  0  1  0  0  0  0  0  0  0  0  0
   15.5522  -32.2357   -7.4627 C   0  0  0  0  0  0  0  0  0  0  0  0
   15.3097  -32.3944   -5.6952 S   0  0  0  0  0  0  0  0  0  0  0  0
   17.1715  -30.3644   -7.1796 C   0  0  0  0  0  0  0  0  0  0  0  0
   18.0189  -30.2537   -6.2663 O   0  0  0  0  0  0  0  0  0  0  0  0
   19.8754  -27.9777  -10.0239 N   0  0  0  0  0  0  0  0  0  0  0  0
   19.7545  -26.6781  -10.5978 C   0  0  0  0  0  0  0  0  0  0  0  0
   20.5321  -26.4093  -11.5888 N   0  0  0  0  0  0  0  0  0  0  0  0
   18.8355  -25.7041  -10.1275 N   0  0  0  0  0  0  0  0  0  0  0  0
   18.0573  -25.8667   -8.9431 C   0  0  0  0  0  0  0  0  0  0  0  0
   16.8036  -26.6852   -9.1626 C   0  0  0  0  0  0  0  0  0  0  0  0
   16.0950  -26.8312   -7.8519 C   0  0  0  0  0  0  0  0  0  0  0  0
   16.6158  -27.9073   -6.9595 C   0  0  2  0  0  0  0  0  0  0  0  0
   16.4774  -29.2055   -7.5799 N   0  0  0  0  0  0  0  0  0  0  0  0
   15.7890  -27.8403   -5.6994 C   0  0  0  0  0  0  0  0  0  0  0  0
   14.5365  -27.7733   -5.7521 O   0  0  0  0  0  0  0  0  0  0  0  0
   20.5872  -25.5093  -12.0683 N   0  0  0  0  0  0  0  0  0  0  0  0
   16.4319  -27.8531   -4.4490 C   0  0  1  0  0  0  0  0  0  0  0  0
   15.6766  -27.7802   -3.1960 C   0  0  0  0  0  0  0  0  0  0  0  0
   14.7477  -29.0015   -3.1550 C   0  0  0  0  0  0  0  0  0  0  0  0
   14.8414  -29.6513   -1.8048 C   0  0  0  0  0  0  0  0  0  0  0  0
   14.6369  -29.0913   -0.5628 N   0  0  0  0  0  0  0  0  0  0  0  0
   14.8265  -30.0347    0.3672 C   0  0  0  0  0  0  0  0  0  0  0  0
   15.1499  -31.2040   -0.2031 C   0  0  0  0  0  0  0  0  0  0  0  0
   15.4375  -32.4508    0.3147 C   0  0  0  0  0  0  0  0  0  0  0  0
   15.7367  -33.4536   -0.5907 C   0  0  0  0  0  0  0  0  0  0  0  0
   15.7545  -33.2495   -1.9396 C   0  0  0  0  0  0  0  0  0  0  0  0
   15.4668  -32.0073   -2.4316 C   0  0  0  0  0  0  0  0  0  0  0  0
   15.1633  -30.9801   -1.5636 C   0  0  0  0  0  0  0  0  0  0  0  0
   16.5933  -27.8247   -2.0357 O   0  0  0  0  0  0  0  0  0  0  0  0
   16.1858  -27.6119   -0.8546 O   0  0  0  0  0  0  0  0  0  0  0  0
  2  1  1  1
  3  2  1  0
  4  3  1  0
  5  6  2  0
  5  2  1  0
  7  8  1  0
  8  9  2  0
 10 11  1  0
 10  8  1  0
 11 12  1  0
 12 13  1  0
 14 13  1  6
 14 15  1  0
 15  5  1  0
 16 14  1  0
 17 16  2  0
 18 16  1  0
 19 30  1  0
 19 18  1  0
 19 20  1  6
 21 22  2  0
 21 20  1  0
 23 22  1  0
 24 29  2  0
 24 23  1  0
 25 24  1  0
 26 27  1  0
 26 25  2  0
 27 28  2  0
 28 29  1  0
 29 21  1  0
 30 32  1  0
 31 30  2  0
M  END
$$$$
