CRW.pdb
     RDKit          3D

 32 33  0  0  1  0  0  0  0  0999 V2000
   18.8423  -21.4359  -14.1039 N   0  0  0  0  0  0  0  0  0  0  0  0
   20.0923  -20.7251  -14.2408 C   0  0  1  0  0  0  0  0  0  0  0  0
   20.0090  -19.3346  -13.7062 C   0  0  0  0  0  0  0  0  0  0  0  0
   20.1760  -19.2170  -11.9268 S   0  0  0  0  0  0  0  0  0  0  0  0
   21.2205  -21.5107  -13.6769 C   0  0  0  0  0  0  0  0  0  0  0  0
   21.0780  -22.3418  -12.7531 O   0  0  0  0  0  0  0  0  0  0  0  0
   26.7301  -24.4138  -16.3151 N   0  0  0  0  0  0  0  0  0  0  0  0
   27.6951  -23.3642  -16.3320 C   0  0  0  0  0  0  0  0  0  0  0  0
   28.8998  -23.6918  -16.6489 N   0  0  0  0  0  0  0  0  0  0  0  0
   27.3809  -22.0155  -16.0210 N   0  0  0  0  0  0  0  0  0  0  0  0
   26.2112  -21.3524  -16.4972 C   0  0  0  0  0  0  0  0  0  0  0  0
   25.2734  -20.9295  -15.3874 C   0  0  0  0  0  0  0  0  0  0  0  0
   24.7201  -22.1593  -14.7373 C   0  0  0  0  0  0  0  0  0  0  0  0
   23.7163  -21.9173  -13.6606 C   0  0  2  0  0  0  0  0  0  0  0  0
   22.5153  -21.3192  -14.1983 N   0  0  0  0  0  0  0  0  0  0  0  0
   24.3741  -20.9770  -12.6812 C   0  0  0  0  0  0  0  0  0  0  0  0
   24.1835  -19.7380  -12.7487 O   0  0  0  0  0  0  0  0  0  0  0  0
   29.6876  -23.0459  -16.7196 N   0  0  0  0  0  0  0  0  0  0  0  0
   25.2122  -21.4973  -11.6793 C   0  0  2  0  0  0  0  0  0  0  0  0
   25.8705  -20.6287  -10.7007 C   0  0  0  0  0  0  0  0  0  0  0  0
   26.3711  -21.5272   -9.5613 C   0  0  0  0  0  0  0  0  0  0  0  0
   26.8432  -20.6693   -8.4234 C   0  0  0  0  0  0  0  0  0  0  0  0
   26.1728  -19.6584   -7.7703 N   0  0  0  0  0  0  0  0  0  0  0  0
   26.9716  -19.1620   -6.8183 C   0  0  0  0  0  0  0  0  0  0  0  0
   28.1503  -19.8005   -6.8083 C   0  0  0  0  0  0  0  0  0  0  0  0
   29.2842  -19.6617   -6.0335 C   0  0  0  0  0  0  0  0  0  0  0  0
   30.3409  -20.5120   -6.3080 C   0  0  0  0  0  0  0  0  0  0  0  0
   30.2937  -21.4545   -7.2934 C   0  0  0  0  0  0  0  0  0  0  0  0
   29.1614  -21.5753   -8.0491 C   0  0  0  0  0  0  0  0  0  0  0  0
   28.0855  -20.7477   -7.8082 C   0  0  0  0  0  0  0  0  0  0  0  0
   27.0222  -19.9342  -11.3169 O   0  0  0  0  0  0  0  0  0  0  0  0
   27.8023  -20.5225  -12.1241 O   0  0  0  0  0  0  0  0  0  0  0  0
  2  1  1  1
  3  2  1  0
  4  3  1  0
  5  6  2  0
  5  2  1  0
  7  8  1  0
  8  9  2  0
 10 11  1  0
 10  8  1  0
 11 12  1  0
 12 13  1  0
 14 13  1  6
 14 15  1  0
 15  5  1  0
 16 14  1  0
 17 16  2  0
 18 16  1  0
 19 30  1  0
 19 18  1  0
 19 20  1  1
 21 22  2  0
 21 20  1  0
 23 22  1  0
 24 29  2  0
 24 23  1  0
 25 24  1  0
 26 27  1  0
 26 25  2  0
 27 28  2  0
 28 29  1  0
 29 21  1  0
 30 32  1  0
 31 30  2  0
M  END
$$$$
