DEY.pdb
     RDKit          3D

 30 30  0  0  1  0  0  0  0  0999 V2000
   11.8681  -18.7792   18.0799 N   0  0  0  0  0  0  0  0  0  0  0  0
   12.3592  -18.3050   19.3361 C   0  0  1  0  0  0  0  0  0  0  0  0
   13.0744  -16.9785   19.1220 C   0  0  0  0  0  0  0  0  0  0  0  0
   14.4918  -17.2733   18.7847 C   0  0  0  0  0  0  0  0  0  0  0  0
   14.8198  -18.2439   18.0467 O   0  0  0  0  0  0  0  0  0  0  0  0
   11.2365  -18.0347   20.3008 C   0  0  0  0  0  0  0  0  0  0  0  0
   10.2464  -17.3403   19.9583 O   0  0  0  0  0  0  0  0  0  0  0  0
   15.4487  -16.4161   19.3296 O   0  0  0  0  0  0  0  0  0  0  0  0
   11.2919  -18.5725   21.6242 N   0  0  0  0  0  0  0  0  0  0  0  0
   10.1953  -18.4923   22.5555 C   0  0  1  0  0  0  0  0  0  0  0  0
   10.2937  -19.6009   23.6086 C   0  0  0  0  0  0  0  0  0  0  0  0
    9.7356  -20.8567   23.0159 C   0  0  0  0  0  0  0  0  0  0  0  0
    9.9329  -22.0183   23.9283 C   0  0  0  0  0  0  0  0  0  0  0  0
    9.4063  -23.1240   23.6352 O   0  0  0  0  0  0  0  0  0  0  0  0
   10.1790  -17.2088   23.2974 C   0  0  0  0  0  0  0  0  0  0  0  0
   11.2249  -16.7118   23.7990 O   0  0  0  0  0  0  0  0  0  0  0  0
   10.6726  -21.9448   25.0923 O   0  0  0  0  0  0  0  0  0  0  0  0
    6.0554  -10.4190   27.3664 O   0  0  0  0  0  0  0  0  0  0  0  0
    6.3665  -11.5019   26.5530 C   0  0  0  0  0  0  0  0  0  0  0  0
    7.1247  -11.2893   25.4233 C   0  0  0  0  0  0  0  0  0  0  0  0
    7.4512  -12.3460   24.5935 C   0  0  0  0  0  0  0  0  0  0  0  0
    7.0420  -13.6482   24.8481 C   0  0  0  0  0  0  0  0  0  0  0  0
    7.3843  -14.7818   23.9535 C   0  0  0  0  0  0  0  0  0  0  0  0
    8.7484  -15.3800   24.2671 C   0  0  2  0  0  0  0  0  0  0  0  0
    8.9402  -16.5472   23.4303 N   0  0  0  0  0  0  0  0  0  0  0  0
    8.8856  -15.7836   25.6823 C   0  0  0  0  0  0  0  0  0  0  0  0
    8.3106  -16.9352   26.1974 O   0  0  0  0  0  0  0  0  0  0  0  0
    6.2783  -13.8315   25.9956 C   0  0  0  0  0  0  0  0  0  0  0  0
    5.9463  -12.7853   26.8309 C   0  0  0  0  0  0  0  0  0  0  0  0
    9.5467  -15.0756   26.4909 O   0  0  0  0  0  0  0  0  0  0  0  0
  2  1  1  6
  3  2  1  0
  4  3  1  0
  4  8  1  0
  5  4  2  0
  6  7  2  0
  6  2  1  0
  9  6  1  0
 10  9  1  0
 10 11  1  1
 11 12  1  0
 12 13  1  0
 13 17  1  0
 14 13  2  0
 15 10  1  0
 16 15  2  0
 19 18  1  0
 19 20  2  0
 21 20  1  0
 22 21  2  0
 23 22  1  0
 24 23  1  1
 24 25  1  0
 25 15  1  0
 26 27  1  0
 26 24  1  0
 28 29  2  0
 28 22  1  0
 29 19  1  0
 30 26  2  0
M  END
$$$$
