DEY.pdb
     RDKit          3D

 30 30  0  0  1  0  0  0  0  0999 V2000
    7.0606  -17.3176   17.8423 N   0  0  0  0  0  0  0  0  0  0  0  0
    8.2909  -16.6794   18.1934 C   0  0  1  0  0  0  0  0  0  0  0  0
    8.1457  -15.1770   17.9972 C   0  0  0  0  0  0  0  0  0  0  0  0
    8.1513  -14.9047   16.5359 C   0  0  0  0  0  0  0  0  0  0  0  0
    8.3391  -15.8160   15.6824 O   0  0  0  0  0  0  0  0  0  0  0  0
    8.6274  -16.8907   19.6447 C   0  0  0  0  0  0  0  0  0  0  0  0
    7.7199  -17.0510   20.4993 O   0  0  0  0  0  0  0  0  0  0  0  0
    7.9369  -13.5800   16.1525 O   0  0  0  0  0  0  0  0  0  0  0  0
    9.9948  -16.9106   20.0614 N   0  0  0  0  0  0  0  0  0  0  0  0
   10.4069  -17.2421   21.4017 C   0  0  1  0  0  0  0  0  0  0  0  0
   11.8988  -17.5891   21.4421 C   0  0  0  0  0  0  0  0  0  0  0  0
   12.2219  -18.0960   22.8127 C   0  0  0  0  0  0  0  0  0  0  0  0
   13.6617  -18.4627   22.9271 C   0  0  0  0  0  0  0  0  0  0  0  0
   13.9815  -19.4944   23.5744 O   0  0  0  0  0  0  0  0  0  0  0  0
   10.2122  -16.1158   22.3458 C   0  0  0  0  0  0  0  0  0  0  0  0
   10.7470  -14.9877   22.1621 O   0  0  0  0  0  0  0  0  0  0  0  0
   14.6758  -17.7216   22.3528 O   0  0  0  0  0  0  0  0  0  0  0  0
    6.0751  -11.0036   28.1465 O   0  0  0  0  0  0  0  0  0  0  0  0
    6.4585  -11.9494   27.2033 C   0  0  0  0  0  0  0  0  0  0  0  0
    7.3426  -11.5817   26.2137 C   0  0  0  0  0  0  0  0  0  0  0  0
    7.7435  -12.4996   25.2605 C   0  0  0  0  0  0  0  0  0  0  0  0
    7.2871  -13.8109   25.2494 C   0  0  0  0  0  0  0  0  0  0  0  0
    7.7098  -14.7946   24.2216 C   0  0  0  0  0  0  0  0  0  0  0  0
    9.1140  -15.3278   24.4682 C   0  0  2  0  0  0  0  0  0  0  0  0
    9.3990  -16.3442   23.4757 N   0  0  0  0  0  0  0  0  0  0  0  0
    9.2743  -15.9200   25.8128 C   0  0  0  0  0  0  0  0  0  0  0  0
    9.3702  -17.2862   26.0287 O   0  0  0  0  0  0  0  0  0  0  0  0
    6.3959  -14.1525   26.2608 C   0  0  0  0  0  0  0  0  0  0  0  0
    5.9888  -13.2456   27.2170 C   0  0  0  0  0  0  0  0  0  0  0  0
    9.3299  -15.1841   26.8363 O   0  0  0  0  0  0  0  0  0  0  0  0
  2  1  1  1
  3  2  1  0
  4  3  1  0
  4  8  1  0
  5  4  2  0
  6  7  2  0
  6  2  1  0
  9  6  1  0
 10  9  1  0
 10 11  1  6
 11 12  1  0
 12 13  1  0
 13 17  1  0
 14 13  2  0
 15 10  1  0
 16 15  2  0
 19 18  1  0
 19 20  2  0
 21 20  1  0
 22 21  2  0
 23 22  1  0
 24 23  1  6
 24 25  1  0
 25 15  1  0
 26 27  1  0
 26 24  1  0
 28 29  2  0
 28 22  1  0
 29 19  1  0
 30 26  2  0
M  END
$$$$
