DEY.pdb
     RDKit          3D

 30 30  0  0  1  0  0  0  0  0999 V2000
   10.4583  -16.9916   19.3386 N   0  0  0  0  0  0  0  0  0  0  0  0
    9.5016  -16.1098   19.9315 C   0  0  1  0  0  0  0  0  0  0  0  0
    8.1723  -16.2567   19.2048 C   0  0  0  0  0  0  0  0  0  0  0  0
    8.3725  -15.8284   17.7956 C   0  0  0  0  0  0  0  0  0  0  0  0
    9.1403  -16.4471   17.0070 O   0  0  0  0  0  0  0  0  0  0  0  0
    9.2435  -16.4633   21.3711 C   0  0  0  0  0  0  0  0  0  0  0  0
    8.3981  -15.8265   22.0489 O   0  0  0  0  0  0  0  0  0  0  0  0
    7.6631  -14.6986   17.3855 O   0  0  0  0  0  0  0  0  0  0  0  0
    9.9660  -17.5362   21.9798 N   0  0  0  0  0  0  0  0  0  0  0  0
    9.8862  -17.8447   23.3851 C   0  0  1  0  0  0  0  0  0  0  0  0
   10.3825  -19.2683   23.6587 C   0  0  0  0  0  0  0  0  0  0  0  0
    9.6213  -20.2048   22.7736 C   0  0  0  0  0  0  0  0  0  0  0  0
   10.1538  -21.5931   22.8719 C   0  0  0  0  0  0  0  0  0  0  0  0
   11.1612  -21.8132   23.5946 O   0  0  0  0  0  0  0  0  0  0  0  0
   10.7257  -16.9419   24.2086 C   0  0  0  0  0  0  0  0  0  0  0  0
   11.7037  -16.3090   23.7236 O   0  0  0  0  0  0  0  0  0  0  0  0
    9.5929  -22.6641   22.2041 O   0  0  0  0  0  0  0  0  0  0  0  0
    5.4497  -12.8520   27.4812 O   0  0  0  0  0  0  0  0  0  0  0  0
    6.7217  -13.2572   27.0957 C   0  0  0  0  0  0  0  0  0  0  0  0
    7.7894  -12.9675   27.9157 C   0  0  0  0  0  0  0  0  0  0  0  0
    9.0675  -13.3571   27.5602 C   0  0  0  0  0  0  0  0  0  0  0  0
    9.3377  -14.0453   26.3849 C   0  0  0  0  0  0  0  0  0  0  0  0
   10.7103  -14.4562   25.9979 C   0  0  0  0  0  0  0  0  0  0  0  0
   11.0483  -15.8664   26.4604 C   0  0  2  0  0  0  0  0  0  0  0  0
   10.3957  -16.8083   25.5736 N   0  0  0  0  0  0  0  0  0  0  0  0
   10.6084  -16.1364   27.8453 C   0  0  0  0  0  0  0  0  0  0  0  0
   11.1775  -15.5228   28.9507 O   0  0  0  0  0  0  0  0  0  0  0  0
    8.2400  -14.3235   25.5778 C   0  0  0  0  0  0  0  0  0  0  0  0
    6.9605  -13.9399   25.9219 C   0  0  0  0  0  0  0  0  0  0  0  0
    9.6769  -16.9559   28.0751 O   0  0  0  0  0  0  0  0  0  0  0  0
  2  1  1  6
  3  2  1  0
  4  3  1  0
  4  8  1  0
  5  4  2  0
  6  7  2  0
  6  2  1  0
  9  6  1  0
 10  9  1  0
 10 11  1  6
 11 12  1  0
 12 13  1  0
 13 17  1  0
 14 13  2  0
 15 10  1  0
 16 15  2  0
 19 18  1  0
 19 20  2  0
 21 20  1  0
 22 21  2  0
 23 22  1  0
 24 23  1  6
 24 25  1  0
 25 15  1  0
 26 27  1  0
 26 24  1  0
 28 29  2  0
 28 22  1  0
 29 19  1  0
 30 26  2  0
M  END
$$$$
