DEY.pdb
     RDKit          3D

 30 30  0  0  1  0  0  0  0  0999 V2000
   10.3744  -18.8222   20.7248 N   0  0  0  0  0  0  0  0  0  0  0  0
   11.2225  -17.7228   20.3841 C   0  0  1  0  0  0  0  0  0  0  0  0
   11.2843  -17.5929   18.8688 C   0  0  0  0  0  0  0  0  0  0  0  0
   12.2741  -18.5812   18.3659 C   0  0  0  0  0  0  0  0  0  0  0  0
   13.3022  -18.2348   17.7199 O   0  0  0  0  0  0  0  0  0  0  0  0
   10.6737  -16.4213   20.9030 C   0  0  0  0  0  0  0  0  0  0  0  0
   11.4157  -15.4150   21.0308 O   0  0  0  0  0  0  0  0  0  0  0  0
   12.0070  -19.9220   18.6462 O   0  0  0  0  0  0  0  0  0  0  0  0
    9.2918  -16.3232   21.2557 N   0  0  0  0  0  0  0  0  0  0  0  0
    8.6639  -15.0884   21.6522 C   0  0  1  0  0  0  0  0  0  0  0  0
    7.1855  -15.0760   21.2499 C   0  0  0  0  0  0  0  0  0  0  0  0
    6.5176  -16.2496   21.8953 C   0  0  0  0  0  0  0  0  0  0  0  0
    6.4672  -17.4175   20.9710 C   0  0  0  0  0  0  0  0  0  0  0  0
    6.5884  -17.2244   19.7326 O   0  0  0  0  0  0  0  0  0  0  0  0
    8.7013  -14.8833   23.1201 C   0  0  0  0  0  0  0  0  0  0  0  0
    8.0320  -13.9760   23.6868 O   0  0  0  0  0  0  0  0  0  0  0  0
    6.2930  -18.7163   21.4072 O   0  0  0  0  0  0  0  0  0  0  0  0
    5.8114  -10.8427   27.2117 O   0  0  0  0  0  0  0  0  0  0  0  0
    6.4293  -12.0478   26.9003 C   0  0  0  0  0  0  0  0  0  0  0  0
    5.6532  -13.1035   26.4766 C   0  0  0  0  0  0  0  0  0  0  0  0
    6.2379  -14.3155   26.1591 C   0  0  0  0  0  0  0  0  0  0  0  0
    7.6069  -14.5292   26.2482 C   0  0  0  0  0  0  0  0  0  0  0  0
    8.2348  -15.8324   25.9162 C   0  0  0  0  0  0  0  0  0  0  0  0
    9.6272  -15.6736   25.3222 C   0  0  2  0  0  0  0  0  0  0  0  0
    9.5207  -15.7451   23.8790 N   0  0  0  0  0  0  0  0  0  0  0  0
   10.5681  -16.7173   25.7803 C   0  0  0  0  0  0  0  0  0  0  0  0
   11.1817  -17.6116   24.9165 O   0  0  0  0  0  0  0  0  0  0  0  0
    8.3642  -13.4452   26.6785 C   0  0  0  0  0  0  0  0  0  0  0  0
    7.7923  -12.2314   26.9980 C   0  0  0  0  0  0  0  0  0  0  0  0
   10.8519  -16.8338   27.0043 O   0  0  0  0  0  0  0  0  0  0  0  0
  2  1  1  6
  3  2  1  0
  4  3  1  0
  4  8  1  0
  5  4  2  0
  6  7  2  0
  6  2  1  0
  9  6  1  0
 10  9  1  0
 10 11  1  1
 11 12  1  0
 12 13  1  0
 13 17  1  0
 14 13  2  0
 15 10  1  0
 16 15  2  0
 19 18  1  0
 19 20  2  0
 21 20  1  0
 22 21  2  0
 23 22  1  0
 24 23  1  1
 24 25  1  0
 25 15  1  0
 26 27  1  0
 26 24  1  0
 28 29  2  0
 28 22  1  0
 29 19  1  0
 30 26  2  0
M  END
$$$$
