DEY.pdb
     RDKit          3D

 30 30  0  0  1  0  0  0  0  0999 V2000
   10.9283  -19.4499   19.9745 N   0  0  0  0  0  0  0  0  0  0  0  0
   11.8659  -18.4654   20.4169 C   0  0  1  0  0  0  0  0  0  0  0  0
   12.3512  -17.6655   19.2163 C   0  0  0  0  0  0  0  0  0  0  0  0
   13.7971  -17.3810   19.4115 C   0  0  0  0  0  0  0  0  0  0  0  0
   14.5063  -18.0311   20.2292 O   0  0  0  0  0  0  0  0  0  0  0  0
   11.2280  -17.4797   21.3581 C   0  0  0  0  0  0  0  0  0  0  0  0
   11.8552  -16.4623   21.7470 O   0  0  0  0  0  0  0  0  0  0  0  0
   14.3348  -16.3507   18.6389 O   0  0  0  0  0  0  0  0  0  0  0  0
    9.8923  -17.6986   21.8180 N   0  0  0  0  0  0  0  0  0  0  0  0
    9.2307  -16.8342   22.7621 C   0  0  1  0  0  0  0  0  0  0  0  0
    7.7633  -17.2397   22.9356 C   0  0  0  0  0  0  0  0  0  0  0  0
    7.6755  -18.7294   22.8221 C   0  0  0  0  0  0  0  0  0  0  0  0
    6.4186  -19.2443   23.4350 C   0  0  0  0  0  0  0  0  0  0  0  0
    5.6674  -18.4460   24.0546 O   0  0  0  0  0  0  0  0  0  0  0  0
    9.8455  -16.8965   24.1098 C   0  0  0  0  0  0  0  0  0  0  0  0
   10.4082  -17.9401   24.5417 O   0  0  0  0  0  0  0  0  0  0  0  0
    6.0295  -20.5672   23.3574 O   0  0  0  0  0  0  0  0  0  0  0  0
    5.6611  -11.1770   25.9245 O   0  0  0  0  0  0  0  0  0  0  0  0
    6.8170  -11.9167   26.1428 C   0  0  0  0  0  0  0  0  0  0  0  0
    7.3919  -12.5812   25.0825 C   0  0  0  0  0  0  0  0  0  0  0  0
    8.5423  -13.3257   25.2672 C   0  0  0  0  0  0  0  0  0  0  0  0
    9.1657  -13.4411   26.5024 C   0  0  0  0  0  0  0  0  0  0  0  0
   10.3955  -14.2471   26.7037 C   0  0  0  0  0  0  0  0  0  0  0  0
   10.2125  -15.7014   26.2935 C   0  0  2  0  0  0  0  0  0  0  0  0
    9.7823  -15.7367   24.9103 N   0  0  0  0  0  0  0  0  0  0  0  0
    9.2114  -16.4084   27.1195 C   0  0  0  0  0  0  0  0  0  0  0  0
    8.0166  -16.8912   26.6080 O   0  0  0  0  0  0  0  0  0  0  0  0
    8.5623  -12.7591   27.5534 C   0  0  0  0  0  0  0  0  0  0  0  0
    7.4148  -12.0134   27.3814 C   0  0  0  0  0  0  0  0  0  0  0  0
    9.4144  -16.6009   28.3500 O   0  0  0  0  0  0  0  0  0  0  0  0
  2  1  1  6
  3  2  1  0
  4  3  1  0
  4  8  1  0
  5  4  2  0
  6  7  2  0
  6  2  1  0
  9  6  1  0
 10  9  1  0
 10 11  1  1
 11 12  1  0
 12 13  1  0
 13 17  1  0
 14 13  2  0
 15 10  1  0
 16 15  2  0
 19 18  1  0
 19 20  2  0
 21 20  1  0
 22 21  2  0
 23 22  1  0
 24 23  1  1
 24 25  1  0
 25 15  1  0
 26 27  1  0
 26 24  1  0
 28 29  2  0
 28 22  1  0
 29 19  1  0
 30 26  2  0
M  END
$$$$
