DEY.pdb
     RDKit          3D

 30 30  0  0  1  0  0  0  0  0999 V2000
    9.8630  -14.9006   18.8687 N   0  0  0  0  0  0  0  0  0  0  0  0
    8.5182  -14.6963   19.3089 C   0  0  1  0  0  0  0  0  0  0  0  0
    7.5660  -15.0214   18.1667 C   0  0  0  0  0  0  0  0  0  0  0  0
    8.1561  -14.4830   16.9131 C   0  0  0  0  0  0  0  0  0  0  0  0
    9.3076  -13.9660   16.8794 O   0  0  0  0  0  0  0  0  0  0  0  0
    8.1612  -15.6222   20.4400 C   0  0  0  0  0  0  0  0  0  0  0  0
    6.9815  -15.6908   20.8680 O   0  0  0  0  0  0  0  0  0  0  0  0
    7.3664  -14.5787   15.7665 O   0  0  0  0  0  0  0  0  0  0  0  0
    9.1728  -16.4363   21.0380 N   0  0  0  0  0  0  0  0  0  0  0  0
    8.9222  -17.3165   22.1510 C   0  0  1  0  0  0  0  0  0  0  0  0
    9.6347  -18.6586   21.9544 C   0  0  0  0  0  0  0  0  0  0  0  0
   11.0454  -18.3804   21.5391 C   0  0  0  0  0  0  0  0  0  0  0  0
   11.7821  -19.6431   21.2501 C   0  0  0  0  0  0  0  0  0  0  0  0
   11.3039  -20.4536   20.4134 O   0  0  0  0  0  0  0  0  0  0  0  0
    9.4201  -16.7606   23.4321 C   0  0  0  0  0  0  0  0  0  0  0  0
   10.4623  -16.0519   23.4947 O   0  0  0  0  0  0  0  0  0  0  0  0
   12.9766  -19.9745   21.8590 O   0  0  0  0  0  0  0  0  0  0  0  0
    6.4509  -10.7633   25.4679 O   0  0  0  0  0  0  0  0  0  0  0  0
    6.7625  -12.0871   25.7536 C   0  0  0  0  0  0  0  0  0  0  0  0
    7.9908  -12.3777   26.3039 C   0  0  0  0  0  0  0  0  0  0  0  0
    8.3308  -13.6848   26.5996 C   0  0  0  0  0  0  0  0  0  0  0  0
    7.4726  -14.7505   26.3633 C   0  0  0  0  0  0  0  0  0  0  0  0
    7.8398  -16.1549   26.6721 C   0  0  0  0  0  0  0  0  0  0  0  0
    9.0829  -16.6105   25.9211 C   0  0  2  0  0  0  0  0  0  0  0  0
    8.6841  -17.0517   24.5998 N   0  0  0  0  0  0  0  0  0  0  0  0
    9.7876  -17.7192   26.5984 C   0  0  0  0  0  0  0  0  0  0  0  0
   10.5650  -17.5381   27.7320 O   0  0  0  0  0  0  0  0  0  0  0  0
    6.2400  -14.4259   25.8074 C   0  0  0  0  0  0  0  0  0  0  0  0
    5.8896  -13.1258   25.5082 C   0  0  0  0  0  0  0  0  0  0  0  0
    9.7045  -18.8982   26.1564 O   0  0  0  0  0  0  0  0  0  0  0  0
  2  1  1  6
  3  2  1  0
  4  3  1  0
  4  8  1  0
  5  4  2  0
  6  7  2  0
  6  2  1  0
  9  6  1  0
 10  9  1  0
 10 11  1  6
 11 12  1  0
 12 13  1  0
 13 17  1  0
 14 13  2  0
 15 10  1  0
 16 15  2  0
 19 18  1  0
 19 20  2  0
 21 20  1  0
 22 21  2  0
 23 22  1  0
 24 23  1  1
 24 25  1  0
 25 15  1  0
 26 27  1  0
 26 24  1  0
 28 29  2  0
 28 22  1  0
 29 19  1  0
 30 26  2  0
M  END
$$$$
