YNN.pdb
     RDKit          3D

 29 29  0  0  1  0  0  0  0  0999 V2000
    6.4112  -11.2121   27.8866 O   0  0  0  0  0  0  0  0  0  0  0  0
    6.4772  -12.2962   27.0304 C   0  0  0  0  0  0  0  0  0  0  0  0
    6.2963  -12.0952   25.6843 C   0  0  0  0  0  0  0  0  0  0  0  0
    6.3632  -13.1719   24.8477 C   0  0  0  0  0  0  0  0  0  0  0  0
    6.6036  -14.4581   25.2836 C   0  0  0  0  0  0  0  0  0  0  0  0
    6.6646  -15.5994   24.3514 C   0  0  0  0  0  0  0  0  0  0  0  0
    8.0720  -15.7467   23.8080 C   0  0  2  0  0  0  0  0  0  0  0  0
    8.9812  -14.8091   24.4130 N   0  0  0  0  0  0  0  0  0  0  0  0
    8.1209  -15.5951   22.3462 C   0  0  0  0  0  0  0  0  0  0  0  0
    7.3557  -16.3008   21.6428 O   0  0  0  0  0  0  0  0  0  0  0  0
    6.7828  -14.6447   26.6334 C   0  0  0  0  0  0  0  0  0  0  0  0
    6.7183  -13.5562   27.5038 C   0  0  0  0  0  0  0  0  0  0  0  0
    7.2450  -13.1903   17.6760 N   0  0  0  0  0  0  0  0  0  0  0  0
    8.4949  -13.0450   18.3283 C   0  0  0  0  0  0  0  0  0  0  0  0
    9.5145  -12.7886   17.5976 O   0  0  0  0  0  0  0  0  0  0  0  0
    8.7062  -13.1664   19.7822 C   0  0  0  0  0  0  0  0  0  0  0  0
    8.9034  -14.5676   20.2280 C   0  0  2  0  0  0  0  0  0  0  0  0
    8.9839  -14.6946   21.6466 N   0  0  0  0  0  0  0  0  0  0  0  0
   10.0302  -15.2631   19.5382 C   0  0  0  0  0  0  0  0  0  0  0  0
    9.9473  -15.4727   18.3166 O   0  0  0  0  0  0  0  0  0  0  0  0
   15.0178  -15.9677   18.4977 N   0  0  0  0  0  0  0  0  0  0  0  0
   14.3618  -14.7251   18.5267 C   0  0  0  0  0  0  0  0  0  0  0  0
   14.9285  -13.6982   18.0073 O   0  0  0  0  0  0  0  0  0  0  0  0
   13.0297  -14.5125   19.1308 C   0  0  0  0  0  0  0  0  0  0  0  0
   12.5035  -15.8429   19.6255 C   0  0  2  0  0  0  0  0  0  0  0  0
   11.1904  -15.6930   20.2158 N   0  0  0  0  0  0  0  0  0  0  0  0
   13.4202  -16.3824   20.6343 C   0  0  0  0  0  0  0  0  0  0  0  0
   14.6745  -16.8340   20.2472 O   0  0  0  0  0  0  0  0  0  0  0  0
   13.1374  -16.4660   21.8649 O   0  0  0  0  0  0  0  0  0  0  0  0
  2  1  1  0
  2 12  2  0
  3  2  1  0
  4  3  2  0
  4  5  1  0
  5 11  2  0
  6  5  1  0
  7  8  1  1
  7  6  1  0
  9  7  1  0
 10  9  2  0
 11 12  1  0
 13 14  1  0
 14 15  2  0
 14 16  1  0
 17 16  1  1
 17 19  1  0
 17 18  1  0
 18  9  1  0
 19 20  2  0
 22 21  1  0
 22 24  1  0
 23 22  2  0
 25 24  1  1
 26 25  1  0
 26 19  1  0
 27 28  1  0
 27 25  1  0
 29 27  2  0
M  END
$$$$
