YNN.pdb
     RDKit          3D

 29 29  0  0  1  0  0  0  0  0999 V2000
    7.2084  -12.1856   17.2989 O   0  0  0  0  0  0  0  0  0  0  0  0
    7.6590  -12.9530   18.3577 C   0  0  0  0  0  0  0  0  0  0  0  0
    7.1193  -12.7527   19.6041 C   0  0  0  0  0  0  0  0  0  0  0  0
    7.5711  -13.5152   20.6424 C   0  0  0  0  0  0  0  0  0  0  0  0
    8.5460  -14.4813   20.5067 C   0  0  0  0  0  0  0  0  0  0  0  0
    9.0138  -15.2841   21.6522 C   0  0  0  0  0  0  0  0  0  0  0  0
    8.6759  -16.7450   21.4302 C   0  0  2  0  0  0  0  0  0  0  0  0
    7.6253  -17.1915   22.3067 N   0  0  0  0  0  0  0  0  0  0  0  0
    9.8485  -17.6168   21.5955 C   0  0  0  0  0  0  0  0  0  0  0  0
   10.0828  -18.1000   22.7314 O   0  0  0  0  0  0  0  0  0  0  0  0
    9.0774  -14.6712   19.2535 C   0  0  0  0  0  0  0  0  0  0  0  0
    8.6279  -13.9015   18.1802 C   0  0  0  0  0  0  0  0  0  0  0  0
   13.7368  -20.9423   21.3664 N   0  0  0  0  0  0  0  0  0  0  0  0
   13.0464  -20.8887   20.1298 C   0  0  0  0  0  0  0  0  0  0  0  0
   13.3128  -21.7957   19.2664 O   0  0  0  0  0  0  0  0  0  0  0  0
   12.0464  -19.8683   19.7662 C   0  0  0  0  0  0  0  0  0  0  0  0
   11.8648  -18.8312   20.8113 C   0  0  2  0  0  0  0  0  0  0  0  0
   10.7609  -17.9657   20.5511 N   0  0  0  0  0  0  0  0  0  0  0  0
   13.1111  -18.0712   21.1248 C   0  0  0  0  0  0  0  0  0  0  0  0
   14.2019  -18.6637   21.0790 O   0  0  0  0  0  0  0  0  0  0  0  0
   12.4856  -14.2598   19.2249 N   0  0  0  0  0  0  0  0  0  0  0  0
   13.7600  -14.4271   19.7934 C   0  0  0  0  0  0  0  0  0  0  0  0
   14.7798  -14.5711   19.0287 O   0  0  0  0  0  0  0  0  0  0  0  0
   14.0144  -14.4505   21.2491 C   0  0  0  0  0  0  0  0  0  0  0  0
   14.2771  -15.8800   21.6726 C   0  0  2  0  0  0  0  0  0  0  0  0
   13.1040  -16.7035   21.4706 N   0  0  0  0  0  0  0  0  0  0  0  0
   14.6386  -15.9066   23.0930 C   0  0  0  0  0  0  0  0  0  0  0  0
   15.7959  -15.2674   23.5165 O   0  0  0  0  0  0  0  0  0  0  0  0
   13.9491  -16.4876   23.9809 O   0  0  0  0  0  0  0  0  0  0  0  0
  2  1  1  0
  2 12  2  0
  3  2  1  0
  4  3  2  0
  4  5  1  0
  5 11  2  0
  6  5  1  0
  7  8  1  1
  7  6  1  0
  9  7  1  0
 10  9  2  0
 11 12  1  0
 13 14  1  0
 14 15  2  0
 14 16  1  0
 17 16  1  6
 17 19  1  0
 17 18  1  0
 18  9  1  0
 19 20  2  0
 22 21  1  0
 22 24  1  0
 23 22  2  0
 25 24  1  1
 26 25  1  0
 26 19  1  0
 27 28  1  0
 27 25  1  0
 29 27  2  0
M  END
$$$$
