YNN.pdb
     RDKit          3D

 29 29  0  0  1  0  0  0  0  0999 V2000
    8.7025  -12.8595   17.3884 O   0  0  0  0  0  0  0  0  0  0  0  0
    8.3568  -13.3759   18.6241 C   0  0  0  0  0  0  0  0  0  0  0  0
    7.2787  -12.8475   19.2900 C   0  0  0  0  0  0  0  0  0  0  0  0
    6.9459  -13.3641   20.5091 C   0  0  0  0  0  0  0  0  0  0  0  0
    7.6380  -14.3936   21.1117 C   0  0  0  0  0  0  0  0  0  0  0  0
    7.2531  -14.9244   22.4329 C   0  0  0  0  0  0  0  0  0  0  0  0
    7.0367  -16.4221   22.3438 C   0  0  2  0  0  0  0  0  0  0  0  0
    5.6476  -16.7723   22.4823 N   0  0  0  0  0  0  0  0  0  0  0  0
    7.8241  -17.1567   23.3451 C   0  0  0  0  0  0  0  0  0  0  0  0
    7.3150  -17.3660   24.4745 O   0  0  0  0  0  0  0  0  0  0  0  0
    8.7150  -14.9130   20.4339 C   0  0  0  0  0  0  0  0  0  0  0  0
    9.0698  -14.3981   19.1867 C   0  0  0  0  0  0  0  0  0  0  0  0
   11.1118  -20.0528   26.1144 N   0  0  0  0  0  0  0  0  0  0  0  0
   11.3085  -20.2606   24.7263 C   0  0  0  0  0  0  0  0  0  0  0  0
   12.0526  -21.2422   24.3771 O   0  0  0  0  0  0  0  0  0  0  0  0
   10.7202  -19.4321   23.6582 C   0  0  0  0  0  0  0  0  0  0  0  0
    9.8261  -18.3658   24.1727 C   0  0  2  0  0  0  0  0  0  0  0  0
    9.1457  -17.6611   23.1355 N   0  0  0  0  0  0  0  0  0  0  0  0
   10.4907  -17.4398   25.1369 C   0  0  0  0  0  0  0  0  0  0  0  0
   11.4840  -16.7952   24.7614 O   0  0  0  0  0  0  0  0  0  0  0  0
   11.2750  -14.4337   29.3107 N   0  0  0  0  0  0  0  0  0  0  0  0
    9.9296  -14.4599   28.9051 C   0  0  0  0  0  0  0  0  0  0  0  0
    9.0991  -13.6253   29.4142 O   0  0  0  0  0  0  0  0  0  0  0  0
    9.3898  -15.4073   27.9074 C   0  0  0  0  0  0  0  0  0  0  0  0
   10.5240  -16.2673   27.3920 C   0  0  2  0  0  0  0  0  0  0  0  0
   10.0370  -17.2628   26.4609 N   0  0  0  0  0  0  0  0  0  0  0  0
   11.1695  -16.9459   28.5198 C   0  0  0  0  0  0  0  0  0  0  0  0
   10.7060  -18.1900   28.9259 O   0  0  0  0  0  0  0  0  0  0  0  0
   12.1453  -16.4616   29.1637 O   0  0  0  0  0  0  0  0  0  0  0  0
  2  1  1  0
  2 12  2  0
  3  2  1  0
  4  3  2  0
  4  5  1  0
  5 11  2  0
  6  5  1  0
  7  8  1  1
  7  6  1  0
  9  7  1  0
 10  9  2  0
 11 12  1  0
 13 14  1  0
 14 15  2  0
 14 16  1  0
 17 16  1  6
 17 19  1  0
 17 18  1  0
 18  9  1  0
 19 20  2  0
 22 21  1  0
 22 24  1  0
 23 22  2  0
 25 24  1  1
 26 25  1  0
 26 19  1  0
 27 28  1  0
 27 25  1  0
 29 27  2  0
M  END
$$$$
