YNN.pdb
     RDKit          3D

 29 29  0  0  1  0  0  0  0  0999 V2000
    5.9787  -11.0757   28.3966 O   0  0  0  0  0  0  0  0  0  0  0  0
    6.5886  -11.8275   27.4088 C   0  0  0  0  0  0  0  0  0  0  0  0
    7.4137  -12.8629   27.7722 C   0  0  0  0  0  0  0  0  0  0  0  0
    8.0110  -13.5987   26.7895 C   0  0  0  0  0  0  0  0  0  0  0  0
    7.8297  -13.3570   25.4438 C   0  0  0  0  0  0  0  0  0  0  0  0
    8.4950  -14.1698   24.4084 C   0  0  0  0  0  0  0  0  0  0  0  0
    7.4589  -14.9328   23.6071 C   0  0  2  0  0  0  0  0  0  0  0  0
    7.0118  -16.1146   24.2964 N   0  0  0  0  0  0  0  0  0  0  0  0
    7.9540  -15.3072   22.2741 C   0  0  0  0  0  0  0  0  0  0  0  0
    7.9996  -16.5254   21.9701 O   0  0  0  0  0  0  0  0  0  0  0  0
    7.0011  -12.3176   25.0945 C   0  0  0  0  0  0  0  0  0  0  0  0
    6.3817  -11.5547   26.0849 C   0  0  0  0  0  0  0  0  0  0  0  0
    8.1965  -14.8542   16.6848 N   0  0  0  0  0  0  0  0  0  0  0  0
    9.0992  -14.2670   17.6062 C   0  0  0  0  0  0  0  0  0  0  0  0
   10.3205  -14.1488   17.2406 O   0  0  0  0  0  0  0  0  0  0  0  0
    8.7359  -13.7832   18.9505 C   0  0  0  0  0  0  0  0  0  0  0  0
    8.7979  -14.8418   19.9880 C   0  0  2  0  0  0  0  0  0  0  0  0
    8.3967  -14.3820   21.2775 N   0  0  0  0  0  0  0  0  0  0  0  0
   10.1047  -15.5626   20.0315 C   0  0  0  0  0  0  0  0  0  0  0  0
   10.3110  -16.4793   19.2190 O   0  0  0  0  0  0  0  0  0  0  0  0
   13.1793  -12.8658   19.4009 N   0  0  0  0  0  0  0  0  0  0  0  0
   13.5991  -14.1766   19.6852 C   0  0  0  0  0  0  0  0  0  0  0  0
   14.0846  -14.9030   18.7460 O   0  0  0  0  0  0  0  0  0  0  0  0
   13.5171  -14.7938   21.0257 C   0  0  0  0  0  0  0  0  0  0  0  0
   12.4340  -15.8512   21.0073 C   0  0  2  0  0  0  0  0  0  0  0  0
   11.1202  -15.2457   20.9581 N   0  0  0  0  0  0  0  0  0  0  0  0
   12.5354  -16.6707   22.2186 C   0  0  0  0  0  0  0  0  0  0  0  0
   13.7068  -17.3699   22.4755 O   0  0  0  0  0  0  0  0  0  0  0  0
   11.6033  -16.7860   23.0668 O   0  0  0  0  0  0  0  0  0  0  0  0
  2  1  1  0
  2 12  2  0
  3  2  1  0
  4  3  2  0
  4  5  1  0
  5 11  2  0
  6  5  1  0
  7  8  1  1
  7  6  1  0
  9  7  1  0
 10  9  2  0
 11 12  1  0
 13 14  1  0
 14 15  2  0
 14 16  1  0
 17 16  1  6
 17 19  1  0
 17 18  1  0
 18  9  1  0
 19 20  2  0
 22 21  1  0
 22 24  1  0
 23 22  2  0
 25 24  1  1
 26 25  1  0
 26 19  1  0
 27 28  1  0
 27 25  1  0
 29 27  2  0
M  END
$$$$
