YNN.pdb
     RDKit          3D

 29 29  0  0  1  0  0  0  0  0999 V2000
    5.8053  -12.5010   15.4383 O   0  0  0  0  0  0  0  0  0  0  0  0
    6.6878  -12.9687   16.3949 C   0  0  0  0  0  0  0  0  0  0  0  0
    7.6001  -13.9336   16.0460 C   0  0  0  0  0  0  0  0  0  0  0  0
    8.4667  -14.3888   16.9977 C   0  0  0  0  0  0  0  0  0  0  0  0
    8.4754  -13.9296   18.2982 C   0  0  0  0  0  0  0  0  0  0  0  0
    9.4235  -14.4475   19.3022 C   0  0  0  0  0  0  0  0  0  0  0  0
    9.0379  -15.8598   19.6952 C   0  0  2  0  0  0  0  0  0  0  0  0
    7.8848  -15.8808   20.5563 N   0  0  0  0  0  0  0  0  0  0  0  0
   10.1440  -16.5752   20.3487 C   0  0  0  0  0  0  0  0  0  0  0  0
   10.3585  -16.3648   21.5686 O   0  0  0  0  0  0  0  0  0  0  0  0
    7.5569  -12.9637   18.6335 C   0  0  0  0  0  0  0  0  0  0  0  0
    6.6635  -12.4862   17.6741 C   0  0  0  0  0  0  0  0  0  0  0  0
   13.8517  -19.3348   22.4550 N   0  0  0  0  0  0  0  0  0  0  0  0
   13.7074  -19.6749   21.0867 C   0  0  0  0  0  0  0  0  0  0  0  0
   14.6418  -20.3659   20.5496 O   0  0  0  0  0  0  0  0  0  0  0  0
   12.5632  -19.2928   20.2393 C   0  0  0  0  0  0  0  0  0  0  0  0
   12.2785  -17.8371   20.2653 C   0  0  2  0  0  0  0  0  0  0  0  0
   11.0118  -17.5071   19.6979 N   0  0  0  0  0  0  0  0  0  0  0  0
   13.3797  -17.0007   19.7025 C   0  0  0  0  0  0  0  0  0  0  0  0
   13.0920  -15.9340   19.1347 O   0  0  0  0  0  0  0  0  0  0  0  0
   15.5472  -13.7114   17.6193 N   0  0  0  0  0  0  0  0  0  0  0  0
   16.1857  -14.2131   18.7664 C   0  0  0  0  0  0  0  0  0  0  0  0
   17.4220  -13.9401   18.9726 O   0  0  0  0  0  0  0  0  0  0  0  0
   15.5154  -15.0567   19.7780 C   0  0  0  0  0  0  0  0  0  0  0  0
   15.8654  -16.5050   19.5108 C   0  0  2  0  0  0  0  0  0  0  0  0
   14.7385  -17.3698   19.7892 N   0  0  0  0  0  0  0  0  0  0  0  0
   16.9897  -16.8983   20.3654 C   0  0  0  0  0  0  0  0  0  0  0  0
   17.2969  -16.1372   21.4851 O   0  0  0  0  0  0  0  0  0  0  0  0
   17.7169  -17.9103   20.1453 O   0  0  0  0  0  0  0  0  0  0  0  0
  2  1  1  0
  2 12  2  0
  3  2  1  0
  4  3  2  0
  4  5  1  0
  5 11  2  0
  6  5  1  0
  7  8  1  1
  7  6  1  0
  9  7  1  0
 10  9  2  0
 11 12  1  0
 13 14  1  0
 14 15  2  0
 14 16  1  0
 17 16  1  6
 17 19  1  0
 17 18  1  0
 18  9  1  0
 19 20  2  0
 22 21  1  0
 22 24  1  0
 23 22  2  0
 25 24  1  1
 26 25  1  0
 26 19  1  0
 27 28  1  0
 27 25  1  0
 29 27  2  0
M  END
$$$$
