YNN.pdb
     RDKit          3D

 29 29  0  0  1  0  0  0  0  0999 V2000
    5.2986  -10.4736   27.9958 O   0  0  0  0  0  0  0  0  0  0  0  0
    5.9841  -11.4672   27.3207 C   0  0  0  0  0  0  0  0  0  0  0  0
    5.7589  -11.6383   25.9772 C   0  0  0  0  0  0  0  0  0  0  0  0
    6.4404  -12.6220   25.3201 C   0  0  0  0  0  0  0  0  0  0  0  0
    7.3479  -13.4582   25.9362 C   0  0  0  0  0  0  0  0  0  0  0  0
    8.0634  -14.5142   25.1958 C   0  0  0  0  0  0  0  0  0  0  0  0
    7.0743  -15.5341   24.6674 C   0  0  2  0  0  0  0  0  0  0  0  0
    6.7240  -16.5089   25.6666 N   0  0  0  0  0  0  0  0  0  0  0  0
    7.5764  -16.2254   23.4706 C   0  0  0  0  0  0  0  0  0  0  0  0
    8.1989  -17.3067   23.6179 O   0  0  0  0  0  0  0  0  0  0  0  0
    7.5635  -13.2756   27.2812 C   0  0  0  0  0  0  0  0  0  0  0  0
    6.8764  -12.2752   27.9694 C   0  0  0  0  0  0  0  0  0  0  0  0
    9.1540  -17.7726   18.7806 N   0  0  0  0  0  0  0  0  0  0  0  0
    8.3431  -16.6212   18.6212 C   0  0  0  0  0  0  0  0  0  0  0  0
    8.1075  -16.2274   17.4260 O   0  0  0  0  0  0  0  0  0  0  0  0
    7.7522  -15.8465   19.7276 C   0  0  0  0  0  0  0  0  0  0  0  0
    8.1800  -16.3220   21.0662 C   0  0  2  0  0  0  0  0  0  0  0  0
    7.4120  -15.7593   22.1287 N   0  0  0  0  0  0  0  0  0  0  0  0
    9.6479  -16.1942   21.3069 C   0  0  0  0  0  0  0  0  0  0  0  0
   10.0513  -15.3352   22.1084 O   0  0  0  0  0  0  0  0  0  0  0  0
   13.9943  -17.9871   23.1844 N   0  0  0  0  0  0  0  0  0  0  0  0
   12.9236  -18.8550   22.9091 C   0  0  0  0  0  0  0  0  0  0  0  0
   13.0615  -20.1140   23.1125 O   0  0  0  0  0  0  0  0  0  0  0  0
   11.6156  -18.4073   22.3866 C   0  0  0  0  0  0  0  0  0  0  0  0
   11.8539  -17.4550   21.2342 C   0  0  2  0  0  0  0  0  0  0  0  0
   10.6006  -17.0108   20.6622 N   0  0  0  0  0  0  0  0  0  0  0  0
   12.6362  -18.1343   20.1972 C   0  0  0  0  0  0  0  0  0  0  0  0
   13.8798  -17.6319   19.8391 O   0  0  0  0  0  0  0  0  0  0  0  0
   12.2440  -19.1740   19.5916 O   0  0  0  0  0  0  0  0  0  0  0  0
  2  1  1  0
  2 12  2  0
  3  2  1  0
  4  3  2  0
  4  5  1  0
  5 11  2  0
  6  5  1  0
  7  8  1  1
  7  6  1  0
  9  7  1  0
 10  9  2  0
 11 12  1  0
 13 14  1  0
 14 15  2  0
 14 16  1  0
 17 16  1  6
 17 19  1  0
 17 18  1  0
 18  9  1  0
 19 20  2  0
 22 21  1  0
 22 24  1  0
 23 22  2  0
 25 24  1  1
 26 25  1  0
 26 19  1  0
 27 28  1  0
 27 25  1  0
 29 27  2  0
M  END
$$$$
