YNN.pdb
     RDKit          3D

 29 29  0  0  1  0  0  0  0  0999 V2000
    5.5608  -10.5477   28.4066 O   0  0  0  0  0  0  0  0  0  0  0  0
    6.2290  -11.4856   27.6406 C   0  0  0  0  0  0  0  0  0  0  0  0
    5.9834  -11.5419   26.2910 C   0  0  0  0  0  0  0  0  0  0  0  0
    6.6480  -12.4714   25.5438 C   0  0  0  0  0  0  0  0  0  0  0  0
    7.5576  -13.3622   26.0741 C   0  0  0  0  0  0  0  0  0  0  0  0
    8.2544  -14.3570   25.2373 C   0  0  0  0  0  0  0  0  0  0  0  0
    7.2499  -15.3216   24.6389 C   0  0  2  0  0  0  0  0  0  0  0  0
    6.7305  -16.2340   25.6234 N   0  0  0  0  0  0  0  0  0  0  0  0
    7.8160  -16.0878   23.5188 C   0  0  0  0  0  0  0  0  0  0  0  0
    8.3667  -17.1906   23.7623 O   0  0  0  0  0  0  0  0  0  0  0  0
    7.7938  -13.2944   27.4263 C   0  0  0  0  0  0  0  0  0  0  0  0
    7.1242  -12.3508   28.2060 C   0  0  0  0  0  0  0  0  0  0  0  0
    8.3332  -18.0244   18.1203 N   0  0  0  0  0  0  0  0  0  0  0  0
    8.8332  -16.8638   18.7620 C   0  0  0  0  0  0  0  0  0  0  0  0
   10.0041  -16.4657   18.4309 O   0  0  0  0  0  0  0  0  0  0  0  0
    8.1056  -16.0834   19.7793 C   0  0  0  0  0  0  0  0  0  0  0  0
    8.5451  -16.3783   21.1652 C   0  0  2  0  0  0  0  0  0  0  0  0
    7.7916  -15.6733   22.1503 N   0  0  0  0  0  0  0  0  0  0  0  0
   10.0162  -16.2293   21.3721 C   0  0  0  0  0  0  0  0  0  0  0  0
   10.4453  -15.1885   21.8971 O   0  0  0  0  0  0  0  0  0  0  0  0
   14.6176  -18.1789   22.7994 N   0  0  0  0  0  0  0  0  0  0  0  0
   13.4551  -18.1296   23.5878 C   0  0  0  0  0  0  0  0  0  0  0  0
   13.5366  -18.3474   24.8493 O   0  0  0  0  0  0  0  0  0  0  0  0
   12.1093  -17.8380   23.0510 C   0  0  0  0  0  0  0  0  0  0  0  0
   12.2437  -17.4327   21.5987 C   0  0  2  0  0  0  0  0  0  0  0  0
   10.9439  -17.2238   20.9971 N   0  0  0  0  0  0  0  0  0  0  0  0
   12.9445  -18.4893   20.8629 C   0  0  0  0  0  0  0  0  0  0  0  0
   12.2299  -19.3164   20.0070 O   0  0  0  0  0  0  0  0  0  0  0  0
   14.1881  -18.7032   20.9581 O   0  0  0  0  0  0  0  0  0  0  0  0
  2  1  1  0
  2 12  2  0
  3  2  1  0
  4  3  2  0
  4  5  1  0
  5 11  2  0
  6  5  1  0
  7  8  1  1
  7  6  1  0
  9  7  1  0
 10  9  2  0
 11 12  1  0
 13 14  1  0
 14 15  2  0
 14 16  1  0
 17 16  1  6
 17 19  1  0
 17 18  1  0
 18  9  1  0
 19 20  2  0
 22 21  1  0
 22 24  1  0
 23 22  2  0
 25 24  1  1
 26 25  1  0
 26 19  1  0
 27 28  1  0
 27 25  1  0
 29 27  2  0
M  END
$$$$
