IFD.pdb
     RDKit          3D

 28 28  0  0  1  0  0  0  0  0999 V2000
   28.1861  -17.4158  -16.7835 C   0  0  0  0  0  0  0  0  0  0  0  0
   28.6697  -18.3334  -15.6825 C   0  0  0  0  0  0  0  0  0  0  0  0
   27.5108  -19.0325  -15.0298 C   0  0  2  0  0  0  0  0  0  0  0  0
   26.4289  -18.0529  -14.6803 C   0  0  0  0  0  0  0  0  0  0  0  0
   27.9373  -19.9017  -13.8803 C   0  0  2  0  0  0  0  0  0  0  0  0
   28.8921  -20.8606  -14.3987 N   0  0  0  0  0  0  0  0  0  0  0  0
   26.8352  -20.6174  -13.2339 C   0  0  0  0  0  0  0  0  0  0  0  0
   26.3301  -21.6830  -13.6962 O   0  0  0  0  0  0  0  0  0  0  0  0
   26.2830  -20.1167  -12.0266 N   0  0  0  0  0  0  0  0  0  0  0  0
   25.1907  -20.7728  -11.3190 C   0  0  1  0  0  0  0  0  0  0  0  0
   25.2141  -20.2414   -9.9024 C   0  0  0  0  0  0  0  0  0  0  0  0
   26.5146  -20.4338   -9.2255 C   0  0  0  0  0  0  0  0  0  0  0  0
   26.8907  -19.6668   -8.1231 C   0  0  0  0  0  0  0  0  0  0  0  0
   28.0946  -19.8381   -7.4727 C   0  0  0  0  0  0  0  0  0  0  0  0
   28.9610  -20.8028   -7.9266 C   0  0  0  0  0  0  0  0  0  0  0  0
   28.6241  -21.5807   -9.0134 C   0  0  0  0  0  0  0  0  0  0  0  0
   27.4002  -21.3943   -9.6610 C   0  0  0  0  0  0  0  0  0  0  0  0
   23.9280  -20.4165  -11.9829 C   0  0  0  0  0  0  0  0  0  0  0  0
   23.8255  -19.3431  -12.6245 O   0  0  0  0  0  0  0  0  0  0  0  0
   22.8153  -21.2691  -11.9115 N   0  0  0  0  0  0  0  0  0  0  0  0
   21.7864  -21.2004  -12.9306 C   0  0  1  0  0  0  0  0  0  0  0  0
   22.2461  -22.1223  -14.0387 C   0  0  0  0  0  0  0  0  0  0  0  0
   21.2839  -22.3094  -15.1224 C   0  0  0  0  0  0  0  0  0  0  0  0
   21.3113  -21.7135  -16.2293 O   0  0  0  0  0  0  0  0  0  0  0  0
   20.5198  -21.6667  -12.2978 C   0  0  0  0  0  0  0  0  0  0  0  0
   19.4079  -21.2099  -12.7081 O   0  0  0  0  0  0  0  0  0  0  0  0
   20.2413  -23.2356  -14.9026 O   0  0  0  0  0  0  0  0  0  0  0  0
   20.4593  -22.5895  -11.2643 O   0  0  0  0  0  0  0  0  0  0  0  0
  2  1  1  0
  3  2  1  0
  3  4  1  1
  5  3  1  0
  5  6  1  6
  7  8  2  0
  7  5  1  0
  9  7  1  0
 10  9  1  0
 11 12  1  0
 10 11  1  1
 12 13  2  0
 13 14  1  0
 15 14  2  0
 16 15  1  0
 17 12  1  0
 17 16  2  0
 18 19  2  0
 18 10  1  0
 20 18  1  0
 21 20  1  0
 21 22  1  6
 23 22  1  0
 24 23  2  0
 25 21  1  0
 26 25  2  0
 27 23  1  0
 28 25  1  0
M  END
$$$$
