IFD.pdb
     RDKit          3D

 28 28  0  0  1  0  0  0  0  0999 V2000
   28.4970  -17.7372  -16.9616 C   0  0  0  0  0  0  0  0  0  0  0  0
   28.9498  -18.5108  -15.7432 C   0  0  0  0  0  0  0  0  0  0  0  0
   27.7847  -19.2014  -15.0924 C   0  0  2  0  0  0  0  0  0  0  0  0
   26.6657  -18.2330  -14.8432 C   0  0  0  0  0  0  0  0  0  0  0  0
   28.1886  -19.9883  -13.8773 C   0  0  2  0  0  0  0  0  0  0  0  0
   29.1586  -20.9748  -14.3080 N   0  0  0  0  0  0  0  0  0  0  0  0
   27.0750  -20.6645  -13.2085 C   0  0  0  0  0  0  0  0  0  0  0  0
   26.5895  -21.7655  -13.6043 O   0  0  0  0  0  0  0  0  0  0  0  0
   26.4882  -20.0819  -12.0555 N   0  0  0  0  0  0  0  0  0  0  0  0
   25.4060  -20.7113  -11.3091 C   0  0  1  0  0  0  0  0  0  0  0  0
   25.3626  -20.0321   -9.9576 C   0  0  0  0  0  0  0  0  0  0  0  0
   26.5844  -20.2485   -9.1534 C   0  0  0  0  0  0  0  0  0  0  0  0
   27.5213  -21.2261   -9.4873 C   0  0  0  0  0  0  0  0  0  0  0  0
   28.6712  -21.4361   -8.7557 C   0  0  0  0  0  0  0  0  0  0  0  0
   28.9065  -20.6521   -7.6523 C   0  0  0  0  0  0  0  0  0  0  0  0
   28.0035  -19.6754   -7.2911 C   0  0  0  0  0  0  0  0  0  0  0  0
   26.8433  -19.4755   -8.0435 C   0  0  0  0  0  0  0  0  0  0  0  0
   24.1490  -20.4889  -12.0390 C   0  0  0  0  0  0  0  0  0  0  0  0
   23.9077  -19.3780  -12.5699 O   0  0  0  0  0  0  0  0  0  0  0  0
   23.1967  -21.5136  -12.1551 N   0  0  0  0  0  0  0  0  0  0  0  0
   22.0333  -21.3259  -12.9995 C   0  0  1  0  0  0  0  0  0  0  0  0
   21.8500  -22.6325  -13.7397 C   0  0  0  0  0  0  0  0  0  0  0  0
   20.6214  -22.7278  -14.5251 C   0  0  0  0  0  0  0  0  0  0  0  0
   19.7865  -21.8011  -14.6833 O   0  0  0  0  0  0  0  0  0  0  0  0
   20.8873  -21.0240  -12.0953 C   0  0  0  0  0  0  0  0  0  0  0  0
   20.9928  -21.2528  -10.8504 O   0  0  0  0  0  0  0  0  0  0  0  0
   20.3560  -23.9632  -15.1547 O   0  0  0  0  0  0  0  0  0  0  0  0
   19.6777  -20.4959  -12.5210 O   0  0  0  0  0  0  0  0  0  0  0  0
  2  1  1  0
  3  2  1  0
  3  4  1  1
  5  3  1  0
  5  6  1  6
  7  8  2  0
  7  5  1  0
  9  7  1  0
 10  9  1  0
 11 12  1  0
 10 11  1  1
 12 13  2  0
 13 14  1  0
 15 14  2  0
 16 15  1  0
 17 12  1  0
 17 16  2  0
 18 19  2  0
 18 10  1  0
 20 18  1  0
 21 20  1  0
 21 22  1  1
 23 22  1  0
 24 23  2  0
 25 21  1  0
 26 25  2  0
 27 23  1  0
 28 25  1  0
M  END
$$$$
