IFD.pdb
     RDKit          3D

 28 28  0  0  1  0  0  0  0  0999 V2000
   28.3791  -20.3556  -19.6002 C   0  0  0  0  0  0  0  0  0  0  0  0
   27.9344  -21.8007  -19.5556 C   0  0  0  0  0  0  0  0  0  0  0  0
   27.1295  -22.0682  -18.3152 C   0  0  2  0  0  0  0  0  0  0  0  0
   25.9276  -21.1714  -18.2590 C   0  0  0  0  0  0  0  0  0  0  0  0
   27.9683  -22.0382  -17.0684 C   0  0  2  0  0  0  0  0  0  0  0  0
   28.9697  -23.0772  -17.2000 N   0  0  0  0  0  0  0  0  0  0  0  0
   27.2088  -22.2517  -15.8345 C   0  0  0  0  0  0  0  0  0  0  0  0
   26.5857  -23.3239  -15.5766 O   0  0  0  0  0  0  0  0  0  0  0  0
   27.1487  -21.2238  -14.8584 N   0  0  0  0  0  0  0  0  0  0  0  0
   26.3878  -21.3449  -13.6212 C   0  0  1  0  0  0  0  0  0  0  0  0
   27.0135  -20.3834  -12.6345 C   0  0  0  0  0  0  0  0  0  0  0  0
   26.3390  -20.3722  -11.3187 C   0  0  0  0  0  0  0  0  0  0  0  0
   25.2557  -19.5346  -11.0545 C   0  0  0  0  0  0  0  0  0  0  0  0
   24.6076  -19.5170   -9.8374 C   0  0  0  0  0  0  0  0  0  0  0  0
   25.0444  -20.3576   -8.8424 C   0  0  0  0  0  0  0  0  0  0  0  0
   26.1120  -21.2001   -9.0662 C   0  0  0  0  0  0  0  0  0  0  0  0
   26.7575  -21.2055  -10.3054 C   0  0  0  0  0  0  0  0  0  0  0  0
   24.9933  -20.9678  -13.8957 C   0  0  0  0  0  0  0  0  0  0  0  0
   24.7306  -19.9382  -14.5628 O   0  0  0  0  0  0  0  0  0  0  0  0
   23.9315  -21.7513  -13.4173 N   0  0  0  0  0  0  0  0  0  0  0  0
   22.5633  -21.3269  -13.6402 C   0  0  1  0  0  0  0  0  0  0  0  0
   21.7887  -22.5891  -13.9494 C   0  0  0  0  0  0  0  0  0  0  0  0
   20.3546  -22.3966  -14.1540 C   0  0  0  0  0  0  0  0  0  0  0  0
   19.7477  -21.2997  -14.0568 O   0  0  0  0  0  0  0  0  0  0  0  0
   22.1022  -20.6761  -12.3809 C   0  0  0  0  0  0  0  0  0  0  0  0
   22.4177  -21.1836  -11.2601 O   0  0  0  0  0  0  0  0  0  0  0  0
   19.5946  -23.5386  -14.4875 O   0  0  0  0  0  0  0  0  0  0  0  0
   21.3321  -19.5236  -12.3367 O   0  0  0  0  0  0  0  0  0  0  0  0
  2  1  1  0
  3  2  1  0
  3  4  1  1
  5  3  1  0
  5  6  1  6
  7  8  2  0
  7  5  1  0
  9  7  1  0
 10  9  1  0
 11 12  1  0
 10 11  1  1
 12 13  2  0
 13 14  1  0
 15 14  2  0
 16 15  1  0
 17 12  1  0
 17 16  2  0
 18 19  2  0
 18 10  1  0
 20 18  1  0
 21 20  1  0
 21 22  1  1
 23 22  1  0
 24 23  2  0
 25 21  1  0
 26 25  2  0
 27 23  1  0
 28 25  1  0
M  END
$$$$
