IFD.pdb
     RDKit          3D

 28 28  0  0  1  0  0  0  0  0999 V2000
   29.6014  -19.5869  -15.9419 C   0  0  0  0  0  0  0  0  0  0  0  0
   29.9664  -19.9112  -14.5102 C   0  0  0  0  0  0  0  0  0  0  0  0
   28.7388  -20.2638  -13.7186 C   0  0  2  0  0  0  0  0  0  0  0  0
   27.6786  -19.2155  -13.8888 C   0  0  0  0  0  0  0  0  0  0  0  0
   29.0523  -20.5830  -12.2838 C   0  0  2  0  0  0  0  0  0  0  0  0
   29.9690  -21.7052  -12.2843 N   0  0  0  0  0  0  0  0  0  0  0  0
   27.8765  -20.9190  -11.4779 C   0  0  0  0  0  0  0  0  0  0  0  0
   27.3749  -22.0810  -11.4282 O   0  0  0  0  0  0  0  0  0  0  0  0
   27.2444  -19.9134  -10.7020 N   0  0  0  0  0  0  0  0  0  0  0  0
   26.0688  -20.1654   -9.8781 C   0  0  1  0  0  0  0  0  0  0  0  0
   26.0757  -19.1186   -8.7855 C   0  0  0  0  0  0  0  0  0  0  0  0
   26.7554  -19.5649   -7.5504 C   0  0  0  0  0  0  0  0  0  0  0  0
   27.8156  -18.8492   -6.9947 C   0  0  0  0  0  0  0  0  0  0  0  0
   28.4553  -19.2438   -5.8386 C   0  0  0  0  0  0  0  0  0  0  0  0
   28.0335  -20.3881   -5.2060 C   0  0  0  0  0  0  0  0  0  0  0  0
   26.9886  -21.1218   -5.7251 C   0  0  0  0  0  0  0  0  0  0  0  0
   26.3511  -20.7079   -6.8975 C   0  0  0  0  0  0  0  0  0  0  0  0
   24.8726  -20.0233  -10.7214 C   0  0  0  0  0  0  0  0  0  0  0  0
   24.7880  -19.0906  -11.5564 O   0  0  0  0  0  0  0  0  0  0  0  0
   23.8044  -20.9268  -10.6081 N   0  0  0  0  0  0  0  0  0  0  0  0
   22.7028  -20.8641  -11.5485 C   0  0  1  0  0  0  0  0  0  0  0  0
   22.5846  -22.2544  -12.1334 C   0  0  0  0  0  0  0  0  0  0  0  0
   21.4019  -22.4746  -12.9629 C   0  0  0  0  0  0  0  0  0  0  0  0
   20.5087  -21.6209  -13.1959 O   0  0  0  0  0  0  0  0  0  0  0  0
   21.4923  -20.4745  -10.7707 C   0  0  0  0  0  0  0  0  0  0  0  0
   20.4068  -20.2260  -11.3815 O   0  0  0  0  0  0  0  0  0  0  0  0
   21.2562  -23.7515  -13.5472 O   0  0  0  0  0  0  0  0  0  0  0  0
   21.4583  -20.3593   -9.3891 O   0  0  0  0  0  0  0  0  0  0  0  0
  2  1  1  0
  3  2  1  0
  3  4  1  1
  5  3  1  0
  5  6  1  6
  7  8  2  0
  7  5  1  0
  9  7  1  0
 10  9  1  0
 11 12  1  0
 10 11  1  1
 12 13  2  0
 13 14  1  0
 15 14  2  0
 16 15  1  0
 17 12  1  0
 17 16  2  0
 18 19  2  0
 18 10  1  0
 20 18  1  0
 21 20  1  0
 21 22  1  1
 23 22  1  0
 24 23  2  0
 25 21  1  0
 26 25  2  0
 27 23  1  0
 28 25  1  0
M  END
$$$$
