IFD.pdb
     RDKit          3D

 28 28  0  0  1  0  0  0  0  0999 V2000
   25.7382  -26.0887  -19.2067 C   0  0  0  0  0  0  0  0  0  0  0  0
   26.3756  -24.9892  -18.3864 C   0  0  0  0  0  0  0  0  0  0  0  0
   25.5878  -24.7421  -17.1309 C   0  0  2  0  0  0  0  0  0  0  0  0
   24.1243  -24.6176  -17.4387 C   0  0  0  0  0  0  0  0  0  0  0  0
   26.1375  -23.6002  -16.3229 C   0  0  2  0  0  0  0  0  0  0  0  0
   27.4725  -23.9756  -15.9026 N   0  0  0  0  0  0  0  0  0  0  0  0
   25.3357  -23.2644  -15.1443 C   0  0  0  0  0  0  0  0  0  0  0  0
   25.2379  -24.0175  -14.1305 O   0  0  0  0  0  0  0  0  0  0  0  0
   24.6200  -22.0399  -15.1056 N   0  0  0  0  0  0  0  0  0  0  0  0
   23.9365  -21.5552  -13.9131 C   0  0  1  0  0  0  0  0  0  0  0  0
   24.5972  -20.2461  -13.5397 C   0  0  0  0  0  0  0  0  0  0  0  0
   25.9349  -20.4166  -12.9331 C   0  0  0  0  0  0  0  0  0  0  0  0
   26.0967  -20.8698  -11.6241 C   0  0  0  0  0  0  0  0  0  0  0  0
   27.3356  -21.0447  -11.0445 C   0  0  0  0  0  0  0  0  0  0  0  0
   28.4585  -20.7618  -11.7839 C   0  0  0  0  0  0  0  0  0  0  0  0
   28.3386  -20.3120  -13.0812 C   0  0  0  0  0  0  0  0  0  0  0  0
   27.0755  -20.1404  -13.6535 C   0  0  0  0  0  0  0  0  0  0  0  0
   22.5200  -21.3419  -14.2451 C   0  0  0  0  0  0  0  0  0  0  0  0
   22.1843  -20.9599  -15.3921 O   0  0  0  0  0  0  0  0  0  0  0  0
   21.5183  -21.5613  -13.2866 N   0  0  0  0  0  0  0  0  0  0  0  0
   20.1263  -21.3598  -13.6379 C   0  0  1  0  0  0  0  0  0  0  0  0
   19.4149  -22.6336  -13.2377 C   0  0  0  0  0  0  0  0  0  0  0  0
   17.9590  -22.5883  -13.3546 C   0  0  0  0  0  0  0  0  0  0  0  0
   17.3211  -21.9949  -14.2612 O   0  0  0  0  0  0  0  0  0  0  0  0
   19.6509  -20.1800  -12.8606 C   0  0  0  0  0  0  0  0  0  0  0  0
   18.8787  -19.3352  -13.4112 O   0  0  0  0  0  0  0  0  0  0  0  0
   17.2140  -23.2677  -12.3665 O   0  0  0  0  0  0  0  0  0  0  0  0
   19.9967  -19.9257  -11.5418 O   0  0  0  0  0  0  0  0  0  0  0  0
  2  1  1  0
  3  2  1  0
  3  4  1  6
  5  3  1  0
  5  6  1  1
  7  8  2  0
  7  5  1  0
  9  7  1  0
 10  9  1  0
 11 12  1  0
 10 11  1  6
 12 13  2  0
 13 14  1  0
 15 14  2  0
 16 15  1  0
 17 12  1  0
 17 16  2  0
 18 19  2  0
 18 10  1  0
 20 18  1  0
 21 20  1  0
 21 22  1  1
 23 22  1  0
 24 23  2  0
 25 21  1  0
 26 25  2  0
 27 23  1  0
 28 25  1  0
M  END
$$$$
