RDR.pdb
     RDKit          3D

 31 30  0  0  1  0  0  0  0  0999 V2000
   13.3904  -21.6794   -1.3622 N   0  0  0  0  0  0  0  0  0  0  0  0
   13.5229  -22.3242   -2.6405 C   0  0  0  0  0  0  0  0  0  0  0  0
   12.8271  -21.9071   -3.6350 N   0  0  0  0  0  0  0  0  0  0  0  0
   14.4240  -23.4070   -2.7663 N   0  0  0  0  0  0  0  0  0  0  0  0
   15.3354  -23.8071   -1.7451 C   0  0  0  0  0  0  0  0  0  0  0  0
   16.2178  -24.9600   -2.0689 C   0  0  0  0  0  0  0  0  0  0  0  0
   15.5923  -26.1067   -2.7718 C   0  0  0  0  0  0  0  0  0  0  0  0
   16.5091  -27.2821   -3.0253 C   0  0  2  0  0  0  0  0  0  0  0  0
   17.3437  -27.4874   -1.8573 N   0  0  0  0  0  0  0  0  0  0  0  0
   17.3927  -27.0449   -4.1838 C   0  0  0  0  0  0  0  0  0  0  0  0
   18.5992  -26.7849   -3.9955 O   0  0  0  0  0  0  0  0  0  0  0  0
   12.8789  -22.3704   -4.5557 N   0  0  0  0  0  0  0  0  0  0  0  0
   16.9478  -27.0935   -5.5551 C   0  0  2  0  0  0  0  0  0  0  0  0
   17.8738  -26.9926   -6.6504 C   0  0  0  0  0  0  0  0  0  0  0  0
   17.7997  -28.2156   -7.5600 C   0  0  0  0  0  0  0  0  0  0  0  0
   18.6689  -28.0978   -8.7299 O   0  0  0  0  0  0  0  0  0  0  0  0
   19.7890  -27.5322   -8.6881 C   0  0  0  0  0  0  0  0  0  0  0  0
   17.6958  -25.7469   -7.4485 O   0  0  0  0  0  0  0  0  0  0  0  0
   16.5194  -25.3195   -7.7159 O   0  0  0  0  0  0  0  0  0  0  0  0
   18.2584  -28.6243   -9.9400 N   0  0  0  0  0  0  0  0  0  0  0  0
   22.0759  -23.4644  -14.3980 C   0  0  0  0  0  0  0  0  0  0  0  0
   21.0631  -24.4668  -14.1689 N   0  0  0  0  0  0  0  0  0  0  0  0
   20.9521  -25.4660  -15.0029 N   0  0  0  0  0  0  0  0  0  0  0  0
   20.2482  -24.2893  -13.0348 C   0  0  0  0  0  0  0  0  0  0  0  0
   20.4977  -23.0854  -12.2056 C   0  0  0  0  0  0  0  0  0  0  0  0
   19.4974  -22.9893  -11.1300 C   0  0  0  0  0  0  0  0  0  0  0  0
   19.4358  -23.8911  -10.0024 C   0  0  1  0  0  0  0  0  0  0  0  0
   18.5727  -23.7934   -8.8347 N   0  0  0  0  0  0  0  0  0  0  0  0
   18.7716  -24.9798   -7.9437 C   0  0  0  0  0  0  0  0  0  0  0  0
   17.1636  -23.5342   -9.0103 O   0  0  0  0  0  0  0  0  0  0  0  0
   16.2551  -24.3631   -9.1449 O   0  0  0  0  0  0  0  0  0  0  0  0
  1  2  1  0
  2  3  2  0
  4  2  1  0
  5  4  1  0
  6  5  1  0
  7  6  1  0
  8  9  1  1
  8 10  1  0
  8  7  1  0
 10 11  2  0
 12 10  1  0
 12 13  1  0
 13 17  1  0
 13 14  1  6
 15 14  1  0
 16 15  2  0
 17 18  2  0
 19 15  1  0
 20 21  1  0
 21 22  2  0
 21 23  1  0
 23 24  1  0
 24 25  1  0
 25 26  1  0
 27 26  1  1
 27 29  1  0
 28 17  1  0
 28 27  1  0
 29 30  2  0
 29 31  1  0
M  END
$$$$
