RDR.pdb
     RDKit          3D

 31 30  0  0  1  0  0  0  0  0999 V2000
   30.7676  -25.3564  -16.1308 N   0  0  0  0  0  0  0  0  0  0  0  0
   30.6224  -25.6150  -17.5376 C   0  0  0  0  0  0  0  0  0  0  0  0
   31.0337  -26.7301  -18.0219 N   0  0  0  0  0  0  0  0  0  0  0  0
   30.0250  -24.6261  -18.3532 N   0  0  0  0  0  0  0  0  0  0  0  0
   29.2340  -23.5511  -17.8510 C   0  0  0  0  0  0  0  0  0  0  0  0
   29.8068  -22.7955  -16.7049 C   0  0  0  0  0  0  0  0  0  0  0  0
   28.9746  -22.7011  -15.4806 C   0  0  0  0  0  0  0  0  0  0  0  0
   27.8468  -21.6961  -15.5467 C   0  0  2  0  0  0  0  0  0  0  0  0
   28.3943  -20.3638  -15.3789 N   0  0  0  0  0  0  0  0  0  0  0  0
   26.8527  -21.9208  -14.4787 C   0  0  0  0  0  0  0  0  0  0  0  0
   26.1006  -22.9156  -14.5363 O   0  0  0  0  0  0  0  0  0  0  0  0
   30.9939  -26.9201  -19.0355 N   0  0  0  0  0  0  0  0  0  0  0  0
   26.6846  -21.0477  -13.3428 C   0  0  1  0  0  0  0  0  0  0  0  0
   25.6590  -21.2786  -12.3618 C   0  0  0  0  0  0  0  0  0  0  0  0
   26.0370  -20.6862  -11.0073 C   0  0  0  0  0  0  0  0  0  0  0  0
   25.0435  -20.9722   -9.9732 O   0  0  0  0  0  0  0  0  0  0  0  0
   25.2409  -21.8063   -9.0557 C   0  0  0  0  0  0  0  0  0  0  0  0
   24.3232  -20.7746  -12.7885 O   0  0  0  0  0  0  0  0  0  0  0  0
   24.2167  -19.6194  -13.3291 O   0  0  0  0  0  0  0  0  0  0  0  0
   23.8320  -20.3075   -9.9893 N   0  0  0  0  0  0  0  0  0  0  0  0
   19.5941  -25.2660  -17.0480 C   0  0  0  0  0  0  0  0  0  0  0  0
   18.5516  -24.2706  -17.1217 N   0  0  0  0  0  0  0  0  0  0  0  0
   17.3299  -24.6432  -17.3953 N   0  0  0  0  0  0  0  0  0  0  0  0
   18.9379  -22.9373  -16.8877 C   0  0  0  0  0  0  0  0  0  0  0  0
   20.3705  -22.6908  -16.5941 C   0  0  0  0  0  0  0  0  0  0  0  0
   20.5087  -21.8382  -15.4021 C   0  0  0  0  0  0  0  0  0  0  0  0
   21.5826  -21.9604  -14.4428 C   0  0  2  0  0  0  0  0  0  0  0  0
   21.8451  -21.1089  -13.2921 N   0  0  0  0  0  0  0  0  0  0  0  0
   23.1287  -21.5096  -12.6342 C   0  0  0  0  0  0  0  0  0  0  0  0
   20.8159  -20.9172  -12.2984 O   0  0  0  0  0  0  0  0  0  0  0  0
   20.6743  -21.5271  -11.2315 O   0  0  0  0  0  0  0  0  0  0  0  0
  1  2  1  0
  2  3  2  0
  4  2  1  0
  5  4  1  0
  6  5  1  0
  7  6  1  0
  8  9  1  1
  8 10  1  0
  8  7  1  0
 10 11  2  0
 12 10  1  0
 12 13  1  0
 13 17  1  0
 13 14  1  6
 15 14  1  0
 16 15  2  0
 17 18  2  0
 19 15  1  0
 20 21  1  0
 21 22  2  0
 21 23  1  0
 23 24  1  0
 24 25  1  0
 25 26  1  0
 27 26  1  6
 27 29  1  0
 28 17  1  0
 28 27  1  0
 29 30  2  0
 29 31  1  0
M  END
$$$$
