RDR.pdb
     RDKit          3D

 31 30  0  0  1  0  0  0  0  0999 V2000
   13.5330  -13.6317  -17.7821 N   0  0  0  0  0  0  0  0  0  0  0  0
   14.2451  -12.9832  -18.8496 C   0  0  0  0  0  0  0  0  0  0  0  0
   14.2614  -13.5182  -20.0161 N   0  0  0  0  0  0  0  0  0  0  0  0
   14.9110  -11.7646  -18.5817 N   0  0  0  0  0  0  0  0  0  0  0  0
   15.6280  -11.4970  -17.3784 C   0  0  0  0  0  0  0  0  0  0  0  0
   14.8078  -11.3430  -16.1471 C   0  0  0  0  0  0  0  0  0  0  0  0
   15.5357  -11.0461  -14.8891 C   0  0  0  0  0  0  0  0  0  0  0  0
   17.0306  -11.2659  -14.9450 C   0  0  2  0  0  0  0  0  0  0  0  0
   17.3041  -12.6803  -14.7792 N   0  0  0  0  0  0  0  0  0  0  0  0
   17.7300  -10.5349  -13.8699 C   0  0  0  0  0  0  0  0  0  0  0  0
   17.6346  -10.9337  -12.6906 O   0  0  0  0  0  0  0  0  0  0  0  0
   14.7673  -13.0767  -20.7998 N   0  0  0  0  0  0  0  0  0  0  0  0
   18.5373   -9.3604  -14.0922 C   0  0  2  0  0  0  0  0  0  0  0  0
   19.0805   -8.6027  -12.9975 C   0  0  0  0  0  0  0  0  0  0  0  0
   20.3245   -7.8254  -13.4181 C   0  0  0  0  0  0  0  0  0  0  0  0
   20.8296   -6.9578  -12.3551 O   0  0  0  0  0  0  0  0  0  0  0  0
   20.1400   -6.0427  -11.8418 C   0  0  0  0  0  0  0  0  0  0  0  0
   18.0852   -7.6833  -12.3773 O   0  0  0  0  0  0  0  0  0  0  0  0
   17.5881   -6.7217  -13.0602 O   0  0  0  0  0  0  0  0  0  0  0  0
   22.1159   -7.1367  -11.8824 N   0  0  0  0  0  0  0  0  0  0  0  0
   11.4682  -10.1602   -8.5926 C   0  0  0  0  0  0  0  0  0  0  0  0
   11.6965   -9.0570   -7.6905 N   0  0  0  0  0  0  0  0  0  0  0  0
   10.8705   -8.8612   -6.6978 N   0  0  0  0  0  0  0  0  0  0  0  0
   12.8212   -8.2523   -7.9537 C   0  0  0  0  0  0  0  0  0  0  0  0
   12.9973   -7.7721   -9.3456 C   0  0  0  0  0  0  0  0  0  0  0  0
   14.2495   -7.0081   -9.4683 C   0  0  0  0  0  0  0  0  0  0  0  0
   15.4939   -7.5692   -9.9427 C   0  0  2  0  0  0  0  0  0  0  0  0
   16.6615   -6.8510  -10.4314 N   0  0  0  0  0  0  0  0  0  0  0  0
   17.6371   -7.8063  -11.0451 C   0  0  0  0  0  0  0  0  0  0  0  0
   17.3493   -5.9311   -9.5572 O   0  0  0  0  0  0  0  0  0  0  0  0
   18.4767   -6.0588   -9.0643 O   0  0  0  0  0  0  0  0  0  0  0  0
  1  2  1  0
  2  3  2  0
  4  2  1  0
  5  4  1  0
  6  5  1  0
  7  6  1  0
  8  9  1  1
  8 10  1  0
  8  7  1  0
 10 11  2  0
 12 10  1  0
 12 13  1  0
 13 17  1  0
 13 14  1  6
 15 14  1  0
 16 15  2  0
 17 18  2  0
 19 15  1  0
 20 21  1  0
 21 22  2  0
 21 23  1  0
 23 24  1  0
 24 25  1  0
 25 26  1  0
 27 26  1  6
 27 29  1  0
 28 17  1  0
 28 27  1  0
 29 30  2  0
 29 31  1  0
M  END
$$$$
