RDR.pdb
     RDKit          3D

 31 30  0  0  1  0  0  0  0  0999 V2000
   25.4259  -31.2721   -9.3031 N   0  0  0  0  0  0  0  0  0  0  0  0
   25.4940  -32.3789  -10.2183 C   0  0  0  0  0  0  0  0  0  0  0  0
   26.6096  -32.6637  -10.7852 N   0  0  0  0  0  0  0  0  0  0  0  0
   24.3209  -33.1283  -10.4685 N   0  0  0  0  0  0  0  0  0  0  0  0
   22.9998  -32.6120  -10.3212 C   0  0  0  0  0  0  0  0  0  0  0  0
   22.7230  -31.3166  -10.9979 C   0  0  0  0  0  0  0  0  0  0  0  0
   22.0353  -30.2748  -10.1966 C   0  0  0  0  0  0  0  0  0  0  0  0
   20.6736  -29.8643  -10.7100 C   0  0  2  0  0  0  0  0  0  0  0  0
   20.6169  -30.1083  -12.1384 N   0  0  0  0  0  0  0  0  0  0  0  0
   20.4134  -28.4296  -10.4796 C   0  0  0  0  0  0  0  0  0  0  0  0
   20.3743  -27.9903   -9.3115 O   0  0  0  0  0  0  0  0  0  0  0  0
   26.6945  -33.4698  -11.4239 N   0  0  0  0  0  0  0  0  0  0  0  0
   20.1951  -27.4739  -11.5377 C   0  0  1  0  0  0  0  0  0  0  0  0
   19.8008  -26.1196  -11.2587 C   0  0  0  0  0  0  0  0  0  0  0  0
   19.3596  -25.3931  -12.5260 C   0  0  0  0  0  0  0  0  0  0  0  0
   18.9035  -24.0294  -12.2606 O   0  0  0  0  0  0  0  0  0  0  0  0
   17.7095  -23.7554  -11.9856 C   0  0  0  0  0  0  0  0  0  0  0  0
   18.7393  -26.0267  -10.2170 O   0  0  0  0  0  0  0  0  0  0  0  0
   17.6699  -26.7212  -10.3277 O   0  0  0  0  0  0  0  0  0  0  0  0
   19.8086  -22.9861  -12.3094 N   0  0  0  0  0  0  0  0  0  0  0  0
   18.7295  -27.3215   -1.8424 C   0  0  0  0  0  0  0  0  0  0  0  0
   17.3947  -26.7924   -1.9880 N   0  0  0  0  0  0  0  0  0  0  0  0
   16.5103  -27.0223   -1.0547 N   0  0  0  0  0  0  0  0  0  0  0  0
   17.1373  -26.0486   -3.1552 C   0  0  0  0  0  0  0  0  0  0  0  0
   18.1398  -26.1330   -4.2447 C   0  0  0  0  0  0  0  0  0  0  0  0
   17.6387  -25.4593   -5.4538 C   0  0  0  0  0  0  0  0  0  0  0  0
   18.3174  -25.4810   -6.7295 C   0  0  1  0  0  0  0  0  0  0  0  0
   17.7677  -25.1377   -8.0325 N   0  0  0  0  0  0  0  0  0  0  0  0
   18.8373  -25.1998   -9.0779 C   0  0  0  0  0  0  0  0  0  0  0  0
   16.9949  -23.9278   -8.1832 O   0  0  0  0  0  0  0  0  0  0  0  0
   15.8869  -23.6746   -7.6949 O   0  0  0  0  0  0  0  0  0  0  0  0
  1  2  1  0
  2  3  2  0
  4  2  1  0
  5  4  1  0
  6  5  1  0
  7  6  1  0
  8  9  1  6
  8 10  1  0
  8  7  1  0
 10 11  2  0
 12 10  1  0
 12 13  1  0
 13 17  1  0
 13 14  1  1
 15 14  1  0
 16 15  2  0
 17 18  2  0
 19 15  1  0
 20 21  1  0
 21 22  2  0
 21 23  1  0
 23 24  1  0
 24 25  1  0
 25 26  1  0
 27 26  1  6
 27 29  1  0
 28 17  1  0
 28 27  1  0
 29 30  2  0
 29 31  1  0
M  END
$$$$
