RDR.pdb
     RDKit          3D

 31 30  0  0  1  0  0  0  0  0999 V2000
   32.3619  -22.8594  -11.0121 N   0  0  0  0  0  0  0  0  0  0  0  0
   31.7199  -22.4081   -9.8074 C   0  0  0  0  0  0  0  0  0  0  0  0
   32.3902  -22.3566   -8.7141 N   0  0  0  0  0  0  0  0  0  0  0  0
   30.3582  -22.0300   -9.8625 N   0  0  0  0  0  0  0  0  0  0  0  0
   29.5871  -22.0039  -11.0618 C   0  0  0  0  0  0  0  0  0  0  0  0
   29.3830  -20.6670  -11.6810 C   0  0  0  0  0  0  0  0  0  0  0  0
   27.9833  -20.1922  -11.8059 C   0  0  0  0  0  0  0  0  0  0  0  0
   27.1524  -20.9091  -12.8461 C   0  0  2  0  0  0  0  0  0  0  0  0
   28.0403  -21.5399  -13.8035 N   0  0  0  0  0  0  0  0  0  0  0  0
   26.2747  -19.9766  -13.5806 C   0  0  0  0  0  0  0  0  0  0  0  0
   25.4037  -19.3323  -12.9602 O   0  0  0  0  0  0  0  0  0  0  0  0
   31.9346  -22.1232   -7.8180 N   0  0  0  0  0  0  0  0  0  0  0  0
   26.3547  -19.7520  -15.0032 C   0  0  1  0  0  0  0  0  0  0  0  0
   25.4702  -18.8360  -15.6711 C   0  0  0  0  0  0  0  0  0  0  0  0
   26.0363  -18.3926  -17.0170 C   0  0  0  0  0  0  0  0  0  0  0  0
   25.2405  -17.3353  -17.6391 O   0  0  0  0  0  0  0  0  0  0  0  0
   24.2227  -16.8427  -17.0935 C   0  0  0  0  0  0  0  0  0  0  0  0
   24.0944  -19.3810  -15.8465 O   0  0  0  0  0  0  0  0  0  0  0  0
   23.9113  -20.4560  -16.5166 O   0  0  0  0  0  0  0  0  0  0  0  0
   25.6078  -16.8450  -18.8780 N   0  0  0  0  0  0  0  0  0  0  0  0
   24.4916  -22.8393  -14.6651 C   0  0  0  0  0  0  0  0  0  0  0  0
   23.7298  -23.8948  -14.0415 N   0  0  0  0  0  0  0  0  0  0  0  0
   24.1995  -25.1135  -14.0505 N   0  0  0  0  0  0  0  0  0  0  0  0
   22.5052  -23.5237  -13.4547 C   0  0  0  0  0  0  0  0  0  0  0  0
   21.6538  -22.5743  -14.2117 C   0  0  0  0  0  0  0  0  0  0  0  0
   21.7803  -21.2178  -13.6542 C   0  0  0  0  0  0  0  0  0  0  0  0
   21.1753  -20.0443  -14.2418 C   0  0  2  0  0  0  0  0  0  0  0  0
   21.5729  -19.3580  -15.4620 N   0  0  0  0  0  0  0  0  0  0  0  0
   22.9420  -18.7737  -15.3042 C   0  0  0  0  0  0  0  0  0  0  0  0
   20.6838  -18.3881  -16.0557 O   0  0  0  0  0  0  0  0  0  0  0  0
   20.5998  -17.1820  -15.7937 O   0  0  0  0  0  0  0  0  0  0  0  0
  1  2  1  0
  2  3  2  0
  4  2  1  0
  5  4  1  0
  6  5  1  0
  7  6  1  0
  8  9  1  6
  8 10  1  0
  8  7  1  0
 10 11  2  0
 12 10  1  0
 12 13  1  0
 13 17  1  0
 13 14  1  1
 15 14  1  0
 16 15  2  0
 17 18  2  0
 19 15  1  0
 20 21  1  0
 21 22  2  0
 21 23  1  0
 23 24  1  0
 24 25  1  0
 25 26  1  0
 27 26  1  6
 27 29  1  0
 28 17  1  0
 28 27  1  0
 29 30  2  0
 29 31  1  0
M  END
$$$$
