NSP.pdb
     RDKit          3D

 22 22  0  0  1  0  0  0  0  0999 V2000
   12.4755  -15.9945   19.4753 N   0  0  0  0  0  0  0  0  0  0  0  0
   11.8115  -14.7595   19.4836 C   0  0  0  0  0  0  0  0  0  0  0  0
   12.3391  -13.8426   18.7619 O   0  0  0  0  0  0  0  0  0  0  0  0
   10.5837  -14.4470   20.2383 C   0  0  0  0  0  0  0  0  0  0  0  0
   10.0271  -15.5808   21.0033 C   0  0  2  0  0  0  0  0  0  0  0  0
    9.3071  -16.5193   20.1105 N   0  0  0  0  0  0  0  0  0  0  0  0
    9.0554  -15.1944   22.0810 C   0  0  0  0  0  0  0  0  0  0  0  0
    8.6906  -14.0007   22.1891 O   0  0  0  0  0  0  0  0  0  0  0  0
    5.8412  -16.8913   25.3980 O   0  0  0  0  0  0  0  0  0  0  0  0
    6.6937  -17.0438   24.3025 C   0  0  0  0  0  0  0  0  0  0  0  0
    7.6177  -15.8873   24.0825 C   0  0  2  0  0  0  0  0  0  0  0  0
    8.5319  -16.1399   22.9890 N   0  0  0  0  0  0  0  0  0  0  0  0
    8.3309  -15.5095   25.3433 C   0  0  0  0  0  0  0  0  0  0  0  0
    9.1007  -16.3837   25.7912 O   0  0  0  0  0  0  0  0  0  0  0  0
    8.1744  -14.2800   26.0005 N   0  0  0  0  0  0  0  0  0  0  0  0
    7.8028  -12.9822   25.3347 C   0  0  0  0  0  0  0  0  0  0  0  0
    6.6140  -12.6390   26.1795 C   0  0  0  0  0  0  0  0  0  0  0  0
    6.9478  -13.1882   27.5779 C   0  0  0  0  0  0  0  0  0  0  0  0
    8.3326  -13.8113   27.3367 C   0  0  1  0  0  0  0  0  0  0  0  0
    8.7408  -14.6802   28.4034 C   0  0  0  0  0  0  0  0  0  0  0  0
    8.4519  -15.8882   28.4722 O   0  0  0  0  0  0  0  0  0  0  0  0
    9.5282  -14.1534   29.4662 O   0  0  0  0  0  0  0  0  0  0  0  0
  1  2  1  0
  2  3  2  0
  4  5  1  0
  4  2  1  0
  5  6  1  6
  7  5  1  0
  8  7  2  0
 10  9  1  0
 11 10  1  1
 11 13  1  0
 11 12  1  0
 12  7  1  0
 13 15  1  0
 14 13  2  0
 15 19  1  0
 15 16  1  0
 16 17  1  0
 18 17  1  0
 19 18  1  0
 19 20  1  1
 20 22  1  0
 21 20  2  0
M  END
$$$$
