NSP.pdb
     RDKit          3D

 22 22  0  0  1  0  0  0  0  0999 V2000
    8.8276  -12.5252   17.5310 N   0  0  0  0  0  0  0  0  0  0  0  0
    8.1840  -13.6972   17.9534 C   0  0  0  0  0  0  0  0  0  0  0  0
    8.2797  -14.6979   17.1602 O   0  0  0  0  0  0  0  0  0  0  0  0
    7.4280  -13.8597   19.2092 C   0  0  0  0  0  0  0  0  0  0  0  0
    8.2466  -14.2550   20.3728 C   0  0  2  0  0  0  0  0  0  0  0  0
    8.8059  -15.6151   20.1891 N   0  0  0  0  0  0  0  0  0  0  0  0
    7.5100  -14.2748   21.6811 C   0  0  0  0  0  0  0  0  0  0  0  0
    6.9125  -13.2456   22.0728 O   0  0  0  0  0  0  0  0  0  0  0  0
    5.7849  -17.0092   25.3740 O   0  0  0  0  0  0  0  0  0  0  0  0
    6.3414  -16.8689   24.1009 C   0  0  0  0  0  0  0  0  0  0  0  0
    6.9437  -15.5234   23.8430 C   0  0  2  0  0  0  0  0  0  0  0  0
    7.4665  -15.4261   22.4967 N   0  0  0  0  0  0  0  0  0  0  0  0
    7.9689  -15.1758   24.8769 C   0  0  0  0  0  0  0  0  0  0  0  0
    8.9390  -15.9586   24.9359 O   0  0  0  0  0  0  0  0  0  0  0  0
    7.8833  -14.0664   25.7314 N   0  0  0  0  0  0  0  0  0  0  0  0
    7.2015  -12.7664   25.3986 C   0  0  0  0  0  0  0  0  0  0  0  0
    6.2807  -12.6976   26.5785 C   0  0  0  0  0  0  0  0  0  0  0  0
    7.0618  -13.3528   27.7314 C   0  0  0  0  0  0  0  0  0  0  0  0
    8.3735  -13.7389   27.0285 C   0  0  1  0  0  0  0  0  0  0  0  0
    9.1621  -14.6590   27.7973 C   0  0  0  0  0  0  0  0  0  0  0  0
    8.9991  -15.8923   27.7961 O   0  0  0  0  0  0  0  0  0  0  0  0
   10.2060  -14.1567   28.6250 O   0  0  0  0  0  0  0  0  0  0  0  0
  1  2  1  0
  2  3  2  0
  4  5  1  0
  4  2  1  0
  5  6  1  6
  7  5  1  0
  8  7  2  0
 10  9  1  0
 11 10  1  1
 11 13  1  0
 11 12  1  0
 12  7  1  0
 13 15  1  0
 14 13  2  0
 15 19  1  0
 15 16  1  0
 16 17  1  0
 18 17  1  0
 19 18  1  0
 19 20  1  1
 20 22  1  0
 21 20  2  0
M  END
$$$$
