NSP.pdb
     RDKit          3D

 22 22  0  0  1  0  0  0  0  0999 V2000
    8.0713  -13.3277   16.9094 N   0  0  0  0  0  0  0  0  0  0  0  0
    8.5869  -13.8791   18.0910 C   0  0  0  0  0  0  0  0  0  0  0  0
    9.5785  -14.6759   17.9433 O   0  0  0  0  0  0  0  0  0  0  0  0
    8.0880  -13.6157   19.4535 C   0  0  0  0  0  0  0  0  0  0  0  0
    8.3383  -14.7030   20.4207 C   0  0  2  0  0  0  0  0  0  0  0  0
    7.9657  -16.0178   19.8473 N   0  0  0  0  0  0  0  0  0  0  0  0
    7.5858  -14.5784   21.7142 C   0  0  0  0  0  0  0  0  0  0  0  0
    6.8324  -13.5951   21.9019 O   0  0  0  0  0  0  0  0  0  0  0  0
    7.3198  -17.7948   24.7849 O   0  0  0  0  0  0  0  0  0  0  0  0
    6.4344  -16.7829   24.4078 C   0  0  0  0  0  0  0  0  0  0  0  0
    7.0998  -15.4892   24.0568 C   0  0  2  0  0  0  0  0  0  0  0  0
    7.6988  -15.5415   22.7401 N   0  0  0  0  0  0  0  0  0  0  0  0
    8.0792  -15.0744   25.1102 C   0  0  0  0  0  0  0  0  0  0  0  0
    9.0326  -15.8621   25.2777 O   0  0  0  0  0  0  0  0  0  0  0  0
    7.9703  -13.9006   25.8708 N   0  0  0  0  0  0  0  0  0  0  0  0
    7.3212  -12.6242   25.4071 C   0  0  0  0  0  0  0  0  0  0  0  0
    6.3497  -12.4541   26.5349 C   0  0  0  0  0  0  0  0  0  0  0  0
    7.0700  -13.0243   27.7697 C   0  0  0  0  0  0  0  0  0  0  0  0
    8.4065  -13.4771   27.1594 C   0  0  1  0  0  0  0  0  0  0  0  0
    9.1478  -14.3416   28.0327 C   0  0  0  0  0  0  0  0  0  0  0  0
   10.1917  -14.0121   28.6236 O   0  0  0  0  0  0  0  0  0  0  0  0
    8.6827  -15.6685   28.2562 O   0  0  0  0  0  0  0  0  0  0  0  0
  1  2  1  0
  2  3  2  0
  4  5  1  0
  4  2  1  0
  5  6  1  6
  7  5  1  0
  8  7  2  0
 10  9  1  0
 11 10  1  1
 11 13  1  0
 11 12  1  0
 12  7  1  0
 13 15  1  0
 14 13  2  0
 15 19  1  0
 15 16  1  0
 16 17  1  0
 18 17  1  0
 19 18  1  0
 19 20  1  1
 20 22  1  0
 21 20  2  0
M  END
$$$$
