NSP.pdb
     RDKit          3D

 22 22  0  0  1  0  0  0  0  0999 V2000
    9.2809  -12.5672   17.9552 N   0  0  0  0  0  0  0  0  0  0  0  0
    8.3471  -13.6130   17.9767 C   0  0  0  0  0  0  0  0  0  0  0  0
    8.2692  -14.3077   16.9037 O   0  0  0  0  0  0  0  0  0  0  0  0
    7.4740  -13.9647   19.1120 C   0  0  0  0  0  0  0  0  0  0  0  0
    8.1412  -14.7241   20.1884 C   0  0  2  0  0  0  0  0  0  0  0  0
    8.4882  -16.0917   19.7347 N   0  0  0  0  0  0  0  0  0  0  0  0
    7.3263  -14.8885   21.4389 C   0  0  0  0  0  0  0  0  0  0  0  0
    6.1039  -14.6144   21.4238 O   0  0  0  0  0  0  0  0  0  0  0  0
    7.6771  -17.6727   24.4070 O   0  0  0  0  0  0  0  0  0  0  0  0
    6.7272  -16.6516   24.3355 C   0  0  0  0  0  0  0  0  0  0  0  0
    7.2925  -15.3171   23.9625 C   0  0  2  0  0  0  0  0  0  0  0  0
    7.8956  -15.3460   22.6469 N   0  0  0  0  0  0  0  0  0  0  0  0
    8.2360  -14.8110   25.0087 C   0  0  0  0  0  0  0  0  0  0  0  0
    9.2979  -15.4583   25.1131 O   0  0  0  0  0  0  0  0  0  0  0  0
    7.9842  -13.7000   25.8275 N   0  0  0  0  0  0  0  0  0  0  0  0
    7.2237  -12.4700   25.4101 C   0  0  0  0  0  0  0  0  0  0  0  0
    6.2047  -12.4634   26.5083 C   0  0  0  0  0  0  0  0  0  0  0  0
    6.9396  -13.0296   27.7364 C   0  0  0  0  0  0  0  0  0  0  0  0
    8.3339  -13.3106   27.1527 C   0  0  1  0  0  0  0  0  0  0  0  0
    9.1312  -14.1460   28.0047 C   0  0  0  0  0  0  0  0  0  0  0  0
   10.0156  -13.7237   28.7710 O   0  0  0  0  0  0  0  0  0  0  0  0
    8.9190  -15.5538   27.9935 O   0  0  0  0  0  0  0  0  0  0  0  0
  1  2  1  0
  2  3  2  0
  4  5  1  0
  4  2  1  0
  5  6  1  6
  7  5  1  0
  8  7  2  0
 10  9  1  0
 11 10  1  1
 11 13  1  0
 11 12  1  0
 12  7  1  0
 13 15  1  0
 14 13  2  0
 15 19  1  0
 15 16  1  0
 16 17  1  0
 18 17  1  0
 19 18  1  0
 19 20  1  1
 20 22  1  0
 21 20  2  0
M  END
$$$$
