NSP.pdb
     RDKit          3D

 22 22  0  0  1  0  0  0  0  0999 V2000
    8.5855  -12.3829   17.5894 N   0  0  0  0  0  0  0  0  0  0  0  0
    8.0925  -13.5755   18.1378 C   0  0  0  0  0  0  0  0  0  0  0  0
    8.1845  -14.6093   17.3876 O   0  0  0  0  0  0  0  0  0  0  0  0
    7.4947  -13.7247   19.4777 C   0  0  0  0  0  0  0  0  0  0  0  0
    8.3532  -14.4160   20.4602 C   0  0  2  0  0  0  0  0  0  0  0  0
    8.5263  -15.8433   20.1005 N   0  0  0  0  0  0  0  0  0  0  0  0
    7.8360  -14.3960   21.8698 C   0  0  0  0  0  0  0  0  0  0  0  0
    7.6402  -13.2997   22.4437 O   0  0  0  0  0  0  0  0  0  0  0  0
    6.0551  -17.2348   25.5177 O   0  0  0  0  0  0  0  0  0  0  0  0
    6.5718  -17.0756   24.2302 C   0  0  0  0  0  0  0  0  0  0  0  0
    7.0682  -15.6943   23.9382 C   0  0  2  0  0  0  0  0  0  0  0  0
    7.5596  -15.5835   22.5812 N   0  0  0  0  0  0  0  0  0  0  0  0
    8.0821  -15.2528   24.9472 C   0  0  0  0  0  0  0  0  0  0  0  0
    9.0220  -16.0533   25.1294 O   0  0  0  0  0  0  0  0  0  0  0  0
    8.0174  -14.0423   25.6535 N   0  0  0  0  0  0  0  0  0  0  0  0
    7.4775  -12.7478   25.1074 C   0  0  0  0  0  0  0  0  0  0  0  0
    6.4688  -12.4658   26.1787 C   0  0  0  0  0  0  0  0  0  0  0  0
    7.0916  -13.0273   27.4692 C   0  0  0  0  0  0  0  0  0  0  0  0
    8.4213  -13.5924   26.9436 C   0  0  1  0  0  0  0  0  0  0  0  0
    9.0620  -14.4644   27.8862 C   0  0  0  0  0  0  0  0  0  0  0  0
   10.0968  -14.1778   28.5145 O   0  0  0  0  0  0  0  0  0  0  0  0
    8.4998  -15.7478   28.1393 O   0  0  0  0  0  0  0  0  0  0  0  0
  1  2  1  0
  2  3  2  0
  4  5  1  0
  4  2  1  0
  5  6  1  6
  7  5  1  0
  8  7  2  0
 10  9  1  0
 11 10  1  1
 11 13  1  0
 11 12  1  0
 12  7  1  0
 13 15  1  0
 14 13  2  0
 15 19  1  0
 15 16  1  0
 16 17  1  0
 18 17  1  0
 19 18  1  0
 19 20  1  1
 20 22  1  0
 21 20  2  0
M  END
$$$$
