NSP.pdb
     RDKit          3D

 22 22  0  0  1  0  0  0  0  0999 V2000
    8.8685  -13.2029   16.2570 N   0  0  0  0  0  0  0  0  0  0  0  0
    8.3479  -13.9971   17.2886 C   0  0  0  0  0  0  0  0  0  0  0  0
    8.3623  -15.2599   17.0760 O   0  0  0  0  0  0  0  0  0  0  0  0
    7.8023  -13.5010   18.5657 C   0  0  0  0  0  0  0  0  0  0  0  0
    8.5850  -13.8829   19.7582 C   0  0  2  0  0  0  0  0  0  0  0  0
    9.0121  -15.2998   19.6798 N   0  0  0  0  0  0  0  0  0  0  0  0
    7.8556  -13.7337   21.0623 C   0  0  0  0  0  0  0  0  0  0  0  0
    7.3571  -12.6267   21.3717 O   0  0  0  0  0  0  0  0  0  0  0  0
    6.8301  -17.2103   23.3372 O   0  0  0  0  0  0  0  0  0  0  0  0
    6.1508  -15.9925   23.4103 C   0  0  0  0  0  0  0  0  0  0  0  0
    7.0290  -14.7926   23.2415 C   0  0  2  0  0  0  0  0  0  0  0  0
    7.7100  -14.8097   21.9643 N   0  0  0  0  0  0  0  0  0  0  0  0
    7.9784  -14.6438   24.3893 C   0  0  0  0  0  0  0  0  0  0  0  0
    8.8890  -15.4962   24.4292 O   0  0  0  0  0  0  0  0  0  0  0  0
    7.8867  -13.6391   25.3642 N   0  0  0  0  0  0  0  0  0  0  0  0
    7.3865  -12.2401   25.1230 C   0  0  0  0  0  0  0  0  0  0  0  0
    6.3256  -12.2051   26.1802 C   0  0  0  0  0  0  0  0  0  0  0  0
    6.8755  -13.0749   27.3247 C   0  0  0  0  0  0  0  0  0  0  0  0
    8.2263  -13.5231   26.7431 C   0  0  1  0  0  0  0  0  0  0  0  0
    8.8098  -14.6103   27.4759 C   0  0  0  0  0  0  0  0  0  0  0  0
    9.8184  -14.5076   28.1968 O   0  0  0  0  0  0  0  0  0  0  0  0
    8.2176  -15.9023   27.3917 O   0  0  0  0  0  0  0  0  0  0  0  0
  1  2  1  0
  2  3  2  0
  4  5  1  0
  4  2  1  0
  5  6  1  6
  7  5  1  0
  8  7  2  0
 10  9  1  0
 11 10  1  1
 11 13  1  0
 11 12  1  0
 12  7  1  0
 13 15  1  0
 14 13  2  0
 15 19  1  0
 15 16  1  0
 16 17  1  0
 18 17  1  0
 19 18  1  0
 19 20  1  1
 20 22  1  0
 21 20  2  0
M  END
$$$$
