NSP.pdb
     RDKit          3D

 22 22  0  0  1  0  0  0  0  0999 V2000
   10.0433  -18.0818   18.2804 N   0  0  0  0  0  0  0  0  0  0  0  0
    8.7658  -17.5164   18.1596 C   0  0  0  0  0  0  0  0  0  0  0  0
    8.3938  -17.2393   16.9659 O   0  0  0  0  0  0  0  0  0  0  0  0
    7.8433  -17.2273   19.2732 C   0  0  0  0  0  0  0  0  0  0  0  0
    8.3233  -16.1988   20.2178 C   0  0  2  0  0  0  0  0  0  0  0  0
    9.6308  -16.5835   20.7998 N   0  0  0  0  0  0  0  0  0  0  0  0
    7.4067  -15.9346   21.3775 C   0  0  0  0  0  0  0  0  0  0  0  0
    6.1725  -16.1043   21.2444 O   0  0  0  0  0  0  0  0  0  0  0  0
    6.1657  -17.0914   25.4688 O   0  0  0  0  0  0  0  0  0  0  0  0
    6.7177  -16.9405   24.1950 C   0  0  0  0  0  0  0  0  0  0  0  0
    7.2055  -15.5565   23.9013 C   0  0  2  0  0  0  0  0  0  0  0  0
    7.8917  -15.4954   22.6283 N   0  0  0  0  0  0  0  0  0  0  0  0
    8.0405  -15.0214   25.0227 C   0  0  0  0  0  0  0  0  0  0  0  0
    8.9465  -15.7864   25.4118 O   0  0  0  0  0  0  0  0  0  0  0  0
    7.8522  -13.7644   25.6167 N   0  0  0  0  0  0  0  0  0  0  0  0
    7.2243  -12.5732   24.9442 C   0  0  0  0  0  0  0  0  0  0  0  0
    6.1613  -12.2872   25.9605 C   0  0  0  0  0  0  0  0  0  0  0  0
    6.7864  -12.6794   27.3111 C   0  0  0  0  0  0  0  0  0  0  0  0
    8.1750  -13.1716   26.8714 C   0  0  1  0  0  0  0  0  0  0  0  0
    8.8551  -13.9005   27.9036 C   0  0  0  0  0  0  0  0  0  0  0  0
    9.5918  -13.3795   28.7600 O   0  0  0  0  0  0  0  0  0  0  0  0
    8.6957  -15.3134   27.9771 O   0  0  0  0  0  0  0  0  0  0  0  0
  1  2  1  0
  2  3  2  0
  4  5  1  0
  4  2  1  0
  5  6  1  1
  7  5  1  0
  8  7  2  0
 10  9  1  0
 11 10  1  1
 11 13  1  0
 11 12  1  0
 12  7  1  0
 13 15  1  0
 14 13  2  0
 15 19  1  0
 15 16  1  0
 16 17  1  0
 18 17  1  0
 19 18  1  0
 19 20  1  1
 20 22  1  0
 21 20  2  0
M  END
$$$$
