PVH.pdb
     RDKit          3D

 25 26  0  0  1  0  0  0  0  0999 V2000
   24.2933  -13.8237  -18.7717 N   0  0  0  0  0  0  0  0  0  0  0  0
   24.9413  -14.7114  -19.7413 C   0  0  0  0  0  0  0  0  0  0  0  0
   23.8190  -15.2847  -20.5723 C   0  0  0  0  0  0  0  0  0  0  0  0
   22.6222  -14.4127  -20.2383 C   0  0  0  0  0  0  0  0  0  0  0  0
   23.2461  -13.2353  -19.5546 C   0  0  1  0  0  0  0  0  0  0  0  0
   22.2971  -12.4401  -18.7690 C   0  0  0  0  0  0  0  0  0  0  0  0
   21.4318  -11.7708  -19.3925 O   0  0  0  0  0  0  0  0  0  0  0  0
   19.5664  -11.6090  -14.8378 C   0  0  0  0  0  0  0  0  0  0  0  0
   20.5751  -12.4095  -15.5892 C   0  0  2  0  0  0  0  0  0  0  0  0
   21.5913  -13.0930  -14.6734 C   0  0  0  0  0  0  0  0  0  0  0  0
   21.3567  -11.5685  -16.6000 C   0  0  2  0  0  0  0  0  0  0  0  0
   22.2834  -12.3698  -17.3485 N   0  0  0  0  0  0  0  0  0  0  0  0
   21.9748  -10.3932  -15.9701 C   0  0  0  0  0  0  0  0  0  0  0  0
   23.2059  -10.2789  -15.7388 O   0  0  0  0  0  0  0  0  0  0  0  0
   21.1549   -9.2980  -15.5861 N   0  0  0  0  0  0  0  0  0  0  0  0
   21.7267   -8.0032  -15.1713 C   0  0  1  0  0  0  0  0  0  0  0  0
   22.4874   -7.5354  -16.3887 C   0  0  0  0  0  0  0  0  0  0  0  0
   23.0932   -6.2194  -16.3014 C   0  0  0  0  0  0  0  0  0  0  0  0
   23.0875   -5.4532  -15.1490 C   0  0  0  0  0  0  0  0  0  0  0  0
   23.7223   -4.2990  -15.3913 N   0  0  0  0  0  0  0  0  0  0  0  0
   24.1167   -4.3485  -16.6767 C   0  0  0  0  0  0  0  0  0  0  0  0
   23.7357   -5.5113  -17.2277 N   0  0  0  0  0  0  0  0  0  0  0  0
   20.6608   -7.0803  -14.7828 C   0  0  0  0  0  0  0  0  0  0  0  0
   20.8965   -6.1202  -13.8119 O   0  0  0  0  0  0  0  0  0  0  0  0
   19.5369   -7.1280  -15.2999 O   0  0  0  0  0  0  0  0  0  0  0  0
  1  2  1  0
  3  2  1  0
  4  3  1  0
  4  5  1  0
  5  1  1  0
  5  6  1  1
  6  7  2  0
  9  8  1  1
  9 10  1  0
 11 13  1  0
 11  9  1  0
 12  6  1  0
 11 12  1  1
 13 14  2  0
 15 16  1  0
 15 13  1  0
 16 23  1  0
 17 18  1  0
 16 17  1  6
 18 22  1  0
 19 20  1  0
 19 18  2  0
 20 21  1  0
 21 22  2  0
 23 24  1  0
 25 23  2  0
M  END
$$$$
