PVH.pdb
     RDKit          3D

 25 26  0  0  1  0  0  0  0  0999 V2000
   20.1394  -12.2229  -19.0038 N   0  0  0  0  0  0  0  0  0  0  0  0
   19.3952  -13.1426  -19.8688 C   0  0  0  0  0  0  0  0  0  0  0  0
   18.4695  -13.8992  -18.9472 C   0  0  0  0  0  0  0  0  0  0  0  0
   18.5054  -13.1110  -17.6504 C   0  0  0  0  0  0  0  0  0  0  0  0
   19.1371  -11.8170  -18.0623 C   0  0  1  0  0  0  0  0  0  0  0  0
   19.6639  -11.0355  -16.9390 C   0  0  0  0  0  0  0  0  0  0  0  0
   18.8379  -10.5331  -16.1323 O   0  0  0  0  0  0  0  0  0  0  0  0
   23.2805  -10.0180  -13.7529 C   0  0  0  0  0  0  0  0  0  0  0  0
   22.7926  -10.7194  -14.9747 C   0  0  2  0  0  0  0  0  0  0  0  0
   23.8456  -10.7839  -16.0818 C   0  0  0  0  0  0  0  0  0  0  0  0
   21.5411  -10.0674  -15.5650 C   0  0  2  0  0  0  0  0  0  0  0  0
   21.0456  -10.8030  -16.6940 N   0  0  0  0  0  0  0  0  0  0  0  0
   21.7490   -8.6392  -15.8425 C   0  0  0  0  0  0  0  0  0  0  0  0
   22.2241   -8.1880  -16.9162 O   0  0  0  0  0  0  0  0  0  0  0  0
   21.4001   -7.6805  -14.8533 N   0  0  0  0  0  0  0  0  0  0  0  0
   21.5119   -6.2303  -15.0986 C   0  0  1  0  0  0  0  0  0  0  0  0
   20.0809   -5.7792  -15.2673 C   0  0  0  0  0  0  0  0  0  0  0  0
   19.4526   -6.0962  -16.5366 C   0  0  0  0  0  0  0  0  0  0  0  0
   20.0258   -5.8089  -17.7630 C   0  0  0  0  0  0  0  0  0  0  0  0
   19.2029   -6.2233  -18.7351 N   0  0  0  0  0  0  0  0  0  0  0  0
   18.1336   -6.7606  -18.1202 C   0  0  0  0  0  0  0  0  0  0  0  0
   18.2849   -6.6836  -16.7889 N   0  0  0  0  0  0  0  0  0  0  0  0
   22.1808   -5.5768  -13.9743 C   0  0  0  0  0  0  0  0  0  0  0  0
   22.5510   -4.2449  -14.0685 O   0  0  0  0  0  0  0  0  0  0  0  0
   22.4319   -6.1825  -12.9240 O   0  0  0  0  0  0  0  0  0  0  0  0
  1  2  1  0
  3  2  1  0
  4  3  1  0
  4  5  1  0
  5  1  1  0
  5  6  1  1
  6  7  2  0
  9  8  1  1
  9 10  1  0
 11 13  1  0
 11  9  1  0
 12  6  1  0
 11 12  1  6
 13 14  2  0
 15 16  1  0
 15 13  1  0
 16 23  1  0
 17 18  1  0
 16 17  1  1
 18 22  1  0
 19 20  1  0
 19 18  2  0
 20 21  1  0
 21 22  2  0
 23 24  1  0
 25 23  2  0
M  END
$$$$
