PVH.pdb
     RDKit          3D

 25 26  0  0  1  0  0  0  0  0999 V2000
   28.2450  -21.2073  -16.0071 N   0  0  0  0  0  0  0  0  0  0  0  0
   29.0485  -20.3841  -16.9153 C   0  0  0  0  0  0  0  0  0  0  0  0
   28.5263  -18.9776  -16.7495 C   0  0  0  0  0  0  0  0  0  0  0  0
   27.6790  -19.0384  -15.4914 C   0  0  0  0  0  0  0  0  0  0  0  0
   28.0870  -20.3412  -14.8755 C   0  0  1  0  0  0  0  0  0  0  0  0
   27.1382  -20.8424  -13.8762 C   0  0  0  0  0  0  0  0  0  0  0  0
   27.4609  -21.8672  -13.2195 O   0  0  0  0  0  0  0  0  0  0  0  0
   27.0321  -21.3574  -11.0968 C   0  0  0  0  0  0  0  0  0  0  0  0
   25.8313  -20.4754  -11.1520 C   0  0  2  0  0  0  0  0  0  0  0  0
   24.8476  -20.7409  -10.0116 C   0  0  0  0  0  0  0  0  0  0  0  0
   25.0620  -20.6132  -12.4670 C   0  0  2  0  0  0  0  0  0  0  0  0
   25.8750  -20.2527  -13.5941 N   0  0  0  0  0  0  0  0  0  0  0  0
   23.7750  -19.9050  -12.4232 C   0  0  0  0  0  0  0  0  0  0  0  0
   23.6564  -18.6540  -12.3672 O   0  0  0  0  0  0  0  0  0  0  0  0
   22.5677  -20.6542  -12.4443 N   0  0  0  0  0  0  0  0  0  0  0  0
   21.4307  -20.2774  -13.3050 C   0  0  1  0  0  0  0  0  0  0  0  0
   21.9712  -20.4271  -14.7069 C   0  0  0  0  0  0  0  0  0  0  0  0
   21.0408  -20.1540  -15.7868 C   0  0  0  0  0  0  0  0  0  0  0  0
   19.7297  -19.7616  -15.5816 C   0  0  0  0  0  0  0  0  0  0  0  0
   19.1364  -19.5897  -16.7701 N   0  0  0  0  0  0  0  0  0  0  0  0
   20.0669  -19.8717  -17.7000 C   0  0  0  0  0  0  0  0  0  0  0  0
   21.2200  -20.2133  -17.1046 N   0  0  0  0  0  0  0  0  0  0  0  0
   20.2873  -21.1513  -13.0447 C   0  0  0  0  0  0  0  0  0  0  0  0
   18.9979  -20.6726  -13.2125 O   0  0  0  0  0  0  0  0  0  0  0  0
   20.4341  -22.3233  -12.6734 O   0  0  0  0  0  0  0  0  0  0  0  0
  1  2  1  0
  3  2  1  0
  4  3  1  0
  4  5  1  0
  5  1  1  0
  5  6  1  1
  6  7  2  0
  9  8  1  6
  9 10  1  0
 11 13  1  0
 11  9  1  0
 12  6  1  0
 11 12  1  6
 13 14  2  0
 15 16  1  0
 15 13  1  0
 16 23  1  0
 17 18  1  0
 16 17  1  6
 18 22  1  0
 19 20  1  0
 19 18  2  0
 20 21  1  0
 21 22  2  0
 23 24  1  0
 25 23  2  0
M  END
$$$$
