PVH.pdb
     RDKit          3D

 25 26  0  0  1  0  0  0  0  0999 V2000
   30.4390  -20.4824  -10.6005 N   0  0  0  0  0  0  0  0  0  0  0  0
   31.8696  -20.7945  -10.6633 C   0  0  0  0  0  0  0  0  0  0  0  0
   31.9924  -22.2142  -10.1654 C   0  0  0  0  0  0  0  0  0  0  0  0
   30.5680  -22.7389  -10.1743 C   0  0  0  0  0  0  0  0  0  0  0  0
   29.8419  -21.7229  -11.0010 C   0  0  1  0  0  0  0  0  0  0  0  0
   28.3857  -21.7589  -10.8326 C   0  0  0  0  0  0  0  0  0  0  0  0
   27.7712  -22.7810  -11.2365 O   0  0  0  0  0  0  0  0  0  0  0  0
   25.8714  -18.7541   -8.6321 C   0  0  0  0  0  0  0  0  0  0  0  0
   25.7465  -20.2365   -8.7295 C   0  0  2  0  0  0  0  0  0  0  0  0
   26.5546  -20.9713   -7.6591 C   0  0  0  0  0  0  0  0  0  0  0  0
   26.1879  -20.7743  -10.0918 C   0  0  2  0  0  0  0  0  0  0  0  0
   27.6144  -20.7190  -10.2438 N   0  0  0  0  0  0  0  0  0  0  0  0
   25.4564  -20.1343  -11.1942 C   0  0  0  0  0  0  0  0  0  0  0  0
   25.8432  -19.0984  -11.7937 O   0  0  0  0  0  0  0  0  0  0  0  0
   24.2291  -20.6989  -11.6349 N   0  0  0  0  0  0  0  0  0  0  0  0
   23.3780  -20.0302  -12.6369 C   0  0  1  0  0  0  0  0  0  0  0  0
   24.2481  -19.9688  -13.8694 C   0  0  0  0  0  0  0  0  0  0  0  0
   24.8186  -21.2262  -14.3164 C   0  0  0  0  0  0  0  0  0  0  0  0
   24.6254  -22.4275  -13.6570 C   0  0  0  0  0  0  0  0  0  0  0  0
   25.2780  -23.3943  -14.3151 N   0  0  0  0  0  0  0  0  0  0  0  0
   25.8682  -22.8010  -15.3686 C   0  0  0  0  0  0  0  0  0  0  0  0
   25.5900  -21.4882  -15.3694 N   0  0  0  0  0  0  0  0  0  0  0  0
   22.1504  -20.7957  -12.8503 C   0  0  0  0  0  0  0  0  0  0  0  0
   21.2102  -20.3545  -13.7676 O   0  0  0  0  0  0  0  0  0  0  0  0
   21.9183  -21.8414  -12.2295 O   0  0  0  0  0  0  0  0  0  0  0  0
  1  2  1  0
  3  2  1  0
  4  3  1  0
  4  5  1  0
  5  1  1  0
  5  6  1  1
  6  7  2  0
  9  8  1  6
  9 10  1  0
 11 13  1  0
 11  9  1  0
 12  6  1  0
 11 12  1  6
 13 14  2  0
 15 16  1  0
 15 13  1  0
 16 23  1  0
 17 18  1  0
 16 17  1  6
 18 22  1  0
 19 20  1  0
 19 18  2  0
 20 21  1  0
 21 22  2  0
 23 24  1  0
 25 23  2  0
M  END
$$$$
