PVH.pdb
     RDKit          3D

 25 26  0  0  1  0  0  0  0  0999 V2000
   19.4917  -12.0153  -17.9775 N   0  0  0  0  0  0  0  0  0  0  0  0
   18.6293  -13.0659  -18.5257 C   0  0  0  0  0  0  0  0  0  0  0  0
   18.4640  -14.0708  -17.4115 C   0  0  0  0  0  0  0  0  0  0  0  0
   18.9704  -13.3477  -16.1766 C   0  0  0  0  0  0  0  0  0  0  0  0
   19.0273  -11.9197  -16.6244 C   0  0  1  0  0  0  0  0  0  0  0  0
   19.8633  -11.0685  -15.7719 C   0  0  0  0  0  0  0  0  0  0  0  0
   19.4547  -10.8190  -14.6072 O   0  0  0  0  0  0  0  0  0  0  0  0
   23.9997   -9.9557  -16.6797 C   0  0  0  0  0  0  0  0  0  0  0  0
   23.3778  -10.1006  -15.3324 C   0  0  2  0  0  0  0  0  0  0  0  0
   23.4468  -11.5319  -14.7984 C   0  0  0  0  0  0  0  0  0  0  0  0
   21.9097   -9.6714  -15.3146 C   0  0  2  0  0  0  0  0  0  0  0  0
   21.1067  -10.5021  -16.1669 N   0  0  0  0  0  0  0  0  0  0  0  0
   21.7577   -8.2349  -15.5857 C   0  0  0  0  0  0  0  0  0  0  0  0
   21.4290   -7.7554  -16.7011 O   0  0  0  0  0  0  0  0  0  0  0  0
   21.9902   -7.3013  -14.5398 N   0  0  0  0  0  0  0  0  0  0  0  0
   21.7825   -5.8530  -14.7264 C   0  0  1  0  0  0  0  0  0  0  0  0
   20.3151   -5.7370  -15.0626 C   0  0  0  0  0  0  0  0  0  0  0  0
   19.7825   -4.3903  -15.1589 C   0  0  0  0  0  0  0  0  0  0  0  0
   20.3595   -3.3963  -15.9296 C   0  0  0  0  0  0  0  0  0  0  0  0
   19.6358   -2.2760  -15.8070 N   0  0  0  0  0  0  0  0  0  0  0  0
   18.6234   -2.5709  -14.9714 C   0  0  0  0  0  0  0  0  0  0  0  0
   18.7123   -3.8512  -14.5790 N   0  0  0  0  0  0  0  0  0  0  0  0
   22.1411   -5.1290  -13.5075 C   0  0  0  0  0  0  0  0  0  0  0  0
   22.3803   -3.7651  -13.5576 O   0  0  0  0  0  0  0  0  0  0  0  0
   22.2400   -5.7020  -12.4144 O   0  0  0  0  0  0  0  0  0  0  0  0
  1  2  1  0
  3  2  1  0
  4  3  1  0
  4  5  1  0
  5  1  1  0
  5  6  1  1
  6  7  2  0
  9  8  1  6
  9 10  1  0
 11 13  1  0
 11  9  1  0
 12  6  1  0
 11 12  1  6
 13 14  2  0
 15 16  1  0
 15 13  1  0
 16 23  1  0
 17 18  1  0
 16 17  1  1
 18 22  1  0
 19 20  1  0
 19 18  2  0
 20 21  1  0
 21 22  2  0
 23 24  1  0
 25 23  2  0
M  END
$$$$
