PVH.pdb
     RDKit          3D

 25 26  0  0  1  0  0  0  0  0999 V2000
   25.3013  -21.4737  -14.2062 N   0  0  0  0  0  0  0  0  0  0  0  0
   25.4112  -22.7722  -13.5355 C   0  0  0  0  0  0  0  0  0  0  0  0
   25.5370  -22.4545  -12.0651 C   0  0  0  0  0  0  0  0  0  0  0  0
   25.1429  -20.9922  -11.9627 C   0  0  0  0  0  0  0  0  0  0  0  0
   24.4943  -20.7265  -13.2863 C   0  0  1  0  0  0  0  0  0  0  0  0
   24.3898  -19.3014  -13.6150 C   0  0  0  0  0  0  0  0  0  0  0  0
   23.5287  -18.6171  -13.0020 O   0  0  0  0  0  0  0  0  0  0  0  0
   26.2854  -15.1446  -15.5224 C   0  0  0  0  0  0  0  0  0  0  0  0
   26.3904  -16.6131  -15.2873 C   0  0  2  0  0  0  0  0  0  0  0  0
   26.9354  -17.3701  -16.4991 C   0  0  0  0  0  0  0  0  0  0  0  0
   25.0484  -17.2448  -14.9133 C   0  0  2  0  0  0  0  0  0  0  0  0
   25.1938  -18.6337  -14.5798 N   0  0  0  0  0  0  0  0  0  0  0  0
   24.0227  -16.9925  -15.9353 C   0  0  0  0  0  0  0  0  0  0  0  0
   23.8583  -17.6985  -16.9632 O   0  0  0  0  0  0  0  0  0  0  0  0
   23.1439  -15.8865  -15.7806 N   0  0  0  0  0  0  0  0  0  0  0  0
   22.0200  -15.6478  -16.7054 C   0  0  1  0  0  0  0  0  0  0  0  0
   20.8313  -15.4648  -15.7926 C   0  0  0  0  0  0  0  0  0  0  0  0
   19.5571  -15.2119  -16.4398 C   0  0  0  0  0  0  0  0  0  0  0  0
   19.4276  -14.4791  -17.6066 C   0  0  0  0  0  0  0  0  0  0  0  0
   18.1329  -14.4267  -17.9454 N   0  0  0  0  0  0  0  0  0  0  0  0
   17.4680  -15.1175  -17.0016 C   0  0  0  0  0  0  0  0  0  0  0  0
   18.3304  -15.5930  -16.0900 N   0  0  0  0  0  0  0  0  0  0  0  0
   22.2847  -14.4697  -17.5304 C   0  0  0  0  0  0  0  0  0  0  0  0
   21.7156  -14.3644  -18.7894 O   0  0  0  0  0  0  0  0  0  0  0  0
   23.0115  -13.5482  -17.1363 O   0  0  0  0  0  0  0  0  0  0  0  0
  1  2  1  0
  3  2  1  0
  4  3  1  0
  4  5  1  0
  5  1  1  0
  5  6  1  6
  6  7  2  0
  9  8  1  6
  9 10  1  0
 11 13  1  0
 11  9  1  0
 12  6  1  0
 11 12  1  6
 13 14  2  0
 15 16  1  0
 15 13  1  0
 16 23  1  0
 17 18  1  0
 16 17  1  1
 18 22  1  0
 19 20  1  0
 19 18  2  0
 20 21  1  0
 21 22  2  0
 23 24  1  0
 25 23  2  0
M  END
$$$$
