PVH.pdb
     RDKit          3D

 25 26  0  0  1  0  0  0  0  0999 V2000
   23.4604  -18.8618  -16.6233 N   0  0  0  0  0  0  0  0  0  0  0  0
   23.0569  -20.2560  -16.4196 C   0  0  0  0  0  0  0  0  0  0  0  0
   22.6783  -20.3548  -14.9617 C   0  0  0  0  0  0  0  0  0  0  0  0
   22.5645  -18.9115  -14.5054 C   0  0  0  0  0  0  0  0  0  0  0  0
   22.5267  -18.1539  -15.7968 C   0  0  1  0  0  0  0  0  0  0  0  0
   22.8307  -16.7269  -15.6512 C   0  0  0  0  0  0  0  0  0  0  0  0
   22.0321  -16.0199  -14.9819 O   0  0  0  0  0  0  0  0  0  0  0  0
   26.4563  -14.8058  -17.2379 C   0  0  0  0  0  0  0  0  0  0  0  0
   25.7292  -14.3887  -16.0050 C   0  0  2  0  0  0  0  0  0  0  0  0
   26.2639  -15.0671  -14.7431 C   0  0  0  0  0  0  0  0  0  0  0  0
   24.2287  -14.6757  -16.0832 C   0  0  2  0  0  0  0  0  0  0  0  0
   23.9665  -16.0812  -16.2133 N   0  0  0  0  0  0  0  0  0  0  0  0
   23.5699  -13.8596  -17.1128 C   0  0  0  0  0  0  0  0  0  0  0  0
   23.4055  -14.2221  -18.3060 O   0  0  0  0  0  0  0  0  0  0  0  0
   23.0753  -12.5725  -16.7690 N   0  0  0  0  0  0  0  0  0  0  0  0
   22.4488  -11.6854  -17.7670 C   0  0  1  0  0  0  0  0  0  0  0  0
   21.2392  -12.4599  -18.2327 C   0  0  0  0  0  0  0  0  0  0  0  0
   20.1419  -12.5663  -17.2888 C   0  0  0  0  0  0  0  0  0  0  0  0
   20.2176  -12.1238  -15.9797 C   0  0  0  0  0  0  0  0  0  0  0  0
   19.0485  -12.3633  -15.3717 N   0  0  0  0  0  0  0  0  0  0  0  0
   18.2580  -12.9465  -16.2910 C   0  0  0  0  0  0  0  0  0  0  0  0
   18.9201  -13.0694  -17.4519 N   0  0  0  0  0  0  0  0  0  0  0  0
   22.0975  -10.4042  -17.1557 C   0  0  0  0  0  0  0  0  0  0  0  0
   21.4908   -9.4176  -17.9164 O   0  0  0  0  0  0  0  0  0  0  0  0
   22.3273  -10.1666  -15.9626 O   0  0  0  0  0  0  0  0  0  0  0  0
  1  2  1  0
  3  2  1  0
  4  3  1  0
  4  5  1  0
  5  1  1  0
  5  6  1  1
  6  7  2  0
  9  8  1  6
  9 10  1  0
 11 13  1  0
 11  9  1  0
 12  6  1  0
 11 12  1  6
 13 14  2  0
 15 16  1  0
 15 13  1  0
 16 23  1  0
 17 18  1  0
 16 17  1  1
 18 22  1  0
 19 20  1  0
 19 18  2  0
 20 21  1  0
 21 22  2  0
 23 24  1  0
 25 23  2  0
M  END
$$$$
