PVH.pdb
     RDKit          3D

 25 26  0  0  1  0  0  0  0  0999 V2000
   22.0299  -13.8683  -19.5518 N   0  0  0  0  0  0  0  0  0  0  0  0
   22.6314  -14.2023  -20.8459 C   0  0  0  0  0  0  0  0  0  0  0  0
   22.5794  -12.9278  -21.6531 C   0  0  0  0  0  0  0  0  0  0  0  0
   22.2583  -11.8508  -20.6326 C   0  0  0  0  0  0  0  0  0  0  0  0
   22.5166  -12.5385  -19.3274 C   0  0  1  0  0  0  0  0  0  0  0  0
   21.8993  -11.8699  -18.1776 C   0  0  0  0  0  0  0  0  0  0  0  0
   20.6804  -12.0913  -17.9522 O   0  0  0  0  0  0  0  0  0  0  0  0
   23.8906  -10.3914  -14.6898 C   0  0  0  0  0  0  0  0  0  0  0  0
   22.4346  -10.6570  -14.8694 C   0  0  2  0  0  0  0  0  0  0  0  0
   22.0706  -12.1282  -14.6650 C   0  0  0  0  0  0  0  0  0  0  0  0
   21.9292  -10.2441  -16.2529 C   0  0  2  0  0  0  0  0  0  0  0  0
   22.5802  -10.9860  -17.2955 N   0  0  0  0  0  0  0  0  0  0  0  0
   21.9909   -8.7882  -16.4443 C   0  0  0  0  0  0  0  0  0  0  0  0
   22.9798   -8.1785  -16.9263 O   0  0  0  0  0  0  0  0  0  0  0  0
   20.8764   -7.9897  -16.0705 N   0  0  0  0  0  0  0  0  0  0  0  0
   20.8626   -6.5281  -16.2683 C   0  0  1  0  0  0  0  0  0  0  0  0
   19.7599   -6.3085  -17.2761 C   0  0  0  0  0  0  0  0  0  0  0  0
   19.4981   -4.9314  -17.6522 C   0  0  0  0  0  0  0  0  0  0  0  0
   20.3647   -3.8884  -17.3758 C   0  0  0  0  0  0  0  0  0  0  0  0
   19.8401   -2.7505  -17.8489 N   0  0  0  0  0  0  0  0  0  0  0  0
   18.6639   -3.0830  -18.4112 C   0  0  0  0  0  0  0  0  0  0  0  0
   18.4569   -4.4035  -18.2921 N   0  0  0  0  0  0  0  0  0  0  0  0
   20.6105   -5.8478  -14.9986 C   0  0  0  0  0  0  0  0  0  0  0  0
   21.0994   -4.5682  -14.7900 O   0  0  0  0  0  0  0  0  0  0  0  0
   19.9647   -6.3845  -14.0887 O   0  0  0  0  0  0  0  0  0  0  0  0
  1  2  1  0
  3  2  1  0
  4  3  1  0
  4  5  1  0
  5  1  1  0
  5  6  1  1
  6  7  2  0
  9  8  1  6
  9 10  1  0
 11 13  1  0
 11  9  1  0
 12  6  1  0
 11 12  1  6
 13 14  2  0
 15 16  1  0
 15 13  1  0
 16 23  1  0
 17 18  1  0
 16 17  1  6
 18 22  1  0
 19 20  1  0
 19 18  2  0
 20 21  1  0
 21 22  2  0
 23 24  1  0
 25 23  2  0
M  END
$$$$
