PVH.pdb
     RDKit          3D

 25 26  0  0  1  0  0  0  0  0999 V2000
   27.4704  -19.3500  -15.2341 N   0  0  0  0  0  0  0  0  0  0  0  0
   28.6830  -19.2026  -16.0438 C   0  0  0  0  0  0  0  0  0  0  0  0
   29.4950  -20.4475  -15.7801 C   0  0  0  0  0  0  0  0  0  0  0  0
   28.5233  -21.3901  -15.0933 C   0  0  0  0  0  0  0  0  0  0  0  0
   27.1944  -20.7516  -15.3568 C   0  0  1  0  0  0  0  0  0  0  0  0
   26.1280  -21.2236  -14.4679 C   0  0  0  0  0  0  0  0  0  0  0  0
   25.4978  -22.2610  -14.8031 O   0  0  0  0  0  0  0  0  0  0  0  0
   23.9069  -21.3195  -10.0437 C   0  0  0  0  0  0  0  0  0  0  0  0
   25.0698  -21.0796  -10.9454 C   0  0  2  0  0  0  0  0  0  0  0  0
   25.8041  -19.7754  -10.6319 C   0  0  0  0  0  0  0  0  0  0  0  0
   24.6696  -21.0411  -12.4213 C   0  0  2  0  0  0  0  0  0  0  0  0
   25.7526  -20.5921  -13.2500 N   0  0  0  0  0  0  0  0  0  0  0  0
   23.4233  -20.2906  -12.6295 C   0  0  0  0  0  0  0  0  0  0  0  0
   23.3349  -19.0369  -12.5810 O   0  0  0  0  0  0  0  0  0  0  0  0
   22.2227  -20.9989  -12.9057 N   0  0  0  0  0  0  0  0  0  0  0  0
   20.9569  -20.3026  -13.2032 C   0  0  1  0  0  0  0  0  0  0  0  0
   20.6209  -20.7442  -14.6074 C   0  0  0  0  0  0  0  0  0  0  0  0
   21.4623  -20.2165  -15.6656 C   0  0  0  0  0  0  0  0  0  0  0  0
   21.4721  -18.8837  -16.0380 C   0  0  0  0  0  0  0  0  0  0  0  0
   22.3489  -18.7178  -17.0367 N   0  0  0  0  0  0  0  0  0  0  0  0
   22.8761  -19.9313  -17.2808 C   0  0  0  0  0  0  0  0  0  0  0  0
   22.3393  -20.8388  -16.4506 N   0  0  0  0  0  0  0  0  0  0  0  0
   19.9309  -20.6805  -12.2320 C   0  0  0  0  0  0  0  0  0  0  0  0
   18.8478  -19.8455  -12.0092 O   0  0  0  0  0  0  0  0  0  0  0  0
   19.9977  -21.7379  -11.5916 O   0  0  0  0  0  0  0  0  0  0  0  0
  1  2  1  0
  3  2  1  0
  4  3  1  0
  4  5  1  0
  5  1  1  0
  5  6  1  1
  6  7  2  0
  9  8  1  1
  9 10  1  0
 11 13  1  0
 11  9  1  0
 12  6  1  0
 11 12  1  6
 13 14  2  0
 15 16  1  0
 15 13  1  0
 16 23  1  0
 17 18  1  0
 16 17  1  6
 18 22  1  0
 19 20  1  0
 19 18  2  0
 20 21  1  0
 21 22  2  0
 23 24  1  0
 25 23  2  0
M  END
$$$$
