PVH.pdb
     RDKit          3D

 25 26  0  0  1  0  0  0  0  0999 V2000
   38.9441   -9.7832   -7.4440 N   0  0  0  0  0  0  0  0  0  0  0  0
   39.3888  -11.1273   -7.0654 C   0  0  0  0  0  0  0  0  0  0  0  0
   40.6486  -11.3716   -7.8604 C   0  0  0  0  0  0  0  0  0  0  0  0
   41.0298  -10.0006   -8.3889 C   0  0  0  0  0  0  0  0  0  0  0  0
   40.1863   -9.0774   -7.5647 C   0  0  1  0  0  0  0  0  0  0  0  0
   40.0495   -7.7351   -8.1387 C   0  0  0  0  0  0  0  0  0  0  0  0
   41.0651   -6.9907   -8.1446 O   0  0  0  0  0  0  0  0  0  0  0  0
   36.7589   -6.5349  -10.6766 C   0  0  0  0  0  0  0  0  0  0  0  0
   38.1330   -5.9564  -10.6735 C   0  0  2  0  0  0  0  0  0  0  0  0
   39.1028   -6.7269  -11.5703 C   0  0  0  0  0  0  0  0  0  0  0  0
   38.7437   -5.9023   -9.2721 C   0  0  2  0  0  0  0  0  0  0  0  0
   38.8482   -7.2111   -8.6912 N   0  0  0  0  0  0  0  0  0  0  0  0
   38.0500   -4.9337   -8.4115 C   0  0  0  0  0  0  0  0  0  0  0  0
   37.6310   -5.1882   -7.2531 O   0  0  0  0  0  0  0  0  0  0  0  0
   37.8230   -3.6152   -8.8906 N   0  0  0  0  0  0  0  0  0  0  0  0
   37.5194   -2.4956   -7.9796 C   0  0  1  0  0  0  0  0  0  0  0  0
   38.7754   -2.3478   -7.1548 C   0  0  0  0  0  0  0  0  0  0  0  0
   38.6957   -2.7964   -5.7769 C   0  0  0  0  0  0  0  0  0  0  0  0
   37.5583   -3.3575   -5.2230 C   0  0  0  0  0  0  0  0  0  0  0  0
   37.8041   -3.6640   -3.9426 N   0  0  0  0  0  0  0  0  0  0  0  0
   39.0769   -3.2980   -3.7052 C   0  0  0  0  0  0  0  0  0  0  0  0
   39.6167   -2.7728   -4.8158 N   0  0  0  0  0  0  0  0  0  0  0  0
   37.2026   -1.2911   -8.7460 C   0  0  0  0  0  0  0  0  0  0  0  0
   36.4023   -0.3067   -8.1887 O   0  0  0  0  0  0  0  0  0  0  0  0
   37.6316   -1.1176   -9.8944 O   0  0  0  0  0  0  0  0  0  0  0  0
  1  2  1  0
  3  2  1  0
  4  3  1  0
  4  5  1  0
  5  1  1  0
  5  6  1  6
  6  7  2  0
  9  8  1  1
  9 10  1  0
 11 13  1  0
 11  9  1  0
 12  6  1  0
 11 12  1  1
 13 14  2  0
 15 16  1  0
 15 13  1  0
 16 23  1  0
 17 18  1  0
 16 17  1  1
 18 22  1  0
 19 20  1  0
 19 18  2  0
 20 21  1  0
 21 22  2  0
 23 24  1  0
 25 23  2  0
M  END
$$$$
