VQA.pdb
     RDKit          3D

 22 21  0  0  1  0  0  0  0  0999 V2000
   15.4320   -9.8494  -16.7191 C   0  0  0  0  0  0  0  0  0  0  0  0
   16.7832  -10.2017  -17.3427 C   0  0  2  0  0  0  0  0  0  0  0  0
   16.5473  -11.4167  -18.2180 C   0  0  0  0  0  0  0  0  0  0  0  0
   17.6856  -10.5925  -16.1921 C   0  0  2  0  0  0  0  0  0  0  0  0
   17.1127  -11.7219  -15.5282 N   0  0  0  0  0  0  0  0  0  0  0  0
   17.8975   -9.4391  -15.2597 C   0  0  0  0  0  0  0  0  0  0  0  0
   17.2988   -9.4523  -14.1540 O   0  0  0  0  0  0  0  0  0  0  0  0
   22.9108   -5.9607  -14.5176 N   0  0  0  0  0  0  0  0  0  0  0  0
   21.9476   -5.1560  -13.8339 C   0  0  0  0  0  0  0  0  0  0  0  0
   22.4097   -4.1141  -13.2696 O   0  0  0  0  0  0  0  0  0  0  0  0
   20.5078   -5.5166  -13.7889 C   0  0  0  0  0  0  0  0  0  0  0  0
   20.3436   -6.7991  -14.5666 C   0  0  0  0  0  0  0  0  0  0  0  0
   18.8719   -7.1860  -14.6887 C   0  0  2  0  0  0  0  0  0  0  0  0
   18.7309   -8.3441  -15.5580 N   0  0  0  0  0  0  0  0  0  0  0  0
   18.1038   -6.0748  -15.3016 C   0  0  0  0  0  0  0  0  0  0  0  0
   18.2740   -5.7291  -16.5157 O   0  0  0  0  0  0  0  0  0  0  0  0
   15.0538   -4.1533  -14.4268 C   0  0  0  0  0  0  0  0  0  0  0  0
   16.3841   -4.2242  -15.1663 C   0  0  2  0  0  0  0  0  0  0  0  0
   17.1327   -5.3240  -14.5842 N   0  0  0  0  0  0  0  0  0  0  0  0
   17.0961   -2.9407  -15.0575 C   0  0  0  0  0  0  0  0  0  0  0  0
   16.7218   -1.8694  -15.5974 O   0  0  0  0  0  0  0  0  0  0  0  0
   18.2611   -2.9091  -14.3077 O   0  0  0  0  0  0  0  0  0  0  0  0
  2  1  1  1
  2  3  1  0
  4  2  1  0
  4  6  1  0
  4  5  1  1
  6  7  2  0
  6 14  1  0
  9  8  1  0
  9 11  1  0
 10  9  2  0
 12 11  1  0
 13 12  1  6
 14 13  1  0
 15 19  1  0
 15 13  1  0
 16 15  2  0
 18 17  1  1
 18 19  1  0
 18 20  1  0
 20 22  1  0
 21 20  2  0
M  END
$$$$
