VQA.pdb
     RDKit          3D

 22 21  0  0  1  0  0  0  0  0999 V2000
   16.3828   -9.3833  -16.8402 C   0  0  0  0  0  0  0  0  0  0  0  0
   17.6242  -10.0745  -17.4057 C   0  0  2  0  0  0  0  0  0  0  0  0
   17.1530  -11.3930  -17.9867 C   0  0  0  0  0  0  0  0  0  0  0  0
   18.5240  -10.3529  -16.2210 C   0  0  2  0  0  0  0  0  0  0  0  0
   17.8228  -11.1994  -15.3064 N   0  0  0  0  0  0  0  0  0  0  0  0
   18.9735   -9.0775  -15.5761 C   0  0  0  0  0  0  0  0  0  0  0  0
   18.4504   -8.7504  -14.4803 O   0  0  0  0  0  0  0  0  0  0  0  0
   21.7764   -6.7471  -12.9665 N   0  0  0  0  0  0  0  0  0  0  0  0
   22.2273   -5.5565  -13.6160 C   0  0  0  0  0  0  0  0  0  0  0  0
   22.5814   -4.6130  -12.8402 O   0  0  0  0  0  0  0  0  0  0  0  0
   22.2769   -5.4352  -15.0952 C   0  0  0  0  0  0  0  0  0  0  0  0
   21.8485   -6.7641  -15.6673 C   0  0  0  0  0  0  0  0  0  0  0  0
   20.3401   -6.9603  -15.5380 C   0  0  2  0  0  0  0  0  0  0  0  0
   19.9491   -8.2290  -16.1333 N   0  0  0  0  0  0  0  0  0  0  0  0
   19.6239   -5.8870  -16.2699 C   0  0  0  0  0  0  0  0  0  0  0  0
   19.7423   -5.7374  -17.5294 O   0  0  0  0  0  0  0  0  0  0  0  0
   16.6482   -4.0004  -16.1960 C   0  0  0  0  0  0  0  0  0  0  0  0
   18.1581   -3.8253  -16.3015 C   0  0  2  0  0  0  0  0  0  0  0  0
   18.7630   -4.9583  -15.6237 N   0  0  0  0  0  0  0  0  0  0  0  0
   18.5636   -2.5380  -15.7144 C   0  0  0  0  0  0  0  0  0  0  0  0
   19.2940   -2.4158  -14.6990 O   0  0  0  0  0  0  0  0  0  0  0  0
   18.1095   -1.3784  -16.3221 O   0  0  0  0  0  0  0  0  0  0  0  0
  2  1  1  1
  2  3  1  0
  4  2  1  0
  4  6  1  0
  4  5  1  1
  6  7  2  0
  6 14  1  0
  9  8  1  0
  9 11  1  0
 10  9  2  0
 12 11  1  0
 13 12  1  6
 14 13  1  0
 15 19  1  0
 15 13  1  0
 16 15  2  0
 18 17  1  1
 18 19  1  0
 18 20  1  0
 20 22  1  0
 21 20  2  0
M  END
$$$$
