VQA.pdb
     RDKit          3D

 22 21  0  0  1  0  0  0  0  0999 V2000
   17.9916  -13.9097  -16.3560 C   0  0  0  0  0  0  0  0  0  0  0  0
   18.7864  -13.8853  -17.6623 C   0  0  2  0  0  0  0  0  0  0  0  0
   19.3240  -15.2885  -17.8628 C   0  0  0  0  0  0  0  0  0  0  0  0
   19.9473  -12.9429  -17.4279 C   0  0  2  0  0  0  0  0  0  0  0  0
   20.7678  -13.4818  -16.3882 N   0  0  0  0  0  0  0  0  0  0  0  0
   19.4622  -11.5629  -17.1039 C   0  0  0  0  0  0  0  0  0  0  0  0
   18.8154  -10.9396  -17.9840 O   0  0  0  0  0  0  0  0  0  0  0  0
   16.7406   -9.6733  -12.1219 N   0  0  0  0  0  0  0  0  0  0  0  0
   16.9171   -8.4171  -12.7802 C   0  0  0  0  0  0  0  0  0  0  0  0
   16.2901   -7.4384  -12.2641 O   0  0  0  0  0  0  0  0  0  0  0  0
   17.7749   -8.2707  -13.9835 C   0  0  0  0  0  0  0  0  0  0  0  0
   18.2822   -9.6461  -14.3409 C   0  0  0  0  0  0  0  0  0  0  0  0
   19.2124   -9.5943  -15.5502 C   0  0  2  0  0  0  0  0  0  0  0  0
   19.6932  -10.9303  -15.8674 N   0  0  0  0  0  0  0  0  0  0  0  0
   20.3977   -8.7569  -15.2436 C   0  0  0  0  0  0  0  0  0  0  0  0
   21.3561   -9.1864  -14.5227 O   0  0  0  0  0  0  0  0  0  0  0  0
   21.9306   -5.7330  -16.6908 C   0  0  0  0  0  0  0  0  0  0  0  0
   21.7155   -6.6084  -15.4625 C   0  0  2  0  0  0  0  0  0  0  0  0
   20.5468   -7.4286  -15.7278 N   0  0  0  0  0  0  0  0  0  0  0  0
   21.5533   -5.7715  -14.2627 C   0  0  0  0  0  0  0  0  0  0  0  0
   20.4471   -5.4660  -13.7504 O   0  0  0  0  0  0  0  0  0  0  0  0
   22.6992   -5.2853  -13.6537 O   0  0  0  0  0  0  0  0  0  0  0  0
  2  1  1  1
  2  3  1  0
  4  2  1  0
  4  6  1  0
  4  5  1  1
  6  7  2  0
  6 14  1  0
  9  8  1  0
  9 11  1  0
 10  9  2  0
 12 11  1  0
 13 12  1  1
 14 13  1  0
 15 19  1  0
 15 13  1  0
 16 15  2  0
 18 17  1  6
 18 19  1  0
 18 20  1  0
 20 22  1  0
 21 20  2  0
M  END
$$$$
