VQA.pdb
     RDKit          3D

 22 21  0  0  1  0  0  0  0  0999 V2000
   18.6004  -11.2627  -18.4908 C   0  0  0  0  0  0  0  0  0  0  0  0
   19.2046  -12.1785  -17.4255 C   0  0  2  0  0  0  0  0  0  0  0  0
   18.1903  -13.2783  -17.1808 C   0  0  0  0  0  0  0  0  0  0  0  0
   19.3295  -11.3376  -16.1733 C   0  0  2  0  0  0  0  0  0  0  0  0
   18.0165  -11.0490  -15.6863 N   0  0  0  0  0  0  0  0  0  0  0  0
   20.1177  -10.0915  -16.4392 C   0  0  0  0  0  0  0  0  0  0  0  0
   21.3079  -10.2137  -16.8263 O   0  0  0  0  0  0  0  0  0  0  0  0
   18.7687   -5.2054  -19.6673 N   0  0  0  0  0  0  0  0  0  0  0  0
   18.1365   -5.1245  -18.3881 C   0  0  0  0  0  0  0  0  0  0  0  0
   17.1798   -4.2907  -18.3045 O   0  0  0  0  0  0  0  0  0  0  0  0
   18.5710   -5.9591  -17.2392 C   0  0  0  0  0  0  0  0  0  0  0  0
   19.7085   -6.8255  -17.7210 C   0  0  0  0  0  0  0  0  0  0  0  0
   20.3521   -7.5852  -16.5638 C   0  0  2  0  0  0  0  0  0  0  0  0
   19.5947   -8.7942  -16.2781 N   0  0  0  0  0  0  0  0  0  0  0  0
   20.3362   -6.7511  -15.3374 C   0  0  0  0  0  0  0  0  0  0  0  0
   19.3655   -6.7857  -14.5132 O   0  0  0  0  0  0  0  0  0  0  0  0
   21.9890   -5.9778  -12.6855 C   0  0  0  0  0  0  0  0  0  0  0  0
   21.4163   -5.0799  -13.7751 C   0  0  2  0  0  0  0  0  0  0  0  0
   21.3928   -5.8625  -14.9981 N   0  0  0  0  0  0  0  0  0  0  0  0
   22.2263   -3.8580  -13.9059 C   0  0  0  0  0  0  0  0  0  0  0  0
   22.9390   -3.5781  -14.9024 O   0  0  0  0  0  0  0  0  0  0  0  0
   22.2029   -2.9514  -12.8581 O   0  0  0  0  0  0  0  0  0  0  0  0
  2  1  1  6
  2  3  1  0
  4  2  1  0
  4  6  1  0
  4  5  1  6
  6  7  2  0
  6 14  1  0
  9  8  1  0
  9 11  1  0
 10  9  2  0
 12 11  1  0
 13 12  1  6
 14 13  1  0
 15 19  1  0
 15 13  1  0
 16 15  2  0
 18 17  1  1
 18 19  1  0
 18 20  1  0
 20 22  1  0
 21 20  2  0
M  END
$$$$
