VQA.pdb
     RDKit          3D

 22 21  0  0  1  0  0  0  0  0999 V2000
   18.3034  -13.4888  -17.3625 C   0  0  0  0  0  0  0  0  0  0  0  0
   17.8755  -12.0482  -17.0790 C   0  0  2  0  0  0  0  0  0  0  0  0
   17.4463  -11.4594  -18.4084 C   0  0  0  0  0  0  0  0  0  0  0  0
   19.1186  -11.3291  -16.6013 C   0  0  2  0  0  0  0  0  0  0  0  0
   19.8160  -12.1827  -15.6904 N   0  0  0  0  0  0  0  0  0  0  0  0
   18.7718  -10.0094  -15.9828 C   0  0  0  0  0  0  0  0  0  0  0  0
   18.1551   -9.1686  -16.6857 O   0  0  0  0  0  0  0  0  0  0  0  0
   17.1838   -8.9361  -10.1765 N   0  0  0  0  0  0  0  0  0  0  0  0
   17.2738   -7.5975  -10.6690 C   0  0  0  0  0  0  0  0  0  0  0  0
   16.8234   -6.6986   -9.8901 O   0  0  0  0  0  0  0  0  0  0  0  0
   17.8541   -7.2838  -11.9994 C   0  0  0  0  0  0  0  0  0  0  0  0
   18.0988   -8.5968  -12.7013 C   0  0  0  0  0  0  0  0  0  0  0  0
   18.7634   -8.3816  -14.0587 C   0  0  2  0  0  0  0  0  0  0  0  0
   19.1005   -9.6638  -14.6580 N   0  0  0  0  0  0  0  0  0  0  0  0
   20.0275   -7.6240  -13.8908 C   0  0  0  0  0  0  0  0  0  0  0  0
   21.0239   -8.1090  -13.2625 O   0  0  0  0  0  0  0  0  0  0  0  0
   21.3644   -4.4047  -15.2773 C   0  0  0  0  0  0  0  0  0  0  0  0
   21.4741   -5.5964  -14.3342 C   0  0  2  0  0  0  0  0  0  0  0  0
   20.2149   -6.3154  -14.4141 N   0  0  0  0  0  0  0  0  0  0  0  0
   21.7734   -5.1385  -12.9679 C   0  0  0  0  0  0  0  0  0  0  0  0
   20.9208   -5.0219  -12.0519 O   0  0  0  0  0  0  0  0  0  0  0  0
   23.0865   -4.8126  -12.6682 O   0  0  0  0  0  0  0  0  0  0  0  0
  2  1  1  6
  2  3  1  0
  4  2  1  0
  4  6  1  0
  4  5  1  1
  6  7  2  0
  6 14  1  0
  9  8  1  0
  9 11  1  0
 10  9  2  0
 12 11  1  0
 13 12  1  1
 14 13  1  0
 15 19  1  0
 15 13  1  0
 16 15  2  0
 18 17  1  6
 18 19  1  0
 18 20  1  0
 20 22  1  0
 21 20  2  0
M  END
$$$$
