VQA.pdb
     RDKit          3D

 22 21  0  0  1  0  0  0  0  0999 V2000
   15.6229  -11.5217  -14.7531 C   0  0  0  0  0  0  0  0  0  0  0  0
   16.2465  -11.5007  -16.1494 C   0  0  2  0  0  0  0  0  0  0  0  0
   16.4197  -12.9488  -16.5629 C   0  0  0  0  0  0  0  0  0  0  0  0
   17.6124  -10.8689  -15.9878 C   0  0  2  0  0  0  0  0  0  0  0  0
   18.4311  -11.7478  -15.2122 N   0  0  0  0  0  0  0  0  0  0  0  0
   17.5053   -9.5080  -15.3705 C   0  0  0  0  0  0  0  0  0  0  0  0
   16.8345   -8.6332  -15.9756 O   0  0  0  0  0  0  0  0  0  0  0  0
   16.9186   -7.8325   -9.5296 N   0  0  0  0  0  0  0  0  0  0  0  0
   16.7518   -6.6133  -10.2565 C   0  0  0  0  0  0  0  0  0  0  0  0
   16.2745   -5.6416   -9.5891 O   0  0  0  0  0  0  0  0  0  0  0  0
   17.1127   -6.4951  -11.6921 C   0  0  0  0  0  0  0  0  0  0  0  0
   17.5364   -7.8652  -12.1609 C   0  0  0  0  0  0  0  0  0  0  0  0
   18.0738   -7.8183  -13.5890 C   0  0  2  0  0  0  0  0  0  0  0  0
   18.1160   -9.1599  -14.1505 N   0  0  0  0  0  0  0  0  0  0  0  0
   19.4604   -7.2917  -13.5927 C   0  0  0  0  0  0  0  0  0  0  0  0
   20.4346   -7.9592  -13.1151 O   0  0  0  0  0  0  0  0  0  0  0  0
   21.1424   -4.3256  -15.1479 C   0  0  0  0  0  0  0  0  0  0  0  0
   21.1587   -5.5169  -14.1982 C   0  0  2  0  0  0  0  0  0  0  0  0
   19.7973   -6.0168  -14.1244 N   0  0  0  0  0  0  0  0  0  0  0  0
   21.6803   -5.1123  -12.8827 C   0  0  0  0  0  0  0  0  0  0  0  0
   22.8967   -4.9351  -12.6215 O   0  0  0  0  0  0  0  0  0  0  0  0
   20.7679   -4.9122  -11.8590 O   0  0  0  0  0  0  0  0  0  0  0  0
  2  1  1  1
  2  3  1  0
  4  2  1  0
  4  6  1  0
  4  5  1  1
  6  7  2  0
  6 14  1  0
  9  8  1  0
  9 11  1  0
 10  9  2  0
 12 11  1  0
 13 12  1  1
 14 13  1  0
 15 19  1  0
 15 13  1  0
 16 15  2  0
 18 17  1  6
 18 19  1  0
 18 20  1  0
 20 22  1  0
 21 20  2  0
M  END
$$$$
