DGM.pdb
     RDKit          3D

 21 20  0  0  1  0  0  0  0  0999 V2000
    8.5328  -17.7612   18.9300 N   0  0  0  0  0  0  0  0  0  0  0  0
    9.9293  -17.7067   18.6740 C   0  0  1  0  0  0  0  0  0  0  0  0
   10.1279  -16.8822   17.3913 C   0  0  0  0  0  0  0  0  0  0  0  0
    9.8472  -17.7828   16.2352 C   0  0  0  0  0  0  0  0  0  0  0  0
    8.6663  -18.0810   15.9157 O   0  0  0  0  0  0  0  0  0  0  0  0
   10.6271  -17.0438   19.8109 C   0  0  0  0  0  0  0  0  0  0  0  0
   11.8202  -16.6755   19.6699 O   0  0  0  0  0  0  0  0  0  0  0  0
   10.9010  -18.2833   15.5225 O   0  0  0  0  0  0  0  0  0  0  0  0
    9.9308  -16.8410   21.0289 N   0  0  0  0  0  0  0  0  0  0  0  0
   10.6788  -16.3531   22.1673 C   0  0  0  0  0  0  0  0  0  0  0  0
    9.7189  -16.0675   23.2858 C   0  0  0  0  0  0  0  0  0  0  0  0
    8.5806  -16.5082   23.2080 O   0  0  0  0  0  0  0  0  0  0  0  0
    5.6705  -11.5604   27.5111 C   0  0  0  0  0  0  0  0  0  0  0  0
    6.2916  -12.3292   25.9869 S   0  0  0  0  0  0  0  0  0  0  0  0
    7.6789  -13.3811   26.4112 C   0  0  0  0  0  0  0  0  0  0  0  0
    8.3890  -13.9017   25.2238 C   0  0  0  0  0  0  0  0  0  0  0  0
    9.5201  -14.8307   25.5093 C   0  0  2  0  0  0  0  0  0  0  0  0
   10.1777  -15.3040   24.3708 N   0  0  0  0  0  0  0  0  0  0  0  0
    9.1198  -15.8322   26.5481 C   0  0  0  0  0  0  0  0  0  0  0  0
    8.7311  -16.9779   26.3895 O   0  0  0  0  0  0  0  0  0  0  0  0
    9.2011  -15.3942   27.8975 O   0  0  0  0  0  0  0  0  0  0  0  0
  2  3  1  0
  2  1  1  1
  3  4  1  0
  4  5  2  0
  4  8  1  0
  6  2  1  0
  7  6  2  0
  9  6  1  0
 10 11  1  0
 10  9  1  0
 11 18  1  0
 12 11  2  0
 13 14  1  0
 14 15  1  0
 15 16  1  0
 17 16  1  6
 18 17  1  0
 19 17  1  0
 20 19  2  0
 21 19  1  0
M  END
$$$$
