DGM.pdb
     RDKit          3D

 21 20  0  0  1  0  0  0  0  0999 V2000
   10.8132  -17.0832   19.1713 N   0  0  0  0  0  0  0  0  0  0  0  0
   10.6874  -18.0996   20.1562 C   0  0  1  0  0  0  0  0  0  0  0  0
   12.1032  -18.4296   20.6572 C   0  0  0  0  0  0  0  0  0  0  0  0
   12.9347  -18.7531   19.4611 C   0  0  0  0  0  0  0  0  0  0  0  0
   12.5419  -19.5868   18.6032 O   0  0  0  0  0  0  0  0  0  0  0  0
    9.8553  -17.6066   21.2892 C   0  0  0  0  0  0  0  0  0  0  0  0
    9.5223  -18.4049   22.2007 O   0  0  0  0  0  0  0  0  0  0  0  0
   14.1394  -18.1249   19.3103 O   0  0  0  0  0  0  0  0  0  0  0  0
    9.4564  -16.2466   21.3166 N   0  0  0  0  0  0  0  0  0  0  0  0
    8.5238  -15.8315   22.3419 C   0  0  0  0  0  0  0  0  0  0  0  0
    9.2528  -15.7575   23.6523 C   0  0  0  0  0  0  0  0  0  0  0  0
   10.4358  -16.0668   23.6831 O   0  0  0  0  0  0  0  0  0  0  0  0
    5.0732  -12.1566   26.3400 C   0  0  0  0  0  0  0  0  0  0  0  0
    6.7605  -11.6705   26.8058 S   0  0  0  0  0  0  0  0  0  0  0  0
    7.9102  -12.7871   26.0042 C   0  0  0  0  0  0  0  0  0  0  0  0
    8.1555  -14.0173   26.7862 C   0  0  0  0  0  0  0  0  0  0  0  0
    8.9504  -15.0707   26.0916 C   0  0  2  0  0  0  0  0  0  0  0  0
    8.5366  -15.3354   24.7835 N   0  0  0  0  0  0  0  0  0  0  0  0
    9.1704  -16.2395   27.0015 C   0  0  0  0  0  0  0  0  0  0  0  0
    8.7784  -17.3878   26.8722 O   0  0  0  0  0  0  0  0  0  0  0  0
    9.9354  -15.9813   28.1709 O   0  0  0  0  0  0  0  0  0  0  0  0
  2  3  1  0
  2  1  1  6
  3  4  1  0
  4  5  2  0
  4  8  1  0
  6  2  1  0
  7  6  2  0
  9  6  1  0
 10 11  1  0
 10  9  1  0
 11 18  1  0
 12 11  2  0
 13 14  1  0
 14 15  1  0
 15 16  1  0
 17 16  1  1
 18 17  1  0
 19 17  1  0
 20 19  2  0
 21 19  1  0
M  END
$$$$
