DGM.pdb
     RDKit          3D

 21 20  0  0  1  0  0  0  0  0999 V2000
    9.9953  -17.0706   18.6919 N   0  0  0  0  0  0  0  0  0  0  0  0
    9.2189  -18.0785   19.3246 C   0  0  1  0  0  0  0  0  0  0  0  0
   10.1974  -19.1079   19.9138 C   0  0  0  0  0  0  0  0  0  0  0  0
   11.3140  -19.2706   18.9374 C   0  0  0  0  0  0  0  0  0  0  0  0
   12.5049  -19.0269   19.2659 O   0  0  0  0  0  0  0  0  0  0  0  0
    8.4028  -17.4782   20.4166 C   0  0  0  0  0  0  0  0  0  0  0  0
    7.5695  -18.1941   21.0265 O   0  0  0  0  0  0  0  0  0  0  0  0
   11.0213  -19.6916   17.6702 O   0  0  0  0  0  0  0  0  0  0  0  0
    8.5832  -16.1113   20.7463 N   0  0  0  0  0  0  0  0  0  0  0  0
    7.7108  -15.5312   21.7442 C   0  0  0  0  0  0  0  0  0  0  0  0
    8.4467  -15.4762   23.0516 C   0  0  0  0  0  0  0  0  0  0  0  0
    9.6687  -15.5265   23.0388 O   0  0  0  0  0  0  0  0  0  0  0  0
    6.9906  -10.4948   26.2358 C   0  0  0  0  0  0  0  0  0  0  0  0
    7.5992  -12.0900   26.8562 S   0  0  0  0  0  0  0  0  0  0  0  0
    6.6190  -13.3940   26.1146 C   0  0  0  0  0  0  0  0  0  0  0  0
    7.0800  -14.7460   26.4953 C   0  0  0  0  0  0  0  0  0  0  0  0
    8.0748  -15.3672   25.5741 C   0  0  2  0  0  0  0  0  0  0  0  0
    7.6917  -15.3701   24.2303 N   0  0  0  0  0  0  0  0  0  0  0  0
    8.5893  -16.6486   26.1536 C   0  0  0  0  0  0  0  0  0  0  0  0
    8.3696  -17.7912   25.7860 O   0  0  0  0  0  0  0  0  0  0  0  0
    9.4460  -16.5214   27.2802 O   0  0  0  0  0  0  0  0  0  0  0  0
  2  3  1  0
  2  1  1  1
  3  4  1  0
  4  5  2  0
  4  8  1  0
  6  2  1  0
  7  6  2  0
  9  6  1  0
 10 11  1  0
 10  9  1  0
 11 18  1  0
 12 11  2  0
 13 14  1  0
 14 15  1  0
 15 16  1  0
 17 16  1  1
 18 17  1  0
 19 17  1  0
 20 19  2  0
 21 19  1  0
M  END
$$$$
