DGM.pdb
     RDKit          3D

 21 20  0  0  1  0  0  0  0  0999 V2000
    9.7014  -18.7331   18.9582 N   0  0  0  0  0  0  0  0  0  0  0  0
    9.5792  -17.3325   18.7525 C   0  0  1  0  0  0  0  0  0  0  0  0
    8.7448  -17.1280   17.4772 C   0  0  0  0  0  0  0  0  0  0  0  0
    9.5946  -17.5327   16.3193 C   0  0  0  0  0  0  0  0  0  0  0  0
   10.8055  -17.1939   16.2524 O   0  0  0  0  0  0  0  0  0  0  0  0
    8.8845  -16.7089   19.9133 C   0  0  0  0  0  0  0  0  0  0  0  0
    8.8688  -15.4570   20.0208 O   0  0  0  0  0  0  0  0  0  0  0  0
    9.0331  -18.2832   15.3241 O   0  0  0  0  0  0  0  0  0  0  0  0
    8.2543  -17.5404   20.8730 N   0  0  0  0  0  0  0  0  0  0  0  0
    7.4994  -16.9062   21.9319 C   0  0  0  0  0  0  0  0  0  0  0  0
    8.4454  -16.5243   23.0334 C   0  0  0  0  0  0  0  0  0  0  0  0
    9.6390  -16.7453   22.8837 O   0  0  0  0  0  0  0  0  0  0  0  0
    6.5900  -10.4763   25.8790 C   0  0  0  0  0  0  0  0  0  0  0  0
    6.5138  -12.1493   26.5829 S   0  0  0  0  0  0  0  0  0  0  0  0
    7.5921  -13.2131   25.6254 C   0  0  0  0  0  0  0  0  0  0  0  0
    7.7050  -14.5744   26.1905 C   0  0  0  0  0  0  0  0  0  0  0  0
    8.5107  -15.5377   25.3862 C   0  0  2  0  0  0  0  0  0  0  0  0
    7.9101  -15.9301   24.1871 N   0  0  0  0  0  0  0  0  0  0  0  0
    9.0689  -16.6111   26.2686 C   0  0  0  0  0  0  0  0  0  0  0  0
    8.7911  -17.7992   26.2889 O   0  0  0  0  0  0  0  0  0  0  0  0
   10.0511  -16.1955   27.2076 O   0  0  0  0  0  0  0  0  0  0  0  0
  2  3  1  0
  2  1  1  1
  3  4  1  0
  4  5  2  0
  4  8  1  0
  6  2  1  0
  7  6  2  0
  9  6  1  0
 10 11  1  0
 10  9  1  0
 11 18  1  0
 12 11  2  0
 13 14  1  0
 14 15  1  0
 15 16  1  0
 17 16  1  1
 18 17  1  0
 19 17  1  0
 20 19  2  0
 21 19  1  0
M  END
$$$$
