DGM.pdb
     RDKit          3D

 21 20  0  0  1  0  0  0  0  0999 V2000
    9.2628  -18.0423   18.9932 N   0  0  0  0  0  0  0  0  0  0  0  0
    8.6726  -16.8942   18.3996 C   0  0  1  0  0  0  0  0  0  0  0  0
    7.4299  -17.3659   17.6265 C   0  0  0  0  0  0  0  0  0  0  0  0
    7.9077  -18.0383   16.3831 C   0  0  0  0  0  0  0  0  0  0  0  0
    9.0212  -18.6253   16.3488 O   0  0  0  0  0  0  0  0  0  0  0  0
    8.2690  -15.9274   19.4586 C   0  0  0  0  0  0  0  0  0  0  0  0
    7.5591  -14.9376   19.1498 O   0  0  0  0  0  0  0  0  0  0  0  0
    7.1111  -18.0067   15.2726 O   0  0  0  0  0  0  0  0  0  0  0  0
    8.6933  -16.1440   20.7938 N   0  0  0  0  0  0  0  0  0  0  0  0
    8.1959  -15.2523   21.8189 C   0  0  0  0  0  0  0  0  0  0  0  0
    8.7529  -15.6860   23.1439 C   0  0  0  0  0  0  0  0  0  0  0  0
    9.2262  -16.8096   23.2412 O   0  0  0  0  0  0  0  0  0  0  0  0
    6.0206  -10.6606   26.2354 C   0  0  0  0  0  0  0  0  0  0  0  0
    6.1010  -12.4355   25.8569 S   0  0  0  0  0  0  0  0  0  0  0  0
    7.5519  -13.1173   26.6576 C   0  0  0  0  0  0  0  0  0  0  0  0
    7.7119  -14.5671   26.4182 C   0  0  0  0  0  0  0  0  0  0  0  0
    8.8868  -14.9537   25.5850 C   0  0  2  0  0  0  0  0  0  0  0  0
    8.7019  -14.7758   24.2114 N   0  0  0  0  0  0  0  0  0  0  0  0
    9.4427  -16.2647   26.0480 C   0  0  0  0  0  0  0  0  0  0  0  0
   10.6112  -16.5919   26.1766 O   0  0  0  0  0  0  0  0  0  0  0  0
    8.4870  -17.2619   26.3820 O   0  0  0  0  0  0  0  0  0  0  0  0
  2  3  1  0
  2  1  1  1
  3  4  1  0
  4  5  2  0
  4  8  1  0
  6  2  1  0
  7  6  2  0
  9  6  1  0
 10 11  1  0
 10  9  1  0
 11 18  1  0
 12 11  2  0
 13 14  1  0
 14 15  1  0
 15 16  1  0
 17 16  1  1
 18 17  1  0
 19 17  1  0
 20 19  2  0
 21 19  1  0
M  END
$$$$
