EEK.pdb
     RDKit          3D

 28 27  0  0  1  0  0  0  0  0999 V2000
    9.2293  -16.6512   18.2432 N   0  0  0  0  0  0  0  0  0  0  0  0
    8.0128  -16.7266   19.0804 C   0  0  1  0  0  0  0  0  0  0  0  0
    7.2343  -17.8780   18.5365 C   0  0  0  0  0  0  0  0  0  0  0  0
    6.9899  -17.8176   17.0700 C   0  0  0  0  0  0  0  0  0  0  0  0
    6.1581  -19.0233   16.7087 C   0  0  0  0  0  0  0  0  0  0  0  0
    5.7350  -19.7557   17.5936 O   0  0  0  0  0  0  0  0  0  0  0  0
    8.4498  -16.9501   20.4669 C   0  0  0  0  0  0  0  0  0  0  0  0
    7.5668  -17.0849   21.3784 O   0  0  0  0  0  0  0  0  0  0  0  0
    5.8950  -19.2676   15.3804 O   0  0  0  0  0  0  0  0  0  0  0  0
    9.7803  -17.0345   20.8941 N   0  0  0  0  0  0  0  0  0  0  0  0
   10.1737  -17.3248   22.2950 C   0  0  1  0  0  0  0  0  0  0  0  0
   11.5568  -17.8683   22.1841 C   0  0  0  0  0  0  0  0  0  0  0  0
   11.9177  -19.0151   23.0452 C   0  0  0  0  0  0  0  0  0  0  0  0
   13.3548  -19.4316   22.7989 C   0  0  0  0  0  0  0  0  0  0  0  0
   13.7065  -19.6945   21.6047 O   0  0  0  0  0  0  0  0  0  0  0  0
   10.0118  -16.1199   23.1049 C   0  0  0  0  0  0  0  0  0  0  0  0
   10.6705  -15.0898   22.8244 O   0  0  0  0  0  0  0  0  0  0  0  0
   14.2884  -19.5405   23.7859 O   0  0  0  0  0  0  0  0  0  0  0  0
    9.1417  -16.0211   24.2141 N   0  0  0  0  0  0  0  0  0  0  0  0
    9.1729  -14.8498   25.1160 C   0  0  1  0  0  0  0  0  0  0  0  0
    7.8028  -14.2373   25.0650 C   0  0  0  0  0  0  0  0  0  0  0  0
    7.5761  -13.1121   26.0242 C   0  0  0  0  0  0  0  0  0  0  0  0
    6.1668  -12.5773   26.0054 C   0  0  0  0  0  0  0  0  0  0  0  0
    5.9901  -11.4122   26.9550 C   0  0  0  0  0  0  0  0  0  0  0  0
    4.6280  -10.9956   27.0720 N   0  0  0  0  0  0  0  0  0  0  0  0
    9.5669  -15.2625   26.4664 C   0  0  0  0  0  0  0  0  0  0  0  0
    9.7434  -16.5825   26.8149 O   0  0  0  0  0  0  0  0  0  0  0  0
    9.7465  -14.3602   27.3370 O   0  0  0  0  0  0  0  0  0  0  0  0
  2  7  1  0
  2  1  1  6
  3  2  1  0
  4  3  1  0
  5  4  1  0
  6  5  2  0
  7  8  2  0
  9  5  1  0
 10  7  1  0
 10 11  1  0
 11 12  1  6
 12 13  1  0
 13 14  1  0
 14 18  1  0
 15 14  2  0
 16 17  2  0
 16 11  1  0
 19 16  1  0
 20 19  1  0
 20 21  1  1
 22 21  1  0
 23 22  1  0
 24 23  1  0
 25 24  1  0
 26 27  1  0
 26 20  1  0
 28 26  2  0
M  END
$$$$
