EEK.pdb
     RDKit          3D

 28 27  0  0  1  0  0  0  0  0999 V2000
   10.5932  -14.1788   18.1280 N   0  0  0  0  0  0  0  0  0  0  0  0
   11.6208  -14.9619   18.8471 C   0  0  1  0  0  0  0  0  0  0  0  0
   12.6688  -13.9716   19.2325 C   0  0  0  0  0  0  0  0  0  0  0  0
   13.7665  -13.8193   18.2395 C   0  0  0  0  0  0  0  0  0  0  0  0
   14.6469  -15.0384   18.3607 C   0  0  0  0  0  0  0  0  0  0  0  0
   15.2950  -15.2193   19.3833 O   0  0  0  0  0  0  0  0  0  0  0  0
   10.9676  -15.5707   20.0158 C   0  0  0  0  0  0  0  0  0  0  0  0
   10.0014  -14.9523   20.5750 O   0  0  0  0  0  0  0  0  0  0  0  0
   14.6963  -15.9222   17.3074 O   0  0  0  0  0  0  0  0  0  0  0  0
   11.3126  -16.8009   20.5882 N   0  0  0  0  0  0  0  0  0  0  0  0
   10.5923  -17.3992   21.7393 C   0  0  1  0  0  0  0  0  0  0  0  0
   10.5235  -18.8522   21.4157 C   0  0  0  0  0  0  0  0  0  0  0  0
    9.4725  -19.3000   20.4766 C   0  0  0  0  0  0  0  0  0  0  0  0
    9.5894  -20.7902   20.2213 C   0  0  0  0  0  0  0  0  0  0  0  0
   10.7097  -21.2443   19.8243 O   0  0  0  0  0  0  0  0  0  0  0  0
   11.2760  -17.0412   22.9796 C   0  0  0  0  0  0  0  0  0  0  0  0
   12.5248  -17.1366   23.0504 O   0  0  0  0  0  0  0  0  0  0  0  0
    8.5609  -21.6679   20.3927 O   0  0  0  0  0  0  0  0  0  0  0  0
   10.6187  -16.5794   24.1423 N   0  0  0  0  0  0  0  0  0  0  0  0
   11.3556  -16.3464   25.4028 C   0  0  1  0  0  0  0  0  0  0  0  0
   10.4030  -15.6470   26.3292 C   0  0  0  0  0  0  0  0  0  0  0  0
   10.9311  -15.3902   27.7050 C   0  0  0  0  0  0  0  0  0  0  0  0
    9.9258  -14.7498   28.6279 C   0  0  0  0  0  0  0  0  0  0  0  0
   10.4697  -14.5833   30.0304 C   0  0  0  0  0  0  0  0  0  0  0  0
    9.4985  -14.0661   30.9426 N   0  0  0  0  0  0  0  0  0  0  0  0
   11.8503  -17.6171   25.9410 C   0  0  0  0  0  0  0  0  0  0  0  0
   11.1608  -18.7999   25.7980 O   0  0  0  0  0  0  0  0  0  0  0  0
   12.9548  -17.6123   26.5612 O   0  0  0  0  0  0  0  0  0  0  0  0
  2  7  1  0
  2  1  1  6
  3  2  1  0
  4  3  1  0
  5  4  1  0
  6  5  2  0
  7  8  2  0
  9  5  1  0
 10  7  1  0
 10 11  1  0
 11 12  1  6
 12 13  1  0
 13 14  1  0
 14 18  1  0
 15 14  2  0
 16 17  2  0
 16 11  1  0
 19 16  1  0
 20 19  1  0
 20 21  1  1
 22 21  1  0
 23 22  1  0
 24 23  1  0
 25 24  1  0
 26 27  1  0
 26 20  1  0
 28 26  2  0
M  END
$$$$
