EEK.pdb
     RDKit          3D

 28 27  0  0  1  0  0  0  0  0999 V2000
    7.6429  -17.3984   18.5991 N   0  0  0  0  0  0  0  0  0  0  0  0
    8.8647  -16.8650   19.2387 C   0  0  1  0  0  0  0  0  0  0  0  0
    8.9171  -15.4266   18.8438 C   0  0  0  0  0  0  0  0  0  0  0  0
    8.5701  -15.1662   17.4204 C   0  0  0  0  0  0  0  0  0  0  0  0
    8.6278  -13.6727   17.2156 C   0  0  0  0  0  0  0  0  0  0  0  0
    8.2087  -13.1867   16.1732 O   0  0  0  0  0  0  0  0  0  0  0  0
    8.7110  -17.0427   20.6906 C   0  0  0  0  0  0  0  0  0  0  0  0
    7.5371  -17.1598   21.1775 O   0  0  0  0  0  0  0  0  0  0  0  0
    9.1547  -12.8906   18.2176 O   0  0  0  0  0  0  0  0  0  0  0  0
    9.7600  -17.1004   21.6159 N   0  0  0  0  0  0  0  0  0  0  0  0
    9.5630  -17.3734   23.0611 C   0  0  1  0  0  0  0  0  0  0  0  0
   10.6461  -18.3373   23.4048 C   0  0  0  0  0  0  0  0  0  0  0  0
   10.4430  -19.7580   23.0480 C   0  0  0  0  0  0  0  0  0  0  0  0
   11.6423  -20.5865   23.4663 C   0  0  0  0  0  0  0  0  0  0  0  0
   12.4991  -20.8926   22.5769 O   0  0  0  0  0  0  0  0  0  0  0  0
    9.5578  -16.1119   23.7976 C   0  0  0  0  0  0  0  0  0  0  0  0
   10.5771  -15.3809   23.7849 O   0  0  0  0  0  0  0  0  0  0  0  0
   11.8511  -21.0213   24.7410 O   0  0  0  0  0  0  0  0  0  0  0  0
    8.4576  -15.6351   24.5457 N   0  0  0  0  0  0  0  0  0  0  0  0
    8.5580  -14.4111   25.3690 C   0  0  1  0  0  0  0  0  0  0  0  0
    7.1843  -13.8055   25.3999 C   0  0  0  0  0  0  0  0  0  0  0  0
    7.0301  -12.6316   26.3139 C   0  0  0  0  0  0  0  0  0  0  0  0
    5.6213  -12.0993   26.3809 C   0  0  0  0  0  0  0  0  0  0  0  0
    5.5209  -10.8704   27.2584 C   0  0  0  0  0  0  0  0  0  0  0  0
    4.1919  -10.3495   27.3310 N   0  0  0  0  0  0  0  0  0  0  0  0
    9.0701  -14.7399   26.7027 C   0  0  0  0  0  0  0  0  0  0  0  0
    9.0835  -16.0258   27.1940 O   0  0  0  0  0  0  0  0  0  0  0  0
    9.5124  -13.7952   27.4212 O   0  0  0  0  0  0  0  0  0  0  0  0
  2  7  1  0
  2  1  1  6
  3  2  1  0
  4  3  1  0
  5  4  1  0
  6  5  2  0
  7  8  2  0
  9  5  1  0
 10  7  1  0
 10 11  1  0
 11 12  1  1
 12 13  1  0
 13 14  1  0
 14 18  1  0
 15 14  2  0
 16 17  2  0
 16 11  1  0
 19 16  1  0
 20 19  1  0
 20 21  1  1
 22 21  1  0
 23 22  1  0
 24 23  1  0
 25 24  1  0
 26 27  1  0
 26 20  1  0
 28 26  2  0
M  END
$$$$
