EEK.pdb
     RDKit          3D

 28 27  0  0  1  0  0  0  0  0999 V2000
   10.2833  -12.7219   19.1924 N   0  0  0  0  0  0  0  0  0  0  0  0
    8.9602  -13.3647   19.0426 C   0  0  1  0  0  0  0  0  0  0  0  0
    8.9359  -13.8892   17.6455 C   0  0  0  0  0  0  0  0  0  0  0  0
    7.6178  -14.4275   17.2130 C   0  0  0  0  0  0  0  0  0  0  0  0
    7.8933  -15.5520   16.2457 C   0  0  0  0  0  0  0  0  0  0  0  0
    7.6520  -16.7065   16.5730 O   0  0  0  0  0  0  0  0  0  0  0  0
    8.8793  -14.4372   20.0457 C   0  0  0  0  0  0  0  0  0  0  0  0
    7.7368  -14.9258   20.3366 O   0  0  0  0  0  0  0  0  0  0  0  0
    8.4127  -15.2444   15.0093 O   0  0  0  0  0  0  0  0  0  0  0  0
    9.9679  -14.9915   20.7296 N   0  0  0  0  0  0  0  0  0  0  0  0
    9.8441  -16.1106   21.6961 C   0  0  1  0  0  0  0  0  0  0  0  0
   11.0139  -16.9846   21.3993 C   0  0  0  0  0  0  0  0  0  0  0  0
   11.2844  -18.1100   22.3197 C   0  0  0  0  0  0  0  0  0  0  0  0
   12.5370  -18.8523   21.8961 C   0  0  0  0  0  0  0  0  0  0  0  0
   12.4893  -20.1222   21.8342 O   0  0  0  0  0  0  0  0  0  0  0  0
    9.7607  -15.5744   23.0524 C   0  0  0  0  0  0  0  0  0  0  0  0
   10.6007  -14.7262   23.4377 O   0  0  0  0  0  0  0  0  0  0  0  0
   13.7097  -18.2339   21.5797 O   0  0  0  0  0  0  0  0  0  0  0  0
    8.7747  -15.9479   23.9934 N   0  0  0  0  0  0  0  0  0  0  0  0
    8.7831  -15.4130   25.3718 C   0  0  1  0  0  0  0  0  0  0  0  0
    7.5110  -14.6315   25.5324 C   0  0  0  0  0  0  0  0  0  0  0  0
    7.6586  -13.3184   26.2333 C   0  0  0  0  0  0  0  0  0  0  0  0
    6.3572  -12.5783   26.4096 C   0  0  0  0  0  0  0  0  0  0  0  0
    6.5416  -11.2795   27.1643 C   0  0  0  0  0  0  0  0  0  0  0  0
    5.3034  -10.6260   27.4516 N   0  0  0  0  0  0  0  0  0  0  0  0
    8.9094  -16.5083   26.3379 C   0  0  0  0  0  0  0  0  0  0  0  0
    9.4265  -16.3256   27.6005 O   0  0  0  0  0  0  0  0  0  0  0  0
    8.5263  -17.6627   25.9840 O   0  0  0  0  0  0  0  0  0  0  0  0
  2  7  1  0
  2  1  1  1
  3  2  1  0
  4  3  1  0
  5  4  1  0
  6  5  2  0
  7  8  2  0
  9  5  1  0
 10  7  1  0
 10 11  1  0
 11 12  1  1
 12 13  1  0
 13 14  1  0
 14 18  1  0
 15 14  2  0
 16 17  2  0
 16 11  1  0
 19 16  1  0
 20 19  1  0
 20 21  1  1
 22 21  1  0
 23 22  1  0
 24 23  1  0
 25 24  1  0
 26 27  1  0
 26 20  1  0
 28 26  2  0
M  END
$$$$
