EEK.pdb
     RDKit          3D

 28 27  0  0  1  0  0  0  0  0999 V2000
   13.5070  -19.0105   18.6933 N   0  0  0  0  0  0  0  0  0  0  0  0
   13.9554  -19.4767   20.0229 C   0  0  1  0  0  0  0  0  0  0  0  0
   15.1508  -18.6438   20.3470 C   0  0  0  0  0  0  0  0  0  0  0  0
   15.9836  -18.2781   19.1693 C   0  0  0  0  0  0  0  0  0  0  0  0
   17.1648  -17.4953   19.6870 C   0  0  0  0  0  0  0  0  0  0  0  0
   16.9783  -16.4800   20.3449 O   0  0  0  0  0  0  0  0  0  0  0  0
   12.8452  -19.2535   20.9614 C   0  0  0  0  0  0  0  0  0  0  0  0
   12.0891  -18.2392   20.7935 O   0  0  0  0  0  0  0  0  0  0  0  0
   18.4318  -17.9502   19.4027 O   0  0  0  0  0  0  0  0  0  0  0  0
   12.5276  -20.0730   22.0512 N   0  0  0  0  0  0  0  0  0  0  0  0
   11.3114  -19.8952   22.8824 C   0  0  1  0  0  0  0  0  0  0  0  0
   11.0089  -21.2632   23.3898 C   0  0  0  0  0  0  0  0  0  0  0  0
   12.0760  -22.2830   23.3003 C   0  0  0  0  0  0  0  0  0  0  0  0
   11.5990  -23.6018   23.8771 C   0  0  0  0  0  0  0  0  0  0  0  0
   12.1261  -24.6736   23.4384 O   0  0  0  0  0  0  0  0  0  0  0  0
   11.5580  -18.8676   23.8910 C   0  0  0  0  0  0  0  0  0  0  0  0
   12.7209  -18.6920   24.3273 O   0  0  0  0  0  0  0  0  0  0  0  0
   10.6371  -23.7013   24.8375 O   0  0  0  0  0  0  0  0  0  0  0  0
   10.5564  -18.0282   24.4291 N   0  0  0  0  0  0  0  0  0  0  0  0
   10.8748  -17.0026   25.4455 C   0  0  1  0  0  0  0  0  0  0  0  0
    9.6392  -16.1643   25.6051 C   0  0  0  0  0  0  0  0  0  0  0  0
    9.7546  -15.0482   26.5942 C   0  0  0  0  0  0  0  0  0  0  0  0
    8.4660  -14.2959   26.8089 C   0  0  0  0  0  0  0  0  0  0  0  0
    8.6064  -13.2212   27.8653 C   0  0  0  0  0  0  0  0  0  0  0  0
    7.3603  -12.6041   28.1956 N   0  0  0  0  0  0  0  0  0  0  0  0
   11.2985  -17.6433   26.6941 C   0  0  0  0  0  0  0  0  0  0  0  0
   12.2535  -17.0951   27.5202 O   0  0  0  0  0  0  0  0  0  0  0  0
   10.7591  -18.7443   27.0123 O   0  0  0  0  0  0  0  0  0  0  0  0
  2  7  1  0
  2  1  1  6
  3  2  1  0
  4  3  1  0
  5  4  1  0
  6  5  2  0
  7  8  2  0
  9  5  1  0
 10  7  1  0
 10 11  1  0
 11 12  1  1
 12 13  1  0
 13 14  1  0
 14 18  1  0
 15 14  2  0
 16 17  2  0
 16 11  1  0
 19 16  1  0
 20 19  1  0
 20 21  1  1
 22 21  1  0
 23 22  1  0
 24 23  1  0
 25 24  1  0
 26 27  1  0
 26 20  1  0
 28 26  2  0
M  END
$$$$
