NVW.pdb
     RDKit          3D

 30 31  0  0  1  0  0  0  0  0999 V2000
   12.5906  -16.6361   15.2752 N   0  0  0  0  0  0  0  0  0  0  0  0
   11.2864  -17.0668   15.5536 C   0  0  0  0  0  0  0  0  0  0  0  0
   10.8261  -18.0863   15.0146 O   0  0  0  0  0  0  0  0  0  0  0  0
   10.4276  -16.3190   16.4942 C   0  0  0  0  0  0  0  0  0  0  0  0
   10.6513  -16.9161   17.8695 C   0  0  2  0  0  0  0  0  0  0  0  0
   10.0516  -18.2156   17.9971 N   0  0  0  0  0  0  0  0  0  0  0  0
   10.1732  -16.0228   18.9444 C   0  0  0  0  0  0  0  0  0  0  0  0
   10.5988  -14.8356   19.0775 O   0  0  0  0  0  0  0  0  0  0  0  0
    6.7631  -14.4311   20.0030 C   0  0  0  0  0  0  0  0  0  0  0  0
    7.3277  -15.2980   21.1073 C   0  0  1  0  0  0  0  0  0  0  0  0
    6.5074  -16.5439   21.3319 C   0  0  0  0  0  0  0  0  0  0  0  0
    8.7833  -15.5596   20.9727 C   0  0  2  0  0  0  0  0  0  0  0  0
    9.2135  -16.3907   19.9129 N   0  0  0  0  0  0  0  0  0  0  0  0
    9.2492  -16.1625   22.2650 C   0  0  0  0  0  0  0  0  0  0  0  0
    9.7054  -17.3424   22.2997 O   0  0  0  0  0  0  0  0  0  0  0  0
    9.1789  -15.4059   23.4556 N   0  0  0  0  0  0  0  0  0  0  0  0
    9.6399  -15.9907   24.7142 C   0  0  1  0  0  0  0  0  0  0  0  0
    9.5593  -14.9888   25.8185 C   0  0  0  0  0  0  0  0  0  0  0  0
    8.1890  -14.5246   26.0442 C   0  0  0  0  0  0  0  0  0  0  0  0
    7.0428  -15.3157   26.0047 C   0  0  0  0  0  0  0  0  0  0  0  0
    5.9604  -14.5561   26.2164 N   0  0  0  0  0  0  0  0  0  0  0  0
    6.3318  -13.2830   26.3982 C   0  0  0  0  0  0  0  0  0  0  0  0
    5.5997  -12.1446   26.6643 C   0  0  0  0  0  0  0  0  0  0  0  0
    6.2003  -10.9210   26.8412 C   0  0  0  0  0  0  0  0  0  0  0  0
    7.5808  -10.9002   26.7365 C   0  0  0  0  0  0  0  0  0  0  0  0
    8.3294  -12.0252   26.4708 C   0  0  0  0  0  0  0  0  0  0  0  0
    7.7051  -13.2442   26.2957 C   0  0  0  0  0  0  0  0  0  0  0  0
    9.0135  -17.2774   24.9822 C   0  0  0  0  0  0  0  0  0  0  0  0
    7.9250  -17.6809   24.5260 O   0  0  0  0  0  0  0  0  0  0  0  0
    9.6804  -18.1750   25.8379 O   0  0  0  0  0  0  0  0  0  0  0  0
  2  4  1  0
  2  1  1  0
  3  2  2  0
  5  4  1  0
  5  6  1  6
  7  5  1  0
  8  7  2  0
 10  9  1  6
 11 10  1  0
 12 10  1  0
 12 13  1  6
 13  7  1  0
 14 12  1  0
 15 14  2  0
 16 14  1  0
 17 16  1  0
 17 18  1  1
 19 18  1  0
 20 19  2  0
 21 22  1  0
 21 20  1  0
 22 27  2  0
 23 22  1  0
 23 24  2  0
 24 25  1  0
 25 26  2  0
 27 19  1  0
 27 26  1  0
 28 17  1  0
 28 30  1  0
 29 28  2  0
M  END
$$$$
