NVW.pdb
     RDKit          3D

 30 31  0  0  1  0  0  0  0  0999 V2000
   12.3855  -19.0124   17.3297 N   0  0  0  0  0  0  0  0  0  0  0  0
   12.8737  -19.2448   18.6227 C   0  0  0  0  0  0  0  0  0  0  0  0
   13.4618  -20.3030   18.8983 O   0  0  0  0  0  0  0  0  0  0  0  0
   12.7004  -18.2375   19.6887 C   0  0  0  0  0  0  0  0  0  0  0  0
   11.9128  -17.0889   19.0899 C   0  0  2  0  0  0  0  0  0  0  0  0
   12.7382  -16.2307   18.2856 N   0  0  0  0  0  0  0  0  0  0  0  0
   11.2095  -16.3024   20.1236 C   0  0  0  0  0  0  0  0  0  0  0  0
   11.8285  -15.5808   20.9630 O   0  0  0  0  0  0  0  0  0  0  0  0
    7.0126  -14.5564   22.2138 C   0  0  0  0  0  0  0  0  0  0  0  0
    7.7056  -15.1672   21.0154 C   0  0  1  0  0  0  0  0  0  0  0  0
    7.5024  -14.3535   19.7614 C   0  0  0  0  0  0  0  0  0  0  0  0
    9.1240  -15.5272   21.2682 C   0  0  2  0  0  0  0  0  0  0  0  0
    9.8062  -16.2732   20.2798 N   0  0  0  0  0  0  0  0  0  0  0  0
    9.1658  -16.2980   22.5546 C   0  0  0  0  0  0  0  0  0  0  0  0
    9.2890  -17.5574   22.5491 O   0  0  0  0  0  0  0  0  0  0  0  0
    9.0671  -15.6116   23.7851 N   0  0  0  0  0  0  0  0  0  0  0  0
    9.1320  -16.3601   25.0397 C   0  0  1  0  0  0  0  0  0  0  0  0
    9.1119  -15.4293   26.2073 C   0  0  0  0  0  0  0  0  0  0  0  0
    7.8893  -14.6248   26.2513 C   0  0  0  0  0  0  0  0  0  0  0  0
    6.5924  -15.1010   26.0716 C   0  0  0  0  0  0  0  0  0  0  0  0
    5.7232  -14.0842   26.1361 N   0  0  0  0  0  0  0  0  0  0  0  0
    6.3833  -12.9402   26.3533 C   0  0  0  0  0  0  0  0  0  0  0  0
    5.9404  -11.6437   26.5136 C   0  0  0  0  0  0  0  0  0  0  0  0
    6.8083  -10.6057   26.7558 C   0  0  0  0  0  0  0  0  0  0  0  0
    8.1501  -10.9392   26.8290 C   0  0  0  0  0  0  0  0  0  0  0  0
    8.6122  -12.2269   26.6711 C   0  0  0  0  0  0  0  0  0  0  0  0
    7.7226  -13.2544   26.4277 C   0  0  0  0  0  0  0  0  0  0  0  0
    8.1623  -17.4454   25.0808 C   0  0  0  0  0  0  0  0  0  0  0  0
    7.0933  -17.5085   24.4411 O   0  0  0  0  0  0  0  0  0  0  0  0
    8.4324  -18.5456   25.9170 O   0  0  0  0  0  0  0  0  0  0  0  0
  2  4  1  0
  2  1  1  0
  3  2  2  0
  5  4  1  0
  5  6  1  1
  7  5  1  0
  8  7  2  0
 10  9  1  1
 11 10  1  0
 12 10  1  0
 12 13  1  6
 13  7  1  0
 14 12  1  0
 15 14  2  0
 16 14  1  0
 17 16  1  0
 17 18  1  1
 19 18  1  0
 20 19  2  0
 21 22  1  0
 21 20  1  0
 22 27  2  0
 23 22  1  0
 23 24  2  0
 24 25  1  0
 25 26  2  0
 27 19  1  0
 27 26  1  0
 28 17  1  0
 28 30  1  0
 29 28  2  0
M  END
$$$$
