NVW.pdb
     RDKit          3D

 30 31  0  0  1  0  0  0  0  0999 V2000
   13.4914  -18.6606   17.6439 N   0  0  0  0  0  0  0  0  0  0  0  0
   13.9349  -17.3527   17.8818 C   0  0  0  0  0  0  0  0  0  0  0  0
   14.7756  -16.8224   17.1377 O   0  0  0  0  0  0  0  0  0  0  0  0
   13.4139  -16.5734   19.0231 C   0  0  0  0  0  0  0  0  0  0  0  0
   12.3108  -15.6832   18.4856 C   0  0  2  0  0  0  0  0  0  0  0  0
   12.8180  -14.6707   17.6012 N   0  0  0  0  0  0  0  0  0  0  0  0
   11.5196  -15.0672   19.5702 C   0  0  0  0  0  0  0  0  0  0  0  0
   11.9454  -14.0793   20.2418 O   0  0  0  0  0  0  0  0  0  0  0  0
    7.2693  -13.9796   21.8065 C   0  0  0  0  0  0  0  0  0  0  0  0
    8.0389  -14.5603   20.6402 C   0  0  1  0  0  0  0  0  0  0  0  0
    7.8845  -13.7359   19.3863 C   0  0  0  0  0  0  0  0  0  0  0  0
    9.4496  -14.8921   20.9647 C   0  0  2  0  0  0  0  0  0  0  0  0
   10.2353  -15.5050   19.9618 N   0  0  0  0  0  0  0  0  0  0  0  0
    9.4311  -15.7909   22.1658 C   0  0  0  0  0  0  0  0  0  0  0  0
    9.5246  -17.0461   22.0344 O   0  0  0  0  0  0  0  0  0  0  0  0
    9.3086  -15.2313   23.4568 N   0  0  0  0  0  0  0  0  0  0  0  0
    9.4719  -16.0830   24.6343 C   0  0  1  0  0  0  0  0  0  0  0  0
    9.4834  -15.2591   25.8797 C   0  0  0  0  0  0  0  0  0  0  0  0
    8.1818  -14.6441   26.1472 C   0  0  0  0  0  0  0  0  0  0  0  0
    6.9564  -15.3066   26.1732 C   0  0  0  0  0  0  0  0  0  0  0  0
    5.9719  -14.4295   26.4078 N   0  0  0  0  0  0  0  0  0  0  0  0
    6.4857  -13.2007   26.5420 C   0  0  0  0  0  0  0  0  0  0  0  0
    5.8922  -11.9841   26.8074 C   0  0  0  0  0  0  0  0  0  0  0  0
    6.6280  -10.8296   26.9291 C   0  0  0  0  0  0  0  0  0  0  0  0
    7.9971  -10.9612   26.7696 C   0  0  0  0  0  0  0  0  0  0  0  0
    8.6084  -12.1663   26.5036 C   0  0  0  0  0  0  0  0  0  0  0  0
    7.8496  -13.3136   26.3846 C   0  0  0  0  0  0  0  0  0  0  0  0
    8.5468  -17.2072   24.6297 C   0  0  0  0  0  0  0  0  0  0  0  0
    7.4570  -17.2675   24.0260 O   0  0  0  0  0  0  0  0  0  0  0  0
    8.8912  -18.3533   25.3717 O   0  0  0  0  0  0  0  0  0  0  0  0
  2  4  1  0
  2  1  1  0
  3  2  2  0
  5  4  1  0
  5  6  1  1
  7  5  1  0
  8  7  2  0
 10  9  1  1
 11 10  1  0
 12 10  1  0
 12 13  1  6
 13  7  1  0
 14 12  1  0
 15 14  2  0
 16 14  1  0
 17 16  1  0
 17 18  1  1
 19 18  1  0
 20 19  2  0
 21 22  1  0
 21 20  1  0
 22 27  2  0
 23 22  1  0
 23 24  2  0
 24 25  1  0
 25 26  2  0
 27 19  1  0
 27 26  1  0
 28 17  1  0
 28 30  1  0
 29 28  2  0
M  END
$$$$
