NVW.pdb
     RDKit          3D

 30 31  0  0  1  0  0  0  0  0999 V2000
   13.8053  -18.4778   18.2787 N   0  0  0  0  0  0  0  0  0  0  0  0
   13.9145  -17.1056   18.0150 C   0  0  0  0  0  0  0  0  0  0  0  0
   14.9306  -16.6427   17.4719 O   0  0  0  0  0  0  0  0  0  0  0  0
   12.8245  -16.1770   18.3766 C   0  0  0  0  0  0  0  0  0  0  0  0
   11.7755  -16.9888   19.1106 C   0  0  2  0  0  0  0  0  0  0  0  0
   10.8260  -17.5825   18.2103 N   0  0  0  0  0  0  0  0  0  0  0  0
   11.0775  -16.1899   20.1385 C   0  0  0  0  0  0  0  0  0  0  0  0
   11.7000  -15.5781   21.0586 O   0  0  0  0  0  0  0  0  0  0  0  0
    6.9116  -14.3308   22.2006 C   0  0  0  0  0  0  0  0  0  0  0  0
    7.5770  -14.9621   20.9971 C   0  0  1  0  0  0  0  0  0  0  0  0
    7.3725  -14.1525   19.7407 C   0  0  0  0  0  0  0  0  0  0  0  0
    8.9915  -15.3475   21.2335 C   0  0  2  0  0  0  0  0  0  0  0  0
    9.6759  -16.0282   20.2005 N   0  0  0  0  0  0  0  0  0  0  0  0
    9.0202  -16.2049   22.4642 C   0  0  0  0  0  0  0  0  0  0  0  0
    9.1116  -17.4637   22.3723 O   0  0  0  0  0  0  0  0  0  0  0  0
    8.9449  -15.6017   23.7392 N   0  0  0  0  0  0  0  0  0  0  0  0
    9.2011  -16.4022   24.9358 C   0  0  1  0  0  0  0  0  0  0  0  0
    9.3239  -15.5243   26.1376 C   0  0  0  0  0  0  0  0  0  0  0  0
    8.1032  -14.7550   26.3866 C   0  0  0  0  0  0  0  0  0  0  0  0
    6.8122  -15.2741   26.4587 C   0  0  0  0  0  0  0  0  0  0  0  0
    5.9352  -14.2818   26.6583 N   0  0  0  0  0  0  0  0  0  0  0  0
    6.5845  -13.1131   26.7246 C   0  0  0  0  0  0  0  0  0  0  0  0
    6.1344  -11.8261   26.9338 C   0  0  0  0  0  0  0  0  0  0  0  0
    6.9959  -10.7565   26.9891 C   0  0  0  0  0  0  0  0  0  0  0  0
    8.3392  -11.0483   26.8227 C   0  0  0  0  0  0  0  0  0  0  0  0
    8.8083  -12.3259   26.6121 C   0  0  0  0  0  0  0  0  0  0  0  0
    7.9248  -13.3856   26.5593 C   0  0  0  0  0  0  0  0  0  0  0  0
    8.2709  -17.5154   25.0597 C   0  0  0  0  0  0  0  0  0  0  0  0
    7.1712  -17.6297   24.4825 O   0  0  0  0  0  0  0  0  0  0  0  0
    8.6221  -18.5826   25.9085 O   0  0  0  0  0  0  0  0  0  0  0  0
  2  4  1  0
  2  1  1  0
  3  2  2  0
  5  4  1  0
  5  6  1  6
  7  5  1  0
  8  7  2  0
 10  9  1  1
 11 10  1  0
 12 10  1  0
 12 13  1  6
 13  7  1  0
 14 12  1  0
 15 14  2  0
 16 14  1  0
 17 16  1  0
 17 18  1  1
 19 18  1  0
 20 19  2  0
 21 22  1  0
 21 20  1  0
 22 27  2  0
 23 22  1  0
 23 24  2  0
 24 25  1  0
 25 26  2  0
 27 19  1  0
 27 26  1  0
 28 17  1  0
 28 30  1  0
 29 28  2  0
M  END
$$$$
