NVW.pdb
     RDKit          3D

 30 31  0  0  1  0  0  0  0  0999 V2000
   10.7180  -19.9006   17.0126 N   0  0  0  0  0  0  0  0  0  0  0  0
    9.4710  -19.2659   16.9333 C   0  0  0  0  0  0  0  0  0  0  0  0
    8.5789  -19.7099   16.1925 O   0  0  0  0  0  0  0  0  0  0  0  0
    9.1876  -18.0538   17.7281 C   0  0  0  0  0  0  0  0  0  0  0  0
    9.4948  -18.3897   19.1741 C   0  0  2  0  0  0  0  0  0  0  0  0
    8.4575  -19.1815   19.7756 N   0  0  0  0  0  0  0  0  0  0  0  0
    9.7489  -17.1788   19.9810 C   0  0  0  0  0  0  0  0  0  0  0  0
   10.8667  -16.5799   19.9696 O   0  0  0  0  0  0  0  0  0  0  0  0
    7.8947  -13.1084   22.1321 C   0  0  0  0  0  0  0  0  0  0  0  0
    7.6595  -14.4882   21.5572 C   0  0  1  0  0  0  0  0  0  0  0  0
    6.7715  -14.4557   20.3381 C   0  0  0  0  0  0  0  0  0  0  0  0
    8.9056  -15.2729   21.3654 C   0  0  2  0  0  0  0  0  0  0  0  0
    8.7938  -16.5762   20.8290 N   0  0  0  0  0  0  0  0  0  0  0  0
    9.5825  -15.3680   22.7009 C   0  0  0  0  0  0  0  0  0  0  0  0
   10.5387  -14.5936   22.9967 O   0  0  0  0  0  0  0  0  0  0  0  0
    9.1484  -16.3310   23.6384 N   0  0  0  0  0  0  0  0  0  0  0  0
    9.8617  -16.4811   24.9062 C   0  0  1  0  0  0  0  0  0  0  0  0
    9.6317  -15.2929   25.7811 C   0  0  0  0  0  0  0  0  0  0  0  0
    8.2154  -14.9294   25.8580 C   0  0  0  0  0  0  0  0  0  0  0  0
    7.1398  -15.7900   25.6491 C   0  0  0  0  0  0  0  0  0  0  0  0
    5.9897  -15.1128   25.7585 N   0  0  0  0  0  0  0  0  0  0  0  0
    6.2474  -13.8285   26.0340 C   0  0  0  0  0  0  0  0  0  0  0  0
    5.4114  -12.7536   26.2546 C   0  0  0  0  0  0  0  0  0  0  0  0
    5.9003  -11.5036   26.5510 C   0  0  0  0  0  0  0  0  0  0  0  0
    7.2787  -11.3889   26.6146 C   0  0  0  0  0  0  0  0  0  0  0  0
    8.1299  -12.4493   26.3969 C   0  0  0  0  0  0  0  0  0  0  0  0
    7.6172  -13.6963   26.0996 C   0  0  0  0  0  0  0  0  0  0  0  0
    9.6151  -17.7766   25.5233 C   0  0  0  0  0  0  0  0  0  0  0  0
    8.8070  -18.6421   25.1316 O   0  0  0  0  0  0  0  0  0  0  0  0
   10.3478  -18.1119   26.6780 O   0  0  0  0  0  0  0  0  0  0  0  0
  2  4  1  0
  2  1  1  0
  3  2  2  0
  5  4  1  0
  5  6  1  1
  7  5  1  0
  8  7  2  0
 10  9  1  6
 11 10  1  0
 12 10  1  0
 12 13  1  1
 13  7  1  0
 14 12  1  0
 15 14  2  0
 16 14  1  0
 17 16  1  0
 17 18  1  1
 19 18  1  0
 20 19  2  0
 21 22  1  0
 21 20  1  0
 22 27  2  0
 23 22  1  0
 23 24  2  0
 24 25  1  0
 25 26  2  0
 27 19  1  0
 27 26  1  0
 28 17  1  0
 28 30  1  0
 29 28  2  0
M  END
$$$$
