NVW.pdb
     RDKit          3D

 30 31  0  0  1  0  0  0  0  0999 V2000
   13.6068  -17.1618   17.0883 N   0  0  0  0  0  0  0  0  0  0  0  0
   14.3718  -16.4634   18.0323 C   0  0  0  0  0  0  0  0  0  0  0  0
   15.5916  -16.6695   18.1385 O   0  0  0  0  0  0  0  0  0  0  0  0
   13.7462  -15.4658   18.9238 C   0  0  0  0  0  0  0  0  0  0  0  0
   12.2899  -15.3587   18.5167 C   0  0  2  0  0  0  0  0  0  0  0  0
   12.1190  -14.5685   17.3288 N   0  0  0  0  0  0  0  0  0  0  0  0
   11.4477  -14.8308   19.6094 C   0  0  0  0  0  0  0  0  0  0  0  0
   11.7162  -13.7447   20.2068 O   0  0  0  0  0  0  0  0  0  0  0  0
    7.1725  -14.2206   21.9084 C   0  0  0  0  0  0  0  0  0  0  0  0
    8.0023  -14.7289   20.7497 C   0  0  1  0  0  0  0  0  0  0  0  0
    7.7902  -13.9177   19.4956 C   0  0  0  0  0  0  0  0  0  0  0  0
    9.4329  -14.9375   21.0890 C   0  0  2  0  0  0  0  0  0  0  0  0
   10.2820  -15.4668   20.0902 N   0  0  0  0  0  0  0  0  0  0  0  0
    9.4802  -15.8479   22.2805 C   0  0  0  0  0  0  0  0  0  0  0  0
    9.7010  -17.0859   22.1388 O   0  0  0  0  0  0  0  0  0  0  0  0
    9.2770  -15.3186   23.5741 N   0  0  0  0  0  0  0  0  0  0  0  0
    9.4066  -16.1891   24.7419 C   0  0  1  0  0  0  0  0  0  0  0  0
    9.3367  -15.3903   26.0017 C   0  0  0  0  0  0  0  0  0  0  0  0
    8.0474  -14.7136   26.1559 C   0  0  0  0  0  0  0  0  0  0  0  0
    6.7941  -15.3148   26.0608 C   0  0  0  0  0  0  0  0  0  0  0  0
    5.8359  -14.3919   26.2146 N   0  0  0  0  0  0  0  0  0  0  0  0
    6.3941  -13.1912   26.4107 C   0  0  0  0  0  0  0  0  0  0  0  0
    5.8385  -11.9487   26.6353 C   0  0  0  0  0  0  0  0  0  0  0  0
    6.6152  -10.8330   26.8384 C   0  0  0  0  0  0  0  0  0  0  0  0
    7.9851  -11.0311   26.8040 C   0  0  0  0  0  0  0  0  0  0  0  0
    8.5591  -12.2628   26.5805 C   0  0  0  0  0  0  0  0  0  0  0  0
    7.7597  -13.3702   26.3780 C   0  0  0  0  0  0  0  0  0  0  0  0
    8.5131  -17.3366   24.6717 C   0  0  0  0  0  0  0  0  0  0  0  0
    7.4488  -17.4084   24.0254 O   0  0  0  0  0  0  0  0  0  0  0  0
    8.8604  -18.4935   25.3952 O   0  0  0  0  0  0  0  0  0  0  0  0
  2  4  1  0
  2  1  1  0
  3  2  2  0
  5  4  1  0
  5  6  1  6
  7  5  1  0
  8  7  2  0
 10  9  1  1
 11 10  1  0
 12 10  1  0
 12 13  1  6
 13  7  1  0
 14 12  1  0
 15 14  2  0
 16 14  1  0
 17 16  1  0
 17 18  1  1
 19 18  1  0
 20 19  2  0
 21 22  1  0
 21 20  1  0
 22 27  2  0
 23 22  1  0
 23 24  2  0
 24 25  1  0
 25 26  2  0
 27 19  1  0
 27 26  1  0
 28 17  1  0
 28 30  1  0
 29 28  2  0
M  END
$$$$
