NVW.pdb
     RDKit          3D

 30 31  0  0  1  0  0  0  0  0999 V2000
    8.4215  -12.3278   18.2371 N   0  0  0  0  0  0  0  0  0  0  0  0
    7.6351  -13.4418   17.9136 C   0  0  0  0  0  0  0  0  0  0  0  0
    7.0127  -13.4891   16.8402 O   0  0  0  0  0  0  0  0  0  0  0  0
    7.5270  -14.5861   18.8410 C   0  0  0  0  0  0  0  0  0  0  0  0
    8.2756  -14.2062   20.1033 C   0  0  2  0  0  0  0  0  0  0  0  0
    9.5618  -13.6336   19.8155 N   0  0  0  0  0  0  0  0  0  0  0  0
    8.4185  -15.3501   21.0268 C   0  0  0  0  0  0  0  0  0  0  0  0
    7.4317  -16.0667   21.3748 O   0  0  0  0  0  0  0  0  0  0  0  0
   11.0351  -18.9897   23.0622 C   0  0  0  0  0  0  0  0  0  0  0  0
   10.9097  -17.8371   22.0898 C   0  0  1  0  0  0  0  0  0  0  0  0
   10.9044  -18.2988   20.6537 C   0  0  0  0  0  0  0  0  0  0  0  0
    9.8057  -16.8996   22.4179 C   0  0  2  0  0  0  0  0  0  0  0  0
    9.6422  -15.7553   21.6039 N   0  0  0  0  0  0  0  0  0  0  0  0
   10.0109  -16.4472   23.8335 C   0  0  0  0  0  0  0  0  0  0  0  0
   10.8233  -15.5148   24.1020 O   0  0  0  0  0  0  0  0  0  0  0  0
    9.2900  -17.0673   24.8778 N   0  0  0  0  0  0  0  0  0  0  0  0
    9.5646  -16.6990   26.2662 C   0  0  1  0  0  0  0  0  0  0  0  0
    8.2897  -16.5083   27.0200 C   0  0  0  0  0  0  0  0  0  0  0  0
    7.4553  -15.4558   26.4368 C   0  0  0  0  0  0  0  0  0  0  0  0
    6.3328  -15.6546   25.6358 C   0  0  0  0  0  0  0  0  0  0  0  0
    5.8395  -14.4723   25.2454 N   0  0  0  0  0  0  0  0  0  0  0  0
    6.5852  -13.4832   25.7527 C   0  0  0  0  0  0  0  0  0  0  0  0
    6.4754  -12.1116   25.6560 C   0  0  0  0  0  0  0  0  0  0  0  0
    7.3552  -11.2671   26.2901 C   0  0  0  0  0  0  0  0  0  0  0  0
    8.3556  -11.8748   27.0297 C   0  0  0  0  0  0  0  0  0  0  0  0
    8.4826  -13.2418   27.1380 C   0  0  0  0  0  0  0  0  0  0  0  0
    7.5880  -14.0715   26.4918 C   0  0  0  0  0  0  0  0  0  0  0  0
   10.5377  -17.5869   26.8862 C   0  0  0  0  0  0  0  0  0  0  0  0
   10.8404  -18.7357   26.5060 O   0  0  0  0  0  0  0  0  0  0  0  0
   11.2197  -17.1293   28.0299 O   0  0  0  0  0  0  0  0  0  0  0  0
  2  4  1  0
  2  1  1  0
  3  2  2  0
  5  4  1  0
  5  6  1  6
  7  5  1  0
  8  7  2  0
 10  9  1  1
 11 10  1  0
 12 10  1  0
 12 13  1  6
 13  7  1  0
 14 12  1  0
 15 14  2  0
 16 14  1  0
 17 16  1  0
 17 18  1  1
 19 18  1  0
 20 19  2  0
 21 22  1  0
 21 20  1  0
 22 27  2  0
 23 22  1  0
 23 24  2  0
 24 25  1  0
 25 26  2  0
 27 19  1  0
 27 26  1  0
 28 17  1  0
 28 30  1  0
 29 28  2  0
M  END
$$$$
