NVW.pdb
     RDKit          3D

 30 31  0  0  1  0  0  0  0  0999 V2000
    4.7394  -20.3655   22.3046 N   0  0  0  0  0  0  0  0  0  0  0  0
    5.9080  -20.6061   21.5693 C   0  0  0  0  0  0  0  0  0  0  0  0
    5.9864  -21.5797   20.8027 O   0  0  0  0  0  0  0  0  0  0  0  0
    7.0746  -19.7082   21.6885 C   0  0  0  0  0  0  0  0  0  0  0  0
    7.0122  -18.7427   20.5214 C   0  0  2  0  0  0  0  0  0  0  0  0
    7.3422  -19.3798   19.2765 N   0  0  0  0  0  0  0  0  0  0  0  0
    7.8708  -17.5600   20.7358 C   0  0  0  0  0  0  0  0  0  0  0  0
    9.1358  -17.6404   20.7773 O   0  0  0  0  0  0  0  0  0  0  0  0
    8.6517  -12.6550   21.0375 C   0  0  0  0  0  0  0  0  0  0  0  0
    7.6795  -13.7834   20.7704 C   0  0  1  0  0  0  0  0  0  0  0  0
    7.1318  -13.7455   19.3653 C   0  0  0  0  0  0  0  0  0  0  0  0
    8.1915  -15.1177   21.1741 C   0  0  2  0  0  0  0  0  0  0  0  0
    7.3821  -16.2468   20.9118 N   0  0  0  0  0  0  0  0  0  0  0  0
    8.4634  -15.0634   22.6485 C   0  0  0  0  0  0  0  0  0  0  0  0
    7.8132  -14.2765   23.3964 O   0  0  0  0  0  0  0  0  0  0  0  0
    9.4547  -15.8992   23.2084 N   0  0  0  0  0  0  0  0  0  0  0  0
   10.0912  -15.5235   24.4703 C   0  0  1  0  0  0  0  0  0  0  0  0
    9.3199  -16.0655   25.6284 C   0  0  0  0  0  0  0  0  0  0  0  0
    8.0475  -15.3669   25.8202 C   0  0  0  0  0  0  0  0  0  0  0  0
    6.7846  -15.8766   25.5262 C   0  0  0  0  0  0  0  0  0  0  0  0
    5.8509  -14.9528   25.7874 N   0  0  0  0  0  0  0  0  0  0  0  0
    6.4348  -13.8395   26.2473 C   0  0  0  0  0  0  0  0  0  0  0  0
    5.9082  -12.6355   26.6666 C   0  0  0  0  0  0  0  0  0  0  0  0
    6.7062  -11.6177   27.1320 C   0  0  0  0  0  0  0  0  0  0  0  0
    8.0668  -11.8734   27.1545 C   0  0  0  0  0  0  0  0  0  0  0  0
    8.6120  -13.0681   26.7396 C   0  0  0  0  0  0  0  0  0  0  0  0
    7.7916  -14.0767   26.2748 C   0  0  0  0  0  0  0  0  0  0  0  0
   11.5182  -15.8126   24.4713 C   0  0  0  0  0  0  0  0  0  0  0  0
   12.1480  -16.4386   23.5955 O   0  0  0  0  0  0  0  0  0  0  0  0
   12.2881  -15.3515   25.5564 O   0  0  0  0  0  0  0  0  0  0  0  0
  2  4  1  0
  2  1  1  0
  3  2  2  0
  5  4  1  0
  5  6  1  6
  7  5  1  0
  8  7  2  0
 10  9  1  6
 11 10  1  0
 12 10  1  0
 12 13  1  1
 13  7  1  0
 14 12  1  0
 15 14  2  0
 16 14  1  0
 17 16  1  0
 17 18  1  1
 19 18  1  0
 20 19  2  0
 21 22  1  0
 21 20  1  0
 22 27  2  0
 23 22  1  0
 23 24  2  0
 24 25  1  0
 25 26  2  0
 27 19  1  0
 27 26  1  0
 28 17  1  0
 28 30  1  0
 29 28  2  0
M  END
$$$$
