NVW.pdb
     RDKit          3D

 30 31  0  0  1  0  0  0  0  0999 V2000
    5.4812  -20.4324   20.1723 N   0  0  0  0  0  0  0  0  0  0  0  0
    6.7425  -20.6933   20.7248 C   0  0  0  0  0  0  0  0  0  0  0  0
    7.0808  -21.8521   21.0153 O   0  0  0  0  0  0  0  0  0  0  0  0
    7.6998  -19.5968   20.9753 C   0  0  0  0  0  0  0  0  0  0  0  0
    7.4789  -18.5592   19.8924 C   0  0  2  0  0  0  0  0  0  0  0  0
    7.8380  -19.0527   18.5915 N   0  0  0  0  0  0  0  0  0  0  0  0
    8.1956  -17.2998   20.1790 C   0  0  0  0  0  0  0  0  0  0  0  0
    9.4452  -17.1764   20.0011 O   0  0  0  0  0  0  0  0  0  0  0  0
    8.4541  -12.4496   21.1420 C   0  0  0  0  0  0  0  0  0  0  0  0
    7.6211  -13.6449   20.7333 C   0  0  1  0  0  0  0  0  0  0  0  0
    7.1151  -13.5314   19.3167 C   0  0  0  0  0  0  0  0  0  0  0  0
    8.2651  -14.9490   21.0329 C   0  0  2  0  0  0  0  0  0  0  0  0
    7.5764  -16.1289   20.6691 N   0  0  0  0  0  0  0  0  0  0  0  0
    8.5240  -14.9894   22.5101 C   0  0  0  0  0  0  0  0  0  0  0  0
    7.6709  -14.5365   23.3277 O   0  0  0  0  0  0  0  0  0  0  0  0
    9.7318  -15.5388   22.9941 N   0  0  0  0  0  0  0  0  0  0  0  0
   10.0454  -15.4563   24.4200 C   0  0  1  0  0  0  0  0  0  0  0  0
    9.0587  -16.2413   25.2202 C   0  0  0  0  0  0  0  0  0  0  0  0
    7.8399  -15.4783   25.4967 C   0  0  0  0  0  0  0  0  0  0  0  0
    6.5399  -15.8817   25.1994 C   0  0  0  0  0  0  0  0  0  0  0  0
    5.6755  -14.9218   25.5527 N   0  0  0  0  0  0  0  0  0  0  0  0
    6.3418  -13.8864   26.0778 C   0  0  0  0  0  0  0  0  0  0  0  0
    5.9055  -12.6859   26.5986 C   0  0  0  0  0  0  0  0  0  0  0  0
    6.7792  -11.7598   27.1165 C   0  0  0  0  0  0  0  0  0  0  0  0
    8.1200  -12.1038   27.0840 C   0  0  0  0  0  0  0  0  0  0  0  0
    8.5755  -13.2966   26.5678 C   0  0  0  0  0  0  0  0  0  0  0  0
    7.6802  -14.2122   26.0518 C   0  0  0  0  0  0  0  0  0  0  0  0
   11.4472  -15.7422   24.6900 C   0  0  0  0  0  0  0  0  0  0  0  0
   12.0224  -15.6533   25.7932 O   0  0  0  0  0  0  0  0  0  0  0  0
   12.2573  -16.1628   23.6179 O   0  0  0  0  0  0  0  0  0  0  0  0
  2  4  1  0
  2  1  1  0
  3  2  2  0
  5  4  1  0
  5  6  1  6
  7  5  1  0
  8  7  2  0
 10  9  1  6
 11 10  1  0
 12 10  1  0
 12 13  1  1
 13  7  1  0
 14 12  1  0
 15 14  2  0
 16 14  1  0
 17 16  1  0
 17 18  1  1
 19 18  1  0
 20 19  2  0
 21 22  1  0
 21 20  1  0
 22 27  2  0
 23 22  1  0
 23 24  2  0
 24 25  1  0
 25 26  2  0
 27 19  1  0
 27 26  1  0
 28 17  1  0
 28 30  1  0
 29 28  2  0
M  END
$$$$
