NVW.pdb
     RDKit          3D

 30 31  0  0  1  0  0  0  0  0999 V2000
   15.3420  -17.8622   18.9963 N   0  0  0  0  0  0  0  0  0  0  0  0
   14.4126  -17.0575   18.3235 C   0  0  0  0  0  0  0  0  0  0  0  0
   14.5795  -16.7572   17.1303 O   0  0  0  0  0  0  0  0  0  0  0  0
   13.2126  -16.5468   19.0167 C   0  0  0  0  0  0  0  0  0  0  0  0
   12.1307  -17.5974   18.8626 C   0  0  2  0  0  0  0  0  0  0  0  0
   11.5069  -17.5432   17.5693 N   0  0  0  0  0  0  0  0  0  0  0  0
   11.1118  -17.5021   19.9278 C   0  0  0  0  0  0  0  0  0  0  0  0
   10.1421  -16.6870   19.8662 O   0  0  0  0  0  0  0  0  0  0  0  0
    8.4184  -19.6253   23.4380 C   0  0  0  0  0  0  0  0  0  0  0  0
    9.4229  -19.6570   22.3068 C   0  0  1  0  0  0  0  0  0  0  0  0
    8.8744  -20.3316   21.0740 C   0  0  0  0  0  0  0  0  0  0  0  0
   10.0536  -18.3404   22.0344 C   0  0  2  0  0  0  0  0  0  0  0  0
   11.1122  -18.2921   21.0985 N   0  0  0  0  0  0  0  0  0  0  0  0
   10.5557  -17.8072   23.3437 C   0  0  0  0  0  0  0  0  0  0  0  0
   11.7314  -18.0619   23.7364 O   0  0  0  0  0  0  0  0  0  0  0  0
    9.7083  -17.0124   24.1468 N   0  0  0  0  0  0  0  0  0  0  0  0
   10.2260  -16.4163   25.3777 C   0  0  1  0  0  0  0  0  0  0  0  0
    9.8938  -14.9616   25.4359 C   0  0  0  0  0  0  0  0  0  0  0  0
    8.4690  -14.7297   25.6811 C   0  0  0  0  0  0  0  0  0  0  0  0
    7.4833  -15.7117   25.7531 C   0  0  0  0  0  0  0  0  0  0  0  0
    6.2879  -15.1404   25.9486 N   0  0  0  0  0  0  0  0  0  0  0  0
    6.4289  -13.8108   26.0123 C   0  0  0  0  0  0  0  0  0  0  0  0
    5.5113  -12.8015   26.2170 C   0  0  0  0  0  0  0  0  0  0  0  0
    5.8864  -11.4802   26.2703 C   0  0  0  0  0  0  0  0  0  0  0  0
    7.2373  -11.2244   26.1064 C   0  0  0  0  0  0  0  0  0  0  0  0
    8.1687  -12.2177   25.9003 C   0  0  0  0  0  0  0  0  0  0  0  0
    7.7695  -13.5384   25.8495 C   0  0  0  0  0  0  0  0  0  0  0  0
    9.8673  -17.1934   26.5556 C   0  0  0  0  0  0  0  0  0  0  0  0
    8.9579  -18.0435   26.6336 O   0  0  0  0  0  0  0  0  0  0  0  0
   10.6033  -16.9850   27.7377 O   0  0  0  0  0  0  0  0  0  0  0  0
  2  4  1  0
  2  1  1  0
  3  2  2  0
  5  4  1  0
  5  6  1  6
  7  5  1  0
  8  7  2  0
 10  9  1  1
 11 10  1  0
 12 10  1  0
 12 13  1  6
 13  7  1  0
 14 12  1  0
 15 14  2  0
 16 14  1  0
 17 16  1  0
 17 18  1  1
 19 18  1  0
 20 19  2  0
 21 22  1  0
 21 20  1  0
 22 27  2  0
 23 22  1  0
 23 24  2  0
 24 25  1  0
 25 26  2  0
 27 19  1  0
 27 26  1  0
 28 17  1  0
 28 30  1  0
 29 28  2  0
M  END
$$$$
