DMI.pdb
     RDKit          3D

 25 24  0  0  1  0  0  0  0  0999 V2000
   19.1382  -14.2653  -17.1573 N   0  0  0  0  0  0  0  0  0  0  0  0
   19.4040  -13.0149  -17.7931 C   0  0  1  0  0  0  0  0  0  0  0  0
   18.1745  -12.3899  -18.4147 C   0  0  0  0  0  0  0  0  0  0  0  0
   17.5264  -13.2490  -19.4135 C   0  0  0  0  0  0  0  0  0  0  0  0
   18.2090  -14.0359  -20.0994 O   0  0  0  0  0  0  0  0  0  0  0  0
   20.0677  -12.0194  -16.9292 C   0  0  0  0  0  0  0  0  0  0  0  0
   19.6909  -11.8351  -15.7421 O   0  0  0  0  0  0  0  0  0  0  0  0
   16.1627  -13.1989  -19.6064 O   0  0  0  0  0  0  0  0  0  0  0  0
   26.4148  -10.5254  -14.0995 C   0  0  0  0  0  0  0  0  0  0  0  0
   25.8331   -9.9990  -15.7225 S   0  0  0  0  0  0  0  0  0  0  0  0
   24.0766   -9.4694  -15.6424 C   0  0  0  0  0  0  0  0  0  0  0  0
   23.3100  -10.4050  -16.5193 C   0  0  0  0  0  0  0  0  0  0  0  0
   21.8250  -10.2509  -16.4776 C   0  0  2  0  0  0  0  0  0  0  0  0
   21.1652  -11.1983  -17.3517 N   0  0  0  0  0  0  0  0  0  0  0  0
   21.5470   -8.8553  -16.9948 C   0  0  0  0  0  0  0  0  0  0  0  0
   21.9052   -8.5639  -18.1813 O   0  0  0  0  0  0  0  0  0  0  0  0
   17.2367   -4.9028  -17.6792 C   0  0  0  0  0  0  0  0  0  0  0  0
   18.6925   -5.0431  -17.3964 C   0  0  0  0  0  0  0  0  0  0  0  0
   19.1727   -6.3698  -16.9804 C   0  0  2  0  0  0  0  0  0  0  0  0
   18.3535   -6.8733  -15.7889 C   0  0  0  0  0  0  0  0  0  0  0  0
   20.6180   -6.5827  -16.7420 C   0  0  2  0  0  0  0  0  0  0  0  0
   20.9027   -7.8953  -16.1765 N   0  0  0  0  0  0  0  0  0  0  0  0
   21.2008   -5.6048  -15.8134 C   0  0  0  0  0  0  0  0  0  0  0  0
   21.6981   -6.0626  -14.5923 O   0  0  0  0  0  0  0  0  0  0  0  0
   21.2839   -4.3729  -16.0354 O   0  0  0  0  0  0  0  0  0  0  0  0
  2  1  1  1
  2  3  1  0
  4  3  1  0
  4  8  1  0
  5  4  2  0
  6  2  1  0
  7  6  2  0
  9 10  1  0
 10 11  1  0
 12 11  1  0
 13 12  1  6
 13 14  1  0
 14  6  1  0
 15 22  1  0
 15 13  1  0
 16 15  2  0
 18 17  1  0
 18 19  1  0
 19 20  1  1
 21 19  1  0
 21 23  1  0
 21 22  1  1
 23 24  1  0
 25 23  2  0
M  END
$$$$
