DMI.pdb
     RDKit          3D

 25 24  0  0  1  0  0  0  0  0999 V2000
   19.9925  -14.5057  -17.4495 N   0  0  0  0  0  0  0  0  0  0  0  0
   20.2299  -13.2201  -18.0233 C   0  0  1  0  0  0  0  0  0  0  0  0
   19.0032  -12.6252  -18.6790 C   0  0  0  0  0  0  0  0  0  0  0  0
   18.4518  -13.4633  -19.7511 C   0  0  0  0  0  0  0  0  0  0  0  0
   17.2189  -13.5161  -19.9326 O   0  0  0  0  0  0  0  0  0  0  0  0
   20.8063  -12.2322  -17.0907 C   0  0  0  0  0  0  0  0  0  0  0  0
   20.1896  -11.8845  -16.0497 O   0  0  0  0  0  0  0  0  0  0  0  0
   19.2832  -14.1991  -20.5675 O   0  0  0  0  0  0  0  0  0  0  0  0
   26.8657  -11.7740  -14.7979 C   0  0  0  0  0  0  0  0  0  0  0  0
   26.5634  -10.1048  -15.4079 S   0  0  0  0  0  0  0  0  0  0  0  0
   24.7684   -9.7186  -15.3805 C   0  0  0  0  0  0  0  0  0  0  0  0
   24.1172  -10.6548  -16.3456 C   0  0  0  0  0  0  0  0  0  0  0  0
   22.6239  -10.6263  -16.3579 C   0  0  2  0  0  0  0  0  0  0  0  0
   22.0791  -11.5991  -17.2819 N   0  0  0  0  0  0  0  0  0  0  0  0
   22.2482   -9.2440  -16.8485 C   0  0  0  0  0  0  0  0  0  0  0  0
   22.5763   -8.9089  -18.0322 O   0  0  0  0  0  0  0  0  0  0  0  0
   17.6761   -5.9072  -17.9387 C   0  0  0  0  0  0  0  0  0  0  0  0
   19.0893   -5.8288  -17.4742 C   0  0  0  0  0  0  0  0  0  0  0  0
   19.7177   -7.0774  -17.0161 C   0  0  2  0  0  0  0  0  0  0  0  0
   18.8277   -7.7597  -15.9737 C   0  0  0  0  0  0  0  0  0  0  0  0
   21.1272   -7.0637  -16.5642 C   0  0  2  0  0  0  0  0  0  0  0  0
   21.5475   -8.3439  -16.0090 N   0  0  0  0  0  0  0  0  0  0  0  0
   21.3903   -6.0625  -15.5218 C   0  0  0  0  0  0  0  0  0  0  0  0
   21.7911   -6.5058  -14.2607 O   0  0  0  0  0  0  0  0  0  0  0  0
   21.2776   -4.8230  -15.6796 O   0  0  0  0  0  0  0  0  0  0  0  0
  2  1  1  1
  2  3  1  0
  4  3  1  0
  4  8  1  0
  5  4  2  0
  6  2  1  0
  7  6  2  0
  9 10  1  0
 10 11  1  0
 12 11  1  0
 13 12  1  6
 13 14  1  0
 14  6  1  0
 15 22  1  0
 15 13  1  0
 16 15  2  0
 18 17  1  0
 18 19  1  0
 19 20  1  1
 21 19  1  0
 21 23  1  0
 21 22  1  1
 23 24  1  0
 25 23  2  0
M  END
$$$$
