DMI.pdb
     RDKit          3D

 25 24  0  0  1  0  0  0  0  0999 V2000
   19.2067   -9.0203  -13.5333 N   0  0  0  0  0  0  0  0  0  0  0  0
   17.9466   -8.3496  -13.5577 C   0  0  1  0  0  0  0  0  0  0  0  0
   16.7772   -9.2871  -13.7635 C   0  0  0  0  0  0  0  0  0  0  0  0
   16.7751   -9.9348  -15.0812 C   0  0  0  0  0  0  0  0  0  0  0  0
   16.3858  -11.1140  -15.1981 O   0  0  0  0  0  0  0  0  0  0  0  0
   17.6836   -7.5007  -12.3796 C   0  0  0  0  0  0  0  0  0  0  0  0
   17.8236   -7.9489  -11.2114 O   0  0  0  0  0  0  0  0  0  0  0  0
   17.2005   -9.2535  -16.2010 O   0  0  0  0  0  0  0  0  0  0  0  0
   16.2175   -0.0168   -9.9808 C   0  0  0  0  0  0  0  0  0  0  0  0
   16.6513   -1.2327  -11.2390 S   0  0  0  0  0  0  0  0  0  0  0  0
   16.6654   -2.9258  -10.5283 C   0  0  0  0  0  0  0  0  0  0  0  0
   17.0303   -3.8517  -11.6426 C   0  0  0  0  0  0  0  0  0  0  0  0
   17.0503   -5.3028  -11.2897 C   0  0  2  0  0  0  0  0  0  0  0  0
   17.2573   -6.1334  -12.4577 N   0  0  0  0  0  0  0  0  0  0  0  0
   15.6754   -5.6038  -10.7315 C   0  0  0  0  0  0  0  0  0  0  0  0
   14.6960   -5.6894  -11.5405 O   0  0  0  0  0  0  0  0  0  0  0  0
   11.6433   -8.0742   -8.3027 C   0  0  0  0  0  0  0  0  0  0  0  0
   12.7666   -7.6477   -7.4222 C   0  0  0  0  0  0  0  0  0  0  0  0
   14.0364   -7.2933   -8.0748 C   0  0  2  0  0  0  0  0  0  0  0  0
   15.1864   -7.3879   -7.0686 C   0  0  0  0  0  0  0  0  0  0  0  0
   14.1326   -6.0389   -8.8548 C   0  0  2  0  0  0  0  0  0  0  0  0
   15.4833   -5.7859   -9.3400 N   0  0  0  0  0  0  0  0  0  0  0  0
   13.7477   -4.8485   -8.0846 C   0  0  0  0  0  0  0  0  0  0  0  0
   12.3915   -4.6205   -7.8475 O   0  0  0  0  0  0  0  0  0  0  0  0
   14.5554   -4.0082   -7.6204 O   0  0  0  0  0  0  0  0  0  0  0  0
  2  1  1  1
  2  3  1  0
  4  3  1  0
  4  8  1  0
  5  4  2  0
  6  2  1  0
  7  6  2  0
  9 10  1  0
 10 11  1  0
 12 11  1  0
 13 12  1  6
 13 14  1  0
 14  6  1  0
 15 22  1  0
 15 13  1  0
 16 15  2  0
 18 17  1  0
 18 19  1  0
 19 20  1  1
 21 19  1  0
 21 23  1  0
 21 22  1  1
 23 24  1  0
 25 23  2  0
M  END
$$$$
