DMI.pdb
     RDKit          3D

 25 24  0  0  1  0  0  0  0  0999 V2000
   18.3267  -12.5123  -18.0527 N   0  0  0  0  0  0  0  0  0  0  0  0
   19.0530  -11.3368  -18.4118 C   0  0  1  0  0  0  0  0  0  0  0  0
   18.1629  -10.2078  -18.8828 C   0  0  0  0  0  0  0  0  0  0  0  0
   17.3956  -10.5365  -20.0906 C   0  0  0  0  0  0  0  0  0  0  0  0
   16.1592  -10.6874  -20.0246 O   0  0  0  0  0  0  0  0  0  0  0  0
   19.9572  -10.8325  -17.3601 C   0  0  0  0  0  0  0  0  0  0  0  0
   19.6725  -10.9635  -16.1407 O   0  0  0  0  0  0  0  0  0  0  0  0
   18.0262  -10.6822  -21.3073 O   0  0  0  0  0  0  0  0  0  0  0  0
   27.4206  -10.2813  -15.1755 C   0  0  0  0  0  0  0  0  0  0  0  0
   26.0832  -10.7297  -16.2978 S   0  0  0  0  0  0  0  0  0  0  0  0
   24.5281   -9.8723  -15.8303 C   0  0  0  0  0  0  0  0  0  0  0  0
   23.4924  -10.3017  -16.8178 C   0  0  0  0  0  0  0  0  0  0  0  0
   22.1188   -9.7654  -16.5801 C   0  0  2  0  0  0  0  0  0  0  0  0
   21.2004  -10.1679  -17.6248 N   0  0  0  0  0  0  0  0  0  0  0  0
   22.2579   -8.2584  -16.6258 C   0  0  0  0  0  0  0  0  0  0  0  0
   22.3586   -7.6911  -17.7611 O   0  0  0  0  0  0  0  0  0  0  0  0
   20.3184   -3.3424  -15.2195 C   0  0  0  0  0  0  0  0  0  0  0  0
   21.4067   -3.9335  -14.3917 C   0  0  0  0  0  0  0  0  0  0  0  0
   21.5511   -5.3972  -14.4152 C   0  0  2  0  0  0  0  0  0  0  0  0
   22.0995   -5.8908  -13.0737 C   0  0  0  0  0  0  0  0  0  0  0  0
   22.2686   -6.0433  -15.5372 C   0  0  2  0  0  0  0  0  0  0  0  0
   22.2757   -7.4968  -15.4316 N   0  0  0  0  0  0  0  0  0  0  0  0
   23.6767   -5.6358  -15.6339 C   0  0  0  0  0  0  0  0  0  0  0  0
   23.9817   -4.4555  -16.3133 O   0  0  0  0  0  0  0  0  0  0  0  0
   24.6393   -6.2778  -15.1489 O   0  0  0  0  0  0  0  0  0  0  0  0
  2  1  1  1
  2  3  1  0
  4  3  1  0
  4  8  1  0
  5  4  2  0
  6  2  1  0
  7  6  2  0
  9 10  1  0
 10 11  1  0
 12 11  1  0
 13 12  1  6
 13 14  1  0
 14  6  1  0
 15 22  1  0
 15 13  1  0
 16 15  2  0
 18 17  1  0
 18 19  1  0
 19 20  1  1
 21 19  1  0
 21 23  1  0
 21 22  1  1
 23 24  1  0
 25 23  2  0
M  END
$$$$
