DMI.pdb
     RDKit          3D

 25 24  0  0  1  0  0  0  0  0999 V2000
   28.2054  -21.9442  -15.9971 N   0  0  0  0  0  0  0  0  0  0  0  0
   27.4944  -20.8753  -15.3725 C   0  0  1  0  0  0  0  0  0  0  0  0
   26.9082  -19.8921  -16.3615 C   0  0  0  0  0  0  0  0  0  0  0  0
   27.9242  -19.1839  -17.1501 C   0  0  0  0  0  0  0  0  0  0  0  0
   29.1327  -19.4542  -17.0008 O   0  0  0  0  0  0  0  0  0  0  0  0
   26.4375  -21.3088  -14.4381 C   0  0  0  0  0  0  0  0  0  0  0  0
   25.5875  -22.1744  -14.7748 O   0  0  0  0  0  0  0  0  0  0  0  0
   27.5598  -18.2161  -18.0611 O   0  0  0  0  0  0  0  0  0  0  0  0
   25.2186  -20.2496   -7.8603 C   0  0  0  0  0  0  0  0  0  0  0  0
   26.8657  -20.6483   -8.4749 S   0  0  0  0  0  0  0  0  0  0  0  0
   26.7730  -21.3654  -10.1629 C   0  0  0  0  0  0  0  0  0  0  0  0
   25.5355  -20.8133  -10.7920 C   0  0  0  0  0  0  0  0  0  0  0  0
   25.2698  -21.2673  -12.1899 C   0  0  2  0  0  0  0  0  0  0  0  0
   26.2882  -20.7979  -13.1062 N   0  0  0  0  0  0  0  0  0  0  0  0
   23.9520  -20.6318  -12.5796 C   0  0  0  0  0  0  0  0  0  0  0  0
   23.8595  -19.3622  -12.5591 O   0  0  0  0  0  0  0  0  0  0  0  0
   22.1322  -20.9204  -17.2949 C   0  0  0  0  0  0  0  0  0  0  0  0
   22.4035  -20.5938  -15.8671 C   0  0  0  0  0  0  0  0  0  0  0  0
   21.3969  -21.0095  -14.8783 C   0  0  2  0  0  0  0  0  0  0  0  0
   20.0173  -20.4829  -15.2826 C   0  0  0  0  0  0  0  0  0  0  0  0
   21.6422  -20.7672  -13.4388 C   0  0  2  0  0  0  0  0  0  0  0  0
   22.8466  -21.4324  -12.9584 N   0  0  0  0  0  0  0  0  0  0  0  0
   20.5477  -21.2372  -12.5789 C   0  0  0  0  0  0  0  0  0  0  0  0
   19.4427  -20.4048  -12.3952 O   0  0  0  0  0  0  0  0  0  0  0  0
   20.5314  -22.3429  -11.9864 O   0  0  0  0  0  0  0  0  0  0  0  0
  2  1  1  6
  2  3  1  0
  4  3  1  0
  4  8  1  0
  5  4  2  0
  6  2  1  0
  7  6  2  0
  9 10  1  0
 10 11  1  0
 12 11  1  0
 13 12  1  1
 13 14  1  0
 14  6  1  0
 15 22  1  0
 15 13  1  0
 16 15  2  0
 18 17  1  0
 18 19  1  0
 19 20  1  6
 21 19  1  0
 21 23  1  0
 21 22  1  1
 23 24  1  0
 25 23  2  0
M  END
$$$$
