DMI.pdb
     RDKit          3D

 25 24  0  0  1  0  0  0  0  0999 V2000
   13.9746  -11.9813  -12.9796 N   0  0  0  0  0  0  0  0  0  0  0  0
   15.1872  -11.5081  -12.3931 C   0  0  1  0  0  0  0  0  0  0  0  0
   16.4071  -11.7820  -13.2451 C   0  0  0  0  0  0  0  0  0  0  0  0
   16.6873  -13.2129  -13.4176 C   0  0  0  0  0  0  0  0  0  0  0  0
   16.0875  -14.0563  -12.7214 O   0  0  0  0  0  0  0  0  0  0  0  0
   15.1689  -10.0802  -12.0206 C   0  0  0  0  0  0  0  0  0  0  0  0
   14.7587   -9.2038  -12.8260 O   0  0  0  0  0  0  0  0  0  0  0  0
   17.6114  -13.6424  -14.3454 O   0  0  0  0  0  0  0  0  0  0  0  0
   13.2182   -5.1803   -6.3162 C   0  0  0  0  0  0  0  0  0  0  0  0
   13.4201   -6.7967   -7.0882 S   0  0  0  0  0  0  0  0  0  0  0  0
   14.5115   -6.6815   -8.5604 C   0  0  0  0  0  0  0  0  0  0  0  0
   14.6640   -8.0715   -9.0865 C   0  0  0  0  0  0  0  0  0  0  0  0
   15.4501   -8.1959  -10.3504 C   0  0  2  0  0  0  0  0  0  0  0  0
   15.6044   -9.5794  -10.7490 N   0  0  0  0  0  0  0  0  0  0  0  0
   16.8214   -7.6384  -10.0320 C   0  0  0  0  0  0  0  0  0  0  0  0
   17.5260   -8.2246   -9.1482 O   0  0  0  0  0  0  0  0  0  0  0  0
   22.0451   -6.2134  -12.1571 C   0  0  0  0  0  0  0  0  0  0  0  0
   21.0391   -5.8358  -11.1253 C   0  0  0  0  0  0  0  0  0  0  0  0
   19.6795   -6.3749  -11.2816 C   0  0  2  0  0  0  0  0  0  0  0  0
   19.2027   -6.1832  -12.7238 C   0  0  0  0  0  0  0  0  0  0  0  0
   18.6200   -5.9745  -10.3285 C   0  0  2  0  0  0  0  0  0  0  0  0
   17.3093   -6.4901  -10.7025 N   0  0  0  0  0  0  0  0  0  0  0  0
   18.4663   -4.5180  -10.2136 C   0  0  0  0  0  0  0  0  0  0  0  0
   17.3055   -3.9305  -10.7187 O   0  0  0  0  0  0  0  0  0  0  0  0
   19.3113   -3.7511   -9.6923 O   0  0  0  0  0  0  0  0  0  0  0  0
  2  1  1  6
  2  3  1  0
  4  3  1  0
  4  8  1  0
  5  4  2  0
  6  2  1  0
  7  6  2  0
  9 10  1  0
 10 11  1  0
 12 11  1  0
 13 12  1  1
 13 14  1  0
 14  6  1  0
 15 22  1  0
 15 13  1  0
 16 15  2  0
 18 17  1  0
 18 19  1  0
 19 20  1  6
 21 19  1  0
 21 23  1  0
 21 22  1  6
 23 24  1  0
 25 23  2  0
M  END
$$$$
