VDS.pdb
     RDKit          3D

 22 21  0  0  1  0  0  0  0  0999 V2000
    7.5152  -12.4950   18.4729 C   0  0  0  0  0  0  0  0  0  0  0  0
    8.1219  -13.4792   19.4084 C   0  0  2  0  0  0  0  0  0  0  0  0
    8.8499  -12.7511   20.5133 C   0  0  0  0  0  0  0  0  0  0  0  0
    8.9468  -14.5623   18.7898 C   0  0  2  0  0  0  0  0  0  0  0  0
    8.0113  -15.3083   17.9192 N   0  0  0  0  0  0  0  0  0  0  0  0
    9.5205  -15.5399   19.7282 C   0  0  0  0  0  0  0  0  0  0  0  0
    8.7281  -16.3859   20.2694 O   0  0  0  0  0  0  0  0  0  0  0  0
   10.8632  -15.6628   20.1097 N   0  0  0  0  0  0  0  0  0  0  0  0
   11.3405  -16.6241   21.1293 C   0  0  1  0  0  0  0  0  0  0  0  0
   12.7689  -16.8964   20.7070 C   0  0  0  0  0  0  0  0  0  0  0  0
   12.9510  -17.8194   19.6087 C   0  0  0  0  0  0  0  0  0  0  0  0
   12.0927  -18.6628   19.2957 O   0  0  0  0  0  0  0  0  0  0  0  0
   11.2124  -16.0389   22.4744 C   0  0  0  0  0  0  0  0  0  0  0  0
   11.7824  -14.9668   22.7770 O   0  0  0  0  0  0  0  0  0  0  0  0
   14.1252  -17.7663   18.8739 O   0  0  0  0  0  0  0  0  0  0  0  0
    7.9644  -16.3865   24.7500 O   0  0  0  0  0  0  0  0  0  0  0  0
    8.9514  -15.5027   25.1041 C   0  0  0  0  0  0  0  0  0  0  0  0
   10.3260  -16.0770   24.8484 C   0  0  2  0  0  0  0  0  0  0  0  0
   10.4453  -16.6302   23.5224 N   0  0  0  0  0  0  0  0  0  0  0  0
   10.5560  -17.1821   25.8307 C   0  0  0  0  0  0  0  0  0  0  0  0
   10.6340  -16.9543   27.2000 O   0  0  0  0  0  0  0  0  0  0  0  0
   10.6895  -18.3743   25.4561 O   0  0  0  0  0  0  0  0  0  0  0  0
  2  3  1  1
  2  4  1  0
  2  1  1  0
  4  6  1  0
  4  5  1  6
  6  8  1  0
  6  7  2  0
  8  9  1  0
  9 13  1  0
  9 10  1  6
 11 15  1  0
 11 10  1  0
 12 11  2  0
 13 14  2  0
 17 16  1  0
 18 17  1  6
 19 18  1  0
 19 13  1  0
 20 21  1  0
 20 18  1  0
 22 20  2  0
M  END
$$$$
