VDS.pdb
     RDKit          3D

 22 21  0  0  1  0  0  0  0  0999 V2000
    7.2931  -12.6804   19.5014 C   0  0  0  0  0  0  0  0  0  0  0  0
    7.7294  -13.7321   20.4583 C   0  0  2  0  0  0  0  0  0  0  0  0
    8.4518  -13.0954   21.6217 C   0  0  0  0  0  0  0  0  0  0  0  0
    8.4779  -14.8892   19.8775 C   0  0  2  0  0  0  0  0  0  0  0  0
    7.5543  -15.4869   18.8880 N   0  0  0  0  0  0  0  0  0  0  0  0
    8.8311  -15.9585   20.8247 C   0  0  0  0  0  0  0  0  0  0  0  0
    7.8938  -16.7240   21.2394 O   0  0  0  0  0  0  0  0  0  0  0  0
   10.1012  -16.2505   21.3397 N   0  0  0  0  0  0  0  0  0  0  0  0
   10.3508  -17.2894   22.3643 C   0  0  1  0  0  0  0  0  0  0  0  0
   11.7999  -17.6629   22.1331 C   0  0  0  0  0  0  0  0  0  0  0  0
   12.1110  -18.2808   20.8632 C   0  0  0  0  0  0  0  0  0  0  0  0
   11.4146  -19.1867   20.3727 O   0  0  0  0  0  0  0  0  0  0  0  0
   10.0755  -16.7510   23.7069 C   0  0  0  0  0  0  0  0  0  0  0  0
   10.6317  -15.7085   24.1191 O   0  0  0  0  0  0  0  0  0  0  0  0
   13.2268  -17.8509   20.1621 O   0  0  0  0  0  0  0  0  0  0  0  0
    6.6886  -17.6360   25.7167 O   0  0  0  0  0  0  0  0  0  0  0  0
    7.4634  -16.6260   26.2269 C   0  0  0  0  0  0  0  0  0  0  0  0
    8.9322  -16.8696   25.9655 C   0  0  2  0  0  0  0  0  0  0  0  0
    9.1724  -17.3576   24.6304 N   0  0  0  0  0  0  0  0  0  0  0  0
    9.4070  -17.9115   26.9289 C   0  0  0  0  0  0  0  0  0  0  0  0
    9.3909  -17.7132   28.3049 O   0  0  0  0  0  0  0  0  0  0  0  0
    9.8447  -19.0205   26.5313 O   0  0  0  0  0  0  0  0  0  0  0  0
  2  3  1  1
  2  4  1  0
  2  1  1  0
  4  6  1  0
  4  5  1  6
  6  8  1  0
  6  7  2  0
  8  9  1  0
  9 13  1  0
  9 10  1  1
 11 15  1  0
 11 10  1  0
 12 11  2  0
 13 14  2  0
 17 16  1  0
 18 17  1  6
 19 18  1  0
 19 13  1  0
 20 21  1  0
 20 18  1  0
 22 20  2  0
M  END
$$$$
