VDS.pdb
     RDKit          3D

 22 21  0  0  1  0  0  0  0  0999 V2000
    9.0403  -12.1833   19.2171 C   0  0  0  0  0  0  0  0  0  0  0  0
    8.0309  -13.2251   18.8888 C   0  0  2  0  0  0  0  0  0  0  0  0
    7.1598  -13.4891   20.0939 C   0  0  0  0  0  0  0  0  0  0  0  0
    8.5513  -14.4813   18.2664 C   0  0  2  0  0  0  0  0  0  0  0  0
    7.3499  -15.2997   17.9901 N   0  0  0  0  0  0  0  0  0  0  0  0
    9.4305  -15.2970   19.1191 C   0  0  0  0  0  0  0  0  0  0  0  0
    8.8819  -16.0648   19.9828 O   0  0  0  0  0  0  0  0  0  0  0  0
   10.8310  -15.3391   19.0989 N   0  0  0  0  0  0  0  0  0  0  0  0
   11.6356  -16.2466   19.9477 C   0  0  1  0  0  0  0  0  0  0  0  0
   12.9799  -16.2713   19.2512 C   0  0  0  0  0  0  0  0  0  0  0  0
   13.0754  -17.0926   18.0647 C   0  0  0  0  0  0  0  0  0  0  0  0
   13.7244  -16.7455   17.0625 O   0  0  0  0  0  0  0  0  0  0  0  0
   11.6832  -15.7368   21.3284 C   0  0  0  0  0  0  0  0  0  0  0  0
   12.1588  -14.6099   21.5924 O   0  0  0  0  0  0  0  0  0  0  0  0
   12.4205  -18.3140   18.0383 O   0  0  0  0  0  0  0  0  0  0  0  0
    8.9405  -16.6301   24.1106 O   0  0  0  0  0  0  0  0  0  0  0  0
    9.8238  -15.5958   24.2852 C   0  0  0  0  0  0  0  0  0  0  0  0
   11.2096  -15.9652   23.8076 C   0  0  2  0  0  0  0  0  0  0  0  0
   11.2022  -16.4671   22.4561 N   0  0  0  0  0  0  0  0  0  0  0  0
   11.7327  -17.0480   24.6980 C   0  0  0  0  0  0  0  0  0  0  0  0
   12.0249  -16.8298   26.0397 O   0  0  0  0  0  0  0  0  0  0  0  0
   11.9319  -18.2115   24.2669 O   0  0  0  0  0  0  0  0  0  0  0  0
  2  3  1  1
  2  4  1  0
  2  1  1  0
  4  6  1  0
  4  5  1  1
  6  8  1  0
  6  7  2  0
  8  9  1  0
  9 13  1  0
  9 10  1  6
 11 15  1  0
 11 10  1  0
 12 11  2  0
 13 14  2  0
 17 16  1  0
 18 17  1  1
 19 18  1  0
 19 13  1  0
 20 21  1  0
 20 18  1  0
 22 20  2  0
M  END
$$$$
