VDS.pdb
     RDKit          3D

 22 21  0  0  1  0  0  0  0  0999 V2000
    9.1517  -11.9362   19.2641 C   0  0  0  0  0  0  0  0  0  0  0  0
    8.1117  -12.9651   18.9966 C   0  0  2  0  0  0  0  0  0  0  0  0
    7.4079  -13.3259   20.2832 C   0  0  0  0  0  0  0  0  0  0  0  0
    8.5501  -14.1669   18.2220 C   0  0  2  0  0  0  0  0  0  0  0  0
    7.3180  -14.9583   18.0102 N   0  0  0  0  0  0  0  0  0  0  0  0
    9.5069  -15.0508   18.9065 C   0  0  0  0  0  0  0  0  0  0  0  0
    9.0461  -15.8838   19.7611 O   0  0  0  0  0  0  0  0  0  0  0  0
   10.8965  -15.0951   18.7310 N   0  0  0  0  0  0  0  0  0  0  0  0
   11.7813  -16.0493   19.4366 C   0  0  1  0  0  0  0  0  0  0  0  0
   13.0331  -16.0561   18.5846 C   0  0  0  0  0  0  0  0  0  0  0  0
   12.9681  -16.8072   17.3506 C   0  0  0  0  0  0  0  0  0  0  0  0
   13.5489  -16.4407   16.3141 O   0  0  0  0  0  0  0  0  0  0  0  0
   12.0003  -15.6044   20.8231 C   0  0  0  0  0  0  0  0  0  0  0  0
   12.4872  -14.4804   21.0791 O   0  0  0  0  0  0  0  0  0  0  0  0
   12.2316  -17.9811   17.3163 O   0  0  0  0  0  0  0  0  0  0  0  0
    9.5898  -16.7654   23.7942 O   0  0  0  0  0  0  0  0  0  0  0  0
   10.4110  -15.6758   23.9317 C   0  0  0  0  0  0  0  0  0  0  0  0
   11.7726  -15.9292   23.3263 C   0  0  2  0  0  0  0  0  0  0  0  0
   11.6832  -16.3981   21.9659 N   0  0  0  0  0  0  0  0  0  0  0  0
   12.4486  -16.9908   24.1356 C   0  0  0  0  0  0  0  0  0  0  0  0
   12.7709  -18.2357   23.6068 O   0  0  0  0  0  0  0  0  0  0  0  0
   12.7567  -16.8005   25.3391 O   0  0  0  0  0  0  0  0  0  0  0  0
  2  3  1  1
  2  4  1  0
  2  1  1  0
  4  6  1  0
  4  5  1  1
  6  8  1  0
  6  7  2  0
  8  9  1  0
  9 13  1  0
  9 10  1  6
 11 15  1  0
 11 10  1  0
 12 11  2  0
 13 14  2  0
 17 16  1  0
 18 17  1  1
 19 18  1  0
 19 13  1  0
 20 21  1  0
 20 18  1  0
 22 20  2  0
M  END
$$$$
