VDS.pdb
     RDKit          3D

 22 21  0  0  1  0  0  0  0  0999 V2000
    7.3767  -12.3874   18.6445 C   0  0  0  0  0  0  0  0  0  0  0  0
    8.2008  -13.3753   19.3907 C   0  0  2  0  0  0  0  0  0  0  0  0
    9.3586  -12.6728   20.0590 C   0  0  0  0  0  0  0  0  0  0  0  0
    8.6241  -14.5937   18.6339 C   0  0  2  0  0  0  0  0  0  0  0  0
    7.3629  -15.2326   18.1974 N   0  0  0  0  0  0  0  0  0  0  0  0
    9.3607  -15.6023   19.4121 C   0  0  0  0  0  0  0  0  0  0  0  0
    8.7038  -16.3027   20.2573 O   0  0  0  0  0  0  0  0  0  0  0  0
   10.7281  -15.8991   19.3374 N   0  0  0  0  0  0  0  0  0  0  0  0
   11.3892  -16.9303   20.1686 C   0  0  1  0  0  0  0  0  0  0  0  0
   12.6674  -17.2198   19.4101 C   0  0  0  0  0  0  0  0  0  0  0  0
   12.5260  -17.9244   18.1552 C   0  0  0  0  0  0  0  0  0  0  0  0
   11.7647  -18.8978   18.0177 O   0  0  0  0  0  0  0  0  0  0  0  0
   11.6024  -16.4189   21.5329 C   0  0  0  0  0  0  0  0  0  0  0  0
   12.1292  -15.3023   21.7368 O   0  0  0  0  0  0  0  0  0  0  0  0
   13.2651  -17.5028   17.0608 O   0  0  0  0  0  0  0  0  0  0  0  0
    9.9805  -15.7663   25.8582 O   0  0  0  0  0  0  0  0  0  0  0  0
    9.9127  -16.3020   24.5976 C   0  0  0  0  0  0  0  0  0  0  0  0
   11.2896  -16.5860   24.0423 C   0  0  2  0  0  0  0  0  0  0  0  0
   11.2351  -17.1359   22.7108 N   0  0  0  0  0  0  0  0  0  0  0  0
   11.9478  -17.5945   24.9304 C   0  0  0  0  0  0  0  0  0  0  0  0
   12.3270  -18.8515   24.4731 O   0  0  0  0  0  0  0  0  0  0  0  0
   12.1880  -17.3456   26.1386 O   0  0  0  0  0  0  0  0  0  0  0  0
  2  3  1  6
  2  4  1  0
  2  1  1  0
  4  6  1  0
  4  5  1  1
  6  8  1  0
  6  7  2  0
  8  9  1  0
  9 13  1  0
  9 10  1  6
 11 15  1  0
 11 10  1  0
 12 11  2  0
 13 14  2  0
 17 16  1  0
 18 17  1  1
 19 18  1  0
 19 13  1  0
 20 21  1  0
 20 18  1  0
 22 20  2  0
M  END
$$$$
