VDS.pdb
     RDKit          3D

 22 21  0  0  1  0  0  0  0  0999 V2000
    9.0459  -12.2329   19.7729 C   0  0  0  0  0  0  0  0  0  0  0  0
    8.1422  -13.1724   19.0569 C   0  0  2  0  0  0  0  0  0  0  0  0
    7.1578  -13.7752   20.0307 C   0  0  0  0  0  0  0  0  0  0  0  0
    8.8016  -14.1994   18.1927 C   0  0  2  0  0  0  0  0  0  0  0  0
    7.6888  -14.9302   17.5469 N   0  0  0  0  0  0  0  0  0  0  0  0
    9.6105  -15.2035   18.9019 C   0  0  0  0  0  0  0  0  0  0  0  0
    9.0054  -16.2115   19.4063 O   0  0  0  0  0  0  0  0  0  0  0  0
   10.9982  -15.1922   19.0955 N   0  0  0  0  0  0  0  0  0  0  0  0
   11.7128  -16.1594   19.9589 C   0  0  1  0  0  0  0  0  0  0  0  0
   13.0666  -16.2846   19.2922 C   0  0  0  0  0  0  0  0  0  0  0  0
   13.1090  -17.0344   18.0563 C   0  0  0  0  0  0  0  0  0  0  0  0
   12.5089  -18.1133   17.9087 O   0  0  0  0  0  0  0  0  0  0  0  0
   11.7679  -15.6571   21.3420 C   0  0  0  0  0  0  0  0  0  0  0  0
   11.7787  -14.4309   21.5914 O   0  0  0  0  0  0  0  0  0  0  0  0
   13.8453  -16.5359   16.9928 O   0  0  0  0  0  0  0  0  0  0  0  0
    9.2248  -16.1892   23.7444 O   0  0  0  0  0  0  0  0  0  0  0  0
   10.2751  -15.3466   24.0040 C   0  0  0  0  0  0  0  0  0  0  0  0
   11.6027  -16.0504   23.8401 C   0  0  2  0  0  0  0  0  0  0  0  0
   11.8126  -16.5057   22.4884 N   0  0  0  0  0  0  0  0  0  0  0  0
   11.6045  -17.2494   24.7353 C   0  0  0  0  0  0  0  0  0  0  0  0
   11.5428  -17.1424   26.1202 O   0  0  0  0  0  0  0  0  0  0  0  0
   11.6623  -18.4150   24.2690 O   0  0  0  0  0  0  0  0  0  0  0  0
  2  3  1  1
  2  4  1  0
  2  1  1  0
  4  6  1  0
  4  5  1  1
  6  8  1  0
  6  7  2  0
  8  9  1  0
  9 13  1  0
  9 10  1  6
 11 15  1  0
 11 10  1  0
 12 11  2  0
 13 14  2  0
 17 16  1  0
 18 17  1  6
 19 18  1  0
 19 13  1  0
 20 21  1  0
 20 18  1  0
 22 20  2  0
M  END
$$$$
