VDS.pdb
     RDKit          3D

 22 21  0  0  1  0  0  0  0  0999 V2000
    7.5227  -13.2499   21.3352 C   0  0  0  0  0  0  0  0  0  0  0  0
    8.2687  -13.3445   20.0520 C   0  0  2  0  0  0  0  0  0  0  0  0
    7.6979  -12.3628   19.0565 C   0  0  0  0  0  0  0  0  0  0  0  0
    8.4345  -14.7161   19.4797 C   0  0  2  0  0  0  0  0  0  0  0  0
    7.0608  -15.1752   19.1772 N   0  0  0  0  0  0  0  0  0  0  0  0
    9.0239  -15.7161   20.3843 C   0  0  0  0  0  0  0  0  0  0  0  0
    8.2274  -16.4539   21.0609 O   0  0  0  0  0  0  0  0  0  0  0  0
   10.3855  -15.9675   20.5994 N   0  0  0  0  0  0  0  0  0  0  0  0
   10.8912  -16.9606   21.5738 C   0  0  1  0  0  0  0  0  0  0  0  0
   12.2621  -17.3092   21.0334 C   0  0  0  0  0  0  0  0  0  0  0  0
   13.0019  -18.3192   21.7572 C   0  0  0  0  0  0  0  0  0  0  0  0
   12.5366  -18.9046   22.7506 O   0  0  0  0  0  0  0  0  0  0  0  0
   10.9085  -16.3779   22.9260 C   0  0  0  0  0  0  0  0  0  0  0  0
   11.4685  -15.2832   23.1583 O   0  0  0  0  0  0  0  0  0  0  0  0
   14.2789  -18.6509   21.3319 O   0  0  0  0  0  0  0  0  0  0  0  0
    7.8964  -16.4218   25.3525 O   0  0  0  0  0  0  0  0  0  0  0  0
    8.9996  -15.6636   25.6500 C   0  0  0  0  0  0  0  0  0  0  0  0
   10.2801  -16.4203   25.3808 C   0  0  2  0  0  0  0  0  0  0  0  0
   10.3023  -16.9972   24.0598 N   0  0  0  0  0  0  0  0  0  0  0  0
   10.3750  -17.5369   26.3725 C   0  0  0  0  0  0  0  0  0  0  0  0
   10.3483  -17.3156   27.7449 O   0  0  0  0  0  0  0  0  0  0  0  0
   10.4839  -18.7332   26.0034 O   0  0  0  0  0  0  0  0  0  0  0  0
  2  3  1  6
  2  4  1  0
  2  1  1  0
  4  6  1  0
  4  5  1  1
  6  8  1  0
  6  7  2  0
  8  9  1  0
  9 13  1  0
  9 10  1  6
 11 15  1  0
 11 10  1  0
 12 11  2  0
 13 14  2  0
 17 16  1  0
 18 17  1  1
 19 18  1  0
 19 13  1  0
 20 21  1  0
 20 18  1  0
 22 20  2  0
M  END
$$$$
