VDS.pdb
     RDKit          3D

 22 21  0  0  1  0  0  0  0  0999 V2000
    8.9174  -12.2763   19.8738 C   0  0  0  0  0  0  0  0  0  0  0  0
    8.0463  -13.2704   19.1919 C   0  0  2  0  0  0  0  0  0  0  0  0
    6.9513  -13.7180   20.1306 C   0  0  0  0  0  0  0  0  0  0  0  0
    8.7404  -14.4159   18.5267 C   0  0  2  0  0  0  0  0  0  0  0  0
    7.6746  -15.1423   17.8014 N   0  0  0  0  0  0  0  0  0  0  0  0
    9.3733  -15.3885   19.4316 C   0  0  0  0  0  0  0  0  0  0  0  0
    8.6694  -16.3786   19.8326 O   0  0  0  0  0  0  0  0  0  0  0  0
   10.6870  -15.3642   19.9184 N   0  0  0  0  0  0  0  0  0  0  0  0
   11.2265  -16.3614   20.8703 C   0  0  1  0  0  0  0  0  0  0  0  0
   12.6712  -16.5049   20.4401 C   0  0  0  0  0  0  0  0  0  0  0  0
   13.4952  -17.3882   21.2353 C   0  0  0  0  0  0  0  0  0  0  0  0
   13.0172  -18.2994   21.9333 O   0  0  0  0  0  0  0  0  0  0  0  0
   11.0555  -15.8839   22.2528 C   0  0  0  0  0  0  0  0  0  0  0  0
   11.5114  -14.7790   22.6231 O   0  0  0  0  0  0  0  0  0  0  0  0
   14.8707  -17.2167   21.2226 O   0  0  0  0  0  0  0  0  0  0  0  0
    7.9701  -16.7836   24.6349 O   0  0  0  0  0  0  0  0  0  0  0  0
    8.8765  -15.8375   25.0396 C   0  0  0  0  0  0  0  0  0  0  0  0
   10.2855  -16.2163   24.6443 C   0  0  2  0  0  0  0  0  0  0  0  0
   10.3713  -16.6229   23.2639 N   0  0  0  0  0  0  0  0  0  0  0  0
   10.7086  -17.3741   25.4925 C   0  0  0  0  0  0  0  0  0  0  0  0
   10.7633  -17.2977   26.8797 O   0  0  0  0  0  0  0  0  0  0  0  0
   11.0357  -18.4750   24.9822 O   0  0  0  0  0  0  0  0  0  0  0  0
  2  3  1  1
  2  4  1  0
  2  1  1  0
  4  6  1  0
  4  5  1  1
  6  8  1  0
  6  7  2  0
  8  9  1  0
  9 13  1  0
  9 10  1  6
 11 15  1  0
 11 10  1  0
 12 11  2  0
 13 14  2  0
 17 16  1  0
 18 17  1  1
 19 18  1  0
 19 13  1  0
 20 21  1  0
 20 18  1  0
 22 20  2  0
M  END
$$$$
