VDS.pdb
     RDKit          3D

 22 21  0  0  1  0  0  0  0  0999 V2000
    6.8124  -13.2716   19.4431 C   0  0  0  0  0  0  0  0  0  0  0  0
    8.2143  -12.9784   19.0421 C   0  0  2  0  0  0  0  0  0  0  0  0
    8.5370  -13.6962   17.7532 C   0  0  0  0  0  0  0  0  0  0  0  0
    9.2608  -13.1779   20.0915 C   0  0  2  0  0  0  0  0  0  0  0  0
   10.4757  -12.5286   19.5513 N   0  0  0  0  0  0  0  0  0  0  0  0
    9.6202  -14.5767   20.3740 C   0  0  0  0  0  0  0  0  0  0  0  0
    8.7389  -15.3207   20.9274 O   0  0  0  0  0  0  0  0  0  0  0  0
   10.8397  -15.2108   20.1019 N   0  0  0  0  0  0  0  0  0  0  0  0
   11.0755  -16.6572   20.3113 C   0  0  1  0  0  0  0  0  0  0  0  0
   11.9302  -17.0446   19.1229 C   0  0  0  0  0  0  0  0  0  0  0  0
   11.2540  -17.1442   17.8485 C   0  0  0  0  0  0  0  0  0  0  0  0
   10.1664  -17.7315   17.7135 O   0  0  0  0  0  0  0  0  0  0  0  0
   11.7226  -16.8798   21.6152 C   0  0  0  0  0  0  0  0  0  0  0  0
   12.1721  -18.0022   21.9380 O   0  0  0  0  0  0  0  0  0  0  0  0
   11.8361  -16.5648   16.7318 O   0  0  0  0  0  0  0  0  0  0  0  0
   11.1814  -16.8740   26.0364 O   0  0  0  0  0  0  0  0  0  0  0  0
   10.9057  -16.5650   24.7291 C   0  0  0  0  0  0  0  0  0  0  0  0
   12.1468  -16.1140   23.9936 C   0  0  2  0  0  0  0  0  0  0  0  0
   11.8884  -15.8588   22.5984 N   0  0  0  0  0  0  0  0  0  0  0  0
   13.1607  -17.2109   24.0808 C   0  0  0  0  0  0  0  0  0  0  0  0
   14.4454  -16.9978   24.5680 O   0  0  0  0  0  0  0  0  0  0  0  0
   12.8917  -18.3824   23.7140 O   0  0  0  0  0  0  0  0  0  0  0  0
  2  3  1  6
  2  4  1  0
  2  1  1  0
  4  6  1  0
  4  5  1  6
  6  8  1  0
  6  7  2  0
  8  9  1  0
  9 13  1  0
  9 10  1  6
 11 15  1  0
 11 10  1  0
 12 11  2  0
 13 14  2  0
 17 16  1  0
 18 17  1  1
 19 18  1  0
 19 13  1  0
 20 21  1  0
 20 18  1  0
 22 20  2  0
M  END
$$$$
