VDS.pdb
     RDKit          3D

 22 21  0  0  1  0  0  0  0  0999 V2000
    7.5517  -13.2903   21.2716 C   0  0  0  0  0  0  0  0  0  0  0  0
    8.2888  -13.2817   19.9799 C   0  0  2  0  0  0  0  0  0  0  0  0
    7.6696  -12.2695   19.0458 C   0  0  0  0  0  0  0  0  0  0  0  0
    8.5045  -14.6110   19.3295 C   0  0  2  0  0  0  0  0  0  0  0  0
    7.1461  -15.1328   19.0615 N   0  0  0  0  0  0  0  0  0  0  0  0
    9.1888  -15.6194   20.1543 C   0  0  0  0  0  0  0  0  0  0  0  0
    8.4675  -16.3946   20.8721 O   0  0  0  0  0  0  0  0  0  0  0  0
   10.5688  -15.8422   20.2505 N   0  0  0  0  0  0  0  0  0  0  0  0
   11.1685  -16.9339   21.0505 C   0  0  1  0  0  0  0  0  0  0  0  0
   12.5020  -17.1683   20.3724 C   0  0  0  0  0  0  0  0  0  0  0  0
   12.5360  -18.1974   19.3570 C   0  0  0  0  0  0  0  0  0  0  0  0
   11.5039  -18.6659   18.8458 O   0  0  0  0  0  0  0  0  0  0  0  0
   11.2751  -16.5263   22.4615 C   0  0  0  0  0  0  0  0  0  0  0  0
   11.7387  -15.4100   22.7855 O   0  0  0  0  0  0  0  0  0  0  0  0
   13.7632  -18.6837   18.9338 O   0  0  0  0  0  0  0  0  0  0  0  0
    9.4424  -16.3770   26.7744 O   0  0  0  0  0  0  0  0  0  0  0  0
    9.4446  -16.7281   25.4488 C   0  0  0  0  0  0  0  0  0  0  0  0
   10.8512  -16.9185   24.9292 C   0  0  2  0  0  0  0  0  0  0  0  0
   10.8681  -17.3498   23.5536 N   0  0  0  0  0  0  0  0  0  0  0  0
   11.5090  -17.9805   25.7528 C   0  0  0  0  0  0  0  0  0  0  0  0
   11.8708  -17.7742   27.0793 O   0  0  0  0  0  0  0  0  0  0  0  0
   11.7649  -19.1148   25.2759 O   0  0  0  0  0  0  0  0  0  0  0  0
  2  3  1  6
  2  4  1  0
  2  1  1  0
  4  6  1  0
  4  5  1  1
  6  8  1  0
  6  7  2  0
  8  9  1  0
  9 13  1  0
  9 10  1  6
 11 15  1  0
 11 10  1  0
 12 11  2  0
 13 14  2  0
 17 16  1  0
 18 17  1  1
 19 18  1  0
 19 13  1  0
 20 21  1  0
 20 18  1  0
 22 20  2  0
M  END
$$$$
