CWM.pdb
     RDKit          3D

 29 30  0  0  1  0  0  0  0  0999 V2000
   11.8814  -16.1952   18.6135 N   0  0  0  0  0  0  0  0  0  0  0  0
   11.2227  -17.1129   19.4965 C   0  0  1  0  0  0  0  0  0  0  0  0
   12.1011  -18.2731   19.8349 C   0  0  0  0  0  0  0  0  0  0  0  0
   11.8099  -19.6144   18.6822 S   0  0  0  0  0  0  0  0  0  0  0  0
   10.7590  -16.3778   20.7245 C   0  0  0  0  0  0  0  0  0  0  0  0
   11.4782  -15.4643   21.1556 O   0  0  0  0  0  0  0  0  0  0  0  0
    9.5481  -16.7115   21.3684 N   0  0  0  0  0  0  0  0  0  0  0  0
    9.0308  -16.1027   22.5562 C   0  0  1  0  0  0  0  0  0  0  0  0
    7.5174  -16.1168   22.6918 C   0  0  0  0  0  0  0  0  0  0  0  0
    7.0342  -15.6510   23.9996 C   0  0  0  0  0  0  0  0  0  0  0  0
    6.5250  -16.2893   25.0962 C   0  0  0  0  0  0  0  0  0  0  0  0
    6.2305  -15.3922   26.0846 N   0  0  0  0  0  0  0  0  0  0  0  0
    6.5430  -14.1639   25.6462 C   0  0  0  0  0  0  0  0  0  0  0  0
    6.4390  -12.9284   26.2575 C   0  0  0  0  0  0  0  0  0  0  0  0
    6.8390  -11.8172   25.5729 C   0  0  0  0  0  0  0  0  0  0  0  0
    7.3406  -11.9112   24.2918 C   0  0  0  0  0  0  0  0  0  0  0  0
    7.4340  -13.1665   23.7014 C   0  0  0  0  0  0  0  0  0  0  0  0
    7.0380  -14.2993   24.3691 C   0  0  0  0  0  0  0  0  0  0  0  0
    9.6738  -16.6840   23.7526 C   0  0  0  0  0  0  0  0  0  0  0  0
    9.9908  -17.9190   23.7431 O   0  0  0  0  0  0  0  0  0  0  0  0
    9.1298  -13.3995   30.1000 C   0  0  0  0  0  0  0  0  0  0  0  0
   10.5764  -13.8311   29.0846 S   0  0  0  0  0  0  0  0  0  0  0  0
   10.1782  -15.0735   27.8690 C   0  0  0  0  0  0  0  0  0  0  0  0
   11.2108  -15.4240   26.8832 C   0  0  0  0  0  0  0  0  0  0  0  0
   10.8796  -16.5001   25.9182 C   0  0  2  0  0  0  0  0  0  0  0  0
    9.9561  -15.9369   24.9119 N   0  0  0  0  0  0  0  0  0  0  0  0
   10.2211  -17.6824   26.4472 C   0  0  0  0  0  0  0  0  0  0  0  0
    8.9554  -17.8023   26.3043 O   0  0  0  0  0  0  0  0  0  0  0  0
   10.8220  -18.7347   27.1056 O   0  0  0  0  0  0  0  0  0  0  0  0
  2  1  1  6
  2  5  1  0
  3  2  1  0
  4  3  1  0
  5  6  2  0
  5  7  1  0
  7  8  1  0
  8 19  1  0
  8  9  1  1
 10  9  1  0
 10 18  1  0
 11 10  2  0
 12 11  1  0
 12 13  1  0
 13 14  1  0
 13 18  2  0
 14 15  2  0
 15 16  1  0
 17 16  2  0
 18 17  1  0
 19 20  2  0
 22 21  1  0
 23 24  1  0
 23 22  1  0
 25 24  1  1
 25 27  1  0
 26 25  1  0
 26 19  1  0
 27 28  2  0
 27 29  1  0
M  END
$$$$
