CWM.pdb
     RDKit          3D

 29 30  0  0  1  0  0  0  0  0999 V2000
    7.1156  -15.1864   19.4320 N   0  0  0  0  0  0  0  0  0  0  0  0
    7.1103  -16.1089   20.5295 C   0  0  1  0  0  0  0  0  0  0  0  0
    7.3217  -17.5132   20.0654 C   0  0  0  0  0  0  0  0  0  0  0  0
    9.0138  -17.7243   19.5133 S   0  0  0  0  0  0  0  0  0  0  0  0
    8.1409  -15.6867   21.5409 C   0  0  0  0  0  0  0  0  0  0  0  0
    8.8811  -14.7362   21.2476 O   0  0  0  0  0  0  0  0  0  0  0  0
    8.2660  -16.3455   22.7830 N   0  0  0  0  0  0  0  0  0  0  0  0
    9.2140  -16.0340   23.8093 C   0  0  1  0  0  0  0  0  0  0  0  0
    8.6806  -16.0921   25.2310 C   0  0  0  0  0  0  0  0  0  0  0  0
    7.5259  -15.2140   25.4683 C   0  0  0  0  0  0  0  0  0  0  0  0
    6.1746  -15.4209   25.4858 C   0  0  0  0  0  0  0  0  0  0  0  0
    5.5114  -14.2611   25.7749 N   0  0  0  0  0  0  0  0  0  0  0  0
    6.4185  -13.2887   25.9487 C   0  0  0  0  0  0  0  0  0  0  0  0
    6.2658  -11.9495   26.2557 C   0  0  0  0  0  0  0  0  0  0  0  0
    7.3790  -11.1693   26.3792 C   0  0  0  0  0  0  0  0  0  0  0  0
    8.6416  -11.6954   26.2033 C   0  0  0  0  0  0  0  0  0  0  0  0
    8.7656  -13.0455   25.8952 C   0  0  0  0  0  0  0  0  0  0  0  0
    7.6611  -13.8513   25.7653 C   0  0  0  0  0  0  0  0  0  0  0  0
   10.4219  -16.8721   23.6637 C   0  0  0  0  0  0  0  0  0  0  0  0
   10.3031  -18.0452   23.1784 O   0  0  0  0  0  0  0  0  0  0  0  0
   17.1210  -15.0083   23.4651 C   0  0  0  0  0  0  0  0  0  0  0  0
   16.6958  -16.6521   24.1189 S   0  0  0  0  0  0  0  0  0  0  0  0
   15.2784  -17.3432   23.2862 C   0  0  0  0  0  0  0  0  0  0  0  0
   14.0031  -16.6193   23.3879 C   0  0  0  0  0  0  0  0  0  0  0  0
   12.8426  -17.3754   23.9175 C   0  0  2  0  0  0  0  0  0  0  0  0
   11.7077  -16.4371   24.0369 N   0  0  0  0  0  0  0  0  0  0  0  0
   12.9945  -17.9872   25.2267 C   0  0  0  0  0  0  0  0  0  0  0  0
   13.6136  -19.1028   25.3208 O   0  0  0  0  0  0  0  0  0  0  0  0
   12.5381  -17.4862   26.4278 O   0  0  0  0  0  0  0  0  0  0  0  0
  2  1  1  6
  2  5  1  0
  3  2  1  0
  4  3  1  0
  5  6  2  0
  5  7  1  0
  7  8  1  0
  8 19  1  0
  8  9  1  1
 10  9  1  0
 10 18  1  0
 11 10  2  0
 12 11  1  0
 12 13  1  0
 13 14  1  0
 13 18  2  0
 14 15  2  0
 15 16  1  0
 17 16  2  0
 18 17  1  0
 19 20  2  0
 22 21  1  0
 23 24  1  0
 23 22  1  0
 25 24  1  1
 25 27  1  0
 26 25  1  0
 26 19  1  0
 27 28  2  0
 27 29  1  0
M  END
$$$$
