CWM.pdb
     RDKit          3D

 29 30  0  0  1  0  0  0  0  0999 V2000
   11.9528  -15.9884   18.9390 N   0  0  0  0  0  0  0  0  0  0  0  0
   11.3031  -16.9657   19.7628 C   0  0  1  0  0  0  0  0  0  0  0  0
   12.2051  -18.1194   20.0585 C   0  0  0  0  0  0  0  0  0  0  0  0
   12.2373  -19.2414   18.6612 S   0  0  0  0  0  0  0  0  0  0  0  0
   10.8000  -16.3054   21.0174 C   0  0  0  0  0  0  0  0  0  0  0  0
   11.4940  -15.4056   21.5135 O   0  0  0  0  0  0  0  0  0  0  0  0
    9.5806  -16.6921   21.6142 N   0  0  0  0  0  0  0  0  0  0  0  0
    9.0270  -16.1565   22.8208 C   0  0  1  0  0  0  0  0  0  0  0  0
    7.5096  -16.1601   22.9014 C   0  0  0  0  0  0  0  0  0  0  0  0
    6.9815  -15.6488   24.1743 C   0  0  0  0  0  0  0  0  0  0  0  0
    6.4385  -16.2487   25.2763 C   0  0  0  0  0  0  0  0  0  0  0  0
    6.1080  -15.3172   26.2206 N   0  0  0  0  0  0  0  0  0  0  0  0
    6.4304  -14.1044   25.7475 C   0  0  0  0  0  0  0  0  0  0  0  0
    6.3017  -12.8477   26.3090 C   0  0  0  0  0  0  0  0  0  0  0  0
    6.7202  -11.7606   25.5974 C   0  0  0  0  0  0  0  0  0  0  0  0
    7.2645  -11.8993   24.3379 C   0  0  0  0  0  0  0  0  0  0  0  0
    7.3820  -13.1750   23.7978 C   0  0  0  0  0  0  0  0  0  0  0  0
    6.9681  -14.2844   24.4935 C   0  0  0  0  0  0  0  0  0  0  0  0
    9.6201  -16.8239   23.9979 C   0  0  0  0  0  0  0  0  0  0  0  0
    9.9832  -18.0421   23.8977 O   0  0  0  0  0  0  0  0  0  0  0  0
   10.1617  -13.8444   29.9023 C   0  0  0  0  0  0  0  0  0  0  0  0
   10.5375  -13.2673   28.2183 S   0  0  0  0  0  0  0  0  0  0  0  0
   11.1618  -14.5882   27.1958 C   0  0  0  0  0  0  0  0  0  0  0  0
   10.6671  -15.9480   27.4546 C   0  0  0  0  0  0  0  0  0  0  0  0
   10.5784  -16.8627   26.2909 C   0  0  2  0  0  0  0  0  0  0  0  0
    9.8057  -16.1773   25.2346 N   0  0  0  0  0  0  0  0  0  0  0  0
    9.9188  -18.1399   26.5032 C   0  0  0  0  0  0  0  0  0  0  0  0
    8.6824  -18.2569   26.1964 O   0  0  0  0  0  0  0  0  0  0  0  0
   10.4908  -19.2879   27.0103 O   0  0  0  0  0  0  0  0  0  0  0  0
  2  1  1  6
  2  5  1  0
  3  2  1  0
  4  3  1  0
  5  6  2  0
  5  7  1  0
  7  8  1  0
  8 19  1  0
  8  9  1  6
 10  9  1  0
 10 18  1  0
 11 10  2  0
 12 11  1  0
 12 13  1  0
 13 14  1  0
 13 18  2  0
 14 15  2  0
 15 16  1  0
 17 16  2  0
 18 17  1  0
 19 20  2  0
 22 21  1  0
 23 24  1  0
 23 22  1  0
 25 24  1  1
 25 27  1  0
 26 25  1  0
 26 19  1  0
 27 28  2  0
 27 29  1  0
M  END
$$$$
