CWM.pdb
     RDKit          3D

 29 30  0  0  1  0  0  0  0  0999 V2000
   11.7263  -16.1769   18.4787 N   0  0  0  0  0  0  0  0  0  0  0  0
   11.0004  -17.0838   19.3191 C   0  0  1  0  0  0  0  0  0  0  0  0
   11.7842  -18.3268   19.5889 C   0  0  0  0  0  0  0  0  0  0  0  0
   13.2532  -17.9274   20.5349 S   0  0  0  0  0  0  0  0  0  0  0  0
   10.6036  -16.3792   20.5877 C   0  0  0  0  0  0  0  0  0  0  0  0
   11.1750  -15.3124   20.8577 O   0  0  0  0  0  0  0  0  0  0  0  0
    9.6154  -16.9088   21.4453 N   0  0  0  0  0  0  0  0  0  0  0  0
    9.0850  -16.2721   22.6125 C   0  0  1  0  0  0  0  0  0  0  0  0
    7.5713  -16.1466   22.6575 C   0  0  0  0  0  0  0  0  0  0  0  0
    7.0465  -15.7614   23.9754 C   0  0  0  0  0  0  0  0  0  0  0  0
    6.5248  -16.4677   25.0234 C   0  0  0  0  0  0  0  0  0  0  0  0
    6.1869  -15.6310   26.0501 N   0  0  0  0  0  0  0  0  0  0  0  0
    6.4832  -14.3749   25.6855 C   0  0  0  0  0  0  0  0  0  0  0  0
    6.3376  -13.1762   26.3586 C   0  0  0  0  0  0  0  0  0  0  0  0
    6.7298  -12.0221   25.7443 C   0  0  0  0  0  0  0  0  0  0  0  0
    7.2643  -12.0371   24.4731 C   0  0  0  0  0  0  0  0  0  0  0  0
    7.3993  -13.2568   23.8196 C   0  0  0  0  0  0  0  0  0  0  0  0
    7.0119  -14.4317   24.4161 C   0  0  0  0  0  0  0  0  0  0  0  0
    9.5970  -16.9289   23.8328 C   0  0  0  0  0  0  0  0  0  0  0  0
    9.8281  -18.1827   23.8070 O   0  0  0  0  0  0  0  0  0  0  0  0
   10.6718  -12.6381   28.3860 C   0  0  0  0  0  0  0  0  0  0  0  0
   10.1885  -14.3535   28.7519 S   0  0  0  0  0  0  0  0  0  0  0  0
   11.3664  -15.5213   28.0971 C   0  0  0  0  0  0  0  0  0  0  0  0
   11.5053  -15.6090   26.6363 C   0  0  0  0  0  0  0  0  0  0  0  0
   10.8573  -16.7636   25.9687 C   0  0  2  0  0  0  0  0  0  0  0  0
    9.8444  -16.2347   25.0322 N   0  0  0  0  0  0  0  0  0  0  0  0
   10.1582  -17.7117   26.8194 C   0  0  0  0  0  0  0  0  0  0  0  0
    8.8789  -17.7103   26.8274 O   0  0  0  0  0  0  0  0  0  0  0  0
   10.7317  -18.6540   27.6471 O   0  0  0  0  0  0  0  0  0  0  0  0
  2  1  1  6
  2  5  1  0
  3  2  1  0
  4  3  1  0
  5  6  2  0
  5  7  1  0
  7  8  1  0
  8 19  1  0
  8  9  1  6
 10  9  1  0
 10 18  1  0
 11 10  2  0
 12 11  1  0
 12 13  1  0
 13 14  1  0
 13 18  2  0
 14 15  2  0
 15 16  1  0
 17 16  2  0
 18 17  1  0
 19 20  2  0
 22 21  1  0
 23 24  1  0
 23 22  1  0
 25 24  1  1
 25 27  1  0
 26 25  1  0
 26 19  1  0
 27 28  2  0
 27 29  1  0
M  END
$$$$
