CWM.pdb
     RDKit          3D

 29 30  0  0  1  0  0  0  0  0999 V2000
   12.0854  -16.2118   19.3676 N   0  0  0  0  0  0  0  0  0  0  0  0
   11.0797  -17.0059   20.0106 C   0  0  1  0  0  0  0  0  0  0  0  0
   11.5083  -18.4311   20.1417 C   0  0  0  0  0  0  0  0  0  0  0  0
   13.0145  -18.5279   21.1084 S   0  0  0  0  0  0  0  0  0  0  0  0
   10.7364  -16.3942   21.3415 C   0  0  0  0  0  0  0  0  0  0  0  0
   11.4257  -15.4407   21.7328 O   0  0  0  0  0  0  0  0  0  0  0  0
    9.6676  -16.8840   22.1227 N   0  0  0  0  0  0  0  0  0  0  0  0
    9.3043  -16.4303   23.4308 C   0  0  1  0  0  0  0  0  0  0  0  0
    7.8179  -16.4644   23.7449 C   0  0  0  0  0  0  0  0  0  0  0  0
    7.1634  -15.1508   23.6622 C   0  0  0  0  0  0  0  0  0  0  0  0
    6.4855  -14.4983   22.6703 C   0  0  0  0  0  0  0  0  0  0  0  0
    6.0500  -13.2775   23.1044 N   0  0  0  0  0  0  0  0  0  0  0  0
    6.4369  -13.1204   24.3789 C   0  0  0  0  0  0  0  0  0  0  0  0
    6.2474  -12.0742   25.2624 C   0  0  0  0  0  0  0  0  0  0  0  0
    6.7541  -12.1769   26.5257 C   0  0  0  0  0  0  0  0  0  0  0  0
    7.4457  -13.3004   26.9274 C   0  0  0  0  0  0  0  0  0  0  0  0
    7.6213  -14.3373   26.0181 C   0  0  0  0  0  0  0  0  0  0  0  0
    7.1215  -14.2580   24.7414 C   0  0  0  0  0  0  0  0  0  0  0  0
   10.0781  -17.1562   24.4590 C   0  0  0  0  0  0  0  0  0  0  0  0
   10.3139  -18.3979   24.2903 O   0  0  0  0  0  0  0  0  0  0  0  0
   10.7517  -14.2929   30.0302 C   0  0  0  0  0  0  0  0  0  0  0  0
   10.4131  -14.2893   28.2426 S   0  0  0  0  0  0  0  0  0  0  0  0
   11.7758  -14.9694   27.3151 C   0  0  0  0  0  0  0  0  0  0  0  0
   12.0732  -16.3993   27.4822 C   0  0  0  0  0  0  0  0  0  0  0  0
   11.3842  -17.3395   26.5656 C   0  0  2  0  0  0  0  0  0  0  0  0
   10.5719  -16.5409   25.6249 N   0  0  0  0  0  0  0  0  0  0  0  0
   10.4725  -18.2987   27.1659 C   0  0  0  0  0  0  0  0  0  0  0  0
   10.9519  -19.2450   27.8809 O   0  0  0  0  0  0  0  0  0  0  0  0
    9.0977  -18.3073   27.0575 O   0  0  0  0  0  0  0  0  0  0  0  0
  2  1  1  1
  2  5  1  0
  3  2  1  0
  4  3  1  0
  5  6  2  0
  5  7  1  0
  7  8  1  0
  8 19  1  0
  8  9  1  1
 10  9  1  0
 10 18  1  0
 11 10  2  0
 12 11  1  0
 12 13  1  0
 13 14  1  0
 13 18  2  0
 14 15  2  0
 15 16  1  0
 17 16  2  0
 18 17  1  0
 19 20  2  0
 22 21  1  0
 23 24  1  0
 23 22  1  0
 25 24  1  1
 25 27  1  0
 26 25  1  0
 26 19  1  0
 27 28  2  0
 27 29  1  0
M  END
$$$$
