CWM.pdb
     RDKit          3D

 29 30  0  0  1  0  0  0  0  0999 V2000
    7.1614  -17.9325   20.7474 N   0  0  0  0  0  0  0  0  0  0  0  0
    7.8535  -18.2072   21.9726 C   0  0  1  0  0  0  0  0  0  0  0  0
    8.6705  -19.4541   21.8723 C   0  0  0  0  0  0  0  0  0  0  0  0
    9.3281  -19.8829   23.4835 S   0  0  0  0  0  0  0  0  0  0  0  0
    8.6873  -17.0141   22.3529 C   0  0  0  0  0  0  0  0  0  0  0  0
    9.2676  -16.4028   21.4435 O   0  0  0  0  0  0  0  0  0  0  0  0
    8.8087  -16.5995   23.6967 N   0  0  0  0  0  0  0  0  0  0  0  0
    9.6271  -15.5273   24.1760 C   0  0  1  0  0  0  0  0  0  0  0  0
    9.1484  -14.8613   25.4552 C   0  0  0  0  0  0  0  0  0  0  0  0
    7.7044  -14.5875   25.4774 C   0  0  0  0  0  0  0  0  0  0  0  0
    6.5956  -15.3868   25.5040 C   0  0  0  0  0  0  0  0  0  0  0  0
    5.4560  -14.6324   25.5308 N   0  0  0  0  0  0  0  0  0  0  0  0
    5.8068  -13.3380   25.5223 C   0  0  0  0  0  0  0  0  0  0  0  0
    5.0381  -12.1892   25.5422 C   0  0  0  0  0  0  0  0  0  0  0  0
    5.6634  -10.9760   25.5293 C   0  0  0  0  0  0  0  0  0  0  0  0
    7.0389  -10.8831   25.4971 C   0  0  0  0  0  0  0  0  0  0  0  0
    7.7872  -12.0547   25.4777 C   0  0  0  0  0  0  0  0  0  0  0  0
    7.1818  -13.2873   25.4898 C   0  0  0  0  0  0  0  0  0  0  0  0
   11.0305  -15.9709   24.3047 C   0  0  0  0  0  0  0  0  0  0  0  0
   11.9608  -15.1021   24.2293 O   0  0  0  0  0  0  0  0  0  0  0  0
   10.8484  -14.3625   28.4357 C   0  0  0  0  0  0  0  0  0  0  0  0
   10.5661  -16.1444   28.6709 S   0  0  0  0  0  0  0  0  0  0  0  0
   11.8962  -17.1157   27.9873 C   0  0  0  0  0  0  0  0  0  0  0  0
   11.6053  -17.9421   26.8069 C   0  0  0  0  0  0  0  0  0  0  0  0
   12.3677  -17.6396   25.5716 C   0  0  2  0  0  0  0  0  0  0  0  0
   11.3951  -17.3154   24.5077 N   0  0  0  0  0  0  0  0  0  0  0  0
   13.2063  -18.6988   25.0367 C   0  0  0  0  0  0  0  0  0  0  0  0
   12.8030  -19.3502   24.0121 O   0  0  0  0  0  0  0  0  0  0  0  0
   14.4362  -19.0973   25.5169 O   0  0  0  0  0  0  0  0  0  0  0  0
  2  1  1  6
  2  5  1  0
  3  2  1  0
  4  3  1  0
  5  6  2  0
  5  7  1  0
  7  8  1  0
  8 19  1  0
  8  9  1  1
 10  9  1  0
 10 18  1  0
 11 10  2  0
 12 11  1  0
 12 13  1  0
 13 14  1  0
 13 18  2  0
 14 15  2  0
 15 16  1  0
 17 16  2  0
 18 17  1  0
 19 20  2  0
 22 21  1  0
 23 24  1  0
 23 22  1  0
 25 24  1  1
 25 27  1  0
 26 25  1  0
 26 19  1  0
 27 28  2  0
 27 29  1  0
M  END
$$$$
