CWM.pdb
     RDKit          3D

 29 30  0  0  1  0  0  0  0  0999 V2000
    8.7270  -14.8788   18.6933 N   0  0  0  0  0  0  0  0  0  0  0  0
    8.6391  -16.0107   19.5689 C   0  0  1  0  0  0  0  0  0  0  0  0
    9.5717  -17.1003   19.1505 C   0  0  0  0  0  0  0  0  0  0  0  0
    9.4577  -17.3533   17.3799 S   0  0  0  0  0  0  0  0  0  0  0  0
    8.8875  -15.5666   20.9847 C   0  0  0  0  0  0  0  0  0  0  0  0
    9.4241  -14.4620   21.1568 O   0  0  0  0  0  0  0  0  0  0  0  0
    8.5246  -16.3745   22.0837 N   0  0  0  0  0  0  0  0  0  0  0  0
    8.7513  -16.0695   23.4638 C   0  0  1  0  0  0  0  0  0  0  0  0
    7.7480  -16.6643   24.4378 C   0  0  0  0  0  0  0  0  0  0  0  0
    6.7959  -15.6852   24.9813 C   0  0  0  0  0  0  0  0  0  0  0  0
    5.5551  -15.7924   25.5454 C   0  0  0  0  0  0  0  0  0  0  0  0
    5.0812  -14.5630   25.9092 N   0  0  0  0  0  0  0  0  0  0  0  0
    6.0035  -13.6436   25.5882 C   0  0  0  0  0  0  0  0  0  0  0  0
    6.0099  -12.2705   25.7478 C   0  0  0  0  0  0  0  0  0  0  0  0
    7.0983  -11.5620   25.3274 C   0  0  0  0  0  0  0  0  0  0  0  0
    8.1807  -12.1930   24.7512 C   0  0  0  0  0  0  0  0  0  0  0  0
    8.1473  -13.5750   24.6031 C   0  0  0  0  0  0  0  0  0  0  0  0
    7.0639  -14.3102   25.0178 C   0  0  0  0  0  0  0  0  0  0  0  0
   10.1334  -16.4235   23.8473 C   0  0  0  0  0  0  0  0  0  0  0  0
   10.7624  -17.2899   23.1548 O   0  0  0  0  0  0  0  0  0  0  0  0
   10.0803  -14.8021   29.8665 C   0  0  0  0  0  0  0  0  0  0  0  0
   10.8112  -14.4242   28.2438 S   0  0  0  0  0  0  0  0  0  0  0  0
   11.9570  -15.6899   27.7290 C   0  0  0  0  0  0  0  0  0  0  0  0
   12.6378  -15.5144   26.4380 C   0  0  0  0  0  0  0  0  0  0  0  0
   12.1458  -16.3324   25.3032 C   0  0  2  0  0  0  0  0  0  0  0  0
   10.7961  -15.8478   24.9479 N   0  0  0  0  0  0  0  0  0  0  0  0
   12.0105  -17.7615   25.5286 C   0  0  0  0  0  0  0  0  0  0  0  0
   13.0252  -18.5171   25.3386 O   0  0  0  0  0  0  0  0  0  0  0  0
   10.8759  -18.4257   25.9451 O   0  0  0  0  0  0  0  0  0  0  0  0
  2  1  1  6
  2  5  1  0
  3  2  1  0
  4  3  1  0
  5  6  2  0
  5  7  1  0
  7  8  1  0
  8 19  1  0
  8  9  1  1
 10  9  1  0
 10 18  1  0
 11 10  2  0
 12 11  1  0
 12 13  1  0
 13 14  1  0
 13 18  2  0
 14 15  2  0
 15 16  1  0
 17 16  2  0
 18 17  1  0
 19 20  2  0
 22 21  1  0
 23 24  1  0
 23 22  1  0
 25 24  1  1
 25 27  1  0
 26 25  1  0
 26 19  1  0
 27 28  2  0
 27 29  1  0
M  END
$$$$
