AES.pdb
     RDKit          3D

 21 20  0  0  1  0  0  0  0  0999 V2000
    7.9030  -12.5143   19.7923 C   0  0  0  0  0  0  0  0  0  0  0  0
    8.3449  -13.8229   19.1366 C   0  0  2  0  0  0  0  0  0  0  0  0
    7.2171  -14.2993   18.3585 N   0  0  0  0  0  0  0  0  0  0  0  0
    8.6815  -14.7924   20.1893 C   0  0  0  0  0  0  0  0  0  0  0  0
    7.7395  -15.4464   20.7437 O   0  0  0  0  0  0  0  0  0  0  0  0
    9.9924  -15.0551   20.6372 N   0  0  0  0  0  0  0  0  0  0  0  0
   10.3586  -16.1545   21.5362 C   0  0  1  0  0  0  0  0  0  0  0  0
   11.7812  -16.5050   21.2461 C   0  0  0  0  0  0  0  0  0  0  0  0
   11.9939  -17.5785   20.2328 C   0  0  0  0  0  0  0  0  0  0  0  0
   13.4627  -17.7231   20.0450 C   0  0  0  0  0  0  0  0  0  0  0  0
   14.0094  -17.5946   18.9014 O   0  0  0  0  0  0  0  0  0  0  0  0
   10.0841  -15.7938   22.9446 C   0  0  0  0  0  0  0  0  0  0  0  0
   10.5728  -14.7663   23.4211 O   0  0  0  0  0  0  0  0  0  0  0  0
   14.2912  -18.0049   21.1174 O   0  0  0  0  0  0  0  0  0  0  0  0
    6.8367  -17.4030   24.8465 O   0  0  0  0  0  0  0  0  0  0  0  0
    7.4094  -16.2337   25.3396 C   0  0  0  0  0  0  0  0  0  0  0  0
    8.8873  -16.3249   25.1027 C   0  0  2  0  0  0  0  0  0  0  0  0
    9.2712  -16.6041   23.7614 N   0  0  0  0  0  0  0  0  0  0  0  0
    9.5026  -17.2698   26.0414 C   0  0  0  0  0  0  0  0  0  0  0  0
   10.2036  -18.2525   25.6911 O   0  0  0  0  0  0  0  0  0  0  0  0
    9.3097  -17.0844   27.4021 O   0  0  0  0  0  0  0  0  0  0  0  0
  2  1  1  1
  3  2  1  0
  4  2  1  0
  5  4  2  0
  6  4  1  0
  7 12  1  0
  7  6  1  0
  7  8  1  1
  9  8  1  0
 10  9  1  0
 10 11  2  0
 12 18  1  0
 13 12  2  0
 14 10  1  0
 16 15  1  0
 17 16  1  6
 18 17  1  0
 19 21  1  0
 19 17  1  0
 20 19  2  0
M  END
$$$$
