AES.pdb
     RDKit          3D

 21 20  0  0  1  0  0  0  0  0999 V2000
    7.4972  -13.7086   18.1850 C   0  0  0  0  0  0  0  0  0  0  0  0
    8.4029  -13.2370   19.3229 C   0  0  2  0  0  0  0  0  0  0  0  0
    9.1869  -12.1341   18.8001 N   0  0  0  0  0  0  0  0  0  0  0  0
    9.2852  -14.3443   19.7189 C   0  0  0  0  0  0  0  0  0  0  0  0
    8.7618  -15.4624   20.0326 O   0  0  0  0  0  0  0  0  0  0  0  0
   10.6912  -14.2573   19.7779 N   0  0  0  0  0  0  0  0  0  0  0  0
   11.5819  -15.3846   20.0723 C   0  0  1  0  0  0  0  0  0  0  0  0
   12.8748  -15.1183   19.3734 C   0  0  0  0  0  0  0  0  0  0  0  0
   12.8446  -15.2230   17.8860 C   0  0  0  0  0  0  0  0  0  0  0  0
   14.2255  -14.9619   17.3974 C   0  0  0  0  0  0  0  0  0  0  0  0
   14.9444  -14.0287   17.8827 O   0  0  0  0  0  0  0  0  0  0  0  0
   11.6983  -15.5935   21.5324 C   0  0  0  0  0  0  0  0  0  0  0  0
   12.1068  -14.6788   22.2523 O   0  0  0  0  0  0  0  0  0  0  0  0
   14.7794  -15.7320   16.3894 O   0  0  0  0  0  0  0  0  0  0  0  0
   10.4475  -18.2197   25.3553 O   0  0  0  0  0  0  0  0  0  0  0  0
   10.2853  -18.0502   23.9830 C   0  0  0  0  0  0  0  0  0  0  0  0
   11.3625  -17.1169   23.5169 C   0  0  2  0  0  0  0  0  0  0  0  0
   11.3513  -16.8236   22.1246 N   0  0  0  0  0  0  0  0  0  0  0  0
   12.6806  -17.5929   23.9513 C   0  0  0  0  0  0  0  0  0  0  0  0
   13.5916  -17.9541   23.1644 O   0  0  0  0  0  0  0  0  0  0  0  0
   12.9565  -17.6559   25.3088 O   0  0  0  0  0  0  0  0  0  0  0  0
  2  1  1  6
  3  2  1  0
  4  2  1  0
  5  4  2  0
  6  4  1  0
  7 12  1  0
  7  6  1  0
  7  8  1  1
  9  8  1  0
 10  9  1  0
 10 11  2  0
 12 18  1  0
 13 12  2  0
 14 10  1  0
 16 15  1  0
 17 16  1  6
 18 17  1  0
 19 21  1  0
 19 17  1  0
 20 19  2  0
M  END
$$$$
