AES.pdb
     RDKit          3D

 21 20  0  0  1  0  0  0  0  0999 V2000
    8.1883  -12.4448   19.5749 C   0  0  0  0  0  0  0  0  0  0  0  0
    8.7341  -13.3922   18.5061 C   0  0  2  0  0  0  0  0  0  0  0  0
    7.5887  -14.0649   17.9231 N   0  0  0  0  0  0  0  0  0  0  0  0
    9.6252  -14.3700   19.1473 C   0  0  0  0  0  0  0  0  0  0  0  0
    9.1100  -15.3817   19.7249 O   0  0  0  0  0  0  0  0  0  0  0  0
   11.0312  -14.2677   19.1701 N   0  0  0  0  0  0  0  0  0  0  0  0
   11.9285  -15.2756   19.7445 C   0  0  1  0  0  0  0  0  0  0  0  0
   13.2902  -15.0224   19.1855 C   0  0  0  0  0  0  0  0  0  0  0  0
   13.4505  -15.2702   17.7236 C   0  0  0  0  0  0  0  0  0  0  0  0
   14.8708  -14.9881   17.3816 C   0  0  0  0  0  0  0  0  0  0  0  0
   15.1994  -14.0154   16.6271 O   0  0  0  0  0  0  0  0  0  0  0  0
   11.8531  -15.2637   21.2221 C   0  0  0  0  0  0  0  0  0  0  0  0
   12.1167  -14.2299   21.8414 O   0  0  0  0  0  0  0  0  0  0  0  0
   15.8913  -15.7813   17.8767 O   0  0  0  0  0  0  0  0  0  0  0  0
    9.2430  -17.6515   23.0473 O   0  0  0  0  0  0  0  0  0  0  0  0
    9.7946  -16.5749   23.7365 C   0  0  0  0  0  0  0  0  0  0  0  0
   11.2391  -16.4850   23.3441 C   0  0  2  0  0  0  0  0  0  0  0  0
   11.4849  -16.4156   21.9444 N   0  0  0  0  0  0  0  0  0  0  0  0
   12.0111  -17.5652   23.9685 C   0  0  0  0  0  0  0  0  0  0  0  0
   12.0450  -17.7798   25.2065 O   0  0  0  0  0  0  0  0  0  0  0  0
   12.7556  -18.4109   23.1600 O   0  0  0  0  0  0  0  0  0  0  0  0
  2  1  1  1
  3  2  1  0
  4  2  1  0
  5  4  2  0
  6  4  1  0
  7 12  1  0
  7  6  1  0
  7  8  1  1
  9  8  1  0
 10  9  1  0
 10 11  2  0
 12 18  1  0
 13 12  2  0
 14 10  1  0
 16 15  1  0
 17 16  1  6
 18 17  1  0
 19 21  1  0
 19 17  1  0
 20 19  2  0
M  END
$$$$
