AES.pdb
     RDKit          3D

 21 20  0  0  1  0  0  0  0  0999 V2000
    7.8037  -12.3767   19.7279 C   0  0  0  0  0  0  0  0  0  0  0  0
    8.3344  -13.0938   18.4862 C   0  0  2  0  0  0  0  0  0  0  0  0
    7.1927  -13.7234   17.8502 N   0  0  0  0  0  0  0  0  0  0  0  0
    9.3081  -14.1126   18.9049 C   0  0  0  0  0  0  0  0  0  0  0  0
    8.8983  -15.2988   19.1226 O   0  0  0  0  0  0  0  0  0  0  0  0
   10.6849  -13.8680   19.0863 N   0  0  0  0  0  0  0  0  0  0  0  0
   11.6685  -14.8906   19.4575 C   0  0  1  0  0  0  0  0  0  0  0  0
   12.9061  -14.6184   18.6667 C   0  0  0  0  0  0  0  0  0  0  0  0
   14.0567  -15.5319   18.9229 C   0  0  0  0  0  0  0  0  0  0  0  0
   15.1849  -15.0704   18.0697 C   0  0  0  0  0  0  0  0  0  0  0  0
   16.3598  -14.9136   18.5369 O   0  0  0  0  0  0  0  0  0  0  0  0
   11.8644  -14.9221   20.9237 C   0  0  0  0  0  0  0  0  0  0  0  0
   12.3486  -13.9442   21.4990 O   0  0  0  0  0  0  0  0  0  0  0  0
   14.9925  -14.7935   16.7272 O   0  0  0  0  0  0  0  0  0  0  0  0
   10.0419  -17.8917   23.1249 O   0  0  0  0  0  0  0  0  0  0  0  0
   10.4217  -16.7315   23.7945 C   0  0  0  0  0  0  0  0  0  0  0  0
   11.6316  -16.1872   23.0955 C   0  0  2  0  0  0  0  0  0  0  0  0
   11.5086  -16.0530   21.6843 N   0  0  0  0  0  0  0  0  0  0  0  0
   12.8261  -16.9591   23.4559 C   0  0  0  0  0  0  0  0  0  0  0  0
   13.5138  -17.6147   22.6331 O   0  0  0  0  0  0  0  0  0  0  0  0
   13.2367  -16.9793   24.7803 O   0  0  0  0  0  0  0  0  0  0  0  0
  2  1  1  1
  3  2  1  0
  4  2  1  0
  5  4  2  0
  6  4  1  0
  7 12  1  0
  7  6  1  0
  7  8  1  6
  9  8  1  0
 10  9  1  0
 10 11  2  0
 12 18  1  0
 13 12  2  0
 14 10  1  0
 16 15  1  0
 17 16  1  6
 18 17  1  0
 19 21  1  0
 19 17  1  0
 20 19  2  0
M  END
$$$$
