AES.pdb
     RDKit          3D

 21 20  0  0  1  0  0  0  0  0999 V2000
    7.0260  -13.2000   18.8219 C   0  0  0  0  0  0  0  0  0  0  0  0
    8.5161  -13.2208   19.1638 C   0  0  2  0  0  0  0  0  0  0  0  0
    9.2175  -13.5718   17.9434 N   0  0  0  0  0  0  0  0  0  0  0  0
    8.7530  -14.2399   20.1967 C   0  0  0  0  0  0  0  0  0  0  0  0
    8.0903  -14.1769   21.2827 O   0  0  0  0  0  0  0  0  0  0  0  0
    9.6754  -15.2988   20.0707 N   0  0  0  0  0  0  0  0  0  0  0  0
    9.8239  -16.3909   21.0383 C   0  0  1  0  0  0  0  0  0  0  0  0
   10.6987  -17.4232   20.4059 C   0  0  0  0  0  0  0  0  0  0  0  0
   10.0129  -18.3966   19.5079 C   0  0  0  0  0  0  0  0  0  0  0  0
   11.0644  -19.2668   18.9155 C   0  0  0  0  0  0  0  0  0  0  0  0
   11.3236  -19.2528   17.6682 O   0  0  0  0  0  0  0  0  0  0  0  0
   10.3108  -15.8777   22.3378 C   0  0  0  0  0  0  0  0  0  0  0  0
   11.2316  -15.0575   22.3672 O   0  0  0  0  0  0  0  0  0  0  0  0
   11.8025  -20.1285   19.7084 O   0  0  0  0  0  0  0  0  0  0  0  0
    7.8201  -15.3701   25.3911 O   0  0  0  0  0  0  0  0  0  0  0  0
    9.0813  -14.7805   25.3755 C   0  0  0  0  0  0  0  0  0  0  0  0
   10.0454  -15.8001   24.8468 C   0  0  2  0  0  0  0  0  0  0  0  0
    9.7427  -16.3084   23.5527 N   0  0  0  0  0  0  0  0  0  0  0  0
   10.2309  -16.8856   25.8163 C   0  0  0  0  0  0  0  0  0  0  0  0
    9.9685  -18.0918   25.5795 O   0  0  0  0  0  0  0  0  0  0  0  0
   10.7244  -16.5819   27.0762 O   0  0  0  0  0  0  0  0  0  0  0  0
  2  1  1  6
  3  2  1  0
  4  2  1  0
  5  4  2  0
  6  4  1  0
  7 12  1  0
  7  6  1  0
  7  8  1  6
  9  8  1  0
 10  9  1  0
 10 11  2  0
 12 18  1  0
 13 12  2  0
 14 10  1  0
 16 15  1  0
 17 16  1  1
 18 17  1  0
 19 21  1  0
 19 17  1  0
 20 19  2  0
M  END
$$$$
