AES.pdb
     RDKit          3D

 21 20  0  0  1  0  0  0  0  0999 V2000
   17.5153  -20.9852   15.1837 C   0  0  0  0  0  0  0  0  0  0  0  0
   16.0189  -20.7052   15.3252 C   0  0  2  0  0  0  0  0  0  0  0  0
   15.6232  -19.9559   14.1477 N   0  0  0  0  0  0  0  0  0  0  0  0
   15.7978  -19.9017   16.5364 C   0  0  0  0  0  0  0  0  0  0  0  0
   15.5608  -18.6566   16.4108 O   0  0  0  0  0  0  0  0  0  0  0  0
   15.8296  -20.4176   17.8483 N   0  0  0  0  0  0  0  0  0  0  0  0
   15.5614  -19.6314   19.0569 C   0  0  1  0  0  0  0  0  0  0  0  0
   14.3716  -20.2408   19.7232 C   0  0  0  0  0  0  0  0  0  0  0  0
   14.3989  -21.7242   19.8754 C   0  0  0  0  0  0  0  0  0  0  0  0
   13.1539  -22.1174   20.5887 C   0  0  0  0  0  0  0  0  0  0  0  0
   13.0800  -23.1930   21.2676 O   0  0  0  0  0  0  0  0  0  0  0  0
   16.7704  -19.5453   19.9055 C   0  0  0  0  0  0  0  0  0  0  0  0
   17.6360  -20.4210   19.8307 O   0  0  0  0  0  0  0  0  0  0  0  0
   12.0240  -21.3195   20.5373 O   0  0  0  0  0  0  0  0  0  0  0  0
   19.3533  -19.1317   23.4571 O   0  0  0  0  0  0  0  0  0  0  0  0
   18.2885  -19.4760   22.6287 C   0  0  0  0  0  0  0  0  0  0  0  0
   18.0484  -18.3198   21.7045 C   0  0  2  0  0  0  0  0  0  0  0  0
   16.9571  -18.4777   20.8053 N   0  0  0  0  0  0  0  0  0  0  0  0
   19.2806  -17.9656   20.9911 C   0  0  0  0  0  0  0  0  0  0  0  0
   19.6593  -18.5164   19.9266 O   0  0  0  0  0  0  0  0  0  0  0  0
   20.0901  -16.9651   21.5075 O   0  0  0  0  0  0  0  0  0  0  0  0
  2  1  1  6
  3  2  1  0
  4  2  1  0
  5  4  2  0
  6  4  1  0
  7 12  1  0
  7  6  1  0
  7  8  1  1
  9  8  1  0
 10  9  1  0
 10 11  2  0
 12 18  1  0
 13 12  2  0
 14 10  1  0
 16 15  1  0
 17 16  1  6
 18 17  1  0
 19 21  1  0
 19 17  1  0
 20 19  2  0
M  END
$$$$
