NGI.pdb
     RDKit          3D

 21 20  0  0  1  0  0  0  0  0999 V2000
    9.2819  -17.8316   17.2653 N   0  0  0  0  0  0  0  0  0  0  0  0
    7.8614  -17.9375   17.3056 C   0  0  0  0  0  0  0  0  0  0  0  0
    7.3021  -18.2293   16.2018 O   0  0  0  0  0  0  0  0  0  0  0  0
    7.0684  -17.7248   18.5455 C   0  0  0  0  0  0  0  0  0  0  0  0
    8.0269  -17.4485   19.6723 C   0  0  2  0  0  0  0  0  0  0  0  0
    8.5429  -18.7247   20.1202 N   0  0  0  0  0  0  0  0  0  0  0  0
    7.4135  -16.7668   20.8161 C   0  0  0  0  0  0  0  0  0  0  0  0
    7.2321  -15.5290   20.7569 O   0  0  0  0  0  0  0  0  0  0  0  0
    7.0056  -17.4394   22.0091 N   0  0  0  0  0  0  0  0  0  0  0  0
    6.4983  -16.8232   23.1820 C   0  0  0  0  0  0  0  0  0  0  0  0
    7.4726  -16.0543   23.9849 C   0  0  0  0  0  0  0  0  0  0  0  0
    8.7059  -16.0824   23.6369 O   0  0  0  0  0  0  0  0  0  0  0  0
    5.7145  -11.7998   26.8650 C   0  0  0  0  0  0  0  0  0  0  0  0
    6.6249  -12.6124   25.9181 C   0  0  0  0  0  0  0  0  0  0  0  0
    7.5677  -13.4596   26.6896 C   0  0  2  0  0  0  0  0  0  0  0  0
    8.5579  -12.6598   27.5040 C   0  0  0  0  0  0  0  0  0  0  0  0
    8.2071  -14.5054   25.8479 C   0  0  2  0  0  0  0  0  0  0  0  0
    7.1812  -15.2813   25.1151 N   0  0  0  0  0  0  0  0  0  0  0  0
    9.1387  -15.4156   26.5260 C   0  0  0  0  0  0  0  0  0  0  0  0
   10.3701  -15.1978   26.6066 O   0  0  0  0  0  0  0  0  0  0  0  0
    8.7172  -16.6047   27.1382 O   0  0  0  0  0  0  0  0  0  0  0  0
  2  1  1  0
  2  3  2  0
  4  2  1  0
  5  6  1  1
  5  4  1  0
  7  5  1  0
  8  7  2  0
  9  7  1  0
 10 11  1  0
 10  9  1  0
 11 18  1  0
 12 11  2  0
 13 14  1  0
 15 17  1  0
 15 14  1  0
 15 16  1  6
 17 18  1  1
 19 17  1  0
 19 21  1  0
 20 19  2  0
M  END
$$$$
