NGI.pdb
     RDKit          3D

 21 20  0  0  1  0  0  0  0  0999 V2000
    6.3764  -21.5877   18.7406 N   0  0  0  0  0  0  0  0  0  0  0  0
    7.3753  -20.9105   19.4984 C   0  0  0  0  0  0  0  0  0  0  0  0
    8.0745  -21.6459   20.2643 O   0  0  0  0  0  0  0  0  0  0  0  0
    7.6004  -19.4431   19.4130 C   0  0  0  0  0  0  0  0  0  0  0  0
    7.7979  -18.9179   20.8094 C   0  0  2  0  0  0  0  0  0  0  0  0
    6.5170  -18.9886   21.4802 N   0  0  0  0  0  0  0  0  0  0  0  0
    8.2732  -17.5319   20.8579 C   0  0  0  0  0  0  0  0  0  0  0  0
    9.2847  -17.2152   20.1907 O   0  0  0  0  0  0  0  0  0  0  0  0
    7.6428  -16.5086   21.6308 N   0  0  0  0  0  0  0  0  0  0  0  0
    8.1006  -15.1740   21.7791 C   0  0  0  0  0  0  0  0  0  0  0  0
    8.5905  -14.8011   23.1230 C   0  0  0  0  0  0  0  0  0  0  0  0
    9.7464  -14.2558   23.2205 O   0  0  0  0  0  0  0  0  0  0  0  0
    5.6884  -11.9854   26.0382 C   0  0  0  0  0  0  0  0  0  0  0  0
    6.8716  -12.7137   25.3633 C   0  0  0  0  0  0  0  0  0  0  0  0
    7.5457  -13.6258   26.3202 C   0  0  2  0  0  0  0  0  0  0  0  0
    8.1902  -12.9023   27.4797 C   0  0  0  0  0  0  0  0  0  0  0  0
    8.4604  -14.5818   25.6418 C   0  0  2  0  0  0  0  0  0  0  0  0
    7.9071  -14.9884   24.3303 N   0  0  0  0  0  0  0  0  0  0  0  0
    8.8588  -15.7678   26.4105 C   0  0  0  0  0  0  0  0  0  0  0  0
    9.6512  -15.7195   27.3800 O   0  0  0  0  0  0  0  0  0  0  0  0
    8.3791  -17.0520   26.1150 O   0  0  0  0  0  0  0  0  0  0  0  0
  2  1  1  0
  2  3  2  0
  4  2  1  0
  5  6  1  1
  5  4  1  0
  7  5  1  0
  8  7  2  0
  9  7  1  0
 10 11  1  0
 10  9  1  0
 11 18  1  0
 12 11  2  0
 13 14  1  0
 15 17  1  0
 15 14  1  0
 15 16  1  1
 17 18  1  6
 19 17  1  0
 19 21  1  0
 20 19  2  0
M  END
$$$$
