NGI.pdb
     RDKit          3D

 21 20  0  0  1  0  0  0  0  0999 V2000
    6.5237  -19.9982   24.9059 N   0  0  0  0  0  0  0  0  0  0  0  0
    5.5208  -19.8668   23.9022 C   0  0  0  0  0  0  0  0  0  0  0  0
    4.9434  -20.9464   23.5598 O   0  0  0  0  0  0  0  0  0  0  0  0
    5.1593  -18.5633   23.2843 C   0  0  0  0  0  0  0  0  0  0  0  0
    5.8858  -18.4504   21.9712 C   0  0  2  0  0  0  0  0  0  0  0  0
    6.7060  -19.6350   21.8307 N   0  0  0  0  0  0  0  0  0  0  0  0
    6.7508  -17.2708   21.8739 C   0  0  0  0  0  0  0  0  0  0  0  0
    6.2233  -16.1363   21.8197 O   0  0  0  0  0  0  0  0  0  0  0  0
    8.1776  -17.3400   21.8368 N   0  0  0  0  0  0  0  0  0  0  0  0
    9.0653  -16.2343   21.7897 C   0  0  0  0  0  0  0  0  0  0  0  0
    9.1963  -15.4533   23.0378 C   0  0  0  0  0  0  0  0  0  0  0  0
   10.1962  -14.6604   23.1583 O   0  0  0  0  0  0  0  0  0  0  0  0
    6.2764  -11.9595   26.8951 C   0  0  0  0  0  0  0  0  0  0  0  0
    7.5282  -12.8400   26.6867 C   0  0  0  0  0  0  0  0  0  0  0  0
    7.3281  -13.7847   25.5599 C   0  0  2  0  0  0  0  0  0  0  0  0
    6.0241  -14.5436   25.6431 C   0  0  0  0  0  0  0  0  0  0  0  0
    8.5074  -14.6639   25.3426 C   0  0  2  0  0  0  0  0  0  0  0  0
    8.3212  -15.4923   24.1298 N   0  0  0  0  0  0  0  0  0  0  0  0
    8.9141  -15.5088   26.4726 C   0  0  0  0  0  0  0  0  0  0  0  0
    8.5244  -16.6909   26.6172 O   0  0  0  0  0  0  0  0  0  0  0  0
    9.7750  -15.0528   27.4814 O   0  0  0  0  0  0  0  0  0  0  0  0
  2  1  1  0
  2  3  2  0
  4  2  1  0
  5  6  1  1
  5  4  1  0
  7  5  1  0
  8  7  2  0
  9  7  1  0
 10 11  1  0
 10  9  1  0
 11 18  1  0
 12 11  2  0
 13 14  1  0
 15 17  1  0
 15 14  1  0
 15 16  1  1
 17 18  1  6
 19 17  1  0
 19 21  1  0
 20 19  2  0
M  END
$$$$
