NGI.pdb
     RDKit          3D

 21 20  0  0  1  0  0  0  0  0999 V2000
    8.7812  -15.2556   17.7729 N   0  0  0  0  0  0  0  0  0  0  0  0
    7.9510  -14.3048   17.1115 C   0  0  0  0  0  0  0  0  0  0  0  0
    7.4224  -14.7009   16.0252 O   0  0  0  0  0  0  0  0  0  0  0  0
    7.7069  -12.9365   17.6401 C   0  0  0  0  0  0  0  0  0  0  0  0
    8.3860  -12.8238   18.9783 C   0  0  2  0  0  0  0  0  0  0  0  0
    9.7166  -13.3753   18.8328 N   0  0  0  0  0  0  0  0  0  0  0  0
    7.6978  -13.5455   20.0530 C   0  0  0  0  0  0  0  0  0  0  0  0
    6.5961  -13.1135   20.4631 O   0  0  0  0  0  0  0  0  0  0  0  0
    8.2161  -14.7269   20.6674 N   0  0  0  0  0  0  0  0  0  0  0  0
    7.6394  -15.4183   21.7639 C   0  0  0  0  0  0  0  0  0  0  0  0
    8.1723  -15.0770   23.0997 C   0  0  0  0  0  0  0  0  0  0  0  0
    9.4286  -14.8500   23.2147 O   0  0  0  0  0  0  0  0  0  0  0  0
    5.8575  -11.7093   26.4079 C   0  0  0  0  0  0  0  0  0  0  0  0
    6.8428  -12.5932   25.6119 C   0  0  0  0  0  0  0  0  0  0  0  0
    7.2400  -13.7850   26.4017 C   0  0  2  0  0  0  0  0  0  0  0  0
    7.8640  -13.4366   27.7331 C   0  0  0  0  0  0  0  0  0  0  0  0
    8.0489  -14.7466   25.6067 C   0  0  2  0  0  0  0  0  0  0  0  0
    7.4293  -14.9756   24.2818 N   0  0  0  0  0  0  0  0  0  0  0  0
    8.3589  -16.0311   26.2471 C   0  0  0  0  0  0  0  0  0  0  0  0
    7.6011  -17.0271   26.1834 O   0  0  0  0  0  0  0  0  0  0  0  0
    9.5341  -16.2408   26.9828 O   0  0  0  0  0  0  0  0  0  0  0  0
  2  1  1  0
  2  3  2  0
  4  2  1  0
  5  6  1  6
  5  4  1  0
  7  5  1  0
  8  7  2  0
  9  7  1  0
 10 11  1  0
 10  9  1  0
 11 18  1  0
 12 11  2  0
 13 14  1  0
 15 17  1  0
 15 14  1  0
 15 16  1  1
 17 18  1  6
 19 17  1  0
 19 21  1  0
 20 19  2  0
M  END
$$$$
