NGI.pdb
     RDKit          3D

 21 20  0  0  1  0  0  0  0  0999 V2000
    5.1538  -22.6498   19.8833 N   0  0  0  0  0  0  0  0  0  0  0  0
    5.4353  -21.2616   20.0392 C   0  0  0  0  0  0  0  0  0  0  0  0
    5.7813  -20.6503   18.9796 O   0  0  0  0  0  0  0  0  0  0  0  0
    5.3368  -20.5571   21.3451 C   0  0  0  0  0  0  0  0  0  0  0  0
    6.6118  -19.7866   21.5584 C   0  0  2  0  0  0  0  0  0  0  0  0
    7.5589  -20.6870   22.1815 N   0  0  0  0  0  0  0  0  0  0  0  0
    6.4542  -18.6092   22.4175 C   0  0  0  0  0  0  0  0  0  0  0  0
    6.2578  -17.4931   21.8845 O   0  0  0  0  0  0  0  0  0  0  0  0
    6.5121  -18.6606   23.8444 N   0  0  0  0  0  0  0  0  0  0  0  0
    6.1914  -17.6002   24.7308 C   0  0  0  0  0  0  0  0  0  0  0  0
    7.2438  -16.5821   24.9329 C   0  0  0  0  0  0  0  0  0  0  0  0
    8.3585  -16.7274   24.3170 O   0  0  0  0  0  0  0  0  0  0  0  0
    6.5356  -11.3883   27.4380 C   0  0  0  0  0  0  0  0  0  0  0  0
    6.7640  -12.8839   27.1268 C   0  0  0  0  0  0  0  0  0  0  0  0
    7.5626  -13.0497   25.8872 C   0  0  2  0  0  0  0  0  0  0  0  0
    6.8132  -12.6493   24.6376 C   0  0  0  0  0  0  0  0  0  0  0  0
    8.1873  -14.3957   25.7924 C   0  0  2  0  0  0  0  0  0  0  0  0
    7.1478  -15.4488   25.7491 N   0  0  0  0  0  0  0  0  0  0  0  0
    9.1962  -14.7247   26.8073 C   0  0  0  0  0  0  0  0  0  0  0  0
    9.0381  -15.6290   27.6602 O   0  0  0  0  0  0  0  0  0  0  0  0
   10.4205  -14.0469   26.8986 O   0  0  0  0  0  0  0  0  0  0  0  0
  2  1  1  0
  2  3  2  0
  4  2  1  0
  5  6  1  1
  5  4  1  0
  7  5  1  0
  8  7  2  0
  9  7  1  0
 10 11  1  0
 10  9  1  0
 11 18  1  0
 12 11  2  0
 13 14  1  0
 15 17  1  0
 15 14  1  0
 15 16  1  6
 17 18  1  1
 19 17  1  0
 19 21  1  0
 20 19  2  0
M  END
$$$$
