NGI.pdb
     RDKit          3D

 21 20  0  0  1  0  0  0  0  0999 V2000
    9.6557  -18.4497   20.5377 N   0  0  0  0  0  0  0  0  0  0  0  0
    8.8256  -19.6064   20.4765 C   0  0  0  0  0  0  0  0  0  0  0  0
    9.4099  -20.7127   20.7020 O   0  0  0  0  0  0  0  0  0  0  0  0
    7.3716  -19.5444   20.1710 C   0  0  0  0  0  0  0  0  0  0  0  0
    6.9927  -18.0992   19.9901 C   0  0  2  0  0  0  0  0  0  0  0  0
    8.0815  -17.4543   19.2869 N   0  0  0  0  0  0  0  0  0  0  0  0
    6.7649  -17.3857   21.2504 C   0  0  0  0  0  0  0  0  0  0  0  0
    6.7553  -16.1334   21.2437 O   0  0  0  0  0  0  0  0  0  0  0  0
    6.5504  -18.0429   22.5010 N   0  0  0  0  0  0  0  0  0  0  0  0
    6.1612  -17.4197   23.7147 C   0  0  0  0  0  0  0  0  0  0  0  0
    7.1505  -16.5038   24.3208 C   0  0  0  0  0  0  0  0  0  0  0  0
    8.3330  -16.4711   23.8272 O   0  0  0  0  0  0  0  0  0  0  0  0
    5.3707  -12.0031   26.6044 C   0  0  0  0  0  0  0  0  0  0  0  0
    6.3177  -12.8798   25.7558 C   0  0  0  0  0  0  0  0  0  0  0  0
    7.3134  -13.5669   26.6152 C   0  0  2  0  0  0  0  0  0  0  0  0
    8.3081  -12.6214   27.2476 C   0  0  0  0  0  0  0  0  0  0  0  0
    7.9530  -14.7205   25.9287 C   0  0  2  0  0  0  0  0  0  0  0  0
    6.9251  -15.6490   25.4062 N   0  0  0  0  0  0  0  0  0  0  0  0
    8.9613  -15.4639   26.6945 C   0  0  0  0  0  0  0  0  0  0  0  0
   10.1624  -15.1134   26.7639 O   0  0  0  0  0  0  0  0  0  0  0  0
    8.6536  -16.6298   27.4105 O   0  0  0  0  0  0  0  0  0  0  0  0
  2  1  1  0
  2  3  2  0
  4  2  1  0
  5  6  1  1
  5  4  1  0
  7  5  1  0
  8  7  2  0
  9  7  1  0
 10 11  1  0
 10  9  1  0
 11 18  1  0
 12 11  2  0
 13 14  1  0
 15 17  1  0
 15 14  1  0
 15 16  1  6
 17 18  1  1
 19 17  1  0
 19 21  1  0
 20 19  2  0
M  END
$$$$
