NGI.pdb
     RDKit          3D

 21 20  0  0  1  0  0  0  0  0999 V2000
    6.3561  -21.2482   20.6553 N   0  0  0  0  0  0  0  0  0  0  0  0
    5.7641  -20.0231   20.2314 C   0  0  0  0  0  0  0  0  0  0  0  0
    4.6122  -19.7769   20.7096 O   0  0  0  0  0  0  0  0  0  0  0  0
    6.4327  -19.0826   19.2935 C   0  0  0  0  0  0  0  0  0  0  0  0
    7.6275  -18.4937   19.9939 C   0  0  2  0  0  0  0  0  0  0  0  0
    7.7985  -19.2187   21.2352 N   0  0  0  0  0  0  0  0  0  0  0  0
    7.4876  -17.0675   20.3032 C   0  0  0  0  0  0  0  0  0  0  0  0
    7.8860  -16.2248   19.4668 O   0  0  0  0  0  0  0  0  0  0  0  0
    6.9164  -16.5761   21.5175 N   0  0  0  0  0  0  0  0  0  0  0  0
    6.7893  -15.2124   21.8873 C   0  0  0  0  0  0  0  0  0  0  0  0
    7.6459  -14.7598   23.0038 C   0  0  0  0  0  0  0  0  0  0  0  0
    8.8747  -14.4902   22.7584 O   0  0  0  0  0  0  0  0  0  0  0  0
    5.3408  -11.6469   26.5652 C   0  0  0  0  0  0  0  0  0  0  0  0
    6.4040  -12.2180   25.6012 C   0  0  0  0  0  0  0  0  0  0  0  0
    7.3056  -13.1613   26.3079 C   0  0  2  0  0  0  0  0  0  0  0  0
    8.1333  -12.5002   27.3854 C   0  0  0  0  0  0  0  0  0  0  0  0
    8.1124  -13.9841   25.3682 C   0  0  2  0  0  0  0  0  0  0  0  0
    7.2448  -14.5930   24.3346 N   0  0  0  0  0  0  0  0  0  0  0  0
    8.9771  -15.0082   25.9677 C   0  0  0  0  0  0  0  0  0  0  0  0
    8.5803  -16.1660   26.2364 O   0  0  0  0  0  0  0  0  0  0  0  0
   10.3210  -14.7655   26.2867 O   0  0  0  0  0  0  0  0  0  0  0  0
  2  1  1  0
  2  3  2  0
  4  2  1  0
  5  6  1  1
  5  4  1  0
  7  5  1  0
  8  7  2  0
  9  7  1  0
 10 11  1  0
 10  9  1  0
 11 18  1  0
 12 11  2  0
 13 14  1  0
 15 17  1  0
 15 14  1  0
 15 16  1  1
 17 18  1  6
 19 17  1  0
 19 21  1  0
 20 19  2  0
M  END
$$$$
