LNL.pdb
     RDKit          3D

 25 24  0  0  1  0  0  0  0  0999 V2000
   19.2236  -23.3896  -15.9944 C   0  0  0  0  0  0  0  0  0  0  0  0
   19.1950  -23.4517  -14.4834 C   0  0  2  0  0  0  0  0  0  0  0  0
   17.8108  -23.8532  -14.0272 C   0  0  0  0  0  0  0  0  0  0  0  0
   19.6528  -22.1554  -13.8730 C   0  0  0  0  0  0  0  0  0  0  0  0
   21.0680  -21.8896  -14.3147 C   0  0  2  0  0  0  0  0  0  0  0  0
   21.9261  -23.0511  -14.2551 N   0  0  0  0  0  0  0  0  0  0  0  0
   21.6549  -20.7489  -13.5251 C   0  0  0  0  0  0  0  0  0  0  0  0
   21.0576  -19.6485  -13.4674 O   0  0  0  0  0  0  0  0  0  0  0  0
   25.3457  -22.1606  -10.9330 N   0  0  0  0  0  0  0  0  0  0  0  0
   24.8199  -21.1145  -10.1310 C   0  0  0  0  0  0  0  0  0  0  0  0
   25.4341  -20.9079   -9.0329 O   0  0  0  0  0  0  0  0  0  0  0  0
   23.6316  -20.3209  -10.5552 C   0  0  0  0  0  0  0  0  0  0  0  0
   23.6215  -20.0258  -12.0417 C   0  0  2  0  0  0  0  0  0  0  0  0
   22.8694  -20.9240  -12.8568 N   0  0  0  0  0  0  0  0  0  0  0  0
   24.8915  -19.5644  -12.5880 C   0  0  0  0  0  0  0  0  0  0  0  0
   25.6726  -18.7771  -11.9399 O   0  0  0  0  0  0  0  0  0  0  0  0
   29.9759  -20.9013  -12.8618 C   0  0  0  0  0  0  0  0  0  0  0  0
   29.0691  -20.1448  -13.7537 C   0  0  2  0  0  0  0  0  0  0  0  0
   29.5223  -18.6676  -13.7541 C   0  0  0  0  0  0  0  0  0  0  0  0
   27.6359  -20.2613  -13.4642 C   0  0  0  0  0  0  0  0  0  0  0  0
   26.6685  -19.6457  -14.4029 C   0  0  2  0  0  0  0  0  0  0  0  0
   25.2899  -19.9860  -13.8648 N   0  0  0  0  0  0  0  0  0  0  0  0
   26.6644  -20.1835  -15.7501 C   0  0  0  0  0  0  0  0  0  0  0  0
   27.3370  -19.8157  -16.7449 O   0  0  0  0  0  0  0  0  0  0  0  0
   25.8056  -21.2767  -16.0502 O   0  0  0  0  0  0  0  0  0  0  0  0
  2  1  1  6
  2  3  1  0
  4  5  1  0
  4  2  1  0
  5  6  1  1
  7  5  1  0
  7  8  2  0
 10 12  1  0
 10  9  1  0
 11 10  2  0
 13 12  1  1
 14 13  1  0
 14  7  1  0
 15 13  1  0
 16 15  2  0
 18 17  1  1
 18 19  1  0
 18 20  1  0
 21 20  1  1
 21 22  1  0
 21 23  1  0
 22 15  1  0
 23 25  1  0
 24 23  2  0
M  END
$$$$
