LNL.pdb
     RDKit          3D

 25 24  0  0  1  0  0  0  0  0999 V2000
   16.2679  -15.8701  -15.7925 C   0  0  0  0  0  0  0  0  0  0  0  0
   16.0024  -15.4384  -17.2176 C   0  0  2  0  0  0  0  0  0  0  0  0
   16.2983  -16.5904  -18.1507 C   0  0  0  0  0  0  0  0  0  0  0  0
   16.7759  -14.1966  -17.5670 C   0  0  0  0  0  0  0  0  0  0  0  0
   16.4254  -13.1175  -16.5765 C   0  0  2  0  0  0  0  0  0  0  0  0
   15.0552  -12.6663  -16.6650 N   0  0  0  0  0  0  0  0  0  0  0  0
   17.3802  -11.9597  -16.7074 C   0  0  0  0  0  0  0  0  0  0  0  0
   18.6144  -12.1651  -16.7815 O   0  0  0  0  0  0  0  0  0  0  0  0
   16.3292   -9.4597  -19.3469 N   0  0  0  0  0  0  0  0  0  0  0  0
   16.0965   -8.3287  -18.5218 C   0  0  0  0  0  0  0  0  0  0  0  0
   15.3240   -7.4428  -19.0161 O   0  0  0  0  0  0  0  0  0  0  0  0
   16.7186   -8.1986  -17.1735 C   0  0  0  0  0  0  0  0  0  0  0  0
   17.5613   -9.4004  -16.7962 C   0  0  2  0  0  0  0  0  0  0  0  0
   16.8824  -10.6547  -16.7459 N   0  0  0  0  0  0  0  0  0  0  0  0
   18.5511   -9.1574  -15.7543 C   0  0  0  0  0  0  0  0  0  0  0  0
   18.2618   -9.2184  -14.5043 O   0  0  0  0  0  0  0  0  0  0  0  0
   24.1637  -10.7187  -14.7437 C   0  0  0  0  0  0  0  0  0  0  0  0
   23.1443   -9.6970  -14.4165 C   0  0  2  0  0  0  0  0  0  0  0  0
   22.7714   -9.8548  -12.9253 C   0  0  0  0  0  0  0  0  0  0  0  0
   21.9483   -9.6854  -15.2654 C   0  0  0  0  0  0  0  0  0  0  0  0
   20.9347   -8.6257  -15.0513 C   0  0  2  0  0  0  0  0  0  0  0  0
   19.8706   -8.8452  -16.1123 N   0  0  0  0  0  0  0  0  0  0  0  0
   21.3841   -7.2653  -15.2781 C   0  0  0  0  0  0  0  0  0  0  0  0
   21.8568   -6.4461  -14.4519 O   0  0  0  0  0  0  0  0  0  0  0  0
   21.3067   -6.7268  -16.5922 O   0  0  0  0  0  0  0  0  0  0  0  0
  2  1  1  1
  2  3  1  0
  4  5  1  0
  4  2  1  0
  5  6  1  6
  7  5  1  0
  7  8  2  0
 10 12  1  0
 10  9  1  0
 11 10  2  0
 13 12  1  1
 14 13  1  0
 14  7  1  0
 15 13  1  0
 16 15  2  0
 18 17  1  6
 18 19  1  0
 18 20  1  0
 21 20  1  6
 21 22  1  0
 21 23  1  0
 22 15  1  0
 23 25  1  0
 24 23  2  0
M  END
$$$$
