LNL.pdb
     RDKit          3D

 25 24  0  0  1  0  0  0  0  0999 V2000
   13.5922  -12.0269  -16.7716 C   0  0  0  0  0  0  0  0  0  0  0  0
   13.5980  -12.9804  -15.5973 C   0  0  2  0  0  0  0  0  0  0  0  0
   12.1731  -13.3216  -15.2253 C   0  0  0  0  0  0  0  0  0  0  0  0
   14.3805  -12.4208  -14.4410 C   0  0  0  0  0  0  0  0  0  0  0  0
   15.8019  -12.1973  -14.8859 C   0  0  2  0  0  0  0  0  0  0  0  0
   16.5980  -13.4031  -14.9248 N   0  0  0  0  0  0  0  0  0  0  0  0
   16.4587  -11.1494  -14.0258 C   0  0  0  0  0  0  0  0  0  0  0  0
   16.8305  -11.4306  -12.8623 O   0  0  0  0  0  0  0  0  0  0  0  0
   18.2768   -6.4394  -12.5707 N   0  0  0  0  0  0  0  0  0  0  0  0
   18.6148   -6.6602  -13.9312 C   0  0  0  0  0  0  0  0  0  0  0  0
   19.3294   -5.7518  -14.4699 O   0  0  0  0  0  0  0  0  0  0  0  0
   18.1593   -7.8738  -14.6669 C   0  0  0  0  0  0  0  0  0  0  0  0
   17.1258   -8.6736  -13.8992 C   0  0  2  0  0  0  0  0  0  0  0  0
   16.6517   -9.8616  -14.5322 N   0  0  0  0  0  0  0  0  0  0  0  0
   16.1329   -7.8779  -13.1885 C   0  0  0  0  0  0  0  0  0  0  0  0
   15.1079   -7.3739  -13.7760 O   0  0  0  0  0  0  0  0  0  0  0  0
   15.0159   -6.6233   -7.2547 C   0  0  0  0  0  0  0  0  0  0  0  0
   14.4781   -6.6833   -8.6322 C   0  0  2  0  0  0  0  0  0  0  0  0
   13.0995   -7.3789   -8.5768 C   0  0  0  0  0  0  0  0  0  0  0  0
   15.3476   -7.3051   -9.6366 C   0  0  0  0  0  0  0  0  0  0  0  0
   15.2594   -6.8383  -11.0403 C   0  0  2  0  0  0  0  0  0  0  0  0
   16.2870   -7.6454  -11.8141 N   0  0  0  0  0  0  0  0  0  0  0  0
   15.6445   -5.4595  -11.2739 C   0  0  0  0  0  0  0  0  0  0  0  0
   16.7910   -4.9871  -11.4736 O   0  0  0  0  0  0  0  0  0  0  0  0
   14.6345   -4.4584  -11.2931 O   0  0  0  0  0  0  0  0  0  0  0  0
  2  1  1  6
  2  3  1  0
  4  5  1  0
  4  2  1  0
  5  6  1  1
  7  5  1  0
  7  8  2  0
 10 12  1  0
 10  9  1  0
 11 10  2  0
 13 12  1  6
 14 13  1  0
 14  7  1  0
 15 13  1  0
 16 15  2  0
 18 17  1  1
 18 19  1  0
 18 20  1  0
 21 20  1  1
 21 22  1  0
 21 23  1  0
 22 15  1  0
 23 25  1  0
 24 23  2  0
M  END
$$$$
