LNL.pdb
     RDKit          3D

 25 24  0  0  1  0  0  0  0  0999 V2000
   27.0263  -17.1254  -18.8607 C   0  0  0  0  0  0  0  0  0  0  0  0
   27.0748  -18.5921  -19.2276 C   0  0  2  0  0  0  0  0  0  0  0  0
   27.0726  -18.7296  -20.7330 C   0  0  0  0  0  0  0  0  0  0  0  0
   25.9568  -19.3575  -18.5743 C   0  0  0  0  0  0  0  0  0  0  0  0
   26.0626  -19.1828  -17.0821 C   0  0  2  0  0  0  0  0  0  0  0  0
   27.3368  -19.5908  -16.5353 N   0  0  0  0  0  0  0  0  0  0  0  0
   24.9301  -19.8973  -16.3920 C   0  0  0  0  0  0  0  0  0  0  0  0
   23.8029  -19.9661  -16.9360 O   0  0  0  0  0  0  0  0  0  0  0  0
   25.3358  -24.6034  -14.4771 N   0  0  0  0  0  0  0  0  0  0  0  0
   25.6997  -23.2451  -14.2859 C   0  0  0  0  0  0  0  0  0  0  0  0
   26.7787  -22.8835  -14.8610 O   0  0  0  0  0  0  0  0  0  0  0  0
   24.8689  -22.3172  -13.4670 C   0  0  0  0  0  0  0  0  0  0  0  0
   24.2535  -21.2004  -14.2861 C   0  0  2  0  0  0  0  0  0  0  0  0
   25.1428  -20.4835  -15.1417 N   0  0  0  0  0  0  0  0  0  0  0  0
   23.2444  -20.4102  -13.5924 C   0  0  0  0  0  0  0  0  0  0  0  0
   23.5479  -19.4044  -12.8532 O   0  0  0  0  0  0  0  0  0  0  0  0
   18.6724  -17.6810  -13.5312 C   0  0  0  0  0  0  0  0  0  0  0  0
   20.1262  -17.4053  -13.5064 C   0  0  2  0  0  0  0  0  0  0  0  0
   20.3941  -16.1738  -14.4003 C   0  0  0  0  0  0  0  0  0  0  0  0
   21.0005  -18.5259  -13.8687 C   0  0  0  0  0  0  0  0  0  0  0  0
   20.8027  -19.8296  -13.1924 C   0  0  2  0  0  0  0  0  0  0  0  0
   21.8894  -20.7462  -13.7264 N   0  0  0  0  0  0  0  0  0  0  0  0
   19.5688  -20.5245  -13.5065 C   0  0  0  0  0  0  0  0  0  0  0  0
   19.2944  -21.2214  -14.5147 O   0  0  0  0  0  0  0  0  0  0  0  0
   18.4847  -20.4473  -12.5891 O   0  0  0  0  0  0  0  0  0  0  0  0
  2  1  1  6
  2  3  1  0
  4  5  1  0
  4  2  1  0
  5  6  1  1
  7  5  1  0
  7  8  2  0
 10 12  1  0
 10  9  1  0
 11 10  2  0
 13 12  1  1
 14 13  1  0
 14  7  1  0
 15 13  1  0
 16 15  2  0
 18 17  1  6
 18 19  1  0
 18 20  1  0
 21 20  1  6
 21 22  1  0
 21 23  1  0
 22 15  1  0
 23 25  1  0
 24 23  2  0
M  END
$$$$
