LNL.pdb
     RDKit          3D

 25 24  0  0  1  0  0  0  0  0999 V2000
   28.1304  -20.3090  -17.2414 C   0  0  0  0  0  0  0  0  0  0  0  0
   26.8044  -19.7935  -16.7275 C   0  0  2  0  0  0  0  0  0  0  0  0
   26.0419  -19.1565  -17.8668 C   0  0  0  0  0  0  0  0  0  0  0  0
   26.9934  -18.8599  -15.5634 C   0  0  0  0  0  0  0  0  0  0  0  0
   27.3764  -19.6715  -14.3538 C   0  0  2  0  0  0  0  0  0  0  0  0
   27.3799  -21.0982  -14.5851 N   0  0  0  0  0  0  0  0  0  0  0  0
   26.4893  -19.3201  -13.1881 C   0  0  0  0  0  0  0  0  0  0  0  0
   25.5834  -18.4639  -13.3204 O   0  0  0  0  0  0  0  0  0  0  0  0
   22.4691  -19.7998   -9.8338 N   0  0  0  0  0  0  0  0  0  0  0  0
   23.4768  -20.7678  -10.0818 C   0  0  0  0  0  0  0  0  0  0  0  0
   23.5383  -21.7199   -9.2359 O   0  0  0  0  0  0  0  0  0  0  0  0
   24.3926  -20.6659  -11.2534 C   0  0  0  0  0  0  0  0  0  0  0  0
   25.7782  -20.1814  -10.8766 C   0  0  2  0  0  0  0  0  0  0  0  0
   26.6814  -19.9540  -11.9579 N   0  0  0  0  0  0  0  0  0  0  0  0
   26.3417  -20.7933   -9.6798 C   0  0  0  0  0  0  0  0  0  0  0  0
   26.8737  -21.9624   -9.6914 O   0  0  0  0  0  0  0  0  0  0  0  0
   28.3014  -20.6078   -4.4413 C   0  0  0  0  0  0  0  0  0  0  0  0
   28.6942  -19.7372   -5.5717 C   0  0  2  0  0  0  0  0  0  0  0  0
   29.2413  -18.4150   -4.9886 C   0  0  0  0  0  0  0  0  0  0  0  0
   27.6597  -19.4856   -6.5807 C   0  0  0  0  0  0  0  0  0  0  0  0
   27.0037  -20.6446   -7.2307 C   0  0  2  0  0  0  0  0  0  0  0  0
   26.3103  -20.0942   -8.4645 N   0  0  0  0  0  0  0  0  0  0  0  0
   25.9357  -21.2724   -6.4760 C   0  0  0  0  0  0  0  0  0  0  0  0
   26.0196  -22.1106   -5.5445 O   0  0  0  0  0  0  0  0  0  0  0  0
   24.5884  -20.9350   -6.7824 O   0  0  0  0  0  0  0  0  0  0  0  0
  2  1  1  6
  2  3  1  0
  4  5  1  0
  4  2  1  0
  5  6  1  6
  7  5  1  0
  7  8  2  0
 10 12  1  0
 10  9  1  0
 11 10  2  0
 13 12  1  6
 14 13  1  0
 14  7  1  0
 15 13  1  0
 16 15  2  0
 18 17  1  1
 18 19  1  0
 18 20  1  0
 21 20  1  1
 21 22  1  0
 21 23  1  0
 22 15  1  0
 23 25  1  0
 24 23  2  0
M  END
$$$$
