LNL.pdb
     RDKit          3D

 25 24  0  0  1  0  0  0  0  0999 V2000
   15.6973  -28.8318   -4.6640 C   0  0  0  0  0  0  0  0  0  0  0  0
   17.0625  -28.8788   -4.0145 C   0  0  2  0  0  0  0  0  0  0  0  0
   17.3649  -30.2985   -3.5922 C   0  0  0  0  0  0  0  0  0  0  0  0
   17.1610  -27.9020   -2.8749 C   0  0  0  0  0  0  0  0  0  0  0  0
   17.0257  -26.5065   -3.4251 C   0  0  2  0  0  0  0  0  0  0  0  0
   18.0156  -26.1743   -4.4244 N   0  0  0  0  0  0  0  0  0  0  0  0
   17.0380  -25.5007   -2.3038 C   0  0  0  0  0  0  0  0  0  0  0  0
   18.1254  -25.0535   -1.8694 O   0  0  0  0  0  0  0  0  0  0  0  0
   15.1890  -21.9784    1.1009 N   0  0  0  0  0  0  0  0  0  0  0  0
   14.1838  -22.2043    0.1249 C   0  0  0  0  0  0  0  0  0  0  0  0
   13.1936  -21.4020    0.1661 O   0  0  0  0  0  0  0  0  0  0  0  0
   14.2912  -23.3065   -0.8728 C   0  0  0  0  0  0  0  0  0  0  0  0
   15.5657  -24.1129   -0.7235 C   0  0  2  0  0  0  0  0  0  0  0  0
   15.8301  -25.0682   -1.7503 N   0  0  0  0  0  0  0  0  0  0  0  0
   15.8807  -24.5226    0.6392 C   0  0  0  0  0  0  0  0  0  0  0  0
   15.3699  -25.5716    1.1766 O   0  0  0  0  0  0  0  0  0  0  0  0
   19.4713  -26.2267    3.3277 C   0  0  0  0  0  0  0  0  0  0  0  0
   19.5579  -24.9691    2.5525 C   0  0  2  0  0  0  0  0  0  0  0  0
   21.0170  -24.4651    2.6214 C   0  0  0  0  0  0  0  0  0  0  0  0
   18.6122  -23.9134    2.9298 C   0  0  0  0  0  0  0  0  0  0  0  0
   17.1601  -24.1832    2.8087 C   0  0  2  0  0  0  0  0  0  0  0  0
   16.7716  -23.7559    1.4041 N   0  0  0  0  0  0  0  0  0  0  0  0
   16.2965  -23.3964    3.6685 C   0  0  0  0  0  0  0  0  0  0  0  0
   15.6401  -22.3628    3.3889 O   0  0  0  0  0  0  0  0  0  0  0  0
   16.1263  -23.7972    5.0225 O   0  0  0  0  0  0  0  0  0  0  0  0
  2  1  1  1
  2  3  1  0
  4  5  1  0
  4  2  1  0
  5  6  1  6
  7  5  1  0
  7  8  2  0
 10 12  1  0
 10  9  1  0
 11 10  2  0
 13 12  1  1
 14 13  1  0
 14  7  1  0
 15 13  1  0
 16 15  2  0
 18 17  1  1
 18 19  1  0
 18 20  1  0
 21 20  1  1
 21 22  1  0
 21 23  1  0
 22 15  1  0
 23 25  1  0
 24 23  2  0
M  END
$$$$
