LNL.pdb
     RDKit          3D

 25 24  0  0  1  0  0  0  0  0999 V2000
   19.5754  -23.6936   -9.7980 C   0  0  0  0  0  0  0  0  0  0  0  0
   18.4676  -24.7134   -9.6538 C   0  0  2  0  0  0  0  0  0  0  0  0
   18.1645  -25.3149  -11.0071 C   0  0  0  0  0  0  0  0  0  0  0  0
   17.2523  -24.1135   -9.0012 C   0  0  0  0  0  0  0  0  0  0  0  0
   17.5685  -23.8427   -7.5537 C   0  0  2  0  0  0  0  0  0  0  0  0
   18.9269  -24.1676   -7.1821 N   0  0  0  0  0  0  0  0  0  0  0  0
   16.5846  -24.5553   -6.6630 C   0  0  0  0  0  0  0  0  0  0  0  0
   15.3524  -24.4185   -6.8479 O   0  0  0  0  0  0  0  0  0  0  0  0
   18.9355  -27.2573   -4.4252 N   0  0  0  0  0  0  0  0  0  0  0  0
   17.8359  -28.1387   -4.5925 C   0  0  0  0  0  0  0  0  0  0  0  0
   18.1260  -29.3803   -4.5836 O   0  0  0  0  0  0  0  0  0  0  0  0
   16.4441  -27.6342   -4.7657 C   0  0  0  0  0  0  0  0  0  0  0  0
   16.3458  -26.1266   -4.6469 C   0  0  2  0  0  0  0  0  0  0  0  0
   17.0528  -25.3702   -5.6292 N   0  0  0  0  0  0  0  0  0  0  0  0
   16.3807  -25.6113   -3.2840 C   0  0  0  0  0  0  0  0  0  0  0  0
   17.2712  -24.7742   -2.8886 O   0  0  0  0  0  0  0  0  0  0  0  0
   13.6565  -22.5017    0.1680 C   0  0  0  0  0  0  0  0  0  0  0  0
   15.0008  -23.0932   -0.0143 C   0  0  2  0  0  0  0  0  0  0  0  0
   16.0327  -21.9431   -0.0146 C   0  0  0  0  0  0  0  0  0  0  0  0
   15.1698  -23.9596   -1.1857 C   0  0  0  0  0  0  0  0  0  0  0  0
   15.3396  -25.4165   -0.9739 C   0  0  2  0  0  0  0  0  0  0  0  0
   15.4148  -26.0339   -2.3592 N   0  0  0  0  0  0  0  0  0  0  0  0
   14.2252  -26.0983   -0.3435 C   0  0  0  0  0  0  0  0  0  0  0  0
   13.8299  -26.0236    0.8463 O   0  0  0  0  0  0  0  0  0  0  0  0
   13.4319  -26.9840   -1.1240 O   0  0  0  0  0  0  0  0  0  0  0  0
  2  1  1  6
  2  3  1  0
  4  5  1  0
  4  2  1  0
  5  6  1  1
  7  5  1  0
  7  8  2  0
 10 12  1  0
 10  9  1  0
 11 10  2  0
 13 12  1  1
 14 13  1  0
 14  7  1  0
 15 13  1  0
 16 15  2  0
 18 17  1  6
 18 19  1  0
 18 20  1  0
 21 20  1  6
 21 22  1  0
 21 23  1  0
 22 15  1  0
 23 25  1  0
 24 23  2  0
M  END
$$$$
