LNL.pdb
     RDKit          3D

 25 24  0  0  1  0  0  0  0  0999 V2000
   25.8436  -19.7089  -20.7412 C   0  0  0  0  0  0  0  0  0  0  0  0
   27.1203  -19.8698  -19.9459 C   0  0  2  0  0  0  0  0  0  0  0  0
   28.1935  -20.4506  -20.8382 C   0  0  0  0  0  0  0  0  0  0  0  0
   26.8931  -20.6887  -18.7048 C   0  0  0  0  0  0  0  0  0  0  0  0
   25.7803  -20.0577  -17.9098 C   0  0  2  0  0  0  0  0  0  0  0  0
   25.9732  -18.6487  -17.6517 N   0  0  0  0  0  0  0  0  0  0  0  0
   25.5647  -20.8131  -16.6244 C   0  0  0  0  0  0  0  0  0  0  0  0
   25.3969  -22.0551  -16.6432 O   0  0  0  0  0  0  0  0  0  0  0  0
   26.0407  -22.1057  -11.2804 N   0  0  0  0  0  0  0  0  0  0  0  0
   25.9873  -20.7465  -11.6849 C   0  0  0  0  0  0  0  0  0  0  0  0
   25.5867  -19.9275  -10.7934 O   0  0  0  0  0  0  0  0  0  0  0  0
   26.3752  -20.3202  -13.0595 C   0  0  0  0  0  0  0  0  0  0  0  0
   25.2872  -20.5747  -14.0834 C   0  0  2  0  0  0  0  0  0  0  0  0
   25.5530  -20.1216  -15.4103 N   0  0  0  0  0  0  0  0  0  0  0  0
   23.9260  -20.3900  -13.5963 C   0  0  0  0  0  0  0  0  0  0  0  0
   23.4530  -19.2328  -13.3014 O   0  0  0  0  0  0  0  0  0  0  0  0
   20.2465  -19.9763  -10.3672 C   0  0  0  0  0  0  0  0  0  0  0  0
   21.4288  -20.8274  -10.1067 C   0  0  2  0  0  0  0  0  0  0  0  0
   22.1267  -20.2989   -8.8334 C   0  0  0  0  0  0  0  0  0  0  0  0
   22.3792  -20.9665  -11.2152 C   0  0  0  0  0  0  0  0  0  0  0  0
   21.8789  -21.4478  -12.5245 C   0  0  2  0  0  0  0  0  0  0  0  0
   23.0899  -21.5049  -13.4389 N   0  0  0  0  0  0  0  0  0  0  0  0
   20.9576  -20.5642  -13.2134 C   0  0  0  0  0  0  0  0  0  0  0  0
   21.0415  -19.3234  -13.3882 O   0  0  0  0  0  0  0  0  0  0  0  0
   19.7814  -21.1153  -13.7928 O   0  0  0  0  0  0  0  0  0  0  0  0
  2  1  1  6
  2  3  1  0
  4  5  1  0
  4  2  1  0
  5  6  1  1
  7  5  1  0
  7  8  2  0
 10 12  1  0
 10  9  1  0
 11 10  2  0
 13 12  1  1
 14 13  1  0
 14  7  1  0
 15 13  1  0
 16 15  2  0
 18 17  1  6
 18 19  1  0
 18 20  1  0
 21 20  1  1
 21 22  1  0
 21 23  1  0
 22 15  1  0
 23 25  1  0
 24 23  2  0
M  END
$$$$
