LNL.pdb
     RDKit          3D

 25 24  0  0  1  0  0  0  0  0999 V2000
   20.2220  -18.6010  -15.8324 C   0  0  0  0  0  0  0  0  0  0  0  0
   21.5018  -18.1924  -16.5274 C   0  0  2  0  0  0  0  0  0  0  0  0
   21.2141  -17.9306  -17.9882 C   0  0  0  0  0  0  0  0  0  0  0  0
   22.5860  -19.2152  -16.3248 C   0  0  0  0  0  0  0  0  0  0  0  0
   22.8325  -19.3678  -14.8468 C   0  0  2  0  0  0  0  0  0  0  0  0
   23.1162  -18.1224  -14.1705 N   0  0  0  0  0  0  0  0  0  0  0  0
   23.9283  -20.3720  -14.6021 C   0  0  0  0  0  0  0  0  0  0  0  0
   23.8468  -21.5253  -15.0864 O   0  0  0  0  0  0  0  0  0  0  0  0
   27.2134  -21.8937  -15.8748 N   0  0  0  0  0  0  0  0  0  0  0  0
   27.9690  -20.8584  -15.2657 C   0  0  0  0  0  0  0  0  0  0  0  0
   29.0464  -20.5418  -15.8697 O   0  0  0  0  0  0  0  0  0  0  0  0
   27.5223  -20.1961  -14.0073 C   0  0  0  0  0  0  0  0  0  0  0  0
   26.2099  -20.7468  -13.4865 C   0  0  2  0  0  0  0  0  0  0  0  0
   25.0369  -20.0110  -13.8321 N   0  0  0  0  0  0  0  0  0  0  0  0
   26.2607  -21.2868  -12.1338 C   0  0  0  0  0  0  0  0  0  0  0  0
   26.1468  -22.5430  -11.8908 O   0  0  0  0  0  0  0  0  0  0  0  0
   26.0015  -19.9221   -6.6858 C   0  0  0  0  0  0  0  0  0  0  0  0
   27.2638  -20.2991   -7.3601 C   0  0  2  0  0  0  0  0  0  0  0  0
   28.4124  -19.4995   -6.7052 C   0  0  0  0  0  0  0  0  0  0  0  0
   27.2817  -20.1568   -8.8199 C   0  0  0  0  0  0  0  0  0  0  0  0
   26.2900  -20.9133   -9.6201 C   0  0  2  0  0  0  0  0  0  0  0  0
   26.4401  -20.4178  -11.0478 N   0  0  0  0  0  0  0  0  0  0  0  0
   24.8970  -20.6615   -9.3036 C   0  0  0  0  0  0  0  0  0  0  0  0
   24.1240  -19.7997   -9.7907 O   0  0  0  0  0  0  0  0  0  0  0  0
   24.2607  -21.4655   -8.3179 O   0  0  0  0  0  0  0  0  0  0  0  0
  2  1  1  1
  2  3  1  0
  4  5  1  0
  4  2  1  0
  5  6  1  6
  7  5  1  0
  7  8  2  0
 10 12  1  0
 10  9  1  0
 11 10  2  0
 13 12  1  1
 14 13  1  0
 14  7  1  0
 15 13  1  0
 16 15  2  0
 18 17  1  1
 18 19  1  0
 18 20  1  0
 21 20  1  1
 21 22  1  0
 21 23  1  0
 22 15  1  0
 23 25  1  0
 24 23  2  0
M  END
$$$$
