LPS.pdb
     RDKit          3D

 22 22  0  0  1  0  0  0  0  0999 V2000
   19.8479  -11.7095    7.0464 C   0  0  0  0  0  0  0  0  0  0  0  0
   19.1842  -12.5417    5.9410 C   0  0  2  0  0  0  0  0  0  0  0  0
   20.1322  -12.5664    4.7795 C   0  0  0  0  0  0  0  0  0  0  0  0
   17.8164  -12.0091    5.6408 C   0  0  0  0  0  0  0  0  0  0  0  0
   16.9911  -13.0722    4.9359 C   0  0  2  0  0  0  0  0  0  0  0  0
   15.7475  -12.5604    4.5511 N   0  0  0  0  0  0  0  0  0  0  0  0
   17.0361  -14.3341    5.6918 C   0  0  0  0  0  0  0  0  0  0  0  0
   17.2033  -14.2001    6.9574 O   0  0  0  0  0  0  0  0  0  0  0  0
   16.9118  -15.6016    5.1433 N   0  0  0  0  0  0  0  0  0  0  0  0
   16.0856  -16.0048    3.9846 C   0  0  0  0  0  0  0  0  0  0  0  0
   17.1819  -16.6773    3.1187 C   0  0  0  0  0  0  0  0  0  0  0  0
   18.2867  -17.0786    4.1098 C   0  0  0  0  0  0  0  0  0  0  0  0
   17.5635  -16.8644    5.4229 C   0  0  1  0  0  0  0  0  0  0  0  0
   18.3160  -17.0412    6.6233 C   0  0  0  0  0  0  0  0  0  0  0  0
   19.2612  -16.2916    6.9501 O   0  0  0  0  0  0  0  0  0  0  0  0
   18.6804  -18.9500   11.0073 O   0  0  0  0  0  0  0  0  0  0  0  0
   17.9689  -18.8527    9.8315 C   0  0  0  0  0  0  0  0  0  0  0  0
   18.8959  -18.3079    8.7359 C   0  0  2  0  0  0  0  0  0  0  0  0
   18.0657  -18.0973    7.5773 N   0  0  0  0  0  0  0  0  0  0  0  0
   20.0213  -19.2120    8.4864 C   0  0  0  0  0  0  0  0  0  0  0  0
   19.9364  -20.1589    7.6655 O   0  0  0  0  0  0  0  0  0  0  0  0
   21.2217  -19.0439    9.1571 O   0  0  0  0  0  0  0  0  0  0  0  0
  2  1  1  1
  2  3  1  0
  4  2  1  0
  5  4  1  0
  5  6  1  1
  7  9  1  0
  7  5  1  0
  8  7  2  0
  9 13  1  0
 10 11  1  0
 10  9  1  0
 11 12  1  0
 12 13  1  0
 13 14  1  1
 14 19  1  0
 14 15  2  0
 16 17  1  0
 18 17  1  1
 18 20  1  0
 19 18  1  0
 20 22  1  0
 21 20  2  0
M  END
$$$$
