LPS.pdb
     RDKit          3D

 22 22  0  0  1  0  0  0  0  0999 V2000
   20.0650  -18.2624  -14.1765 C   0  0  0  0  0  0  0  0  0  0  0  0
   19.6887  -19.6309  -14.7599 C   0  0  2  0  0  0  0  0  0  0  0  0
   18.4788  -19.4245  -15.6213 C   0  0  0  0  0  0  0  0  0  0  0  0
   19.5294  -20.6373  -13.6615 C   0  0  0  0  0  0  0  0  0  0  0  0
   20.8947  -21.1083  -13.1902 C   0  0  2  0  0  0  0  0  0  0  0  0
   21.6502  -21.5922  -14.2634 N   0  0  0  0  0  0  0  0  0  0  0  0
   20.7563  -21.9433  -11.9863 C   0  0  0  0  0  0  0  0  0  0  0  0
   20.2584  -23.1086  -12.1913 O   0  0  0  0  0  0  0  0  0  0  0  0
   21.1174  -21.5642  -10.7023 N   0  0  0  0  0  0  0  0  0  0  0  0
   22.2507  -20.7017  -10.3028 C   0  0  0  0  0  0  0  0  0  0  0  0
   21.4789  -19.6461   -9.4697 C   0  0  0  0  0  0  0  0  0  0  0  0
   20.1833  -20.3487   -9.0319 C   0  0  0  0  0  0  0  0  0  0  0  0
   20.5119  -21.7793   -9.4044 C   0  0  1  0  0  0  0  0  0  0  0  0
   19.4819  -22.7541   -9.2379 C   0  0  0  0  0  0  0  0  0  0  0  0
   18.5947  -22.9590  -10.0940 O   0  0  0  0  0  0  0  0  0  0  0  0
   18.9942  -24.5602   -5.6250 O   0  0  0  0  0  0  0  0  0  0  0  0
   18.6087  -25.3695   -6.6713 C   0  0  0  0  0  0  0  0  0  0  0  0
   18.2416  -24.4855   -7.8714 C   0  0  2  0  0  0  0  0  0  0  0  0
   19.3588  -23.5979   -8.0714 N   0  0  0  0  0  0  0  0  0  0  0  0
   16.9746  -23.7831   -7.6530 C   0  0  0  0  0  0  0  0  0  0  0  0
   16.9386  -22.5553   -7.3904 O   0  0  0  0  0  0  0  0  0  0  0  0
   15.7700  -24.4627   -7.7315 O   0  0  0  0  0  0  0  0  0  0  0  0
  2  1  1  1
  2  3  1  0
  4  2  1  0
  5  4  1  0
  5  6  1  6
  7  9  1  0
  7  5  1  0
  8  7  2  0
  9 13  1  0
 10 11  1  0
 10  9  1  0
 11 12  1  0
 12 13  1  0
 13 14  1  6
 14 19  1  0
 14 15  2  0
 16 17  1  0
 18 17  1  1
 18 20  1  0
 19 18  1  0
 20 22  1  0
 21 20  2  0
M  END
$$$$
