LPS.pdb
     RDKit          3D

 22 22  0  0  1  0  0  0  0  0999 V2000
   22.8111  -17.5472  -14.9764 C   0  0  0  0  0  0  0  0  0  0  0  0
   22.4271  -18.1302  -16.3430 C   0  0  2  0  0  0  0  0  0  0  0  0
   21.4219  -17.1989  -16.9519 C   0  0  0  0  0  0  0  0  0  0  0  0
   21.9760  -19.5509  -16.1929 C   0  0  0  0  0  0  0  0  0  0  0  0
   22.9622  -20.3176  -15.3282 C   0  0  2  0  0  0  0  0  0  0  0  0
   24.2201  -20.3699  -15.9377 N   0  0  0  0  0  0  0  0  0  0  0  0
   22.3527  -21.5690  -14.8501 C   0  0  0  0  0  0  0  0  0  0  0  0
   21.1565  -21.4497  -14.4000 O   0  0  0  0  0  0  0  0  0  0  0  0
   22.9652  -22.8130  -14.8587 N   0  0  0  0  0  0  0  0  0  0  0  0
   24.1343  -23.2361  -15.6601 C   0  0  0  0  0  0  0  0  0  0  0  0
   25.0460  -23.7526  -14.5173 C   0  0  0  0  0  0  0  0  0  0  0  0
   24.0893  -24.0932  -13.3629 C   0  0  0  0  0  0  0  0  0  0  0  0
   22.7589  -24.0182  -14.0825 C   0  0  1  0  0  0  0  0  0  0  0  0
   21.5777  -24.1809  -13.2972 C   0  0  0  0  0  0  0  0  0  0  0  0
   21.2988  -23.4434  -12.3275 O   0  0  0  0  0  0  0  0  0  0  0  0
   17.1718  -26.0992  -12.8998 O   0  0  0  0  0  0  0  0  0  0  0  0
   18.3184  -25.9083  -13.6394 C   0  0  0  0  0  0  0  0  0  0  0  0
   19.4180  -25.3649  -12.7164 C   0  0  2  0  0  0  0  0  0  0  0  0
   20.5900  -25.2074  -13.5394 N   0  0  0  0  0  0  0  0  0  0  0  0
   19.6328  -26.2424  -11.5631 C   0  0  0  0  0  0  0  0  0  0  0  0
   20.4929  -27.1576  -11.5825 O   0  0  0  0  0  0  0  0  0  0  0  0
   18.8842  -26.0836  -10.4083 O   0  0  0  0  0  0  0  0  0  0  0  0
  2  1  1  1
  2  3  1  0
  4  2  1  0
  5  4  1  0
  5  6  1  6
  7  9  1  0
  7  5  1  0
  8  7  2  0
  9 13  1  0
 10 11  1  0
 10  9  1  0
 11 12  1  0
 12 13  1  0
 13 14  1  1
 14 19  1  0
 14 15  2  0
 16 17  1  0
 18 17  1  6
 18 20  1  0
 19 18  1  0
 20 22  1  0
 21 20  2  0
M  END
$$$$
