LPS.pdb
     RDKit          3D

 22 22  0  0  1  0  0  0  0  0999 V2000
   24.8896  -18.6314  -16.5332 C   0  0  0  0  0  0  0  0  0  0  0  0
   23.9244  -18.8345  -15.3576 C   0  0  2  0  0  0  0  0  0  0  0  0
   23.0287  -17.6329  -15.3109 C   0  0  0  0  0  0  0  0  0  0  0  0
   24.6897  -19.1127  -14.1000 C   0  0  0  0  0  0  0  0  0  0  0  0
   24.9742  -20.6008  -13.9867 C   0  0  2  0  0  0  0  0  0  0  0  0
   23.9358  -21.3487  -14.5516 N   0  0  0  0  0  0  0  0  0  0  0  0
   25.4261  -20.9294  -12.6252 C   0  0  0  0  0  0  0  0  0  0  0  0
   24.5071  -20.9014  -11.7295 O   0  0  0  0  0  0  0  0  0  0  0  0
   26.7261  -21.2549  -12.2691 N   0  0  0  0  0  0  0  0  0  0  0  0
   27.7145  -22.0153  -13.0644 C   0  0  0  0  0  0  0  0  0  0  0  0
   28.8825  -20.9957  -13.0513 C   0  0  0  0  0  0  0  0  0  0  0  0
   28.6325  -20.1143  -11.8167 C   0  0  0  0  0  0  0  0  0  0  0  0
   27.5489  -20.9160  -11.1264 C   0  0  1  0  0  0  0  0  0  0  0  0
   26.9624  -20.3528   -9.9528 C   0  0  0  0  0  0  0  0  0  0  0  0
   26.3779  -19.2482   -9.9476 O   0  0  0  0  0  0  0  0  0  0  0  0
   24.6008  -20.7592   -6.4562 O   0  0  0  0  0  0  0  0  0  0  0  0
   25.8853  -21.2458   -6.5633 C   0  0  0  0  0  0  0  0  0  0  0  0
   26.7066  -20.2866   -7.4361 C   0  0  2  0  0  0  0  0  0  0  0  0
   26.9839  -20.9961   -8.6590 N   0  0  0  0  0  0  0  0  0  0  0  0
   27.9144  -19.8313   -6.7430 C   0  0  0  0  0  0  0  0  0  0  0  0
   29.0312  -20.3708   -6.9418 O   0  0  0  0  0  0  0  0  0  0  0  0
   27.8552  -18.7821   -5.8405 O   0  0  0  0  0  0  0  0  0  0  0  0
  2  1  1  6
  2  3  1  0
  4  2  1  0
  5  4  1  0
  5  6  1  1
  7  9  1  0
  7  5  1  0
  8  7  2  0
  9 13  1  0
 10 11  1  0
 10  9  1  0
 11 12  1  0
 12 13  1  0
 13 14  1  1
 14 19  1  0
 14 15  2  0
 16 17  1  0
 18 17  1  1
 18 20  1  0
 19 18  1  0
 20 22  1  0
 21 20  2  0
M  END
$$$$
