LPS.pdb
     RDKit          3D

 22 22  0  0  1  0  0  0  0  0999 V2000
   28.9745  -20.4293   -6.5412 C   0  0  0  0  0  0  0  0  0  0  0  0
   27.5387  -19.9020   -6.4173 C   0  0  2  0  0  0  0  0  0  0  0  0
   27.0518  -20.2691   -5.0474 C   0  0  0  0  0  0  0  0  0  0  0  0
   26.7007  -20.4069   -7.5519 C   0  0  0  0  0  0  0  0  0  0  0  0
   26.8560  -19.4930   -8.7556 C   0  0  2  0  0  0  0  0  0  0  0  0
   27.0292  -18.1652   -8.3511 N   0  0  0  0  0  0  0  0  0  0  0  0
   25.8273  -19.7997   -9.7624 C   0  0  0  0  0  0  0  0  0  0  0  0
   24.6240  -19.5332   -9.4037 O   0  0  0  0  0  0  0  0  0  0  0  0
   26.0700  -20.3330  -11.0191 N   0  0  0  0  0  0  0  0  0  0  0  0
   27.3602  -20.3890  -11.7403 C   0  0  0  0  0  0  0  0  0  0  0  0
   27.4174  -21.9108  -12.0312 C   0  0  0  0  0  0  0  0  0  0  0  0
   25.9562  -22.3858  -11.9747 C   0  0  0  0  0  0  0  0  0  0  0  0
   25.2382  -21.0525  -11.9615 C   0  0  1  0  0  0  0  0  0  0  0  0
   23.8190  -21.0727  -11.8070 C   0  0  0  0  0  0  0  0  0  0  0  0
   23.2533  -21.4900  -10.7736 O   0  0  0  0  0  0  0  0  0  0  0  0
   21.8236  -18.7502  -13.8378 O   0  0  0  0  0  0  0  0  0  0  0  0
   20.8270  -19.5907  -13.3923 C   0  0  0  0  0  0  0  0  0  0  0  0
   21.4722  -20.8084  -12.7161 C   0  0  2  0  0  0  0  0  0  0  0  0
   22.8963  -20.6170  -12.8214 N   0  0  0  0  0  0  0  0  0  0  0  0
   21.0097  -22.0628  -13.3151 C   0  0  0  0  0  0  0  0  0  0  0  0
   21.7140  -22.6995  -14.1374 O   0  0  0  0  0  0  0  0  0  0  0  0
   19.7694  -22.5849  -12.9863 O   0  0  0  0  0  0  0  0  0  0  0  0
  2  1  1  6
  2  3  1  0
  4  2  1  0
  5  4  1  0
  5  6  1  1
  7  9  1  0
  7  5  1  0
  8  7  2  0
  9 13  1  0
 10 11  1  0
 10  9  1  0
 11 12  1  0
 12 13  1  0
 13 14  1  1
 14 19  1  0
 14 15  2  0
 16 17  1  0
 18 17  1  6
 18 20  1  0
 19 18  1  0
 20 22  1  0
 21 20  2  0
M  END
$$$$
