LPS.pdb
     RDKit          3D

 22 22  0  0  1  0  0  0  0  0999 V2000
   25.0683  -17.2027  -18.9016 C   0  0  0  0  0  0  0  0  0  0  0  0
   23.7813  -17.7850  -18.3020 C   0  0  2  0  0  0  0  0  0  0  0  0
   22.7118  -16.7463  -18.4625 C   0  0  0  0  0  0  0  0  0  0  0  0
   24.0245  -18.2427  -16.8963 C   0  0  0  0  0  0  0  0  0  0  0  0
   24.7048  -19.6010  -16.9055 C   0  0  2  0  0  0  0  0  0  0  0  0
   24.0445  -20.4806  -17.7698 N   0  0  0  0  0  0  0  0  0  0  0  0
   24.9868  -20.0373  -15.5285 C   0  0  0  0  0  0  0  0  0  0  0  0
   23.9586  -20.1099  -14.7636 O   0  0  0  0  0  0  0  0  0  0  0  0
   26.2399  -20.3619  -15.0316 N   0  0  0  0  0  0  0  0  0  0  0  0
   27.3834  -20.9342  -15.7751 C   0  0  0  0  0  0  0  0  0  0  0  0
   28.4648  -19.8821  -15.4178 C   0  0  0  0  0  0  0  0  0  0  0  0
   27.9777  -19.2330  -14.1119 C   0  0  0  0  0  0  0  0  0  0  0  0
   26.8620  -20.1855  -13.7357 C   0  0  1  0  0  0  0  0  0  0  0  0
   26.0734  -19.8540  -12.5925 C   0  0  0  0  0  0  0  0  0  0  0  0
   25.5873  -18.7175  -12.4081 O   0  0  0  0  0  0  0  0  0  0  0  0
   24.2463  -22.4732  -10.0295 O   0  0  0  0  0  0  0  0  0  0  0  0
   24.0048  -21.1184   -9.9637 C   0  0  0  0  0  0  0  0  0  0  0  0
   25.3166  -20.3682  -10.2332 C   0  0  2  0  0  0  0  0  0  0  0  0
   25.7585  -20.7903  -11.5380 N   0  0  0  0  0  0  0  0  0  0  0  0
   26.3029  -20.6158   -9.1786 C   0  0  0  0  0  0  0  0  0  0  0  0
   27.3243  -21.3177   -9.3832 O   0  0  0  0  0  0  0  0  0  0  0  0
   26.1326  -20.0759   -7.9142 O   0  0  0  0  0  0  0  0  0  0  0  0
  2  1  1  1
  2  3  1  0
  4  2  1  0
  5  4  1  0
  5  6  1  1
  7  9  1  0
  7  5  1  0
  8  7  2  0
  9 13  1  0
 10 11  1  0
 10  9  1  0
 11 12  1  0
 12 13  1  0
 13 14  1  1
 14 19  1  0
 14 15  2  0
 16 17  1  0
 18 17  1  1
 18 20  1  0
 19 18  1  0
 20 22  1  0
 21 20  2  0
M  END
$$$$
