LPS.pdb
     RDKit          3D

 22 22  0  0  1  0  0  0  0  0999 V2000
   13.6888   -5.9416   -9.6134 C   0  0  0  0  0  0  0  0  0  0  0  0
   14.4266   -7.0887   -8.9099 C   0  0  2  0  0  0  0  0  0  0  0  0
   14.4028   -6.7914   -7.4404 C   0  0  0  0  0  0  0  0  0  0  0  0
   15.7895   -7.2713   -9.5048 C   0  0  0  0  0  0  0  0  0  0  0  0
   15.6952   -8.1201  -10.7613 C   0  0  2  0  0  0  0  0  0  0  0  0
   15.3537   -9.4390  -10.4444 N   0  0  0  0  0  0  0  0  0  0  0  0
   16.8603   -7.8772  -11.6270 C   0  0  0  0  0  0  0  0  0  0  0  0
   17.9850   -7.8075  -11.0121 O   0  0  0  0  0  0  0  0  0  0  0  0
   16.8177   -7.7283  -13.0049 N   0  0  0  0  0  0  0  0  0  0  0  0
   15.9494   -8.4475  -13.9624 C   0  0  0  0  0  0  0  0  0  0  0  0
   15.3037   -7.2315  -14.6753 C   0  0  0  0  0  0  0  0  0  0  0  0
   16.2853   -6.0689  -14.4551 C   0  0  0  0  0  0  0  0  0  0  0  0
   17.4837   -6.8239  -13.9193 C   0  0  1  0  0  0  0  0  0  0  0  0
   18.6057   -6.0536  -13.4878 C   0  0  0  0  0  0  0  0  0  0  0  0
   18.5597   -5.2720  -12.5136 O   0  0  0  0  0  0  0  0  0  0  0  0
   23.3625   -5.2041  -13.8012 O   0  0  0  0  0  0  0  0  0  0  0  0
   22.2757   -5.9644  -14.1741 C   0  0  0  0  0  0  0  0  0  0  0  0
   20.9940   -5.2508  -13.7218 C   0  0  2  0  0  0  0  0  0  0  0  0
   19.9005   -6.0965  -14.1278 N   0  0  0  0  0  0  0  0  0  0  0  0
   20.9128   -3.8946  -14.2699 C   0  0  0  0  0  0  0  0  0  0  0  0
   20.5148   -3.6802  -15.4418 O   0  0  0  0  0  0  0  0  0  0  0  0
   21.2771   -2.8014  -13.5011 O   0  0  0  0  0  0  0  0  0  0  0  0
  2  1  1  6
  2  3  1  0
  4  2  1  0
  5  4  1  0
  5  6  1  1
  7  9  1  0
  7  5  1  0
  8  7  2  0
  9 13  1  0
 10 11  1  0
 10  9  1  0
 11 12  1  0
 12 13  1  0
 13 14  1  1
 14 19  1  0
 14 15  2  0
 16 17  1  0
 18 17  1  6
 18 20  1  0
 19 18  1  0
 20 22  1  0
 21 20  2  0
M  END
$$$$
