LPS.pdb
     RDKit          3D

 22 22  0  0  1  0  0  0  0  0999 V2000
   17.2301  -18.3313    2.3890 C   0  0  0  0  0  0  0  0  0  0  0  0
   15.8122  -18.4618    2.9613 C   0  0  2  0  0  0  0  0  0  0  0  0
   15.3853  -17.0918    3.3961 C   0  0  0  0  0  0  0  0  0  0  0  0
   15.7780  -19.5127    4.0286 C   0  0  0  0  0  0  0  0  0  0  0  0
   15.9169  -20.8899    3.4024 C   0  0  2  0  0  0  0  0  0  0  0  0
   14.9519  -21.0824    2.4083 N   0  0  0  0  0  0  0  0  0  0  0  0
   16.0693  -21.9115    4.4507 C   0  0  0  0  0  0  0  0  0  0  0  0
   15.0954  -21.9798    5.2841 O   0  0  0  0  0  0  0  0  0  0  0  0
   17.1521  -22.7673    4.5842 N   0  0  0  0  0  0  0  0  0  0  0  0
   17.8868  -23.4656    3.5069 C   0  0  0  0  0  0  0  0  0  0  0  0
   19.3246  -22.9870    3.8350 C   0  0  0  0  0  0  0  0  0  0  0  0
   19.2892  -22.5986    5.3222 C   0  0  0  0  0  0  0  0  0  0  0  0
   17.9486  -23.1786    5.7218 C   0  0  1  0  0  0  0  0  0  0  0  0
   17.4952  -22.9279    7.0523 C   0  0  0  0  0  0  0  0  0  0  0  0
   17.1581  -21.7933    7.4534 O   0  0  0  0  0  0  0  0  0  0  0  0
   15.4544  -25.3797    9.4672 O   0  0  0  0  0  0  0  0  0  0  0  0
   16.6207  -24.9715   10.0765 C   0  0  0  0  0  0  0  0  0  0  0  0
   17.0749  -23.6502    9.4409 C   0  0  2  0  0  0  0  0  0  0  0  0
   17.3806  -23.9518    8.0656 N   0  0  0  0  0  0  0  0  0  0  0  0
   18.2018  -23.0631   10.1702 C   0  0  0  0  0  0  0  0  0  0  0  0
   19.3916  -23.2872    9.8358 O   0  0  0  0  0  0  0  0  0  0  0  0
   17.9815  -22.2365   11.2597 O   0  0  0  0  0  0  0  0  0  0  0  0
  2  1  1  1
  2  3  1  0
  4  2  1  0
  5  4  1  0
  5  6  1  1
  7  9  1  0
  7  5  1  0
  8  7  2  0
  9 13  1  0
 10 11  1  0
 10  9  1  0
 11 12  1  0
 12 13  1  0
 13 14  1  1
 14 19  1  0
 14 15  2  0
 16 17  1  0
 18 17  1  1
 18 20  1  0
 19 18  1  0
 20 22  1  0
 21 20  2  0
M  END
$$$$
