LPS.pdb
     RDKit          3D

 22 22  0  0  1  0  0  0  0  0999 V2000
   36.9185   -8.6728   -8.9929 C   0  0  0  0  0  0  0  0  0  0  0  0
   37.5535   -8.1405   -7.7013 C   0  0  2  0  0  0  0  0  0  0  0  0
   37.3405   -6.6563   -7.6854 C   0  0  0  0  0  0  0  0  0  0  0  0
   38.9812   -8.5843   -7.6037 C   0  0  0  0  0  0  0  0  0  0  0  0
   39.0404  -10.0607   -7.2507 C   0  0  2  0  0  0  0  0  0  0  0  0
   38.2248  -10.3404   -6.1492 N   0  0  0  0  0  0  0  0  0  0  0  0
   40.4373  -10.5237   -7.2351 C   0  0  0  0  0  0  0  0  0  0  0  0
   41.1128  -10.1679   -6.2032 O   0  0  0  0  0  0  0  0  0  0  0  0
   41.0390  -11.2885   -8.2229 N   0  0  0  0  0  0  0  0  0  0  0  0
   40.4298  -12.3800   -9.0136 C   0  0  0  0  0  0  0  0  0  0  0  0
   40.7351  -11.8548  -10.4401 C   0  0  0  0  0  0  0  0  0  0  0  0
   41.9328  -10.9057  -10.2710 C   0  0  0  0  0  0  0  0  0  0  0  0
   42.3428  -11.2373   -8.8514 C   0  0  1  0  0  0  0  0  0  0  0  0
   43.3954  -10.4640   -8.2745 C   0  0  0  0  0  0  0  0  0  0  0  0
   43.2970   -9.2374   -8.0560 O   0  0  0  0  0  0  0  0  0  0  0  0
   46.2571  -11.6402   -5.7230 O   0  0  0  0  0  0  0  0  0  0  0  0
   46.8205  -11.1161   -6.8657 C   0  0  0  0  0  0  0  0  0  0  0  0
   45.8008  -10.1871   -7.5390 C   0  0  2  0  0  0  0  0  0  0  0  0
   44.6739  -11.0147   -7.8871 N   0  0  0  0  0  0  0  0  0  0  0  0
   46.3856   -9.4907   -8.6876 C   0  0  0  0  0  0  0  0  0  0  0  0
   46.4682  -10.0354   -9.8164 O   0  0  0  0  0  0  0  0  0  0  0  0
   46.8682   -8.1987   -8.5568 O   0  0  0  0  0  0  0  0  0  0  0  0
  2  1  1  6
  2  3  1  0
  4  2  1  0
  5  4  1  0
  5  6  1  1
  7  9  1  0
  7  5  1  0
  8  7  2  0
  9 13  1  0
 10 11  1  0
 10  9  1  0
 11 12  1  0
 12 13  1  0
 13 14  1  1
 14 19  1  0
 14 15  2  0
 16 17  1  0
 18 17  1  6
 18 20  1  0
 19 18  1  0
 20 22  1  0
 21 20  2  0
M  END
$$$$
