EEG.pdb
     RDKit          3D

 23 22  0  0  1  0  0  0  0  0999 V2000
   22.4077  -12.6040  -17.7367 N   0  0  0  0  0  0  0  0  0  0  0  0
   21.9015  -11.3443  -18.1630 C   0  0  1  0  0  0  0  0  0  0  0  0
   21.0516  -11.3193  -19.3782 C   0  0  0  0  0  0  0  0  0  0  0  0
   19.7423  -12.0179  -19.3207 C   0  0  0  0  0  0  0  0  0  0  0  0
   19.0078  -12.1210  -20.5742 C   0  0  0  0  0  0  0  0  0  0  0  0
   19.5668  -12.3768  -21.6560 O   0  0  0  0  0  0  0  0  0  0  0  0
   21.2267  -10.6288  -17.0183 C   0  0  0  0  0  0  0  0  0  0  0  0
   20.5849  -11.3487  -16.2199 O   0  0  0  0  0  0  0  0  0  0  0  0
   17.6197  -11.9374  -20.6385 O   0  0  0  0  0  0  0  0  0  0  0  0
   21.3194   -9.2221  -16.8626 N   0  0  0  0  0  0  0  0  0  0  0  0
   20.6845   -8.5500  -15.7097 C   0  0  1  0  0  0  0  0  0  0  0  0
   21.6337   -7.5056  -15.2859 C   0  0  0  0  0  0  0  0  0  0  0  0
   21.2427   -6.5775  -14.2042 C   0  0  0  0  0  0  0  0  0  0  0  0
   22.2807   -5.6019  -13.7954 C   0  0  0  0  0  0  0  0  0  0  0  0
   23.2788   -5.4094  -14.5346 O   0  0  0  0  0  0  0  0  0  0  0  0
   19.3418   -8.1649  -16.0997 C   0  0  0  0  0  0  0  0  0  0  0  0
   19.1706   -7.7828  -17.3146 O   0  0  0  0  0  0  0  0  0  0  0  0
   22.1843   -4.8866  -12.6101 O   0  0  0  0  0  0  0  0  0  0  0  0
   18.1796   -8.1647  -15.2765 N   0  0  0  0  0  0  0  0  0  0  0  0
   16.9416   -7.5548  -15.6784 C   0  0  0  0  0  0  0  0  0  0  0  0
   15.9060   -7.6391  -14.6385 C   0  0  0  0  0  0  0  0  0  0  0  0
   15.8235   -6.7918  -13.5446 O   0  0  0  0  0  0  0  0  0  0  0  0
   15.0322   -8.5365  -14.7390 O   0  0  0  0  0  0  0  0  0  0  0  0
  2  1  1  1
  2  7  1  0
  3  4  1  0
  3  2  1  0
  5  6  2  0
  5  4  1  0
  7 10  1  0
  7  8  2  0
  9  5  1  0
 10 11  1  0
 11 16  1  0
 11 12  1  6
 13 12  1  0
 13 14  1  0
 14 15  2  0
 14 18  1  0
 16 17  2  0
 19 20  1  0
 19 16  1  0
 21 22  1  0
 21 20  1  0
 23 21  2  0
M  END
$$$$
