EEG.pdb
     RDKit          3D

 23 22  0  0  1  0  0  0  0  0999 V2000
   27.5536  -18.3918  -16.5009 N   0  0  0  0  0  0  0  0  0  0  0  0
   26.3909  -19.1562  -16.7984 C   0  0  1  0  0  0  0  0  0  0  0  0
   26.5200  -20.6337  -16.7994 C   0  0  0  0  0  0  0  0  0  0  0  0
   27.8467  -21.2120  -16.4657 C   0  0  0  0  0  0  0  0  0  0  0  0
   28.0052  -22.6420  -16.6926 C   0  0  0  0  0  0  0  0  0  0  0  0
   27.0838  -23.3544  -17.1302 O   0  0  0  0  0  0  0  0  0  0  0  0
   25.2323  -18.7169  -15.9368 C   0  0  0  0  0  0  0  0  0  0  0  0
   25.4969  -18.4799  -14.7363 O   0  0  0  0  0  0  0  0  0  0  0  0
   29.2116  -23.3059  -16.4304 O   0  0  0  0  0  0  0  0  0  0  0  0
   23.9226  -18.5822  -16.4643 N   0  0  0  0  0  0  0  0  0  0  0  0
   22.8190  -18.0828  -15.6176 C   0  0  1  0  0  0  0  0  0  0  0  0
   22.1092  -17.0849  -16.4372 C   0  0  0  0  0  0  0  0  0  0  0  0
   20.9029  -16.4320  -15.8867 C   0  0  0  0  0  0  0  0  0  0  0  0
   20.2776  -15.4096  -16.7585 C   0  0  0  0  0  0  0  0  0  0  0  0
   20.7247  -15.2239  -17.9185 O   0  0  0  0  0  0  0  0  0  0  0  0
   22.0873  -19.2291  -15.1138 C   0  0  0  0  0  0  0  0  0  0  0  0
   22.5838  -20.3911  -15.3474 O   0  0  0  0  0  0  0  0  0  0  0  0
   19.2029  -14.6432  -16.3304 O   0  0  0  0  0  0  0  0  0  0  0  0
   20.8670  -19.2088  -14.3798 N   0  0  0  0  0  0  0  0  0  0  0  0
   20.2092  -20.4054  -13.9306 C   0  0  0  0  0  0  0  0  0  0  0  0
   18.9936  -20.1244  -13.1532 C   0  0  0  0  0  0  0  0  0  0  0  0
   18.1478  -21.0968  -12.6430 O   0  0  0  0  0  0  0  0  0  0  0  0
   18.6925  -18.9249  -12.9308 O   0  0  0  0  0  0  0  0  0  0  0  0
  2  1  1  1
  2  7  1  0
  3  4  1  0
  3  2  1  0
  5  6  2  0
  5  4  1  0
  7 10  1  0
  7  8  2  0
  9  5  1  0
 10 11  1  0
 11 16  1  0
 11 12  1  6
 13 12  1  0
 13 14  1  0
 14 15  2  0
 14 18  1  0
 16 17  2  0
 19 20  1  0
 19 16  1  0
 21 22  1  0
 21 20  1  0
 23 21  2  0
M  END
$$$$
