EEG.pdb
     RDKit          3D

 23 22  0  0  1  0  0  0  0  0999 V2000
   20.6545  -12.7720  -15.6248 N   0  0  0  0  0  0  0  0  0  0  0  0
   20.0360  -11.6961  -16.3208 C   0  0  1  0  0  0  0  0  0  0  0  0
   18.6932  -11.9345  -16.9038 C   0  0  0  0  0  0  0  0  0  0  0  0
   17.7019  -12.6707  -16.0784 C   0  0  0  0  0  0  0  0  0  0  0  0
   16.4111  -12.9347  -16.6992 C   0  0  0  0  0  0  0  0  0  0  0  0
   15.4889  -13.5166  -16.1000 O   0  0  0  0  0  0  0  0  0  0  0  0
   20.0429  -10.4447  -15.4771 C   0  0  0  0  0  0  0  0  0  0  0  0
   19.7833  -10.5977  -14.2620 O   0  0  0  0  0  0  0  0  0  0  0  0
   16.1277  -12.5473  -18.0162 O   0  0  0  0  0  0  0  0  0  0  0  0
   20.3287   -9.1728  -16.0360 N   0  0  0  0  0  0  0  0  0  0  0  0
   20.5016   -7.9911  -15.1656 C   0  0  1  0  0  0  0  0  0  0  0  0
   21.8616   -7.4928  -15.4370 C   0  0  0  0  0  0  0  0  0  0  0  0
   22.3114   -6.2450  -14.7849 C   0  0  0  0  0  0  0  0  0  0  0  0
   23.6864   -5.8085  -15.1244 C   0  0  0  0  0  0  0  0  0  0  0  0
   23.9975   -4.5953  -15.0191 O   0  0  0  0  0  0  0  0  0  0  0  0
   19.3720   -7.1074  -15.3808 C   0  0  0  0  0  0  0  0  0  0  0  0
   18.9600   -6.9655  -16.5897 O   0  0  0  0  0  0  0  0  0  0  0  0
   24.6513   -6.7063  -15.5592 O   0  0  0  0  0  0  0  0  0  0  0  0
   18.6606   -6.3728  -14.3895 N   0  0  0  0  0  0  0  0  0  0  0  0
   17.5670   -5.4954  -14.7066 C   0  0  0  0  0  0  0  0  0  0  0  0
   18.0171   -4.1646  -15.1392 C   0  0  0  0  0  0  0  0  0  0  0  0
   17.1687   -3.1129  -15.4483 O   0  0  0  0  0  0  0  0  0  0  0  0
   19.2523   -3.9564  -15.2385 O   0  0  0  0  0  0  0  0  0  0  0  0
  2  1  1  1
  2  7  1  0
  3  4  1  0
  3  2  1  0
  5  6  2  0
  5  4  1  0
  7 10  1  0
  7  8  2  0
  9  5  1  0
 10 11  1  0
 11 16  1  0
 11 12  1  6
 13 12  1  0
 13 14  1  0
 14 15  2  0
 14 18  1  0
 16 17  2  0
 19 20  1  0
 19 16  1  0
 21 22  1  0
 21 20  1  0
 23 21  2  0
M  END
$$$$
