EEG.pdb
     RDKit          3D

 23 22  0  0  1  0  0  0  0  0999 V2000
   23.6322  -11.2527  -17.6773 N   0  0  0  0  0  0  0  0  0  0  0  0
   24.6122  -10.5767  -18.4566 C   0  0  1  0  0  0  0  0  0  0  0  0
   24.6084  -10.8104  -19.9212 C   0  0  0  0  0  0  0  0  0  0  0  0
   23.8843  -12.0036  -20.4291 C   0  0  0  0  0  0  0  0  0  0  0  0
   22.4347  -11.9893  -20.2888 C   0  0  0  0  0  0  0  0  0  0  0  0
   21.7849  -10.9336  -20.1821 O   0  0  0  0  0  0  0  0  0  0  0  0
   24.6106   -9.0997  -18.1463 C   0  0  0  0  0  0  0  0  0  0  0  0
   25.5168   -8.4228  -18.6829 O   0  0  0  0  0  0  0  0  0  0  0  0
   21.6796  -13.1700  -20.2654 O   0  0  0  0  0  0  0  0  0  0  0  0
   23.6349   -8.5198  -17.2958 N   0  0  0  0  0  0  0  0  0  0  0  0
   23.6828   -7.0791  -16.9699 C   0  0  1  0  0  0  0  0  0  0  0  0
   23.4236   -6.3756  -18.2385 C   0  0  0  0  0  0  0  0  0  0  0  0
   22.2000   -6.7002  -19.0014 C   0  0  0  0  0  0  0  0  0  0  0  0
   21.9554   -5.8632  -20.1997 C   0  0  0  0  0  0  0  0  0  0  0  0
   21.7087   -4.6384  -20.0629 O   0  0  0  0  0  0  0  0  0  0  0  0
   22.8010   -6.8456  -15.8425 C   0  0  0  0  0  0  0  0  0  0  0  0
   22.7340   -5.6452  -15.3888 O   0  0  0  0  0  0  0  0  0  0  0  0
   21.9907   -6.3944  -21.4813 O   0  0  0  0  0  0  0  0  0  0  0  0
   21.9917   -7.8098  -15.1763 N   0  0  0  0  0  0  0  0  0  0  0  0
   21.1450   -7.4791  -14.0627 C   0  0  0  0  0  0  0  0  0  0  0  0
   19.7670   -7.1719  -14.4720 C   0  0  0  0  0  0  0  0  0  0  0  0
   18.7178   -6.9573  -13.5920 O   0  0  0  0  0  0  0  0  0  0  0  0
   19.5129   -7.0965  -15.7003 O   0  0  0  0  0  0  0  0  0  0  0  0
  2  1  1  1
  2  7  1  0
  3  4  1  0
  3  2  1  0
  5  6  2  0
  5  4  1  0
  7 10  1  0
  7  8  2  0
  9  5  1  0
 10 11  1  0
 11 16  1  0
 11 12  1  6
 13 12  1  0
 13 14  1  0
 14 15  2  0
 14 18  1  0
 16 17  2  0
 19 20  1  0
 19 16  1  0
 21 22  1  0
 21 20  1  0
 23 21  2  0
M  END
$$$$
