EEG.pdb
     RDKit          3D

 23 22  0  0  1  0  0  0  0  0999 V2000
   19.4864  -34.5158  -12.3797 N   0  0  0  0  0  0  0  0  0  0  0  0
   19.8263  -33.8291  -11.1807 C   0  0  1  0  0  0  0  0  0  0  0  0
   18.9055  -33.9635  -10.0257 C   0  0  0  0  0  0  0  0  0  0  0  0
   18.6852  -35.3239   -9.4719 C   0  0  0  0  0  0  0  0  0  0  0  0
   17.6894  -35.4392   -8.4152 C   0  0  0  0  0  0  0  0  0  0  0  0
   16.5052  -35.0916   -8.5733 O   0  0  0  0  0  0  0  0  0  0  0  0
   21.2470  -34.1387  -10.7764 C   0  0  0  0  0  0  0  0  0  0  0  0
   21.5113  -35.3451  -10.5715 O   0  0  0  0  0  0  0  0  0  0  0  0
   18.0062  -35.9515   -7.1495 O   0  0  0  0  0  0  0  0  0  0  0  0
   22.2205  -33.1164  -10.6394 N   0  0  0  0  0  0  0  0  0  0  0  0
   23.6245  -33.4530  -10.3238 C   0  0  1  0  0  0  0  0  0  0  0  0
   24.3906  -33.1492  -11.5453 C   0  0  0  0  0  0  0  0  0  0  0  0
   24.6309  -34.2271  -12.5277 C   0  0  0  0  0  0  0  0  0  0  0  0
   25.3463  -33.8186  -13.7596 C   0  0  0  0  0  0  0  0  0  0  0  0
   24.7242  -33.7626  -14.8503 O   0  0  0  0  0  0  0  0  0  0  0  0
   23.9780  -32.7842   -9.0865 C   0  0  0  0  0  0  0  0  0  0  0  0
   23.5475  -31.5843   -8.9243 O   0  0  0  0  0  0  0  0  0  0  0  0
   26.6951  -33.4925  -13.7468 O   0  0  0  0  0  0  0  0  0  0  0  0
   24.7567  -33.3165   -8.0194 N   0  0  0  0  0  0  0  0  0  0  0  0
   25.1010  -32.5530   -6.8512 C   0  0  0  0  0  0  0  0  0  0  0  0
   25.7741  -33.3622   -5.8250 C   0  0  0  0  0  0  0  0  0  0  0  0
   26.2913  -32.8560   -4.6429 O   0  0  0  0  0  0  0  0  0  0  0  0
   25.8937  -34.5972   -6.0237 O   0  0  0  0  0  0  0  0  0  0  0  0
  2  1  1  6
  2  7  1  0
  3  4  1  0
  3  2  1  0
  5  6  2  0
  5  4  1  0
  7 10  1  0
  7  8  2  0
  9  5  1  0
 10 11  1  0
 11 16  1  0
 11 12  1  6
 13 12  1  0
 13 14  1  0
 14 15  2  0
 14 18  1  0
 16 17  2  0
 19 20  1  0
 19 16  1  0
 21 22  1  0
 21 20  1  0
 23 21  2  0
M  END
$$$$
