EEG.pdb
     RDKit          3D

 23 22  0  0  1  0  0  0  0  0999 V2000
   29.3270  -34.0454   -4.8089 N   0  0  0  0  0  0  0  0  0  0  0  0
   29.0698  -34.8703   -3.6783 C   0  0  1  0  0  0  0  0  0  0  0  0
   29.2738  -36.3314   -3.8313 C   0  0  0  0  0  0  0  0  0  0  0  0
   30.3076  -36.7879   -4.7951 C   0  0  0  0  0  0  0  0  0  0  0  0
   30.5087  -38.2270   -4.8952 C   0  0  0  0  0  0  0  0  0  0  0  0
   29.7645  -39.0460   -4.3265 O   0  0  0  0  0  0  0  0  0  0  0  0
   29.7986  -34.3484   -2.4641 C   0  0  0  0  0  0  0  0  0  0  0  0
   30.6294  -33.4348   -2.6702 O   0  0  0  0  0  0  0  0  0  0  0  0
   31.5582  -38.7796   -5.6423 O   0  0  0  0  0  0  0  0  0  0  0  0
   29.5504  -34.8678   -1.1678 N   0  0  0  0  0  0  0  0  0  0  0  0
   30.1506  -34.2327    0.0239 C   0  0  1  0  0  0  0  0  0  0  0  0
   29.0160  -33.8243    0.8709 C   0  0  0  0  0  0  0  0  0  0  0  0
   28.3130  -34.8492    1.6708 C   0  0  0  0  0  0  0  0  0  0  0  0
   27.2710  -34.3354    2.5909 C   0  0  0  0  0  0  0  0  0  0  0  0
   27.6101  -33.7177    3.6316 O   0  0  0  0  0  0  0  0  0  0  0  0
   31.1415  -35.1429    0.5652 C   0  0  0  0  0  0  0  0  0  0  0  0
   30.8455  -36.3933    0.5764 O   0  0  0  0  0  0  0  0  0  0  0  0
   25.9187  -34.5164    2.3369 O   0  0  0  0  0  0  0  0  0  0  0  0
   32.4204  -34.8003    1.0900 N   0  0  0  0  0  0  0  0  0  0  0  0
   33.2881  -35.7614    1.7143 C   0  0  0  0  0  0  0  0  0  0  0  0
   34.0263  -36.5750    0.7375 C   0  0  0  0  0  0  0  0  0  0  0  0
   34.9546  -37.5487    1.0712 O   0  0  0  0  0  0  0  0  0  0  0  0
   33.8078  -36.3823   -0.4848 O   0  0  0  0  0  0  0  0  0  0  0  0
  2  1  1  6
  2  7  1  0
  3  4  1  0
  3  2  1  0
  5  6  2  0
  5  4  1  0
  7 10  1  0
  7  8  2  0
  9  5  1  0
 10 11  1  0
 11 16  1  0
 11 12  1  1
 13 12  1  0
 13 14  1  0
 14 15  2  0
 14 18  1  0
 16 17  2  0
 19 20  1  0
 19 16  1  0
 21 22  1  0
 21 20  1  0
 23 21  2  0
M  END
$$$$
