EEG.pdb
     RDKit          3D

 23 22  0  0  1  0  0  0  0  0999 V2000
   28.0417  -18.9883  -18.4300 N   0  0  0  0  0  0  0  0  0  0  0  0
   27.9948  -19.9390  -17.3724 C   0  0  1  0  0  0  0  0  0  0  0  0
   29.2813  -20.5017  -16.8948 C   0  0  0  0  0  0  0  0  0  0  0  0
   29.8369  -21.6712  -17.6224 C   0  0  0  0  0  0  0  0  0  0  0  0
   29.0990  -22.9209  -17.4986 C   0  0  0  0  0  0  0  0  0  0  0  0
   29.3168  -23.7368  -16.5848 O   0  0  0  0  0  0  0  0  0  0  0  0
   27.1766  -19.4103  -16.2196 C   0  0  0  0  0  0  0  0  0  0  0  0
   27.3371  -18.2008  -15.9388 O   0  0  0  0  0  0  0  0  0  0  0  0
   28.0936  -23.2821  -18.4060 O   0  0  0  0  0  0  0  0  0  0  0  0
   26.2795  -20.2417  -15.5016 N   0  0  0  0  0  0  0  0  0  0  0  0
   25.4719  -19.6939  -14.3917 C   0  0  1  0  0  0  0  0  0  0  0  0
   24.0749  -19.7341  -14.8587 C   0  0  0  0  0  0  0  0  0  0  0  0
   22.9907  -19.4196  -13.9049 C   0  0  0  0  0  0  0  0  0  0  0  0
   21.6144  -19.5486  -14.4393 C   0  0  0  0  0  0  0  0  0  0  0  0
   21.0532  -18.5514  -14.9593 O   0  0  0  0  0  0  0  0  0  0  0  0
   25.8306  -20.4086  -13.1819 C   0  0  0  0  0  0  0  0  0  0  0  0
   25.7513  -21.6909  -13.2124 O   0  0  0  0  0  0  0  0  0  0  0  0
   20.9187  -20.7481  -14.3833 O   0  0  0  0  0  0  0  0  0  0  0  0
   26.2670  -19.8404  -11.9510 N   0  0  0  0  0  0  0  0  0  0  0  0
   26.4392  -20.6165  -10.7534 C   0  0  0  0  0  0  0  0  0  0  0  0
   25.1626  -20.9352  -10.0978 C   0  0  0  0  0  0  0  0  0  0  0  0
   25.0455  -21.6568   -8.9201 O   0  0  0  0  0  0  0  0  0  0  0  0
   24.1004  -20.5307  -10.6334 O   0  0  0  0  0  0  0  0  0  0  0  0
  2  1  1  6
  2  7  1  0
  3  4  1  0
  3  2  1  0
  5  6  2  0
  5  4  1  0
  7 10  1  0
  7  8  2  0
  9  5  1  0
 10 11  1  0
 11 16  1  0
 11 12  1  6
 13 12  1  0
 13 14  1  0
 14 15  2  0
 14 18  1  0
 16 17  2  0
 19 20  1  0
 19 16  1  0
 21 22  1  0
 21 20  1  0
 23 21  2  0
M  END
$$$$
