EEG.pdb
     RDKit          3D

 23 22  0  0  1  0  0  0  0  0999 V2000
   19.2663  -12.8071  -17.4270 N   0  0  0  0  0  0  0  0  0  0  0  0
   20.1858  -12.0826  -16.6182 C   0  0  1  0  0  0  0  0  0  0  0  0
   21.6276  -12.1911  -16.9488 C   0  0  0  0  0  0  0  0  0  0  0  0
   22.0742  -11.6804  -18.2700 C   0  0  0  0  0  0  0  0  0  0  0  0
   23.4655  -11.9278  -18.6231 C   0  0  0  0  0  0  0  0  0  0  0  0
   24.2406  -12.5572  -17.8806 O   0  0  0  0  0  0  0  0  0  0  0  0
   19.7665  -10.6374  -16.5026 C   0  0  0  0  0  0  0  0  0  0  0  0
   19.6555  -10.0079  -17.5791 O   0  0  0  0  0  0  0  0  0  0  0  0
   24.0185  -11.4698  -19.8268 O   0  0  0  0  0  0  0  0  0  0  0  0
   19.5139  -10.0349  -15.2437 N   0  0  0  0  0  0  0  0  0  0  0  0
   19.2068   -8.5924  -15.1489 C   0  0  1  0  0  0  0  0  0  0  0  0
   17.8193   -8.5125  -14.6592 C   0  0  0  0  0  0  0  0  0  0  0  0
   16.7094   -8.7235  -15.6121 C   0  0  0  0  0  0  0  0  0  0  0  0
   15.3475   -8.5680  -15.0487 C   0  0  0  0  0  0  0  0  0  0  0  0
   14.6490   -7.5754  -15.3753 O   0  0  0  0  0  0  0  0  0  0  0  0
   20.2619   -7.9596  -14.3811 C   0  0  0  0  0  0  0  0  0  0  0  0
   20.8658   -8.6823  -13.5069 O   0  0  0  0  0  0  0  0  0  0  0  0
   14.8135   -9.4933  -14.1629 O   0  0  0  0  0  0  0  0  0  0  0  0
   20.7082   -6.6116  -14.4912 N   0  0  0  0  0  0  0  0  0  0  0  0
   21.7556   -6.0692  -13.6696 C   0  0  0  0  0  0  0  0  0  0  0  0
   22.1549   -4.7161  -14.0828 C   0  0  0  0  0  0  0  0  0  0  0  0
   23.0930   -3.9397  -13.4206 O   0  0  0  0  0  0  0  0  0  0  0  0
   21.6151   -4.2213  -15.1039 O   0  0  0  0  0  0  0  0  0  0  0  0
  2  1  1  6
  2  7  1  0
  3  4  1  0
  3  2  1  0
  5  6  2  0
  5  4  1  0
  7 10  1  0
  7  8  2  0
  9  5  1  0
 10 11  1  0
 11 16  1  0
 11 12  1  1
 13 12  1  0
 13 14  1  0
 14 15  2  0
 14 18  1  0
 16 17  2  0
 19 20  1  0
 19 16  1  0
 21 22  1  0
 21 20  1  0
 23 21  2  0
M  END
$$$$
