EEG.pdb
     RDKit          3D

 23 22  0  0  1  0  0  0  0  0999 V2000
   21.6977  -11.7133  -15.9662 N   0  0  0  0  0  0  0  0  0  0  0  0
   21.1066  -10.4266  -16.1071 C   0  0  1  0  0  0  0  0  0  0  0  0
   19.7747  -10.2097  -15.4916 C   0  0  0  0  0  0  0  0  0  0  0  0
   18.6420  -11.0328  -15.9869 C   0  0  0  0  0  0  0  0  0  0  0  0
   17.3533  -10.8139  -15.3444 C   0  0  0  0  0  0  0  0  0  0  0  0
   16.6177  -11.7518  -14.9874 O   0  0  0  0  0  0  0  0  0  0  0  0
   22.0761   -9.3486  -15.6880 C   0  0  0  0  0  0  0  0  0  0  0  0
   22.7928   -9.6076  -14.6947 O   0  0  0  0  0  0  0  0  0  0  0  0
   16.8609   -9.5268  -15.0878 O   0  0  0  0  0  0  0  0  0  0  0  0
   22.1647   -8.1165  -16.3850 N   0  0  0  0  0  0  0  0  0  0  0  0
   23.1740   -7.1072  -16.0019 C   0  0  1  0  0  0  0  0  0  0  0  0
   24.0993   -7.0162  -17.1451 C   0  0  0  0  0  0  0  0  0  0  0  0
   25.2048   -6.0365  -17.0965 C   0  0  0  0  0  0  0  0  0  0  0  0
   26.1173   -6.0470  -18.2642 C   0  0  0  0  0  0  0  0  0  0  0  0
   26.2873   -4.9947  -18.9301 O   0  0  0  0  0  0  0  0  0  0  0  0
   22.4722   -5.9147  -15.5675 C   0  0  0  0  0  0  0  0  0  0  0  0
   22.0177   -5.1353  -16.4825 O   0  0  0  0  0  0  0  0  0  0  0  0
   26.7972   -7.1938  -18.6495 O   0  0  0  0  0  0  0  0  0  0  0  0
   22.2274   -5.5086  -14.2246 N   0  0  0  0  0  0  0  0  0  0  0  0
   21.6622   -4.2302  -13.8891 C   0  0  0  0  0  0  0  0  0  0  0  0
   20.2374   -4.1329  -14.2376 C   0  0  0  0  0  0  0  0  0  0  0  0
   19.2651   -5.0263  -13.8162 O   0  0  0  0  0  0  0  0  0  0  0  0
   19.8660   -3.1790  -14.9663 O   0  0  0  0  0  0  0  0  0  0  0  0
  2  1  1  1
  2  7  1  0
  3  4  1  0
  3  2  1  0
  5  6  2  0
  5  4  1  0
  7 10  1  0
  7  8  2  0
  9  5  1  0
 10 11  1  0
 11 16  1  0
 11 12  1  6
 13 12  1  0
 13 14  1  0
 14 15  2  0
 14 18  1  0
 16 17  2  0
 19 20  1  0
 19 16  1  0
 21 22  1  0
 21 20  1  0
 23 21  2  0
M  END
$$$$
