IGF.pdb
     RDKit          3D

 24 24  0  0  1  0  0  0  0  0999 V2000
    5.7481  -21.1696   21.4147 C   0  0  0  0  0  0  0  0  0  0  0  0
    6.0114  -19.8903   20.6509 C   0  0  0  0  0  0  0  0  0  0  0  0
    6.9504  -18.9690   21.4095 C   0  0  2  0  0  0  0  0  0  0  0  0
    6.2777  -18.5112   22.6571 C   0  0  0  0  0  0  0  0  0  0  0  0
    7.3126  -17.8628   20.4414 C   0  0  2  0  0  0  0  0  0  0  0  0
    7.7346  -18.5710   19.2142 N   0  0  0  0  0  0  0  0  0  0  0  0
    8.4952  -17.0777   20.8584 C   0  0  0  0  0  0  0  0  0  0  0  0
    9.6421  -17.5687   20.9704 O   0  0  0  0  0  0  0  0  0  0  0  0
    8.3565  -15.6718   21.1582 N   0  0  0  0  0  0  0  0  0  0  0  0
    9.4944  -14.9198   21.6161 C   0  0  0  0  0  0  0  0  0  0  0  0
    9.6889  -15.0257   23.0720 C   0  0  0  0  0  0  0  0  0  0  0  0
   10.7108  -14.4388   23.6097 O   0  0  0  0  0  0  0  0  0  0  0  0
    8.8680  -15.7136   23.9857 N   0  0  0  0  0  0  0  0  0  0  0  0
    9.0880  -15.7253   25.4156 C   0  0  1  0  0  0  0  0  0  0  0  0
    7.7529  -15.4851   26.0738 C   0  0  0  0  0  0  0  0  0  0  0  0
    7.3057  -14.0922   26.0891 C   0  0  0  0  0  0  0  0  0  0  0  0
    8.2368  -13.0798   26.0193 C   0  0  0  0  0  0  0  0  0  0  0  0
    7.8414  -11.7485   26.0304 C   0  0  0  0  0  0  0  0  0  0  0  0
    6.4960  -11.4662   26.1129 C   0  0  0  0  0  0  0  0  0  0  0  0
    5.5438  -12.4593   26.1839 C   0  0  0  0  0  0  0  0  0  0  0  0
    5.9690  -13.7619   26.1706 C   0  0  0  0  0  0  0  0  0  0  0  0
    9.6950  -16.9575   25.9289 C   0  0  0  0  0  0  0  0  0  0  0  0
   10.1807  -17.1198   27.2151 O   0  0  0  0  0  0  0  0  0  0  0  0
    9.8012  -17.9576   25.1788 O   0  0  0  0  0  0  0  0  0  0  0  0
  2  1  1  0
  3  2  1  0
  3  5  1  0
  3  4  1  1
  5  6  1  6
  7  5  1  0
  7  9  1  0
  8  7  2  0
 10  9  1  0
 11 10  1  0
 12 11  2  0
 13 11  1  0
 14 22  1  0
 14 13  1  0
 15 16  1  0
 14 15  1  1
 16 21  2  0
 16 17  1  0
 17 18  2  0
 18 19  1  0
 20 19  2  0
 21 20  1  0
 22 23  1  0
 24 22  2  0
M  END
$$$$
